ACEM-pdb1a2w-A-ASN-27:NMA-pdb1a2w-A-ALA-96
     RDKit          3D

 21 19  0  0  0  0  0  0  0  0999 V2000
   -5.3919    1.1537    1.9781 C   0  0  0  0  0  0  0  0  0  0  0  0
   -6.3346    0.9565    1.7229 H   0  0  0  0  0  0  0  0  0  0  0  0
   -5.2950    2.1172    2.2147 H   0  0  0  0  0  0  0  0  0  0  0  0
   -5.1435    0.5597    2.8576 H   0  0  0  0  0  0  0  0  0  0  0  0
   -4.4949    0.8526    0.7895 C   0  0  0  0  0  0  0  0  0  0  0  0
   -3.2781    0.3940    1.0619 N   0  0  0  0  0  0  0  0  0  0  0  0
   -3.0012    0.2591    2.0159 H   0  0  0  0  0  0  0  0  0  0  0  0
   -2.6427    0.1834    0.3233 H   0  0  0  0  0  0  0  0  0  0  0  0
   -4.8902    1.0289   -0.3594 O   0  0  0  0  0  0  0  0  0  0  0  0
   -1.0983   -2.1694    0.0741 C   0  0  0  0  0  0  0  0  0  0  0  0
   -0.1342   -2.4784   -0.0881 H   0  0  0  0  0  0  0  0  0  0  0  0
   -1.7389   -2.6810   -0.6443 H   0  0  0  0  0  0  0  0  0  0  0  0
   -1.3862   -2.4962    1.0732 H   0  0  0  0  0  0  0  0  0  0  0  0
   -1.1206   -0.7143   -0.0000 N   0  0  0  0  0  0  0  0  0  0  0  0
   -1.9946   -0.1559   -0.0562 H   0  0  0  0  0  0  0  0  0  0  0  0
    0.0000    0.0000    0.0000 C   0  0  0  0  0  0  0  0  0  0  0  0
    1.1206   -0.5133    0.0000 O   0  0  0  0  0  0  0  0  0  0  0  0
   -0.1561    1.5157   -0.0373 C   0  0  0  0  0  0  0  0  0  0  0  0
   -1.0664    1.7531    0.2957 H   0  0  0  0  0  0  0  0  0  0  0  0
    0.5881    1.9597    0.6239 H   0  0  0  0  0  0  0  0  0  0  0  0
   -0.0284    1.8843   -1.0551 H   0  0  0  0  0  0  0  0  0  0  0  0
  1  5  1  0
  5  6  1  0
  5  9  2  0
  1  2  1  0
  1  3  1  0
  1  4  1  0
  6  7  1  0
  6  8  1  0
 10 14  1  0
 14 16  1  0
 16 17  2  0
 16 18  1  0
 10 11  1  0
 10 12  1  0
 10 13  1  0
 14 15  1  0
 18 19  1  0
 18 20  1  0
 18 21  1  0
M  END
>  <PDB_ID>  (1) 
pdb1a2w

>  <RESIDUE_NAME>  (1) 
ASN   ALA

>  <FRAG_NAME>  (1) 
ACEM   NMA

>  <FRAG_ATOM_NUM>  (1) 
fragi: 9  fragj: 12

>  <atom.prop.CHAIN_ID>  (1) 
A A A A A A A A A Z Z Z Z Z Z Z Z Z Z Z Z

>  <atom.prop.IS_HEAVY_ATOM>  (1) 
1 0 0 0 1 1 0 0 1 1 0 0 0 1 0 1 1 1 0 0 0

>  <DIFUSE_FUNC_ATOM>  (1) 
n/a

>  <FINAL_SINGLE_POINT_ENERGY>  (1) 
0

>  <NONCOV_INTER_ENERGY_QM>  (1) 
0

>  <FF_Energy>  (1) 
18.56

>  <QM_Energy>  (1) 
48.84

>  <source>  (1) 
ACEM_nNMA_00

>  <Index>  (1) 
3512

$$$$
ACEM-pdb1a12-A-GLN-271:NMA-pdb1a12-A-ASN-268
     RDKit          3D

 21 19  0  0  0  0  0  0  0  0999 V2000
   -6.1384    0.3068   -0.2586 C   0  0  0  0  0  0  0  0  0  0  0  0
   -6.1398    0.8510   -1.0974 H   0  0  0  0  0  0  0  0  0  0  0  0
   -6.8196    0.6705    0.3761 H   0  0  0  0  0  0  0  0  0  0  0  0
   -6.4079   -0.7194   -0.5084 H   0  0  0  0  0  0  0  0  0  0  0  0
   -4.7701    0.4120    0.3836 C   0  0  0  0  0  0  0  0  0  0  0  0
   -3.7744   -0.2015   -0.2454 N   0  0  0  0  0  0  0  0  0  0  0  0
   -2.8243   -0.1635    0.1187 H   0  0  0  0  0  0  0  0  0  0  0  0
   -3.9753   -0.7142   -1.1023 H   0  0  0  0  0  0  0  0  0  0  0  0
   -4.6072    1.0414    1.4277 O   0  0  0  0  0  0  0  0  0  0  0  0
   -1.1932   -2.1289   -0.1799 C   0  0  0  0  0  0  0  0  0  0  0  0
   -0.2468   -2.4834   -0.2805 H   0  0  0  0  0  0  0  0  0  0  0  0
   -1.7572   -2.4157   -1.0674 H   0  0  0  0  0  0  0  0  0  0  0  0
   -1.6118   -2.6031    0.7079 H   0  0  0  0  0  0  0  0  0  0  0  0
   -1.1227   -0.6915   -0.0000 N   0  0  0  0  0  0  0  0  0  0  0  0
   -1.9872   -0.0982    0.1450 H   0  0  0  0  0  0  0  0  0  0  0  0
    0.0000    0.0000    0.0000 C   0  0  0  0  0  0  0  0  0  0  0  0
    1.1227   -0.5585    0.0000 O   0  0  0  0  0  0  0  0  0  0  0  0
   -0.0648    1.5105    0.0031 C   0  0  0  0  0  0  0  0  0  0  0  0
    0.6237    1.8441   -0.6603 H   0  0  0  0  0  0  0  0  0  0  0  0
   -1.0312    1.8883   -0.3306 H   0  0  0  0  0  0  0  0  0  0  0  0
    0.2100    1.9211    0.9748 H   0  0  0  0  0  0  0  0  0  0  0  0
  1  5  1  0
  5  6  1  0
  5  9  2  0
  1  2  1  0
  1  3  1  0
  1  4  1  0
  6  7  1  0
  6  8  1  0
 10 14  1  0
 14 16  1  0
 16 17  2  0
 16 18  1  0
 10 11  1  0
 10 12  1  0
 10 13  1  0
 14 15  1  0
 18 19  1  0
 18 20  1  0
 18 21  1  0
M  END
>  <PDB_ID>  (2) 
pdb1a12

>  <RESIDUE_NAME>  (2) 
GLN   ASN

>  <FRAG_NAME>  (2) 
ACEM   NMA

>  <FRAG_ATOM_NUM>  (2) 
fragi: 9  fragj: 12

>  <atom.prop.CHAIN_ID>  (2) 
A A A A A A A A A Z Z Z Z Z Z Z Z Z Z Z Z

>  <atom.prop.IS_HEAVY_ATOM>  (2) 
1 0 0 0 1 1 0 0 1 1 0 0 0 1 0 1 1 1 0 0 0

>  <DIFUSE_FUNC_ATOM>  (2) 
n/a

>  <FINAL_SINGLE_POINT_ENERGY>  (2) 
0

>  <NONCOV_INTER_ENERGY_QM>  (2) 
0

>  <FF_Energy>  (2) 
15.76

>  <QM_Energy>  (2) 
44.22

>  <source>  (2) 
ACEM_nNMA_00

>  <Index>  (2) 
6137

$$$$
ACEM-pdb1a2o-B-GLN-345:NMA-pdb1a2o-B-LEU-153
     RDKit          3D

 21 19  0  0  0  0  0  0  0  0999 V2000
   -4.6342    2.2600   -1.0458 C   0  0  0  0  0  0  0  0  0  0  0  0
   -4.8407    1.9213   -1.9502 H   0  0  0  0  0  0  0  0  0  0  0  0
   -4.0454    3.0514   -1.0792 H   0  0  0  0  0  0  0  0  0  0  0  0
   -5.5683    2.5448   -0.5616 H   0  0  0  0  0  0  0  0  0  0  0  0
   -3.9553    1.1671   -0.2506 C   0  0  0  0  0  0  0  0  0  0  0  0
   -3.4071    0.1867   -0.9571 N   0  0  0  0  0  0  0  0  0  0  0  0
   -2.9180   -0.5804   -0.4934 H   0  0  0  0  0  0  0  0  0  0  0  0
   -3.4801    0.2080   -1.9710 H   0  0  0  0  0  0  0  0  0  0  0  0
   -3.9264    1.2022    0.9643 O   0  0  0  0  0  0  0  0  0  0  0  0
   -1.0864   -2.1486   -0.0724 C   0  0  0  0  0  0  0  0  0  0  0  0
   -0.6617   -2.4926    0.7683 H   0  0  0  0  0  0  0  0  0  0  0  0
   -0.4729   -2.4691   -0.9144 H   0  0  0  0  0  0  0  0  0  0  0  0
   -2.0972   -2.5521   -0.1318 H   0  0  0  0  0  0  0  0  0  0  0  0
   -1.1188   -0.6874   -0.0000 N   0  0  0  0  0  0  0  0  0  0  0  0
   -1.9883   -0.1385    0.0529 H   0  0  0  0  0  0  0  0  0  0  0  0
    0.0000    0.0000    0.0000 C   0  0  0  0  0  0  0  0  0  0  0  0
    1.1188   -0.5118    0.0000 O   0  0  0  0  0  0  0  0  0  0  0  0
   -0.0716    1.5300    0.0102 C   0  0  0  0  0  0  0  0  0  0  0  0
   -0.7890    1.8015    0.6374 H   0  0  0  0  0  0  0  0  0  0  0  0
    0.8895    1.8845    0.3826 H   0  0  0  0  0  0  0  0  0  0  0  0
   -0.3012    1.8999   -0.9891 H   0  0  0  0  0  0  0  0  0  0  0  0
  1  5  1  0
  5  6  1  0
  5  9  2  0
  1  2  1  0
  1  3  1  0
  1  4  1  0
  6  7  1  0
  6  8  1  0
 10 14  1  0
 14 16  1  0
 16 17  2  0
 16 18  1  0
 10 11  1  0
 10 12  1  0
 10 13  1  0
 14 15  1  0
 18 19  1  0
 18 20  1  0
 18 21  1  0
M  END
>  <PDB_ID>  (3) 
pdb1a2o

>  <RESIDUE_NAME>  (3) 
GLN   LEU

>  <FRAG_NAME>  (3) 
ACEM   NMA

>  <FRAG_ATOM_NUM>  (3) 
fragi: 9  fragj: 12

>  <atom.prop.CHAIN_ID>  (3) 
A A A A A A A A A Z Z Z Z Z Z Z Z Z Z Z Z

>  <atom.prop.IS_HEAVY_ATOM>  (3) 
1 0 0 0 1 1 0 0 1 1 0 0 0 1 0 1 1 1 0 0 0

>  <DIFUSE_FUNC_ATOM>  (3) 
n/a

>  <FINAL_SINGLE_POINT_ENERGY>  (3) 
0

>  <NONCOV_INTER_ENERGY_QM>  (3) 
0

>  <FF_Energy>  (3) 
6.87

>  <QM_Energy>  (3) 
20.85

>  <source>  (3) 
ACEM_nNMA_00

>  <Index>  (3) 
7896

$$$$
ACEM-pdb2a8c-A-ASN-117:NMA-pdb2a8c-A-ASP-112
     RDKit          3D

 21 19  0  0  0  0  0  0  0  0999 V2000
   -5.7271    0.2312   -1.3542 C   0  0  0  0  0  0  0  0  0  0  0  0
   -5.3888   -0.0012   -2.2617 H   0  0  0  0  0  0  0  0  0  0  0  0
   -6.1577    1.1296   -1.3696 H   0  0  0  0  0  0  0  0  0  0  0  0
   -6.4767   -0.5060   -1.0662 H   0  0  0  0  0  0  0  0  0  0  0  0
   -4.5474    0.2770   -0.3959 C   0  0  0  0  0  0  0  0  0  0  0  0
   -3.3391    0.1199   -0.9334 N   0  0  0  0  0  0  0  0  0  0  0  0
   -3.2502   -0.0130   -1.9219 H   0  0  0  0  0  0  0  0  0  0  0  0
   -2.5267    0.1348   -0.3547 H   0  0  0  0  0  0  0  0  0  0  0  0
   -4.7172    0.4597    0.8076 O   0  0  0  0  0  0  0  0  0  0  0  0
   -1.0731   -2.1719    0.0256 C   0  0  0  0  0  0  0  0  0  0  0  0
   -0.1414   -2.4591    0.3260 H   0  0  0  0  0  0  0  0  0  0  0  0
   -1.2797   -2.6406   -0.9366 H   0  0  0  0  0  0  0  0  0  0  0  0
   -1.7721   -2.5404    0.7764 H   0  0  0  0  0  0  0  0  0  0  0  0
   -1.1169   -0.7164    0.0000 N   0  0  0  0  0  0  0  0  0  0  0  0
   -1.9925   -0.1674   -0.0197 H   0  0  0  0  0  0  0  0  0  0  0  0
    0.0000    0.0000    0.0000 C   0  0  0  0  0  0  0  0  0  0  0  0
    1.1169   -0.5147   -0.0000 O   0  0  0  0  0  0  0  0  0  0  0  0
   -0.1624    1.5186    0.0172 C   0  0  0  0  0  0  0  0  0  0  0  0
   -1.1265    1.7084   -0.0744 H   0  0  0  0  0  0  0  0  0  0  0  0
    0.1392    1.8326    1.0165 H   0  0  0  0  0  0  0  0  0  0  0  0
    0.4843    1.9738   -0.7329 H   0  0  0  0  0  0  0  0  0  0  0  0
  1  5  1  0
  5  6  1  0
  5  9  2  0
  1  2  1  0
  1  3  1  0
  1  4  1  0
  6  7  1  0
  6  8  1  0
 10 14  1  0
 14 16  1  0
 16 17  2  0
 16 18  1  0
 10 11  1  0
 10 12  1  0
 10 13  1  0
 14 15  1  0
 18 19  1  0
 18 20  1  0
 18 21  1  0
M  END
>  <PDB_ID>  (4) 
pdb2a8c

>  <RESIDUE_NAME>  (4) 
ASN   ASP

>  <FRAG_NAME>  (4) 
ACEM   NMA

>  <FRAG_ATOM_NUM>  (4) 
fragi: 9  fragj: 12

>  <atom.prop.CHAIN_ID>  (4) 
A A A A A A A A A Z Z Z Z Z Z Z Z Z Z Z Z

>  <atom.prop.IS_HEAVY_ATOM>  (4) 
1 0 0 0 1 1 0 0 1 1 0 0 0 1 0 1 1 1 0 0 0

>  <DIFUSE_FUNC_ATOM>  (4) 
n/a

>  <FINAL_SINGLE_POINT_ENERGY>  (4) 
0

>  <NONCOV_INTER_ENERGY_QM>  (4) 
0

>  <FF_Energy>  (4) 
29.3

>  <QM_Energy>  (4) 
77.58

>  <source>  (4) 
ACEM_nNMA_00

>  <Index>  (4) 
8372

$$$$
ACEM-pdb1a4e-A-GLN-420:NMA-pdb1a4e-A-PRO-417
     RDKit          3D

 21 19  0  0  0  0  0  0  0  0999 V2000
   -5.0595    2.0762   -1.8008 C   0  0  0  0  0  0  0  0  0  0  0  0
   -5.5582    2.8784   -1.4623 H   0  0  0  0  0  0  0  0  0  0  0  0
   -5.6737    1.2828   -1.7949 H   0  0  0  0  0  0  0  0  0  0  0  0
   -4.7248    2.2646   -2.8209 H   0  0  0  0  0  0  0  0  0  0  0  0
   -3.9140    1.7971   -0.8532 C   0  0  0  0  0  0  0  0  0  0  0  0
   -3.2712    0.6414   -1.0042 N   0  0  0  0  0  0  0  0  0  0  0  0
   -2.4864    0.3962   -0.4146 H   0  0  0  0  0  0  0  0  0  0  0  0
   -3.5875    0.0002   -1.7343 H   0  0  0  0  0  0  0  0  0  0  0  0
   -3.5886    2.6147    0.0042 O   0  0  0  0  0  0  0  0  0  0  0  0
   -1.0550   -2.1622   -0.2071 C   0  0  0  0  0  0  0  0  0  0  0  0
   -0.1466   -2.4460    0.0506 H   0  0  0  0  0  0  0  0  0  0  0  0
   -1.1285   -2.2995   -1.2859 H   0  0  0  0  0  0  0  0  0  0  0  0
   -1.8672   -2.6392    0.3414 H   0  0  0  0  0  0  0  0  0  0  0  0
   -1.1170   -0.7264    0.0000 N   0  0  0  0  0  0  0  0  0  0  0  0
   -1.9868   -0.1979    0.1529 H   0  0  0  0  0  0  0  0  0  0  0  0
    0.0000    0.0000    0.0000 C   0  0  0  0  0  0  0  0  0  0  0  0
    1.1170   -0.5240   -0.0000 O   0  0  0  0  0  0  0  0  0  0  0  0
   -0.1577    1.5133    0.0860 C   0  0  0  0  0  0  0  0  0  0  0  0
   -1.0647    1.7540    0.4876 H   0  0  0  0  0  0  0  0  0  0  0  0
    0.6442    2.0102    0.6321 H   0  0  0  0  0  0  0  0  0  0  0  0
   -0.1462    2.0082   -0.8850 H   0  0  0  0  0  0  0  0  0  0  0  0
  1  5  1  0
  5  6  1  0
  5  9  2  0
  1  2  1  0
  1  3  1  0
  1  4  1  0
  6  7  1  0
  6  8  1  0
 10 14  1  0
 14 16  1  0
 16 17  2  0
 16 18  1  0
 10 11  1  0
 10 12  1  0
 10 13  1  0
 14 15  1  0
 18 19  1  0
 18 20  1  0
 18 21  1  0
M  END
>  <PDB_ID>  (5) 
pdb1a4e

>  <RESIDUE_NAME>  (5) 
GLN   PRO

>  <FRAG_NAME>  (5) 
ACEM   NMA

>  <FRAG_ATOM_NUM>  (5) 
fragi: 9  fragj: 12

>  <atom.prop.CHAIN_ID>  (5) 
A A A A A A A A A Z Z Z Z Z Z Z Z Z Z Z Z

>  <atom.prop.IS_HEAVY_ATOM>  (5) 
1 0 0 0 1 1 0 0 1 1 0 0 0 1 0 1 1 1 0 0 0

>  <DIFUSE_FUNC_ATOM>  (5) 
n/a

>  <FINAL_SINGLE_POINT_ENERGY>  (5) 
0

>  <NONCOV_INTER_ENERGY_QM>  (5) 
0

>  <FF_Energy>  (5) 
10.11

>  <QM_Energy>  (5) 
29.91

>  <source>  (5) 
ACEM_nNMA_00

>  <Index>  (5) 
11230

$$$$
ACEM-pdb1a12-C-GLN-271:NMA-pdb1a12-C-ASN-268
     RDKit          3D

 21 19  0  0  0  0  0  0  0  0999 V2000
   -6.0774    0.2410   -0.3752 C   0  0  0  0  0  0  0  0  0  0  0  0
   -5.9580    0.7718   -1.2164 H   0  0  0  0  0  0  0  0  0  0  0  0
   -6.7814    0.6728    0.1906 H   0  0  0  0  0  0  0  0  0  0  0  0
   -6.4090   -0.7630   -0.6399 H   0  0  0  0  0  0  0  0  0  0  0  0
   -4.7679    0.2518    0.3907 C   0  0  0  0  0  0  0  0  0  0  0  0
   -3.7443   -0.3680   -0.1825 N   0  0  0  0  0  0  0  0  0  0  0  0
   -2.8301   -0.3918    0.2647 H   0  0  0  0  0  0  0  0  0  0  0  0
   -3.8861   -0.8248   -1.0824 H   0  0  0  0  0  0  0  0  0  0  0  0
   -4.6782    0.8076    1.4832 O   0  0  0  0  0  0  0  0  0  0  0  0
   -1.1256   -2.1580   -0.1422 C   0  0  0  0  0  0  0  0  0  0  0  0
   -0.1731   -2.4699   -0.2463 H   0  0  0  0  0  0  0  0  0  0  0  0
   -1.6801   -2.4628   -1.0298 H   0  0  0  0  0  0  0  0  0  0  0  0
   -1.5422   -2.6308    0.7472 H   0  0  0  0  0  0  0  0  0  0  0  0
   -1.1222   -0.7112   -0.0000 N   0  0  0  0  0  0  0  0  0  0  0  0
   -1.9923   -0.1440    0.1099 H   0  0  0  0  0  0  0  0  0  0  0  0
    0.0000    0.0000    0.0000 C   0  0  0  0  0  0  0  0  0  0  0  0
    1.1222   -0.5190    0.0000 O   0  0  0  0  0  0  0  0  0  0  0  0
   -0.1538    1.5112   -0.0088 C   0  0  0  0  0  0  0  0  0  0  0  0
    0.5153    1.8748   -0.6691 H   0  0  0  0  0  0  0  0  0  0  0  0
   -1.1421    1.8068   -0.3608 H   0  0  0  0  0  0  0  0  0  0  0  0
    0.0636    1.9393    0.9697 H   0  0  0  0  0  0  0  0  0  0  0  0
  1  5  1  0
  5  6  1  0
  5  9  2  0
  1  2  1  0
  1  3  1  0
  1  4  1  0
  6  7  1  0
  6  8  1  0
 10 14  1  0
 14 16  1  0
 16 17  2  0
 16 18  1  0
 10 11  1  0
 10 12  1  0
 10 13  1  0
 14 15  1  0
 18 19  1  0
 18 20  1  0
 18 21  1  0
M  END
>  <PDB_ID>  (6) 
pdb1a12

>  <RESIDUE_NAME>  (6) 
GLN   ASN

>  <FRAG_NAME>  (6) 
ACEM   NMA

>  <FRAG_ATOM_NUM>  (6) 
fragi: 9  fragj: 12

>  <atom.prop.CHAIN_ID>  (6) 
A A A A A A A A A Z Z Z Z Z Z Z Z Z Z Z Z

>  <atom.prop.IS_HEAVY_ATOM>  (6) 
1 0 0 0 1 1 0 0 1 1 0 0 0 1 0 1 1 1 0 0 0

>  <DIFUSE_FUNC_ATOM>  (6) 
n/a

>  <FINAL_SINGLE_POINT_ENERGY>  (6) 
0

>  <NONCOV_INTER_ENERGY_QM>  (6) 
0

>  <FF_Energy>  (6) 
15.56

>  <QM_Energy>  (6) 
39.93

>  <source>  (6) 
ACEM_nNMA_00

>  <Index>  (6) 
11620

$$$$
ACEM-pdb2ac1-A-GLN-15:NMA-pdb2ac1-A-ARG-9
     RDKit          3D

 21 19  0  0  0  0  0  0  0  0999 V2000
   -5.6760    0.4061   -2.0025 C   0  0  0  0  0  0  0  0  0  0  0  0
   -5.5915   -0.5656   -2.2245 H   0  0  0  0  0  0  0  0  0  0  0  0
   -5.5674    0.9484   -2.8366 H   0  0  0  0  0  0  0  0  0  0  0  0
   -6.6737    0.5842   -1.6011 H   0  0  0  0  0  0  0  0  0  0  0  0
   -4.5541    0.7795   -1.0332 C   0  0  0  0  0  0  0  0  0  0  0  0
   -3.8172   -0.2240   -0.5617 N   0  0  0  0  0  0  0  0  0  0  0  0
   -3.0484   -0.0480    0.0728 H   0  0  0  0  0  0  0  0  0  0  0  0
   -4.0414   -1.1738   -0.8528 H   0  0  0  0  0  0  0  0  0  0  0  0
   -4.3542    1.9621   -0.7160 O   0  0  0  0  0  0  0  0  0  0  0  0
   -1.0809   -2.1768    0.0042 C   0  0  0  0  0  0  0  0  0  0  0  0
   -0.3317   -2.4749    0.6225 H   0  0  0  0  0  0  0  0  0  0  0  0
   -0.8975   -2.5996   -0.9836 H   0  0  0  0  0  0  0  0  0  0  0  0
   -2.0138   -2.5947    0.3823 H   0  0  0  0  0  0  0  0  0  0  0  0
   -1.1188   -0.7204   -0.0000 N   0  0  0  0  0  0  0  0  0  0  0  0
   -1.9946   -0.1679   -0.0031 H   0  0  0  0  0  0  0  0  0  0  0  0
    0.0000    0.0000    0.0000 C   0  0  0  0  0  0  0  0  0  0  0  0
    1.1188   -0.5067    0.0000 O   0  0  0  0  0  0  0  0  0  0  0  0
   -0.1581    1.5144    0.0208 C   0  0  0  0  0  0  0  0  0  0  0  0
   -1.0477    1.7385    0.3928 H   0  0  0  0  0  0  0  0  0  0  0  0
    0.6153    1.8956    0.6877 H   0  0  0  0  0  0  0  0  0  0  0  0
   -0.0562    1.9322   -0.9808 H   0  0  0  0  0  0  0  0  0  0  0  0
  1  5  1  0
  5  6  1  0
  5  9  2  0
  1  2  1  0
  1  3  1  0
  1  4  1  0
  6  7  1  0
  6  8  1  0
 10 14  1  0
 14 16  1  0
 16 17  2  0
 16 18  1  0
 10 11  1  0
 10 12  1  0
 10 13  1  0
 14 15  1  0
 18 19  1  0
 18 20  1  0
 18 21  1  0
M  END
>  <PDB_ID>  (7) 
pdb2ac1

>  <RESIDUE_NAME>  (7) 
GLN   ARG

>  <FRAG_NAME>  (7) 
ACEM   NMA

>  <FRAG_ATOM_NUM>  (7) 
fragi: 9  fragj: 12

>  <atom.prop.CHAIN_ID>  (7) 
A A A A A A A A A Z Z Z Z Z Z Z Z Z Z Z Z

>  <atom.prop.IS_HEAVY_ATOM>  (7) 
1 0 0 0 1 1 0 0 1 1 0 0 0 1 0 1 1 1 0 0 0

>  <DIFUSE_FUNC_ATOM>  (7) 
n/a

>  <FINAL_SINGLE_POINT_ENERGY>  (7) 
0

>  <NONCOV_INTER_ENERGY_QM>  (7) 
0

>  <FF_Energy>  (7) 
7.24

>  <QM_Energy>  (7) 
21.99

>  <source>  (7) 
ACEM_nNMA_00

>  <Index>  (7) 
12132

$$$$
ACEM-pdb2a8c-E-ASN-117:NMA-pdb2a8c-E-ASP-112
     RDKit          3D

 21 19  0  0  0  0  0  0  0  0999 V2000
   -4.8108    0.8411   -2.5363 C   0  0  0  0  0  0  0  0  0  0  0  0
   -4.2833    0.5478   -3.3308 H   0  0  0  0  0  0  0  0  0  0  0  0
   -5.0980    1.7905   -2.6517 H   0  0  0  0  0  0  0  0  0  0  0  0
   -5.7036    0.2195   -2.4687 H   0  0  0  0  0  0  0  0  0  0  0  0
   -3.9186    0.7524   -1.3049 C   0  0  0  0  0  0  0  0  0  0  0  0
   -2.6153    0.7282   -1.5369 N   0  0  0  0  0  0  0  0  0  0  0  0
   -2.2645    0.7719   -2.4725 H   0  0  0  0  0  0  0  0  0  0  0  0
   -1.9705    0.6645   -0.7704 H   0  0  0  0  0  0  0  0  0  0  0  0
   -4.3906    0.7302   -0.1655 O   0  0  0  0  0  0  0  0  0  0  0  0
   -1.1071   -2.1713    0.0400 C   0  0  0  0  0  0  0  0  0  0  0  0
   -0.2679   -2.4736    0.5469 H   0  0  0  0  0  0  0  0  0  0  0  0
   -1.1082   -2.6696   -0.9293 H   0  0  0  0  0  0  0  0  0  0  0  0
   -1.9639   -2.5127    0.6209 H   0  0  0  0  0  0  0  0  0  0  0  0
   -1.1182   -0.7168    0.0000 N   0  0  0  0  0  0  0  0  0  0  0  0
   -1.9949   -0.1523   -0.0309 H   0  0  0  0  0  0  0  0  0  0  0  0
    0.0000    0.0000    0.0000 C   0  0  0  0  0  0  0  0  0  0  0  0
    1.1182   -0.5080   -0.0000 O   0  0  0  0  0  0  0  0  0  0  0  0
   -0.1687    1.5179    0.0013 C   0  0  0  0  0  0  0  0  0  0  0  0
   -1.1359    1.7032   -0.1076 H   0  0  0  0  0  0  0  0  0  0  0  0
    0.1207    1.8646    0.9933 H   0  0  0  0  0  0  0  0  0  0  0  0
    0.4637    1.9642   -0.7663 H   0  0  0  0  0  0  0  0  0  0  0  0
  1  5  1  0
  5  6  1  0
  5  9  2  0
  1  2  1  0
  1  3  1  0
  1  4  1  0
  6  7  1  0
  6  8  1  0
 10 14  1  0
 14 16  1  0
 16 17  2  0
 16 18  1  0
 10 11  1  0
 10 12  1  0
 10 13  1  0
 14 15  1  0
 18 19  1  0
 18 20  1  0
 18 21  1  0
M  END
>  <PDB_ID>  (8) 
pdb2a8c

>  <RESIDUE_NAME>  (8) 
ASN   ASP

>  <FRAG_NAME>  (8) 
ACEM   NMA

>  <FRAG_ATOM_NUM>  (8) 
fragi: 9  fragj: 12

>  <atom.prop.CHAIN_ID>  (8) 
A A A A A A A A A Z Z Z Z Z Z Z Z Z Z Z Z

>  <atom.prop.IS_HEAVY_ATOM>  (8) 
1 0 0 0 1 1 0 0 1 1 0 0 0 1 0 1 1 1 0 0 0

>  <DIFUSE_FUNC_ATOM>  (8) 
n/a

>  <FINAL_SINGLE_POINT_ENERGY>  (8) 
0

>  <NONCOV_INTER_ENERGY_QM>  (8) 
0

>  <FF_Energy>  (8) 
19.84

>  <QM_Energy>  (8) 
31.17

>  <source>  (8) 
ACEM_nNMA_00

>  <Index>  (8) 
14188

$$$$
ACEM-pdb2a8x-B-GLN-451:NMA-pdb2a8x-B-VAL-440
     RDKit          3D

 21 19  0  0  0  0  0  0  0  0999 V2000
   -5.0754    0.4873    2.8101 C   0  0  0  0  0  0  0  0  0  0  0  0
   -5.8959    1.0501    2.7846 H   0  0  0  0  0  0  0  0  0  0  0  0
   -4.3813    0.9140    3.3813 H   0  0  0  0  0  0  0  0  0  0  0  0
   -5.3305   -0.4826    3.2368 H   0  0  0  0  0  0  0  0  0  0  0  0
   -4.5293    0.3614    1.3909 C   0  0  0  0  0  0  0  0  0  0  0  0
   -3.2178    0.5462    1.2415 N   0  0  0  0  0  0  0  0  0  0  0  0
   -2.7845    0.4639    0.3295 H   0  0  0  0  0  0  0  0  0  0  0  0
   -2.6601    0.7723    2.0623 H   0  0  0  0  0  0  0  0  0  0  0  0
   -5.2707    0.0865    0.4474 O   0  0  0  0  0  0  0  0  0  0  0  0
   -1.0830   -2.1844   -0.0080 C   0  0  0  0  0  0  0  0  0  0  0  0
   -0.1553   -2.4789    0.2649 H   0  0  0  0  0  0  0  0  0  0  0  0
   -1.2933   -2.5932   -0.9963 H   0  0  0  0  0  0  0  0  0  0  0  0
   -1.7908   -2.5926    0.7136 H   0  0  0  0  0  0  0  0  0  0  0  0
   -1.1209   -0.7215   -0.0000 N   0  0  0  0  0  0  0  0  0  0  0  0
   -1.9963   -0.1712    0.0061 H   0  0  0  0  0  0  0  0  0  0  0  0
    0.0000    0.0000    0.0000 C   0  0  0  0  0  0  0  0  0  0  0  0
    1.1209   -0.5145   -0.0000 O   0  0  0  0  0  0  0  0  0  0  0  0
   -0.1591    1.5314    0.0115 C   0  0  0  0  0  0  0  0  0  0  0  0
   -1.1509    1.7320    0.1054 H   0  0  0  0  0  0  0  0  0  0  0  0
    0.3676    2.0215    0.8303 H   0  0  0  0  0  0  0  0  0  0  0  0
    0.1795    1.9505   -0.9361 H   0  0  0  0  0  0  0  0  0  0  0  0
  1  5  1  0
  5  6  1  0
  5  9  2  0
  1  2  1  0
  1  3  1  0
  1  4  1  0
  6  7  1  0
  6  8  1  0
 10 14  1  0
 14 16  1  0
 16 17  2  0
 16 18  1  0
 10 11  1  0
 10 12  1  0
 10 13  1  0
 14 15  1  0
 18 19  1  0
 18 20  1  0
 18 21  1  0
M  END
>  <PDB_ID>  (9) 
pdb2a8x

>  <RESIDUE_NAME>  (9) 
GLN   VAL

>  <FRAG_NAME>  (9) 
ACEM   NMA

>  <FRAG_ATOM_NUM>  (9) 
fragi: 9  fragj: 12

>  <atom.prop.CHAIN_ID>  (9) 
A A A A A A A A A Z Z Z Z Z Z Z Z Z Z Z Z

>  <atom.prop.IS_HEAVY_ATOM>  (9) 
1 0 0 0 1 1 0 0 1 1 0 0 0 1 0 1 1 1 0 0 0

>  <DIFUSE_FUNC_ATOM>  (9) 
n/a

>  <FINAL_SINGLE_POINT_ENERGY>  (9) 
0

>  <NONCOV_INTER_ENERGY_QM>  (9) 
0

>  <FF_Energy>  (9) 
12.49

>  <QM_Energy>  (9) 
24.03

>  <source>  (9) 
ACEM_nNMA_00

>  <Index>  (9) 
15602

$$$$
ACEM-pdb1a4e-B-GLN-420:NMA-pdb1a4e-B-PRO-417
     RDKit          3D

 21 19  0  0  0  0  0  0  0  0999 V2000
   -5.0761    1.9626   -2.0431 C   0  0  0  0  0  0  0  0  0  0  0  0
   -5.6371    2.7351   -1.7174 H   0  0  0  0  0  0  0  0  0  0  0  0
   -5.6526    1.1341   -2.0407 H   0  0  0  0  0  0  0  0  0  0  0  0
   -4.7446    2.1651   -3.0615 H   0  0  0  0  0  0  0  0  0  0  0  0
   -3.9473    1.7515   -1.0458 C   0  0  0  0  0  0  0  0  0  0  0  0
   -3.3031    0.5939   -1.0974 N   0  0  0  0  0  0  0  0  0  0  0  0
   -2.5329    0.3926   -0.4730 H   0  0  0  0  0  0  0  0  0  0  0  0
   -3.6004   -0.1014   -1.7861 H   0  0  0  0  0  0  0  0  0  0  0  0
   -3.6119    2.6236   -0.2490 O   0  0  0  0  0  0  0  0  0  0  0  0
   -1.0486   -2.1552   -0.2126 C   0  0  0  0  0  0  0  0  0  0  0  0
   -0.1477   -2.4394    0.0702 H   0  0  0  0  0  0  0  0  0  0  0  0
   -1.0914   -2.2888   -1.2935 H   0  0  0  0  0  0  0  0  0  0  0  0
   -1.8762   -2.6197    0.3235 H   0  0  0  0  0  0  0  0  0  0  0  0
   -1.1182   -0.7208    0.0000 N   0  0  0  0  0  0  0  0  0  0  0  0
   -1.9858   -0.1966    0.1558 H   0  0  0  0  0  0  0  0  0  0  0  0
    0.0000    0.0000    0.0000 C   0  0  0  0  0  0  0  0  0  0  0  0
    1.1182   -0.5267   -0.0000 O   0  0  0  0  0  0  0  0  0  0  0  0
   -0.1812    1.5113    0.0943 C   0  0  0  0  0  0  0  0  0  0  0  0
   -1.0851    1.7339    0.5038 H   0  0  0  0  0  0  0  0  0  0  0  0
    0.6234    2.0014    0.6424 H   0  0  0  0  0  0  0  0  0  0  0  0
   -0.1743    2.0266   -0.8662 H   0  0  0  0  0  0  0  0  0  0  0  0
  1  5  1  0
  5  6  1  0
  5  9  2  0
  1  2  1  0
  1  3  1  0
  1  4  1  0
  6  7  1  0
  6  8  1  0
 10 14  1  0
 14 16  1  0
 16 17  2  0
 16 18  1  0
 10 11  1  0
 10 12  1  0
 10 13  1  0
 14 15  1  0
 18 19  1  0
 18 20  1  0
 18 21  1  0
M  END
>  <PDB_ID>  (10) 
pdb1a4e

>  <RESIDUE_NAME>  (10) 
GLN   PRO

>  <FRAG_NAME>  (10) 
ACEM   NMA

>  <FRAG_ATOM_NUM>  (10) 
fragi: 9  fragj: 12

>  <atom.prop.CHAIN_ID>  (10) 
A A A A A A A A A Z Z Z Z Z Z Z Z Z Z Z Z

>  <atom.prop.IS_HEAVY_ATOM>  (10) 
1 0 0 0 1 1 0 0 1 1 0 0 0 1 0 1 1 1 0 0 0

>  <DIFUSE_FUNC_ATOM>  (10) 
n/a

>  <FINAL_SINGLE_POINT_ENERGY>  (10) 
0

>  <NONCOV_INTER_ENERGY_QM>  (10) 
0

>  <FF_Energy>  (10) 
7.92

>  <QM_Energy>  (10) 
24.48

>  <source>  (10) 
ACEM_nNMA_00

>  <Index>  (10) 
15805

$$$$
ACEM-pdb2agl-A-ASN-124:NMA-pdb2agl-A-GLN-177
     RDKit          3D

 21 19  0  0  0  0  0  0  0  0999 V2000
   -4.0994    1.5475   -3.3863 C   0  0  0  0  0  0  0  0  0  0  0  0
   -3.7442    1.1226   -4.2143 H   0  0  0  0  0  0  0  0  0  0  0  0
   -3.6070    2.3922   -3.1963 H   0  0  0  0  0  0  0  0  0  0  0  0
   -5.1484    1.7934   -3.5514 H   0  0  0  0  0  0  0  0  0  0  0  0
   -3.9027    0.5972   -2.2274 C   0  0  0  0  0  0  0  0  0  0  0  0
   -2.9174    0.8903   -1.4190 N   0  0  0  0  0  0  0  0  0  0  0  0
   -2.3413    1.6964   -1.5641 H   0  0  0  0  0  0  0  0  0  0  0  0
   -2.7212    0.2962   -0.6227 H   0  0  0  0  0  0  0  0  0  0  0  0
   -4.6267   -0.4375   -2.0594 O   0  0  0  0  0  0  0  0  0  0  0  0
   -1.1093   -2.1369    0.1281 C   0  0  0  0  0  0  0  0  0  0  0  0
   -0.6216   -2.5469   -0.6633 H   0  0  0  0  0  0  0  0  0  0  0  0
   -0.5919   -2.4018    0.9618 H   0  0  0  0  0  0  0  0  0  0  0  0
   -2.1177   -2.5470    0.1828 H   0  0  0  0  0  0  0  0  0  0  0  0
   -1.1144   -0.7055    0.0000 N   0  0  0  0  0  0  0  0  0  0  0  0
   -1.9868   -0.1364   -0.1003 H   0  0  0  0  0  0  0  0  0  0  0  0
    0.0000    0.0000    0.0000 C   0  0  0  0  0  0  0  0  0  0  0  0
    1.1144   -0.5424   -0.0000 O   0  0  0  0  0  0  0  0  0  0  0  0
   -0.1369    1.4949    0.0047 C   0  0  0  0  0  0  0  0  0  0  0  0
   -1.1050    1.7212   -0.0016 H   0  0  0  0  0  0  0  0  0  0  0  0
    0.2869    1.8451    0.9459 H   0  0  0  0  0  0  0  0  0  0  0  0
    0.3591    1.9827   -0.8343 H   0  0  0  0  0  0  0  0  0  0  0  0
  1  5  1  0
  5  6  1  0
  5  9  2  0
  1  2  1  0
  1  3  1  0
  1  4  1  0
  6  7  1  0
  6  8  1  0
 10 14  1  0
 14 16  1  0
 16 17  2  0
 16 18  1  0
 10 11  1  0
 10 12  1  0
 10 13  1  0
 14 15  1  0
 18 19  1  0
 18 20  1  0
 18 21  1  0
M  END
>  <PDB_ID>  (11) 
pdb2agl

>  <RESIDUE_NAME>  (11) 
ASN   GLN

>  <FRAG_NAME>  (11) 
ACEM   NMA

>  <FRAG_ATOM_NUM>  (11) 
fragi: 9  fragj: 12

>  <atom.prop.CHAIN_ID>  (11) 
A A A A A A A A A Z Z Z Z Z Z Z Z Z Z Z Z

>  <atom.prop.IS_HEAVY_ATOM>  (11) 
1 0 0 0 1 1 0 0 1 1 0 0 0 1 0 1 1 1 0 0 0

>  <DIFUSE_FUNC_ATOM>  (11) 
n/a

>  <FINAL_SINGLE_POINT_ENERGY>  (11) 
0

>  <NONCOV_INTER_ENERGY_QM>  (11) 
0

>  <FF_Energy>  (11) 
14.94

>  <QM_Energy>  (11) 
28.58

>  <source>  (11) 
ACEM_nNMA_00

>  <Index>  (11) 
15862

$$$$
ACEM-pdb2ajg-A-ASN-388:NMA-pdb2ajg-A-ASN-383
     RDKit          3D

 21 19  0  0  0  0  0  0  0  0999 V2000
   -6.0348    0.2556   -0.2566 C   0  0  0  0  0  0  0  0  0  0  0  0
   -6.5091   -0.0972   -1.0593 H   0  0  0  0  0  0  0  0  0  0  0  0
   -6.4006    1.1500   -0.0102 H   0  0  0  0  0  0  0  0  0  0  0  0
   -6.2117   -0.4276    0.5741 H   0  0  0  0  0  0  0  0  0  0  0  0
   -4.5666    0.4060   -0.5873 C   0  0  0  0  0  0  0  0  0  0  0  0
   -3.7131    0.0197    0.3521 N   0  0  0  0  0  0  0  0  0  0  0  0
   -4.0511   -0.3527    1.2171 H   0  0  0  0  0  0  0  0  0  0  0  0
   -2.7272    0.0985    0.1973 H   0  0  0  0  0  0  0  0  0  0  0  0
   -4.1969    0.8776   -1.6671 O   0  0  0  0  0  0  0  0  0  0  0  0
   -1.2253   -2.1502    0.1896 C   0  0  0  0  0  0  0  0  0  0  0  0
   -0.3042   -2.5369    0.1015 H   0  0  0  0  0  0  0  0  0  0  0  0
   -1.8482   -2.5894   -0.5896 H   0  0  0  0  0  0  0  0  0  0  0  0
   -1.6638   -2.3843    1.1597 H   0  0  0  0  0  0  0  0  0  0  0  0
   -1.1339   -0.7068    0.0000 N   0  0  0  0  0  0  0  0  0  0  0  0
   -1.9960   -0.1045   -0.1559 H   0  0  0  0  0  0  0  0  0  0  0  0
    0.0000    0.0000    0.0000 C   0  0  0  0  0  0  0  0  0  0  0  0
    1.1339   -0.5058    0.0000 O   0  0  0  0  0  0  0  0  0  0  0  0
   -0.2135    1.5307   -0.0191 C   0  0  0  0  0  0  0  0  0  0  0  0
   -0.3134    1.7933   -0.9844 H   0  0  0  0  0  0  0  0  0  0  0  0
   -1.1342    1.8105    0.4928 H   0  0  0  0  0  0  0  0  0  0  0  0
    0.6062    2.0884    0.4338 H   0  0  0  0  0  0  0  0  0  0  0  0
  1  5  1  0
  5  6  1  0
  5  9  2  0
  1  2  1  0
  1  3  1  0
  1  4  1  0
  6  7  1  0
  6  8  1  0
 10 14  1  0
 14 16  1  0
 16 17  2  0
 16 18  1  0
 10 11  1  0
 10 12  1  0
 10 13  1  0
 14 15  1  0
 18 19  1  0
 18 20  1  0
 18 21  1  0
M  END
>  <PDB_ID>  (12) 
pdb2ajg

>  <RESIDUE_NAME>  (12) 
ASN   ASN

>  <FRAG_NAME>  (12) 
ACEM   NMA

>  <FRAG_ATOM_NUM>  (12) 
fragi: 9  fragj: 12

>  <atom.prop.CHAIN_ID>  (12) 
A A A A A A A A A Z Z Z Z Z Z Z Z Z Z Z Z

>  <atom.prop.IS_HEAVY_ATOM>  (12) 
1 0 0 0 1 1 0 0 1 1 0 0 0 1 0 1 1 1 0 0 0

>  <DIFUSE_FUNC_ATOM>  (12) 
n/a

>  <FINAL_SINGLE_POINT_ENERGY>  (12) 
0

>  <NONCOV_INTER_ENERGY_QM>  (12) 
0

>  <FF_Energy>  (12) 
14.73

>  <QM_Energy>  (12) 
44.38

>  <source>  (12) 
ACEM_nNMA_00

>  <Index>  (12) 
17572

$$$$
ACEM-pdb2afa-B-GLN-43:NMA-pdb2afa-B-ASN-40
     RDKit          3D

 21 19  0  0  0  0  0  0  0  0999 V2000
   -6.2621   -0.7088    0.2753 C   0  0  0  0  0  0  0  0  0  0  0  0
   -6.8460   -0.0087   -0.1407 H   0  0  0  0  0  0  0  0  0  0  0  0
   -6.5892   -0.9011    1.2033 H   0  0  0  0  0  0  0  0  0  0  0  0
   -6.3490   -1.6216   -0.3140 H   0  0  0  0  0  0  0  0  0  0  0  0
   -4.8392   -0.1632    0.3640 C   0  0  0  0  0  0  0  0  0  0  0  0
   -3.8531   -1.0513    0.2301 N   0  0  0  0  0  0  0  0  0  0  0  0
   -2.8850   -0.7574    0.2639 H   0  0  0  0  0  0  0  0  0  0  0  0
   -4.0933   -2.0301    0.0928 H   0  0  0  0  0  0  0  0  0  0  0  0
   -4.6311    1.0406    0.5278 O   0  0  0  0  0  0  0  0  0  0  0  0
   -1.0618   -2.1738   -0.0155 C   0  0  0  0  0  0  0  0  0  0  0  0
   -0.1023   -2.4623    0.0307 H   0  0  0  0  0  0  0  0  0  0  0  0
   -1.5018   -2.5451   -0.9410 H   0  0  0  0  0  0  0  0  0  0  0  0
   -1.6050   -2.5858    0.8351 H   0  0  0  0  0  0  0  0  0  0  0  0
   -1.1153   -0.7155    0.0000 N   0  0  0  0  0  0  0  0  0  0  0  0
   -1.9921   -0.1728    0.0114 H   0  0  0  0  0  0  0  0  0  0  0  0
    0.0000    0.0000    0.0000 C   0  0  0  0  0  0  0  0  0  0  0  0
    1.1153   -0.5200   -0.0000 O   0  0  0  0  0  0  0  0  0  0  0  0
   -0.1341    1.5221    0.0215 C   0  0  0  0  0  0  0  0  0  0  0  0
    0.6012    1.8923   -0.6049 H   0  0  0  0  0  0  0  0  0  0  0  0
   -1.0741    1.9630   -0.3105 H   0  0  0  0  0  0  0  0  0  0  0  0
    0.0960    1.8809    1.0247 H   0  0  0  0  0  0  0  0  0  0  0  0
  1  5  1  0
  5  6  1  0
  5  9  2  0
  1  2  1  0
  1  3  1  0
  1  4  1  0
  6  7  1  0
  6  8  1  0
 10 14  1  0
 14 16  1  0
 16 17  2  0
 16 18  1  0
 10 11  1  0
 10 12  1  0
 10 13  1  0
 14 15  1  0
 18 19  1  0
 18 20  1  0
 18 21  1  0
M  END
>  <PDB_ID>  (13) 
pdb2afa

>  <RESIDUE_NAME>  (13) 
GLN   ASN

>  <FRAG_NAME>  (13) 
ACEM   NMA

>  <FRAG_ATOM_NUM>  (13) 
fragi: 9  fragj: 12

>  <atom.prop.CHAIN_ID>  (13) 
A A A A A A A A A Z Z Z Z Z Z Z Z Z Z Z Z

>  <atom.prop.IS_HEAVY_ATOM>  (13) 
1 0 0 0 1 1 0 0 1 1 0 0 0 1 0 1 1 1 0 0 0

>  <DIFUSE_FUNC_ATOM>  (13) 
n/a

>  <FINAL_SINGLE_POINT_ENERGY>  (13) 
0

>  <NONCOV_INTER_ENERGY_QM>  (13) 
0

>  <FF_Energy>  (13) 
6.19

>  <QM_Energy>  (13) 
19.63

>  <source>  (13) 
ACEM_nNMA_00

>  <Index>  (13) 
17743

$$$$
ACEM-pdb2agl-B-ASN-124:NMA-pdb2agl-B-GLN-177
     RDKit          3D

 21 19  0  0  0  0  0  0  0  0999 V2000
   -4.1704    1.5548   -3.3294 C   0  0  0  0  0  0  0  0  0  0  0  0
   -3.7655    1.1752   -4.1625 H   0  0  0  0  0  0  0  0  0  0  0  0
   -3.7141    2.4164   -3.1011 H   0  0  0  0  0  0  0  0  0  0  0  0
   -5.2259    1.7560   -3.5122 H   0  0  0  0  0  0  0  0  0  0  0  0
   -3.9346    0.5762   -2.1970 C   0  0  0  0  0  0  0  0  0  0  0  0
   -2.9429    0.8776   -1.4115 N   0  0  0  0  0  0  0  0  0  0  0  0
   -2.3828    1.6964   -1.5419 H   0  0  0  0  0  0  0  0  0  0  0  0
   -2.7137    0.2681   -0.6282 H   0  0  0  0  0  0  0  0  0  0  0  0
   -4.6328   -0.4688   -2.0200 O   0  0  0  0  0  0  0  0  0  0  0  0
   -1.0685   -2.1639    0.0546 C   0  0  0  0  0  0  0  0  0  0  0  0
   -0.6175   -2.5181   -0.7771 H   0  0  0  0  0  0  0  0  0  0  0  0
   -0.5174   -2.4524    0.8502 H   0  0  0  0  0  0  0  0  0  0  0  0
   -2.0727   -2.5804    0.1333 H   0  0  0  0  0  0  0  0  0  0  0  0
   -1.1150   -0.7209   -0.0000 N   0  0  0  0  0  0  0  0  0  0  0  0
   -1.9915   -0.1690   -0.0418 H   0  0  0  0  0  0  0  0  0  0  0  0
    0.0000    0.0000    0.0000 C   0  0  0  0  0  0  0  0  0  0  0  0
    1.1150   -0.5137    0.0000 O   0  0  0  0  0  0  0  0  0  0  0  0
   -0.1805    1.5010    0.0370 C   0  0  0  0  0  0  0  0  0  0  0  0
   -1.1499    1.6973    0.0573 H   0  0  0  0  0  0  0  0  0  0  0  0
    0.2508    1.8361    0.9803 H   0  0  0  0  0  0  0  0  0  0  0  0
    0.2999    2.0078   -0.7999 H   0  0  0  0  0  0  0  0  0  0  0  0
  1  5  1  0
  5  6  1  0
  5  9  2  0
  1  2  1  0
  1  3  1  0
  1  4  1  0
  6  7  1  0
  6  8  1  0
 10 14  1  0
 14 16  1  0
 16 17  2  0
 16 18  1  0
 10 11  1  0
 10 12  1  0
 10 13  1  0
 14 15  1  0
 18 19  1  0
 18 20  1  0
 18 21  1  0
M  END
>  <PDB_ID>  (14) 
pdb2agl

>  <RESIDUE_NAME>  (14) 
ASN   GLN

>  <FRAG_NAME>  (14) 
ACEM   NMA

>  <FRAG_ATOM_NUM>  (14) 
fragi: 9  fragj: 12

>  <atom.prop.CHAIN_ID>  (14) 
A A A A A A A A A Z Z Z Z Z Z Z Z Z Z Z Z

>  <atom.prop.IS_HEAVY_ATOM>  (14) 
1 0 0 0 1 1 0 0 1 1 0 0 0 1 0 1 1 1 0 0 0

>  <DIFUSE_FUNC_ATOM>  (14) 
n/a

>  <FINAL_SINGLE_POINT_ENERGY>  (14) 
0

>  <NONCOV_INTER_ENERGY_QM>  (14) 
0

>  <FF_Energy>  (14) 
14.04

>  <QM_Energy>  (14) 
26.05

>  <source>  (14) 
ACEM_nNMA_00

>  <Index>  (14) 
19132

$$$$
ACEM-pdb1a9n-C-GLN-148:NMA-pdb1a9n-D-TYR-78
     RDKit          3D

 21 19  0  0  0  0  0  0  0  0999 V2000
   -4.8140    1.7120   -2.5755 C   0  0  0  0  0  0  0  0  0  0  0  0
   -5.3397    2.5360   -2.2597 H   0  0  0  0  0  0  0  0  0  0  0  0
   -5.5169    1.0794   -2.9769 H   0  0  0  0  0  0  0  0  0  0  0  0
   -4.1292    2.0183   -3.3663 H   0  0  0  0  0  0  0  0  0  0  0  0
   -4.2299    1.0452   -1.3649 C   0  0  0  0  0  0  0  0  0  0  0  0
   -3.0882    0.3881   -1.6142 N   0  0  0  0  0  0  0  0  0  0  0  0
   -2.6003   -0.0939   -0.8350 H   0  0  0  0  0  0  0  0  0  0  0  0
   -2.7176    0.3689   -2.5471 H   0  0  0  0  0  0  0  0  0  0  0  0
   -4.7196    1.0732   -0.2431 O   0  0  0  0  0  0  0  0  0  0  0  0
   -1.0472   -2.1854   -0.0372 C   0  0  0  0  0  0  0  0  0  0  0  0
   -1.9216   -2.5329   -0.5073 H   0  0  0  0  0  0  0  0  0  0  0  0
   -0.3059   -2.4659   -0.7280 H   0  0  0  0  0  0  0  0  0  0  0  0
   -0.8983   -2.7542    0.8806 H   0  0  0  0  0  0  0  0  0  0  0  0
   -1.1022   -0.7384    0.0000 N   0  0  0  0  0  0  0  0  0  0  0  0
   -1.9891   -0.1953    0.0280 H   0  0  0  0  0  0  0  0  0  0  0  0
    0.0000    0.0000    0.0000 C   0  0  0  0  0  0  0  0  0  0  0  0
    1.1022   -0.5503   -0.0000 O   0  0  0  0  0  0  0  0  0  0  0  0
   -0.1421    1.5104    0.0135 C   0  0  0  0  0  0  0  0  0  0  0  0
   -0.4436    1.8076   -0.9118 H   0  0  0  0  0  0  0  0  0  0  0  0
   -0.8745    1.8673    0.7376 H   0  0  0  0  0  0  0  0  0  0  0  0
    0.8189    1.9932    0.1907 H   0  0  0  0  0  0  0  0  0  0  0  0
  1  5  1  0
  5  6  1  0
  5  9  2  0
  1  2  1  0
  1  3  1  0
  1  4  1  0
  6  7  1  0
  6  8  1  0
 10 14  1  0
 14 16  1  0
 16 17  2  0
 16 18  1  0
 10 11  1  0
 10 12  1  0
 10 13  1  0
 14 15  1  0
 18 19  1  0
 18 20  1  0
 18 21  1  0
M  END
>  <PDB_ID>  (15) 
pdb1a9n

>  <RESIDUE_NAME>  (15) 
GLN   TYR

>  <FRAG_NAME>  (15) 
ACEM   NMA

>  <FRAG_ATOM_NUM>  (15) 
fragi: 9  fragj: 12

>  <atom.prop.CHAIN_ID>  (15) 
A A A A A A A A A Z Z Z Z Z Z Z Z Z Z Z Z

>  <atom.prop.IS_HEAVY_ATOM>  (15) 
1 0 0 0 1 1 0 0 1 1 0 0 0 1 0 1 1 1 0 0 0

>  <DIFUSE_FUNC_ATOM>  (15) 
n/a

>  <FINAL_SINGLE_POINT_ENERGY>  (15) 
0

>  <NONCOV_INTER_ENERGY_QM>  (15) 
0

>  <FF_Energy>  (15) 
7.01

>  <QM_Energy>  (15) 
20.4

>  <source>  (15) 
ACEM_nNMA_00

>  <Index>  (15) 
20519

$$$$
ACEM-pdb1ahq-A-ASN-30:NMA-pdb1ahq-A-ASN-33
     RDKit          3D

 21 19  0  0  0  0  0  0  0  0999 V2000
   -5.3323    1.6818   -1.8145 C   0  0  0  0  0  0  0  0  0  0  0  0
   -6.1873    1.8880   -1.3456 H   0  0  0  0  0  0  0  0  0  0  0  0
   -5.5196    1.2517   -2.6940 H   0  0  0  0  0  0  0  0  0  0  0  0
   -4.8069    2.6193   -1.9969 H   0  0  0  0  0  0  0  0  0  0  0  0
   -4.5331    0.7156   -0.9624 C   0  0  0  0  0  0  0  0  0  0  0  0
   -3.2184    0.9162   -0.9493 N   0  0  0  0  0  0  0  0  0  0  0  0
   -2.6754    0.2192   -0.4705 H   0  0  0  0  0  0  0  0  0  0  0  0
   -2.8312    1.6760   -1.4235 H   0  0  0  0  0  0  0  0  0  0  0  0
   -5.0709   -0.1858   -0.3254 O   0  0  0  0  0  0  0  0  0  0  0  0
   -1.0787   -2.1784   -0.1495 C   0  0  0  0  0  0  0  0  0  0  0  0
   -0.1297   -2.4878    0.0351 H   0  0  0  0  0  0  0  0  0  0  0  0
   -1.3572   -2.5136   -1.1486 H   0  0  0  0  0  0  0  0  0  0  0  0
   -1.7265   -2.6954    0.5585 H   0  0  0  0  0  0  0  0  0  0  0  0
   -1.1246   -0.7259    0.0000 N   0  0  0  0  0  0  0  0  0  0  0  0
   -2.0288   -0.3427    0.0959 H   0  0  0  0  0  0  0  0  0  0  0  0
    0.0000    0.0000    0.0000 C   0  0  0  0  0  0  0  0  0  0  0  0
    1.1246   -0.5225   -0.0000 O   0  0  0  0  0  0  0  0  0  0  0  0
   -0.1449    1.5209    0.1433 C   0  0  0  0  0  0  0  0  0  0  0  0
   -0.3674    1.8755   -0.7623 H   0  0  0  0  0  0  0  0  0  0  0  0
   -0.9904    1.7359    0.7967 H   0  0  0  0  0  0  0  0  0  0  0  0
    0.7700    1.9391    0.5630 H   0  0  0  0  0  0  0  0  0  0  0  0
  1  5  1  0
  5  6  1  0
  5  9  2  0
  1  2  1  0
  1  3  1  0
  1  4  1  0
  6  7  1  0
  6  8  1  0
 10 14  1  0
 14 16  1  0
 16 17  2  0
 16 18  1  0
 10 11  1  0
 10 12  1  0
 10 13  1  0
 14 15  1  0
 18 19  1  0
 18 20  1  0
 18 21  1  0
M  END
>  <PDB_ID>  (16) 
pdb1ahq

>  <RESIDUE_NAME>  (16) 
ASN   ASN

>  <FRAG_NAME>  (16) 
ACEM   NMA

>  <FRAG_ATOM_NUM>  (16) 
fragi: 9  fragj: 12

>  <atom.prop.CHAIN_ID>  (16) 
A A A A A A A A A Z Z Z Z Z Z Z Z Z Z Z Z

>  <atom.prop.IS_HEAVY_ATOM>  (16) 
1 0 0 0 1 1 0 0 1 1 0 0 0 1 0 1 1 1 0 0 0

>  <DIFUSE_FUNC_ATOM>  (16) 
n/a

>  <FINAL_SINGLE_POINT_ENERGY>  (16) 
0

>  <NONCOV_INTER_ENERGY_QM>  (16) 
0

>  <FF_Energy>  (16) 
10.56

>  <QM_Energy>  (16) 
23.71

>  <source>  (16) 
ACEM_nNMA_00

>  <Index>  (16) 
22688

$$$$
ACEM-pdb2an1-B-GLN-112:NMA-pdb2an1-B-LEU-104
     RDKit          3D

 21 19  0  0  0  0  0  0  0  0999 V2000
   -5.4314    1.6193   -1.4841 C   0  0  0  0  0  0  0  0  0  0  0  0
   -6.2377    1.8432   -0.9557 H   0  0  0  0  0  0  0  0  0  0  0  0
   -5.6320    0.9338   -2.1690 H   0  0  0  0  0  0  0  0  0  0  0  0
   -5.0705    2.5207   -1.9793 H   0  0  0  0  0  0  0  0  0  0  0  0
   -4.3700    1.0656   -0.5385 C   0  0  0  0  0  0  0  0  0  0  0  0
   -3.2808    0.5921   -1.0947 N   0  0  0  0  0  0  0  0  0  0  0  0
   -2.5184    0.2166   -0.5278 H   0  0  0  0  0  0  0  0  0  0  0  0
   -3.1946    0.5987   -2.1125 H   0  0  0  0  0  0  0  0  0  0  0  0
   -4.5551    1.0423    0.6784 O   0  0  0  0  0  0  0  0  0  0  0  0
   -1.1325   -2.1689   -0.0961 C   0  0  0  0  0  0  0  0  0  0  0  0
   -0.4073   -2.5103    0.5010 H   0  0  0  0  0  0  0  0  0  0  0  0
   -0.8758   -2.4582   -1.1152 H   0  0  0  0  0  0  0  0  0  0  0  0
   -2.1265   -2.5487    0.1400 H   0  0  0  0  0  0  0  0  0  0  0  0
   -1.1198   -0.7094   -0.0000 N   0  0  0  0  0  0  0  0  0  0  0  0
   -1.9938   -0.1394    0.0745 H   0  0  0  0  0  0  0  0  0  0  0  0
    0.0000    0.0000    0.0000 C   0  0  0  0  0  0  0  0  0  0  0  0
    1.1198   -0.5174   -0.0000 O   0  0  0  0  0  0  0  0  0  0  0  0
   -0.1734    1.5253   -0.0017 C   0  0  0  0  0  0  0  0  0  0  0  0
   -1.1528    1.7340    0.1845 H   0  0  0  0  0  0  0  0  0  0  0  0
    0.4282    2.0536    0.7381 H   0  0  0  0  0  0  0  0  0  0  0  0
    0.0026    1.9217   -1.0017 H   0  0  0  0  0  0  0  0  0  0  0  0
  1  5  1  0
  5  6  1  0
  5  9  2  0
  1  2  1  0
  1  3  1  0
  1  4  1  0
  6  7  1  0
  6  8  1  0
 10 14  1  0
 14 16  1  0
 16 17  2  0
 16 18  1  0
 10 11  1  0
 10 12  1  0
 10 13  1  0
 14 15  1  0
 18 19  1  0
 18 20  1  0
 18 21  1  0
M  END
>  <PDB_ID>  (17) 
pdb2an1

>  <RESIDUE_NAME>  (17) 
GLN   LEU

>  <FRAG_NAME>  (17) 
ACEM   NMA

>  <FRAG_ATOM_NUM>  (17) 
fragi: 9  fragj: 12

>  <atom.prop.CHAIN_ID>  (17) 
A A A A A A A A A Z Z Z Z Z Z Z Z Z Z Z Z

>  <atom.prop.IS_HEAVY_ATOM>  (17) 
1 0 0 0 1 1 0 0 1 1 0 0 0 1 0 1 1 1 0 0 0

>  <DIFUSE_FUNC_ATOM>  (17) 
n/a

>  <FINAL_SINGLE_POINT_ENERGY>  (17) 
0

>  <NONCOV_INTER_ENERGY_QM>  (17) 
0

>  <FF_Energy>  (17) 
13.66

>  <QM_Energy>  (17) 
38.06

>  <source>  (17) 
ACEM_nNMA_00

>  <Index>  (17) 
22786

$$$$
ACEM-pdb1ah7-A-ASN-58:NMA-pdb1ah7-A-ASP-62
     RDKit          3D

 21 19  0  0  0  0  0  0  0  0999 V2000
   -6.1145    0.6534   -0.8114 C   0  0  0  0  0  0  0  0  0  0  0  0
   -6.9691    0.1202   -0.7780 H   0  0  0  0  0  0  0  0  0  0  0  0
   -6.1188    1.2042   -1.6560 H   0  0  0  0  0  0  0  0  0  0  0  0
   -6.1188    1.3411    0.0343 H   0  0  0  0  0  0  0  0  0  0  0  0
   -4.9506   -0.2973   -0.8590 C   0  0  0  0  0  0  0  0  0  0  0  0
   -3.7669    0.1350   -0.4678 N   0  0  0  0  0  0  0  0  0  0  0  0
   -3.6858    1.0895   -0.1442 H   0  0  0  0  0  0  0  0  0  0  0  0
   -2.9718   -0.4557   -0.4871 H   0  0  0  0  0  0  0  0  0  0  0  0
   -5.1011   -1.4715   -1.2325 O   0  0  0  0  0  0  0  0  0  0  0  0
   -1.1468   -2.1909   -0.0484 C   0  0  0  0  0  0  0  0  0  0  0  0
   -2.1119   -2.4712    0.0843 H   0  0  0  0  0  0  0  0  0  0  0  0
   -0.5679   -2.6530    0.7513 H   0  0  0  0  0  0  0  0  0  0  0  0
   -0.8089   -2.5854   -1.0066 H   0  0  0  0  0  0  0  0  0  0  0  0
   -1.1138   -0.7324    0.0000 N   0  0  0  0  0  0  0  0  0  0  0  0
   -1.9974   -0.1505    0.0396 H   0  0  0  0  0  0  0  0  0  0  0  0
    0.0000    0.0000    0.0000 C   0  0  0  0  0  0  0  0  0  0  0  0
    1.1138   -0.5236   -0.0000 O   0  0  0  0  0  0  0  0  0  0  0  0
   -0.1587    1.5065    0.0125 C   0  0  0  0  0  0  0  0  0  0  0  0
   -0.6123    1.7658   -0.8622 H   0  0  0  0  0  0  0  0  0  0  0  0
   -0.7897    1.8743    0.8216 H   0  0  0  0  0  0  0  0  0  0  0  0
    0.8131    1.9931    0.0952 H   0  0  0  0  0  0  0  0  0  0  0  0
  1  5  1  0
  5  6  1  0
  5  9  2  0
  1  2  1  0
  1  3  1  0
  1  4  1  0
  6  7  1  0
  6  8  1  0
 10 14  1  0
 14 16  1  0
 16 17  2  0
 16 18  1  0
 10 11  1  0
 10 12  1  0
 10 13  1  0
 14 15  1  0
 18 19  1  0
 18 20  1  0
 18 21  1  0
M  END
>  <PDB_ID>  (18) 
pdb1ah7

>  <RESIDUE_NAME>  (18) 
ASN   ASP

>  <FRAG_NAME>  (18) 
ACEM   NMA

>  <FRAG_ATOM_NUM>  (18) 
fragi: 9  fragj: 12

>  <atom.prop.CHAIN_ID>  (18) 
A A A A A A A A A Z Z Z Z Z Z Z Z Z Z Z Z

>  <atom.prop.IS_HEAVY_ATOM>  (18) 
1 0 0 0 1 1 0 0 1 1 0 0 0 1 0 1 1 1 0 0 0

>  <DIFUSE_FUNC_ATOM>  (18) 
n/a

>  <FINAL_SINGLE_POINT_ENERGY>  (18) 
0

>  <NONCOV_INTER_ENERGY_QM>  (18) 
0

>  <FF_Energy>  (18) 
7.75

>  <QM_Energy>  (18) 
18.18

>  <source>  (18) 
ACEM_nNMA_00

>  <Index>  (18) 
23133

$$$$
ACEM-pdb1ah7-A-GLN-228:NMA-pdb1ah7-A-LYS-157
     RDKit          3D

 21 19  0  0  0  0  0  0  0  0999 V2000
   -6.0393    0.1556    1.1238 C   0  0  0  0  0  0  0  0  0  0  0  0
   -6.5176   -0.3397    0.4041 H   0  0  0  0  0  0  0  0  0  0  0  0
   -6.5435    0.9812    1.3643 H   0  0  0  0  0  0  0  0  0  0  0  0
   -5.9675   -0.4825    2.0045 H   0  0  0  0  0  0  0  0  0  0  0  0
   -4.6703    0.5600    0.6042 C   0  0  0  0  0  0  0  0  0  0  0  0
   -3.9429   -0.4259    0.0895 N   0  0  0  0  0  0  0  0  0  0  0  0
   -3.0135   -0.2353   -0.2963 H   0  0  0  0  0  0  0  0  0  0  0  0
   -4.3180   -1.3685    0.0841 H   0  0  0  0  0  0  0  0  0  0  0  0
   -4.2774    1.7268    0.6422 O   0  0  0  0  0  0  0  0  0  0  0  0
   -1.0867   -2.1598   -0.1817 C   0  0  0  0  0  0  0  0  0  0  0  0
   -0.2805   -2.5140    0.2677 H   0  0  0  0  0  0  0  0  0  0  0  0
   -0.9789   -2.3327   -1.2525 H   0  0  0  0  0  0  0  0  0  0  0  0
   -2.0202   -2.5975    0.1722 H   0  0  0  0  0  0  0  0  0  0  0  0
   -1.1196   -0.7105    0.0000 N   0  0  0  0  0  0  0  0  0  0  0  0
   -1.9883   -0.1691    0.1354 H   0  0  0  0  0  0  0  0  0  0  0  0
    0.0000    0.0000    0.0000 C   0  0  0  0  0  0  0  0  0  0  0  0
    1.1196   -0.5167   -0.0000 O   0  0  0  0  0  0  0  0  0  0  0  0
   -0.1657    1.5088   -0.0508 C   0  0  0  0  0  0  0  0  0  0  0  0
   -1.0808    1.7449    0.2806 H   0  0  0  0  0  0  0  0  0  0  0  0
    0.5785    1.9733    0.5960 H   0  0  0  0  0  0  0  0  0  0  0  0
    0.0315    1.8021   -1.0819 H   0  0  0  0  0  0  0  0  0  0  0  0
  1  5  1  0
  5  6  1  0
  5  9  2  0
  1  2  1  0
  1  3  1  0
  1  4  1  0
  6  7  1  0
  6  8  1  0
 10 14  1  0
 14 16  1  0
 16 17  2  0
 16 18  1  0
 10 11  1  0
 10 12  1  0
 10 13  1  0
 14 15  1  0
 18 19  1  0
 18 20  1  0
 18 21  1  0
M  END
>  <PDB_ID>  (19) 
pdb1ah7

>  <RESIDUE_NAME>  (19) 
GLN   LYS

>  <FRAG_NAME>  (19) 
ACEM   NMA

>  <FRAG_ATOM_NUM>  (19) 
fragi: 9  fragj: 12

>  <atom.prop.CHAIN_ID>  (19) 
A A A A A A A A A Z Z Z Z Z Z Z Z Z Z Z Z

>  <atom.prop.IS_HEAVY_ATOM>  (19) 
1 0 0 0 1 1 0 0 1 1 0 0 0 1 0 1 1 1 0 0 0

>  <DIFUSE_FUNC_ATOM>  (19) 
n/a

>  <FINAL_SINGLE_POINT_ENERGY>  (19) 
0

>  <NONCOV_INTER_ENERGY_QM>  (19) 
0

>  <FF_Energy>  (19) 
4.42

>  <QM_Energy>  (19) 
16.92

>  <source>  (19) 
ACEM_nNMA_00

>  <Index>  (19) 
24377

$$$$
ACEM-pdb1ag1-T-GLN-146:NMA-pdb1ag1-T-ILE-127
     RDKit          3D

 21 19  0  0  0  0  0  0  0  0999 V2000
   -5.1922    2.1682   -0.9925 C   0  0  0  0  0  0  0  0  0  0  0  0
   -5.6985    2.6408   -0.2978 H   0  0  0  0  0  0  0  0  0  0  0  0
   -5.7725    1.7038   -1.6329 H   0  0  0  0  0  0  0  0  0  0  0  0
   -4.5917    2.8968   -1.5372 H   0  0  0  0  0  0  0  0  0  0  0  0
   -4.2591    1.1842   -0.3524 C   0  0  0  0  0  0  0  0  0  0  0  0
   -3.3299    0.6414   -1.1188 N   0  0  0  0  0  0  0  0  0  0  0  0
   -2.6540   -0.0235   -0.7505 H   0  0  0  0  0  0  0  0  0  0  0  0
   -3.2954    0.8998   -2.1094 H   0  0  0  0  0  0  0  0  0  0  0  0
   -4.4097    0.8987    0.8308 O   0  0  0  0  0  0  0  0  0  0  0  0
   -1.0564   -2.2040   -0.0387 C   0  0  0  0  0  0  0  0  0  0  0  0
   -0.8075   -2.5077   -0.9686 H   0  0  0  0  0  0  0  0  0  0  0  0
   -0.3436   -2.5310    0.5960 H   0  0  0  0  0  0  0  0  0  0  0  0
   -2.0130   -2.6475    0.2378 H   0  0  0  0  0  0  0  0  0  0  0  0
   -1.1117   -0.7486   -0.0000 N   0  0  0  0  0  0  0  0  0  0  0  0
   -1.9956   -0.2054    0.0301 H   0  0  0  0  0  0  0  0  0  0  0  0
    0.0000    0.0000    0.0000 C   0  0  0  0  0  0  0  0  0  0  0  0
    1.1117   -0.5411    0.0000 O   0  0  0  0  0  0  0  0  0  0  0  0
   -0.0819    1.5378    0.0304 C   0  0  0  0  0  0  0  0  0  0  0  0
   -0.7918    1.7649    0.6866 H   0  0  0  0  0  0  0  0  0  0  0  0
    0.8545    1.9175    0.4392 H   0  0  0  0  0  0  0  0  0  0  0  0
   -0.2279    1.9838   -0.9535 H   0  0  0  0  0  0  0  0  0  0  0  0
  1  5  1  0
  5  6  1  0
  5  9  2  0
  1  2  1  0
  1  3  1  0
  1  4  1  0
  6  7  1  0
  6  8  1  0
 10 14  1  0
 14 16  1  0
 16 17  2  0
 16 18  1  0
 10 11  1  0
 10 12  1  0
 10 13  1  0
 14 15  1  0
 18 19  1  0
 18 20  1  0
 18 21  1  0
M  END
>  <PDB_ID>  (20) 
pdb1ag1

>  <RESIDUE_NAME>  (20) 
GLN   ILE

>  <FRAG_NAME>  (20) 
ACEM   NMA

>  <FRAG_ATOM_NUM>  (20) 
fragi: 9  fragj: 12

>  <atom.prop.CHAIN_ID>  (20) 
A A A A A A A A A Z Z Z Z Z Z Z Z Z Z Z Z

>  <atom.prop.IS_HEAVY_ATOM>  (20) 
1 0 0 0 1 1 0 0 1 1 0 0 0 1 0 1 1 1 0 0 0

>  <DIFUSE_FUNC_ATOM>  (20) 
n/a

>  <FINAL_SINGLE_POINT_ENERGY>  (20) 
0

>  <NONCOV_INTER_ENERGY_QM>  (20) 
0

>  <FF_Energy>  (20) 
6.24

>  <QM_Energy>  (20) 
20.59

>  <source>  (20) 
ACEM_nNMA_00

>  <Index>  (20) 
25393

$$$$
ACEM-pdb1afr-B-GLN-287:NMA-pdb1afr-B-THR-293
     RDKit          3D

 21 19  0  0  0  0  0  0  0  0999 V2000
   -4.3018    2.7416    1.7576 C   0  0  0  0  0  0  0  0  0  0  0  0
   -5.0729    2.3121    2.2295 H   0  0  0  0  0  0  0  0  0  0  0  0
   -4.6364    3.5092    1.2078 H   0  0  0  0  0  0  0  0  0  0  0  0
   -3.6032    3.1223    2.5028 H   0  0  0  0  0  0  0  0  0  0  0  0
   -3.6809    1.7116    0.8176 C   0  0  0  0  0  0  0  0  0  0  0  0
   -3.0020    0.7315    1.3931 N   0  0  0  0  0  0  0  0  0  0  0  0
   -2.5697   -0.0009    0.8320 H   0  0  0  0  0  0  0  0  0  0  0  0
   -2.9146    0.7187    2.4071 H   0  0  0  0  0  0  0  0  0  0  0  0
   -3.7990    1.8020   -0.4090 O   0  0  0  0  0  0  0  0  0  0  0  0
   -1.1000   -2.1643    0.0368 C   0  0  0  0  0  0  0  0  0  0  0  0
   -0.4945   -2.4629    0.7749 H   0  0  0  0  0  0  0  0  0  0  0  0
   -0.7097   -2.5453   -0.9068 H   0  0  0  0  0  0  0  0  0  0  0  0
   -2.1018   -2.5508    0.2238 H   0  0  0  0  0  0  0  0  0  0  0  0
   -1.1206   -0.7050   -0.0000 N   0  0  0  0  0  0  0  0  0  0  0  0
   -1.9930   -0.1463   -0.0277 H   0  0  0  0  0  0  0  0  0  0  0  0
    0.0000    0.0000    0.0000 C   0  0  0  0  0  0  0  0  0  0  0  0
    1.1206   -0.5135    0.0000 O   0  0  0  0  0  0  0  0  0  0  0  0
   -0.1788    1.5063   -0.0635 C   0  0  0  0  0  0  0  0  0  0  0  0
   -0.8109    1.7831    0.6689 H   0  0  0  0  0  0  0  0  0  0  0  0
    0.7742    2.0120    0.0920 H   0  0  0  0  0  0  0  0  0  0  0  0
   -0.5954    1.7599   -1.0383 H   0  0  0  0  0  0  0  0  0  0  0  0
  1  5  1  0
  5  6  1  0
  5  9  2  0
  1  2  1  0
  1  3  1  0
  1  4  1  0
  6  7  1  0
  6  8  1  0
 10 14  1  0
 14 16  1  0
 16 17  2  0
 16 18  1  0
 10 11  1  0
 10 12  1  0
 10 13  1  0
 14 15  1  0
 18 19  1  0
 18 20  1  0
 18 21  1  0
M  END
>  <PDB_ID>  (21) 
pdb1afr

>  <RESIDUE_NAME>  (21) 
GLN   THR

>  <FRAG_NAME>  (21) 
ACEM   NMA

>  <FRAG_ATOM_NUM>  (21) 
fragi: 9  fragj: 12

>  <atom.prop.CHAIN_ID>  (21) 
A A A A A A A A A Z Z Z Z Z Z Z Z Z Z Z Z

>  <atom.prop.IS_HEAVY_ATOM>  (21) 
1 0 0 0 1 1 0 0 1 1 0 0 0 1 0 1 1 1 0 0 0

>  <DIFUSE_FUNC_ATOM>  (21) 
n/a

>  <FINAL_SINGLE_POINT_ENERGY>  (21) 
0

>  <NONCOV_INTER_ENERGY_QM>  (21) 
0

>  <FF_Energy>  (21) 
7.1

>  <QM_Energy>  (21) 
22.34

>  <source>  (21) 
ACEM_nNMA_00

>  <Index>  (21) 
27113

$$$$
ACEM-pdb1ake-B-GLN-48:NMA-pdb1ake-B-LEU-45
     RDKit          3D

 21 19  0  0  0  0  0  0  0  0999 V2000
   -6.3215   -0.3601    1.0421 C   0  0  0  0  0  0  0  0  0  0  0  0
   -6.9441    0.2591    0.5161 H   0  0  0  0  0  0  0  0  0  0  0  0
   -6.6182   -0.2916    2.0191 H   0  0  0  0  0  0  0  0  0  0  0  0
   -6.5060   -1.3811    0.7080 H   0  0  0  0  0  0  0  0  0  0  0  0
   -4.8998    0.2069    0.9410 C   0  0  0  0  0  0  0  0  0  0  0  0
   -3.9416   -0.6081    0.5307 N   0  0  0  0  0  0  0  0  0  0  0  0
   -2.9914   -0.2930    0.4297 H   0  0  0  0  0  0  0  0  0  0  0  0
   -4.1858   -1.5798    0.3146 H   0  0  0  0  0  0  0  0  0  0  0  0
   -4.6179    1.3858    1.1987 O   0  0  0  0  0  0  0  0  0  0  0  0
   -1.1270   -2.1215   -0.2032 C   0  0  0  0  0  0  0  0  0  0  0  0
   -1.5057   -2.3326   -1.1270 H   0  0  0  0  0  0  0  0  0  0  0  0
   -0.1669   -2.4678   -0.2046 H   0  0  0  0  0  0  0  0  0  0  0  0
   -1.6999   -2.6632    0.5494 H   0  0  0  0  0  0  0  0  0  0  0  0
   -1.1240   -0.6986    0.0000 N   0  0  0  0  0  0  0  0  0  0  0  0
   -1.9859   -0.1326    0.1576 H   0  0  0  0  0  0  0  0  0  0  0  0
    0.0000    0.0000    0.0000 C   0  0  0  0  0  0  0  0  0  0  0  0
    1.1240   -0.5088   -0.0000 O   0  0  0  0  0  0  0  0  0  0  0  0
   -0.1204    1.4956    0.1600 C   0  0  0  0  0  0  0  0  0  0  0  0
   -1.0481    1.7700   -0.0681 H   0  0  0  0  0  0  0  0  0  0  0  0
    0.0655    1.7225    1.2098 H   0  0  0  0  0  0  0  0  0  0  0  0
    0.6160    1.9725   -0.4869 H   0  0  0  0  0  0  0  0  0  0  0  0
  1  5  1  0
  5  6  1  0
  5  9  2  0
  1  2  1  0
  1  3  1  0
  1  4  1  0
  6  7  1  0
  6  8  1  0
 10 14  1  0
 14 16  1  0
 16 17  2  0
 16 18  1  0
 10 11  1  0
 10 12  1  0
 10 13  1  0
 14 15  1  0
 18 19  1  0
 18 20  1  0
 18 21  1  0
M  END
>  <PDB_ID>  (22) 
pdb1ake

>  <RESIDUE_NAME>  (22) 
GLN   LEU

>  <FRAG_NAME>  (22) 
ACEM   NMA

>  <FRAG_ATOM_NUM>  (22) 
fragi: 9  fragj: 12

>  <atom.prop.CHAIN_ID>  (22) 
A A A A A A A A A Z Z Z Z Z Z Z Z Z Z Z Z

>  <atom.prop.IS_HEAVY_ATOM>  (22) 
1 0 0 0 1 1 0 0 1 1 0 0 0 1 0 1 1 1 0 0 0

>  <DIFUSE_FUNC_ATOM>  (22) 
n/a

>  <FINAL_SINGLE_POINT_ENERGY>  (22) 
0

>  <NONCOV_INTER_ENERGY_QM>  (22) 
0

>  <FF_Energy>  (22) 
6.58

>  <QM_Energy>  (22) 
20.91

>  <source>  (22) 
ACEM_nNMA_00

>  <Index>  (22) 
28322

$$$$
ACEM-pdb1al6-A-GLN-408:NMA-pdb1al6-A-TYR-53
     RDKit          3D

 21 19  0  0  0  0  0  0  0  0999 V2000
   -4.1240    2.1241   -2.4009 C   0  0  0  0  0  0  0  0  0  0  0  0
   -3.3104    2.6851   -2.5291 H   0  0  0  0  0  0  0  0  0  0  0  0
   -4.9131    2.7051   -2.2184 H   0  0  0  0  0  0  0  0  0  0  0  0
   -4.3083    1.5654   -3.3185 H   0  0  0  0  0  0  0  0  0  0  0  0
   -3.8957    1.2182   -1.1696 C   0  0  0  0  0  0  0  0  0  0  0  0
   -3.1291    0.1473   -1.3737 N   0  0  0  0  0  0  0  0  0  0  0  0
   -2.9251   -0.4843   -0.6082 H   0  0  0  0  0  0  0  0  0  0  0  0
   -2.7588   -0.0209   -2.3033 H   0  0  0  0  0  0  0  0  0  0  0  0
   -4.1384    1.6013   -0.0273 O   0  0  0  0  0  0  0  0  0  0  0  0
   -1.0315   -2.1627    0.1062 C   0  0  0  0  0  0  0  0  0  0  0  0
   -0.3252   -2.4112    0.8488 H   0  0  0  0  0  0  0  0  0  0  0  0
   -0.8356   -2.7789   -0.7713 H   0  0  0  0  0  0  0  0  0  0  0  0
   -1.9375   -2.5331    0.5858 H   0  0  0  0  0  0  0  0  0  0  0  0
   -1.0958   -0.7296    0.0000 N   0  0  0  0  0  0  0  0  0  0  0  0
   -1.9823   -0.1931   -0.0814 H   0  0  0  0  0  0  0  0  0  0  0  0
    0.0000    0.0000    0.0000 C   0  0  0  0  0  0  0  0  0  0  0  0
    1.0958   -0.5223   -0.0000 O   0  0  0  0  0  0  0  0  0  0  0  0
   -0.1580    1.5081    0.1027 C   0  0  0  0  0  0  0  0  0  0  0  0
   -1.1214    1.7186    0.1308 H   0  0  0  0  0  0  0  0  0  0  0  0
    0.2878    1.7772    1.0602 H   0  0  0  0  0  0  0  0  0  0  0  0
    0.3869    2.0571   -0.6653 H   0  0  0  0  0  0  0  0  0  0  0  0
  1  5  1  0
  5  6  1  0
  5  9  2  0
  1  2  1  0
  1  3  1  0
  1  4  1  0
  6  7  1  0
  6  8  1  0
 10 14  1  0
 14 16  1  0
 16 17  2  0
 16 18  1  0
 10 11  1  0
 10 12  1  0
 10 13  1  0
 14 15  1  0
 18 19  1  0
 18 20  1  0
 18 21  1  0
M  END
>  <PDB_ID>  (23) 
pdb1al6

>  <RESIDUE_NAME>  (23) 
GLN   TYR

>  <FRAG_NAME>  (23) 
ACEM   NMA

>  <FRAG_ATOM_NUM>  (23) 
fragi: 9  fragj: 12

>  <atom.prop.CHAIN_ID>  (23) 
A A A A A A A A A Z Z Z Z Z Z Z Z Z Z Z Z

>  <atom.prop.IS_HEAVY_ATOM>  (23) 
1 0 0 0 1 1 0 0 1 1 0 0 0 1 0 1 1 1 0 0 0

>  <DIFUSE_FUNC_ATOM>  (23) 
n/a

>  <FINAL_SINGLE_POINT_ENERGY>  (23) 
0

>  <NONCOV_INTER_ENERGY_QM>  (23) 
0

>  <FF_Energy>  (23) 
9.36

>  <QM_Energy>  (23) 
22.6

>  <source>  (23) 
ACEM_nNMA_00

>  <Index>  (23) 
28610

$$$$
ACEM-pdb1ako-A-GLN-17:NMA-pdb1ako-A-PRO-256
     RDKit          3D

 21 19  0  0  0  0  0  0  0  0999 V2000
   -4.3051    2.7567    1.9443 C   0  0  0  0  0  0  0  0  0  0  0  0
   -4.5023    3.5875    1.4280 H   0  0  0  0  0  0  0  0  0  0  0  0
   -3.6529    2.9566    2.6729 H   0  0  0  0  0  0  0  0  0  0  0  0
   -5.2311    2.3996    2.3951 H   0  0  0  0  0  0  0  0  0  0  0  0
   -3.6880    1.7359    1.0049 C   0  0  0  0  0  0  0  0  0  0  0  0
   -3.1980    0.6362    1.5629 N   0  0  0  0  0  0  0  0  0  0  0  0
   -2.7825   -0.0972    0.9954 H   0  0  0  0  0  0  0  0  0  0  0  0
   -3.2441    0.5371    2.5766 H   0  0  0  0  0  0  0  0  0  0  0  0
   -3.6382    1.9470   -0.2093 O   0  0  0  0  0  0  0  0  0  0  0  0
   -1.0918   -2.1578   -0.1394 C   0  0  0  0  0  0  0  0  0  0  0  0
   -0.3477   -2.5106    0.3935 H   0  0  0  0  0  0  0  0  0  0  0  0
   -0.8537   -2.3162   -1.1912 H   0  0  0  0  0  0  0  0  0  0  0  0
   -2.0799   -2.5716    0.0620 H   0  0  0  0  0  0  0  0  0  0  0  0
   -1.1202   -0.7109   -0.0000 N   0  0  0  0  0  0  0  0  0  0  0  0
   -1.9906   -0.1587    0.1052 H   0  0  0  0  0  0  0  0  0  0  0  0
    0.0000    0.0000    0.0000 C   0  0  0  0  0  0  0  0  0  0  0  0
    1.1202   -0.5188    0.0000 O   0  0  0  0  0  0  0  0  0  0  0  0
   -0.1663    1.5151    0.0457 C   0  0  0  0  0  0  0  0  0  0  0  0
   -0.9490    1.7690    0.6338 H   0  0  0  0  0  0  0  0  0  0  0  0
    0.7438    2.0150    0.3768 H   0  0  0  0  0  0  0  0  0  0  0  0
   -0.2850    1.9038   -0.9657 H   0  0  0  0  0  0  0  0  0  0  0  0
  1  5  1  0
  5  6  1  0
  5  9  2  0
  1  2  1  0
  1  3  1  0
  1  4  1  0
  6  7  1  0
  6  8  1  0
 10 14  1  0
 14 16  1  0
 16 17  2  0
 16 18  1  0
 10 11  1  0
 10 12  1  0
 10 13  1  0
 14 15  1  0
 18 19  1  0
 18 20  1  0
 18 21  1  0
M  END
>  <PDB_ID>  (24) 
pdb1ako

>  <RESIDUE_NAME>  (24) 
GLN   PRO

>  <FRAG_NAME>  (24) 
ACEM   NMA

>  <FRAG_ATOM_NUM>  (24) 
fragi: 9  fragj: 12

>  <atom.prop.CHAIN_ID>  (24) 
A A A A A A A A A Z Z Z Z Z Z Z Z Z Z Z Z

>  <atom.prop.IS_HEAVY_ATOM>  (24) 
1 0 0 0 1 1 0 0 1 1 0 0 0 1 0 1 1 1 0 0 0

>  <DIFUSE_FUNC_ATOM>  (24) 
n/a

>  <FINAL_SINGLE_POINT_ENERGY>  (24) 
0

>  <NONCOV_INTER_ENERGY_QM>  (24) 
0

>  <FF_Energy>  (24) 
1.45

>  <QM_Energy>  (24) 
12.02

>  <source>  (24) 
ACEM_nNMA_00

>  <Index>  (24) 
28988

$$$$
ACEM-pdb1b7t-A-GLN-812:NMA-pdb1b7t-Y-GLY-117
     RDKit          3D

 21 19  0  0  0  0  0  0  0  0999 V2000
   -5.7960   -0.0138   -0.9834 C   0  0  0  0  0  0  0  0  0  0  0  0
   -6.1920   -0.3240   -1.8462 H   0  0  0  0  0  0  0  0  0  0  0  0
   -5.9426    0.9690   -0.8810 H   0  0  0  0  0  0  0  0  0  0  0  0
   -6.3013   -0.5267   -0.1651 H   0  0  0  0  0  0  0  0  0  0  0  0
   -4.3039   -0.2842   -1.0098 C   0  0  0  0  0  0  0  0  0  0  0  0
   -3.6758   -0.2363    0.1587 N   0  0  0  0  0  0  0  0  0  0  0  0
   -2.6762   -0.4206    0.2228 H   0  0  0  0  0  0  0  0  0  0  0  0
   -4.2102   -0.0110    0.9961 H   0  0  0  0  0  0  0  0  0  0  0  0
   -3.7212   -0.5307   -2.0697 O   0  0  0  0  0  0  0  0  0  0  0  0
   -1.1029   -2.1665   -0.0171 C   0  0  0  0  0  0  0  0  0  0  0  0
   -0.1722   -2.4513    0.1213 H   0  0  0  0  0  0  0  0  0  0  0  0
   -1.3710   -2.4210   -1.0425 H   0  0  0  0  0  0  0  0  0  0  0  0
   -1.8341   -2.5649    0.6863 H   0  0  0  0  0  0  0  0  0  0  0  0
   -1.1204   -0.7102    0.0000 N   0  0  0  0  0  0  0  0  0  0  0  0
   -1.9946   -0.1477    0.0127 H   0  0  0  0  0  0  0  0  0  0  0  0
    0.0000    0.0000    0.0000 C   0  0  0  0  0  0  0  0  0  0  0  0
    1.1204   -0.5099   -0.0000 O   0  0  0  0  0  0  0  0  0  0  0  0
   -0.1743    1.5005    0.0006 C   0  0  0  0  0  0  0  0  0  0  0  0
    0.3367    1.8959    0.7521 H   0  0  0  0  0  0  0  0  0  0  0  0
   -1.1368    1.7251    0.0724 H   0  0  0  0  0  0  0  0  0  0  0  0
    0.2230    1.8552   -0.9504 H   0  0  0  0  0  0  0  0  0  0  0  0
  1  5  1  0
  5  6  1  0
  5  9  2  0
  1  2  1  0
  1  3  1  0
  1  4  1  0
  6  7  1  0
  6  8  1  0
 10 14  1  0
 14 16  1  0
 16 17  2  0
 16 18  1  0
 10 11  1  0
 10 12  1  0
 10 13  1  0
 14 15  1  0
 18 19  1  0
 18 20  1  0
 18 21  1  0
M  END
>  <PDB_ID>  (25) 
pdb1b7t

>  <RESIDUE_NAME>  (25) 
GLN   GLY

>  <FRAG_NAME>  (25) 
ACEM   NMA

>  <FRAG_ATOM_NUM>  (25) 
fragi: 9  fragj: 12

>  <atom.prop.CHAIN_ID>  (25) 
A A A A A A A A A Z Z Z Z Z Z Z Z Z Z Z Z

>  <atom.prop.IS_HEAVY_ATOM>  (25) 
1 0 0 0 1 1 0 0 1 1 0 0 0 1 0 1 1 1 0 0 0

>  <DIFUSE_FUNC_ATOM>  (25) 
n/a

>  <FINAL_SINGLE_POINT_ENERGY>  (25) 
0

>  <NONCOV_INTER_ENERGY_QM>  (25) 
0

>  <FF_Energy>  (25) 
23.43

>  <QM_Energy>  (25) 
59.95

>  <source>  (25) 
ACEM_nNMA_02

>  <Index>  (25) 
1756

$$$$
ACEM-pdb2c2n-A-ASN-264:NMA-pdb2c2n-A-PHE-116
     RDKit          3D

 21 19  0  0  0  0  0  0  0  0999 V2000
   -6.0938   -0.2346    0.5837 C   0  0  0  0  0  0  0  0  0  0  0  0
   -6.2167   -1.0669    1.1266 H   0  0  0  0  0  0  0  0  0  0  0  0
   -6.2852   -0.4355   -0.3780 H   0  0  0  0  0  0  0  0  0  0  0  0
   -6.8133    0.5082    0.9279 H   0  0  0  0  0  0  0  0  0  0  0  0
   -4.6463    0.2091    0.7044 C   0  0  0  0  0  0  0  0  0  0  0  0
   -3.6927   -0.6643    0.3767 N   0  0  0  0  0  0  0  0  0  0  0  0
   -3.9742   -1.5778    0.0578 H   0  0  0  0  0  0  0  0  0  0  0  0
   -2.7381   -0.4207    0.4446 H   0  0  0  0  0  0  0  0  0  0  0  0
   -4.4072    1.3929    1.0764 O   0  0  0  0  0  0  0  0  0  0  0  0
   -1.0949   -2.2213   -0.1049 C   0  0  0  0  0  0  0  0  0  0  0  0
   -2.0375   -2.5431   -0.0752 H   0  0  0  0  0  0  0  0  0  0  0  0
   -0.5644   -2.6297    0.7553 H   0  0  0  0  0  0  0  0  0  0  0  0
   -0.7482   -2.5914   -1.0699 H   0  0  0  0  0  0  0  0  0  0  0  0
   -1.1246   -0.7387   -0.0000 N   0  0  0  0  0  0  0  0  0  0  0  0
   -2.0014   -0.1962    0.0781 H   0  0  0  0  0  0  0  0  0  0  0  0
    0.0000    0.0000    0.0000 C   0  0  0  0  0  0  0  0  0  0  0  0
    1.1246   -0.4845    0.0000 O   0  0  0  0  0  0  0  0  0  0  0  0
   -0.2037    1.4953    0.0124 C   0  0  0  0  0  0  0  0  0  0  0  0
   -1.1874    1.6608   -0.0686 H   0  0  0  0  0  0  0  0  0  0  0  0
    0.1047    1.8911    0.9800 H   0  0  0  0  0  0  0  0  0  0  0  0
    0.4097    1.9547   -0.7628 H   0  0  0  0  0  0  0  0  0  0  0  0
  1  5  1  0
  5  6  1  0
  5  9  2  0
  1  2  1  0
  1  3  1  0
  1  4  1  0
  6  7  1  0
  6  8  1  0
 10 14  1  0
 14 16  1  0
 16 17  2  0
 16 18  1  0
 10 11  1  0
 10 12  1  0
 10 13  1  0
 14 15  1  0
 18 19  1  0
 18 20  1  0
 18 21  1  0
M  END
>  <PDB_ID>  (26) 
pdb2c2n

>  <RESIDUE_NAME>  (26) 
ASN   PHE

>  <FRAG_NAME>  (26) 
ACEM   NMA

>  <FRAG_ATOM_NUM>  (26) 
fragi: 9  fragj: 12

>  <atom.prop.CHAIN_ID>  (26) 
A A A A A A A A A Z Z Z Z Z Z Z Z Z Z Z Z

>  <atom.prop.IS_HEAVY_ATOM>  (26) 
1 0 0 0 1 1 0 0 1 1 0 0 0 1 0 1 1 1 0 0 0

>  <DIFUSE_FUNC_ATOM>  (26) 
n/a

>  <FINAL_SINGLE_POINT_ENERGY>  (26) 
0

>  <NONCOV_INTER_ENERGY_QM>  (26) 
0

>  <FF_Energy>  (26) 
18.46

>  <QM_Energy>  (26) 
46.07

>  <source>  (26) 
ACEM_nNMA_02

>  <Index>  (26) 
2947

$$$$
ACEM-pdb2bzr-B-GLN-400:NMA-pdb2bzr-B-ASP-364
     RDKit          3D

 21 19  0  0  0  0  0  0  0  0999 V2000
   -5.2320    2.3428    1.6525 C   0  0  0  0  0  0  0  0  0  0  0  0
   -6.0596    2.6129    1.1634 H   0  0  0  0  0  0  0  0  0  0  0  0
   -4.6672    3.1471    1.8286 H   0  0  0  0  0  0  0  0  0  0  0  0
   -5.5099    1.8858    2.6022 H   0  0  0  0  0  0  0  0  0  0  0  0
   -4.4454    1.3890    0.7681 C   0  0  0  0  0  0  0  0  0  0  0  0
   -3.2972    0.9583    1.2418 N   0  0  0  0  0  0  0  0  0  0  0  0
   -2.7193    0.3046    0.7129 H   0  0  0  0  0  0  0  0  0  0  0  0
   -2.9811    1.2857    2.1563 H   0  0  0  0  0  0  0  0  0  0  0  0
   -4.8990    1.0178   -0.3144 O   0  0  0  0  0  0  0  0  0  0  0  0
   -1.1784   -2.1695   -0.0233 C   0  0  0  0  0  0  0  0  0  0  0  0
   -0.7212   -2.4781    0.8152 H   0  0  0  0  0  0  0  0  0  0  0  0
   -0.5982   -2.5674   -0.8558 H   0  0  0  0  0  0  0  0  0  0  0  0
   -2.2124   -2.5128   -0.0569 H   0  0  0  0  0  0  0  0  0  0  0  0
   -1.1347   -0.7041   -0.0000 N   0  0  0  0  0  0  0  0  0  0  0  0
   -2.0015   -0.1137    0.0184 H   0  0  0  0  0  0  0  0  0  0  0  0
    0.0000    0.0000    0.0000 C   0  0  0  0  0  0  0  0  0  0  0  0
    1.1347   -0.5207   -0.0000 O   0  0  0  0  0  0  0  0  0  0  0  0
   -0.1338    1.5348    0.0250 C   0  0  0  0  0  0  0  0  0  0  0  0
   -0.4439    1.7681    0.9279 H   0  0  0  0  0  0  0  0  0  0  0  0
    0.8931    1.8816   -0.0908 H   0  0  0  0  0  0  0  0  0  0  0  0
   -0.7965    1.9564   -0.7306 H   0  0  0  0  0  0  0  0  0  0  0  0
  1  5  1  0
  5  6  1  0
  5  9  2  0
  1  2  1  0
  1  3  1  0
  1  4  1  0
  6  7  1  0
  6  8  1  0
 10 14  1  0
 14 16  1  0
 16 17  2  0
 16 18  1  0
 10 11  1  0
 10 12  1  0
 10 13  1  0
 14 15  1  0
 18 19  1  0
 18 20  1  0
 18 21  1  0
M  END
>  <PDB_ID>  (27) 
pdb2bzr

>  <RESIDUE_NAME>  (27) 
GLN   ASP

>  <FRAG_NAME>  (27) 
ACEM   NMA

>  <FRAG_ATOM_NUM>  (27) 
fragi: 9  fragj: 12

>  <atom.prop.CHAIN_ID>  (27) 
A A A A A A A A A Z Z Z Z Z Z Z Z Z Z Z Z

>  <atom.prop.IS_HEAVY_ATOM>  (27) 
1 0 0 0 1 1 0 0 1 1 0 0 0 1 0 1 1 1 0 0 0

>  <DIFUSE_FUNC_ATOM>  (27) 
n/a

>  <FINAL_SINGLE_POINT_ENERGY>  (27) 
0

>  <NONCOV_INTER_ENERGY_QM>  (27) 
0

>  <FF_Energy>  (27) 
6.78

>  <QM_Energy>  (27) 
17.24

>  <source>  (27) 
ACEM_nNMA_02

>  <Index>  (27) 
5141

$$$$
ACEM-pdb2c5u-A-ASN-131:NMA-pdb2c5u-A-LEU-115
     RDKit          3D

 21 19  0  0  0  0  0  0  0  0999 V2000
   -5.1423    1.5610    2.0496 C   0  0  0  0  0  0  0  0  0  0  0  0
   -6.0833    1.3068    1.8435 H   0  0  0  0  0  0  0  0  0  0  0  0
   -5.0562    2.5530    2.0890 H   0  0  0  0  0  0  0  0  0  0  0  0
   -4.8897    1.1597    3.0310 H   0  0  0  0  0  0  0  0  0  0  0  0
   -4.2436    1.0339    0.9656 C   0  0  0  0  0  0  0  0  0  0  0  0
   -3.1165    0.4443    1.3585 N   0  0  0  0  0  0  0  0  0  0  0  0
   -2.9121    0.3667    2.3362 H   0  0  0  0  0  0  0  0  0  0  0  0
   -2.4792    0.0800    0.6839 H   0  0  0  0  0  0  0  0  0  0  0  0
   -4.5605    1.1460   -0.2205 O   0  0  0  0  0  0  0  0  0  0  0  0
   -1.1284   -2.1735    0.0150 C   0  0  0  0  0  0  0  0  0  0  0  0
   -0.1638   -2.4715   -0.0050 H   0  0  0  0  0  0  0  0  0  0  0  0
   -1.6036   -2.5906   -0.8728 H   0  0  0  0  0  0  0  0  0  0  0  0
   -1.6709   -2.5428    0.8852 H   0  0  0  0  0  0  0  0  0  0  0  0
   -1.1225   -0.7135   -0.0000 N   0  0  0  0  0  0  0  0  0  0  0  0
   -1.9973   -0.1410   -0.0121 H   0  0  0  0  0  0  0  0  0  0  0  0
    0.0000    0.0000    0.0000 C   0  0  0  0  0  0  0  0  0  0  0  0
    1.1225   -0.5061    0.0000 O   0  0  0  0  0  0  0  0  0  0  0  0
   -0.1867    1.5200   -0.0200 C   0  0  0  0  0  0  0  0  0  0  0  0
   -0.7759    1.7753    0.7718 H   0  0  0  0  0  0  0  0  0  0  0  0
    0.7410    2.0884    0.0466 H   0  0  0  0  0  0  0  0  0  0  0  0
   -0.7158    1.8024   -0.9300 H   0  0  0  0  0  0  0  0  0  0  0  0
  1  5  1  0
  5  6  1  0
  5  9  2  0
  1  2  1  0
  1  3  1  0
  1  4  1  0
  6  7  1  0
  6  8  1  0
 10 14  1  0
 14 16  1  0
 16 17  2  0
 16 18  1  0
 10 11  1  0
 10 12  1  0
 10 13  1  0
 14 15  1  0
 18 19  1  0
 18 20  1  0
 18 21  1  0
M  END
>  <PDB_ID>  (28) 
pdb2c5u

>  <RESIDUE_NAME>  (28) 
ASN   LEU

>  <FRAG_NAME>  (28) 
ACEM   NMA

>  <FRAG_ATOM_NUM>  (28) 
fragi: 9  fragj: 12

>  <atom.prop.CHAIN_ID>  (28) 
A A A A A A A A A Z Z Z Z Z Z Z Z Z Z Z Z

>  <atom.prop.IS_HEAVY_ATOM>  (28) 
1 0 0 0 1 1 0 0 1 1 0 0 0 1 0 1 1 1 0 0 0

>  <DIFUSE_FUNC_ATOM>  (28) 
n/a

>  <FINAL_SINGLE_POINT_ENERGY>  (28) 
0

>  <NONCOV_INTER_ENERGY_QM>  (28) 
0

>  <FF_Energy>  (28) 
14.08

>  <QM_Energy>  (28) 
39.99

>  <source>  (28) 
ACEM_nNMA_02

>  <Index>  (28) 
5527

$$$$
ACEM-pdb2c1w-C-ASN-17:NMA-pdb2c1w-C-LEU-260
     RDKit          3D

 21 19  0  0  0  0  0  0  0  0999 V2000
   -5.3898    0.8043   -2.3219 C   0  0  0  0  0  0  0  0  0  0  0  0
   -6.1107    1.4177   -2.0162 H   0  0  0  0  0  0  0  0  0  0  0  0
   -5.7707   -0.0820   -2.5684 H   0  0  0  0  0  0  0  0  0  0  0  0
   -4.9190    1.2357   -3.2052 H   0  0  0  0  0  0  0  0  0  0  0  0
   -4.4073    0.6079   -1.1821 C   0  0  0  0  0  0  0  0  0  0  0  0
   -3.3717   -0.1966   -1.4177 N   0  0  0  0  0  0  0  0  0  0  0  0
   -3.2764   -0.6275   -2.3171 H   0  0  0  0  0  0  0  0  0  0  0  0
   -2.6966   -0.3683   -0.7048 H   0  0  0  0  0  0  0  0  0  0  0  0
   -4.5764    1.1718   -0.0994 O   0  0  0  0  0  0  0  0  0  0  0  0
   -1.1680   -2.1776    0.1411 C   0  0  0  0  0  0  0  0  0  0  0  0
   -2.1439   -2.4716    0.2278 H   0  0  0  0  0  0  0  0  0  0  0  0
   -0.5979   -2.5835    0.9767 H   0  0  0  0  0  0  0  0  0  0  0  0
   -1.0269   -2.7301   -0.7879 H   0  0  0  0  0  0  0  0  0  0  0  0
   -1.1236   -0.7084    0.0000 N   0  0  0  0  0  0  0  0  0  0  0  0
   -1.9959   -0.1334   -0.1101 H   0  0  0  0  0  0  0  0  0  0  0  0
    0.0000    0.0000    0.0000 C   0  0  0  0  0  0  0  0  0  0  0  0
    1.1236   -0.5078   -0.0000 O   0  0  0  0  0  0  0  0  0  0  0  0
   -0.1913    1.5180    0.0071 C   0  0  0  0  0  0  0  0  0  0  0  0
   -1.1073    1.7193   -0.3390 H   0  0  0  0  0  0  0  0  0  0  0  0
   -0.1101    1.8828    1.0310 H   0  0  0  0  0  0  0  0  0  0  0  0
    0.5276    1.9996   -0.6558 H   0  0  0  0  0  0  0  0  0  0  0  0
  1  5  1  0
  5  6  1  0
  5  9  2  0
  1  2  1  0
  1  3  1  0
  1  4  1  0
  6  7  1  0
  6  8  1  0
 10 14  1  0
 14 16  1  0
 16 17  2  0
 16 18  1  0
 10 11  1  0
 10 12  1  0
 10 13  1  0
 14 15  1  0
 18 19  1  0
 18 20  1  0
 18 21  1  0
M  END
>  <PDB_ID>  (29) 
pdb2c1w

>  <RESIDUE_NAME>  (29) 
ASN   LEU

>  <FRAG_NAME>  (29) 
ACEM   NMA

>  <FRAG_ATOM_NUM>  (29) 
fragi: 9  fragj: 12

>  <atom.prop.CHAIN_ID>  (29) 
A A A A A A A A A Z Z Z Z Z Z Z Z Z Z Z Z

>  <atom.prop.IS_HEAVY_ATOM>  (29) 
1 0 0 0 1 1 0 0 1 1 0 0 0 1 0 1 1 1 0 0 0

>  <DIFUSE_FUNC_ATOM>  (29) 
n/a

>  <FINAL_SINGLE_POINT_ENERGY>  (29) 
0

>  <NONCOV_INTER_ENERGY_QM>  (29) 
0

>  <FF_Energy>  (29) 
9.49

>  <QM_Energy>  (29) 
31.3

>  <source>  (29) 
ACEM_nNMA_02

>  <Index>  (29) 
6820

$$$$
ACEM-pdb2c5u-B-ASN-131:NMA-pdb2c5u-B-LEU-115
     RDKit          3D

 21 19  0  0  0  0  0  0  0  0999 V2000
   -5.2546    1.5699    1.9456 C   0  0  0  0  0  0  0  0  0  0  0  0
   -6.2326    1.4322    1.8142 H   0  0  0  0  0  0  0  0  0  0  0  0
   -5.0454    2.5449    1.9492 H   0  0  0  0  0  0  0  0  0  0  0  0
   -4.9826    1.1620    2.9191 H   0  0  0  0  0  0  0  0  0  0  0  0
   -4.5112    0.9144    0.8002 C   0  0  0  0  0  0  0  0  0  0  0  0
   -3.4110    0.2397    1.1199 N   0  0  0  0  0  0  0  0  0  0  0  0
   -3.1211    0.1825    2.0767 H   0  0  0  0  0  0  0  0  0  0  0  0
   -2.8738   -0.2106    0.4072 H   0  0  0  0  0  0  0  0  0  0  0  0
   -4.9237    0.9983   -0.3566 O   0  0  0  0  0  0  0  0  0  0  0  0
   -1.1304   -2.1726   -0.0021 C   0  0  0  0  0  0  0  0  0  0  0  0
   -0.1616   -2.4697    0.0135 H   0  0  0  0  0  0  0  0  0  0  0  0
   -1.5742   -2.5932   -0.9045 H   0  0  0  0  0  0  0  0  0  0  0  0
   -1.6964   -2.5591    0.8455 H   0  0  0  0  0  0  0  0  0  0  0  0
   -1.1237   -0.7126   -0.0000 N   0  0  0  0  0  0  0  0  0  0  0  0
   -1.9977   -0.1393    0.0013 H   0  0  0  0  0  0  0  0  0  0  0  0
    0.0000    0.0000    0.0000 C   0  0  0  0  0  0  0  0  0  0  0  0
    1.1237   -0.5055    0.0000 O   0  0  0  0  0  0  0  0  0  0  0  0
   -0.1830    1.5168    0.0015 C   0  0  0  0  0  0  0  0  0  0  0  0
   -0.7764    1.7628    0.7948 H   0  0  0  0  0  0  0  0  0  0  0  0
    0.7443    2.0847    0.0788 H   0  0  0  0  0  0  0  0  0  0  0  0
   -0.7122    1.8175   -0.9027 H   0  0  0  0  0  0  0  0  0  0  0  0
  1  5  1  0
  5  6  1  0
  5  9  2  0
  1  2  1  0
  1  3  1  0
  1  4  1  0
  6  7  1  0
  6  8  1  0
 10 14  1  0
 14 16  1  0
 16 17  2  0
 16 18  1  0
 10 11  1  0
 10 12  1  0
 10 13  1  0
 14 15  1  0
 18 19  1  0
 18 20  1  0
 18 21  1  0
M  END
>  <PDB_ID>  (30) 
pdb2c5u

>  <RESIDUE_NAME>  (30) 
ASN   LEU

>  <FRAG_NAME>  (30) 
ACEM   NMA

>  <FRAG_ATOM_NUM>  (30) 
fragi: 9  fragj: 12

>  <atom.prop.CHAIN_ID>  (30) 
A A A A A A A A A Z Z Z Z Z Z Z Z Z Z Z Z

>  <atom.prop.IS_HEAVY_ATOM>  (30) 
1 0 0 0 1 1 0 0 1 1 0 0 0 1 0 1 1 1 0 0 0

>  <DIFUSE_FUNC_ATOM>  (30) 
n/a

>  <FINAL_SINGLE_POINT_ENERGY>  (30) 
0

>  <NONCOV_INTER_ENERGY_QM>  (30) 
0

>  <FF_Energy>  (30) 
10.35

>  <QM_Energy>  (30) 
30.03

>  <source>  (30) 
ACEM_nNMA_02

>  <Index>  (30) 
7610

$$$$
ACEM-pdb1bmq-A-ASN-205:NMA-pdb1bmq-A-GLU-171
     RDKit          3D

 21 19  0  0  0  0  0  0  0  0999 V2000
   -5.7825    0.0377   -1.4229 C   0  0  0  0  0  0  0  0  0  0  0  0
   -6.6578    0.1663   -0.9679 H   0  0  0  0  0  0  0  0  0  0  0  0
   -5.7356   -0.8695   -1.8308 H   0  0  0  0  0  0  0  0  0  0  0  0
   -5.6956    0.7772   -2.2189 H   0  0  0  0  0  0  0  0  0  0  0  0
   -4.6775    0.1643   -0.3923 C   0  0  0  0  0  0  0  0  0  0  0  0
   -3.4747   -0.2770   -0.7506 N   0  0  0  0  0  0  0  0  0  0  0  0
   -3.3412   -0.6619   -1.6653 H   0  0  0  0  0  0  0  0  0  0  0  0
   -2.7102   -0.2244   -0.1119 H   0  0  0  0  0  0  0  0  0  0  0  0
   -4.9025    0.6507    0.7148 O   0  0  0  0  0  0  0  0  0  0  0  0
   -1.0815   -2.1728   -0.0056 C   0  0  0  0  0  0  0  0  0  0  0  0
   -0.1583   -2.4905    0.2558 H   0  0  0  0  0  0  0  0  0  0  0  0
   -1.3395   -2.5771   -0.9844 H   0  0  0  0  0  0  0  0  0  0  0  0
   -1.7649   -2.5669    0.7466 H   0  0  0  0  0  0  0  0  0  0  0  0
   -1.1166   -0.7171   -0.0000 N   0  0  0  0  0  0  0  0  0  0  0  0
   -1.9929   -0.1637    0.0036 H   0  0  0  0  0  0  0  0  0  0  0  0
    0.0000    0.0000    0.0000 C   0  0  0  0  0  0  0  0  0  0  0  0
    1.1166   -0.5096    0.0000 O   0  0  0  0  0  0  0  0  0  0  0  0
   -0.1662    1.5151    0.0056 C   0  0  0  0  0  0  0  0  0  0  0  0
    0.7116    1.9499   -0.2363 H   0  0  0  0  0  0  0  0  0  0  0  0
   -0.9367    1.8320   -0.6973 H   0  0  0  0  0  0  0  0  0  0  0  0
   -0.4135    1.8474    1.0138 H   0  0  0  0  0  0  0  0  0  0  0  0
  1  5  1  0
  5  6  1  0
  5  9  2  0
  1  2  1  0
  1  3  1  0
  1  4  1  0
  6  7  1  0
  6  8  1  0
 10 14  1  0
 14 16  1  0
 16 17  2  0
 16 18  1  0
 10 11  1  0
 10 12  1  0
 10 13  1  0
 14 15  1  0
 18 19  1  0
 18 20  1  0
 18 21  1  0
M  END
>  <PDB_ID>  (31) 
pdb1bmq

>  <RESIDUE_NAME>  (31) 
ASN   GLU

>  <FRAG_NAME>  (31) 
ACEM   NMA

>  <FRAG_ATOM_NUM>  (31) 
fragi: 9  fragj: 12

>  <atom.prop.CHAIN_ID>  (31) 
A A A A A A A A A Z Z Z Z Z Z Z Z Z Z Z Z

>  <atom.prop.IS_HEAVY_ATOM>  (31) 
1 0 0 0 1 1 0 0 1 1 0 0 0 1 0 1 1 1 0 0 0

>  <DIFUSE_FUNC_ATOM>  (31) 
n/a

>  <FINAL_SINGLE_POINT_ENERGY>  (31) 
0

>  <NONCOV_INTER_ENERGY_QM>  (31) 
0

>  <FF_Energy>  (31) 
30.06

>  <QM_Energy>  (31) 
71.27

>  <source>  (31) 
ACEM_nNMA_02

>  <Index>  (31) 
9630

$$$$
ACEM-pdb1bli-A-GLN-399:NMA-pdb1bli-A-ARG-354
     RDKit          3D

 21 19  0  0  0  0  0  0  0  0999 V2000
   -5.4684    1.6109    1.3617 C   0  0  0  0  0  0  0  0  0  0  0  0
   -6.2525    1.9557    0.8546 H   0  0  0  0  0  0  0  0  0  0  0  0
   -5.1855    2.2726    2.0501 H   0  0  0  0  0  0  0  0  0  0  0  0
   -5.7359    0.6732    1.8488 H   0  0  0  0  0  0  0  0  0  0  0  0
   -4.3377    1.3929    0.4088 C   0  0  0  0  0  0  0  0  0  0  0  0
   -3.2236    0.8894    0.9082 N   0  0  0  0  0  0  0  0  0  0  0  0
   -2.4109    0.6988    0.3184 H   0  0  0  0  0  0  0  0  0  0  0  0
   -3.1771    0.6877    1.9098 H   0  0  0  0  0  0  0  0  0  0  0  0
   -4.4594    1.6873   -0.7645 O   0  0  0  0  0  0  0  0  0  0  0  0
   -1.0986   -2.1549    0.0946 C   0  0  0  0  0  0  0  0  0  0  0  0
   -0.4654   -2.4341    0.8662 H   0  0  0  0  0  0  0  0  0  0  0  0
   -0.8228   -2.7079   -0.8033 H   0  0  0  0  0  0  0  0  0  0  0  0
   -2.0774   -2.4959    0.4316 H   0  0  0  0  0  0  0  0  0  0  0  0
   -1.1165   -0.7114    0.0000 N   0  0  0  0  0  0  0  0  0  0  0  0
   -1.9907   -0.1489   -0.0728 H   0  0  0  0  0  0  0  0  0  0  0  0
    0.0000    0.0000    0.0000 C   0  0  0  0  0  0  0  0  0  0  0  0
    1.1165   -0.5226   -0.0000 O   0  0  0  0  0  0  0  0  0  0  0  0
   -0.1501    1.5294    0.0146 C   0  0  0  0  0  0  0  0  0  0  0  0
   -0.8980    1.7661    0.6129 H   0  0  0  0  0  0  0  0  0  0  0  0
    0.7799    1.9217    0.4260 H   0  0  0  0  0  0  0  0  0  0  0  0
   -0.3380    1.9526   -0.9721 H   0  0  0  0  0  0  0  0  0  0  0  0
  1  5  1  0
  5  6  1  0
  5  9  2  0
  1  2  1  0
  1  3  1  0
  1  4  1  0
  6  7  1  0
  6  8  1  0
 10 14  1  0
 14 16  1  0
 16 17  2  0
 16 18  1  0
 10 11  1  0
 10 12  1  0
 10 13  1  0
 14 15  1  0
 18 19  1  0
 18 20  1  0
 18 21  1  0
M  END
>  <PDB_ID>  (32) 
pdb1bli

>  <RESIDUE_NAME>  (32) 
GLN   ARG

>  <FRAG_NAME>  (32) 
ACEM   NMA

>  <FRAG_ATOM_NUM>  (32) 
fragi: 9  fragj: 12

>  <atom.prop.CHAIN_ID>  (32) 
A A A A A A A A A Z Z Z Z Z Z Z Z Z Z Z Z

>  <atom.prop.IS_HEAVY_ATOM>  (32) 
1 0 0 0 1 1 0 0 1 1 0 0 0 1 0 1 1 1 0 0 0

>  <DIFUSE_FUNC_ATOM>  (32) 
n/a

>  <FINAL_SINGLE_POINT_ENERGY>  (32) 
0

>  <NONCOV_INTER_ENERGY_QM>  (32) 
0

>  <FF_Energy>  (32) 
11.13

>  <QM_Energy>  (32) 
25.81

>  <source>  (32) 
ACEM_nNMA_02

>  <Index>  (32) 
10276

$$$$
ACEM-pdb2cb9-A-ASN-213:NMA-pdb2cb9-A-GLY-197
     RDKit          3D

 21 19  0  0  0  0  0  0  0  0999 V2000
   -5.6943    1.4579    0.8911 C   0  0  0  0  0  0  0  0  0  0  0  0
   -6.6519    1.2275    0.7439 H   0  0  0  0  0  0  0  0  0  0  0  0
   -5.4595    2.2879    0.3935 H   0  0  0  0  0  0  0  0  0  0  0  0
   -5.5449    1.6416    1.9550 H   0  0  0  0  0  0  0  0  0  0  0  0
   -4.8395    0.3309    0.3901 C   0  0  0  0  0  0  0  0  0  0  0  0
   -3.5827    0.4211    0.6945 N   0  0  0  0  0  0  0  0  0  0  0  0
   -3.2081    1.1806    1.2286 H   0  0  0  0  0  0  0  0  0  0  0  0
   -2.9305   -0.3018    0.3871 H   0  0  0  0  0  0  0  0  0  0  0  0
   -5.3293   -0.6480   -0.2449 O   0  0  0  0  0  0  0  0  0  0  0  0
   -1.1677   -2.1246    0.2561 C   0  0  0  0  0  0  0  0  0  0  0  0
   -0.2230   -2.4735    0.2994 H   0  0  0  0  0  0  0  0  0  0  0  0
   -1.6821   -2.6451   -0.5518 H   0  0  0  0  0  0  0  0  0  0  0  0
   -1.6505   -2.3353    1.2103 H   0  0  0  0  0  0  0  0  0  0  0  0
   -1.1241   -0.7047   -0.0000 N   0  0  0  0  0  0  0  0  0  0  0  0
   -1.9837   -0.1323   -0.2048 H   0  0  0  0  0  0  0  0  0  0  0  0
    0.0000    0.0000    0.0000 C   0  0  0  0  0  0  0  0  0  0  0  0
    1.1241   -0.5204   -0.0000 O   0  0  0  0  0  0  0  0  0  0  0  0
   -0.1772    1.5022   -0.0042 C   0  0  0  0  0  0  0  0  0  0  0  0
   -0.3846    1.8150    0.9368 H   0  0  0  0  0  0  0  0  0  0  0  0
   -0.9728    1.7418   -0.5842 H   0  0  0  0  0  0  0  0  0  0  0  0
    0.7129    2.0116   -0.3734 H   0  0  0  0  0  0  0  0  0  0  0  0
  1  5  1  0
  5  6  1  0
  5  9  2  0
  1  2  1  0
  1  3  1  0
  1  4  1  0
  6  7  1  0
  6  8  1  0
 10 14  1  0
 14 16  1  0
 16 17  2  0
 16 18  1  0
 10 11  1  0
 10 12  1  0
 10 13  1  0
 14 15  1  0
 18 19  1  0
 18 20  1  0
 18 21  1  0
M  END
>  <PDB_ID>  (33) 
pdb2cb9

>  <RESIDUE_NAME>  (33) 
ASN   GLY

>  <FRAG_NAME>  (33) 
ACEM   NMA

>  <FRAG_ATOM_NUM>  (33) 
fragi: 9  fragj: 12

>  <atom.prop.CHAIN_ID>  (33) 
A A A A A A A A A Z Z Z Z Z Z Z Z Z Z Z Z

>  <atom.prop.IS_HEAVY_ATOM>  (33) 
1 0 0 0 1 1 0 0 1 1 0 0 0 1 0 1 1 1 0 0 0

>  <DIFUSE_FUNC_ATOM>  (33) 
n/a

>  <FINAL_SINGLE_POINT_ENERGY>  (33) 
0

>  <NONCOV_INTER_ENERGY_QM>  (33) 
0

>  <FF_Energy>  (33) 
7.63

>  <QM_Energy>  (33) 
18.52

>  <source>  (33) 
ACEM_nNMA_02

>  <Index>  (33) 
10691

$$$$
ACEM-pdb2cfm-A-GLN-552:NMA-pdb2cfm-A-GLU-509
     RDKit          3D

 21 19  0  0  0  0  0  0  0  0999 V2000
   -5.4414    1.6407    0.8472 C   0  0  0  0  0  0  0  0  0  0  0  0
   -5.7060    2.3678    0.2252 H   0  0  0  0  0  0  0  0  0  0  0  0
   -5.2440    2.0036    1.7499 H   0  0  0  0  0  0  0  0  0  0  0  0
   -6.2552    0.9194    0.9214 H   0  0  0  0  0  0  0  0  0  0  0  0
   -4.1897    0.9761    0.3086 C   0  0  0  0  0  0  0  0  0  0  0  0
   -3.4209    0.3781    1.1973 N   0  0  0  0  0  0  0  0  0  0  0  0
   -2.5656   -0.1062    0.9121 H   0  0  0  0  0  0  0  0  0  0  0  0
   -3.6858    0.4007    2.1809 H   0  0  0  0  0  0  0  0  0  0  0  0
   -3.9360    0.9767   -0.9034 O   0  0  0  0  0  0  0  0  0  0  0  0
   -1.1360   -2.1418   -0.0728 C   0  0  0  0  0  0  0  0  0  0  0  0
   -0.2098   -2.4350    0.0525 H   0  0  0  0  0  0  0  0  0  0  0  0
   -1.3844   -2.3231   -1.1185 H   0  0  0  0  0  0  0  0  0  0  0  0
   -1.9221   -2.5836    0.5395 H   0  0  0  0  0  0  0  0  0  0  0  0
   -1.1270   -0.6990   -0.0000 N   0  0  0  0  0  0  0  0  0  0  0  0
   -1.9940   -0.1193    0.0568 H   0  0  0  0  0  0  0  0  0  0  0  0
    0.0000    0.0000    0.0000 C   0  0  0  0  0  0  0  0  0  0  0  0
    1.1270   -0.5144   -0.0000 O   0  0  0  0  0  0  0  0  0  0  0  0
   -0.1714    1.5092    0.0151 C   0  0  0  0  0  0  0  0  0  0  0  0
   -1.0253    1.7463    0.4841 H   0  0  0  0  0  0  0  0  0  0  0  0
    0.6725    1.9695    0.5290 H   0  0  0  0  0  0  0  0  0  0  0  0
   -0.2116    1.8750   -1.0109 H   0  0  0  0  0  0  0  0  0  0  0  0
  1  5  1  0
  5  6  1  0
  5  9  2  0
  1  2  1  0
  1  3  1  0
  1  4  1  0
  6  7  1  0
  6  8  1  0
 10 14  1  0
 14 16  1  0
 16 17  2  0
 16 18  1  0
 10 11  1  0
 10 12  1  0
 10 13  1  0
 14 15  1  0
 18 19  1  0
 18 20  1  0
 18 21  1  0
M  END
>  <PDB_ID>  (34) 
pdb2cfm

>  <RESIDUE_NAME>  (34) 
GLN   GLU

>  <FRAG_NAME>  (34) 
ACEM   NMA

>  <FRAG_ATOM_NUM>  (34) 
fragi: 9  fragj: 12

>  <atom.prop.CHAIN_ID>  (34) 
A A A A A A A A A Z Z Z Z Z Z Z Z Z Z Z Z

>  <atom.prop.IS_HEAVY_ATOM>  (34) 
1 0 0 0 1 1 0 0 1 1 0 0 0 1 0 1 1 1 0 0 0

>  <DIFUSE_FUNC_ATOM>  (34) 
n/a

>  <FINAL_SINGLE_POINT_ENERGY>  (34) 
0

>  <NONCOV_INTER_ENERGY_QM>  (34) 
0

>  <FF_Energy>  (34) 
4.99

>  <QM_Energy>  (34) 
20.99

>  <source>  (34) 
ACEM_nNMA_02

>  <Index>  (34) 
14959

$$$$
ACEM-pdb2cfc-C-GLN-220:NMA-pdb2cfc-C-GLY-216
     RDKit          3D

 21 19  0  0  0  0  0  0  0  0999 V2000
   -5.3054    0.0145    1.0111 C   0  0  0  0  0  0  0  0  0  0  0  0
   -6.1794    0.3676    1.3409 H   0  0  0  0  0  0  0  0  0  0  0  0
   -5.1557   -0.9043    1.3729 H   0  0  0  0  0  0  0  0  0  0  0  0
   -5.3420   -0.0421   -0.0768 H   0  0  0  0  0  0  0  0  0  0  0  0
   -4.1951    0.9214    1.5143 C   0  0  0  0  0  0  0  0  0  0  0  0
   -3.0258    0.8702    0.8725 N   0  0  0  0  0  0  0  0  0  0  0  0
   -2.2541    1.4553    1.1466 H   0  0  0  0  0  0  0  0  0  0  0  0
   -2.9311    0.2193    0.0914 H   0  0  0  0  0  0  0  0  0  0  0  0
   -4.3909    1.6647    2.4690 O   0  0  0  0  0  0  0  0  0  0  0  0
   -1.1047   -2.1604    0.0386 C   0  0  0  0  0  0  0  0  0  0  0  0
   -0.1425   -2.4689   -0.0456 H   0  0  0  0  0  0  0  0  0  0  0  0
   -1.6801   -2.6026   -0.7749 H   0  0  0  0  0  0  0  0  0  0  0  0
   -1.5291   -2.5255    0.9739 H   0  0  0  0  0  0  0  0  0  0  0  0
   -1.1232   -0.7036   -0.0000 N   0  0  0  0  0  0  0  0  0  0  0  0
   -1.9942   -0.1419   -0.0294 H   0  0  0  0  0  0  0  0  0  0  0  0
    0.0000    0.0000    0.0000 C   0  0  0  0  0  0  0  0  0  0  0  0
    1.1232   -0.5254   -0.0000 O   0  0  0  0  0  0  0  0  0  0  0  0
   -0.1669    1.5069   -0.0104 C   0  0  0  0  0  0  0  0  0  0  0  0
   -0.8678    1.7691    0.6787 H   0  0  0  0  0  0  0  0  0  0  0  0
   -0.5275    1.7959   -0.9172 H   0  0  0  0  0  0  0  0  0  0  0  0
    0.7613    2.0394    0.1963 H   0  0  0  0  0  0  0  0  0  0  0  0
  1  5  1  0
  5  6  1  0
  5  9  2  0
  1  2  1  0
  1  3  1  0
  1  4  1  0
  6  7  1  0
  6  8  1  0
 10 14  1  0
 14 16  1  0
 16 17  2  0
 16 18  1  0
 10 11  1  0
 10 12  1  0
 10 13  1  0
 14 15  1  0
 18 19  1  0
 18 20  1  0
 18 21  1  0
M  END
>  <PDB_ID>  (35) 
pdb2cfc

>  <RESIDUE_NAME>  (35) 
GLN   GLY

>  <FRAG_NAME>  (35) 
ACEM   NMA

>  <FRAG_ATOM_NUM>  (35) 
fragi: 9  fragj: 12

>  <atom.prop.CHAIN_ID>  (35) 
A A A A A A A A A Z Z Z Z Z Z Z Z Z Z Z Z

>  <atom.prop.IS_HEAVY_ATOM>  (35) 
1 0 0 0 1 1 0 0 1 1 0 0 0 1 0 1 1 1 0 0 0

>  <DIFUSE_FUNC_ATOM>  (35) 
n/a

>  <FINAL_SINGLE_POINT_ENERGY>  (35) 
0

>  <NONCOV_INTER_ENERGY_QM>  (35) 
0

>  <FF_Energy>  (35) 
21.55

>  <QM_Energy>  (35) 
37.41

>  <source>  (35) 
ACEM_nNMA_02

>  <Index>  (35) 
17081

$$$$
ACEM-pdb1bu6-X-GLN-73:NMA-pdb1bu6-X-ILE-69
     RDKit          3D

 21 19  0  0  0  0  0  0  0  0999 V2000
   -5.9459    0.3030   -1.4504 C   0  0  0  0  0  0  0  0  0  0  0  0
   -6.6469    0.9086   -1.1546 H   0  0  0  0  0  0  0  0  0  0  0  0
   -6.2128   -0.6320   -1.4795 H   0  0  0  0  0  0  0  0  0  0  0  0
   -5.6094    0.6069   -2.4416 H   0  0  0  0  0  0  0  0  0  0  0  0
   -4.7514    0.4606   -0.5929 C   0  0  0  0  0  0  0  0  0  0  0  0
   -3.9188   -0.5564   -0.6718 N   0  0  0  0  0  0  0  0  0  0  0  0
   -3.0236   -0.5443   -0.1119 H   0  0  0  0  0  0  0  0  0  0  0  0
   -4.1249   -1.3465   -1.2603 H   0  0  0  0  0  0  0  0  0  0  0  0
   -4.6998    1.3339    0.2779 O   0  0  0  0  0  0  0  0  0  0  0  0
   -1.1219   -2.0997   -0.0796 C   0  0  0  0  0  0  0  0  0  0  0  0
   -0.1577   -2.3947   -0.0778 H   0  0  0  0  0  0  0  0  0  0  0  0
   -1.5863   -2.4236   -1.0110 H   0  0  0  0  0  0  0  0  0  0  0  0
   -1.6566   -2.5542    0.7543 H   0  0  0  0  0  0  0  0  0  0  0  0
   -1.1447   -0.6585   -0.0000 N   0  0  0  0  0  0  0  0  0  0  0  0
   -1.9925   -0.0887    0.0576 H   0  0  0  0  0  0  0  0  0  0  0  0
    0.0000    0.0000    0.0000 C   0  0  0  0  0  0  0  0  0  0  0  0
    1.1447   -0.5120    0.0000 O   0  0  0  0  0  0  0  0  0  0  0  0
   -0.1856    1.4616    0.1107 C   0  0  0  0  0  0  0  0  0  0  0  0
   -1.0796    1.6170    0.5209 H   0  0  0  0  0  0  0  0  0  0  0  0
    0.5542    1.8069    0.8329 H   0  0  0  0  0  0  0  0  0  0  0  0
   -0.0779    1.9374   -0.8640 H   0  0  0  0  0  0  0  0  0  0  0  0
  1  5  1  0
  5  6  1  0
  5  9  2  0
  1  2  1  0
  1  3  1  0
  1  4  1  0
  6  7  1  0
  6  8  1  0
 10 14  1  0
 14 16  1  0
 16 17  2  0
 16 18  1  0
 10 11  1  0
 10 12  1  0
 10 13  1  0
 14 15  1  0
 18 19  1  0
 18 20  1  0
 18 21  1  0
M  END
>  <PDB_ID>  (36) 
pdb1bu6

>  <RESIDUE_NAME>  (36) 
GLN   ILE

>  <FRAG_NAME>  (36) 
ACEM   NMA

>  <FRAG_ATOM_NUM>  (36) 
fragi: 9  fragj: 12

>  <atom.prop.CHAIN_ID>  (36) 
A A A A A A A A A Z Z Z Z Z Z Z Z Z Z Z Z

>  <atom.prop.IS_HEAVY_ATOM>  (36) 
1 0 0 0 1 1 0 0 1 1 0 0 0 1 0 1 1 1 0 0 0

>  <DIFUSE_FUNC_ATOM>  (36) 
n/a

>  <FINAL_SINGLE_POINT_ENERGY>  (36) 
0

>  <NONCOV_INTER_ENERGY_QM>  (36) 
0

>  <FF_Energy>  (36) 
3.98

>  <QM_Energy>  (36) 
16.59

>  <source>  (36) 
ACEM_nNMA_02

>  <Index>  (36) 
18960

$$$$
ACEM-pdb1bvu-C-ASN-304:NMA-pdb1bvu-C-ILE-300
     RDKit          3D

 21 19  0  0  0  0  0  0  0  0999 V2000
   -5.7337    1.1821    0.1692 C   0  0  0  0  0  0  0  0  0  0  0  0
   -5.7703    2.1138   -0.1799 H   0  0  0  0  0  0  0  0  0  0  0  0
   -6.4017    1.0606    0.8975 H   0  0  0  0  0  0  0  0  0  0  0  0
   -5.9839    0.5000   -0.6434 H   0  0  0  0  0  0  0  0  0  0  0  0
   -4.3468    0.9321    0.7364 C   0  0  0  0  0  0  0  0  0  0  0  0
   -3.7628   -0.1968    0.3750 N   0  0  0  0  0  0  0  0  0  0  0  0
   -4.2276   -0.8321   -0.2445 H   0  0  0  0  0  0  0  0  0  0  0  0
   -2.8485   -0.4243    0.7187 H   0  0  0  0  0  0  0  0  0  0  0  0
   -3.7982    1.7592    1.4684 O   0  0  0  0  0  0  0  0  0  0  0  0
   -1.1857   -2.1453   -0.0920 C   0  0  0  0  0  0  0  0  0  0  0  0
   -0.2862   -2.4815   -0.4078 H   0  0  0  0  0  0  0  0  0  0  0  0
   -1.9425   -2.4718   -0.8052 H   0  0  0  0  0  0  0  0  0  0  0  0
   -1.4072   -2.5596    0.8916 H   0  0  0  0  0  0  0  0  0  0  0  0
   -1.1316   -0.6980   -0.0000 N   0  0  0  0  0  0  0  0  0  0  0  0
   -1.9964   -0.0994    0.0734 H   0  0  0  0  0  0  0  0  0  0  0  0
    0.0000    0.0000    0.0000 C   0  0  0  0  0  0  0  0  0  0  0  0
    1.1316   -0.4941    0.0000 O   0  0  0  0  0  0  0  0  0  0  0  0
   -0.1843    1.4523    0.2867 C   0  0  0  0  0  0  0  0  0  0  0  0
   -1.1418    1.6075    0.3879 H   0  0  0  0  0  0  0  0  0  0  0  0
    0.2432    1.5145    1.2875 H   0  0  0  0  0  0  0  0  0  0  0  0
    0.3030    2.0694   -0.4681 H   0  0  0  0  0  0  0  0  0  0  0  0
  1  5  1  0
  5  6  1  0
  5  9  2  0
  1  2  1  0
  1  3  1  0
  1  4  1  0
  6  7  1  0
  6  8  1  0
 10 14  1  0
 14 16  1  0
 16 17  2  0
 16 18  1  0
 10 11  1  0
 10 12  1  0
 10 13  1  0
 14 15  1  0
 18 19  1  0
 18 20  1  0
 18 21  1  0
M  END
>  <PDB_ID>  (37) 
pdb1bvu

>  <RESIDUE_NAME>  (37) 
ASN   ILE

>  <FRAG_NAME>  (37) 
ACEM   NMA

>  <FRAG_ATOM_NUM>  (37) 
fragi: 9  fragj: 12

>  <atom.prop.CHAIN_ID>  (37) 
A A A A A A A A A Z Z Z Z Z Z Z Z Z Z Z Z

>  <atom.prop.IS_HEAVY_ATOM>  (37) 
1 0 0 0 1 1 0 0 1 1 0 0 0 1 0 1 1 1 0 0 0

>  <DIFUSE_FUNC_ATOM>  (37) 
n/a

>  <FINAL_SINGLE_POINT_ENERGY>  (37) 
0

>  <NONCOV_INTER_ENERGY_QM>  (37) 
0

>  <FF_Energy>  (37) 
4.83

>  <QM_Energy>  (37) 
19.36

>  <source>  (37) 
ACEM_nNMA_02

>  <Index>  (37) 
23097

$$$$
ACEM-pdb2cuk-A-ASN-296:NMA-pdb2cuk-A-PRO-307
     RDKit          3D

 21 19  0  0  0  0  0  0  0  0999 V2000
   -6.2056    0.3744    0.9618 C   0  0  0  0  0  0  0  0  0  0  0  0
   -6.7942    0.0340    1.6886 H   0  0  0  0  0  0  0  0  0  0  0  0
   -6.5071    0.0248    0.0808 H   0  0  0  0  0  0  0  0  0  0  0  0
   -6.2779    1.4618    0.9423 H   0  0  0  0  0  0  0  0  0  0  0  0
   -4.7879   -0.1129    1.2180 C   0  0  0  0  0  0  0  0  0  0  0  0
   -3.9484   -0.0604    0.1882 N   0  0  0  0  0  0  0  0  0  0  0  0
   -4.2648    0.2926   -0.6937 H   0  0  0  0  0  0  0  0  0  0  0  0
   -3.0051   -0.3710    0.2936 H   0  0  0  0  0  0  0  0  0  0  0  0
   -4.4533   -0.5410    2.3265 O   0  0  0  0  0  0  0  0  0  0  0  0
   -1.0438   -2.1851    0.0274 C   0  0  0  0  0  0  0  0  0  0  0  0
   -0.0776   -2.4372   -0.1471 H   0  0  0  0  0  0  0  0  0  0  0  0
   -1.6415   -2.6556   -0.7533 H   0  0  0  0  0  0  0  0  0  0  0  0
   -1.3629   -2.5538    1.0022 H   0  0  0  0  0  0  0  0  0  0  0  0
   -1.1162   -0.7236   -0.0000 N   0  0  0  0  0  0  0  0  0  0  0  0
   -1.9931   -0.1907   -0.0200 H   0  0  0  0  0  0  0  0  0  0  0  0
    0.0000    0.0000    0.0000 C   0  0  0  0  0  0  0  0  0  0  0  0
    1.1162   -0.5184   -0.0000 O   0  0  0  0  0  0  0  0  0  0  0  0
   -0.1395    1.5257   -0.0032 C   0  0  0  0  0  0  0  0  0  0  0  0
    0.6899    1.9527   -0.4442 H   0  0  0  0  0  0  0  0  0  0  0  0
   -1.0485    1.9324   -0.4464 H   0  0  0  0  0  0  0  0  0  0  0  0
   -0.1535    1.9409    1.0045 H   0  0  0  0  0  0  0  0  0  0  0  0
  1  5  1  0
  5  6  1  0
  5  9  2  0
  1  2  1  0
  1  3  1  0
  1  4  1  0
  6  7  1  0
  6  8  1  0
 10 14  1  0
 14 16  1  0
 16 17  2  0
 16 18  1  0
 10 11  1  0
 10 12  1  0
 10 13  1  0
 14 15  1  0
 18 19  1  0
 18 20  1  0
 18 21  1  0
M  END
>  <PDB_ID>  (38) 
pdb2cuk

>  <RESIDUE_NAME>  (38) 
ASN   PRO

>  <FRAG_NAME>  (38) 
ACEM   NMA

>  <FRAG_ATOM_NUM>  (38) 
fragi: 9  fragj: 12

>  <atom.prop.CHAIN_ID>  (38) 
A A A A A A A A A Z Z Z Z Z Z Z Z Z Z Z Z

>  <atom.prop.IS_HEAVY_ATOM>  (38) 
1 0 0 0 1 1 0 0 1 1 0 0 0 1 0 1 1 1 0 0 0

>  <DIFUSE_FUNC_ATOM>  (38) 
n/a

>  <FINAL_SINGLE_POINT_ENERGY>  (38) 
0

>  <NONCOV_INTER_ENERGY_QM>  (38) 
0

>  <FF_Energy>  (38) 
7.08

>  <QM_Energy>  (38) 
19.82

>  <source>  (38) 
ACEM_nNMA_02

>  <Index>  (38) 
23596

$$$$
ACEM-pdb2cn2-B-GLN-267:NMA-pdb2cn2-B-SER-250
     RDKit          3D

 21 19  0  0  0  0  0  0  0  0999 V2000
   -5.5591    0.6671    1.3934 C   0  0  0  0  0  0  0  0  0  0  0  0
   -6.0950    1.3119    0.8592 H   0  0  0  0  0  0  0  0  0  0  0  0
   -5.3080    1.0653    2.2690 H   0  0  0  0  0  0  0  0  0  0  0  0
   -6.1605   -0.2239    1.5735 H   0  0  0  0  0  0  0  0  0  0  0  0
   -4.3019    0.3285    0.6315 C   0  0  0  0  0  0  0  0  0  0  0  0
   -3.2237    0.0727    1.3613 N   0  0  0  0  0  0  0  0  0  0  0  0
   -2.3386   -0.1784    0.9189 H   0  0  0  0  0  0  0  0  0  0  0  0
   -3.2896    0.1310    2.3760 H   0  0  0  0  0  0  0  0  0  0  0  0
   -4.3014    0.2745   -0.6037 O   0  0  0  0  0  0  0  0  0  0  0  0
   -1.1109   -2.1805    0.1064 C   0  0  0  0  0  0  0  0  0  0  0  0
   -0.1586   -2.4390    0.3007 H   0  0  0  0  0  0  0  0  0  0  0  0
   -1.3788   -2.6437   -0.8432 H   0  0  0  0  0  0  0  0  0  0  0  0
   -1.7718   -2.5470    0.8919 H   0  0  0  0  0  0  0  0  0  0  0  0
   -1.1200   -0.7203   -0.0000 N   0  0  0  0  0  0  0  0  0  0  0  0
   -1.9950   -0.1616   -0.0810 H   0  0  0  0  0  0  0  0  0  0  0  0
    0.0000    0.0000    0.0000 C   0  0  0  0  0  0  0  0  0  0  0  0
    1.1200   -0.5087   -0.0000 O   0  0  0  0  0  0  0  0  0  0  0  0
   -0.1510    1.5238   -0.0026 C   0  0  0  0  0  0  0  0  0  0  0  0
    0.6541    1.9135   -0.5088 H   0  0  0  0  0  0  0  0  0  0  0  0
   -1.0517    1.9261   -0.4663 H   0  0  0  0  0  0  0  0  0  0  0  0
   -0.0505    1.9034    1.0142 H   0  0  0  0  0  0  0  0  0  0  0  0
  1  5  1  0
  5  6  1  0
  5  9  2  0
  1  2  1  0
  1  3  1  0
  1  4  1  0
  6  7  1  0
  6  8  1  0
 10 14  1  0
 14 16  1  0
 16 17  2  0
 16 18  1  0
 10 11  1  0
 10 12  1  0
 10 13  1  0
 14 15  1  0
 18 19  1  0
 18 20  1  0
 18 21  1  0
M  END
>  <PDB_ID>  (39) 
pdb2cn2

>  <RESIDUE_NAME>  (39) 
GLN   SER

>  <FRAG_NAME>  (39) 
ACEM   NMA

>  <FRAG_ATOM_NUM>  (39) 
fragi: 9  fragj: 12

>  <atom.prop.CHAIN_ID>  (39) 
A A A A A A A A A Z Z Z Z Z Z Z Z Z Z Z Z

>  <atom.prop.IS_HEAVY_ATOM>  (39) 
1 0 0 0 1 1 0 0 1 1 0 0 0 1 0 1 1 1 0 0 0

>  <DIFUSE_FUNC_ATOM>  (39) 
n/a

>  <FINAL_SINGLE_POINT_ENERGY>  (39) 
0

>  <NONCOV_INTER_ENERGY_QM>  (39) 
0

>  <FF_Energy>  (39) 
9.83

>  <QM_Energy>  (39) 
22.57

>  <source>  (39) 
ACEM_nNMA_02

>  <Index>  (39) 
25226

$$$$
ACEM-pdb1c5d-H-ASN-198:NMA-pdb1c5d-H-ASN-159
     RDKit          3D

 21 19  0  0  0  0  0  0  0  0999 V2000
   -5.6106   -0.8611   -1.2773 C   0  0  0  0  0  0  0  0  0  0  0  0
   -5.7928   -1.4293   -0.4860 H   0  0  0  0  0  0  0  0  0  0  0  0
   -5.6021   -1.4029   -2.1081 H   0  0  0  0  0  0  0  0  0  0  0  0
   -6.3944   -0.1079   -1.3573 H   0  0  0  0  0  0  0  0  0  0  0  0
   -4.2146   -0.2317   -1.1019 C   0  0  0  0  0  0  0  0  0  0  0  0
   -3.5312   -0.5939   -0.0325 N   0  0  0  0  0  0  0  0  0  0  0  0
   -3.9270   -1.2543    0.6134 H   0  0  0  0  0  0  0  0  0  0  0  0
   -2.6217   -0.2168    0.1414 H   0  0  0  0  0  0  0  0  0  0  0  0
   -3.7708    0.5607   -1.9233 O   0  0  0  0  0  0  0  0  0  0  0  0
   -1.1589   -2.1861    0.0092 C   0  0  0  0  0  0  0  0  0  0  0  0
   -2.1258   -2.4724   -0.0221 H   0  0  0  0  0  0  0  0  0  0  0  0
   -0.7158   -2.5914    0.9189 H   0  0  0  0  0  0  0  0  0  0  0  0
   -0.6504   -2.5927   -0.8650 H   0  0  0  0  0  0  0  0  0  0  0  0
   -1.1236   -0.7221   -0.0000 N   0  0  0  0  0  0  0  0  0  0  0  0
   -2.0004   -0.1371   -0.0074 H   0  0  0  0  0  0  0  0  0  0  0  0
    0.0000    0.0000    0.0000 C   0  0  0  0  0  0  0  0  0  0  0  0
    1.1236   -0.4952   -0.0000 O   0  0  0  0  0  0  0  0  0  0  0  0
   -0.1876    1.5237   -0.0040 C   0  0  0  0  0  0  0  0  0  0  0  0
   -0.2908    1.8006   -0.9621 H   0  0  0  0  0  0  0  0  0  0  0  0
   -1.1082    1.7950    0.5126 H   0  0  0  0  0  0  0  0  0  0  0  0
    0.6682    2.0088    0.4653 H   0  0  0  0  0  0  0  0  0  0  0  0
  1  5  1  0
  5  6  1  0
  5  9  2  0
  1  2  1  0
  1  3  1  0
  1  4  1  0
  6  7  1  0
  6  8  1  0
 10 14  1  0
 14 16  1  0
 16 17  2  0
 16 18  1  0
 10 11  1  0
 10 12  1  0
 10 13  1  0
 14 15  1  0
 18 19  1  0
 18 20  1  0
 18 21  1  0
M  END
>  <PDB_ID>  (40) 
pdb1c5d

>  <RESIDUE_NAME>  (40) 
ASN   ASN

>  <FRAG_NAME>  (40) 
ACEM   NMA

>  <FRAG_ATOM_NUM>  (40) 
fragi: 9  fragj: 12

>  <atom.prop.CHAIN_ID>  (40) 
A A A A A A A A A Z Z Z Z Z Z Z Z Z Z Z Z

>  <atom.prop.IS_HEAVY_ATOM>  (40) 
1 0 0 0 1 1 0 0 1 1 0 0 0 1 0 1 1 1 0 0 0

>  <DIFUSE_FUNC_ATOM>  (40) 
n/a

>  <FINAL_SINGLE_POINT_ENERGY>  (40) 
0

>  <NONCOV_INTER_ENERGY_QM>  (40) 
0

>  <FF_Energy>  (40) 
52.09

>  <QM_Energy>  (40) 
102.42

>  <source>  (40) 
ACEM_nNMA_02

>  <Index>  (40) 
26175

$$$$
ACEM-pdb1ceq-A-GLN-278:NMA-pdb1ceq-A-LEU-275
     RDKit          3D

 21 19  0  0  0  0  0  0  0  0999 V2000
   -5.4960    1.4394   -1.7077 C   0  0  0  0  0  0  0  0  0  0  0  0
   -6.0660    2.1747   -1.3249 H   0  0  0  0  0  0  0  0  0  0  0  0
   -6.1019    0.7103   -2.0462 H   0  0  0  0  0  0  0  0  0  0  0  0
   -4.9323    1.8404   -2.5500 H   0  0  0  0  0  0  0  0  0  0  0  0
   -4.6332    0.8746   -0.6010 C   0  0  0  0  0  0  0  0  0  0  0  0
   -3.3526    0.7046   -0.8947 N   0  0  0  0  0  0  0  0  0  0  0  0
   -2.6998    0.3398   -0.1959 H   0  0  0  0  0  0  0  0  0  0  0  0
   -3.0218    0.9405   -1.8279 H   0  0  0  0  0  0  0  0  0  0  0  0
   -5.0831    0.5806    0.5029 O   0  0  0  0  0  0  0  0  0  0  0  0
   -1.1678   -2.1533   -0.1206 C   0  0  0  0  0  0  0  0  0  0  0  0
   -0.2477   -2.5284   -0.2405 H   0  0  0  0  0  0  0  0  0  0  0  0
   -1.7784   -2.4160   -0.9846 H   0  0  0  0  0  0  0  0  0  0  0  0
   -1.5860   -2.6099    0.7764 H   0  0  0  0  0  0  0  0  0  0  0  0
   -1.1076   -0.7096    0.0000 N   0  0  0  0  0  0  0  0  0  0  0  0
   -1.9876   -0.1178    0.0995 H   0  0  0  0  0  0  0  0  0  0  0  0
    0.0000    0.0000    0.0000 C   0  0  0  0  0  0  0  0  0  0  0  0
    1.1076   -0.5159    0.0000 O   0  0  0  0  0  0  0  0  0  0  0  0
   -0.2087    1.5142    0.1274 C   0  0  0  0  0  0  0  0  0  0  0  0
   -1.1551    1.6795    0.3848 H   0  0  0  0  0  0  0  0  0  0  0  0
    0.4424    1.8823    0.9204 H   0  0  0  0  0  0  0  0  0  0  0  0
   -0.0284    2.0264   -0.8177 H   0  0  0  0  0  0  0  0  0  0  0  0
  1  5  1  0
  5  6  1  0
  5  9  2  0
  1  2  1  0
  1  3  1  0
  1  4  1  0
  6  7  1  0
  6  8  1  0
 10 14  1  0
 14 16  1  0
 16 17  2  0
 16 18  1  0
 10 11  1  0
 10 12  1  0
 10 13  1  0
 14 15  1  0
 18 19  1  0
 18 20  1  0
 18 21  1  0
M  END
>  <PDB_ID>  (41) 
pdb1ceq

>  <RESIDUE_NAME>  (41) 
GLN   LEU

>  <FRAG_NAME>  (41) 
ACEM   NMA

>  <FRAG_ATOM_NUM>  (41) 
fragi: 9  fragj: 12

>  <atom.prop.CHAIN_ID>  (41) 
A A A A A A A A A Z Z Z Z Z Z Z Z Z Z Z Z

>  <atom.prop.IS_HEAVY_ATOM>  (41) 
1 0 0 0 1 1 0 0 1 1 0 0 0 1 0 1 1 1 0 0 0

>  <DIFUSE_FUNC_ATOM>  (41) 
n/a

>  <FINAL_SINGLE_POINT_ENERGY>  (41) 
0

>  <NONCOV_INTER_ENERGY_QM>  (41) 
0

>  <FF_Energy>  (41) 
14.35

>  <QM_Energy>  (41) 
35.81

>  <source>  (41) 
ACEM_nNMA_03

>  <Index>  (41) 
2234

$$$$
ACEM-pdb1cer-A-ASN-313:NMA-pdb1cer-A-THR-236
     RDKit          3D

 21 19  0  0  0  0  0  0  0  0999 V2000
   -5.9670    0.5461    0.0832 C   0  0  0  0  0  0  0  0  0  0  0  0
   -6.5656    1.3307    0.2456 H   0  0  0  0  0  0  0  0  0  0  0  0
   -6.2991   -0.2412    0.6034 H   0  0  0  0  0  0  0  0  0  0  0  0
   -5.9960    0.2990   -0.9780 H   0  0  0  0  0  0  0  0  0  0  0  0
   -4.5830    0.8913    0.5645 C   0  0  0  0  0  0  0  0  0  0  0  0
   -3.6953   -0.0755    0.5608 N   0  0  0  0  0  0  0  0  0  0  0  0
   -3.9490   -0.9946    0.2412 H   0  0  0  0  0  0  0  0  0  0  0  0
   -2.7580    0.0917    0.8753 H   0  0  0  0  0  0  0  0  0  0  0  0
   -4.3132    2.0143    0.9153 O   0  0  0  0  0  0  0  0  0  0  0  0
   -1.0717   -2.1370   -0.0238 C   0  0  0  0  0  0  0  0  0  0  0  0
   -1.6368   -2.4842   -0.7759 H   0  0  0  0  0  0  0  0  0  0  0  0
   -0.1253   -2.4364   -0.1631 H   0  0  0  0  0  0  0  0  0  0  0  0
   -1.4442   -2.5226    0.9252 H   0  0  0  0  0  0  0  0  0  0  0  0
   -1.1269   -0.6920    0.0000 N   0  0  0  0  0  0  0  0  0  0  0  0
   -1.9917   -0.1410    0.0171 H   0  0  0  0  0  0  0  0  0  0  0  0
    0.0000    0.0000    0.0000 C   0  0  0  0  0  0  0  0  0  0  0  0
    1.1269   -0.5286   -0.0000 O   0  0  0  0  0  0  0  0  0  0  0  0
   -0.1014    1.5113    0.0355 C   0  0  0  0  0  0  0  0  0  0  0  0
   -0.8344    1.7694    0.6322 H   0  0  0  0  0  0  0  0  0  0  0  0
    0.8383    1.8276    0.4883 H   0  0  0  0  0  0  0  0  0  0  0  0
   -0.2308    1.8687   -0.9861 H   0  0  0  0  0  0  0  0  0  0  0  0
  1  5  1  0
  5  6  1  0
  5  9  2  0
  1  2  1  0
  1  3  1  0
  1  4  1  0
  6  7  1  0
  6  8  1  0
 10 14  1  0
 14 16  1  0
 16 17  2  0
 16 18  1  0
 10 11  1  0
 10 12  1  0
 10 13  1  0
 14 15  1  0
 18 19  1  0
 18 20  1  0
 18 21  1  0
M  END
>  <PDB_ID>  (42) 
pdb1cer

>  <RESIDUE_NAME>  (42) 
ASN   THR

>  <FRAG_NAME>  (42) 
ACEM   NMA

>  <FRAG_ATOM_NUM>  (42) 
fragi: 9  fragj: 12

>  <atom.prop.CHAIN_ID>  (42) 
A A A A A A A A A Z Z Z Z Z Z Z Z Z Z Z Z

>  <atom.prop.IS_HEAVY_ATOM>  (42) 
1 0 0 0 1 1 0 0 1 1 0 0 0 1 0 1 1 1 0 0 0

>  <DIFUSE_FUNC_ATOM>  (42) 
n/a

>  <FINAL_SINGLE_POINT_ENERGY>  (42) 
0

>  <NONCOV_INTER_ENERGY_QM>  (42) 
0

>  <FF_Energy>  (42) 
6.5

>  <QM_Energy>  (42) 
17.15

>  <source>  (42) 
ACEM_nNMA_03

>  <Index>  (42) 
3142

$$$$
ACEM-pdb1cer-B-ASN-313:NMA-pdb1cer-B-THR-236
     RDKit          3D

 21 19  0  0  0  0  0  0  0  0999 V2000
   -5.9598    0.0187   -0.3276 C   0  0  0  0  0  0  0  0  0  0  0  0
   -6.6246    0.7383   -0.1220 H   0  0  0  0  0  0  0  0  0  0  0  0
   -6.2704   -0.8436    0.0756 H   0  0  0  0  0  0  0  0  0  0  0  0
   -5.9036   -0.1040   -1.4093 H   0  0  0  0  0  0  0  0  0  0  0  0
   -4.6439    0.3908    0.2874 C   0  0  0  0  0  0  0  0  0  0  0  0
   -3.7489   -0.5965    0.4114 N   0  0  0  0  0  0  0  0  0  0  0  0
   -3.9767   -1.5147    0.0940 H   0  0  0  0  0  0  0  0  0  0  0  0
   -2.8572   -0.4107    0.8178 H   0  0  0  0  0  0  0  0  0  0  0  0
   -4.3983    1.5635    0.5824 O   0  0  0  0  0  0  0  0  0  0  0  0
   -1.0893   -2.1214   -0.1719 C   0  0  0  0  0  0  0  0  0  0  0  0
   -1.6714   -2.3869   -0.9311 H   0  0  0  0  0  0  0  0  0  0  0  0
   -0.1563   -2.4246   -0.3243 H   0  0  0  0  0  0  0  0  0  0  0  0
   -1.4724   -2.5426    0.7575 H   0  0  0  0  0  0  0  0  0  0  0  0
   -1.1224   -0.6979    0.0000 N   0  0  0  0  0  0  0  0  0  0  0  0
   -1.9860   -0.1432    0.1300 H   0  0  0  0  0  0  0  0  0  0  0  0
    0.0000    0.0000    0.0000 C   0  0  0  0  0  0  0  0  0  0  0  0
    1.1224   -0.5351    0.0000 O   0  0  0  0  0  0  0  0  0  0  0  0
   -0.1497    1.5169    0.2022 C   0  0  0  0  0  0  0  0  0  0  0  0
   -1.0114    1.6825    0.6602 H   0  0  0  0  0  0  0  0  0  0  0  0
    0.6676    1.8252    0.8543 H   0  0  0  0  0  0  0  0  0  0  0  0
   -0.1301    2.0712   -0.7362 H   0  0  0  0  0  0  0  0  0  0  0  0
  1  5  1  0
  5  6  1  0
  5  9  2  0
  1  2  1  0
  1  3  1  0
  1  4  1  0
  6  7  1  0
  6  8  1  0
 10 14  1  0
 14 16  1  0
 16 17  2  0
 16 18  1  0
 10 11  1  0
 10 12  1  0
 10 13  1  0
 14 15  1  0
 18 19  1  0
 18 20  1  0
 18 21  1  0
M  END
>  <PDB_ID>  (43) 
pdb1cer

>  <RESIDUE_NAME>  (43) 
ASN   THR

>  <FRAG_NAME>  (43) 
ACEM   NMA

>  <FRAG_ATOM_NUM>  (43) 
fragi: 9  fragj: 12

>  <atom.prop.CHAIN_ID>  (43) 
A A A A A A A A A Z Z Z Z Z Z Z Z Z Z Z Z

>  <atom.prop.IS_HEAVY_ATOM>  (43) 
1 0 0 0 1 1 0 0 1 1 0 0 0 1 0 1 1 1 0 0 0

>  <DIFUSE_FUNC_ATOM>  (43) 
n/a

>  <FINAL_SINGLE_POINT_ENERGY>  (43) 
0

>  <NONCOV_INTER_ENERGY_QM>  (43) 
0

>  <FF_Energy>  (43) 
7.67

>  <QM_Energy>  (43) 
19.15

>  <source>  (43) 
ACEM_nNMA_03

>  <Index>  (43) 
5043

$$$$
ACEM-pdb1clk-A-ASN-246:NMA-pdb1clk-A-VAL-217
     RDKit          3D

 21 19  0  0  0  0  0  0  0  0999 V2000
   -6.0063    0.9469    1.2148 C   0  0  0  0  0  0  0  0  0  0  0  0
   -6.5696    0.2611    1.6671 H   0  0  0  0  0  0  0  0  0  0  0  0
   -6.5645    1.4918    0.5938 H   0  0  0  0  0  0  0  0  0  0  0  0
   -5.6022    1.6110    1.9789 H   0  0  0  0  0  0  0  0  0  0  0  0
   -4.9300    0.2377    0.4069 C   0  0  0  0  0  0  0  0  0  0  0  0
   -3.6849    0.3712    0.8466 N   0  0  0  0  0  0  0  0  0  0  0  0
   -3.4974    0.9084    1.6703 H   0  0  0  0  0  0  0  0  0  0  0  0
   -2.9301   -0.0669    0.3565 H   0  0  0  0  0  0  0  0  0  0  0  0
   -5.2105   -0.4169   -0.5876 O   0  0  0  0  0  0  0  0  0  0  0  0
   -1.1233   -2.1554    0.0561 C   0  0  0  0  0  0  0  0  0  0  0  0
   -0.7558   -2.4483    0.9845 H   0  0  0  0  0  0  0  0  0  0  0  0
   -2.1081   -2.4904    0.0725 H   0  0  0  0  0  0  0  0  0  0  0  0
   -0.5849   -2.7020   -0.7181 H   0  0  0  0  0  0  0  0  0  0  0  0
   -1.1298   -0.7023    0.0000 N   0  0  0  0  0  0  0  0  0  0  0  0
   -1.9968   -0.1321   -0.0424 H   0  0  0  0  0  0  0  0  0  0  0  0
    0.0000    0.0000    0.0000 C   0  0  0  0  0  0  0  0  0  0  0  0
    1.1298   -0.5144   -0.0000 O   0  0  0  0  0  0  0  0  0  0  0  0
   -0.1679    1.5174   -0.0175 C   0  0  0  0  0  0  0  0  0  0  0  0
    0.7592    1.9295    0.0261 H   0  0  0  0  0  0  0  0  0  0  0  0
   -0.6607    1.8806   -0.9193 H   0  0  0  0  0  0  0  0  0  0  0  0
   -0.7147    1.8112    0.8784 H   0  0  0  0  0  0  0  0  0  0  0  0
  1  5  1  0
  5  6  1  0
  5  9  2  0
  1  2  1  0
  1  3  1  0
  1  4  1  0
  6  7  1  0
  6  8  1  0
 10 14  1  0
 14 16  1  0
 16 17  2  0
 16 18  1  0
 10 11  1  0
 10 12  1  0
 10 13  1  0
 14 15  1  0
 18 19  1  0
 18 20  1  0
 18 21  1  0
M  END
>  <PDB_ID>  (44) 
pdb1clk

>  <RESIDUE_NAME>  (44) 
ASN   VAL

>  <FRAG_NAME>  (44) 
ACEM   NMA

>  <FRAG_ATOM_NUM>  (44) 
fragi: 9  fragj: 12

>  <atom.prop.CHAIN_ID>  (44) 
A A A A A A A A A Z Z Z Z Z Z Z Z Z Z Z Z

>  <atom.prop.IS_HEAVY_ATOM>  (44) 
1 0 0 0 1 1 0 0 1 1 0 0 0 1 0 1 1 1 0 0 0

>  <DIFUSE_FUNC_ATOM>  (44) 
n/a

>  <FINAL_SINGLE_POINT_ENERGY>  (44) 
0

>  <NONCOV_INTER_ENERGY_QM>  (44) 
0

>  <FF_Energy>  (44) 
8.66

>  <QM_Energy>  (44) 
23.11

>  <source>  (44) 
ACEM_nNMA_03

>  <Index>  (44) 
8419

$$$$
ACEM-pdb2d5k-A-GLN-94:NMA-pdb2d5k-A-TYR-90
     RDKit          3D

 21 19  0  0  0  0  0  0  0  0999 V2000
   -5.1534    0.2322    0.1940 C   0  0  0  0  0  0  0  0  0  0  0  0
   -6.0665    0.6437    0.2207 H   0  0  0  0  0  0  0  0  0  0  0  0
   -5.2420   -0.7650    0.1587 H   0  0  0  0  0  0  0  0  0  0  0  0
   -4.6548    0.5644   -0.7166 H   0  0  0  0  0  0  0  0  0  0  0  0
   -4.4102    0.6126    1.4545 C   0  0  0  0  0  0  0  0  0  0  0  0
   -3.0841    0.6944    1.3568 N   0  0  0  0  0  0  0  0  0  0  0  0
   -2.5183    0.9580    2.1595 H   0  0  0  0  0  0  0  0  0  0  0  0
   -2.6452    0.4862    0.4633 H   0  0  0  0  0  0  0  0  0  0  0  0
   -5.0174    0.8546    2.5032 O   0  0  0  0  0  0  0  0  0  0  0  0
   -1.1035   -2.1598   -0.0933 C   0  0  0  0  0  0  0  0  0  0  0  0
   -0.2059   -2.4747    0.0959 H   0  0  0  0  0  0  0  0  0  0  0  0
   -1.2870   -2.2942   -1.1593 H   0  0  0  0  0  0  0  0  0  0  0  0
   -1.9288   -2.5921    0.4725 H   0  0  0  0  0  0  0  0  0  0  0  0
   -1.1199   -0.7094   -0.0000 N   0  0  0  0  0  0  0  0  0  0  0  0
   -1.9924   -0.1485    0.0709 H   0  0  0  0  0  0  0  0  0  0  0  0
    0.0000    0.0000    0.0000 C   0  0  0  0  0  0  0  0  0  0  0  0
    1.1199   -0.5084    0.0000 O   0  0  0  0  0  0  0  0  0  0  0  0
   -0.1715    1.5070   -0.0055 C   0  0  0  0  0  0  0  0  0  0  0  0
   -1.0136    1.7311    0.4979 H   0  0  0  0  0  0  0  0  0  0  0  0
    0.6653    1.9914    0.4978 H   0  0  0  0  0  0  0  0  0  0  0  0
   -0.2344    1.7945   -1.0550 H   0  0  0  0  0  0  0  0  0  0  0  0
  1  5  1  0
  5  6  1  0
  5  9  2  0
  1  2  1  0
  1  3  1  0
  1  4  1  0
  6  7  1  0
  6  8  1  0
 10 14  1  0
 14 16  1  0
 16 17  2  0
 16 18  1  0
 10 11  1  0
 10 12  1  0
 10 13  1  0
 14 15  1  0
 18 19  1  0
 18 20  1  0
 18 21  1  0
M  END
>  <PDB_ID>  (45) 
pdb2d5k

>  <RESIDUE_NAME>  (45) 
GLN   TYR

>  <FRAG_NAME>  (45) 
ACEM   NMA

>  <FRAG_ATOM_NUM>  (45) 
fragi: 9  fragj: 12

>  <atom.prop.CHAIN_ID>  (45) 
A A A A A A A A A Z Z Z Z Z Z Z Z Z Z Z Z

>  <atom.prop.IS_HEAVY_ATOM>  (45) 
1 0 0 0 1 1 0 0 1 1 0 0 0 1 0 1 1 1 0 0 0

>  <DIFUSE_FUNC_ATOM>  (45) 
n/a

>  <FINAL_SINGLE_POINT_ENERGY>  (45) 
0

>  <NONCOV_INTER_ENERGY_QM>  (45) 
0

>  <FF_Energy>  (45) 
14.55

>  <QM_Energy>  (45) 
29.6

>  <source>  (45) 
ACEM_nNMA_03

>  <Index>  (45) 
8773

$$$$
ACEM-pdb2d5w-A-ASN-53:NMA-pdb2d5w-A-TYR-150
     RDKit          3D

 21 19  0  0  0  0  0  0  0  0999 V2000
   -5.6308   -0.6790    2.3294 C   0  0  0  0  0  0  0  0  0  0  0  0
   -6.1766    0.0433    2.7514 H   0  0  0  0  0  0  0  0  0  0  0  0
   -5.4027   -1.3707    3.0140 H   0  0  0  0  0  0  0  0  0  0  0  0
   -6.2335   -1.1531    1.5547 H   0  0  0  0  0  0  0  0  0  0  0  0
   -4.3509   -0.0756    1.8024 C   0  0  0  0  0  0  0  0  0  0  0  0
   -3.8301   -0.6499    0.7250 N   0  0  0  0  0  0  0  0  0  0  0  0
   -4.2873   -1.4340    0.3036 H   0  0  0  0  0  0  0  0  0  0  0  0
   -2.9796   -0.2993    0.3311 H   0  0  0  0  0  0  0  0  0  0  0  0
   -3.8473    0.9093    2.3367 O   0  0  0  0  0  0  0  0  0  0  0  0
   -1.0588   -2.1684    0.0033 C   0  0  0  0  0  0  0  0  0  0  0  0
   -0.3578   -2.4760    0.6654 H   0  0  0  0  0  0  0  0  0  0  0  0
   -1.9491   -2.5426    0.3077 H   0  0  0  0  0  0  0  0  0  0  0  0
   -0.8203   -2.5692   -0.9819 H   0  0  0  0  0  0  0  0  0  0  0  0
   -1.1182   -0.7180   -0.0000 N   0  0  0  0  0  0  0  0  0  0  0  0
   -1.9932   -0.1730   -0.0022 H   0  0  0  0  0  0  0  0  0  0  0  0
    0.0000    0.0000    0.0000 C   0  0  0  0  0  0  0  0  0  0  0  0
    1.1182   -0.5130    0.0000 O   0  0  0  0  0  0  0  0  0  0  0  0
   -0.1623    1.5211   -0.0202 C   0  0  0  0  0  0  0  0  0  0  0  0
   -1.1519    1.7301    0.0109 H   0  0  0  0  0  0  0  0  0  0  0  0
    0.3134    2.0029    0.8340 H   0  0  0  0  0  0  0  0  0  0  0  0
    0.2567    1.8924   -0.9554 H   0  0  0  0  0  0  0  0  0  0  0  0
  1  5  1  0
  5  6  1  0
  5  9  2  0
  1  2  1  0
  1  3  1  0
  1  4  1  0
  6  7  1  0
  6  8  1  0
 10 14  1  0
 14 16  1  0
 16 17  2  0
 16 18  1  0
 10 11  1  0
 10 12  1  0
 10 13  1  0
 14 15  1  0
 18 19  1  0
 18 20  1  0
 18 21  1  0
M  END
>  <PDB_ID>  (46) 
pdb2d5w

>  <RESIDUE_NAME>  (46) 
ASN   TYR

>  <FRAG_NAME>  (46) 
ACEM   NMA

>  <FRAG_ATOM_NUM>  (46) 
fragi: 9  fragj: 12

>  <atom.prop.CHAIN_ID>  (46) 
A A A A A A A A A Z Z Z Z Z Z Z Z Z Z Z Z

>  <atom.prop.IS_HEAVY_ATOM>  (46) 
1 0 0 0 1 1 0 0 1 1 0 0 0 1 0 1 1 1 0 0 0

>  <DIFUSE_FUNC_ATOM>  (46) 
n/a

>  <FINAL_SINGLE_POINT_ENERGY>  (46) 
0

>  <NONCOV_INTER_ENERGY_QM>  (46) 
0

>  <FF_Energy>  (46) 
7.92

>  <QM_Energy>  (46) 
22.91

>  <source>  (46) 
ACEM_nNMA_03

>  <Index>  (46) 
10853

$$$$
ACEM-pdb1cqv-A-ASN-220:NMA-pdb1cqv-A-GLY-114
     RDKit          3D

 21 19  0  0  0  0  0  0  0  0999 V2000
   -5.8178    0.6506   -1.8791 C   0  0  0  0  0  0  0  0  0  0  0  0
   -6.2760    0.8842   -0.9965 H   0  0  0  0  0  0  0  0  0  0  0  0
   -6.5238    0.1810   -2.4496 H   0  0  0  0  0  0  0  0  0  0  0  0
   -5.5450    1.5815   -2.3762 H   0  0  0  0  0  0  0  0  0  0  0  0
   -4.7197   -0.3435   -1.5848 C   0  0  0  0  0  0  0  0  0  0  0  0
   -3.7320    0.0850   -0.8315 N   0  0  0  0  0  0  0  0  0  0  0  0
   -3.7298    1.0231   -0.4768 H   0  0  0  0  0  0  0  0  0  0  0  0
   -2.9666   -0.5247   -0.6027 H   0  0  0  0  0  0  0  0  0  0  0  0
   -4.7537   -1.5583   -1.9417 O   0  0  0  0  0  0  0  0  0  0  0  0
   -0.8529   -2.1375    0.1148 C   0  0  0  0  0  0  0  0  0  0  0  0
    0.1435   -2.2420    0.3264 H   0  0  0  0  0  0  0  0  0  0  0  0
   -1.0230   -2.7302   -0.7840 H   0  0  0  0  0  0  0  0  0  0  0  0
   -1.3255   -2.4786    1.0358 H   0  0  0  0  0  0  0  0  0  0  0  0
   -1.1105   -0.7311   -0.0000 N   0  0  0  0  0  0  0  0  0  0  0  0
   -1.9770   -0.2738   -0.0748 H   0  0  0  0  0  0  0  0  0  0  0  0
    0.0000    0.0000    0.0000 C   0  0  0  0  0  0  0  0  0  0  0  0
    1.1105   -0.5266    0.0000 O   0  0  0  0  0  0  0  0  0  0  0  0
   -0.1288    1.5399   -0.0286 C   0  0  0  0  0  0  0  0  0  0  0  0
    0.2836    1.8858   -0.8975 H   0  0  0  0  0  0  0  0  0  0  0  0
    0.4385    1.9290    0.7272 H   0  0  0  0  0  0  0  0  0  0  0  0
   -1.1441    1.9270    0.0580 H   0  0  0  0  0  0  0  0  0  0  0  0
  1  5  1  0
  5  6  1  0
  5  9  2  0
  1  2  1  0
  1  3  1  0
  1  4  1  0
  6  7  1  0
  6  8  1  0
 10 14  1  0
 14 16  1  0
 16 17  2  0
 16 18  1  0
 10 11  1  0
 10 12  1  0
 10 13  1  0
 14 15  1  0
 18 19  1  0
 18 20  1  0
 18 21  1  0
M  END
>  <PDB_ID>  (47) 
pdb1cqv

>  <RESIDUE_NAME>  (47) 
ASN   GLY

>  <FRAG_NAME>  (47) 
ACEM   NMA

>  <FRAG_ATOM_NUM>  (47) 
fragi: 9  fragj: 12

>  <atom.prop.CHAIN_ID>  (47) 
A A A A A A A A A Z Z Z Z Z Z Z Z Z Z Z Z

>  <atom.prop.IS_HEAVY_ATOM>  (47) 
1 0 0 0 1 1 0 0 1 1 0 0 0 1 0 1 1 1 0 0 0

>  <DIFUSE_FUNC_ATOM>  (47) 
n/a

>  <FINAL_SINGLE_POINT_ENERGY>  (47) 
0

>  <NONCOV_INTER_ENERGY_QM>  (47) 
0

>  <FF_Energy>  (47) 
7.66

>  <QM_Energy>  (47) 
17.97

>  <source>  (47) 
ACEM_nNMA_03

>  <Index>  (47) 
13350

$$$$
ACEM-pdb2d5w-B-ASN-53:NMA-pdb2d5w-B-TYR-150
     RDKit          3D

 21 19  0  0  0  0  0  0  0  0999 V2000
   -5.7065   -0.7567    2.1811 C   0  0  0  0  0  0  0  0  0  0  0  0
   -6.2553   -0.0590    2.6398 H   0  0  0  0  0  0  0  0  0  0  0  0
   -5.4846   -1.4869    2.8269 H   0  0  0  0  0  0  0  0  0  0  0  0
   -6.3050   -1.1856    1.3774 H   0  0  0  0  0  0  0  0  0  0  0  0
   -4.4217   -0.1258    1.6996 C   0  0  0  0  0  0  0  0  0  0  0  0
   -3.8408   -0.6999    0.6499 N   0  0  0  0  0  0  0  0  0  0  0  0
   -4.2615   -1.5000    0.2216 H   0  0  0  0  0  0  0  0  0  0  0  0
   -2.9853   -0.3315    0.2871 H   0  0  0  0  0  0  0  0  0  0  0  0
   -3.9644    0.8790    2.2407 O   0  0  0  0  0  0  0  0  0  0  0  0
   -1.0631   -2.1654    0.0048 C   0  0  0  0  0  0  0  0  0  0  0  0
   -0.3748   -2.4744    0.6836 H   0  0  0  0  0  0  0  0  0  0  0  0
   -1.9604   -2.5359    0.3015 H   0  0  0  0  0  0  0  0  0  0  0  0
   -0.8114   -2.5775   -0.9724 H   0  0  0  0  0  0  0  0  0  0  0  0
   -1.1190   -0.7154    0.0000 N   0  0  0  0  0  0  0  0  0  0  0  0
   -1.9926   -0.1691   -0.0033 H   0  0  0  0  0  0  0  0  0  0  0  0
    0.0000    0.0000    0.0000 C   0  0  0  0  0  0  0  0  0  0  0  0
    1.1190   -0.5120   -0.0000 O   0  0  0  0  0  0  0  0  0  0  0  0
   -0.1582    1.5180   -0.0095 C   0  0  0  0  0  0  0  0  0  0  0  0
   -1.1404    1.7300    0.0183 H   0  0  0  0  0  0  0  0  0  0  0  0
    0.3119    1.9586    0.8696 H   0  0  0  0  0  0  0  0  0  0  0  0
    0.2930    1.9045   -0.9234 H   0  0  0  0  0  0  0  0  0  0  0  0
  1  5  1  0
  5  6  1  0
  5  9  2  0
  1  2  1  0
  1  3  1  0
  1  4  1  0
  6  7  1  0
  6  8  1  0
 10 14  1  0
 14 16  1  0
 16 17  2  0
 16 18  1  0
 10 11  1  0
 10 12  1  0
 10 13  1  0
 14 15  1  0
 18 19  1  0
 18 20  1  0
 18 21  1  0
M  END
>  <PDB_ID>  (48) 
pdb2d5w

>  <RESIDUE_NAME>  (48) 
ASN   TYR

>  <FRAG_NAME>  (48) 
ACEM   NMA

>  <FRAG_ATOM_NUM>  (48) 
fragi: 9  fragj: 12

>  <atom.prop.CHAIN_ID>  (48) 
A A A A A A A A A Z Z Z Z Z Z Z Z Z Z Z Z

>  <atom.prop.IS_HEAVY_ATOM>  (48) 
1 0 0 0 1 1 0 0 1 1 0 0 0 1 0 1 1 1 0 0 0

>  <DIFUSE_FUNC_ATOM>  (48) 
n/a

>  <FINAL_SINGLE_POINT_ENERGY>  (48) 
0

>  <NONCOV_INTER_ENERGY_QM>  (48) 
0

>  <FF_Energy>  (48) 
8.2

>  <QM_Energy>  (48) 
23.15

>  <source>  (48) 
ACEM_nNMA_03

>  <Index>  (48) 
16402

$$$$
ACEM-pdb2ddb-B-GLN-109:NMA-pdb2ddb-B-ALA-139
     RDKit          3D

 21 19  0  0  0  0  0  0  0  0999 V2000
   -5.8916   -1.3421    1.4857 C   0  0  0  0  0  0  0  0  0  0  0  0
   -6.3535   -0.6716    0.9036 H   0  0  0  0  0  0  0  0  0  0  0  0
   -6.2062   -1.2351    2.4296 H   0  0  0  0  0  0  0  0  0  0  0  0
   -6.1715   -2.3388    1.1449 H   0  0  0  0  0  0  0  0  0  0  0  0
   -4.3827   -1.0673    1.4405 C   0  0  0  0  0  0  0  0  0  0  0  0
   -3.8979   -0.4723    0.3419 N   0  0  0  0  0  0  0  0  0  0  0  0
   -2.9249   -0.2549    0.2600 H   0  0  0  0  0  0  0  0  0  0  0  0
   -4.5512   -0.2480   -0.4100 H   0  0  0  0  0  0  0  0  0  0  0  0
   -3.6716   -1.3862    2.3810 O   0  0  0  0  0  0  0  0  0  0  0  0
   -1.1079   -2.1658   -0.0676 C   0  0  0  0  0  0  0  0  0  0  0  0
   -0.2547   -2.5060    0.3548 H   0  0  0  0  0  0  0  0  0  0  0  0
   -1.8819   -2.5293    0.4723 H   0  0  0  0  0  0  0  0  0  0  0  0
   -1.1771   -2.5246   -1.0945 H   0  0  0  0  0  0  0  0  0  0  0  0
   -1.1237   -0.7042   -0.0000 N   0  0  0  0  0  0  0  0  0  0  0  0
   -1.9942   -0.1450    0.0510 H   0  0  0  0  0  0  0  0  0  0  0  0
    0.0000    0.0000    0.0000 C   0  0  0  0  0  0  0  0  0  0  0  0
    1.1237   -0.5265    0.0000 O   0  0  0  0  0  0  0  0  0  0  0  0
   -0.1712    1.5243    0.0042 C   0  0  0  0  0  0  0  0  0  0  0  0
   -1.0915    1.7396    0.3791 H   0  0  0  0  0  0  0  0  0  0  0  0
    0.5773    2.0471    0.5996 H   0  0  0  0  0  0  0  0  0  0  0  0
   -0.1842    1.9086   -1.0157 H   0  0  0  0  0  0  0  0  0  0  0  0
  1  5  1  0
  5  6  1  0
  5  9  2  0
  1  2  1  0
  1  3  1  0
  1  4  1  0
  6  7  1  0
  6  8  1  0
 10 14  1  0
 14 16  1  0
 16 17  2  0
 16 18  1  0
 10 11  1  0
 10 12  1  0
 10 13  1  0
 14 15  1  0
 18 19  1  0
 18 20  1  0
 18 21  1  0
M  END
>  <PDB_ID>  (49) 
pdb2ddb

>  <RESIDUE_NAME>  (49) 
GLN   ALA

>  <FRAG_NAME>  (49) 
ACEM   NMA

>  <FRAG_ATOM_NUM>  (49) 
fragi: 9  fragj: 12

>  <atom.prop.CHAIN_ID>  (49) 
A A A A A A A A A Z Z Z Z Z Z Z Z Z Z Z Z

>  <atom.prop.IS_HEAVY_ATOM>  (49) 
1 0 0 0 1 1 0 0 1 1 0 0 0 1 0 1 1 1 0 0 0

>  <DIFUSE_FUNC_ATOM>  (49) 
n/a

>  <FINAL_SINGLE_POINT_ENERGY>  (49) 
0

>  <NONCOV_INTER_ENERGY_QM>  (49) 
0

>  <FF_Energy>  (49) 
13.15

>  <QM_Energy>  (49) 
28.93

>  <source>  (49) 
ACEM_nNMA_03

>  <Index>  (49) 
16826

$$$$
ACEM-pdb2dda-B-GLN-110:NMA-pdb2dda-B-ALA-140
     RDKit          3D

 21 19  0  0  0  0  0  0  0  0999 V2000
   -5.9345   -0.7282    1.6298 C   0  0  0  0  0  0  0  0  0  0  0  0
   -6.3152   -0.0370    1.0194 H   0  0  0  0  0  0  0  0  0  0  0  0
   -6.2461   -0.5630    2.5632 H   0  0  0  0  0  0  0  0  0  0  0  0
   -6.3106   -1.7017    1.3152 H   0  0  0  0  0  0  0  0  0  0  0  0
   -4.4150   -0.6337    1.5923 C   0  0  0  0  0  0  0  0  0  0  0  0
   -3.8714   -0.1872    0.4558 N   0  0  0  0  0  0  0  0  0  0  0  0
   -2.8705   -0.0866    0.3664 H   0  0  0  0  0  0  0  0  0  0  0  0
   -4.4899    0.0479   -0.3184 H   0  0  0  0  0  0  0  0  0  0  0  0
   -3.7415   -0.9419    2.5775 O   0  0  0  0  0  0  0  0  0  0  0  0
   -1.0979   -2.1534   -0.1515 C   0  0  0  0  0  0  0  0  0  0  0  0
   -0.1922   -2.5126    0.1345 H   0  0  0  0  0  0  0  0  0  0  0  0
   -1.7895   -2.5692    0.4644 H   0  0  0  0  0  0  0  0  0  0  0  0
   -1.2979   -2.4712   -1.1748 H   0  0  0  0  0  0  0  0  0  0  0  0
   -1.1175   -0.7130   -0.0000 N   0  0  0  0  0  0  0  0  0  0  0  0
   -1.9889   -0.1568    0.1161 H   0  0  0  0  0  0  0  0  0  0  0  0
    0.0000    0.0000    0.0000 C   0  0  0  0  0  0  0  0  0  0  0  0
    1.1175   -0.5108    0.0000 O   0  0  0  0  0  0  0  0  0  0  0  0
   -0.1657    1.5157   -0.0090 C   0  0  0  0  0  0  0  0  0  0  0  0
   -1.0672    1.7437    0.3997 H   0  0  0  0  0  0  0  0  0  0  0  0
    0.6094    2.0352    0.5545 H   0  0  0  0  0  0  0  0  0  0  0  0
   -0.1918    1.8771   -1.0370 H   0  0  0  0  0  0  0  0  0  0  0  0
  1  5  1  0
  5  6  1  0
  5  9  2  0
  1  2  1  0
  1  3  1  0
  1  4  1  0
  6  7  1  0
  6  8  1  0
 10 14  1  0
 14 16  1  0
 16 17  2  0
 16 18  1  0
 10 11  1  0
 10 12  1  0
 10 13  1  0
 14 15  1  0
 18 19  1  0
 18 20  1  0
 18 21  1  0
M  END
>  <PDB_ID>  (50) 
pdb2dda

>  <RESIDUE_NAME>  (50) 
GLN   ALA

>  <FRAG_NAME>  (50) 
ACEM   NMA

>  <FRAG_ATOM_NUM>  (50) 
fragi: 9  fragj: 12

>  <atom.prop.CHAIN_ID>  (50) 
A A A A A A A A A Z Z Z Z Z Z Z Z Z Z Z Z

>  <atom.prop.IS_HEAVY_ATOM>  (50) 
1 0 0 0 1 1 0 0 1 1 0 0 0 1 0 1 1 1 0 0 0

>  <DIFUSE_FUNC_ATOM>  (50) 
n/a

>  <FINAL_SINGLE_POINT_ENERGY>  (50) 
0

>  <NONCOV_INTER_ENERGY_QM>  (50) 
0

>  <FF_Energy>  (50) 
13.3

>  <QM_Energy>  (50) 
32.57

>  <source>  (50) 
ACEM_nNMA_03

>  <Index>  (50) 
16843

$$$$
ACEM-pdb2dda-C-GLN-110:NMA-pdb2dda-C-ALA-140
     RDKit          3D

 21 19  0  0  0  0  0  0  0  0999 V2000
   -5.9595   -0.9651    1.4822 C   0  0  0  0  0  0  0  0  0  0  0  0
   -6.3772   -0.3194    0.8386 H   0  0  0  0  0  0  0  0  0  0  0  0
   -6.3254   -0.7960    2.3995 H   0  0  0  0  0  0  0  0  0  0  0  0
   -6.2264   -1.9784    1.1821 H   0  0  0  0  0  0  0  0  0  0  0  0
   -4.4670   -0.7266    1.5047 C   0  0  0  0  0  0  0  0  0  0  0  0
   -3.9344   -0.1145    0.4431 N   0  0  0  0  0  0  0  0  0  0  0  0
   -2.9452    0.0883    0.3979 H   0  0  0  0  0  0  0  0  0  0  0  0
   -4.5509    0.1441   -0.3272 H   0  0  0  0  0  0  0  0  0  0  0  0
   -3.7993   -1.0824    2.4613 O   0  0  0  0  0  0  0  0  0  0  0  0
   -1.1058   -2.1377   -0.1438 C   0  0  0  0  0  0  0  0  0  0  0  0
   -0.2433   -2.5057    0.2323 H   0  0  0  0  0  0  0  0  0  0  0  0
   -1.8680   -2.5422    0.3820 H   0  0  0  0  0  0  0  0  0  0  0  0
   -1.1962   -2.4230   -1.1919 H   0  0  0  0  0  0  0  0  0  0  0  0
   -1.1252   -0.7054    0.0000 N   0  0  0  0  0  0  0  0  0  0  0  0
   -1.9908   -0.1421    0.1104 H   0  0  0  0  0  0  0  0  0  0  0  0
    0.0000    0.0000    0.0000 C   0  0  0  0  0  0  0  0  0  0  0  0
    1.1252   -0.5238   -0.0000 O   0  0  0  0  0  0  0  0  0  0  0  0
   -0.1780    1.5179   -0.0394 C   0  0  0  0  0  0  0  0  0  0  0  0
   -1.1072    1.7414    0.3209 H   0  0  0  0  0  0  0  0  0  0  0  0
    0.5575    2.0756    0.5403 H   0  0  0  0  0  0  0  0  0  0  0  0
   -0.1408    1.8422   -1.0794 H   0  0  0  0  0  0  0  0  0  0  0  0
  1  5  1  0
  5  6  1  0
  5  9  2  0
  1  2  1  0
  1  3  1  0
  1  4  1  0
  6  7  1  0
  6  8  1  0
 10 14  1  0
 14 16  1  0
 16 17  2  0
 16 18  1  0
 10 11  1  0
 10 12  1  0
 10 13  1  0
 14 15  1  0
 18 19  1  0
 18 20  1  0
 18 21  1  0
M  END
>  <PDB_ID>  (51) 
pdb2dda

>  <RESIDUE_NAME>  (51) 
GLN   ALA

>  <FRAG_NAME>  (51) 
ACEM   NMA

>  <FRAG_ATOM_NUM>  (51) 
fragi: 9  fragj: 12

>  <atom.prop.CHAIN_ID>  (51) 
A A A A A A A A A Z Z Z Z Z Z Z Z Z Z Z Z

>  <atom.prop.IS_HEAVY_ATOM>  (51) 
1 0 0 0 1 1 0 0 1 1 0 0 0 1 0 1 1 1 0 0 0

>  <DIFUSE_FUNC_ATOM>  (51) 
n/a

>  <FINAL_SINGLE_POINT_ENERGY>  (51) 
0

>  <NONCOV_INTER_ENERGY_QM>  (51) 
0

>  <FF_Energy>  (51) 
10.69

>  <QM_Energy>  (51) 
23.22

>  <source>  (51) 
ACEM_nNMA_03

>  <Index>  (51) 
18298

$$$$
ACEM-pdb2dda-C-ASN-27:NMA-pdb2dda-C-TYR-151
     RDKit          3D

 21 19  0  0  0  0  0  0  0  0999 V2000
   -6.1916   -0.2634    0.0802 C   0  0  0  0  0  0  0  0  0  0  0  0
   -6.7597    0.2589    0.7109 H   0  0  0  0  0  0  0  0  0  0  0  0
   -6.4298   -1.2297    0.1265 H   0  0  0  0  0  0  0  0  0  0  0  0
   -6.3886    0.0896   -0.9320 H   0  0  0  0  0  0  0  0  0  0  0  0
   -4.7372   -0.1025    0.4924 C   0  0  0  0  0  0  0  0  0  0  0  0
   -3.8631    0.0380   -0.4919 N   0  0  0  0  0  0  0  0  0  0  0  0
   -4.1722    0.0407   -1.4446 H   0  0  0  0  0  0  0  0  0  0  0  0
   -2.8879    0.1429   -0.2881 H   0  0  0  0  0  0  0  0  0  0  0  0
   -4.4056   -0.0888    1.6858 O   0  0  0  0  0  0  0  0  0  0  0  0
   -1.1156   -2.1576   -0.0458 C   0  0  0  0  0  0  0  0  0  0  0  0
   -0.3270   -2.5022    0.4646 H   0  0  0  0  0  0  0  0  0  0  0  0
   -1.0226   -2.4866   -1.0808 H   0  0  0  0  0  0  0  0  0  0  0  0
   -2.0161   -2.5500    0.4267 H   0  0  0  0  0  0  0  0  0  0  0  0
   -1.1253   -0.7066   -0.0000 N   0  0  0  0  0  0  0  0  0  0  0  0
   -1.9952   -0.1376    0.0349 H   0  0  0  0  0  0  0  0  0  0  0  0
    0.0000    0.0000    0.0000 C   0  0  0  0  0  0  0  0  0  0  0  0
    1.1253   -0.5081    0.0000 O   0  0  0  0  0  0  0  0  0  0  0  0
   -0.1497    1.5130    0.0414 C   0  0  0  0  0  0  0  0  0  0  0  0
   -0.8060    1.7428    0.7520 H   0  0  0  0  0  0  0  0  0  0  0  0
    0.8188    1.9309    0.3159 H   0  0  0  0  0  0  0  0  0  0  0  0
   -0.4851    1.9002   -0.9207 H   0  0  0  0  0  0  0  0  0  0  0  0
  1  5  1  0
  5  6  1  0
  5  9  2  0
  1  2  1  0
  1  3  1  0
  1  4  1  0
  6  7  1  0
  6  8  1  0
 10 14  1  0
 14 16  1  0
 16 17  2  0
 16 18  1  0
 10 11  1  0
 10 12  1  0
 10 13  1  0
 14 15  1  0
 18 19  1  0
 18 20  1  0
 18 21  1  0
M  END
>  <PDB_ID>  (52) 
pdb2dda

>  <RESIDUE_NAME>  (52) 
ASN   TYR

>  <FRAG_NAME>  (52) 
ACEM   NMA

>  <FRAG_ATOM_NUM>  (52) 
fragi: 9  fragj: 12

>  <atom.prop.CHAIN_ID>  (52) 
A A A A A A A A A Z Z Z Z Z Z Z Z Z Z Z Z

>  <atom.prop.IS_HEAVY_ATOM>  (52) 
1 0 0 0 1 1 0 0 1 1 0 0 0 1 0 1 1 1 0 0 0

>  <DIFUSE_FUNC_ATOM>  (52) 
n/a

>  <FINAL_SINGLE_POINT_ENERGY>  (52) 
0

>  <NONCOV_INTER_ENERGY_QM>  (52) 
0

>  <FF_Energy>  (52) 
8.86

>  <QM_Energy>  (52) 
25.27

>  <source>  (52) 
ACEM_nNMA_03

>  <Index>  (52) 
18388

$$$$
ACEM-pdb2ddb-D-GLN-109:NMA-pdb2ddb-D-ALA-139
     RDKit          3D

 21 19  0  0  0  0  0  0  0  0999 V2000
   -6.1353   -0.7255    0.9815 C   0  0  0  0  0  0  0  0  0  0  0  0
   -6.4225   -0.0232    0.3300 H   0  0  0  0  0  0  0  0  0  0  0  0
   -6.5246   -0.5250    1.8808 H   0  0  0  0  0  0  0  0  0  0  0  0
   -6.5250   -1.6860    0.6445 H   0  0  0  0  0  0  0  0  0  0  0  0
   -4.6045   -0.6849    1.0946 C   0  0  0  0  0  0  0  0  0  0  0  0
   -3.9441   -0.1661    0.0677 N   0  0  0  0  0  0  0  0  0  0  0  0
   -2.9353   -0.0960    0.0817 H   0  0  0  0  0  0  0  0  0  0  0  0
   -4.4731    0.1620   -0.7404 H   0  0  0  0  0  0  0  0  0  0  0  0
   -4.0376   -1.1104    2.0968 O   0  0  0  0  0  0  0  0  0  0  0  0
   -1.1136   -2.1649   -0.1207 C   0  0  0  0  0  0  0  0  0  0  0  0
   -0.2411   -2.5245    0.2527 H   0  0  0  0  0  0  0  0  0  0  0  0
   -1.8617   -2.5519    0.4444 H   0  0  0  0  0  0  0  0  0  0  0  0
   -1.2298   -2.5006   -1.1512 H   0  0  0  0  0  0  0  0  0  0  0  0
   -1.1236   -0.7118    0.0000 N   0  0  0  0  0  0  0  0  0  0  0  0
   -1.9937   -0.1513    0.0920 H   0  0  0  0  0  0  0  0  0  0  0  0
    0.0000    0.0000    0.0000 C   0  0  0  0  0  0  0  0  0  0  0  0
    1.1236   -0.5087    0.0000 O   0  0  0  0  0  0  0  0  0  0  0  0
   -0.1677    1.5147   -0.0047 C   0  0  0  0  0  0  0  0  0  0  0  0
   -1.1059    1.7351    0.3157 H   0  0  0  0  0  0  0  0  0  0  0  0
    0.5487    2.0228    0.6409 H   0  0  0  0  0  0  0  0  0  0  0  0
   -0.0854    1.9011   -1.0207 H   0  0  0  0  0  0  0  0  0  0  0  0
  1  5  1  0
  5  6  1  0
  5  9  2  0
  1  2  1  0
  1  3  1  0
  1  4  1  0
  6  7  1  0
  6  8  1  0
 10 14  1  0
 14 16  1  0
 16 17  2  0
 16 18  1  0
 10 11  1  0
 10 12  1  0
 10 13  1  0
 14 15  1  0
 18 19  1  0
 18 20  1  0
 18 21  1  0
M  END
>  <PDB_ID>  (53) 
pdb2ddb

>  <RESIDUE_NAME>  (53) 
GLN   ALA

>  <FRAG_NAME>  (53) 
ACEM   NMA

>  <FRAG_ATOM_NUM>  (53) 
fragi: 9  fragj: 12

>  <atom.prop.CHAIN_ID>  (53) 
A A A A A A A A A Z Z Z Z Z Z Z Z Z Z Z Z

>  <atom.prop.IS_HEAVY_ATOM>  (53) 
1 0 0 0 1 1 0 0 1 1 0 0 0 1 0 1 1 1 0 0 0

>  <DIFUSE_FUNC_ATOM>  (53) 
n/a

>  <FINAL_SINGLE_POINT_ENERGY>  (53) 
0

>  <NONCOV_INTER_ENERGY_QM>  (53) 
0

>  <FF_Energy>  (53) 
12.08

>  <QM_Energy>  (53) 
29.21

>  <source>  (53) 
ACEM_nNMA_03

>  <Index>  (53) 
20019

$$$$
ACEM-pdb1d0b-A-GLN-95:NMA-pdb1d0b-A-GLN-92
     RDKit          3D

 21 19  0  0  0  0  0  0  0  0999 V2000
   -5.8150    0.0534    1.6281 C   0  0  0  0  0  0  0  0  0  0  0  0
   -6.6376    0.4947    1.2710 H   0  0  0  0  0  0  0  0  0  0  0  0
   -5.6327    0.3834    2.5542 H   0  0  0  0  0  0  0  0  0  0  0  0
   -5.9853   -1.0224    1.6678 H   0  0  0  0  0  0  0  0  0  0  0  0
   -4.6433    0.4254    0.7409 C   0  0  0  0  0  0  0  0  0  0  0  0
   -3.5825   -0.3812    0.7862 N   0  0  0  0  0  0  0  0  0  0  0  0
   -2.7679   -0.2017    0.2094 H   0  0  0  0  0  0  0  0  0  0  0  0
   -3.6057   -1.1829    1.4137 H   0  0  0  0  0  0  0  0  0  0  0  0
   -4.6915    1.4164    0.0136 O   0  0  0  0  0  0  0  0  0  0  0  0
   -1.0796   -2.1637    0.0112 C   0  0  0  0  0  0  0  0  0  0  0  0
   -1.6962   -2.5254   -0.6941 H   0  0  0  0  0  0  0  0  0  0  0  0
   -0.1459   -2.4765   -0.1863 H   0  0  0  0  0  0  0  0  0  0  0  0
   -1.3879   -2.5383    0.9873 H   0  0  0  0  0  0  0  0  0  0  0  0
   -1.1218   -0.7124    0.0000 N   0  0  0  0  0  0  0  0  0  0  0  0
   -1.9941   -0.1589   -0.0082 H   0  0  0  0  0  0  0  0  0  0  0  0
    0.0000    0.0000    0.0000 C   0  0  0  0  0  0  0  0  0  0  0  0
    1.1218   -0.5127   -0.0000 O   0  0  0  0  0  0  0  0  0  0  0  0
   -0.1597    1.5192    0.0096 C   0  0  0  0  0  0  0  0  0  0  0  0
   -1.0671    1.7266    0.3485 H   0  0  0  0  0  0  0  0  0  0  0  0
    0.5686    1.9088    0.7208 H   0  0  0  0  0  0  0  0  0  0  0  0
    0.0274    1.9248   -0.9847 H   0  0  0  0  0  0  0  0  0  0  0  0
  1  5  1  0
  5  6  1  0
  5  9  2  0
  1  2  1  0
  1  3  1  0
  1  4  1  0
  6  7  1  0
  6  8  1  0
 10 14  1  0
 14 16  1  0
 16 17  2  0
 16 18  1  0
 10 11  1  0
 10 12  1  0
 10 13  1  0
 14 15  1  0
 18 19  1  0
 18 20  1  0
 18 21  1  0
M  END
>  <PDB_ID>  (54) 
pdb1d0b

>  <RESIDUE_NAME>  (54) 
GLN   GLN

>  <FRAG_NAME>  (54) 
ACEM   NMA

>  <FRAG_ATOM_NUM>  (54) 
fragi: 9  fragj: 12

>  <atom.prop.CHAIN_ID>  (54) 
A A A A A A A A A Z Z Z Z Z Z Z Z Z Z Z Z

>  <atom.prop.IS_HEAVY_ATOM>  (54) 
1 0 0 0 1 1 0 0 1 1 0 0 0 1 0 1 1 1 0 0 0

>  <DIFUSE_FUNC_ATOM>  (54) 
n/a

>  <FINAL_SINGLE_POINT_ENERGY>  (54) 
0

>  <NONCOV_INTER_ENERGY_QM>  (54) 
0

>  <FF_Energy>  (54) 
20.83

>  <QM_Energy>  (54) 
52.85

>  <source>  (54) 
ACEM_nNMA_03

>  <Index>  (54) 
21465

$$$$
ACEM-pdb1d02-B-GLN-25:NMA-pdb1d02-B-SER-185
     RDKit          3D

 21 19  0  0  0  0  0  0  0  0999 V2000
   -5.4262    0.0839    2.4552 C   0  0  0  0  0  0  0  0  0  0  0  0
   -6.2274   -0.5029    2.3916 H   0  0  0  0  0  0  0  0  0  0  0  0
   -5.7017    1.0321    2.5801 H   0  0  0  0  0  0  0  0  0  0  0  0
   -4.8243   -0.2269    3.3092 H   0  0  0  0  0  0  0  0  0  0  0  0
   -4.6455   -0.0249    1.1539 C   0  0  0  0  0  0  0  0  0  0  0  0
   -3.3324    0.1398    1.2272 N   0  0  0  0  0  0  0  0  0  0  0  0
   -2.7483    0.0667    0.4023 H   0  0  0  0  0  0  0  0  0  0  0  0
   -2.9128    0.3439    2.1352 H   0  0  0  0  0  0  0  0  0  0  0  0
   -5.2182   -0.2640    0.1027 O   0  0  0  0  0  0  0  0  0  0  0  0
   -1.1173   -2.1580    0.0099 C   0  0  0  0  0  0  0  0  0  0  0  0
   -0.6050   -2.4858    0.8294 H   0  0  0  0  0  0  0  0  0  0  0  0
   -2.0730   -2.4991    0.1166 H   0  0  0  0  0  0  0  0  0  0  0  0
   -0.6795   -2.6041   -0.8830 H   0  0  0  0  0  0  0  0  0  0  0  0
   -1.1262   -0.7047   -0.0000 N   0  0  0  0  0  0  0  0  0  0  0  0
   -1.9961   -0.1348   -0.0073 H   0  0  0  0  0  0  0  0  0  0  0  0
    0.0000    0.0000    0.0000 C   0  0  0  0  0  0  0  0  0  0  0  0
    1.1262   -0.5003   -0.0000 O   0  0  0  0  0  0  0  0  0  0  0  0
   -0.1774    1.5094   -0.0053 C   0  0  0  0  0  0  0  0  0  0  0  0
   -0.7722    1.7556    0.7698 H   0  0  0  0  0  0  0  0  0  0  0  0
    0.7779    2.0170    0.1281 H   0  0  0  0  0  0  0  0  0  0  0  0
   -0.6570    1.8213   -0.9331 H   0  0  0  0  0  0  0  0  0  0  0  0
  1  5  1  0
  5  6  1  0
  5  9  2  0
  1  2  1  0
  1  3  1  0
  1  4  1  0
  6  7  1  0
  6  8  1  0
 10 14  1  0
 14 16  1  0
 16 17  2  0
 16 18  1  0
 10 11  1  0
 10 12  1  0
 10 13  1  0
 14 15  1  0
 18 19  1  0
 18 20  1  0
 18 21  1  0
M  END
>  <PDB_ID>  (55) 
pdb1d02

>  <RESIDUE_NAME>  (55) 
GLN   SER

>  <FRAG_NAME>  (55) 
ACEM   NMA

>  <FRAG_ATOM_NUM>  (55) 
fragi: 9  fragj: 12

>  <atom.prop.CHAIN_ID>  (55) 
A A A A A A A A A Z Z Z Z Z Z Z Z Z Z Z Z

>  <atom.prop.IS_HEAVY_ATOM>  (55) 
1 0 0 0 1 1 0 0 1 1 0 0 0 1 0 1 1 1 0 0 0

>  <DIFUSE_FUNC_ATOM>  (55) 
n/a

>  <FINAL_SINGLE_POINT_ENERGY>  (55) 
0

>  <NONCOV_INTER_ENERGY_QM>  (55) 
0

>  <FF_Energy>  (55) 
18.21

>  <QM_Energy>  (55) 
40.74

>  <source>  (55) 
ACEM_nNMA_03

>  <Index>  (55) 
24079

$$$$
ACEM-pdb1cyg-A-GLN-595:NMA-pdb1cyg-A-THR-591
     RDKit          3D

 21 19  0  0  0  0  0  0  0  0999 V2000
   -5.3418    0.3169   -0.3767 C   0  0  0  0  0  0  0  0  0  0  0  0
   -5.4195    1.2932   -0.6357 H   0  0  0  0  0  0  0  0  0  0  0  0
   -6.2698   -0.0858   -0.4324 H   0  0  0  0  0  0  0  0  0  0  0  0
   -4.7103   -0.1806   -1.1129 H   0  0  0  0  0  0  0  0  0  0  0  0
   -4.8664    0.2344    1.0500 C   0  0  0  0  0  0  0  0  0  0  0  0
   -3.5457    0.0989    1.2185 N   0  0  0  0  0  0  0  0  0  0  0  0
   -3.1458    0.0504    2.1547 H   0  0  0  0  0  0  0  0  0  0  0  0
   -2.9509    0.0450    0.3978 H   0  0  0  0  0  0  0  0  0  0  0  0
   -5.6029    0.2408    2.0330 O   0  0  0  0  0  0  0  0  0  0  0  0
   -1.2034   -2.1664    0.0036 C   0  0  0  0  0  0  0  0  0  0  0  0
   -0.3070   -2.5204    0.2721 H   0  0  0  0  0  0  0  0  0  0  0  0
   -1.3890   -2.5325   -1.0061 H   0  0  0  0  0  0  0  0  0  0  0  0
   -2.0438   -2.4305    0.6455 H   0  0  0  0  0  0  0  0  0  0  0  0
   -1.1217   -0.7102   -0.0000 N   0  0  0  0  0  0  0  0  0  0  0  0
   -1.9981   -0.1018   -0.0031 H   0  0  0  0  0  0  0  0  0  0  0  0
    0.0000    0.0000    0.0000 C   0  0  0  0  0  0  0  0  0  0  0  0
    1.1217   -0.5083   -0.0000 O   0  0  0  0  0  0  0  0  0  0  0  0
   -0.2837    1.4832   -0.0739 C   0  0  0  0  0  0  0  0  0  0  0  0
   -0.9920    1.7112    0.6368 H   0  0  0  0  0  0  0  0  0  0  0  0
    0.5701    2.1422    0.0838 H   0  0  0  0  0  0  0  0  0  0  0  0
   -0.7022    1.7176   -1.0526 H   0  0  0  0  0  0  0  0  0  0  0  0
  1  5  1  0
  5  6  1  0
  5  9  2  0
  1  2  1  0
  1  3  1  0
  1  4  1  0
  6  7  1  0
  6  8  1  0
 10 14  1  0
 14 16  1  0
 16 17  2  0
 16 18  1  0
 10 11  1  0
 10 12  1  0
 10 13  1  0
 14 15  1  0
 18 19  1  0
 18 20  1  0
 18 21  1  0
M  END
>  <PDB_ID>  (56) 
pdb1cyg

>  <RESIDUE_NAME>  (56) 
GLN   THR

>  <FRAG_NAME>  (56) 
ACEM   NMA

>  <FRAG_ATOM_NUM>  (56) 
fragi: 9  fragj: 12

>  <atom.prop.CHAIN_ID>  (56) 
A A A A A A A A A Z Z Z Z Z Z Z Z Z Z Z Z

>  <atom.prop.IS_HEAVY_ATOM>  (56) 
1 0 0 0 1 1 0 0 1 1 0 0 0 1 0 1 1 1 0 0 0

>  <DIFUSE_FUNC_ATOM>  (56) 
n/a

>  <FINAL_SINGLE_POINT_ENERGY>  (56) 
0

>  <NONCOV_INTER_ENERGY_QM>  (56) 
0

>  <FF_Energy>  (56) 
10.33

>  <QM_Energy>  (56) 
22.48

>  <source>  (56) 
ACEM_nNMA_03

>  <Index>  (56) 
24282

$$$$
ACEM-pdb2dx6-A-GLN-46:NMA-pdb2dx6-A-LYS-28
     RDKit          3D

 21 19  0  0  0  0  0  0  0  0999 V2000
   -5.6467    0.7917   -0.2452 C   0  0  0  0  0  0  0  0  0  0  0  0
   -5.6682    0.4824   -1.1972 H   0  0  0  0  0  0  0  0  0  0  0  0
   -5.7770    1.7845   -0.2167 H   0  0  0  0  0  0  0  0  0  0  0  0
   -6.4649    0.3164    0.2959 H   0  0  0  0  0  0  0  0  0  0  0  0
   -4.2787    0.4686    0.3351 C   0  0  0  0  0  0  0  0  0  0  0  0
   -3.7120   -0.6487   -0.0919 N   0  0  0  0  0  0  0  0  0  0  0  0
   -2.7890   -0.9258    0.2413 H   0  0  0  0  0  0  0  0  0  0  0  0
   -4.2107   -1.2337   -0.7604 H   0  0  0  0  0  0  0  0  0  0  0  0
   -3.7436    1.2103    1.1656 O   0  0  0  0  0  0  0  0  0  0  0  0
   -1.0682   -2.1755   -0.0316 C   0  0  0  0  0  0  0  0  0  0  0  0
   -0.2872   -2.4790    0.4966 H   0  0  0  0  0  0  0  0  0  0  0  0
   -0.9204   -2.4599   -1.0735 H   0  0  0  0  0  0  0  0  0  0  0  0
   -1.9989   -2.6069    0.3369 H   0  0  0  0  0  0  0  0  0  0  0  0
   -1.1189   -0.7164   -0.0000 N   0  0  0  0  0  0  0  0  0  0  0  0
   -1.9941   -0.1718    0.0239 H   0  0  0  0  0  0  0  0  0  0  0  0
    0.0000    0.0000    0.0000 C   0  0  0  0  0  0  0  0  0  0  0  0
    1.1189   -0.5129    0.0000 O   0  0  0  0  0  0  0  0  0  0  0  0
   -0.1543    1.5149    0.0177 C   0  0  0  0  0  0  0  0  0  0  0  0
   -1.1287    1.7382    0.0283 H   0  0  0  0  0  0  0  0  0  0  0  0
    0.3128    1.9070    0.9211 H   0  0  0  0  0  0  0  0  0  0  0  0
    0.3259    1.9380   -0.8645 H   0  0  0  0  0  0  0  0  0  0  0  0
  1  5  1  0
  5  6  1  0
  5  9  2  0
  1  2  1  0
  1  3  1  0
  1  4  1  0
  6  7  1  0
  6  8  1  0
 10 14  1  0
 14 16  1  0
 16 17  2  0
 16 18  1  0
 10 11  1  0
 10 12  1  0
 10 13  1  0
 14 15  1  0
 18 19  1  0
 18 20  1  0
 18 21  1  0
M  END
>  <PDB_ID>  (57) 
pdb2dx6

>  <RESIDUE_NAME>  (57) 
GLN   LYS

>  <FRAG_NAME>  (57) 
ACEM   NMA

>  <FRAG_ATOM_NUM>  (57) 
fragi: 9  fragj: 12

>  <atom.prop.CHAIN_ID>  (57) 
A A A A A A A A A Z Z Z Z Z Z Z Z Z Z Z Z

>  <atom.prop.IS_HEAVY_ATOM>  (57) 
1 0 0 0 1 1 0 0 1 1 0 0 0 1 0 1 1 1 0 0 0

>  <DIFUSE_FUNC_ATOM>  (57) 
n/a

>  <FINAL_SINGLE_POINT_ENERGY>  (57) 
0

>  <NONCOV_INTER_ENERGY_QM>  (57) 
0

>  <FF_Energy>  (57) 
8.57

>  <QM_Energy>  (57) 
24.95

>  <source>  (57) 
ACEM_nNMA_04

>  <Index>  (57) 
798

$$$$
ACEM-pdb2dw0-A-ASN-487:NMA-pdb2dw0-A-TYR-499
     RDKit          3D

 21 19  0  0  0  0  0  0  0  0999 V2000
   -4.5681    2.7082    0.9479 C   0  0  0  0  0  0  0  0  0  0  0  0
   -5.5617    2.7361    0.9001 H   0  0  0  0  0  0  0  0  0  0  0  0
   -4.1755    3.4293    0.3854 H   0  0  0  0  0  0  0  0  0  0  0  0
   -4.2665    2.8744    1.9821 H   0  0  0  0  0  0  0  0  0  0  0  0
   -4.0967    1.3687    0.4168 C   0  0  0  0  0  0  0  0  0  0  0  0
   -3.1737    0.7421    1.1359 N   0  0  0  0  0  0  0  0  0  0  0  0
   -2.8318    1.1544    1.9820 H   0  0  0  0  0  0  0  0  0  0  0  0
   -2.8176   -0.1433    0.8355 H   0  0  0  0  0  0  0  0  0  0  0  0
   -4.5462    0.9107   -0.6350 O   0  0  0  0  0  0  0  0  0  0  0  0
   -1.1313   -2.1605    0.0010 C   0  0  0  0  0  0  0  0  0  0  0  0
   -2.0277   -2.4568    0.3899 H   0  0  0  0  0  0  0  0  0  0  0  0
   -0.3583   -2.6201    0.6168 H   0  0  0  0  0  0  0  0  0  0  0  0
   -1.1014   -2.5288   -1.0244 H   0  0  0  0  0  0  0  0  0  0  0  0
   -1.1218   -0.7094   -0.0000 N   0  0  0  0  0  0  0  0  0  0  0  0
   -1.9948   -0.1320   -0.0010 H   0  0  0  0  0  0  0  0  0  0  0  0
    0.0000    0.0000    0.0000 C   0  0  0  0  0  0  0  0  0  0  0  0
    1.1218   -0.5132   -0.0000 O   0  0  0  0  0  0  0  0  0  0  0  0
   -0.1812    1.5124    0.0189 C   0  0  0  0  0  0  0  0  0  0  0  0
   -1.1618    1.7079   -0.0375 H   0  0  0  0  0  0  0  0  0  0  0  0
    0.2004    1.9071    0.9605 H   0  0  0  0  0  0  0  0  0  0  0  0
    0.3320    1.9536   -0.8355 H   0  0  0  0  0  0  0  0  0  0  0  0
  1  5  1  0
  5  6  1  0
  5  9  2  0
  1  2  1  0
  1  3  1  0
  1  4  1  0
  6  7  1  0
  6  8  1  0
 10 14  1  0
 14 16  1  0
 16 17  2  0
 16 18  1  0
 10 11  1  0
 10 12  1  0
 10 13  1  0
 14 15  1  0
 18 19  1  0
 18 20  1  0
 18 21  1  0
M  END
>  <PDB_ID>  (58) 
pdb2dw0

>  <RESIDUE_NAME>  (58) 
ASN   TYR

>  <FRAG_NAME>  (58) 
ACEM   NMA

>  <FRAG_ATOM_NUM>  (58) 
fragi: 9  fragj: 12

>  <atom.prop.CHAIN_ID>  (58) 
A A A A A A A A A Z Z Z Z Z Z Z Z Z Z Z Z

>  <atom.prop.IS_HEAVY_ATOM>  (58) 
1 0 0 0 1 1 0 0 1 1 0 0 0 1 0 1 1 1 0 0 0

>  <DIFUSE_FUNC_ATOM>  (58) 
n/a

>  <FINAL_SINGLE_POINT_ENERGY>  (58) 
0

>  <NONCOV_INTER_ENERGY_QM>  (58) 
0

>  <FF_Energy>  (58) 
6.13

>  <QM_Energy>  (58) 
16.43

>  <source>  (58) 
ACEM_nNMA_04

>  <Index>  (58) 
1612

$$$$
ACEM-pdb2dx6-B-GLN-46:NMA-pdb2dx6-B-LYS-28
     RDKit          3D

 21 19  0  0  0  0  0  0  0  0999 V2000
   -5.5873    0.8647   -0.5400 C   0  0  0  0  0  0  0  0  0  0  0  0
   -5.6042    0.4972   -1.4694 H   0  0  0  0  0  0  0  0  0  0  0  0
   -5.6681    1.8602   -0.5723 H   0  0  0  0  0  0  0  0  0  0  0  0
   -6.4423    0.4658    0.0058 H   0  0  0  0  0  0  0  0  0  0  0  0
   -4.2415    0.5089    0.0967 C   0  0  0  0  0  0  0  0  0  0  0  0
   -3.6610   -0.6041   -0.3389 N   0  0  0  0  0  0  0  0  0  0  0  0
   -2.7610   -0.8951    0.0284 H   0  0  0  0  0  0  0  0  0  0  0  0
   -4.1350   -1.1612   -1.0464 H   0  0  0  0  0  0  0  0  0  0  0  0
   -3.7374    1.2253    0.9723 O   0  0  0  0  0  0  0  0  0  0  0  0
   -1.0574   -2.1788   -0.0372 C   0  0  0  0  0  0  0  0  0  0  0  0
   -0.2960   -2.4839    0.5269 H   0  0  0  0  0  0  0  0  0  0  0  0
   -0.8715   -2.4818   -1.0676 H   0  0  0  0  0  0  0  0  0  0  0  0
   -1.9917   -2.6136    0.3180 H   0  0  0  0  0  0  0  0  0  0  0  0
   -1.1151   -0.7217    0.0000 N   0  0  0  0  0  0  0  0  0  0  0  0
   -1.9922   -0.1805    0.0271 H   0  0  0  0  0  0  0  0  0  0  0  0
    0.0000    0.0000    0.0000 C   0  0  0  0  0  0  0  0  0  0  0  0
    1.1151   -0.5046    0.0000 O   0  0  0  0  0  0  0  0  0  0  0  0
   -0.1493    1.5245    0.0182 C   0  0  0  0  0  0  0  0  0  0  0  0
   -1.1165    1.7490    0.0174 H   0  0  0  0  0  0  0  0  0  0  0  0
    0.3045    1.8849    0.9415 H   0  0  0  0  0  0  0  0  0  0  0  0
    0.3685    1.9523   -0.8403 H   0  0  0  0  0  0  0  0  0  0  0  0
  1  5  1  0
  5  6  1  0
  5  9  2  0
  1  2  1  0
  1  3  1  0
  1  4  1  0
  6  7  1  0
  6  8  1  0
 10 14  1  0
 14 16  1  0
 16 17  2  0
 16 18  1  0
 10 11  1  0
 10 12  1  0
 10 13  1  0
 14 15  1  0
 18 19  1  0
 18 20  1  0
 18 21  1  0
M  END
>  <PDB_ID>  (59) 
pdb2dx6

>  <RESIDUE_NAME>  (59) 
GLN   LYS

>  <FRAG_NAME>  (59) 
ACEM   NMA

>  <FRAG_ATOM_NUM>  (59) 
fragi: 9  fragj: 12

>  <atom.prop.CHAIN_ID>  (59) 
A A A A A A A A A Z Z Z Z Z Z Z Z Z Z Z Z

>  <atom.prop.IS_HEAVY_ATOM>  (59) 
1 0 0 0 1 1 0 0 1 1 0 0 0 1 0 1 1 1 0 0 0

>  <DIFUSE_FUNC_ATOM>  (59) 
n/a

>  <FINAL_SINGLE_POINT_ENERGY>  (59) 
0

>  <NONCOV_INTER_ENERGY_QM>  (59) 
0

>  <FF_Energy>  (59) 
10.85

>  <QM_Energy>  (59) 
30.2

>  <source>  (59) 
ACEM_nNMA_04

>  <Index>  (59) 
1922

$$$$
ACEM-pdb1d8t-B-GLN-290:NMA-pdb1d8t-B-ILE-286
     RDKit          3D

 21 19  0  0  0  0  0  0  0  0999 V2000
   -5.1520   -0.2223    1.6450 C   0  0  0  0  0  0  0  0  0  0  0  0
   -5.8197   -0.1035    2.3788 H   0  0  0  0  0  0  0  0  0  0  0  0
   -4.7213   -1.1201    1.7271 H   0  0  0  0  0  0  0  0  0  0  0  0
   -5.6648   -0.1610    0.6851 H   0  0  0  0  0  0  0  0  0  0  0  0
   -4.0917    0.8370    1.7831 C   0  0  0  0  0  0  0  0  0  0  0  0
   -2.9947    0.6628    1.0599 N   0  0  0  0  0  0  0  0  0  0  0  0
   -2.2326    1.3458    1.0876 H   0  0  0  0  0  0  0  0  0  0  0  0
   -2.9147   -0.1645    0.4720 H   0  0  0  0  0  0  0  0  0  0  0  0
   -4.2459    1.7968    2.5403 O   0  0  0  0  0  0  0  0  0  0  0  0
   -1.0638   -2.1876    0.0241 C   0  0  0  0  0  0  0  0  0  0  0  0
   -0.3053   -2.5064   -0.5748 H   0  0  0  0  0  0  0  0  0  0  0  0
   -1.9934   -2.6615   -0.2912 H   0  0  0  0  0  0  0  0  0  0  0  0
   -0.8230   -2.5368    1.0282 H   0  0  0  0  0  0  0  0  0  0  0  0
   -1.1171   -0.7266    0.0000 N   0  0  0  0  0  0  0  0  0  0  0  0
   -1.9947   -0.1839   -0.0179 H   0  0  0  0  0  0  0  0  0  0  0  0
    0.0000    0.0000    0.0000 C   0  0  0  0  0  0  0  0  0  0  0  0
    1.1171   -0.5069    0.0000 O   0  0  0  0  0  0  0  0  0  0  0  0
   -0.1535    1.5219   -0.0194 C   0  0  0  0  0  0  0  0  0  0  0  0
   -0.9280    1.7390    0.5810 H   0  0  0  0  0  0  0  0  0  0  0  0
    0.7180    2.0086    0.4183 H   0  0  0  0  0  0  0  0  0  0  0  0
   -0.2951    1.8310   -1.0550 H   0  0  0  0  0  0  0  0  0  0  0  0
  1  5  1  0
  5  6  1  0
  5  9  2  0
  1  2  1  0
  1  3  1  0
  1  4  1  0
  6  7  1  0
  6  8  1  0
 10 14  1  0
 14 16  1  0
 16 17  2  0
 16 18  1  0
 10 11  1  0
 10 12  1  0
 10 13  1  0
 14 15  1  0
 18 19  1  0
 18 20  1  0
 18 21  1  0
M  END
>  <PDB_ID>  (60) 
pdb1d8t

>  <RESIDUE_NAME>  (60) 
GLN   ILE

>  <FRAG_NAME>  (60) 
ACEM   NMA

>  <FRAG_ATOM_NUM>  (60) 
fragi: 9  fragj: 12

>  <atom.prop.CHAIN_ID>  (60) 
A A A A A A A A A Z Z Z Z Z Z Z Z Z Z Z Z

>  <atom.prop.IS_HEAVY_ATOM>  (60) 
1 0 0 0 1 1 0 0 1 1 0 0 0 1 0 1 1 1 0 0 0

>  <DIFUSE_FUNC_ATOM>  (60) 
n/a

>  <FINAL_SINGLE_POINT_ENERGY>  (60) 
0

>  <NONCOV_INTER_ENERGY_QM>  (60) 
0

>  <FF_Energy>  (60) 
22.33

>  <QM_Energy>  (60) 
37.62

>  <source>  (60) 
ACEM_nNMA_04

>  <Index>  (60) 
4517

$$$$
ACEM-pdb2du2-C-ASN-2154:NMA-pdb2du2-C-MET-2147
     RDKit          3D

 21 19  0  0  0  0  0  0  0  0999 V2000
   -5.5551    0.9101   -1.6422 C   0  0  0  0  0  0  0  0  0  0  0  0
   -5.9170    0.4702   -2.4571 H   0  0  0  0  0  0  0  0  0  0  0  0
   -5.6892    1.8937   -1.6883 H   0  0  0  0  0  0  0  0  0  0  0  0
   -6.1067    0.5334   -0.7807 H   0  0  0  0  0  0  0  0  0  0  0  0
   -4.0981    0.6144   -1.5274 C   0  0  0  0  0  0  0  0  0  0  0  0
   -3.5815    0.7185   -0.3023 N   0  0  0  0  0  0  0  0  0  0  0  0
   -4.1579    0.9733    0.4696 H   0  0  0  0  0  0  0  0  0  0  0  0
   -2.6050    0.5381   -0.1581 H   0  0  0  0  0  0  0  0  0  0  0  0
   -3.4447    0.2358   -2.5078 O   0  0  0  0  0  0  0  0  0  0  0  0
   -1.1405   -2.1555   -0.3127 C   0  0  0  0  0  0  0  0  0  0  0  0
   -0.4078   -2.5980    0.1941 H   0  0  0  0  0  0  0  0  0  0  0  0
   -0.9538   -2.2666   -1.3809 H   0  0  0  0  0  0  0  0  0  0  0  0
   -2.1128   -2.5891   -0.0785 H   0  0  0  0  0  0  0  0  0  0  0  0
   -1.1265   -0.7179    0.0000 N   0  0  0  0  0  0  0  0  0  0  0  0
   -1.9836   -0.1808    0.2373 H   0  0  0  0  0  0  0  0  0  0  0  0
    0.0000    0.0000    0.0000 C   0  0  0  0  0  0  0  0  0  0  0  0
    1.1265   -0.5057   -0.0000 O   0  0  0  0  0  0  0  0  0  0  0  0
   -0.1702    1.5104   -0.0361 C   0  0  0  0  0  0  0  0  0  0  0  0
   -1.1159    1.7218    0.2785 H   0  0  0  0  0  0  0  0  0  0  0  0
    0.5315    2.0423    0.6065 H   0  0  0  0  0  0  0  0  0  0  0  0
   -0.0485    1.8567   -1.0623 H   0  0  0  0  0  0  0  0  0  0  0  0
  1  5  1  0
  5  6  1  0
  5  9  2  0
  1  2  1  0
  1  3  1  0
  1  4  1  0
  6  7  1  0
  6  8  1  0
 10 14  1  0
 14 16  1  0
 16 17  2  0
 16 18  1  0
 10 11  1  0
 10 12  1  0
 10 13  1  0
 14 15  1  0
 18 19  1  0
 18 20  1  0
 18 21  1  0
M  END
>  <PDB_ID>  (61) 
pdb2du2

>  <RESIDUE_NAME>  (61) 
ASN   MET

>  <FRAG_NAME>  (61) 
ACEM   NMA

>  <FRAG_ATOM_NUM>  (61) 
fragi: 9  fragj: 12

>  <atom.prop.CHAIN_ID>  (61) 
A A A A A A A A A Z Z Z Z Z Z Z Z Z Z Z Z

>  <atom.prop.IS_HEAVY_ATOM>  (61) 
1 0 0 0 1 1 0 0 1 1 0 0 0 1 0 1 1 1 0 0 0

>  <DIFUSE_FUNC_ATOM>  (61) 
n/a

>  <FINAL_SINGLE_POINT_ENERGY>  (61) 
0

>  <NONCOV_INTER_ENERGY_QM>  (61) 
0

>  <FF_Energy>  (61) 
10.33

>  <QM_Energy>  (61) 
24.08

>  <source>  (61) 
ACEM_nNMA_04

>  <Index>  (61) 
4727

$$$$
ACEM-pdb1ddz-A-GLN-443:NMA-pdb1ddz-A-LEU-222
     RDKit          3D

 21 19  0  0  0  0  0  0  0  0999 V2000
   -5.5413    0.8085    1.9243 C   0  0  0  0  0  0  0  0  0  0  0  0
   -6.3518    0.3186    1.5884 H   0  0  0  0  0  0  0  0  0  0  0  0
   -5.7945    1.7652    2.0992 H   0  0  0  0  0  0  0  0  0  0  0  0
   -5.2275    0.3557    2.8648 H   0  0  0  0  0  0  0  0  0  0  0  0
   -4.4813    0.7741    0.8612 C   0  0  0  0  0  0  0  0  0  0  0  0
   -3.4622   -0.0453    1.0745 N   0  0  0  0  0  0  0  0  0  0  0  0
   -2.7060   -0.1371    0.3921 H   0  0  0  0  0  0  0  0  0  0  0  0
   -3.4373   -0.5899    1.9366 H   0  0  0  0  0  0  0  0  0  0  0  0
   -4.5677    1.4839   -0.1398 O   0  0  0  0  0  0  0  0  0  0  0  0
   -1.0908   -2.1609   -0.0166 C   0  0  0  0  0  0  0  0  0  0  0  0
   -0.5574   -2.4496    0.8103 H   0  0  0  0  0  0  0  0  0  0  0  0
   -0.5972   -2.6281   -0.8687 H   0  0  0  0  0  0  0  0  0  0  0  0
   -2.0923   -2.5736    0.1058 H   0  0  0  0  0  0  0  0  0  0  0  0
   -1.1186   -0.7125   -0.0000 N   0  0  0  0  0  0  0  0  0  0  0  0
   -1.9928   -0.1515    0.0129 H   0  0  0  0  0  0  0  0  0  0  0  0
    0.0000    0.0000    0.0000 C   0  0  0  0  0  0  0  0  0  0  0  0
    1.1186   -0.5150    0.0000 O   0  0  0  0  0  0  0  0  0  0  0  0
   -0.1619    1.5230    0.0646 C   0  0  0  0  0  0  0  0  0  0  0  0
    0.7631    1.9413    0.0347 H   0  0  0  0  0  0  0  0  0  0  0  0
   -0.7485    1.9372   -0.7555 H   0  0  0  0  0  0  0  0  0  0  0  0
   -0.6244    1.7912    1.0144 H   0  0  0  0  0  0  0  0  0  0  0  0
  1  5  1  0
  5  6  1  0
  5  9  2  0
  1  2  1  0
  1  3  1  0
  1  4  1  0
  6  7  1  0
  6  8  1  0
 10 14  1  0
 14 16  1  0
 16 17  2  0
 16 18  1  0
 10 11  1  0
 10 12  1  0
 10 13  1  0
 14 15  1  0
 18 19  1  0
 18 20  1  0
 18 21  1  0
M  END
>  <PDB_ID>  (62) 
pdb1ddz

>  <RESIDUE_NAME>  (62) 
GLN   LEU

>  <FRAG_NAME>  (62) 
ACEM   NMA

>  <FRAG_ATOM_NUM>  (62) 
fragi: 9  fragj: 12

>  <atom.prop.CHAIN_ID>  (62) 
A A A A A A A A A Z Z Z Z Z Z Z Z Z Z Z Z

>  <atom.prop.IS_HEAVY_ATOM>  (62) 
1 0 0 0 1 1 0 0 1 1 0 0 0 1 0 1 1 1 0 0 0

>  <DIFUSE_FUNC_ATOM>  (62) 
n/a

>  <FINAL_SINGLE_POINT_ENERGY>  (62) 
0

>  <NONCOV_INTER_ENERGY_QM>  (62) 
0

>  <FF_Energy>  (62) 
17.44

>  <QM_Energy>  (62) 
49.87

>  <source>  (62) 
ACEM_nNMA_04

>  <Index>  (62) 
6402

$$$$
ACEM-pdb2e4m-A-GLN-46:NMA-pdb2e4m-A-LYS-40
     RDKit          3D

 21 19  0  0  0  0  0  0  0  0999 V2000
   -6.1017   -0.4104   -0.3078 C   0  0  0  0  0  0  0  0  0  0  0  0
   -6.6048   -0.7922    0.4673 H   0  0  0  0  0  0  0  0  0  0  0  0
   -6.4288   -0.8289   -1.1562 H   0  0  0  0  0  0  0  0  0  0  0  0
   -6.3176    0.6569   -0.3551 H   0  0  0  0  0  0  0  0  0  0  0  0
   -4.6244   -0.7259   -0.1393 C   0  0  0  0  0  0  0  0  0  0  0  0
   -3.7809    0.0722   -0.7512 N   0  0  0  0  0  0  0  0  0  0  0  0
   -2.7710   -0.0660   -0.6748 H   0  0  0  0  0  0  0  0  0  0  0  0
   -4.1425    0.8446   -1.3143 H   0  0  0  0  0  0  0  0  0  0  0  0
   -4.2460   -1.7130    0.5448 O   0  0  0  0  0  0  0  0  0  0  0  0
   -1.0897   -2.1934    0.0642 C   0  0  0  0  0  0  0  0  0  0  0  0
   -0.1382   -2.5046   -0.0148 H   0  0  0  0  0  0  0  0  0  0  0  0
   -1.6617   -2.6263   -0.7565 H   0  0  0  0  0  0  0  0  0  0  0  0
   -1.5312   -2.5083    1.0098 H   0  0  0  0  0  0  0  0  0  0  0  0
   -1.1043   -0.7200   -0.0000 N   0  0  0  0  0  0  0  0  0  0  0  0
   -1.9903   -0.1714   -0.0491 H   0  0  0  0  0  0  0  0  0  0  0  0
    0.0000    0.0000    0.0000 C   0  0  0  0  0  0  0  0  0  0  0  0
    1.1043   -0.4870   -0.0000 O   0  0  0  0  0  0  0  0  0  0  0  0
   -0.1611    1.5255   -0.0414 C   0  0  0  0  0  0  0  0  0  0  0  0
   -1.1267    1.7491    0.0849 H   0  0  0  0  0  0  0  0  0  0  0  0
    0.4147    1.9717    0.7695 H   0  0  0  0  0  0  0  0  0  0  0  0
    0.2071    1.9073   -0.9936 H   0  0  0  0  0  0  0  0  0  0  0  0
  1  5  1  0
  5  6  1  0
  5  9  2  0
  1  2  1  0
  1  3  1  0
  1  4  1  0
  6  7  1  0
  6  8  1  0
 10 14  1  0
 14 16  1  0
 16 17  2  0
 16 18  1  0
 10 11  1  0
 10 12  1  0
 10 13  1  0
 14 15  1  0
 18 19  1  0
 18 20  1  0
 18 21  1  0
M  END
>  <PDB_ID>  (63) 
pdb2e4m

>  <RESIDUE_NAME>  (63) 
GLN   LYS

>  <FRAG_NAME>  (63) 
ACEM   NMA

>  <FRAG_ATOM_NUM>  (63) 
fragi: 9  fragj: 12

>  <atom.prop.CHAIN_ID>  (63) 
A A A A A A A A A Z Z Z Z Z Z Z Z Z Z Z Z

>  <atom.prop.IS_HEAVY_ATOM>  (63) 
1 0 0 0 1 1 0 0 1 1 0 0 0 1 0 1 1 1 0 0 0

>  <DIFUSE_FUNC_ATOM>  (63) 
n/a

>  <FINAL_SINGLE_POINT_ENERGY>  (63) 
0

>  <NONCOV_INTER_ENERGY_QM>  (63) 
0

>  <FF_Energy>  (63) 
10.55

>  <QM_Energy>  (63) 
22.3

>  <source>  (63) 
ACEM_nNMA_04

>  <Index>  (63) 
6904

$$$$
ACEM-pdb2dvt-D-ASN-167:NMA-pdb2dvt-D-LEU-183
     RDKit          3D

 21 19  0  0  0  0  0  0  0  0999 V2000
   -5.9021    0.4600   -1.3060 C   0  0  0  0  0  0  0  0  0  0  0  0
   -6.3596    0.0967   -2.1159 H   0  0  0  0  0  0  0  0  0  0  0  0
   -5.8844    1.4572   -1.3468 H   0  0  0  0  0  0  0  0  0  0  0  0
   -6.4766    0.1651   -0.4278 H   0  0  0  0  0  0  0  0  0  0  0  0
   -4.4786   -0.0512   -1.2825 C   0  0  0  0  0  0  0  0  0  0  0  0
   -3.8856   -0.0834   -0.0968 N   0  0  0  0  0  0  0  0  0  0  0  0
   -4.3806    0.2141    0.7209 H   0  0  0  0  0  0  0  0  0  0  0  0
   -2.9417   -0.4068   -0.0150 H   0  0  0  0  0  0  0  0  0  0  0  0
   -3.9250   -0.4368   -2.3136 O   0  0  0  0  0  0  0  0  0  0  0  0
   -1.0476   -2.1590   -0.0432 C   0  0  0  0  0  0  0  0  0  0  0  0
   -1.9790   -2.5340   -0.2641 H   0  0  0  0  0  0  0  0  0  0  0  0
   -0.4511   -2.4427   -0.8307 H   0  0  0  0  0  0  0  0  0  0  0  0
   -0.6814   -2.6376    0.8650 H   0  0  0  0  0  0  0  0  0  0  0  0
   -1.1181   -0.7115    0.0000 N   0  0  0  0  0  0  0  0  0  0  0  0
   -1.9909   -0.1720    0.0317 H   0  0  0  0  0  0  0  0  0  0  0  0
    0.0000    0.0000    0.0000 C   0  0  0  0  0  0  0  0  0  0  0  0
    1.1181   -0.5158    0.0000 O   0  0  0  0  0  0  0  0  0  0  0  0
   -0.1548    1.5143    0.0179 C   0  0  0  0  0  0  0  0  0  0  0  0
   -0.7246    1.7644    0.7893 H   0  0  0  0  0  0  0  0  0  0  0  0
    0.8420    1.9302    0.1641 H   0  0  0  0  0  0  0  0  0  0  0  0
   -0.5765    1.8460   -0.9309 H   0  0  0  0  0  0  0  0  0  0  0  0
  1  5  1  0
  5  6  1  0
  5  9  2  0
  1  2  1  0
  1  3  1  0
  1  4  1  0
  6  7  1  0
  6  8  1  0
 10 14  1  0
 14 16  1  0
 16 17  2  0
 16 18  1  0
 10 11  1  0
 10 12  1  0
 10 13  1  0
 14 15  1  0
 18 19  1  0
 18 20  1  0
 18 21  1  0
M  END
>  <PDB_ID>  (64) 
pdb2dvt

>  <RESIDUE_NAME>  (64) 
ASN   LEU

>  <FRAG_NAME>  (64) 
ACEM   NMA

>  <FRAG_ATOM_NUM>  (64) 
fragi: 9  fragj: 12

>  <atom.prop.CHAIN_ID>  (64) 
A A A A A A A A A Z Z Z Z Z Z Z Z Z Z Z Z

>  <atom.prop.IS_HEAVY_ATOM>  (64) 
1 0 0 0 1 1 0 0 1 1 0 0 0 1 0 1 1 1 0 0 0

>  <DIFUSE_FUNC_ATOM>  (64) 
n/a

>  <FINAL_SINGLE_POINT_ENERGY>  (64) 
0

>  <NONCOV_INTER_ENERGY_QM>  (64) 
0

>  <FF_Energy>  (64) 
8.9

>  <QM_Energy>  (64) 
26.72

>  <source>  (64) 
ACEM_nNMA_04

>  <Index>  (64) 
7740

$$$$
ACEM-pdb1ddz-B-GLN-443:NMA-pdb1ddz-B-LEU-222
     RDKit          3D

 21 19  0  0  0  0  0  0  0  0999 V2000
   -5.5864    0.8731    1.8462 C   0  0  0  0  0  0  0  0  0  0  0  0
   -6.4035    0.3931    1.5057 H   0  0  0  0  0  0  0  0  0  0  0  0
   -5.8281    1.8356    2.0118 H   0  0  0  0  0  0  0  0  0  0  0  0
   -5.2864    0.4218    2.7919 H   0  0  0  0  0  0  0  0  0  0  0  0
   -4.5210    0.8199    0.7851 C   0  0  0  0  0  0  0  0  0  0  0  0
   -3.5026    0.0021    1.0134 N   0  0  0  0  0  0  0  0  0  0  0  0
   -2.7461   -0.1004    0.3344 H   0  0  0  0  0  0  0  0  0  0  0  0
   -3.4815   -0.5292    1.8837 H   0  0  0  0  0  0  0  0  0  0  0  0
   -4.6101    1.4999   -0.2325 O   0  0  0  0  0  0  0  0  0  0  0  0
   -1.1101   -2.1756    0.0115 C   0  0  0  0  0  0  0  0  0  0  0  0
   -0.5813   -2.4495    0.8437 H   0  0  0  0  0  0  0  0  0  0  0  0
   -0.6197   -2.6584   -0.8337 H   0  0  0  0  0  0  0  0  0  0  0  0
   -2.1195   -2.5704    0.1273 H   0  0  0  0  0  0  0  0  0  0  0  0
   -1.1205   -0.7177   -0.0000 N   0  0  0  0  0  0  0  0  0  0  0  0
   -1.9962   -0.1526   -0.0090 H   0  0  0  0  0  0  0  0  0  0  0  0
    0.0000    0.0000    0.0000 C   0  0  0  0  0  0  0  0  0  0  0  0
    1.1205   -0.5097   -0.0000 O   0  0  0  0  0  0  0  0  0  0  0  0
   -0.1634    1.5281    0.0298 C   0  0  0  0  0  0  0  0  0  0  0  0
    0.7602    1.9452   -0.0031 H   0  0  0  0  0  0  0  0  0  0  0  0
   -0.7429    1.9207   -0.8057 H   0  0  0  0  0  0  0  0  0  0  0  0
   -0.6383    1.8178    0.9671 H   0  0  0  0  0  0  0  0  0  0  0  0
  1  5  1  0
  5  6  1  0
  5  9  2  0
  1  2  1  0
  1  3  1  0
  1  4  1  0
  6  7  1  0
  6  8  1  0
 10 14  1  0
 14 16  1  0
 16 17  2  0
 16 18  1  0
 10 11  1  0
 10 12  1  0
 10 13  1  0
 14 15  1  0
 18 19  1  0
 18 20  1  0
 18 21  1  0
M  END
>  <PDB_ID>  (65) 
pdb1ddz

>  <RESIDUE_NAME>  (65) 
GLN   LEU

>  <FRAG_NAME>  (65) 
ACEM   NMA

>  <FRAG_ATOM_NUM>  (65) 
fragi: 9  fragj: 12

>  <atom.prop.CHAIN_ID>  (65) 
A A A A A A A A A Z Z Z Z Z Z Z Z Z Z Z Z

>  <atom.prop.IS_HEAVY_ATOM>  (65) 
1 0 0 0 1 1 0 0 1 1 0 0 0 1 0 1 1 1 0 0 0

>  <DIFUSE_FUNC_ATOM>  (65) 
n/a

>  <FINAL_SINGLE_POINT_ENERGY>  (65) 
0

>  <NONCOV_INTER_ENERGY_QM>  (65) 
0

>  <FF_Energy>  (65) 
16.13

>  <QM_Energy>  (65) 
46.36

>  <source>  (65) 
ACEM_nNMA_04

>  <Index>  (65) 
9339

$$$$
ACEM-pdb2e50-Q-ASN-136:NMA-pdb2e50-Q-ILE-158
     RDKit          3D

 21 19  0  0  0  0  0  0  0  0999 V2000
   -5.4845    1.6592   -0.6746 C   0  0  0  0  0  0  0  0  0  0  0  0
   -5.2589    2.0431   -1.5682 H   0  0  0  0  0  0  0  0  0  0  0  0
   -5.8276    2.3792   -0.0748 H   0  0  0  0  0  0  0  0  0  0  0  0
   -6.2761    0.9220   -0.8091 H   0  0  0  0  0  0  0  0  0  0  0  0
   -4.2223    1.0794   -0.0636 C   0  0  0  0  0  0  0  0  0  0  0  0
   -3.5120    0.2843   -0.8424 N   0  0  0  0  0  0  0  0  0  0  0  0
   -3.8063    0.0962   -1.7811 H   0  0  0  0  0  0  0  0  0  0  0  0
   -2.6676   -0.1363   -0.4982 H   0  0  0  0  0  0  0  0  0  0  0  0
   -3.9078    1.3212    1.1025 O   0  0  0  0  0  0  0  0  0  0  0  0
   -1.1489   -2.1545   -0.0528 C   0  0  0  0  0  0  0  0  0  0  0  0
   -0.3195   -2.5131    0.3890 H   0  0  0  0  0  0  0  0  0  0  0  0
   -1.1675   -2.4993   -1.0867 H   0  0  0  0  0  0  0  0  0  0  0  0
   -2.0054   -2.5273    0.5089 H   0  0  0  0  0  0  0  0  0  0  0  0
   -1.1265   -0.7015   -0.0000 N   0  0  0  0  0  0  0  0  0  0  0  0
   -1.9957   -0.1190    0.0406 H   0  0  0  0  0  0  0  0  0  0  0  0
    0.0000    0.0000    0.0000 C   0  0  0  0  0  0  0  0  0  0  0  0
    1.1265   -0.5199    0.0000 O   0  0  0  0  0  0  0  0  0  0  0  0
   -0.1859    1.5208    0.0033 C   0  0  0  0  0  0  0  0  0  0  0  0
   -1.1735    1.6872    0.0987 H   0  0  0  0  0  0  0  0  0  0  0  0
    0.2870    1.9811    0.8708 H   0  0  0  0  0  0  0  0  0  0  0  0
    0.1567    1.9386   -0.9433 H   0  0  0  0  0  0  0  0  0  0  0  0
  1  5  1  0
  5  6  1  0
  5  9  2  0
  1  2  1  0
  1  3  1  0
  1  4  1  0
  6  7  1  0
  6  8  1  0
 10 14  1  0
 14 16  1  0
 16 17  2  0
 16 18  1  0
 10 11  1  0
 10 12  1  0
 10 13  1  0
 14 15  1  0
 18 19  1  0
 18 20  1  0
 18 21  1  0
M  END
>  <PDB_ID>  (66) 
pdb2e50

>  <RESIDUE_NAME>  (66) 
ASN   ILE

>  <FRAG_NAME>  (66) 
ACEM   NMA

>  <FRAG_ATOM_NUM>  (66) 
fragi: 9  fragj: 12

>  <atom.prop.CHAIN_ID>  (66) 
A A A A A A A A A Z Z Z Z Z Z Z Z Z Z Z Z

>  <atom.prop.IS_HEAVY_ATOM>  (66) 
1 0 0 0 1 1 0 0 1 1 0 0 0 1 0 1 1 1 0 0 0

>  <DIFUSE_FUNC_ATOM>  (66) 
n/a

>  <FINAL_SINGLE_POINT_ENERGY>  (66) 
0

>  <NONCOV_INTER_ENERGY_QM>  (66) 
0

>  <FF_Energy>  (66) 
10.79

>  <QM_Energy>  (66) 
40.08

>  <source>  (66) 
ACEM_nNMA_04

>  <Index>  (66) 
11246

$$$$
ACEM-pdb2e87-A-GLN-217:NMA-pdb2e87-A-VAL-163
     RDKit          3D

 21 19  0  0  0  0  0  0  0  0999 V2000
   -5.8438   -0.3569   -1.1693 C   0  0  0  0  0  0  0  0  0  0  0  0
   -6.0674    0.5808   -1.4419 H   0  0  0  0  0  0  0  0  0  0  0  0
   -6.1542   -0.5084   -0.2289 H   0  0  0  0  0  0  0  0  0  0  0  0
   -6.3683   -1.0492   -1.8278 H   0  0  0  0  0  0  0  0  0  0  0  0
   -4.3447   -0.5276   -1.2166 C   0  0  0  0  0  0  0  0  0  0  0  0
   -3.7525   -0.8043   -0.0631 N   0  0  0  0  0  0  0  0  0  0  0  0
   -2.7413   -0.9471   -0.0138 H   0  0  0  0  0  0  0  0  0  0  0  0
   -4.3180   -0.8723    0.7807 H   0  0  0  0  0  0  0  0  0  0  0  0
   -3.7190   -0.4115   -2.2763 O   0  0  0  0  0  0  0  0  0  0  0  0
   -1.0972   -2.1659    0.0144 C   0  0  0  0  0  0  0  0  0  0  0  0
   -0.3473   -2.4438    0.6161 H   0  0  0  0  0  0  0  0  0  0  0  0
   -0.8612   -2.5255   -0.9872 H   0  0  0  0  0  0  0  0  0  0  0  0
   -2.0613   -2.5645    0.3304 H   0  0  0  0  0  0  0  0  0  0  0  0
   -1.1217   -0.7114   -0.0000 N   0  0  0  0  0  0  0  0  0  0  0  0
   -1.9948   -0.1510   -0.0112 H   0  0  0  0  0  0  0  0  0  0  0  0
    0.0000    0.0000    0.0000 C   0  0  0  0  0  0  0  0  0  0  0  0
    1.1217   -0.5121    0.0000 O   0  0  0  0  0  0  0  0  0  0  0  0
   -0.1717    1.5130   -0.0030 C   0  0  0  0  0  0  0  0  0  0  0  0
   -0.9037    1.7457    0.6541 H   0  0  0  0  0  0  0  0  0  0  0  0
    0.7358    2.0292    0.3103 H   0  0  0  0  0  0  0  0  0  0  0  0
   -0.4802    1.8170   -1.0032 H   0  0  0  0  0  0  0  0  0  0  0  0
  1  5  1  0
  5  6  1  0
  5  9  2  0
  1  2  1  0
  1  3  1  0
  1  4  1  0
  6  7  1  0
  6  8  1  0
 10 14  1  0
 14 16  1  0
 16 17  2  0
 16 18  1  0
 10 11  1  0
 10 12  1  0
 10 13  1  0
 14 15  1  0
 18 19  1  0
 18 20  1  0
 18 21  1  0
M  END
>  <PDB_ID>  (67) 
pdb2e87

>  <RESIDUE_NAME>  (67) 
GLN   VAL

>  <FRAG_NAME>  (67) 
ACEM   NMA

>  <FRAG_ATOM_NUM>  (67) 
fragi: 9  fragj: 12

>  <atom.prop.CHAIN_ID>  (67) 
A A A A A A A A A Z Z Z Z Z Z Z Z Z Z Z Z

>  <atom.prop.IS_HEAVY_ATOM>  (67) 
1 0 0 0 1 1 0 0 1 1 0 0 0 1 0 1 1 1 0 0 0

>  <DIFUSE_FUNC_ATOM>  (67) 
n/a

>  <FINAL_SINGLE_POINT_ENERGY>  (67) 
0

>  <NONCOV_INTER_ENERGY_QM>  (67) 
0

>  <FF_Energy>  (67) 
12.06

>  <QM_Energy>  (67) 
27.63

>  <source>  (67) 
ACEM_nNMA_04

>  <Index>  (67) 
11364

$$$$
ACEM-pdb1dlu-A-GLN-322:NMA-pdb1dlu-A-ALA-318
     RDKit          3D

 21 19  0  0  0  0  0  0  0  0999 V2000
   -4.2840   -0.3960    1.9872 C   0  0  0  0  0  0  0  0  0  0  0  0
   -3.7678    0.1321    2.7511 H   0  0  0  0  0  0  0  0  0  0  0  0
   -3.5129   -1.0418    1.6438 H   0  0  0  0  0  0  0  0  0  0  0  0
   -5.0428   -1.0135    2.4677 H   0  0  0  0  0  0  0  0  0  0  0  0
   -4.5608    0.5648    0.9064 C   0  0  0  0  0  0  0  0  0  0  0  0
   -3.6820    0.8117   -0.0539 N   0  0  0  0  0  0  0  0  0  0  0  0
   -3.8308    1.4372   -0.8060 H   0  0  0  0  0  0  0  0  0  0  0  0
   -2.7703    0.3017    0.0004 H   0  0  0  0  0  0  0  0  0  0  0  0
   -5.5336    1.3370    0.9160 O   0  0  0  0  0  0  0  0  0  0  0  0
   -0.9183   -2.2148    0.0497 C   0  0  0  0  0  0  0  0  0  0  0  0
   -0.0695   -2.4168   -0.4572 H   0  0  0  0  0  0  0  0  0  0  0  0
   -1.7219   -2.7435   -0.4629 H   0  0  0  0  0  0  0  0  0  0  0  0
   -0.8472   -2.6191    1.0594 H   0  0  0  0  0  0  0  0  0  0  0  0
   -1.1148   -0.7816   -0.0000 N   0  0  0  0  0  0  0  0  0  0  0  0
   -1.9933   -0.2951   -0.0346 H   0  0  0  0  0  0  0  0  0  0  0  0
    0.0000    0.0000    0.0000 C   0  0  0  0  0  0  0  0  0  0  0  0
    1.1148   -0.5710   -0.0000 O   0  0  0  0  0  0  0  0  0  0  0  0
   -0.3359    1.4772   -0.0202 C   0  0  0  0  0  0  0  0  0  0  0  0
    0.4760    1.9894   -0.2706 H   0  0  0  0  0  0  0  0  0  0  0  0
   -1.0953    1.6155   -0.7898 H   0  0  0  0  0  0  0  0  0  0  0  0
   -0.5979    1.8454    0.9718 H   0  0  0  0  0  0  0  0  0  0  0  0
  1  5  1  0
  5  6  1  0
  5  9  2  0
  1  2  1  0
  1  3  1  0
  1  4  1  0
  6  7  1  0
  6  8  1  0
 10 14  1  0
 14 16  1  0
 16 17  2  0
 16 18  1  0
 10 11  1  0
 10 12  1  0
 10 13  1  0
 14 15  1  0
 18 19  1  0
 18 20  1  0
 18 21  1  0
M  END
>  <PDB_ID>  (68) 
pdb1dlu

>  <RESIDUE_NAME>  (68) 
GLN   ALA

>  <FRAG_NAME>  (68) 
ACEM   NMA

>  <FRAG_ATOM_NUM>  (68) 
fragi: 9  fragj: 12

>  <atom.prop.CHAIN_ID>  (68) 
A A A A A A A A A Z Z Z Z Z Z Z Z Z Z Z Z

>  <atom.prop.IS_HEAVY_ATOM>  (68) 
1 0 0 0 1 1 0 0 1 1 0 0 0 1 0 1 1 1 0 0 0

>  <DIFUSE_FUNC_ATOM>  (68) 
n/a

>  <FINAL_SINGLE_POINT_ENERGY>  (68) 
0

>  <NONCOV_INTER_ENERGY_QM>  (68) 
0

>  <FF_Energy>  (68) 
9.74

>  <QM_Energy>  (68) 
24.89

>  <source>  (68) 
ACEM_nNMA_04

>  <Index>  (68) 
15695

$$$$
ACEM-pdb2eer-A-ASN-121:NMA-pdb2eer-A-ARG-116
     RDKit          3D

 21 19  0  0  0  0  0  0  0  0999 V2000
   -5.9571    0.3077   -1.3965 C   0  0  0  0  0  0  0  0  0  0  0  0
   -6.3435    1.1565   -1.7156 H   0  0  0  0  0  0  0  0  0  0  0  0
   -6.5042   -0.1024   -0.6862 H   0  0  0  0  0  0  0  0  0  0  0  0
   -5.9075   -0.3857   -2.2361 H   0  0  0  0  0  0  0  0  0  0  0  0
   -4.5717    0.5648   -0.8671 C   0  0  0  0  0  0  0  0  0  0  0  0
   -3.7800   -0.5198   -0.7811 N   0  0  0  0  0  0  0  0  0  0  0  0
   -4.1178   -1.4112   -1.0616 H   0  0  0  0  0  0  0  0  0  0  0  0
   -2.8476   -0.4196   -0.4309 H   0  0  0  0  0  0  0  0  0  0  0  0
   -4.2028    1.6895   -0.5483 O   0  0  0  0  0  0  0  0  0  0  0  0
   -1.1137   -2.1634   -0.0106 C   0  0  0  0  0  0  0  0  0  0  0  0
   -0.2193   -2.4724    0.3510 H   0  0  0  0  0  0  0  0  0  0  0  0
   -1.2176   -2.5748   -1.0147 H   0  0  0  0  0  0  0  0  0  0  0  0
   -1.9174   -2.5379    0.6234 H   0  0  0  0  0  0  0  0  0  0  0  0
   -1.1203   -0.7111    0.0000 N   0  0  0  0  0  0  0  0  0  0  0  0
   -1.9942   -0.1415    0.0083 H   0  0  0  0  0  0  0  0  0  0  0  0
    0.0000    0.0000    0.0000 C   0  0  0  0  0  0  0  0  0  0  0  0
    1.1203   -0.5110    0.0000 O   0  0  0  0  0  0  0  0  0  0  0  0
   -0.1817    1.5169    0.0358 C   0  0  0  0  0  0  0  0  0  0  0  0
   -0.9588    1.7542   -0.5140 H   0  0  0  0  0  0  0  0  0  0  0  0
   -0.3956    1.7333    1.0825 H   0  0  0  0  0  0  0  0  0  0  0  0
    0.7321    2.0299   -0.2642 H   0  0  0  0  0  0  0  0  0  0  0  0
  1  5  1  0
  5  6  1  0
  5  9  2  0
  1  2  1  0
  1  3  1  0
  1  4  1  0
  6  7  1  0
  6  8  1  0
 10 14  1  0
 14 16  1  0
 16 17  2  0
 16 18  1  0
 10 11  1  0
 10 12  1  0
 10 13  1  0
 14 15  1  0
 18 19  1  0
 18 20  1  0
 18 21  1  0
M  END
>  <PDB_ID>  (69) 
pdb2eer

>  <RESIDUE_NAME>  (69) 
ASN   ARG

>  <FRAG_NAME>  (69) 
ACEM   NMA

>  <FRAG_ATOM_NUM>  (69) 
fragi: 9  fragj: 12

>  <atom.prop.CHAIN_ID>  (69) 
A A A A A A A A A Z Z Z Z Z Z Z Z Z Z Z Z

>  <atom.prop.IS_HEAVY_ATOM>  (69) 
1 0 0 0 1 1 0 0 1 1 0 0 0 1 0 1 1 1 0 0 0

>  <DIFUSE_FUNC_ATOM>  (69) 
n/a

>  <FINAL_SINGLE_POINT_ENERGY>  (69) 
0

>  <NONCOV_INTER_ENERGY_QM>  (69) 
0

>  <FF_Energy>  (69) 
6.16

>  <QM_Energy>  (69) 
25.14

>  <source>  (69) 
ACEM_nNMA_04

>  <Index>  (69) 
17400

$$$$
ACEM-pdb1dor-B-ASN-108:NMA-pdb1dor-B-ALA-101
     RDKit          3D

 21 19  0  0  0  0  0  0  0  0999 V2000
   -5.7604   -1.5122   -0.8435 C   0  0  0  0  0  0  0  0  0  0  0  0
   -5.9780   -2.1213   -1.6011 H   0  0  0  0  0  0  0  0  0  0  0  0
   -6.4448   -0.7921   -0.7729 H   0  0  0  0  0  0  0  0  0  0  0  0
   -5.7724   -2.0914    0.0798 H   0  0  0  0  0  0  0  0  0  0  0  0
   -4.4091   -0.8697   -1.1132 C   0  0  0  0  0  0  0  0  0  0  0  0
   -3.8549   -0.2289   -0.1049 N   0  0  0  0  0  0  0  0  0  0  0  0
   -4.3166   -0.1855    0.7850 H   0  0  0  0  0  0  0  0  0  0  0  0
   -2.9655    0.2227   -0.2185 H   0  0  0  0  0  0  0  0  0  0  0  0
   -3.8780   -0.9418   -2.2202 O   0  0  0  0  0  0  0  0  0  0  0  0
   -1.0710   -2.1616   -0.0577 C   0  0  0  0  0  0  0  0  0  0  0  0
   -0.5384   -2.5142    0.7282 H   0  0  0  0  0  0  0  0  0  0  0  0
   -2.0102   -2.5330    0.0226 H   0  0  0  0  0  0  0  0  0  0  0  0
   -0.6220   -2.5182   -0.9847 H   0  0  0  0  0  0  0  0  0  0  0  0
   -1.1173   -0.7150   -0.0000 N   0  0  0  0  0  0  0  0  0  0  0  0
   -1.9911   -0.1644    0.0432 H   0  0  0  0  0  0  0  0  0  0  0  0
    0.0000    0.0000    0.0000 C   0  0  0  0  0  0  0  0  0  0  0  0
    1.1173   -0.4968   -0.0000 O   0  0  0  0  0  0  0  0  0  0  0  0
   -0.1696    1.5020    0.0487 C   0  0  0  0  0  0  0  0  0  0  0  0
   -0.8833    1.7725   -0.6009 H   0  0  0  0  0  0  0  0  0  0  0  0
   -0.4811    1.8021    1.0492 H   0  0  0  0  0  0  0  0  0  0  0  0
    0.7602    1.9949   -0.2354 H   0  0  0  0  0  0  0  0  0  0  0  0
  1  5  1  0
  5  6  1  0
  5  9  2  0
  1  2  1  0
  1  3  1  0
  1  4  1  0
  6  7  1  0
  6  8  1  0
 10 14  1  0
 14 16  1  0
 16 17  2  0
 16 18  1  0
 10 11  1  0
 10 12  1  0
 10 13  1  0
 14 15  1  0
 18 19  1  0
 18 20  1  0
 18 21  1  0
M  END
>  <PDB_ID>  (70) 
pdb1dor

>  <RESIDUE_NAME>  (70) 
ASN   ALA

>  <FRAG_NAME>  (70) 
ACEM   NMA

>  <FRAG_ATOM_NUM>  (70) 
fragi: 9  fragj: 12

>  <atom.prop.CHAIN_ID>  (70) 
A A A A A A A A A Z Z Z Z Z Z Z Z Z Z Z Z

>  <atom.prop.IS_HEAVY_ATOM>  (70) 
1 0 0 0 1 1 0 0 1 1 0 0 0 1 0 1 1 1 0 0 0

>  <DIFUSE_FUNC_ATOM>  (70) 
n/a

>  <FINAL_SINGLE_POINT_ENERGY>  (70) 
0

>  <NONCOV_INTER_ENERGY_QM>  (70) 
0

>  <FF_Energy>  (70) 
10.68

>  <QM_Energy>  (70) 
21.7

>  <source>  (70) 
ACEM_nNMA_04

>  <Index>  (70) 
19044

$$$$
ACEM-pdb1dt5-B-GLN-15:NMA-pdb1dt5-B-PRO-42
     RDKit          3D

 21 19  0  0  0  0  0  0  0  0999 V2000
   -6.0219    0.6399   -1.3554 C   0  0  0  0  0  0  0  0  0  0  0  0
   -6.2631    1.5973   -1.3731 H   0  0  0  0  0  0  0  0  0  0  0  0
   -6.7776    0.0809   -1.0526 H   0  0  0  0  0  0  0  0  0  0  0  0
   -5.7320    0.3291   -2.3591 H   0  0  0  0  0  0  0  0  0  0  0  0
   -4.8541    0.4510   -0.3833 C   0  0  0  0  0  0  0  0  0  0  0  0
   -3.6743    0.1106   -0.9020 N   0  0  0  0  0  0  0  0  0  0  0  0
   -2.8663   -0.0140   -0.3186 H   0  0  0  0  0  0  0  0  0  0  0  0
   -3.6108   -0.0206   -1.9139 H   0  0  0  0  0  0  0  0  0  0  0  0
   -4.9691    0.5493    0.8478 O   0  0  0  0  0  0  0  0  0  0  0  0
   -1.1025   -2.1829   -0.0661 C   0  0  0  0  0  0  0  0  0  0  0  0
   -0.5554   -2.5580    0.7061 H   0  0  0  0  0  0  0  0  0  0  0  0
   -0.7073   -2.5683   -1.0060 H   0  0  0  0  0  0  0  0  0  0  0  0
   -2.0965   -2.6007    0.0936 H   0  0  0  0  0  0  0  0  0  0  0  0
   -1.1042   -0.7350   -0.0000 N   0  0  0  0  0  0  0  0  0  0  0  0
   -1.9908   -0.1683    0.0531 H   0  0  0  0  0  0  0  0  0  0  0  0
    0.0000    0.0000    0.0000 C   0  0  0  0  0  0  0  0  0  0  0  0
    1.1042   -0.5351    0.0000 O   0  0  0  0  0  0  0  0  0  0  0  0
   -0.1196    1.5115   -0.0308 C   0  0  0  0  0  0  0  0  0  0  0  0
    0.7622    1.9328   -0.3494 H   0  0  0  0  0  0  0  0  0  0  0  0
   -0.9543    1.8981   -0.6155 H   0  0  0  0  0  0  0  0  0  0  0  0
   -0.2481    1.9314    0.9668 H   0  0  0  0  0  0  0  0  0  0  0  0
  1  5  1  0
  5  6  1  0
  5  9  2  0
  1  2  1  0
  1  3  1  0
  1  4  1  0
  6  7  1  0
  6  8  1  0
 10 14  1  0
 14 16  1  0
 16 17  2  0
 16 18  1  0
 10 11  1  0
 10 12  1  0
 10 13  1  0
 14 15  1  0
 18 19  1  0
 18 20  1  0
 18 21  1  0
M  END
>  <PDB_ID>  (71) 
pdb1dt5

>  <RESIDUE_NAME>  (71) 
GLN   PRO

>  <FRAG_NAME>  (71) 
ACEM   NMA

>  <FRAG_ATOM_NUM>  (71) 
fragi: 9  fragj: 12

>  <atom.prop.CHAIN_ID>  (71) 
A A A A A A A A A Z Z Z Z Z Z Z Z Z Z Z Z

>  <atom.prop.IS_HEAVY_ATOM>  (71) 
1 0 0 0 1 1 0 0 1 1 0 0 0 1 0 1 1 1 0 0 0

>  <DIFUSE_FUNC_ATOM>  (71) 
n/a

>  <FINAL_SINGLE_POINT_ENERGY>  (71) 
0

>  <NONCOV_INTER_ENERGY_QM>  (71) 
0

>  <FF_Energy>  (71) 
9.95

>  <QM_Energy>  (71) 
27.41

>  <source>  (71) 
ACEM_nNMA_04

>  <Index>  (71) 
23711

$$$$
ACEM-pdb1dt5-D-GLN-15:NMA-pdb1dt5-D-PRO-42
     RDKit          3D

 21 19  0  0  0  0  0  0  0  0999 V2000
   -5.6895   -0.1038   -2.4200 C   0  0  0  0  0  0  0  0  0  0  0  0
   -6.1231    0.7528   -2.6457 H   0  0  0  0  0  0  0  0  0  0  0  0
   -6.3423   -0.7757   -2.1122 H   0  0  0  0  0  0  0  0  0  0  0  0
   -5.1736   -0.4855   -3.3012 H   0  0  0  0  0  0  0  0  0  0  0  0
   -4.6811    0.1478   -1.2872 C   0  0  0  0  0  0  0  0  0  0  0  0
   -3.3890   -0.1800   -1.4072 N   0  0  0  0  0  0  0  0  0  0  0  0
   -2.7298   -0.0208   -0.7180 H   0  0  0  0  0  0  0  0  0  0  0  0
   -3.1104   -0.6306   -2.3050 H   0  0  0  0  0  0  0  0  0  0  0  0
   -5.0398    0.6265   -0.2090 O   0  0  0  0  0  0  0  0  0  0  0  0
   -1.1186   -2.1580    0.2456 C   0  0  0  0  0  0  0  0  0  0  0  0
   -0.7415   -2.3426    1.1697 H   0  0  0  0  0  0  0  0  0  0  0  0
   -0.5488   -2.7153   -0.4979 H   0  0  0  0  0  0  0  0  0  0  0  0
   -2.1446   -2.5236    0.2873 H   0  0  0  0  0  0  0  0  0  0  0  0
   -1.1088   -0.7159    0.0000 N   0  0  0  0  0  0  0  0  0  0  0  0
   -1.9806   -0.1698   -0.1898 H   0  0  0  0  0  0  0  0  0  0  0  0
    0.0000    0.0000    0.0000 C   0  0  0  0  0  0  0  0  0  0  0  0
    1.1088   -0.5362   -0.0000 O   0  0  0  0  0  0  0  0  0  0  0  0
   -0.1076    1.4921   -0.2248 C   0  0  0  0  0  0  0  0  0  0  0  0
    0.8008    1.8916   -0.4253 H   0  0  0  0  0  0  0  0  0  0  0  0
   -0.8177    1.7272   -1.0176 H   0  0  0  0  0  0  0  0  0  0  0  0
   -0.4757    2.0309    0.6482 H   0  0  0  0  0  0  0  0  0  0  0  0
  1  5  1  0
  5  6  1  0
  5  9  2  0
  1  2  1  0
  1  3  1  0
  1  4  1  0
  6  7  1  0
  6  8  1  0
 10 14  1  0
 14 16  1  0
 16 17  2  0
 16 18  1  0
 10 11  1  0
 10 12  1  0
 10 13  1  0
 14 15  1  0
 18 19  1  0
 18 20  1  0
 18 21  1  0
M  END
>  <PDB_ID>  (72) 
pdb1dt5

>  <RESIDUE_NAME>  (72) 
GLN   PRO

>  <FRAG_NAME>  (72) 
ACEM   NMA

>  <FRAG_ATOM_NUM>  (72) 
fragi: 9  fragj: 12

>  <atom.prop.CHAIN_ID>  (72) 
A A A A A A A A A Z Z Z Z Z Z Z Z Z Z Z Z

>  <atom.prop.IS_HEAVY_ATOM>  (72) 
1 0 0 0 1 1 0 0 1 1 0 0 0 1 0 1 1 1 0 0 0

>  <DIFUSE_FUNC_ATOM>  (72) 
n/a

>  <FINAL_SINGLE_POINT_ENERGY>  (72) 
0

>  <NONCOV_INTER_ENERGY_QM>  (72) 
0

>  <FF_Energy>  (72) 
12.83

>  <QM_Energy>  (72) 
32.79

>  <source>  (72) 
ACEM_nNMA_04

>  <Index>  (72) 
26116

$$$$
ACEM-pdb2ep5-A-GLN-18:NMA-pdb2ep5-A-TRP-52
     RDKit          3D

 21 19  0  0  0  0  0  0  0  0999 V2000
   -5.6412    0.8372    1.8504 C   0  0  0  0  0  0  0  0  0  0  0  0
   -5.6590    1.7905    2.1515 H   0  0  0  0  0  0  0  0  0  0  0  0
   -6.2396    0.2908    2.4367 H   0  0  0  0  0  0  0  0  0  0  0  0
   -6.0236    0.7919    0.8307 H   0  0  0  0  0  0  0  0  0  0  0  0
   -4.2207    0.3124    1.9797 C   0  0  0  0  0  0  0  0  0  0  0  0
   -3.4941    0.2962    0.8678 N   0  0  0  0  0  0  0  0  0  0  0  0
   -2.5302   -0.0283    0.8800 H   0  0  0  0  0  0  0  0  0  0  0  0
   -3.9183    0.6138   -0.0021 H   0  0  0  0  0  0  0  0  0  0  0  0
   -3.7785   -0.0624    3.0722 O   0  0  0  0  0  0  0  0  0  0  0  0
   -1.1323   -2.1508    0.0562 C   0  0  0  0  0  0  0  0  0  0  0  0
   -0.1720   -2.4469   -0.0225 H   0  0  0  0  0  0  0  0  0  0  0  0
   -1.6585   -2.5791   -0.7969 H   0  0  0  0  0  0  0  0  0  0  0  0
   -1.5955   -2.4644    0.9917 H   0  0  0  0  0  0  0  0  0  0  0  0
   -1.1242   -0.7043   -0.0000 N   0  0  0  0  0  0  0  0  0  0  0  0
   -1.9946   -0.1263   -0.0443 H   0  0  0  0  0  0  0  0  0  0  0  0
    0.0000    0.0000    0.0000 C   0  0  0  0  0  0  0  0  0  0  0  0
    1.1242   -0.5118    0.0000 O   0  0  0  0  0  0  0  0  0  0  0  0
   -0.1972    1.5080   -0.0157 C   0  0  0  0  0  0  0  0  0  0  0  0
   -1.1843    1.6875    0.1138 H   0  0  0  0  0  0  0  0  0  0  0  0
    0.3385    2.0030    0.7943 H   0  0  0  0  0  0  0  0  0  0  0  0
    0.1062    1.9200   -0.9782 H   0  0  0  0  0  0  0  0  0  0  0  0
  1  5  1  0
  5  6  1  0
  5  9  2  0
  1  2  1  0
  1  3  1  0
  1  4  1  0
  6  7  1  0
  6  8  1  0
 10 14  1  0
 14 16  1  0
 16 17  2  0
 16 18  1  0
 10 11  1  0
 10 12  1  0
 10 13  1  0
 14 15  1  0
 18 19  1  0
 18 20  1  0
 18 21  1  0
M  END
>  <PDB_ID>  (73) 
pdb2ep5

>  <RESIDUE_NAME>  (73) 
GLN   TRP

>  <FRAG_NAME>  (73) 
ACEM   NMA

>  <FRAG_ATOM_NUM>  (73) 
fragi: 9  fragj: 12

>  <atom.prop.CHAIN_ID>  (73) 
A A A A A A A A A Z Z Z Z Z Z Z Z Z Z Z Z

>  <atom.prop.IS_HEAVY_ATOM>  (73) 
1 0 0 0 1 1 0 0 1 1 0 0 0 1 0 1 1 1 0 0 0

>  <DIFUSE_FUNC_ATOM>  (73) 
n/a

>  <FINAL_SINGLE_POINT_ENERGY>  (73) 
0

>  <NONCOV_INTER_ENERGY_QM>  (73) 
0

>  <FF_Energy>  (73) 
11.3

>  <QM_Energy>  (73) 
24.46

>  <source>  (73) 
ACEM_nNMA_04

>  <Index>  (73) 
27528

$$$$
ACEM-pdb1dza-A-ASN-127:NMA-pdb1dza-A-ALA-196
     RDKit          3D

 21 19  0  0  0  0  0  0  0  0999 V2000
   -5.5262    1.2234    1.7672 C   0  0  0  0  0  0  0  0  0  0  0  0
   -6.4268    1.0508    1.3928 H   0  0  0  0  0  0  0  0  0  0  0  0
   -5.4545    2.1497    2.1116 H   0  0  0  0  0  0  0  0  0  0  0  0
   -5.3451    0.5275    2.5864 H   0  0  0  0  0  0  0  0  0  0  0  0
   -4.5008    1.0443    0.6519 C   0  0  0  0  0  0  0  0  0  0  0  0
   -3.3645    0.4702    1.0054 N   0  0  0  0  0  0  0  0  0  0  0  0
   -3.2124    0.1738    1.9481 H   0  0  0  0  0  0  0  0  0  0  0  0
   -2.6409    0.3253    0.3221 H   0  0  0  0  0  0  0  0  0  0  0  0
   -4.7790    1.3953   -0.4926 O   0  0  0  0  0  0  0  0  0  0  0  0
   -1.1374   -2.1489    0.0105 C   0  0  0  0  0  0  0  0  0  0  0  0
   -0.1904   -2.4947   -0.1023 H   0  0  0  0  0  0  0  0  0  0  0  0
   -1.7325   -2.5625   -0.8037 H   0  0  0  0  0  0  0  0  0  0  0  0
   -1.6405   -2.5181    0.9042 H   0  0  0  0  0  0  0  0  0  0  0  0
   -1.1165   -0.7161    0.0000 N   0  0  0  0  0  0  0  0  0  0  0  0
   -1.9930   -0.1264   -0.0086 H   0  0  0  0  0  0  0  0  0  0  0  0
    0.0000    0.0000    0.0000 C   0  0  0  0  0  0  0  0  0  0  0  0
    1.1165   -0.5123   -0.0000 O   0  0  0  0  0  0  0  0  0  0  0  0
   -0.1311    1.5192    0.0757 C   0  0  0  0  0  0  0  0  0  0  0  0
   -1.0484    1.7466    0.3813 H   0  0  0  0  0  0  0  0  0  0  0  0
    0.5869    1.8749    0.8146 H   0  0  0  0  0  0  0  0  0  0  0  0
    0.0822    1.9813   -0.8882 H   0  0  0  0  0  0  0  0  0  0  0  0
  1  5  1  0
  5  6  1  0
  5  9  2  0
  1  2  1  0
  1  3  1  0
  1  4  1  0
  6  7  1  0
  6  8  1  0
 10 14  1  0
 14 16  1  0
 16 17  2  0
 16 18  1  0
 10 11  1  0
 10 12  1  0
 10 13  1  0
 14 15  1  0
 18 19  1  0
 18 20  1  0
 18 21  1  0
M  END
>  <PDB_ID>  (74) 
pdb1dza

>  <RESIDUE_NAME>  (74) 
ASN   ALA

>  <FRAG_NAME>  (74) 
ACEM   NMA

>  <FRAG_ATOM_NUM>  (74) 
fragi: 9  fragj: 12

>  <atom.prop.CHAIN_ID>  (74) 
A A A A A A A A A Z Z Z Z Z Z Z Z Z Z Z Z

>  <atom.prop.IS_HEAVY_ATOM>  (74) 
1 0 0 0 1 1 0 0 1 1 0 0 0 1 0 1 1 1 0 0 0

>  <DIFUSE_FUNC_ATOM>  (74) 
n/a

>  <FINAL_SINGLE_POINT_ENERGY>  (74) 
0

>  <NONCOV_INTER_ENERGY_QM>  (74) 
0

>  <FF_Energy>  (74) 
14.92

>  <QM_Energy>  (74) 
42.19

>  <source>  (74) 
ACEM_nNMA_04

>  <Index>  (74) 
27550

$$$$
ACEM-pdb2epg-A-GLN-195:NMA-pdb2epg-A-ARG-239
     RDKit          3D

 21 19  0  0  0  0  0  0  0  0999 V2000
   -6.0008    0.5912    0.1995 C   0  0  0  0  0  0  0  0  0  0  0  0
   -6.5762    0.8061    0.9877 H   0  0  0  0  0  0  0  0  0  0  0  0
   -6.5012   -0.0022   -0.4293 H   0  0  0  0  0  0  0  0  0  0  0  0
   -5.7641    1.5206   -0.3185 H   0  0  0  0  0  0  0  0  0  0  0  0
   -4.7622   -0.1577    0.6936 C   0  0  0  0  0  0  0  0  0  0  0  0
   -3.8172   -0.3872   -0.2102 N   0  0  0  0  0  0  0  0  0  0  0  0
   -2.9600   -0.8672    0.0478 H   0  0  0  0  0  0  0  0  0  0  0  0
   -3.9655   -0.0758   -1.1671 H   0  0  0  0  0  0  0  0  0  0  0  0
   -4.6535   -0.5161    1.8757 O   0  0  0  0  0  0  0  0  0  0  0  0
   -0.9841   -2.1755    0.0120 C   0  0  0  0  0  0  0  0  0  0  0  0
   -0.3422   -2.4474    0.7677 H   0  0  0  0  0  0  0  0  0  0  0  0
   -1.8907   -2.5861    0.2715 H   0  0  0  0  0  0  0  0  0  0  0  0
   -0.6449   -2.6309   -0.9185 H   0  0  0  0  0  0  0  0  0  0  0  0
   -1.1100   -0.7248   -0.0000 N   0  0  0  0  0  0  0  0  0  0  0  0
   -1.9872   -0.2148   -0.0087 H   0  0  0  0  0  0  0  0  0  0  0  0
    0.0000    0.0000    0.0000 C   0  0  0  0  0  0  0  0  0  0  0  0
    1.1100   -0.5288    0.0000 O   0  0  0  0  0  0  0  0  0  0  0  0
   -0.1356    1.5329    0.0124 C   0  0  0  0  0  0  0  0  0  0  0  0
    0.0820    1.8592    0.9506 H   0  0  0  0  0  0  0  0  0  0  0  0
    0.5210    2.0342   -0.6987 H   0  0  0  0  0  0  0  0  0  0  0  0
   -1.1570    1.8511   -0.1965 H   0  0  0  0  0  0  0  0  0  0  0  0
  1  5  1  0
  5  6  1  0
  5  9  2  0
  1  2  1  0
  1  3  1  0
  1  4  1  0
  6  7  1  0
  6  8  1  0
 10 14  1  0
 14 16  1  0
 16 17  2  0
 16 18  1  0
 10 11  1  0
 10 12  1  0
 10 13  1  0
 14 15  1  0
 18 19  1  0
 18 20  1  0
 18 21  1  0
M  END
>  <PDB_ID>  (75) 
pdb2epg

>  <RESIDUE_NAME>  (75) 
GLN   ARG

>  <FRAG_NAME>  (75) 
ACEM   NMA

>  <FRAG_ATOM_NUM>  (75) 
fragi: 9  fragj: 12

>  <atom.prop.CHAIN_ID>  (75) 
A A A A A A A A A Z Z Z Z Z Z Z Z Z Z Z Z

>  <atom.prop.IS_HEAVY_ATOM>  (75) 
1 0 0 0 1 1 0 0 1 1 0 0 0 1 0 1 1 1 0 0 0

>  <DIFUSE_FUNC_ATOM>  (75) 
n/a

>  <FINAL_SINGLE_POINT_ENERGY>  (75) 
0

>  <NONCOV_INTER_ENERGY_QM>  (75) 
0

>  <FF_Energy>  (75) 
6.4

>  <QM_Energy>  (75) 
17.79

>  <source>  (75) 
ACEM_nNMA_04

>  <Index>  (75) 
28498

$$$$
ACEM-pdb1dt5-H-GLN-15:NMA-pdb1dt5-H-PRO-42
     RDKit          3D

 21 19  0  0  0  0  0  0  0  0999 V2000
   -5.9612    0.3691   -1.6151 C   0  0  0  0  0  0  0  0  0  0  0  0
   -6.3063    1.3020   -1.6767 H   0  0  0  0  0  0  0  0  0  0  0  0
   -6.6868   -0.2443   -1.3137 H   0  0  0  0  0  0  0  0  0  0  0  0
   -5.6214    0.0538   -2.6016 H   0  0  0  0  0  0  0  0  0  0  0  0
   -4.8400    0.3364   -0.5833 C   0  0  0  0  0  0  0  0  0  0  0  0
   -3.6383   -0.0109   -1.0328 N   0  0  0  0  0  0  0  0  0  0  0  0
   -2.8391   -0.0421   -0.4064 H   0  0  0  0  0  0  0  0  0  0  0  0
   -3.5315   -0.2480   -2.0164 H   0  0  0  0  0  0  0  0  0  0  0  0
   -5.0703    0.6201    0.6011 O   0  0  0  0  0  0  0  0  0  0  0  0
   -1.1168   -2.1662    0.0492 C   0  0  0  0  0  0  0  0  0  0  0  0
   -0.5934   -2.4780    0.8621 H   0  0  0  0  0  0  0  0  0  0  0  0
   -0.6934   -2.6149   -0.8494 H   0  0  0  0  0  0  0  0  0  0  0  0
   -2.1376   -2.5216    0.1893 H   0  0  0  0  0  0  0  0  0  0  0  0
   -1.1153   -0.7160   -0.0000 N   0  0  0  0  0  0  0  0  0  0  0  0
   -1.9932   -0.1449   -0.0384 H   0  0  0  0  0  0  0  0  0  0  0  0
    0.0000    0.0000    0.0000 C   0  0  0  0  0  0  0  0  0  0  0  0
    1.1153   -0.5207    0.0000 O   0  0  0  0  0  0  0  0  0  0  0  0
   -0.1333    1.5047   -0.0695 C   0  0  0  0  0  0  0  0  0  0  0  0
    0.7425    1.9288   -0.3744 H   0  0  0  0  0  0  0  0  0  0  0  0
   -0.9586    1.8332   -0.7012 H   0  0  0  0  0  0  0  0  0  0  0  0
   -0.3652    1.8863    0.9248 H   0  0  0  0  0  0  0  0  0  0  0  0
  1  5  1  0
  5  6  1  0
  5  9  2  0
  1  2  1  0
  1  3  1  0
  1  4  1  0
  6  7  1  0
  6  8  1  0
 10 14  1  0
 14 16  1  0
 16 17  2  0
 16 18  1  0
 10 11  1  0
 10 12  1  0
 10 13  1  0
 14 15  1  0
 18 19  1  0
 18 20  1  0
 18 21  1  0
M  END
>  <PDB_ID>  (76) 
pdb1dt5

>  <RESIDUE_NAME>  (76) 
GLN   PRO

>  <FRAG_NAME>  (76) 
ACEM   NMA

>  <FRAG_ATOM_NUM>  (76) 
fragi: 9  fragj: 12

>  <atom.prop.CHAIN_ID>  (76) 
A A A A A A A A A Z Z Z Z Z Z Z Z Z Z Z Z

>  <atom.prop.IS_HEAVY_ATOM>  (76) 
1 0 0 0 1 1 0 0 1 1 0 0 0 1 0 1 1 1 0 0 0

>  <DIFUSE_FUNC_ATOM>  (76) 
n/a

>  <FINAL_SINGLE_POINT_ENERGY>  (76) 
0

>  <NONCOV_INTER_ENERGY_QM>  (76) 
0

>  <FF_Energy>  (76) 
11.52

>  <QM_Energy>  (76) 
31.36

>  <source>  (76) 
ACEM_nNMA_05

>  <Index>  (76) 
1067

$$$$
ACEM-pdb2exr-A-GLN-101:NMA-pdb2exr-A-ILE-98
     RDKit          3D

 21 19  0  0  0  0  0  0  0  0999 V2000
   -6.1187   -1.4362   -0.1680 C   0  0  0  0  0  0  0  0  0  0  0  0
   -6.9147   -1.1042    0.3397 H   0  0  0  0  0  0  0  0  0  0  0  0
   -6.0271   -2.4236   -0.0337 H   0  0  0  0  0  0  0  0  0  0  0  0
   -6.2990   -1.2575   -1.2281 H   0  0  0  0  0  0  0  0  0  0  0  0
   -4.8762   -0.7479    0.3576 C   0  0  0  0  0  0  0  0  0  0  0  0
   -3.8219   -0.7230   -0.4632 N   0  0  0  0  0  0  0  0  0  0  0  0
   -2.9592   -0.2663   -0.1853 H   0  0  0  0  0  0  0  0  0  0  0  0
   -3.9020   -1.1697   -1.3731 H   0  0  0  0  0  0  0  0  0  0  0  0
   -4.8567   -0.2032    1.4675 O   0  0  0  0  0  0  0  0  0  0  0  0
   -1.0594   -2.1649    0.3229 C   0  0  0  0  0  0  0  0  0  0  0  0
   -0.0754   -2.4254    0.3410 H   0  0  0  0  0  0  0  0  0  0  0  0
   -1.5498   -2.8051   -0.4103 H   0  0  0  0  0  0  0  0  0  0  0  0
   -1.5214   -2.3060    1.3001 H   0  0  0  0  0  0  0  0  0  0  0  0
   -1.1062   -0.7273   -0.0000 N   0  0  0  0  0  0  0  0  0  0  0  0
   -1.9735   -0.2267   -0.2353 H   0  0  0  0  0  0  0  0  0  0  0  0
    0.0000    0.0000    0.0000 C   0  0  0  0  0  0  0  0  0  0  0  0
    1.1062   -0.5052   -0.0000 O   0  0  0  0  0  0  0  0  0  0  0  0
   -0.1550    1.5286    0.0012 C   0  0  0  0  0  0  0  0  0  0  0  0
    0.6048    1.8890   -0.5518 H   0  0  0  0  0  0  0  0  0  0  0  0
   -1.0749    1.8404   -0.4933 H   0  0  0  0  0  0  0  0  0  0  0  0
   -0.1211    1.8980    1.0262 H   0  0  0  0  0  0  0  0  0  0  0  0
  1  5  1  0
  5  6  1  0
  5  9  2  0
  1  2  1  0
  1  3  1  0
  1  4  1  0
  6  7  1  0
  6  8  1  0
 10 14  1  0
 14 16  1  0
 16 17  2  0
 16 18  1  0
 10 11  1  0
 10 12  1  0
 10 13  1  0
 14 15  1  0
 18 19  1  0
 18 20  1  0
 18 21  1  0
M  END
>  <PDB_ID>  (77) 
pdb2exr

>  <RESIDUE_NAME>  (77) 
GLN   ILE

>  <FRAG_NAME>  (77) 
ACEM   NMA

>  <FRAG_ATOM_NUM>  (77) 
fragi: 9  fragj: 12

>  <atom.prop.CHAIN_ID>  (77) 
A A A A A A A A A Z Z Z Z Z Z Z Z Z Z Z Z

>  <atom.prop.IS_HEAVY_ATOM>  (77) 
1 0 0 0 1 1 0 0 1 1 0 0 0 1 0 1 1 1 0 0 0

>  <DIFUSE_FUNC_ATOM>  (77) 
n/a

>  <FINAL_SINGLE_POINT_ENERGY>  (77) 
0

>  <NONCOV_INTER_ENERGY_QM>  (77) 
0

>  <FF_Energy>  (77) 
12.36

>  <QM_Energy>  (77) 
27.94

>  <source>  (77) 
ACEM_nNMA_05

>  <Index>  (77) 
4411

$$$$
ACEM-pdb1e8g-A-ASN-352:NMA-pdb1e8g-A-LEU-348
     RDKit          3D

 21 19  0  0  0  0  0  0  0  0999 V2000
   -5.8605    0.8421   -1.0906 C   0  0  0  0  0  0  0  0  0  0  0  0
   -6.3642    1.1668   -1.8809 H   0  0  0  0  0  0  0  0  0  0  0  0
   -5.7902    1.5516   -0.4011 H   0  0  0  0  0  0  0  0  0  0  0  0
   -6.4010   -0.0018   -0.6618 H   0  0  0  0  0  0  0  0  0  0  0  0
   -4.4557    0.4536   -1.5346 C   0  0  0  0  0  0  0  0  0  0  0  0
   -3.5884    0.1186   -0.5800 N   0  0  0  0  0  0  0  0  0  0  0  0
   -3.8900    0.1281    0.3772 H   0  0  0  0  0  0  0  0  0  0  0  0
   -2.6577   -0.1385   -0.8126 H   0  0  0  0  0  0  0  0  0  0  0  0
   -4.1431    0.3792   -2.7339 O   0  0  0  0  0  0  0  0  0  0  0  0
   -1.0845   -2.1539   -0.0294 C   0  0  0  0  0  0  0  0  0  0  0  0
   -0.1943   -2.4663    0.2627 H   0  0  0  0  0  0  0  0  0  0  0  0
   -1.8013   -2.5221    0.5412 H   0  0  0  0  0  0  0  0  0  0  0  0
   -1.2537   -2.4527   -1.0639 H   0  0  0  0  0  0  0  0  0  0  0  0
   -1.1308   -0.6874    0.0000 N   0  0  0  0  0  0  0  0  0  0  0  0
   -1.9941   -0.1406    0.0214 H   0  0  0  0  0  0  0  0  0  0  0  0
    0.0000    0.0000    0.0000 C   0  0  0  0  0  0  0  0  0  0  0  0
    1.1308   -0.5164    0.0000 O   0  0  0  0  0  0  0  0  0  0  0  0
   -0.0938    1.5207   -0.0132 C   0  0  0  0  0  0  0  0  0  0  0  0
   -0.6335    1.8117    0.7678 H   0  0  0  0  0  0  0  0  0  0  0  0
    0.9178    1.9128    0.0918 H   0  0  0  0  0  0  0  0  0  0  0  0
   -0.5435    1.8699   -0.9427 H   0  0  0  0  0  0  0  0  0  0  0  0
  1  5  1  0
  5  6  1  0
  5  9  2  0
  1  2  1  0
  1  3  1  0
  1  4  1  0
  6  7  1  0
  6  8  1  0
 10 14  1  0
 14 16  1  0
 16 17  2  0
 16 18  1  0
 10 11  1  0
 10 12  1  0
 10 13  1  0
 14 15  1  0
 18 19  1  0
 18 20  1  0
 18 21  1  0
M  END
>  <PDB_ID>  (78) 
pdb1e8g

>  <RESIDUE_NAME>  (78) 
ASN   LEU

>  <FRAG_NAME>  (78) 
ACEM   NMA

>  <FRAG_ATOM_NUM>  (78) 
fragi: 9  fragj: 12

>  <atom.prop.CHAIN_ID>  (78) 
A A A A A A A A A Z Z Z Z Z Z Z Z Z Z Z Z

>  <atom.prop.IS_HEAVY_ATOM>  (78) 
1 0 0 0 1 1 0 0 1 1 0 0 0 1 0 1 1 1 0 0 0

>  <DIFUSE_FUNC_ATOM>  (78) 
n/a

>  <FINAL_SINGLE_POINT_ENERGY>  (78) 
0

>  <NONCOV_INTER_ENERGY_QM>  (78) 
0

>  <FF_Energy>  (78) 
12.17

>  <QM_Energy>  (78) 
26.45

>  <source>  (78) 
ACEM_nNMA_05

>  <Index>  (78) 
7278

$$$$
ACEM-pdb2ewc-E-ASN-28:NMA-pdb2ewc-F-ALA-93
     RDKit          3D

 21 19  0  0  0  0  0  0  0  0999 V2000
   -4.2438    1.8074   -0.7310 C   0  0  0  0  0  0  0  0  0  0  0  0
   -3.5436    2.4734   -0.4618 H   0  0  0  0  0  0  0  0  0  0  0  0
   -5.1065    2.2898   -0.9022 H   0  0  0  0  0  0  0  0  0  0  0  0
   -3.9264    1.3441   -1.6651 H   0  0  0  0  0  0  0  0  0  0  0  0
   -4.4455    0.8317    0.3913 C   0  0  0  0  0  0  0  0  0  0  0  0
   -3.3780    0.2716    0.8870 N   0  0  0  0  0  0  0  0  0  0  0  0
   -2.4653    0.4999    0.5256 H   0  0  0  0  0  0  0  0  0  0  0  0
   -3.4475   -0.3944    1.6369 H   0  0  0  0  0  0  0  0  0  0  0  0
   -5.5745    0.6076    0.8278 O   0  0  0  0  0  0  0  0  0  0  0  0
   -0.9642   -2.1811    0.0113 C   0  0  0  0  0  0  0  0  0  0  0  0
   -0.1309   -2.4367   -0.5207 H   0  0  0  0  0  0  0  0  0  0  0  0
   -1.8173   -2.7096   -0.4141 H   0  0  0  0  0  0  0  0  0  0  0  0
   -0.7760   -2.5368    1.0243 H   0  0  0  0  0  0  0  0  0  0  0  0
   -1.0992   -0.7390   -0.0000 N   0  0  0  0  0  0  0  0  0  0  0  0
   -1.9842   -0.2335   -0.0076 H   0  0  0  0  0  0  0  0  0  0  0  0
    0.0000    0.0000    0.0000 C   0  0  0  0  0  0  0  0  0  0  0  0
    1.0992   -0.5167    0.0000 O   0  0  0  0  0  0  0  0  0  0  0  0
   -0.1376    1.5313    0.0308 C   0  0  0  0  0  0  0  0  0  0  0  0
   -0.9312    1.7643    0.5718 H   0  0  0  0  0  0  0  0  0  0  0  0
    0.7565    1.9161    0.5212 H   0  0  0  0  0  0  0  0  0  0  0  0
   -0.2061    1.9363   -0.9788 H   0  0  0  0  0  0  0  0  0  0  0  0
  1  5  1  0
  5  6  1  0
  5  9  2  0
  1  2  1  0
  1  3  1  0
  1  4  1  0
  6  7  1  0
  6  8  1  0
 10 14  1  0
 14 16  1  0
 16 17  2  0
 16 18  1  0
 10 11  1  0
 10 12  1  0
 10 13  1  0
 14 15  1  0
 18 19  1  0
 18 20  1  0
 18 21  1  0
M  END
>  <PDB_ID>  (79) 
pdb2ewc

>  <RESIDUE_NAME>  (79) 
ASN   ALA

>  <FRAG_NAME>  (79) 
ACEM   NMA

>  <FRAG_ATOM_NUM>  (79) 
fragi: 9  fragj: 12

>  <atom.prop.CHAIN_ID>  (79) 
A A A A A A A A A Z Z Z Z Z Z Z Z Z Z Z Z

>  <atom.prop.IS_HEAVY_ATOM>  (79) 
1 0 0 0 1 1 0 0 1 1 0 0 0 1 0 1 1 1 0 0 0

>  <DIFUSE_FUNC_ATOM>  (79) 
n/a

>  <FINAL_SINGLE_POINT_ENERGY>  (79) 
0

>  <NONCOV_INTER_ENERGY_QM>  (79) 
0

>  <FF_Energy>  (79) 
16.0

>  <QM_Energy>  (79) 
28.87

>  <source>  (79) 
ACEM_nNMA_05

>  <Index>  (79) 
7481

$$$$
ACEM-pdb1edq-A-ASN-183:NMA-pdb1edq-A-PRO-151
     RDKit          3D

 21 19  0  0  0  0  0  0  0  0999 V2000
   -5.2894    0.1705    2.8464 C   0  0  0  0  0  0  0  0  0  0  0  0
   -5.8065    0.9511    3.1722 H   0  0  0  0  0  0  0  0  0  0  0  0
   -5.1044   -0.4657    3.5827 H   0  0  0  0  0  0  0  0  0  0  0  0
   -5.8790   -0.3423    2.0864 H   0  0  0  0  0  0  0  0  0  0  0  0
   -3.9622    0.6664    2.2875 C   0  0  0  0  0  0  0  0  0  0  0  0
   -3.6264    0.2585    1.0726 N   0  0  0  0  0  0  0  0  0  0  0  0
   -4.2495   -0.3481    0.5678 H   0  0  0  0  0  0  0  0  0  0  0  0
   -2.7675    0.5471    0.6594 H   0  0  0  0  0  0  0  0  0  0  0  0
   -3.2685    1.4168    2.9769 O   0  0  0  0  0  0  0  0  0  0  0  0
   -1.1479   -2.1696   -0.1268 C   0  0  0  0  0  0  0  0  0  0  0  0
   -0.2193   -2.4887   -0.3586 H   0  0  0  0  0  0  0  0  0  0  0  0
   -1.8216   -2.4802   -0.9254 H   0  0  0  0  0  0  0  0  0  0  0  0
   -1.4774   -2.6446    0.7973 H   0  0  0  0  0  0  0  0  0  0  0  0
   -1.1170   -0.7221   -0.0000 N   0  0  0  0  0  0  0  0  0  0  0  0
   -1.9935   -0.1428    0.1017 H   0  0  0  0  0  0  0  0  0  0  0  0
    0.0000    0.0000    0.0000 C   0  0  0  0  0  0  0  0  0  0  0  0
    1.1170   -0.5418   -0.0000 O   0  0  0  0  0  0  0  0  0  0  0  0
   -0.1682    1.5051    0.0470 C   0  0  0  0  0  0  0  0  0  0  0  0
   -1.1452    1.7498    0.1947 H   0  0  0  0  0  0  0  0  0  0  0  0
    0.4664    1.9777    0.7967 H   0  0  0  0  0  0  0  0  0  0  0  0
    0.0962    1.9644   -0.9054 H   0  0  0  0  0  0  0  0  0  0  0  0
  1  5  1  0
  5  6  1  0
  5  9  2  0
  1  2  1  0
  1  3  1  0
  1  4  1  0
  6  7  1  0
  6  8  1  0
 10 14  1  0
 14 16  1  0
 16 17  2  0
 16 18  1  0
 10 11  1  0
 10 12  1  0
 10 13  1  0
 14 15  1  0
 18 19  1  0
 18 20  1  0
 18 21  1  0
M  END
>  <PDB_ID>  (80) 
pdb1edq

>  <RESIDUE_NAME>  (80) 
ASN   PRO

>  <FRAG_NAME>  (80) 
ACEM   NMA

>  <FRAG_ATOM_NUM>  (80) 
fragi: 9  fragj: 12

>  <atom.prop.CHAIN_ID>  (80) 
A A A A A A A A A Z Z Z Z Z Z Z Z Z Z Z Z

>  <atom.prop.IS_HEAVY_ATOM>  (80) 
1 0 0 0 1 1 0 0 1 1 0 0 0 1 0 1 1 1 0 0 0

>  <DIFUSE_FUNC_ATOM>  (80) 
n/a

>  <FINAL_SINGLE_POINT_ENERGY>  (80) 
0

>  <NONCOV_INTER_ENERGY_QM>  (80) 
0

>  <FF_Energy>  (80) 
6.14

>  <QM_Energy>  (80) 
16.84

>  <source>  (80) 
ACEM_nNMA_05

>  <Index>  (80) 
10477

$$$$
ACEM-pdb1ef1-B-GLN-95:NMA-pdb1ef1-B-LEU-39
     RDKit          3D

 21 19  0  0  0  0  0  0  0  0999 V2000
   -6.1018    0.7047    0.1183 C   0  0  0  0  0  0  0  0  0  0  0  0
   -6.6121    0.7670    0.9723 H   0  0  0  0  0  0  0  0  0  0  0  0
   -6.3996   -0.0917   -0.4003 H   0  0  0  0  0  0  0  0  0  0  0  0
   -6.2775    1.6043   -0.4716 H   0  0  0  0  0  0  0  0  0  0  0  0
   -4.6480    0.5602    0.4339 C   0  0  0  0  0  0  0  0  0  0  0  0
   -3.9411   -0.2287   -0.3503 N   0  0  0  0  0  0  0  0  0  0  0  0
   -2.9377   -0.3681   -0.2077 H   0  0  0  0  0  0  0  0  0  0  0  0
   -4.4108   -0.7139   -1.1196 H   0  0  0  0  0  0  0  0  0  0  0  0
   -4.1779    1.0981    1.4197 O   0  0  0  0  0  0  0  0  0  0  0  0
   -1.1609   -2.1808   -0.0765 C   0  0  0  0  0  0  0  0  0  0  0  0
   -0.2714   -2.5434    0.2625 H   0  0  0  0  0  0  0  0  0  0  0  0
   -1.3280   -2.5832   -1.0757 H   0  0  0  0  0  0  0  0  0  0  0  0
   -1.8103   -2.6106    0.6862 H   0  0  0  0  0  0  0  0  0  0  0  0
   -1.1254   -0.7090    0.0000 N   0  0  0  0  0  0  0  0  0  0  0  0
   -1.9983   -0.1310    0.0599 H   0  0  0  0  0  0  0  0  0  0  0  0
    0.0000    0.0000    0.0000 C   0  0  0  0  0  0  0  0  0  0  0  0
    1.1254   -0.5132   -0.0000 O   0  0  0  0  0  0  0  0  0  0  0  0
   -0.1733    1.5234    0.0426 C   0  0  0  0  0  0  0  0  0  0  0  0
   -1.1650    1.7272    0.0192 H   0  0  0  0  0  0  0  0  0  0  0  0
    0.2510    1.9724    0.9407 H   0  0  0  0  0  0  0  0  0  0  0  0
    0.2782    1.9866   -0.8348 H   0  0  0  0  0  0  0  0  0  0  0  0
  1  5  1  0
  5  6  1  0
  5  9  2  0
  1  2  1  0
  1  3  1  0
  1  4  1  0
  6  7  1  0
  6  8  1  0
 10 14  1  0
 14 16  1  0
 16 17  2  0
 16 18  1  0
 10 11  1  0
 10 12  1  0
 10 13  1  0
 14 15  1  0
 18 19  1  0
 18 20  1  0
 18 21  1  0
M  END
>  <PDB_ID>  (81) 
pdb1ef1

>  <RESIDUE_NAME>  (81) 
GLN   LEU

>  <FRAG_NAME>  (81) 
ACEM   NMA

>  <FRAG_ATOM_NUM>  (81) 
fragi: 9  fragj: 12

>  <atom.prop.CHAIN_ID>  (81) 
A A A A A A A A A Z Z Z Z Z Z Z Z Z Z Z Z

>  <atom.prop.IS_HEAVY_ATOM>  (81) 
1 0 0 0 1 1 0 0 1 1 0 0 0 1 0 1 1 1 0 0 0

>  <DIFUSE_FUNC_ATOM>  (81) 
n/a

>  <FINAL_SINGLE_POINT_ENERGY>  (81) 
0

>  <NONCOV_INTER_ENERGY_QM>  (81) 
0

>  <FF_Energy>  (81) 
5.62

>  <QM_Energy>  (81) 
23.06

>  <source>  (81) 
ACEM_nNMA_05

>  <Index>  (81) 
14042

$$$$
ACEM-pdb2faw-A-GLN-105:NMA-pdb2faw-A-LYS-137
     RDKit          3D

 21 19  0  0  0  0  0  0  0  0999 V2000
   -4.0281    1.1113    3.5357 C   0  0  0  0  0  0  0  0  0  0  0  0
   -4.7662    1.7788    3.6467 H   0  0  0  0  0  0  0  0  0  0  0  0
   -3.2764    1.3449    4.1549 H   0  0  0  0  0  0  0  0  0  0  0  0
   -4.4074    0.1261    3.8067 H   0  0  0  0  0  0  0  0  0  0  0  0
   -3.5306    1.1671    2.1213 C   0  0  0  0  0  0  0  0  0  0  0  0
   -2.5016    0.4006    1.8245 N   0  0  0  0  0  0  0  0  0  0  0  0
   -2.1124    0.3718    0.8785 H   0  0  0  0  0  0  0  0  0  0  0  0
   -2.0838   -0.1770    2.5577 H   0  0  0  0  0  0  0  0  0  0  0  0
   -4.0745    1.8967    1.3054 O   0  0  0  0  0  0  0  0  0  0  0  0
   -1.1173   -2.1061   -0.2400 C   0  0  0  0  0  0  0  0  0  0  0  0
   -0.4649   -2.5419    0.3834 H   0  0  0  0  0  0  0  0  0  0  0  0
   -0.7904   -2.2789   -1.2654 H   0  0  0  0  0  0  0  0  0  0  0  0
   -2.1161   -2.5193   -0.1000 H   0  0  0  0  0  0  0  0  0  0  0  0
   -1.1222   -0.6931    0.0000 N   0  0  0  0  0  0  0  0  0  0  0  0
   -1.9804   -0.1348    0.1842 H   0  0  0  0  0  0  0  0  0  0  0  0
    0.0000    0.0000    0.0000 C   0  0  0  0  0  0  0  0  0  0  0  0
    1.1222   -0.5075   -0.0000 O   0  0  0  0  0  0  0  0  0  0  0  0
   -0.1713    1.4855   -0.0551 C   0  0  0  0  0  0  0  0  0  0  0  0
   -1.0090    1.7392    0.4134 H   0  0  0  0  0  0  0  0  0  0  0  0
    0.6798    1.9087    0.4785 H   0  0  0  0  0  0  0  0  0  0  0  0
   -0.1297    1.7530   -1.1109 H   0  0  0  0  0  0  0  0  0  0  0  0
  1  5  1  0
  5  6  1  0
  5  9  2  0
  1  2  1  0
  1  3  1  0
  1  4  1  0
  6  7  1  0
  6  8  1  0
 10 14  1  0
 14 16  1  0
 16 17  2  0
 16 18  1  0
 10 11  1  0
 10 12  1  0
 10 13  1  0
 14 15  1  0
 18 19  1  0
 18 20  1  0
 18 21  1  0
M  END
>  <PDB_ID>  (82) 
pdb2faw

>  <RESIDUE_NAME>  (82) 
GLN   LYS

>  <FRAG_NAME>  (82) 
ACEM   NMA

>  <FRAG_ATOM_NUM>  (82) 
fragi: 9  fragj: 12

>  <atom.prop.CHAIN_ID>  (82) 
A A A A A A A A A Z Z Z Z Z Z Z Z Z Z Z Z

>  <atom.prop.IS_HEAVY_ATOM>  (82) 
1 0 0 0 1 1 0 0 1 1 0 0 0 1 0 1 1 1 0 0 0

>  <DIFUSE_FUNC_ATOM>  (82) 
n/a

>  <FINAL_SINGLE_POINT_ENERGY>  (82) 
0

>  <NONCOV_INTER_ENERGY_QM>  (82) 
0

>  <FF_Energy>  (82) 
25.61

>  <QM_Energy>  (82) 
47.77

>  <source>  (82) 
ACEM_nNMA_05

>  <Index>  (82) 
16745

$$$$
ACEM-pdb1ec7-B-ASN-82:NMA-pdb1ec7-D-GLY-139
     RDKit          3D

 21 19  0  0  0  0  0  0  0  0999 V2000
   -4.8754    1.9013   -2.7254 C   0  0  0  0  0  0  0  0  0  0  0  0
   -5.6348    2.4917   -2.4744 H   0  0  0  0  0  0  0  0  0  0  0  0
   -5.1603    1.2408   -3.4122 H   0  0  0  0  0  0  0  0  0  0  0  0
   -4.0972    2.5255   -3.1644 H   0  0  0  0  0  0  0  0  0  0  0  0
   -4.4177    1.1315   -1.4675 C   0  0  0  0  0  0  0  0  0  0  0  0
   -3.1207    0.8441   -1.3837 N   0  0  0  0  0  0  0  0  0  0  0  0
   -2.5031    1.1355   -2.1181 H   0  0  0  0  0  0  0  0  0  0  0  0
   -2.7666    0.3445   -0.5983 H   0  0  0  0  0  0  0  0  0  0  0  0
   -5.2122    0.7868   -0.5792 O   0  0  0  0  0  0  0  0  0  0  0  0
   -1.0982   -2.1467    0.0502 C   0  0  0  0  0  0  0  0  0  0  0  0
   -0.5423   -2.4329    0.8639 H   0  0  0  0  0  0  0  0  0  0  0  0
   -0.6656   -2.6378   -0.8214 H   0  0  0  0  0  0  0  0  0  0  0  0
   -2.0675   -2.5547    0.3365 H   0  0  0  0  0  0  0  0  0  0  0  0
   -1.1158   -0.7145   -0.0000 N   0  0  0  0  0  0  0  0  0  0  0  0
   -1.9904   -0.1440   -0.0396 H   0  0  0  0  0  0  0  0  0  0  0  0
    0.0000    0.0000    0.0000 C   0  0  0  0  0  0  0  0  0  0  0  0
    1.1158   -0.5131    0.0000 O   0  0  0  0  0  0  0  0  0  0  0  0
   -0.2153    1.5192    0.0015 C   0  0  0  0  0  0  0  0  0  0  0  0
   -0.6882    1.7796    0.8703 H   0  0  0  0  0  0  0  0  0  0  0  0
   -0.8651    1.7553   -0.7517 H   0  0  0  0  0  0  0  0  0  0  0  0
    0.6950    2.1092   -0.1063 H   0  0  0  0  0  0  0  0  0  0  0  0
  1  5  1  0
  5  6  1  0
  5  9  2  0
  1  2  1  0
  1  3  1  0
  1  4  1  0
  6  7  1  0
  6  8  1  0
 10 14  1  0
 14 16  1  0
 16 17  2  0
 16 18  1  0
 10 11  1  0
 10 12  1  0
 10 13  1  0
 14 15  1  0
 18 19  1  0
 18 20  1  0
 18 21  1  0
M  END
>  <PDB_ID>  (83) 
pdb1ec7

>  <RESIDUE_NAME>  (83) 
ASN   GLY

>  <FRAG_NAME>  (83) 
ACEM   NMA

>  <FRAG_ATOM_NUM>  (83) 
fragi: 9  fragj: 12

>  <atom.prop.CHAIN_ID>  (83) 
A A A A A A A A A Z Z Z Z Z Z Z Z Z Z Z Z

>  <atom.prop.IS_HEAVY_ATOM>  (83) 
1 0 0 0 1 1 0 0 1 1 0 0 0 1 0 1 1 1 0 0 0

>  <DIFUSE_FUNC_ATOM>  (83) 
n/a

>  <FINAL_SINGLE_POINT_ENERGY>  (83) 
0

>  <NONCOV_INTER_ENERGY_QM>  (83) 
0

>  <FF_Energy>  (83) 
9.46

>  <QM_Energy>  (83) 
20.94

>  <source>  (83) 
ACEM_nNMA_05

>  <Index>  (83) 
16963

$$$$
ACEM-pdb2fbd-B-ASN-72:NMA-pdb2fbd-B-HIE-75
     RDKit          3D

 21 19  0  0  0  0  0  0  0  0999 V2000
   -4.2855    2.6192   -2.1330 C   0  0  0  0  0  0  0  0  0  0  0  0
   -4.9964    2.2463   -2.7204 H   0  0  0  0  0  0  0  0  0  0  0  0
   -3.8019    3.3540   -2.5989 H   0  0  0  0  0  0  0  0  0  0  0  0
   -4.7555    3.0278   -1.2385 H   0  0  0  0  0  0  0  0  0  0  0  0
   -3.2966    1.5175   -1.8094 C   0  0  0  0  0  0  0  0  0  0  0  0
   -3.3267    1.0384   -0.5784 N   0  0  0  0  0  0  0  0  0  0  0  0
   -3.9860    1.4008    0.0853 H   0  0  0  0  0  0  0  0  0  0  0  0
   -2.6952    0.3134   -0.3028 H   0  0  0  0  0  0  0  0  0  0  0  0
   -2.5133    1.1212   -2.6456 O   0  0  0  0  0  0  0  0  0  0  0  0
   -1.0417   -2.1796   -0.1311 C   0  0  0  0  0  0  0  0  0  0  0  0
   -0.2759   -2.3993   -0.7423 H   0  0  0  0  0  0  0  0  0  0  0  0
   -1.9675   -2.5578   -0.5649 H   0  0  0  0  0  0  0  0  0  0  0  0
   -0.8404   -2.6566    0.8281 H   0  0  0  0  0  0  0  0  0  0  0  0
   -1.1155   -0.7208   -0.0000 N   0  0  0  0  0  0  0  0  0  0  0  0
   -1.9901   -0.1955    0.0950 H   0  0  0  0  0  0  0  0  0  0  0  0
    0.0000    0.0000    0.0000 C   0  0  0  0  0  0  0  0  0  0  0  0
    1.1155   -0.5076   -0.0000 O   0  0  0  0  0  0  0  0  0  0  0  0
   -0.1654    1.5165    0.0091 C   0  0  0  0  0  0  0  0  0  0  0  0
   -0.5979    1.7900   -0.8559 H   0  0  0  0  0  0  0  0  0  0  0  0
   -0.8096    1.8248    0.8326 H   0  0  0  0  0  0  0  0  0  0  0  0
    0.8016    2.0153    0.0737 H   0  0  0  0  0  0  0  0  0  0  0  0
  1  5  1  0
  5  6  1  0
  5  9  2  0
  1  2  1  0
  1  3  1  0
  1  4  1  0
  6  7  1  0
  6  8  1  0
 10 14  1  0
 14 16  1  0
 16 17  2  0
 16 18  1  0
 10 11  1  0
 10 12  1  0
 10 13  1  0
 14 15  1  0
 18 19  1  0
 18 20  1  0
 18 21  1  0
M  END
>  <PDB_ID>  (84) 
pdb2fbd

>  <RESIDUE_NAME>  (84) 
ASN   HIE

>  <FRAG_NAME>  (84) 
ACEM   NMA

>  <FRAG_ATOM_NUM>  (84) 
fragi: 9  fragj: 12

>  <atom.prop.CHAIN_ID>  (84) 
A A A A A A A A A Z Z Z Z Z Z Z Z Z Z Z Z

>  <atom.prop.IS_HEAVY_ATOM>  (84) 
1 0 0 0 1 1 0 0 1 1 0 0 0 1 0 1 1 1 0 0 0

>  <DIFUSE_FUNC_ATOM>  (84) 
n/a

>  <FINAL_SINGLE_POINT_ENERGY>  (84) 
0

>  <NONCOV_INTER_ENERGY_QM>  (84) 
0

>  <FF_Energy>  (84) 
10.14

>  <QM_Energy>  (84) 
28.63

>  <source>  (84) 
ACEM_nNMA_05

>  <Index>  (84) 
17294

$$$$
ACEM-pdb1efu-C-GLN-290:NMA-pdb1efu-C-ILE-286
     RDKit          3D

 21 19  0  0  0  0  0  0  0  0999 V2000
   -5.3670   -0.0782    0.3722 C   0  0  0  0  0  0  0  0  0  0  0  0
   -6.2689    0.0827    0.7763 H   0  0  0  0  0  0  0  0  0  0  0  0
   -5.0188   -0.9645    0.6820 H   0  0  0  0  0  0  0  0  0  0  0  0
   -5.4664   -0.0990   -0.7131 H   0  0  0  0  0  0  0  0  0  0  0  0
   -4.4273    1.0020    0.8474 C   0  0  0  0  0  0  0  0  0  0  0  0
   -3.1340    0.7182    0.8164 N   0  0  0  0  0  0  0  0  0  0  0  0
   -2.4371    1.4020    1.1094 H   0  0  0  0  0  0  0  0  0  0  0  0
   -2.8386   -0.2039    0.4947 H   0  0  0  0  0  0  0  0  0  0  0  0
   -4.8587    2.0838    1.2374 O   0  0  0  0  0  0  0  0  0  0  0  0
   -1.0751   -2.1685    0.0454 C   0  0  0  0  0  0  0  0  0  0  0  0
   -0.1365   -2.4852   -0.2133 H   0  0  0  0  0  0  0  0  0  0  0  0
   -1.8070   -2.6644   -0.5922 H   0  0  0  0  0  0  0  0  0  0  0  0
   -1.1919   -2.5197    1.0707 H   0  0  0  0  0  0  0  0  0  0  0  0
   -1.1205   -0.7143   -0.0000 N   0  0  0  0  0  0  0  0  0  0  0  0
   -1.9937   -0.1643   -0.0342 H   0  0  0  0  0  0  0  0  0  0  0  0
    0.0000    0.0000    0.0000 C   0  0  0  0  0  0  0  0  0  0  0  0
    1.1205   -0.5139    0.0000 O   0  0  0  0  0  0  0  0  0  0  0  0
   -0.1491    1.5109   -0.0399 C   0  0  0  0  0  0  0  0  0  0  0  0
   -1.0860    1.7146    0.2295 H   0  0  0  0  0  0  0  0  0  0  0  0
    0.4913    1.9397    0.7309 H   0  0  0  0  0  0  0  0  0  0  0  0
    0.1336    1.8464   -1.0377 H   0  0  0  0  0  0  0  0  0  0  0  0
  1  5  1  0
  5  6  1  0
  5  9  2  0
  1  2  1  0
  1  3  1  0
  1  4  1  0
  6  7  1  0
  6  8  1  0
 10 14  1  0
 14 16  1  0
 16 17  2  0
 16 18  1  0
 10 11  1  0
 10 12  1  0
 10 13  1  0
 14 15  1  0
 18 19  1  0
 18 20  1  0
 18 21  1  0
M  END
>  <PDB_ID>  (85) 
pdb1efu

>  <RESIDUE_NAME>  (85) 
GLN   ILE

>  <FRAG_NAME>  (85) 
ACEM   NMA

>  <FRAG_ATOM_NUM>  (85) 
fragi: 9  fragj: 12

>  <atom.prop.CHAIN_ID>  (85) 
A A A A A A A A A Z Z Z Z Z Z Z Z Z Z Z Z

>  <atom.prop.IS_HEAVY_ATOM>  (85) 
1 0 0 0 1 1 0 0 1 1 0 0 0 1 0 1 1 1 0 0 0

>  <DIFUSE_FUNC_ATOM>  (85) 
n/a

>  <FINAL_SINGLE_POINT_ENERGY>  (85) 
0

>  <NONCOV_INTER_ENERGY_QM>  (85) 
0

>  <FF_Energy>  (85) 
19.04

>  <QM_Energy>  (85) 
36.52

>  <source>  (85) 
ACEM_nNMA_05

>  <Index>  (85) 
17692

$$$$
ACEM-pdb2ffu-A-GLN-83:NMA-pdb2ffu-A-ARG-113
     RDKit          3D

 21 19  0  0  0  0  0  0  0  0999 V2000
   -5.7616    1.1411    1.3428 C   0  0  0  0  0  0  0  0  0  0  0  0
   -6.5412    1.3470    0.7555 H   0  0  0  0  0  0  0  0  0  0  0  0
   -5.6209    1.8822    1.9951 H   0  0  0  0  0  0  0  0  0  0  0  0
   -5.9623    0.2197    1.8897 H   0  0  0  0  0  0  0  0  0  0  0  0
   -4.5266    1.0180    0.4777 C   0  0  0  0  0  0  0  0  0  0  0  0
   -3.4312    0.5475    1.0686 N   0  0  0  0  0  0  0  0  0  0  0  0
   -2.5677    0.4240    0.5470 H   0  0  0  0  0  0  0  0  0  0  0  0
   -3.4713    0.3113    2.0586 H   0  0  0  0  0  0  0  0  0  0  0  0
   -4.5571    1.3446   -0.7106 O   0  0  0  0  0  0  0  0  0  0  0  0
   -1.1181   -2.1724    0.0377 C   0  0  0  0  0  0  0  0  0  0  0  0
   -0.6272   -2.4615    0.8832 H   0  0  0  0  0  0  0  0  0  0  0  0
   -0.6238   -2.6424   -0.8125 H   0  0  0  0  0  0  0  0  0  0  0  0
   -2.1420   -2.5394    0.1088 H   0  0  0  0  0  0  0  0  0  0  0  0
   -1.1213   -0.7124    0.0000 N   0  0  0  0  0  0  0  0  0  0  0  0
   -1.9961   -0.1459   -0.0292 H   0  0  0  0  0  0  0  0  0  0  0  0
    0.0000    0.0000    0.0000 C   0  0  0  0  0  0  0  0  0  0  0  0
    1.1213   -0.5077    0.0000 O   0  0  0  0  0  0  0  0  0  0  0  0
   -0.1547    1.5141    0.0095 C   0  0  0  0  0  0  0  0  0  0  0  0
   -0.9468    1.7509    0.5489 H   0  0  0  0  0  0  0  0  0  0  0  0
    0.7416    1.8986    0.4963 H   0  0  0  0  0  0  0  0  0  0  0  0
   -0.2332    1.9142   -1.0013 H   0  0  0  0  0  0  0  0  0  0  0  0
  1  5  1  0
  5  6  1  0
  5  9  2  0
  1  2  1  0
  1  3  1  0
  1  4  1  0
  6  7  1  0
  6  8  1  0
 10 14  1  0
 14 16  1  0
 16 17  2  0
 16 18  1  0
 10 11  1  0
 10 12  1  0
 10 13  1  0
 14 15  1  0
 18 19  1  0
 18 20  1  0
 18 21  1  0
M  END
>  <PDB_ID>  (86) 
pdb2ffu

>  <RESIDUE_NAME>  (86) 
GLN   ARG

>  <FRAG_NAME>  (86) 
ACEM   NMA

>  <FRAG_ATOM_NUM>  (86) 
fragi: 9  fragj: 12

>  <atom.prop.CHAIN_ID>  (86) 
A A A A A A A A A Z Z Z Z Z Z Z Z Z Z Z Z

>  <atom.prop.IS_HEAVY_ATOM>  (86) 
1 0 0 0 1 1 0 0 1 1 0 0 0 1 0 1 1 1 0 0 0

>  <DIFUSE_FUNC_ATOM>  (86) 
n/a

>  <FINAL_SINGLE_POINT_ENERGY>  (86) 
0

>  <NONCOV_INTER_ENERGY_QM>  (86) 
0

>  <FF_Energy>  (86) 
9.44

>  <QM_Energy>  (86) 
25.74

>  <source>  (86) 
ACEM_nNMA_05

>  <Index>  (86) 
20567

$$$$
ACEM-pdb2fh5-A-GLN-19:NMA-pdb2fh5-A-THR-26
     RDKit          3D

 21 19  0  0  0  0  0  0  0  0999 V2000
   -4.5665    0.8940    3.3416 C   0  0  0  0  0  0  0  0  0  0  0  0
   -4.2755    1.1660    4.2547 H   0  0  0  0  0  0  0  0  0  0  0  0
   -5.1239    0.0705    3.3908 H   0  0  0  0  0  0  0  0  0  0  0  0
   -5.1667    1.6963    2.9123 H   0  0  0  0  0  0  0  0  0  0  0  0
   -3.3258    0.5930    2.5073 C   0  0  0  0  0  0  0  0  0  0  0  0
   -3.5421    0.1773    1.2615 N   0  0  0  0  0  0  0  0  0  0  0  0
   -2.7649   -0.0286    0.6427 H   0  0  0  0  0  0  0  0  0  0  0  0
   -4.5019    0.0691    0.9400 H   0  0  0  0  0  0  0  0  0  0  0  0
   -2.1847    0.7283    2.9813 O   0  0  0  0  0  0  0  0  0  0  0  0
   -1.0757   -2.1652   -0.0623 C   0  0  0  0  0  0  0  0  0  0  0  0
   -1.6240   -2.4824   -0.8915 H   0  0  0  0  0  0  0  0  0  0  0  0
   -0.1020   -2.4521   -0.3035 H   0  0  0  0  0  0  0  0  0  0  0  0
   -1.3987   -2.7431    0.8035 H   0  0  0  0  0  0  0  0  0  0  0  0
   -1.1282   -0.7182   -0.0000 N   0  0  0  0  0  0  0  0  0  0  0  0
   -1.9972   -0.1671    0.0462 H   0  0  0  0  0  0  0  0  0  0  0  0
    0.0000    0.0000    0.0000 C   0  0  0  0  0  0  0  0  0  0  0  0
    1.1282   -0.5187    0.0000 O   0  0  0  0  0  0  0  0  0  0  0  0
   -0.1706    1.5324    0.0038 C   0  0  0  0  0  0  0  0  0  0  0  0
    0.0643    1.8706   -0.9066 H   0  0  0  0  0  0  0  0  0  0  0  0
   -1.2104    1.7810    0.2159 H   0  0  0  0  0  0  0  0  0  0  0  0
    0.5166    1.9863    0.7178 H   0  0  0  0  0  0  0  0  0  0  0  0
  1  5  1  0
  5  6  1  0
  5  9  2  0
  1  2  1  0
  1  3  1  0
  1  4  1  0
  6  7  1  0
  6  8  1  0
 10 14  1  0
 14 16  1  0
 16 17  2  0
 16 18  1  0
 10 11  1  0
 10 12  1  0
 10 13  1  0
 14 15  1  0
 18 19  1  0
 18 20  1  0
 18 21  1  0
M  END
>  <PDB_ID>  (87) 
pdb2fh5

>  <RESIDUE_NAME>  (87) 
GLN   THR

>  <FRAG_NAME>  (87) 
ACEM   NMA

>  <FRAG_ATOM_NUM>  (87) 
fragi: 9  fragj: 12

>  <atom.prop.CHAIN_ID>  (87) 
A A A A A A A A A Z Z Z Z Z Z Z Z Z Z Z Z

>  <atom.prop.IS_HEAVY_ATOM>  (87) 
1 0 0 0 1 1 0 0 1 1 0 0 0 1 0 1 1 1 0 0 0

>  <DIFUSE_FUNC_ATOM>  (87) 
n/a

>  <FINAL_SINGLE_POINT_ENERGY>  (87) 
0

>  <NONCOV_INTER_ENERGY_QM>  (87) 
0

>  <FF_Energy>  (87) 
9.4

>  <QM_Energy>  (87) 
27.01

>  <source>  (87) 
ACEM_nNMA_05

>  <Index>  (87) 
21599

$$$$
ACEM-pdb1eq2-B-GLN-277:NMA-pdb1eq2-B-ARG-239
     RDKit          3D

 21 19  0  0  0  0  0  0  0  0999 V2000
   -2.4500    0.5293    3.4134 C   0  0  0  0  0  0  0  0  0  0  0  0
   -2.3979    1.2257    4.1341 H   0  0  0  0  0  0  0  0  0  0  0  0
   -1.5774    0.5092    2.9173 H   0  0  0  0  0  0  0  0  0  0  0  0
   -2.6073   -0.4433    3.8798 H   0  0  0  0  0  0  0  0  0  0  0  0
   -3.5466    0.9185    2.4461 C   0  0  0  0  0  0  0  0  0  0  0  0
   -3.3832    0.5477    1.1779 N   0  0  0  0  0  0  0  0  0  0  0  0
   -4.0844    0.7623    0.4759 H   0  0  0  0  0  0  0  0  0  0  0  0
   -2.5355    0.0422    0.9210 H   0  0  0  0  0  0  0  0  0  0  0  0
   -4.5254    1.5380    2.8276 O   0  0  0  0  0  0  0  0  0  0  0  0
   -1.0438   -2.1850   -0.0640 C   0  0  0  0  0  0  0  0  0  0  0  0
   -0.1760   -2.4901    0.3206 H   0  0  0  0  0  0  0  0  0  0  0  0
   -1.0855   -2.4901   -1.1097 H   0  0  0  0  0  0  0  0  0  0  0  0
   -1.8668   -2.6270    0.4976 H   0  0  0  0  0  0  0  0  0  0  0  0
   -1.1090   -0.7274    0.0000 N   0  0  0  0  0  0  0  0  0  0  0  0
   -1.9898   -0.1932    0.0472 H   0  0  0  0  0  0  0  0  0  0  0  0
    0.0000    0.0000    0.0000 C   0  0  0  0  0  0  0  0  0  0  0  0
    1.1090   -0.5091    0.0000 O   0  0  0  0  0  0  0  0  0  0  0  0
   -0.1551    1.5177    0.0175 C   0  0  0  0  0  0  0  0  0  0  0  0
   -1.1190    1.7408    0.1471 H   0  0  0  0  0  0  0  0  0  0  0  0
    0.4161    1.9203    0.8540 H   0  0  0  0  0  0  0  0  0  0  0  0
    0.2197    1.8874   -0.9369 H   0  0  0  0  0  0  0  0  0  0  0  0
  1  5  1  0
  5  6  1  0
  5  9  2  0
  1  2  1  0
  1  3  1  0
  1  4  1  0
  6  7  1  0
  6  8  1  0
 10 14  1  0
 14 16  1  0
 16 17  2  0
 16 18  1  0
 10 11  1  0
 10 12  1  0
 10 13  1  0
 14 15  1  0
 18 19  1  0
 18 20  1  0
 18 21  1  0
M  END
>  <PDB_ID>  (88) 
pdb1eq2

>  <RESIDUE_NAME>  (88) 
GLN   ARG

>  <FRAG_NAME>  (88) 
ACEM   NMA

>  <FRAG_ATOM_NUM>  (88) 
fragi: 9  fragj: 12

>  <atom.prop.CHAIN_ID>  (88) 
A A A A A A A A A Z Z Z Z Z Z Z Z Z Z Z Z

>  <atom.prop.IS_HEAVY_ATOM>  (88) 
1 0 0 0 1 1 0 0 1 1 0 0 0 1 0 1 1 1 0 0 0

>  <DIFUSE_FUNC_ATOM>  (88) 
n/a

>  <FINAL_SINGLE_POINT_ENERGY>  (88) 
0

>  <NONCOV_INTER_ENERGY_QM>  (88) 
0

>  <FF_Energy>  (88) 
7.41

>  <QM_Energy>  (88) 
20.44

>  <source>  (88) 
ACEM_nNMA_05

>  <Index>  (88) 
25791

$$$$
ACEM-pdb2fl1-C-ASN-144:NMA-pdb2fl1-C-ASN-205
     RDKit          3D

 21 19  0  0  0  0  0  0  0  0999 V2000
   -4.9093    1.9076    2.0882 C   0  0  0  0  0  0  0  0  0  0  0  0
   -5.7647    2.3401    1.8088 H   0  0  0  0  0  0  0  0  0  0  0  0
   -4.2324    2.6076    2.3073 H   0  0  0  0  0  0  0  0  0  0  0  0
   -5.1006    1.3263    2.9902 H   0  0  0  0  0  0  0  0  0  0  0  0
   -4.3878    1.0713    0.9322 C   0  0  0  0  0  0  0  0  0  0  0  0
   -3.2990    0.3527    1.1745 N   0  0  0  0  0  0  0  0  0  0  0  0
   -2.8721    0.3758    2.0799 H   0  0  0  0  0  0  0  0  0  0  0  0
   -2.9021   -0.2163    0.4525 H   0  0  0  0  0  0  0  0  0  0  0  0
   -4.9675    1.0537   -0.1611 O   0  0  0  0  0  0  0  0  0  0  0  0
   -1.0941   -2.1792   -0.0246 C   0  0  0  0  0  0  0  0  0  0  0  0
   -0.1337   -2.4856   -0.0719 H   0  0  0  0  0  0  0  0  0  0  0  0
   -1.6289   -2.5742   -0.8883 H   0  0  0  0  0  0  0  0  0  0  0  0
   -1.5388   -2.5939    0.8800 H   0  0  0  0  0  0  0  0  0  0  0  0
   -1.1198   -0.7198    0.0000 N   0  0  0  0  0  0  0  0  0  0  0  0
   -1.9960   -0.1628    0.0183 H   0  0  0  0  0  0  0  0  0  0  0  0
    0.0000    0.0000    0.0000 C   0  0  0  0  0  0  0  0  0  0  0  0
    1.1198   -0.5062    0.0000 O   0  0  0  0  0  0  0  0  0  0  0  0
   -0.1709    1.5168    0.0092 C   0  0  0  0  0  0  0  0  0  0  0  0
   -1.0208    1.7131    0.5207 H   0  0  0  0  0  0  0  0  0  0  0  0
    0.6426    2.0214    0.5304 H   0  0  0  0  0  0  0  0  0  0  0  0
   -0.2390    1.8869   -1.0138 H   0  0  0  0  0  0  0  0  0  0  0  0
  1  5  1  0
  5  6  1  0
  5  9  2  0
  1  2  1  0
  1  3  1  0
  1  4  1  0
  6  7  1  0
  6  8  1  0
 10 14  1  0
 14 16  1  0
 16 17  2  0
 16 18  1  0
 10 11  1  0
 10 12  1  0
 10 13  1  0
 14 15  1  0
 18 19  1  0
 18 20  1  0
 18 21  1  0
M  END
>  <PDB_ID>  (89) 
pdb2fl1

>  <RESIDUE_NAME>  (89) 
ASN   ASN

>  <FRAG_NAME>  (89) 
ACEM   NMA

>  <FRAG_ATOM_NUM>  (89) 
fragi: 9  fragj: 12

>  <atom.prop.CHAIN_ID>  (89) 
A A A A A A A A A Z Z Z Z Z Z Z Z Z Z Z Z

>  <atom.prop.IS_HEAVY_ATOM>  (89) 
1 0 0 0 1 1 0 0 1 1 0 0 0 1 0 1 1 1 0 0 0

>  <DIFUSE_FUNC_ATOM>  (89) 
n/a

>  <FINAL_SINGLE_POINT_ENERGY>  (89) 
0

>  <NONCOV_INTER_ENERGY_QM>  (89) 
0

>  <FF_Energy>  (89) 
10.61

>  <QM_Energy>  (89) 
27.67

>  <source>  (89) 
ACEM_nNMA_05

>  <Index>  (89) 
28441

$$$$
ACEM-pdb1eum-D-GLN-26:NMA-pdb1eum-C-ARG-69
     RDKit          3D

 21 19  0  0  0  0  0  0  0  0999 V2000
   -5.6694    0.8020   -0.0282 C   0  0  0  0  0  0  0  0  0  0  0  0
   -5.6819    0.3885   -0.9403 H   0  0  0  0  0  0  0  0  0  0  0  0
   -5.9304    1.7665   -0.1006 H   0  0  0  0  0  0  0  0  0  0  0  0
   -6.3898    0.2854    0.6059 H   0  0  0  0  0  0  0  0  0  0  0  0
   -4.2604    0.7261    0.5118 C   0  0  0  0  0  0  0  0  0  0  0  0
   -3.6685   -0.4487    0.4460 N   0  0  0  0  0  0  0  0  0  0  0  0
   -2.7097   -0.5777    0.7776 H   0  0  0  0  0  0  0  0  0  0  0  0
   -4.1785   -1.2431    0.0574 H   0  0  0  0  0  0  0  0  0  0  0  0
   -3.7047    1.7251    0.9563 O   0  0  0  0  0  0  0  0  0  0  0  0
   -1.0969   -2.1717   -0.0475 C   0  0  0  0  0  0  0  0  0  0  0  0
   -0.2811   -2.4542    0.4558 H   0  0  0  0  0  0  0  0  0  0  0  0
   -0.9597   -2.4973   -1.0787 H   0  0  0  0  0  0  0  0  0  0  0  0
   -2.0069   -2.6020    0.3707 H   0  0  0  0  0  0  0  0  0  0  0  0
   -1.1202   -0.7118   -0.0000 N   0  0  0  0  0  0  0  0  0  0  0  0
   -1.9948   -0.1546    0.0357 H   0  0  0  0  0  0  0  0  0  0  0  0
    0.0000    0.0000    0.0000 C   0  0  0  0  0  0  0  0  0  0  0  0
    1.1202   -0.5139    0.0000 O   0  0  0  0  0  0  0  0  0  0  0  0
   -0.1693    1.5124    0.0305 C   0  0  0  0  0  0  0  0  0  0  0  0
   -1.1584    1.7248   -0.0299 H   0  0  0  0  0  0  0  0  0  0  0  0
    0.2326    1.9517    0.9436 H   0  0  0  0  0  0  0  0  0  0  0  0
    0.2996    1.9661   -0.8427 H   0  0  0  0  0  0  0  0  0  0  0  0
  1  5  1  0
  5  6  1  0
  5  9  2  0
  1  2  1  0
  1  3  1  0
  1  4  1  0
  6  7  1  0
  6  8  1  0
 10 14  1  0
 14 16  1  0
 16 17  2  0
 16 18  1  0
 10 11  1  0
 10 12  1  0
 10 13  1  0
 14 15  1  0
 18 19  1  0
 18 20  1  0
 18 21  1  0
M  END
>  <PDB_ID>  (90) 
pdb1eum

>  <RESIDUE_NAME>  (90) 
GLN   ARG

>  <FRAG_NAME>  (90) 
ACEM   NMA

>  <FRAG_ATOM_NUM>  (90) 
fragi: 9  fragj: 12

>  <atom.prop.CHAIN_ID>  (90) 
A A A A A A A A A Z Z Z Z Z Z Z Z Z Z Z Z

>  <atom.prop.IS_HEAVY_ATOM>  (90) 
1 0 0 0 1 1 0 0 1 1 0 0 0 1 0 1 1 1 0 0 0

>  <DIFUSE_FUNC_ATOM>  (90) 
n/a

>  <FINAL_SINGLE_POINT_ENERGY>  (90) 
0

>  <NONCOV_INTER_ENERGY_QM>  (90) 
0

>  <FF_Energy>  (90) 
8.44

>  <QM_Energy>  (90) 
22.47

>  <source>  (90) 
ACEM_nNMA_06

>  <Index>  (90) 
302

$$$$
ACEM-pdb1eum-C-GLN-26:NMA-pdb1eum-D-ARG-69
     RDKit          3D

 21 19  0  0  0  0  0  0  0  0999 V2000
   -5.6571    0.7027   -0.1512 C   0  0  0  0  0  0  0  0  0  0  0  0
   -5.6393    0.2178   -1.0241 H   0  0  0  0  0  0  0  0  0  0  0  0
   -5.9272    1.6536   -0.2996 H   0  0  0  0  0  0  0  0  0  0  0  0
   -6.3958    0.2289    0.4954 H   0  0  0  0  0  0  0  0  0  0  0  0
   -4.2546    0.6833    0.4421 C   0  0  0  0  0  0  0  0  0  0  0  0
   -3.6144   -0.4818    0.4190 N   0  0  0  0  0  0  0  0  0  0  0  0
   -2.6728   -0.5664    0.7832 H   0  0  0  0  0  0  0  0  0  0  0  0
   -4.0902   -1.2935    0.0270 H   0  0  0  0  0  0  0  0  0  0  0  0
   -3.7516    1.7029    0.9030 O   0  0  0  0  0  0  0  0  0  0  0  0
   -1.1080   -2.1602   -0.0403 C   0  0  0  0  0  0  0  0  0  0  0  0
   -0.2827   -2.4494    0.4420 H   0  0  0  0  0  0  0  0  0  0  0  0
   -0.9934   -2.4884   -1.0734 H   0  0  0  0  0  0  0  0  0  0  0  0
   -2.0166   -2.5839    0.3873 H   0  0  0  0  0  0  0  0  0  0  0  0
   -1.1247   -0.7076   -0.0000 N   0  0  0  0  0  0  0  0  0  0  0  0
   -1.9950   -0.1428    0.0305 H   0  0  0  0  0  0  0  0  0  0  0  0
    0.0000    0.0000    0.0000 C   0  0  0  0  0  0  0  0  0  0  0  0
    1.1247   -0.5197   -0.0000 O   0  0  0  0  0  0  0  0  0  0  0  0
   -0.1634    1.5145    0.0044 C   0  0  0  0  0  0  0  0  0  0  0  0
   -1.1512    1.7259   -0.0788 H   0  0  0  0  0  0  0  0  0  0  0  0
    0.2267    1.9629    0.9181 H   0  0  0  0  0  0  0  0  0  0  0  0
    0.3292    1.9558   -0.8620 H   0  0  0  0  0  0  0  0  0  0  0  0
  1  5  1  0
  5  6  1  0
  5  9  2  0
  1  2  1  0
  1  3  1  0
  1  4  1  0
  6  7  1  0
  6  8  1  0
 10 14  1  0
 14 16  1  0
 16 17  2  0
 16 18  1  0
 10 11  1  0
 10 12  1  0
 10 13  1  0
 14 15  1  0
 18 19  1  0
 18 20  1  0
 18 21  1  0
M  END
>  <PDB_ID>  (91) 
pdb1eum

>  <RESIDUE_NAME>  (91) 
GLN   ARG

>  <FRAG_NAME>  (91) 
ACEM   NMA

>  <FRAG_ATOM_NUM>  (91) 
fragi: 9  fragj: 12

>  <atom.prop.CHAIN_ID>  (91) 
A A A A A A A A A Z Z Z Z Z Z Z Z Z Z Z Z

>  <atom.prop.IS_HEAVY_ATOM>  (91) 
1 0 0 0 1 1 0 0 1 1 0 0 0 1 0 1 1 1 0 0 0

>  <DIFUSE_FUNC_ATOM>  (91) 
n/a

>  <FINAL_SINGLE_POINT_ENERGY>  (91) 
0

>  <NONCOV_INTER_ENERGY_QM>  (91) 
0

>  <FF_Energy>  (91) 
13.6

>  <QM_Energy>  (91) 
26.29

>  <source>  (91) 
ACEM_nNMA_06

>  <Index>  (91) 
557

$$$$
ACEM-pdb2fl1-D-ASN-144:NMA-pdb2fl1-D-ASN-205
     RDKit          3D

 21 19  0  0  0  0  0  0  0  0999 V2000
   -5.2853    1.9956    1.6958 C   0  0  0  0  0  0  0  0  0  0  0  0
   -6.1442    2.2299    1.2453 H   0  0  0  0  0  0  0  0  0  0  0  0
   -4.7934    2.8270    1.9433 H   0  0  0  0  0  0  0  0  0  0  0  0
   -5.5174    1.4514    2.6112 H   0  0  0  0  0  0  0  0  0  0  0  0
   -4.4296    1.1967    0.7223 C   0  0  0  0  0  0  0  0  0  0  0  0
   -3.3597    0.5945    1.2349 N   0  0  0  0  0  0  0  0  0  0  0  0
   -3.1611    0.6778    2.2125 H   0  0  0  0  0  0  0  0  0  0  0  0
   -2.7552    0.0600    0.6465 H   0  0  0  0  0  0  0  0  0  0  0  0
   -4.7362    1.1053   -0.4674 O   0  0  0  0  0  0  0  0  0  0  0  0
   -1.0934   -2.1738   -0.0186 C   0  0  0  0  0  0  0  0  0  0  0  0
   -0.1284   -2.4799    0.0065 H   0  0  0  0  0  0  0  0  0  0  0  0
   -1.5646   -2.5832   -0.9121 H   0  0  0  0  0  0  0  0  0  0  0  0
   -1.5989   -2.5875    0.8540 H   0  0  0  0  0  0  0  0  0  0  0  0
   -1.1212   -0.7160    0.0000 N   0  0  0  0  0  0  0  0  0  0  0  0
   -1.9953   -0.1589    0.0137 H   0  0  0  0  0  0  0  0  0  0  0  0
    0.0000    0.0000    0.0000 C   0  0  0  0  0  0  0  0  0  0  0  0
    1.1212   -0.5145   -0.0000 O   0  0  0  0  0  0  0  0  0  0  0  0
   -0.1718    1.5209    0.0149 C   0  0  0  0  0  0  0  0  0  0  0  0
   -1.0607    1.7106    0.4592 H   0  0  0  0  0  0  0  0  0  0  0  0
    0.5961    2.0230    0.6033 H   0  0  0  0  0  0  0  0  0  0  0  0
   -0.1546    1.9154   -1.0011 H   0  0  0  0  0  0  0  0  0  0  0  0
  1  5  1  0
  5  6  1  0
  5  9  2  0
  1  2  1  0
  1  3  1  0
  1  4  1  0
  6  7  1  0
  6  8  1  0
 10 14  1  0
 14 16  1  0
 16 17  2  0
 16 18  1  0
 10 11  1  0
 10 12  1  0
 10 13  1  0
 14 15  1  0
 18 19  1  0
 18 20  1  0
 18 21  1  0
M  END
>  <PDB_ID>  (92) 
pdb2fl1

>  <RESIDUE_NAME>  (92) 
ASN   ASN

>  <FRAG_NAME>  (92) 
ACEM   NMA

>  <FRAG_ATOM_NUM>  (92) 
fragi: 9  fragj: 12

>  <atom.prop.CHAIN_ID>  (92) 
A A A A A A A A A Z Z Z Z Z Z Z Z Z Z Z Z

>  <atom.prop.IS_HEAVY_ATOM>  (92) 
1 0 0 0 1 1 0 0 1 1 0 0 0 1 0 1 1 1 0 0 0

>  <DIFUSE_FUNC_ATOM>  (92) 
n/a

>  <FINAL_SINGLE_POINT_ENERGY>  (92) 
0

>  <NONCOV_INTER_ENERGY_QM>  (92) 
0

>  <FF_Energy>  (92) 
7.45

>  <QM_Energy>  (92) 
23.35

>  <source>  (92) 
ACEM_nNMA_06

>  <Index>  (92) 
1331

$$$$
ACEM-pdb1eum-E-GLN-26:NMA-pdb1eum-B-ARG-69
     RDKit          3D

 21 19  0  0  0  0  0  0  0  0999 V2000
   -5.4334    0.9867    0.0077 C   0  0  0  0  0  0  0  0  0  0  0  0
   -5.4892    0.6198   -0.9184 H   0  0  0  0  0  0  0  0  0  0  0  0
   -5.6375    1.9634   -0.0027 H   0  0  0  0  0  0  0  0  0  0  0  0
   -6.1830    0.4861    0.6206 H   0  0  0  0  0  0  0  0  0  0  0  0
   -4.0259    0.7852    0.5307 C   0  0  0  0  0  0  0  0  0  0  0  0
   -3.5236   -0.4394    0.4296 N   0  0  0  0  0  0  0  0  0  0  0  0
   -2.5809   -0.6468    0.7458 H   0  0  0  0  0  0  0  0  0  0  0  0
   -4.1035   -1.1761    0.0269 H   0  0  0  0  0  0  0  0  0  0  0  0
   -3.4059    1.7139    1.0419 O   0  0  0  0  0  0  0  0  0  0  0  0
   -1.1018   -2.1620   -0.0479 C   0  0  0  0  0  0  0  0  0  0  0  0
   -0.2656   -2.4502    0.4057 H   0  0  0  0  0  0  0  0  0  0  0  0
   -1.0056   -2.4513   -1.0945 H   0  0  0  0  0  0  0  0  0  0  0  0
   -2.0203   -2.5863    0.3576 H   0  0  0  0  0  0  0  0  0  0  0  0
   -1.1200   -0.7118    0.0000 N   0  0  0  0  0  0  0  0  0  0  0  0
   -1.9940   -0.1482    0.0370 H   0  0  0  0  0  0  0  0  0  0  0  0
    0.0000    0.0000    0.0000 C   0  0  0  0  0  0  0  0  0  0  0  0
    1.1200   -0.5083    0.0000 O   0  0  0  0  0  0  0  0  0  0  0  0
   -0.1759    1.5142   -0.0053 C   0  0  0  0  0  0  0  0  0  0  0  0
   -1.1632    1.7166   -0.0235 H   0  0  0  0  0  0  0  0  0  0  0  0
    0.2693    1.9527    0.8879 H   0  0  0  0  0  0  0  0  0  0  0  0
    0.2679    1.9403   -0.9050 H   0  0  0  0  0  0  0  0  0  0  0  0
  1  5  1  0
  5  6  1  0
  5  9  2  0
  1  2  1  0
  1  3  1  0
  1  4  1  0
  6  7  1  0
  6  8  1  0
 10 14  1  0
 14 16  1  0
 16 17  2  0
 16 18  1  0
 10 11  1  0
 10 12  1  0
 10 13  1  0
 14 15  1  0
 18 19  1  0
 18 20  1  0
 18 21  1  0
M  END
>  <PDB_ID>  (93) 
pdb1eum

>  <RESIDUE_NAME>  (93) 
GLN   ARG

>  <FRAG_NAME>  (93) 
ACEM   NMA

>  <FRAG_ATOM_NUM>  (93) 
fragi: 9  fragj: 12

>  <atom.prop.CHAIN_ID>  (93) 
A A A A A A A A A Z Z Z Z Z Z Z Z Z Z Z Z

>  <atom.prop.IS_HEAVY_ATOM>  (93) 
1 0 0 0 1 1 0 0 1 1 0 0 0 1 0 1 1 1 0 0 0

>  <DIFUSE_FUNC_ATOM>  (93) 
n/a

>  <FINAL_SINGLE_POINT_ENERGY>  (93) 
0

>  <NONCOV_INTER_ENERGY_QM>  (93) 
0

>  <FF_Energy>  (93) 
21.82

>  <QM_Energy>  (93) 
35.38

>  <source>  (93) 
ACEM_nNMA_06

>  <Index>  (93) 
1472

$$$$
ACEM-pdb1ez4-A-GLN-279:NMA-pdb1ez4-A-MET-276
     RDKit          3D

 21 19  0  0  0  0  0  0  0  0999 V2000
   -5.8193    0.9577   -1.2389 C   0  0  0  0  0  0  0  0  0  0  0  0
   -6.2667    1.6748   -0.6976 H   0  0  0  0  0  0  0  0  0  0  0  0
   -6.5232    0.3514   -1.6204 H   0  0  0  0  0  0  0  0  0  0  0  0
   -5.2636    1.4191   -2.0553 H   0  0  0  0  0  0  0  0  0  0  0  0
   -4.9389    0.1524   -0.3259 C   0  0  0  0  0  0  0  0  0  0  0  0
   -3.6864   -0.0135   -0.6382 N   0  0  0  0  0  0  0  0  0  0  0  0
   -3.0366   -0.5322   -0.0607 H   0  0  0  0  0  0  0  0  0  0  0  0
   -3.3362    0.4031   -1.5200 H   0  0  0  0  0  0  0  0  0  0  0  0
   -5.3226   -0.3757    0.7166 O   0  0  0  0  0  0  0  0  0  0  0  0
   -1.1482   -2.1255   -0.0889 C   0  0  0  0  0  0  0  0  0  0  0  0
   -0.2002   -2.4335   -0.2707 H   0  0  0  0  0  0  0  0  0  0  0  0
   -1.7632   -2.4719   -0.9195 H   0  0  0  0  0  0  0  0  0  0  0  0
   -1.5570   -2.5481    0.8289 H   0  0  0  0  0  0  0  0  0  0  0  0
   -1.1213   -0.6814   -0.0000 N   0  0  0  0  0  0  0  0  0  0  0  0
   -1.9881   -0.0981    0.0691 H   0  0  0  0  0  0  0  0  0  0  0  0
    0.0000    0.0000    0.0000 C   0  0  0  0  0  0  0  0  0  0  0  0
    1.1213   -0.5110   -0.0000 O   0  0  0  0  0  0  0  0  0  0  0  0
   -0.3052    1.4766    0.0789 C   0  0  0  0  0  0  0  0  0  0  0  0
   -1.3037    1.5841    0.2157 H   0  0  0  0  0  0  0  0  0  0  0  0
    0.2075    1.9544    0.9137 H   0  0  0  0  0  0  0  0  0  0  0  0
   -0.0255    1.9124   -0.8803 H   0  0  0  0  0  0  0  0  0  0  0  0
  1  5  1  0
  5  6  1  0
  5  9  2  0
  1  2  1  0
  1  3  1  0
  1  4  1  0
  6  7  1  0
  6  8  1  0
 10 14  1  0
 14 16  1  0
 16 17  2  0
 16 18  1  0
 10 11  1  0
 10 12  1  0
 10 13  1  0
 14 15  1  0
 18 19  1  0
 18 20  1  0
 18 21  1  0
M  END
>  <PDB_ID>  (94) 
pdb1ez4

>  <RESIDUE_NAME>  (94) 
GLN   MET

>  <FRAG_NAME>  (94) 
ACEM   NMA

>  <FRAG_ATOM_NUM>  (94) 
fragi: 9  fragj: 12

>  <atom.prop.CHAIN_ID>  (94) 
A A A A A A A A A Z Z Z Z Z Z Z Z Z Z Z Z

>  <atom.prop.IS_HEAVY_ATOM>  (94) 
1 0 0 0 1 1 0 0 1 1 0 0 0 1 0 1 1 1 0 0 0

>  <DIFUSE_FUNC_ATOM>  (94) 
n/a

>  <FINAL_SINGLE_POINT_ENERGY>  (94) 
0

>  <NONCOV_INTER_ENERGY_QM>  (94) 
0

>  <FF_Energy>  (94) 
8.38

>  <QM_Energy>  (94) 
18.94

>  <source>  (94) 
ACEM_nNMA_06

>  <Index>  (94) 
3551

$$$$
ACEM-pdb2fty-A-ASN-27:NMA-pdb2fty-A-TYR-4
     RDKit          3D

 21 19  0  0  0  0  0  0  0  0999 V2000
   -4.1998    1.8372    0.6868 C   0  0  0  0  0  0  0  0  0  0  0  0
   -3.4438    2.0388    0.0700 H   0  0  0  0  0  0  0  0  0  0  0  0
   -4.7338    2.6624    0.8540 H   0  0  0  0  0  0  0  0  0  0  0  0
   -4.8454    1.0984    0.2119 H   0  0  0  0  0  0  0  0  0  0  0  0
   -3.6482    1.3426    1.9871 C   0  0  0  0  0  0  0  0  0  0  0  0
   -2.7524    0.3586    1.9214 N   0  0  0  0  0  0  0  0  0  0  0  0
   -2.4792   -0.0031    1.0292 H   0  0  0  0  0  0  0  0  0  0  0  0
   -2.3546   -0.0134    2.7567 H   0  0  0  0  0  0  0  0  0  0  0  0
   -4.0080    1.8456    3.0468 O   0  0  0  0  0  0  0  0  0  0  0  0
   -1.1656   -2.1598   -0.0619 C   0  0  0  0  0  0  0  0  0  0  0  0
   -0.5025   -2.5087    0.6097 H   0  0  0  0  0  0  0  0  0  0  0  0
   -0.8382   -2.5161   -1.0386 H   0  0  0  0  0  0  0  0  0  0  0  0
   -2.1714   -2.5228    0.1494 H   0  0  0  0  0  0  0  0  0  0  0  0
   -1.1282   -0.7072    0.0000 N   0  0  0  0  0  0  0  0  0  0  0  0
   -1.9978   -0.1175    0.0487 H   0  0  0  0  0  0  0  0  0  0  0  0
    0.0000    0.0000    0.0000 C   0  0  0  0  0  0  0  0  0  0  0  0
    1.1282   -0.5026   -0.0000 O   0  0  0  0  0  0  0  0  0  0  0  0
   -0.1819    1.5061   -0.0077 C   0  0  0  0  0  0  0  0  0  0  0  0
   -1.0795    1.7181    0.3987 H   0  0  0  0  0  0  0  0  0  0  0  0
    0.5867    1.9949    0.5909 H   0  0  0  0  0  0  0  0  0  0  0  0
   -0.1559    1.8614   -1.0379 H   0  0  0  0  0  0  0  0  0  0  0  0
  1  5  1  0
  5  6  1  0
  5  9  2  0
  1  2  1  0
  1  3  1  0
  1  4  1  0
  6  7  1  0
  6  8  1  0
 10 14  1  0
 14 16  1  0
 16 17  2  0
 16 18  1  0
 10 11  1  0
 10 12  1  0
 10 13  1  0
 14 15  1  0
 18 19  1  0
 18 20  1  0
 18 21  1  0
M  END
>  <PDB_ID>  (95) 
pdb2fty

>  <RESIDUE_NAME>  (95) 
ASN   TYR

>  <FRAG_NAME>  (95) 
ACEM   NMA

>  <FRAG_ATOM_NUM>  (95) 
fragi: 9  fragj: 12

>  <atom.prop.CHAIN_ID>  (95) 
A A A A A A A A A Z Z Z Z Z Z Z Z Z Z Z Z

>  <atom.prop.IS_HEAVY_ATOM>  (95) 
1 0 0 0 1 1 0 0 1 1 0 0 0 1 0 1 1 1 0 0 0

>  <DIFUSE_FUNC_ATOM>  (95) 
n/a

>  <FINAL_SINGLE_POINT_ENERGY>  (95) 
0

>  <NONCOV_INTER_ENERGY_QM>  (95) 
0

>  <FF_Energy>  (95) 
11.07

>  <QM_Energy>  (95) 
21.83

>  <source>  (95) 
ACEM_nNMA_06

>  <Index>  (95) 
4126

$$$$
ACEM-pdb1f5j-A-ASN-5:NMA-pdb1f5j-A-TRP-18
     RDKit          3D

 21 19  0  0  0  0  0  0  0  0999 V2000
   -4.5588    2.6984    1.6206 C   0  0  0  0  0  0  0  0  0  0  0  0
   -5.5216    2.6368    1.8663 H   0  0  0  0  0  0  0  0  0  0  0  0
   -4.4095    3.4703    1.0097 H   0  0  0  0  0  0  0  0  0  0  0  0
   -3.9825    2.8656    2.5306 H   0  0  0  0  0  0  0  0  0  0  0  0
   -4.1561    1.4286    0.9080 C   0  0  0  0  0  0  0  0  0  0  0  0
   -2.9774    0.9101    1.2364 N   0  0  0  0  0  0  0  0  0  0  0  0
   -2.4124    1.3602    1.9294 H   0  0  0  0  0  0  0  0  0  0  0  0
   -2.6560    0.0746    0.7947 H   0  0  0  0  0  0  0  0  0  0  0  0
   -4.9018    0.9087    0.0818 O   0  0  0  0  0  0  0  0  0  0  0  0
   -1.0837   -2.1720   -0.0072 C   0  0  0  0  0  0  0  0  0  0  0  0
   -0.3653   -2.4783   -0.6277 H   0  0  0  0  0  0  0  0  0  0  0  0
   -2.0446   -2.5361   -0.3707 H   0  0  0  0  0  0  0  0  0  0  0  0
   -0.9330   -2.5522    1.0031 H   0  0  0  0  0  0  0  0  0  0  0  0
   -1.1178   -0.7150    0.0000 N   0  0  0  0  0  0  0  0  0  0  0  0
   -1.9933   -0.1613    0.0053 H   0  0  0  0  0  0  0  0  0  0  0  0
    0.0000    0.0000    0.0000 C   0  0  0  0  0  0  0  0  0  0  0  0
    1.1178   -0.5132   -0.0000 O   0  0  0  0  0  0  0  0  0  0  0  0
   -0.1678    1.5139   -0.0086 C   0  0  0  0  0  0  0  0  0  0  0  0
   -1.0970    1.7173    0.3101 H   0  0  0  0  0  0  0  0  0  0  0  0
    0.5333    1.9735    0.6880 H   0  0  0  0  0  0  0  0  0  0  0  0
   -0.0147    1.8708   -1.0270 H   0  0  0  0  0  0  0  0  0  0  0  0
  1  5  1  0
  5  6  1  0
  5  9  2  0
  1  2  1  0
  1  3  1  0
  1  4  1  0
  6  7  1  0
  6  8  1  0
 10 14  1  0
 14 16  1  0
 16 17  2  0
 16 18  1  0
 10 11  1  0
 10 12  1  0
 10 13  1  0
 14 15  1  0
 18 19  1  0
 18 20  1  0
 18 21  1  0
M  END
>  <PDB_ID>  (96) 
pdb1f5j

>  <RESIDUE_NAME>  (96) 
ASN   TRP

>  <FRAG_NAME>  (96) 
ACEM   NMA

>  <FRAG_ATOM_NUM>  (96) 
fragi: 9  fragj: 12

>  <atom.prop.CHAIN_ID>  (96) 
A A A A A A A A A Z Z Z Z Z Z Z Z Z Z Z Z

>  <atom.prop.IS_HEAVY_ATOM>  (96) 
1 0 0 0 1 1 0 0 1 1 0 0 0 1 0 1 1 1 0 0 0

>  <DIFUSE_FUNC_ATOM>  (96) 
n/a

>  <FINAL_SINGLE_POINT_ENERGY>  (96) 
0

>  <NONCOV_INTER_ENERGY_QM>  (96) 
0

>  <FF_Energy>  (96) 
13.19

>  <QM_Energy>  (96) 
24.07

>  <source>  (96) 
ACEM_nNMA_06

>  <Index>  (96) 
10861

$$$$
ACEM-pdb1f07-D-GLN-3153:NMA-pdb1f07-D-ILE-3170
     RDKit          3D

 21 19  0  0  0  0  0  0  0  0999 V2000
   -5.9569    0.4536   -0.0044 C   0  0  0  0  0  0  0  0  0  0  0  0
   -6.3280    1.0988    0.6686 H   0  0  0  0  0  0  0  0  0  0  0  0
   -6.3315   -0.4593    0.1775 H   0  0  0  0  0  0  0  0  0  0  0  0
   -6.2754    0.7674   -0.9985 H   0  0  0  0  0  0  0  0  0  0  0  0
   -4.4390    0.3951    0.1723 C   0  0  0  0  0  0  0  0  0  0  0  0
   -3.7470   -0.1573   -0.8318 N   0  0  0  0  0  0  0  0  0  0  0  0
   -4.2119   -0.4840   -1.6359 H   0  0  0  0  0  0  0  0  0  0  0  0
   -2.7544   -0.1596   -0.7638 H   0  0  0  0  0  0  0  0  0  0  0  0
   -3.8954    0.8573    1.1800 O   0  0  0  0  0  0  0  0  0  0  0  0
   -1.1118   -2.1759   -0.0175 C   0  0  0  0  0  0  0  0  0  0  0  0
   -0.3555   -2.4732    0.5653 H   0  0  0  0  0  0  0  0  0  0  0  0
   -0.8931   -2.5206   -1.0282 H   0  0  0  0  0  0  0  0  0  0  0  0
   -2.0770   -2.5664    0.3049 H   0  0  0  0  0  0  0  0  0  0  0  0
   -1.1242   -0.7154    0.0000 N   0  0  0  0  0  0  0  0  0  0  0  0
   -1.9837   -0.2184    0.0177 H   0  0  0  0  0  0  0  0  0  0  0  0
    0.0000    0.0000    0.0000 C   0  0  0  0  0  0  0  0  0  0  0  0
    1.1242   -0.5012    0.0000 O   0  0  0  0  0  0  0  0  0  0  0  0
   -0.1642    1.5074    0.0072 C   0  0  0  0  0  0  0  0  0  0  0  0
   -1.1440    1.6892    0.1385 H   0  0  0  0  0  0  0  0  0  0  0  0
    0.3496    1.9464    0.8624 H   0  0  0  0  0  0  0  0  0  0  0  0
    0.2475    1.9165   -0.9154 H   0  0  0  0  0  0  0  0  0  0  0  0
  1  5  1  0
  5  6  1  0
  5  9  2  0
  1  2  1  0
  1  3  1  0
  1  4  1  0
  6  7  1  0
  6  8  1  0
 10 14  1  0
 14 16  1  0
 16 17  2  0
 16 18  1  0
 10 11  1  0
 10 12  1  0
 10 13  1  0
 14 15  1  0
 18 19  1  0
 18 20  1  0
 18 21  1  0
M  END
>  <PDB_ID>  (97) 
pdb1f07

>  <RESIDUE_NAME>  (97) 
GLN   ILE

>  <FRAG_NAME>  (97) 
ACEM   NMA

>  <FRAG_ATOM_NUM>  (97) 
fragi: 9  fragj: 12

>  <atom.prop.CHAIN_ID>  (97) 
A A A A A A A A A Z Z Z Z Z Z Z Z Z Z Z Z

>  <atom.prop.IS_HEAVY_ATOM>  (97) 
1 0 0 0 1 1 0 0 1 1 0 0 0 1 0 1 1 1 0 0 0

>  <DIFUSE_FUNC_ATOM>  (97) 
n/a

>  <FINAL_SINGLE_POINT_ENERGY>  (97) 
0

>  <NONCOV_INTER_ENERGY_QM>  (97) 
0

>  <FF_Energy>  (97) 
3.65

>  <QM_Energy>  (97) 
16.62

>  <source>  (97) 
ACEM_nNMA_06

>  <Index>  (97) 
10866

$$$$
ACEM-pdb1ezv-X-GLN-114:NMA-pdb1ezv-X-GLN-5
     RDKit          3D

 21 19  0  0  0  0  0  0  0  0999 V2000
   -5.0232    0.1595   -0.0730 C   0  0  0  0  0  0  0  0  0  0  0  0
   -4.2880    0.0244    0.5936 H   0  0  0  0  0  0  0  0  0  0  0  0
   -5.6249   -0.6405   -0.0693 H   0  0  0  0  0  0  0  0  0  0  0  0
   -5.6052    1.0311    0.2263 H   0  0  0  0  0  0  0  0  0  0  0  0
   -4.4117    0.3020   -1.4482 C   0  0  0  0  0  0  0  0  0  0  0  0
   -3.1019    0.5169   -1.4914 N   0  0  0  0  0  0  0  0  0  0  0  0
   -2.6155    0.6103   -2.3820 H   0  0  0  0  0  0  0  0  0  0  0  0
   -2.5856    0.5891   -0.6162 H   0  0  0  0  0  0  0  0  0  0  0  0
   -5.1041    0.2117   -2.4642 O   0  0  0  0  0  0  0  0  0  0  0  0
   -1.1144   -2.1653    0.1402 C   0  0  0  0  0  0  0  0  0  0  0  0
   -0.2357   -2.4601    0.5509 H   0  0  0  0  0  0  0  0  0  0  0  0
   -1.2562   -2.6770   -0.8116 H   0  0  0  0  0  0  0  0  0  0  0  0
   -1.8857   -2.4764    0.8448 H   0  0  0  0  0  0  0  0  0  0  0  0
   -1.1229   -0.7130   -0.0000 N   0  0  0  0  0  0  0  0  0  0  0  0
   -1.9934   -0.1538   -0.1066 H   0  0  0  0  0  0  0  0  0  0  0  0
    0.0000    0.0000    0.0000 C   0  0  0  0  0  0  0  0  0  0  0  0
    1.1229   -0.5087    0.0000 O   0  0  0  0  0  0  0  0  0  0  0  0
   -0.1701    1.5104   -0.0842 C   0  0  0  0  0  0  0  0  0  0  0  0
   -1.1548    1.7134   -0.0322 H   0  0  0  0  0  0  0  0  0  0  0  0
    0.3188    2.0082    0.7532 H   0  0  0  0  0  0  0  0  0  0  0  0
    0.2373    1.8627   -1.0319 H   0  0  0  0  0  0  0  0  0  0  0  0
  1  5  1  0
  5  6  1  0
  5  9  2  0
  1  2  1  0
  1  3  1  0
  1  4  1  0
  6  7  1  0
  6  8  1  0
 10 14  1  0
 14 16  1  0
 16 17  2  0
 16 18  1  0
 10 11  1  0
 10 12  1  0
 10 13  1  0
 14 15  1  0
 18 19  1  0
 18 20  1  0
 18 21  1  0
M  END
>  <PDB_ID>  (98) 
pdb1ezv

>  <RESIDUE_NAME>  (98) 
GLN   GLN

>  <FRAG_NAME>  (98) 
ACEM   NMA

>  <FRAG_ATOM_NUM>  (98) 
fragi: 9  fragj: 12

>  <atom.prop.CHAIN_ID>  (98) 
A A A A A A A A A Z Z Z Z Z Z Z Z Z Z Z Z

>  <atom.prop.IS_HEAVY_ATOM>  (98) 
1 0 0 0 1 1 0 0 1 1 0 0 0 1 0 1 1 1 0 0 0

>  <DIFUSE_FUNC_ATOM>  (98) 
n/a

>  <FINAL_SINGLE_POINT_ENERGY>  (98) 
0

>  <NONCOV_INTER_ENERGY_QM>  (98) 
0

>  <FF_Energy>  (98) 
12.33

>  <QM_Energy>  (98) 
23.91

>  <source>  (98) 
ACEM_nNMA_06

>  <Index>  (98) 
13675

$$$$
ACEM-pdb1fep-A-GLN-210:NMA-pdb1fep-A-GLN-207
     RDKit          3D

 21 19  0  0  0  0  0  0  0  0999 V2000
   -5.6626    0.8438    1.7674 C   0  0  0  0  0  0  0  0  0  0  0  0
   -6.1806   -0.0153    1.9135 H   0  0  0  0  0  0  0  0  0  0  0  0
   -6.3124    1.5301    1.3996 H   0  0  0  0  0  0  0  0  0  0  0  0
   -5.2785    1.1950    2.7251 H   0  0  0  0  0  0  0  0  0  0  0  0
   -4.6120    0.5666    0.6683 C   0  0  0  0  0  0  0  0  0  0  0  0
   -3.4005    0.3143    1.1080 N   0  0  0  0  0  0  0  0  0  0  0  0
   -2.6460    0.1053    0.4436 H   0  0  0  0  0  0  0  0  0  0  0  0
   -3.2116    0.3270    2.1042 H   0  0  0  0  0  0  0  0  0  0  0  0
   -4.8606    0.6211   -0.5336 O   0  0  0  0  0  0  0  0  0  0  0  0
   -1.0653   -2.1668   -0.0355 C   0  0  0  0  0  0  0  0  0  0  0  0
   -1.7836   -2.5174   -0.6337 H   0  0  0  0  0  0  0  0  0  0  0  0
   -0.1735   -2.4633   -0.3736 H   0  0  0  0  0  0  0  0  0  0  0  0
   -1.2172   -2.5335    0.9797 H   0  0  0  0  0  0  0  0  0  0  0  0
   -1.1193   -0.7246   -0.0000 N   0  0  0  0  0  0  0  0  0  0  0  0
   -1.9939   -0.1731    0.0269 H   0  0  0  0  0  0  0  0  0  0  0  0
    0.0000    0.0000    0.0000 C   0  0  0  0  0  0  0  0  0  0  0  0
    1.1193   -0.4906    0.0000 O   0  0  0  0  0  0  0  0  0  0  0  0
   -0.1659    1.5156    0.0229 C   0  0  0  0  0  0  0  0  0  0  0  0
   -1.1338    1.7155    0.1183 H   0  0  0  0  0  0  0  0  0  0  0  0
    0.3478    1.8839    0.9109 H   0  0  0  0  0  0  0  0  0  0  0  0
    0.3060    1.9376   -0.8645 H   0  0  0  0  0  0  0  0  0  0  0  0
  1  5  1  0
  5  6  1  0
  5  9  2  0
  1  2  1  0
  1  3  1  0
  1  4  1  0
  6  7  1  0
  6  8  1  0
 10 14  1  0
 14 16  1  0
 16 17  2  0
 16 18  1  0
 10 11  1  0
 10 12  1  0
 10 13  1  0
 14 15  1  0
 18 19  1  0
 18 20  1  0
 18 21  1  0
M  END
>  <PDB_ID>  (99) 
pdb1fep

>  <RESIDUE_NAME>  (99) 
GLN   GLN

>  <FRAG_NAME>  (99) 
ACEM   NMA

>  <FRAG_ATOM_NUM>  (99) 
fragi: 9  fragj: 12

>  <atom.prop.CHAIN_ID>  (99) 
A A A A A A A A A Z Z Z Z Z Z Z Z Z Z Z Z

>  <atom.prop.IS_HEAVY_ATOM>  (99) 
1 0 0 0 1 1 0 0 1 1 0 0 0 1 0 1 1 1 0 0 0

>  <DIFUSE_FUNC_ATOM>  (99) 
n/a

>  <FINAL_SINGLE_POINT_ENERGY>  (99) 
0

>  <NONCOV_INTER_ENERGY_QM>  (99) 
0

>  <FF_Energy>  (99) 
16.57

>  <QM_Energy>  (99) 
46.05

>  <source>  (99) 
ACEM_nNMA_06

>  <Index>  (99) 
20543

$$$$
ACEM-pdb2gag-A-ASN-647:NMA-pdb2gag-A-GLY-653
     RDKit          3D

 21 19  0  0  0  0  0  0  0  0999 V2000
   -5.0418    2.2310    1.5863 C   0  0  0  0  0  0  0  0  0  0  0  0
   -5.9901    1.9365    1.6627 H   0  0  0  0  0  0  0  0  0  0  0  0
   -4.9995    3.1758    1.2724 H   0  0  0  0  0  0  0  0  0  0  0  0
   -4.5882    2.1805    2.5762 H   0  0  0  0  0  0  0  0  0  0  0  0
   -4.3415    1.3438    0.5474 C   0  0  0  0  0  0  0  0  0  0  0  0
   -3.4642    0.4550    0.9956 N   0  0  0  0  0  0  0  0  0  0  0  0
   -3.2981    0.3922    1.9870 H   0  0  0  0  0  0  0  0  0  0  0  0
   -2.9785   -0.1409    0.3674 H   0  0  0  0  0  0  0  0  0  0  0  0
   -4.6024    1.4710   -0.6603 O   0  0  0  0  0  0  0  0  0  0  0  0
   -1.1264   -2.1756    0.1219 C   0  0  0  0  0  0  0  0  0  0  0  0
   -0.1529   -2.5000    0.0358 H   0  0  0  0  0  0  0  0  0  0  0  0
   -1.7231   -2.7266   -0.6050 H   0  0  0  0  0  0  0  0  0  0  0  0
   -1.4741   -2.4336    1.1221 H   0  0  0  0  0  0  0  0  0  0  0  0
   -1.1205   -0.7152   -0.0000 N   0  0  0  0  0  0  0  0  0  0  0  0
   -1.9941   -0.1514   -0.0932 H   0  0  0  0  0  0  0  0  0  0  0  0
    0.0000    0.0000    0.0000 C   0  0  0  0  0  0  0  0  0  0  0  0
    1.1205   -0.4987    0.0000 O   0  0  0  0  0  0  0  0  0  0  0  0
   -0.1773    1.5012   -0.0691 C   0  0  0  0  0  0  0  0  0  0  0  0
   -1.1009    1.7478    0.3170 H   0  0  0  0  0  0  0  0  0  0  0  0
   -0.2228    1.7880   -1.0582 H   0  0  0  0  0  0  0  0  0  0  0  0
    0.5823    2.0998    0.4337 H   0  0  0  0  0  0  0  0  0  0  0  0
  1  5  1  0
  5  6  1  0
  5  9  2  0
  1  2  1  0
  1  3  1  0
  1  4  1  0
  6  7  1  0
  6  8  1  0
 10 14  1  0
 14 16  1  0
 16 17  2  0
 16 18  1  0
 10 11  1  0
 10 12  1  0
 10 13  1  0
 14 15  1  0
 18 19  1  0
 18 20  1  0
 18 21  1  0
M  END
>  <PDB_ID>  (100) 
pdb2gag

>  <RESIDUE_NAME>  (100) 
ASN   GLY

>  <FRAG_NAME>  (100) 
ACEM   NMA

>  <FRAG_ATOM_NUM>  (100) 
fragi: 9  fragj: 12

>  <atom.prop.CHAIN_ID>  (100) 
A A A A A A A A A Z Z Z Z Z Z Z Z Z Z Z Z

>  <atom.prop.IS_HEAVY_ATOM>  (100) 
1 0 0 0 1 1 0 0 1 1 0 0 0 1 0 1 1 1 0 0 0

>  <DIFUSE_FUNC_ATOM>  (100) 
n/a

>  <FINAL_SINGLE_POINT_ENERGY>  (100) 
0

>  <NONCOV_INTER_ENERGY_QM>  (100) 
0

>  <FF_Energy>  (100) 
5.93

>  <QM_Energy>  (100) 
20.06

>  <source>  (100) 
ACEM_nNMA_06

>  <Index>  (100) 
22273

$$$$
ACEM-pdb1fle-E-ASN-77:NMA-pdb1fle-E-HIE-71
     RDKit          3D

 21 19  0  0  0  0  0  0  0  0999 V2000
   -5.7620    1.8212    0.2232 C   0  0  0  0  0  0  0  0  0  0  0  0
   -5.5932    2.3742   -0.6298 H   0  0  0  0  0  0  0  0  0  0  0  0
   -5.6939    2.5002    0.9961 H   0  0  0  0  0  0  0  0  0  0  0  0
   -6.7920    1.4662    0.1868 H   0  0  0  0  0  0  0  0  0  0  0  0
   -4.6238    0.8371    0.3695 C   0  0  0  0  0  0  0  0  0  0  0  0
   -3.6024    0.9879   -0.4815 N   0  0  0  0  0  0  0  0  0  0  0  0
   -3.6223    1.7232   -1.1560 H   0  0  0  0  0  0  0  0  0  0  0  0
   -2.8231    0.3653   -0.4375 H   0  0  0  0  0  0  0  0  0  0  0  0
   -4.6568   -0.0670    1.2280 O   0  0  0  0  0  0  0  0  0  0  0  0
   -1.1162   -2.1842    0.0365 C   0  0  0  0  0  0  0  0  0  0  0  0
   -0.1973   -2.4546    0.2731 H   0  0  0  0  0  0  0  0  0  0  0  0
   -1.3058   -2.5202   -0.9829 H   0  0  0  0  0  0  0  0  0  0  0  0
   -1.8943   -2.4905    0.7356 H   0  0  0  0  0  0  0  0  0  0  0  0
   -1.1215   -0.6862   -0.0000 N   0  0  0  0  0  0  0  0  0  0  0  0
   -1.9944   -0.1387   -0.0266 H   0  0  0  0  0  0  0  0  0  0  0  0
    0.0000    0.0000    0.0000 C   0  0  0  0  0  0  0  0  0  0  0  0
    1.1215   -0.5298   -0.0000 O   0  0  0  0  0  0  0  0  0  0  0  0
   -0.1681    1.5308   -0.0521 C   0  0  0  0  0  0  0  0  0  0  0  0
    0.7320    1.9431    0.0237 H   0  0  0  0  0  0  0  0  0  0  0  0
   -0.5919    1.7929   -1.0216 H   0  0  0  0  0  0  0  0  0  0  0  0
   -0.6372    1.9005    0.8597 H   0  0  0  0  0  0  0  0  0  0  0  0
  1  5  1  0
  5  6  1  0
  5  9  2  0
  1  2  1  0
  1  3  1  0
  1  4  1  0
  6  7  1  0
  6  8  1  0
 10 14  1  0
 14 16  1  0
 16 17  2  0
 16 18  1  0
 10 11  1  0
 10 12  1  0
 10 13  1  0
 14 15  1  0
 18 19  1  0
 18 20  1  0
 18 21  1  0
M  END
>  <PDB_ID>  (101) 
pdb1fle

>  <RESIDUE_NAME>  (101) 
ASN   HIE

>  <FRAG_NAME>  (101) 
ACEM   NMA

>  <FRAG_ATOM_NUM>  (101) 
fragi: 9  fragj: 12

>  <atom.prop.CHAIN_ID>  (101) 
A A A A A A A A A Z Z Z Z Z Z Z Z Z Z Z Z

>  <atom.prop.IS_HEAVY_ATOM>  (101) 
1 0 0 0 1 1 0 0 1 1 0 0 0 1 0 1 1 1 0 0 0

>  <DIFUSE_FUNC_ATOM>  (101) 
n/a

>  <FINAL_SINGLE_POINT_ENERGY>  (101) 
0

>  <NONCOV_INTER_ENERGY_QM>  (101) 
0

>  <FF_Energy>  (101) 
7.46

>  <QM_Energy>  (101) 
18.82

>  <source>  (101) 
ACEM_nNMA_06

>  <Index>  (101) 
24999

$$$$
ACEM-pdb2gfi-A-GLN-27:NMA-pdb2gfi-B-GLY-11
     RDKit          3D

 21 19  0  0  0  0  0  0  0  0999 V2000
   -5.6607    1.1832    0.7159 C   0  0  0  0  0  0  0  0  0  0  0  0
   -6.3806    1.0328    0.0304 H   0  0  0  0  0  0  0  0  0  0  0  0
   -5.7880    2.0957    1.1201 H   0  0  0  0  0  0  0  0  0  0  0  0
   -5.7302    0.4238    1.4947 H   0  0  0  0  0  0  0  0  0  0  0  0
   -4.3284    1.1705    0.0017 C   0  0  0  0  0  0  0  0  0  0  0  0
   -3.3726    0.4912    0.5610 N   0  0  0  0  0  0  0  0  0  0  0  0
   -2.4394    0.4198    0.1331 H   0  0  0  0  0  0  0  0  0  0  0  0
   -3.5446    0.0121    1.4513 H   0  0  0  0  0  0  0  0  0  0  0  0
   -4.1753    1.7585   -1.0414 O   0  0  0  0  0  0  0  0  0  0  0  0
   -1.1240   -2.1240    0.3762 C   0  0  0  0  0  0  0  0  0  0  0  0
   -0.1850   -2.4099    0.5762 H   0  0  0  0  0  0  0  0  0  0  0  0
   -1.5014   -2.7173   -0.4567 H   0  0  0  0  0  0  0  0  0  0  0  0
   -1.7918   -2.2299    1.2312 H   0  0  0  0  0  0  0  0  0  0  0  0
   -1.1094   -0.7158    0.0000 N   0  0  0  0  0  0  0  0  0  0  0  0
   -1.9660   -0.1953   -0.2883 H   0  0  0  0  0  0  0  0  0  0  0  0
    0.0000    0.0000    0.0000 C   0  0  0  0  0  0  0  0  0  0  0  0
    1.1094   -0.5033   -0.0000 O   0  0  0  0  0  0  0  0  0  0  0  0
   -0.1874    1.4906   -0.0712 C   0  0  0  0  0  0  0  0  0  0  0  0
   -0.4962    1.8335    0.8249 H   0  0  0  0  0  0  0  0  0  0  0  0
   -0.8981    1.7074   -0.7521 H   0  0  0  0  0  0  0  0  0  0  0  0
    0.7507    1.9715   -0.3485 H   0  0  0  0  0  0  0  0  0  0  0  0
  1  5  1  0
  5  6  1  0
  5  9  2  0
  1  2  1  0
  1  3  1  0
  1  4  1  0
  6  7  1  0
  6  8  1  0
 10 14  1  0
 14 16  1  0
 16 17  2  0
 16 18  1  0
 10 11  1  0
 10 12  1  0
 10 13  1  0
 14 15  1  0
 18 19  1  0
 18 20  1  0
 18 21  1  0
M  END
>  <PDB_ID>  (102) 
pdb2gfi

>  <RESIDUE_NAME>  (102) 
GLN   GLY

>  <FRAG_NAME>  (102) 
ACEM   NMA

>  <FRAG_ATOM_NUM>  (102) 
fragi: 9  fragj: 12

>  <atom.prop.CHAIN_ID>  (102) 
A A A A A A A A A Z Z Z Z Z Z Z Z Z Z Z Z

>  <atom.prop.IS_HEAVY_ATOM>  (102) 
1 0 0 0 1 1 0 0 1 1 0 0 0 1 0 1 1 1 0 0 0

>  <DIFUSE_FUNC_ATOM>  (102) 
n/a

>  <FINAL_SINGLE_POINT_ENERGY>  (102) 
0

>  <NONCOV_INTER_ENERGY_QM>  (102) 
0

>  <FF_Energy>  (102) 
17.23

>  <QM_Energy>  (102) 
41.66

>  <source>  (102) 
ACEM_nNMA_06

>  <Index>  (102) 
25708

$$$$
ACEM-pdb2gfi-A-GLN-33:NMA-pdb2gfi-B-PHE-52
     RDKit          3D

 21 19  0  0  0  0  0  0  0  0999 V2000
   -3.9982   -0.9039   -2.5569 C   0  0  0  0  0  0  0  0  0  0  0  0
   -4.6530   -0.8633   -3.3313 H   0  0  0  0  0  0  0  0  0  0  0  0
   -3.8630   -1.8844   -2.3326 H   0  0  0  0  0  0  0  0  0  0  0  0
   -3.0453   -0.4935   -2.8910 H   0  0  0  0  0  0  0  0  0  0  0  0
   -4.6224   -0.2238   -1.3694 C   0  0  0  0  0  0  0  0  0  0  0  0
   -3.8796   -0.0887   -0.2974 N   0  0  0  0  0  0  0  0  0  0  0  0
   -4.2282    0.3753    0.5441 H   0  0  0  0  0  0  0  0  0  0  0  0
   -2.9227   -0.4589   -0.3037 H   0  0  0  0  0  0  0  0  0  0  0  0
   -5.8096    0.1679   -1.4308 O   0  0  0  0  0  0  0  0  0  0  0  0
   -1.1094   -2.1894   -0.0610 C   0  0  0  0  0  0  0  0  0  0  0  0
   -1.8949   -2.5004   -0.6352 H   0  0  0  0  0  0  0  0  0  0  0  0
   -0.2650   -2.4928   -0.5488 H   0  0  0  0  0  0  0  0  0  0  0  0
   -1.1580   -2.6837    0.9093 H   0  0  0  0  0  0  0  0  0  0  0  0
   -1.1199   -0.7235   -0.0000 N   0  0  0  0  0  0  0  0  0  0  0  0
   -1.9969   -0.1638    0.0469 H   0  0  0  0  0  0  0  0  0  0  0  0
    0.0000    0.0000    0.0000 C   0  0  0  0  0  0  0  0  0  0  0  0
    1.1199   -0.4867    0.0000 O   0  0  0  0  0  0  0  0  0  0  0  0
   -0.1610    1.5202   -0.0035 C   0  0  0  0  0  0  0  0  0  0  0  0
    0.2117    1.8462   -0.8817 H   0  0  0  0  0  0  0  0  0  0  0  0
   -1.2119    1.8079    0.0279 H   0  0  0  0  0  0  0  0  0  0  0  0
    0.3867    1.9545    0.8329 H   0  0  0  0  0  0  0  0  0  0  0  0
  1  5  1  0
  5  6  1  0
  5  9  2  0
  1  2  1  0
  1  3  1  0
  1  4  1  0
  6  7  1  0
  6  8  1  0
 10 14  1  0
 14 16  1  0
 16 17  2  0
 16 18  1  0
 10 11  1  0
 10 12  1  0
 10 13  1  0
 14 15  1  0
 18 19  1  0
 18 20  1  0
 18 21  1  0
M  END
>  <PDB_ID>  (103) 
pdb2gfi

>  <RESIDUE_NAME>  (103) 
GLN   PHE

>  <FRAG_NAME>  (103) 
ACEM   NMA

>  <FRAG_ATOM_NUM>  (103) 
fragi: 9  fragj: 12

>  <atom.prop.CHAIN_ID>  (103) 
A A A A A A A A A Z Z Z Z Z Z Z Z Z Z Z Z

>  <atom.prop.IS_HEAVY_ATOM>  (103) 
1 0 0 0 1 1 0 0 1 1 0 0 0 1 0 1 1 1 0 0 0

>  <DIFUSE_FUNC_ATOM>  (103) 
n/a

>  <FINAL_SINGLE_POINT_ENERGY>  (103) 
0

>  <NONCOV_INTER_ENERGY_QM>  (103) 
0

>  <FF_Energy>  (103) 
7.31

>  <QM_Energy>  (103) 
23.04

>  <source>  (103) 
ACEM_nNMA_06

>  <Index>  (103) 
25984

$$$$
ACEM-pdb1fjm-B-GLN-185:NMA-pdb1fjm-B-GLN-181
     RDKit          3D

 21 19  0  0  0  0  0  0  0  0999 V2000
   -5.0564   -0.6461    1.5259 C   0  0  0  0  0  0  0  0  0  0  0  0
   -5.6530   -0.5732    2.3263 H   0  0  0  0  0  0  0  0  0  0  0  0
   -4.3889   -1.3763    1.6740 H   0  0  0  0  0  0  0  0  0  0  0  0
   -5.6630   -0.8945    0.6550 H   0  0  0  0  0  0  0  0  0  0  0  0
   -4.3168    0.6576    1.3570 C   0  0  0  0  0  0  0  0  0  0  0  0
   -3.0993    0.5871    0.8470 N   0  0  0  0  0  0  0  0  0  0  0  0
   -2.5415    1.4265    0.6899 H   0  0  0  0  0  0  0  0  0  0  0  0
   -2.7152   -0.3287    0.6090 H   0  0  0  0  0  0  0  0  0  0  0  0
   -4.8350    1.7196    1.6827 O   0  0  0  0  0  0  0  0  0  0  0  0
   -1.1036   -2.1713    0.0547 C   0  0  0  0  0  0  0  0  0  0  0  0
   -0.2093   -2.4903   -0.2757 H   0  0  0  0  0  0  0  0  0  0  0  0
   -1.8676   -2.5905   -0.6000 H   0  0  0  0  0  0  0  0  0  0  0  0
   -1.2693   -2.5038    1.0794 H   0  0  0  0  0  0  0  0  0  0  0  0
   -1.1183   -0.7169    0.0000 N   0  0  0  0  0  0  0  0  0  0  0  0
   -1.9945   -0.1543   -0.0426 H   0  0  0  0  0  0  0  0  0  0  0  0
    0.0000    0.0000    0.0000 C   0  0  0  0  0  0  0  0  0  0  0  0
    1.1183   -0.5145    0.0000 O   0  0  0  0  0  0  0  0  0  0  0  0
   -0.1672    1.5176   -0.0512 C   0  0  0  0  0  0  0  0  0  0  0  0
    0.5796    1.8896   -0.6105 H   0  0  0  0  0  0  0  0  0  0  0  0
   -1.1104    1.7809   -0.5299 H   0  0  0  0  0  0  0  0  0  0  0  0
   -0.1183    1.9252    0.9586 H   0  0  0  0  0  0  0  0  0  0  0  0
  1  5  1  0
  5  6  1  0
  5  9  2  0
  1  2  1  0
  1  3  1  0
  1  4  1  0
  6  7  1  0
  6  8  1  0
 10 14  1  0
 14 16  1  0
 16 17  2  0
 16 18  1  0
 10 11  1  0
 10 12  1  0
 10 13  1  0
 14 15  1  0
 18 19  1  0
 18 20  1  0
 18 21  1  0
M  END
>  <PDB_ID>  (104) 
pdb1fjm

>  <RESIDUE_NAME>  (104) 
GLN   GLN

>  <FRAG_NAME>  (104) 
ACEM   NMA

>  <FRAG_ATOM_NUM>  (104) 
fragi: 9  fragj: 12

>  <atom.prop.CHAIN_ID>  (104) 
A A A A A A A A A Z Z Z Z Z Z Z Z Z Z Z Z

>  <atom.prop.IS_HEAVY_ATOM>  (104) 
1 0 0 0 1 1 0 0 1 1 0 0 0 1 0 1 1 1 0 0 0

>  <DIFUSE_FUNC_ATOM>  (104) 
n/a

>  <FINAL_SINGLE_POINT_ENERGY>  (104) 
0

>  <NONCOV_INTER_ENERGY_QM>  (104) 
0

>  <FF_Energy>  (104) 
23.14

>  <QM_Energy>  (104) 
40.95

>  <source>  (104) 
ACEM_nNMA_06

>  <Index>  (104) 
26180

$$$$
ACEM-pdb1fno-A-GLN-93:NMA-pdb1fno-A-LEU-105
     RDKit          3D

 21 19  0  0  0  0  0  0  0  0999 V2000
   -5.4903    0.8409   -0.8875 C   0  0  0  0  0  0  0  0  0  0  0  0
   -5.9778    0.4548   -0.1030 H   0  0  0  0  0  0  0  0  0  0  0  0
   -5.5505    0.2053   -1.6587 H   0  0  0  0  0  0  0  0  0  0  0  0
   -5.9541    1.7870   -1.1662 H   0  0  0  0  0  0  0  0  0  0  0  0
   -4.0388    1.0048   -0.5139 C   0  0  0  0  0  0  0  0  0  0  0  0
   -3.1748    0.2728   -1.2003 N   0  0  0  0  0  0  0  0  0  0  0  0
   -2.1701    0.3363   -1.0176 H   0  0  0  0  0  0  0  0  0  0  0  0
   -3.5218   -0.3607   -1.9183 H   0  0  0  0  0  0  0  0  0  0  0  0
   -3.6924    1.7822    0.3854 O   0  0  0  0  0  0  0  0  0  0  0  0
   -1.0446   -2.1780   -0.0200 C   0  0  0  0  0  0  0  0  0  0  0  0
   -1.9809   -2.5609    0.0647 H   0  0  0  0  0  0  0  0  0  0  0  0
   -0.6782   -2.4875   -0.9156 H   0  0  0  0  0  0  0  0  0  0  0  0
   -0.4222   -2.5838    0.7774 H   0  0  0  0  0  0  0  0  0  0  0  0
   -1.1113   -0.7276    0.0000 N   0  0  0  0  0  0  0  0  0  0  0  0
   -1.9909   -0.1886    0.0150 H   0  0  0  0  0  0  0  0  0  0  0  0
    0.0000    0.0000    0.0000 C   0  0  0  0  0  0  0  0  0  0  0  0
    1.1113   -0.4979    0.0000 O   0  0  0  0  0  0  0  0  0  0  0  0
   -0.1556    1.5136    0.0296 C   0  0  0  0  0  0  0  0  0  0  0  0
   -1.1237    1.7334   -0.0127 H   0  0  0  0  0  0  0  0  0  0  0  0
    0.2454    1.8646    0.9805 H   0  0  0  0  0  0  0  0  0  0  0  0
    0.3879    1.9630   -0.8014 H   0  0  0  0  0  0  0  0  0  0  0  0
  1  5  1  0
  5  6  1  0
  5  9  2  0
  1  2  1  0
  1  3  1  0
  1  4  1  0
  6  7  1  0
  6  8  1  0
 10 14  1  0
 14 16  1  0
 16 17  2  0
 16 18  1  0
 10 11  1  0
 10 12  1  0
 10 13  1  0
 14 15  1  0
 18 19  1  0
 18 20  1  0
 18 21  1  0
M  END
>  <PDB_ID>  (105) 
pdb1fno

>  <RESIDUE_NAME>  (105) 
GLN   LEU

>  <FRAG_NAME>  (105) 
ACEM   NMA

>  <FRAG_ATOM_NUM>  (105) 
fragi: 9  fragj: 12

>  <atom.prop.CHAIN_ID>  (105) 
A A A A A A A A A Z Z Z Z Z Z Z Z Z Z Z Z

>  <atom.prop.IS_HEAVY_ATOM>  (105) 
1 0 0 0 1 1 0 0 1 1 0 0 0 1 0 1 1 1 0 0 0

>  <DIFUSE_FUNC_ATOM>  (105) 
n/a

>  <FINAL_SINGLE_POINT_ENERGY>  (105) 
0

>  <NONCOV_INTER_ENERGY_QM>  (105) 
0

>  <FF_Energy>  (105) 
9.92

>  <QM_Energy>  (105) 
20.96

>  <source>  (105) 
ACEM_nNMA_06

>  <Index>  (105) 
26852

$$$$
ACEM-pdb2gll-A-GLN-76:NMA-pdb2gll-A-LEU-28
     RDKit          3D

 21 19  0  0  0  0  0  0  0  0999 V2000
   -5.9122   -0.5988   -0.8351 C   0  0  0  0  0  0  0  0  0  0  0  0
   -6.3762   -0.0969   -0.1021 H   0  0  0  0  0  0  0  0  0  0  0  0
   -6.3404   -1.4984   -0.9397 H   0  0  0  0  0  0  0  0  0  0  0  0
   -6.0256   -0.0447   -1.7669 H   0  0  0  0  0  0  0  0  0  0  0  0
   -4.4659   -0.7971   -0.4400 C   0  0  0  0  0  0  0  0  0  0  0  0
   -3.5587   -0.0901   -1.1060 N   0  0  0  0  0  0  0  0  0  0  0  0
   -2.5710   -0.1616   -0.8846 H   0  0  0  0  0  0  0  0  0  0  0  0
   -3.8737    0.5326   -1.8514 H   0  0  0  0  0  0  0  0  0  0  0  0
   -4.1700   -1.5768    0.4601 O   0  0  0  0  0  0  0  0  0  0  0  0
   -1.1126   -2.1561    0.0814 C   0  0  0  0  0  0  0  0  0  0  0  0
   -0.1655   -2.4534    0.3660 H   0  0  0  0  0  0  0  0  0  0  0  0
   -1.3764   -2.7060   -0.8221 H   0  0  0  0  0  0  0  0  0  0  0  0
   -1.7560   -2.4556    0.9088 H   0  0  0  0  0  0  0  0  0  0  0  0
   -1.1240   -0.7052   -0.0000 N   0  0  0  0  0  0  0  0  0  0  0  0
   -1.9939   -0.1397   -0.0619 H   0  0  0  0  0  0  0  0  0  0  0  0
    0.0000    0.0000    0.0000 C   0  0  0  0  0  0  0  0  0  0  0  0
    1.1240   -0.5139   -0.0000 O   0  0  0  0  0  0  0  0  0  0  0  0
   -0.1756    1.5078    0.0061 C   0  0  0  0  0  0  0  0  0  0  0  0
   -1.1102    1.7178   -0.1750 H   0  0  0  0  0  0  0  0  0  0  0  0
    0.0515    1.7669    1.0402 H   0  0  0  0  0  0  0  0  0  0  0  0
    0.5246    1.9737   -0.6873 H   0  0  0  0  0  0  0  0  0  0  0  0
  1  5  1  0
  5  6  1  0
  5  9  2  0
  1  2  1  0
  1  3  1  0
  1  4  1  0
  6  7  1  0
  6  8  1  0
 10 14  1  0
 14 16  1  0
 16 17  2  0
 16 18  1  0
 10 11  1  0
 10 12  1  0
 10 13  1  0
 14 15  1  0
 18 19  1  0
 18 20  1  0
 18 21  1  0
M  END
>  <PDB_ID>  (106) 
pdb2gll

>  <RESIDUE_NAME>  (106) 
GLN   LEU

>  <FRAG_NAME>  (106) 
ACEM   NMA

>  <FRAG_ATOM_NUM>  (106) 
fragi: 9  fragj: 12

>  <atom.prop.CHAIN_ID>  (106) 
A A A A A A A A A Z Z Z Z Z Z Z Z Z Z Z Z

>  <atom.prop.IS_HEAVY_ATOM>  (106) 
1 0 0 0 1 1 0 0 1 1 0 0 0 1 0 1 1 1 0 0 0

>  <DIFUSE_FUNC_ATOM>  (106) 
n/a

>  <FINAL_SINGLE_POINT_ENERGY>  (106) 
0

>  <NONCOV_INTER_ENERGY_QM>  (106) 
0

>  <FF_Energy>  (106) 
12.1

>  <QM_Energy>  (106) 
24.72

>  <source>  (106) 
ACEM_nNMA_06

>  <Index>  (106) 
27389

$$$$
ACEM-pdb2gll-B-GLN-76:NMA-pdb2gll-B-LEU-28
     RDKit          3D

 21 19  0  0  0  0  0  0  0  0999 V2000
   -5.8011   -1.5989   -1.6356 C   0  0  0  0  0  0  0  0  0  0  0  0
   -6.4236   -1.9046   -0.9049 H   0  0  0  0  0  0  0  0  0  0  0  0
   -5.9277   -2.2018   -2.4322 H   0  0  0  0  0  0  0  0  0  0  0  0
   -6.0875   -0.5879   -1.9252 H   0  0  0  0  0  0  0  0  0  0  0  0
   -4.3711   -1.7400   -1.1429 C   0  0  0  0  0  0  0  0  0  0  0  0
   -3.7104   -0.6214   -0.8808 N   0  0  0  0  0  0  0  0  0  0  0  0
   -2.7586   -0.6402   -0.5359 H   0  0  0  0  0  0  0  0  0  0  0  0
   -4.1814    0.2727   -1.0343 H   0  0  0  0  0  0  0  0  0  0  0  0
   -3.8721   -2.8571   -0.9914 O   0  0  0  0  0  0  0  0  0  0  0  0
   -1.0977   -2.1564    0.1021 C   0  0  0  0  0  0  0  0  0  0  0  0
   -0.1518   -2.4397    0.4246 H   0  0  0  0  0  0  0  0  0  0  0  0
   -1.3301   -2.7480   -0.7834 H   0  0  0  0  0  0  0  0  0  0  0  0
   -1.7352   -2.4463    0.9373 H   0  0  0  0  0  0  0  0  0  0  0  0
   -1.1232   -0.7077   -0.0000 N   0  0  0  0  0  0  0  0  0  0  0  0
   -1.9926   -0.1500   -0.0766 H   0  0  0  0  0  0  0  0  0  0  0  0
    0.0000    0.0000    0.0000 C   0  0  0  0  0  0  0  0  0  0  0  0
    1.1232   -0.5172    0.0000 O   0  0  0  0  0  0  0  0  0  0  0  0
   -0.1655    1.5165   -0.0006 C   0  0  0  0  0  0  0  0  0  0  0  0
   -1.0998    1.7304   -0.1889 H   0  0  0  0  0  0  0  0  0  0  0  0
    0.0603    1.7947    1.0288 H   0  0  0  0  0  0  0  0  0  0  0  0
    0.5356    1.9742   -0.6985 H   0  0  0  0  0  0  0  0  0  0  0  0
  1  5  1  0
  5  6  1  0
  5  9  2  0
  1  2  1  0
  1  3  1  0
  1  4  1  0
  6  7  1  0
  6  8  1  0
 10 14  1  0
 14 16  1  0
 16 17  2  0
 16 18  1  0
 10 11  1  0
 10 12  1  0
 10 13  1  0
 14 15  1  0
 18 19  1  0
 18 20  1  0
 18 21  1  0
M  END
>  <PDB_ID>  (107) 
pdb2gll

>  <RESIDUE_NAME>  (107) 
GLN   LEU

>  <FRAG_NAME>  (107) 
ACEM   NMA

>  <FRAG_ATOM_NUM>  (107) 
fragi: 9  fragj: 12

>  <atom.prop.CHAIN_ID>  (107) 
A A A A A A A A A Z Z Z Z Z Z Z Z Z Z Z Z

>  <atom.prop.IS_HEAVY_ATOM>  (107) 
1 0 0 0 1 1 0 0 1 1 0 0 0 1 0 1 1 1 0 0 0

>  <DIFUSE_FUNC_ATOM>  (107) 
n/a

>  <FINAL_SINGLE_POINT_ENERGY>  (107) 
0

>  <NONCOV_INTER_ENERGY_QM>  (107) 
0

>  <FF_Energy>  (107) 
13.71

>  <QM_Energy>  (107) 
27.91

>  <source>  (107) 
ACEM_nNMA_06

>  <Index>  (107) 
27964

$$$$
ACEM-pdb2gtd-A-GLN-220:NMA-pdb2gtd-A-PHE-152
     RDKit          3D

 21 19  0  0  0  0  0  0  0  0999 V2000
   -5.7071    1.1787    1.5999 C   0  0  0  0  0  0  0  0  0  0  0  0
   -5.7785    0.6632    2.4582 H   0  0  0  0  0  0  0  0  0  0  0  0
   -6.5733    1.0993    1.0991 H   0  0  0  0  0  0  0  0  0  0  0  0
   -5.5637    2.2291    1.8533 H   0  0  0  0  0  0  0  0  0  0  0  0
   -4.5888    0.5551    0.7466 C   0  0  0  0  0  0  0  0  0  0  0  0
   -3.3680    0.5082    1.2856 N   0  0  0  0  0  0  0  0  0  0  0  0
   -2.5993    0.1013    0.7850 H   0  0  0  0  0  0  0  0  0  0  0  0
   -3.2366    0.8976    2.2200 H   0  0  0  0  0  0  0  0  0  0  0  0
   -4.8102    0.1771   -0.3911 O   0  0  0  0  0  0  0  0  0  0  0  0
   -1.0259   -2.1664   -0.0182 C   0  0  0  0  0  0  0  0  0  0  0  0
   -0.4387   -2.4376    0.7633 H   0  0  0  0  0  0  0  0  0  0  0  0
   -0.5412   -2.5382   -0.9210 H   0  0  0  0  0  0  0  0  0  0  0  0
   -1.9691   -2.6845    0.1552 H   0  0  0  0  0  0  0  0  0  0  0  0
   -1.1190   -0.7287   -0.0000 N   0  0  0  0  0  0  0  0  0  0  0  0
   -1.9927   -0.1934    0.0134 H   0  0  0  0  0  0  0  0  0  0  0  0
    0.0000    0.0000    0.0000 C   0  0  0  0  0  0  0  0  0  0  0  0
    1.1190   -0.5059    0.0000 O   0  0  0  0  0  0  0  0  0  0  0  0
   -0.1542    1.5217    0.0488 C   0  0  0  0  0  0  0  0  0  0  0  0
    0.7502    1.9070   -0.1671 H   0  0  0  0  0  0  0  0  0  0  0  0
   -0.8464    1.8698   -0.7178 H   0  0  0  0  0  0  0  0  0  0  0  0
   -0.4733    1.7954    1.0545 H   0  0  0  0  0  0  0  0  0  0  0  0
  1  5  1  0
  5  6  1  0
  5  9  2  0
  1  2  1  0
  1  3  1  0
  1  4  1  0
  6  7  1  0
  6  8  1  0
 10 14  1  0
 14 16  1  0
 16 17  2  0
 16 18  1  0
 10 11  1  0
 10 12  1  0
 10 13  1  0
 14 15  1  0
 18 19  1  0
 18 20  1  0
 18 21  1  0
M  END
>  <PDB_ID>  (108) 
pdb2gtd

>  <RESIDUE_NAME>  (108) 
GLN   PHE

>  <FRAG_NAME>  (108) 
ACEM   NMA

>  <FRAG_ATOM_NUM>  (108) 
fragi: 9  fragj: 12

>  <atom.prop.CHAIN_ID>  (108) 
A A A A A A A A A Z Z Z Z Z Z Z Z Z Z Z Z

>  <atom.prop.IS_HEAVY_ATOM>  (108) 
1 0 0 0 1 1 0 0 1 1 0 0 0 1 0 1 1 1 0 0 0

>  <DIFUSE_FUNC_ATOM>  (108) 
n/a

>  <FINAL_SINGLE_POINT_ENERGY>  (108) 
0

>  <NONCOV_INTER_ENERGY_QM>  (108) 
0

>  <FF_Energy>  (108) 
7.9

>  <QM_Energy>  (108) 
21.63

>  <source>  (108) 
ACEM_nNMA_07

>  <Index>  (108) 
7207

$$$$
ACEM-pdb2gtd-B-ASN-12:NMA-pdb2gtd-A-THR-163
     RDKit          3D

 21 19  0  0  0  0  0  0  0  0999 V2000
   -3.4853    2.4706    2.6477 C   0  0  0  0  0  0  0  0  0  0  0  0
   -3.5431    3.4271    2.3774 H   0  0  0  0  0  0  0  0  0  0  0  0
   -2.6693    2.3167    3.1966 H   0  0  0  0  0  0  0  0  0  0  0  0
   -4.3567    2.2358    3.2590 H   0  0  0  0  0  0  0  0  0  0  0  0
   -3.4264    1.6169    1.4287 C   0  0  0  0  0  0  0  0  0  0  0  0
   -2.9730    0.3847    1.6118 N   0  0  0  0  0  0  0  0  0  0  0  0
   -2.6994    0.0692    2.5180 H   0  0  0  0  0  0  0  0  0  0  0  0
   -2.9021   -0.2433    0.8279 H   0  0  0  0  0  0  0  0  0  0  0  0
   -3.7134    2.0782    0.3012 O   0  0  0  0  0  0  0  0  0  0  0  0
   -1.0775   -2.1798   -0.1626 C   0  0  0  0  0  0  0  0  0  0  0  0
   -0.3436   -2.5524    0.4261 H   0  0  0  0  0  0  0  0  0  0  0  0
   -0.8729   -2.4650   -1.1945 H   0  0  0  0  0  0  0  0  0  0  0  0
   -1.9997   -2.6452    0.1855 H   0  0  0  0  0  0  0  0  0  0  0  0
   -1.1196   -0.7348    0.0000 N   0  0  0  0  0  0  0  0  0  0  0  0
   -1.9922   -0.1917    0.1231 H   0  0  0  0  0  0  0  0  0  0  0  0
    0.0000    0.0000    0.0000 C   0  0  0  0  0  0  0  0  0  0  0  0
    1.1196   -0.5022   -0.0000 O   0  0  0  0  0  0  0  0  0  0  0  0
   -0.1382    1.5263    0.0349 C   0  0  0  0  0  0  0  0  0  0  0  0
   -0.9816    1.7460    0.5279 H   0  0  0  0  0  0  0  0  0  0  0  0
    0.7139    1.9492    0.5669 H   0  0  0  0  0  0  0  0  0  0  0  0
   -0.0940    1.9674   -0.9609 H   0  0  0  0  0  0  0  0  0  0  0  0
  1  5  1  0
  5  6  1  0
  5  9  2  0
  1  2  1  0
  1  3  1  0
  1  4  1  0
  6  7  1  0
  6  8  1  0
 10 14  1  0
 14 16  1  0
 16 17  2  0
 16 18  1  0
 10 11  1  0
 10 12  1  0
 10 13  1  0
 14 15  1  0
 18 19  1  0
 18 20  1  0
 18 21  1  0
M  END
>  <PDB_ID>  (109) 
pdb2gtd

>  <RESIDUE_NAME>  (109) 
ASN   THR

>  <FRAG_NAME>  (109) 
ACEM   NMA

>  <FRAG_ATOM_NUM>  (109) 
fragi: 9  fragj: 12

>  <atom.prop.CHAIN_ID>  (109) 
A A A A A A A A A Z Z Z Z Z Z Z Z Z Z Z Z

>  <atom.prop.IS_HEAVY_ATOM>  (109) 
1 0 0 0 1 1 0 0 1 1 0 0 0 1 0 1 1 1 0 0 0

>  <DIFUSE_FUNC_ATOM>  (109) 
n/a

>  <FINAL_SINGLE_POINT_ENERGY>  (109) 
0

>  <NONCOV_INTER_ENERGY_QM>  (109) 
0

>  <FF_Energy>  (109) 
6.39

>  <QM_Energy>  (109) 
18.84

>  <source>  (109) 
ACEM_nNMA_07

>  <Index>  (109) 
7236

$$$$
ACEM-pdb1fui-B-GLN-404:NMA-pdb1fui-B-MET-413
     RDKit          3D

 21 19  0  0  0  0  0  0  0  0999 V2000
   -4.6537    1.9372    2.4518 C   0  0  0  0  0  0  0  0  0  0  0  0
   -5.4598    1.4663    2.8121 H   0  0  0  0  0  0  0  0  0  0  0  0
   -4.8655    2.9059    2.3212 H   0  0  0  0  0  0  0  0  0  0  0  0
   -3.8471    1.8524    3.1801 H   0  0  0  0  0  0  0  0  0  0  0  0
   -4.2956    1.3330    1.1172 C   0  0  0  0  0  0  0  0  0  0  0  0
   -3.2598    0.5005    1.0956 N   0  0  0  0  0  0  0  0  0  0  0  0
   -2.9692    0.0448    0.2348 H   0  0  0  0  0  0  0  0  0  0  0  0
   -2.7548    0.3244    1.9650 H   0  0  0  0  0  0  0  0  0  0  0  0
   -4.9593    1.5889    0.1174 O   0  0  0  0  0  0  0  0  0  0  0  0
   -1.0770   -2.1645    0.0313 C   0  0  0  0  0  0  0  0  0  0  0  0
   -0.0939   -2.4546    0.0584 H   0  0  0  0  0  0  0  0  0  0  0  0
   -1.5650   -2.6561   -0.8102 H   0  0  0  0  0  0  0  0  0  0  0  0
   -1.5531   -2.5159    0.9467 H   0  0  0  0  0  0  0  0  0  0  0  0
   -1.1204   -0.7072    0.0000 N   0  0  0  0  0  0  0  0  0  0  0  0
   -1.9929   -0.1585   -0.0229 H   0  0  0  0  0  0  0  0  0  0  0  0
    0.0000    0.0000    0.0000 C   0  0  0  0  0  0  0  0  0  0  0  0
    1.1204   -0.5304   -0.0000 O   0  0  0  0  0  0  0  0  0  0  0  0
   -0.1531    1.5190    0.0585 C   0  0  0  0  0  0  0  0  0  0  0  0
   -1.0613    1.7201    0.3371 H   0  0  0  0  0  0  0  0  0  0  0  0
    0.5271    1.7705    0.8724 H   0  0  0  0  0  0  0  0  0  0  0  0
    0.1471    1.9936   -0.8757 H   0  0  0  0  0  0  0  0  0  0  0  0
  1  5  1  0
  5  6  1  0
  5  9  2  0
  1  2  1  0
  1  3  1  0
  1  4  1  0
  6  7  1  0
  6  8  1  0
 10 14  1  0
 14 16  1  0
 16 17  2  0
 16 18  1  0
 10 11  1  0
 10 12  1  0
 10 13  1  0
 14 15  1  0
 18 19  1  0
 18 20  1  0
 18 21  1  0
M  END
>  <PDB_ID>  (110) 
pdb1fui

>  <RESIDUE_NAME>  (110) 
GLN   MET

>  <FRAG_NAME>  (110) 
ACEM   NMA

>  <FRAG_ATOM_NUM>  (110) 
fragi: 9  fragj: 12

>  <atom.prop.CHAIN_ID>  (110) 
A A A A A A A A A Z Z Z Z Z Z Z Z Z Z Z Z

>  <atom.prop.IS_HEAVY_ATOM>  (110) 
1 0 0 0 1 1 0 0 1 1 0 0 0 1 0 1 1 1 0 0 0

>  <DIFUSE_FUNC_ATOM>  (110) 
n/a

>  <FINAL_SINGLE_POINT_ENERGY>  (110) 
0

>  <NONCOV_INTER_ENERGY_QM>  (110) 
0

>  <FF_Energy>  (110) 
12.27

>  <QM_Energy>  (110) 
26.39

>  <source>  (110) 
ACEM_nNMA_07

>  <Index>  (110) 
7288

$$$$
ACEM-pdb2gse-A-GLN-327:NMA-pdb2gse-A-TYR-275
     RDKit          3D

 21 19  0  0  0  0  0  0  0  0999 V2000
   -5.0277    2.7589   -0.5285 C   0  0  0  0  0  0  0  0  0  0  0  0
   -4.5490    3.6240   -0.4825 H   0  0  0  0  0  0  0  0  0  0  0  0
   -5.9041    2.8103   -0.0722 H   0  0  0  0  0  0  0  0  0  0  0  0
   -5.1895    2.5012   -1.5752 H   0  0  0  0  0  0  0  0  0  0  0  0
   -4.1661    1.6915    0.2000 C   0  0  0  0  0  0  0  0  0  0  0  0
   -3.5091    0.8275   -0.5436 N   0  0  0  0  0  0  0  0  0  0  0  0
   -2.9241    0.1215   -0.1330 H   0  0  0  0  0  0  0  0  0  0  0  0
   -3.6048    0.8847   -1.5638 H   0  0  0  0  0  0  0  0  0  0  0  0
   -4.0982    1.6820    1.4135 O   0  0  0  0  0  0  0  0  0  0  0  0
   -1.1640   -2.1471   -0.3161 C   0  0  0  0  0  0  0  0  0  0  0  0
   -0.2158   -2.5129   -0.3463 H   0  0  0  0  0  0  0  0  0  0  0  0
   -1.6462   -2.6430    0.4295 H   0  0  0  0  0  0  0  0  0  0  0  0
   -1.6572   -2.3670   -1.2629 H   0  0  0  0  0  0  0  0  0  0  0  0
   -1.1222   -0.7232    0.0000 N   0  0  0  0  0  0  0  0  0  0  0  0
   -1.9808   -0.1716    0.2501 H   0  0  0  0  0  0  0  0  0  0  0  0
    0.0000    0.0000    0.0000 C   0  0  0  0  0  0  0  0  0  0  0  0
    1.1222   -0.4804   -0.0000 O   0  0  0  0  0  0  0  0  0  0  0  0
   -0.1909    1.5034    0.0463 C   0  0  0  0  0  0  0  0  0  0  0  0
   -1.0893    1.6894    0.4274 H   0  0  0  0  0  0  0  0  0  0  0  0
    0.5711    1.8915    0.7222 H   0  0  0  0  0  0  0  0  0  0  0  0
   -0.0802    1.9650   -0.9349 H   0  0  0  0  0  0  0  0  0  0  0  0
  1  5  1  0
  5  6  1  0
  5  9  2  0
  1  2  1  0
  1  3  1  0
  1  4  1  0
  6  7  1  0
  6  8  1  0
 10 14  1  0
 14 16  1  0
 16 17  2  0
 16 18  1  0
 10 11  1  0
 10 12  1  0
 10 13  1  0
 14 15  1  0
 18 19  1  0
 18 20  1  0
 18 21  1  0
M  END
>  <PDB_ID>  (111) 
pdb2gse

>  <RESIDUE_NAME>  (111) 
GLN   TYR

>  <FRAG_NAME>  (111) 
ACEM   NMA

>  <FRAG_ATOM_NUM>  (111) 
fragi: 9  fragj: 12

>  <atom.prop.CHAIN_ID>  (111) 
A A A A A A A A A Z Z Z Z Z Z Z Z Z Z Z Z

>  <atom.prop.IS_HEAVY_ATOM>  (111) 
1 0 0 0 1 1 0 0 1 1 0 0 0 1 0 1 1 1 0 0 0

>  <DIFUSE_FUNC_ATOM>  (111) 
n/a

>  <FINAL_SINGLE_POINT_ENERGY>  (111) 
0

>  <NONCOV_INTER_ENERGY_QM>  (111) 
0

>  <FF_Energy>  (111) 
6.14

>  <QM_Energy>  (111) 
20.12

>  <source>  (111) 
ACEM_nNMA_07

>  <Index>  (111) 
7427

$$$$
ACEM-pdb2gtd-B-GLN-220:NMA-pdb2gtd-B-PHE-152
     RDKit          3D

 21 19  0  0  0  0  0  0  0  0999 V2000
   -5.6137    1.5359    1.5074 C   0  0  0  0  0  0  0  0  0  0  0  0
   -5.6115    0.9804    2.3392 H   0  0  0  0  0  0  0  0  0  0  0  0
   -6.5064    1.4652    1.0619 H   0  0  0  0  0  0  0  0  0  0  0  0
   -5.4415    2.5767    1.7815 H   0  0  0  0  0  0  0  0  0  0  0  0
   -4.5483    0.9455    0.5376 C   0  0  0  0  0  0  0  0  0  0  0  0
   -3.3321    0.7871    1.0341 N   0  0  0  0  0  0  0  0  0  0  0  0
   -2.5939    0.3955    0.4648 H   0  0  0  0  0  0  0  0  0  0  0  0
   -3.1519    1.0653    1.9959 H   0  0  0  0  0  0  0  0  0  0  0  0
   -4.8247    0.6664   -0.6372 O   0  0  0  0  0  0  0  0  0  0  0  0
   -1.0664   -2.1658    0.0381 C   0  0  0  0  0  0  0  0  0  0  0  0
   -0.4423   -2.4227    0.7902 H   0  0  0  0  0  0  0  0  0  0  0  0
   -0.6388   -2.5772   -0.8762 H   0  0  0  0  0  0  0  0  0  0  0  0
   -2.0469   -2.6082    0.2139 H   0  0  0  0  0  0  0  0  0  0  0  0
   -1.1205   -0.7237    0.0000 N   0  0  0  0  0  0  0  0  0  0  0  0
   -1.9947   -0.1726   -0.0291 H   0  0  0  0  0  0  0  0  0  0  0  0
    0.0000    0.0000    0.0000 C   0  0  0  0  0  0  0  0  0  0  0  0
    1.1205   -0.5175   -0.0000 O   0  0  0  0  0  0  0  0  0  0  0  0
   -0.1509    1.5307    0.0186 C   0  0  0  0  0  0  0  0  0  0  0  0
    0.7609    1.9106   -0.1868 H   0  0  0  0  0  0  0  0  0  0  0  0
   -0.8270    1.8892   -0.7576 H   0  0  0  0  0  0  0  0  0  0  0  0
   -0.4455    1.8462    1.0194 H   0  0  0  0  0  0  0  0  0  0  0  0
  1  5  1  0
  5  6  1  0
  5  9  2  0
  1  2  1  0
  1  3  1  0
  1  4  1  0
  6  7  1  0
  6  8  1  0
 10 14  1  0
 14 16  1  0
 16 17  2  0
 16 18  1  0
 10 11  1  0
 10 12  1  0
 10 13  1  0
 14 15  1  0
 18 19  1  0
 18 20  1  0
 18 21  1  0
M  END
>  <PDB_ID>  (112) 
pdb2gtd

>  <RESIDUE_NAME>  (112) 
GLN   PHE

>  <FRAG_NAME>  (112) 
ACEM   NMA

>  <FRAG_ATOM_NUM>  (112) 
fragi: 9  fragj: 12

>  <atom.prop.CHAIN_ID>  (112) 
A A A A A A A A A Z Z Z Z Z Z Z Z Z Z Z Z

>  <atom.prop.IS_HEAVY_ATOM>  (112) 
1 0 0 0 1 1 0 0 1 1 0 0 0 1 0 1 1 1 0 0 0

>  <DIFUSE_FUNC_ATOM>  (112) 
n/a

>  <FINAL_SINGLE_POINT_ENERGY>  (112) 
0

>  <NONCOV_INTER_ENERGY_QM>  (112) 
0

>  <FF_Energy>  (112) 
10.62

>  <QM_Energy>  (112) 
27.61

>  <source>  (112) 
ACEM_nNMA_07

>  <Index>  (112) 
8609

$$$$
ACEM-pdb2gtd-A-ASN-12:NMA-pdb2gtd-B-THR-163
     RDKit          3D

 21 19  0  0  0  0  0  0  0  0999 V2000
   -3.6348    2.2939    2.6801 C   0  0  0  0  0  0  0  0  0  0  0  0
   -3.7281    3.2629    2.4768 H   0  0  0  0  0  0  0  0  0  0  0  0
   -2.8060    2.1268    3.2034 H   0  0  0  0  0  0  0  0  0  0  0  0
   -4.4881    1.9879    3.2852 H   0  0  0  0  0  0  0  0  0  0  0  0
   -3.5650    1.5274    1.3931 C   0  0  0  0  0  0  0  0  0  0  0  0
   -3.1088    0.2860    1.4756 N   0  0  0  0  0  0  0  0  0  0  0  0
   -2.8393   -0.0964    2.3597 H   0  0  0  0  0  0  0  0  0  0  0  0
   -3.0334   -0.2768    0.6497 H   0  0  0  0  0  0  0  0  0  0  0  0
   -3.8681    2.0585    0.3241 O   0  0  0  0  0  0  0  0  0  0  0  0
   -1.1331   -2.1670   -0.1386 C   0  0  0  0  0  0  0  0  0  0  0  0
   -0.3903   -2.5501    0.4295 H   0  0  0  0  0  0  0  0  0  0  0  0
   -0.9699   -2.4690   -1.1732 H   0  0  0  0  0  0  0  0  0  0  0  0
   -2.0654   -2.5939    0.2310 H   0  0  0  0  0  0  0  0  0  0  0  0
   -1.1285   -0.7172    0.0000 N   0  0  0  0  0  0  0  0  0  0  0  0
   -1.9963   -0.1481    0.1072 H   0  0  0  0  0  0  0  0  0  0  0  0
    0.0000    0.0000    0.0000 C   0  0  0  0  0  0  0  0  0  0  0  0
    1.1285   -0.5036    0.0000 O   0  0  0  0  0  0  0  0  0  0  0  0
   -0.1405    1.5104    0.0459 C   0  0  0  0  0  0  0  0  0  0  0  0
   -0.9740    1.7355    0.5494 H   0  0  0  0  0  0  0  0  0  0  0  0
    0.7163    1.9226    0.5790 H   0  0  0  0  0  0  0  0  0  0  0  0
   -0.1313    1.9355   -0.9577 H   0  0  0  0  0  0  0  0  0  0  0  0
  1  5  1  0
  5  6  1  0
  5  9  2  0
  1  2  1  0
  1  3  1  0
  1  4  1  0
  6  7  1  0
  6  8  1  0
 10 14  1  0
 14 16  1  0
 16 17  2  0
 16 18  1  0
 10 11  1  0
 10 12  1  0
 10 13  1  0
 14 15  1  0
 18 19  1  0
 18 20  1  0
 18 21  1  0
M  END
>  <PDB_ID>  (113) 
pdb2gtd

>  <RESIDUE_NAME>  (113) 
ASN   THR

>  <FRAG_NAME>  (113) 
ACEM   NMA

>  <FRAG_ATOM_NUM>  (113) 
fragi: 9  fragj: 12

>  <atom.prop.CHAIN_ID>  (113) 
A A A A A A A A A Z Z Z Z Z Z Z Z Z Z Z Z

>  <atom.prop.IS_HEAVY_ATOM>  (113) 
1 0 0 0 1 1 0 0 1 1 0 0 0 1 0 1 1 1 0 0 0

>  <DIFUSE_FUNC_ATOM>  (113) 
n/a

>  <FINAL_SINGLE_POINT_ENERGY>  (113) 
0

>  <NONCOV_INTER_ENERGY_QM>  (113) 
0

>  <FF_Energy>  (113) 
6.71

>  <QM_Energy>  (113) 
18.5

>  <source>  (113) 
ACEM_nNMA_07

>  <Index>  (113) 
8653

$$$$
ACEM-pdb1fui-C-GLN-404:NMA-pdb1fui-C-MET-413
     RDKit          3D

 21 19  0  0  0  0  0  0  0  0999 V2000
   -4.6339    2.0507    2.3761 C   0  0  0  0  0  0  0  0  0  0  0  0
   -5.4854    1.6468    2.7156 H   0  0  0  0  0  0  0  0  0  0  0  0
   -4.7799    3.0261    2.2009 H   0  0  0  0  0  0  0  0  0  0  0  0
   -3.8604    1.9383    3.1358 H   0  0  0  0  0  0  0  0  0  0  0  0
   -4.2777    1.3765    1.0607 C   0  0  0  0  0  0  0  0  0  0  0  0
   -3.3329    0.4527    1.1064 N   0  0  0  0  0  0  0  0  0  0  0  0
   -3.0505   -0.0512    0.2690 H   0  0  0  0  0  0  0  0  0  0  0  0
   -2.8832    0.2484    1.9998 H   0  0  0  0  0  0  0  0  0  0  0  0
   -4.8403    1.6864    0.0166 O   0  0  0  0  0  0  0  0  0  0  0  0
   -1.0675   -2.1637    0.0525 C   0  0  0  0  0  0  0  0  0  0  0  0
   -0.0837   -2.4522    0.0726 H   0  0  0  0  0  0  0  0  0  0  0  0
   -1.5609   -2.6693   -0.7777 H   0  0  0  0  0  0  0  0  0  0  0  0
   -1.5379   -2.4964    0.9778 H   0  0  0  0  0  0  0  0  0  0  0  0
   -1.1181   -0.7105   -0.0000 N   0  0  0  0  0  0  0  0  0  0  0  0
   -1.9914   -0.1646   -0.0390 H   0  0  0  0  0  0  0  0  0  0  0  0
    0.0000    0.0000    0.0000 C   0  0  0  0  0  0  0  0  0  0  0  0
    1.1181   -0.5165   -0.0000 O   0  0  0  0  0  0  0  0  0  0  0  0
   -0.1389    1.5063    0.0341 C   0  0  0  0  0  0  0  0  0  0  0  0
   -1.0412    1.7290    0.3145 H   0  0  0  0  0  0  0  0  0  0  0  0
    0.5422    1.7622    0.8457 H   0  0  0  0  0  0  0  0  0  0  0  0
    0.1664    1.9463   -0.9152 H   0  0  0  0  0  0  0  0  0  0  0  0
  1  5  1  0
  5  6  1  0
  5  9  2  0
  1  2  1  0
  1  3  1  0
  1  4  1  0
  6  7  1  0
  6  8  1  0
 10 14  1  0
 14 16  1  0
 16 17  2  0
 16 18  1  0
 10 11  1  0
 10 12  1  0
 10 13  1  0
 14 15  1  0
 18 19  1  0
 18 20  1  0
 18 21  1  0
M  END
>  <PDB_ID>  (114) 
pdb1fui

>  <RESIDUE_NAME>  (114) 
GLN   MET

>  <FRAG_NAME>  (114) 
ACEM   NMA

>  <FRAG_ATOM_NUM>  (114) 
fragi: 9  fragj: 12

>  <atom.prop.CHAIN_ID>  (114) 
A A A A A A A A A Z Z Z Z Z Z Z Z Z Z Z Z

>  <atom.prop.IS_HEAVY_ATOM>  (114) 
1 0 0 0 1 1 0 0 1 1 0 0 0 1 0 1 1 1 0 0 0

>  <DIFUSE_FUNC_ATOM>  (114) 
n/a

>  <FINAL_SINGLE_POINT_ENERGY>  (114) 
0

>  <NONCOV_INTER_ENERGY_QM>  (114) 
0

>  <FF_Energy>  (114) 
8.68

>  <QM_Energy>  (114) 
20.34

>  <source>  (114) 
ACEM_nNMA_07

>  <Index>  (114) 
10576

$$$$
ACEM-pdb2gtd-C-ASN-12:NMA-pdb2gtd-D-THR-163
     RDKit          3D

 21 19  0  0  0  0  0  0  0  0999 V2000
   -3.8533    2.4041    2.4265 C   0  0  0  0  0  0  0  0  0  0  0  0
   -3.9666    3.3470    2.1309 H   0  0  0  0  0  0  0  0  0  0  0  0
   -3.0958    2.3309    3.0665 H   0  0  0  0  0  0  0  0  0  0  0  0
   -4.7648    2.0910    2.9356 H   0  0  0  0  0  0  0  0  0  0  0  0
   -3.5750    1.5484    1.2374 C   0  0  0  0  0  0  0  0  0  0  0  0
   -3.1157    0.3257    1.4685 N   0  0  0  0  0  0  0  0  0  0  0  0
   -2.9792    0.0180    2.4137 H   0  0  0  0  0  0  0  0  0  0  0  0
   -2.9086   -0.2872    0.7093 H   0  0  0  0  0  0  0  0  0  0  0  0
   -3.7268    2.0007    0.1148 O   0  0  0  0  0  0  0  0  0  0  0  0
   -1.0969   -2.1861   -0.2059 C   0  0  0  0  0  0  0  0  0  0  0  0
   -0.4564   -2.5877    0.4614 H   0  0  0  0  0  0  0  0  0  0  0  0
   -0.7668   -2.4359   -1.2141 H   0  0  0  0  0  0  0  0  0  0  0  0
   -2.0746   -2.6347   -0.0292 H   0  0  0  0  0  0  0  0  0  0  0  0
   -1.1201   -0.7278   -0.0000 N   0  0  0  0  0  0  0  0  0  0  0  0
   -1.9912   -0.1901    0.1544 H   0  0  0  0  0  0  0  0  0  0  0  0
    0.0000    0.0000    0.0000 C   0  0  0  0  0  0  0  0  0  0  0  0
    1.1201   -0.5255    0.0000 O   0  0  0  0  0  0  0  0  0  0  0  0
   -0.1357    1.5428    0.0731 C   0  0  0  0  0  0  0  0  0  0  0  0
   -0.9975    1.7500    0.5253 H   0  0  0  0  0  0  0  0  0  0  0  0
    0.6868    1.9338    0.6722 H   0  0  0  0  0  0  0  0  0  0  0  0
   -0.0456    2.0178   -0.9038 H   0  0  0  0  0  0  0  0  0  0  0  0
  1  5  1  0
  5  6  1  0
  5  9  2  0
  1  2  1  0
  1  3  1  0
  1  4  1  0
  6  7  1  0
  6  8  1  0
 10 14  1  0
 14 16  1  0
 16 17  2  0
 16 18  1  0
 10 11  1  0
 10 12  1  0
 10 13  1  0
 14 15  1  0
 18 19  1  0
 18 20  1  0
 18 21  1  0
M  END
>  <PDB_ID>  (115) 
pdb2gtd

>  <RESIDUE_NAME>  (115) 
ASN   THR

>  <FRAG_NAME>  (115) 
ACEM   NMA

>  <FRAG_ATOM_NUM>  (115) 
fragi: 9  fragj: 12

>  <atom.prop.CHAIN_ID>  (115) 
A A A A A A A A A Z Z Z Z Z Z Z Z Z Z Z Z

>  <atom.prop.IS_HEAVY_ATOM>  (115) 
1 0 0 0 1 1 0 0 1 1 0 0 0 1 0 1 1 1 0 0 0

>  <DIFUSE_FUNC_ATOM>  (115) 
n/a

>  <FINAL_SINGLE_POINT_ENERGY>  (115) 
0

>  <NONCOV_INTER_ENERGY_QM>  (115) 
0

>  <FF_Energy>  (115) 
7.02

>  <QM_Energy>  (115) 
23.13

>  <source>  (115) 
ACEM_nNMA_07

>  <Index>  (115) 
11596

$$$$
ACEM-pdb2gvn-N-ASN-64:NMA-pdb2gvn-J-SER-256
     RDKit          3D

 21 19  0  0  0  0  0  0  0  0999 V2000
   -4.7485    2.1058    2.3802 C   0  0  0  0  0  0  0  0  0  0  0  0
   -4.8324    2.4754    3.3016 H   0  0  0  0  0  0  0  0  0  0  0  0
   -5.5642    1.5844    2.1439 H   0  0  0  0  0  0  0  0  0  0  0  0
   -4.6621    2.9392    1.6831 H   0  0  0  0  0  0  0  0  0  0  0  0
   -3.5507    1.1836    2.3340 C   0  0  0  0  0  0  0  0  0  0  0  0
   -3.1340    0.8122    1.1307 N   0  0  0  0  0  0  0  0  0  0  0  0
   -3.6074    1.1478    0.3129 H   0  0  0  0  0  0  0  0  0  0  0  0
   -2.3505    0.1993    1.0356 H   0  0  0  0  0  0  0  0  0  0  0  0
   -2.9744    0.8503    3.3690 O   0  0  0  0  0  0  0  0  0  0  0  0
   -1.0764   -2.1876   -0.0257 C   0  0  0  0  0  0  0  0  0  0  0  0
   -0.4708   -2.5077    0.7142 H   0  0  0  0  0  0  0  0  0  0  0  0
   -0.6915   -2.5602   -0.9750 H   0  0  0  0  0  0  0  0  0  0  0  0
   -2.0559   -2.6144    0.1898 H   0  0  0  0  0  0  0  0  0  0  0  0
   -1.1192   -0.7216   -0.0000 N   0  0  0  0  0  0  0  0  0  0  0  0
   -1.9959   -0.1761    0.0193 H   0  0  0  0  0  0  0  0  0  0  0  0
    0.0000    0.0000    0.0000 C   0  0  0  0  0  0  0  0  0  0  0  0
    1.1192   -0.5098    0.0000 O   0  0  0  0  0  0  0  0  0  0  0  0
   -0.1455    1.5176   -0.0137 C   0  0  0  0  0  0  0  0  0  0  0  0
   -0.6049    1.7874    0.8176 H   0  0  0  0  0  0  0  0  0  0  0  0
    0.8697    1.9135    0.0086 H   0  0  0  0  0  0  0  0  0  0  0  0
   -0.6582    1.8322   -0.9227 H   0  0  0  0  0  0  0  0  0  0  0  0
  1  5  1  0
  5  6  1  0
  5  9  2  0
  1  2  1  0
  1  3  1  0
  1  4  1  0
  6  7  1  0
  6  8  1  0
 10 14  1  0
 14 16  1  0
 16 17  2  0
 16 18  1  0
 10 11  1  0
 10 12  1  0
 10 13  1  0
 14 15  1  0
 18 19  1  0
 18 20  1  0
 18 21  1  0
M  END
>  <PDB_ID>  (116) 
pdb2gvn

>  <RESIDUE_NAME>  (116) 
ASN   SER

>  <FRAG_NAME>  (116) 
ACEM   NMA

>  <FRAG_ATOM_NUM>  (116) 
fragi: 9  fragj: 12

>  <atom.prop.CHAIN_ID>  (116) 
A A A A A A A A A Z Z Z Z Z Z Z Z Z Z Z Z

>  <atom.prop.IS_HEAVY_ATOM>  (116) 
1 0 0 0 1 1 0 0 1 1 0 0 0 1 0 1 1 1 0 0 0

>  <DIFUSE_FUNC_ATOM>  (116) 
n/a

>  <FINAL_SINGLE_POINT_ENERGY>  (116) 
0

>  <NONCOV_INTER_ENERGY_QM>  (116) 
0

>  <FF_Energy>  (116) 
8.92

>  <QM_Energy>  (116) 
19.38

>  <source>  (116) 
ACEM_nNMA_07

>  <Index>  (116) 
12628

$$$$
ACEM-pdb1g59-A-ASN-314:NMA-pdb1g59-A-PHE-261
     RDKit          3D

 21 19  0  0  0  0  0  0  0  0999 V2000
   -5.1112    1.9095   -0.1682 C   0  0  0  0  0  0  0  0  0  0  0  0
   -5.0170    2.5121   -0.9552 H   0  0  0  0  0  0  0  0  0  0  0  0
   -5.2900    2.4415    0.6543 H   0  0  0  0  0  0  0  0  0  0  0  0
   -5.9562    1.2429   -0.3405 H   0  0  0  0  0  0  0  0  0  0  0  0
   -3.8183    1.1506    0.0175 C   0  0  0  0  0  0  0  0  0  0  0  0
   -3.6042    0.1539   -0.8341 N   0  0  0  0  0  0  0  0  0  0  0  0
   -4.2708   -0.0532   -1.5489 H   0  0  0  0  0  0  0  0  0  0  0  0
   -2.7672   -0.3931   -0.7619 H   0  0  0  0  0  0  0  0  0  0  0  0
   -3.0268    1.4397    0.9187 O   0  0  0  0  0  0  0  0  0  0  0  0
   -1.1245   -2.1480   -0.0497 C   0  0  0  0  0  0  0  0  0  0  0  0
   -0.4216   -2.4990    0.5691 H   0  0  0  0  0  0  0  0  0  0  0  0
   -0.8804   -2.4690   -1.0623 H   0  0  0  0  0  0  0  0  0  0  0  0
   -2.1171   -2.5235    0.1987 H   0  0  0  0  0  0  0  0  0  0  0  0
   -1.1202   -0.7041    0.0000 N   0  0  0  0  0  0  0  0  0  0  0  0
   -1.9921   -0.1271    0.0390 H   0  0  0  0  0  0  0  0  0  0  0  0
    0.0000    0.0000    0.0000 C   0  0  0  0  0  0  0  0  0  0  0  0
    1.1202   -0.5152   -0.0000 O   0  0  0  0  0  0  0  0  0  0  0  0
   -0.1653    1.5225    0.0416 C   0  0  0  0  0  0  0  0  0  0  0  0
   -1.0972    1.7002    0.3750 H   0  0  0  0  0  0  0  0  0  0  0  0
    0.5243    1.9663    0.7596 H   0  0  0  0  0  0  0  0  0  0  0  0
   -0.0002    1.9508   -0.9471 H   0  0  0  0  0  0  0  0  0  0  0  0
  1  5  1  0
  5  6  1  0
  5  9  2  0
  1  2  1  0
  1  3  1  0
  1  4  1  0
  6  7  1  0
  6  8  1  0
 10 14  1  0
 14 16  1  0
 16 17  2  0
 16 18  1  0
 10 11  1  0
 10 12  1  0
 10 13  1  0
 14 15  1  0
 18 19  1  0
 18 20  1  0
 18 21  1  0
M  END
>  <PDB_ID>  (117) 
pdb1g59

>  <RESIDUE_NAME>  (117) 
ASN   PHE

>  <FRAG_NAME>  (117) 
ACEM   NMA

>  <FRAG_ATOM_NUM>  (117) 
fragi: 9  fragj: 12

>  <atom.prop.CHAIN_ID>  (117) 
A A A A A A A A A Z Z Z Z Z Z Z Z Z Z Z Z

>  <atom.prop.IS_HEAVY_ATOM>  (117) 
1 0 0 0 1 1 0 0 1 1 0 0 0 1 0 1 1 1 0 0 0

>  <DIFUSE_FUNC_ATOM>  (117) 
n/a

>  <FINAL_SINGLE_POINT_ENERGY>  (117) 
0

>  <NONCOV_INTER_ENERGY_QM>  (117) 
0

>  <FF_Energy>  (117) 
5.85

>  <QM_Energy>  (117) 
17.99

>  <source>  (117) 
ACEM_nNMA_07

>  <Index>  (117) 
14211

$$$$
ACEM-pdb1fui-D-GLN-404:NMA-pdb1fui-D-MET-413
     RDKit          3D

 21 19  0  0  0  0  0  0  0  0999 V2000
   -4.6293    1.8832    2.5372 C   0  0  0  0  0  0  0  0  0  0  0  0
   -5.4162    1.3863    2.9074 H   0  0  0  0  0  0  0  0  0  0  0  0
   -4.8662    2.8520    2.4420 H   0  0  0  0  0  0  0  0  0  0  0  0
   -3.8033    1.7975    3.2432 H   0  0  0  0  0  0  0  0  0  0  0  0
   -4.2887    1.3273    1.1939 C   0  0  0  0  0  0  0  0  0  0  0  0
   -3.3319    0.4143    1.1593 N   0  0  0  0  0  0  0  0  0  0  0  0
   -3.0488   -0.0270    0.2792 H   0  0  0  0  0  0  0  0  0  0  0  0
   -2.8697    0.1469    2.0289 H   0  0  0  0  0  0  0  0  0  0  0  0
   -4.8965    1.6917    0.1895 O   0  0  0  0  0  0  0  0  0  0  0  0
   -1.0742   -2.1693   -0.0006 C   0  0  0  0  0  0  0  0  0  0  0  0
   -0.0889   -2.4530    0.0046 H   0  0  0  0  0  0  0  0  0  0  0  0
   -1.5706   -2.6485   -0.8443 H   0  0  0  0  0  0  0  0  0  0  0  0
   -1.5229   -2.5514    0.9163 H   0  0  0  0  0  0  0  0  0  0  0  0
   -1.1285   -0.7092    0.0000 N   0  0  0  0  0  0  0  0  0  0  0  0
   -1.9966   -0.1630    0.0004 H   0  0  0  0  0  0  0  0  0  0  0  0
    0.0000    0.0000    0.0000 C   0  0  0  0  0  0  0  0  0  0  0  0
    1.1285   -0.5203   -0.0000 O   0  0  0  0  0  0  0  0  0  0  0  0
   -0.1315    1.5084    0.0899 C   0  0  0  0  0  0  0  0  0  0  0  0
   -1.0248    1.7241    0.4037 H   0  0  0  0  0  0  0  0  0  0  0  0
    0.5726    1.7401    0.8890 H   0  0  0  0  0  0  0  0  0  0  0  0
    0.1450    1.9893   -0.8485 H   0  0  0  0  0  0  0  0  0  0  0  0
  1  5  1  0
  5  6  1  0
  5  9  2  0
  1  2  1  0
  1  3  1  0
  1  4  1  0
  6  7  1  0
  6  8  1  0
 10 14  1  0
 14 16  1  0
 16 17  2  0
 16 18  1  0
 10 11  1  0
 10 12  1  0
 10 13  1  0
 14 15  1  0
 18 19  1  0
 18 20  1  0
 18 21  1  0
M  END
>  <PDB_ID>  (118) 
pdb1fui

>  <RESIDUE_NAME>  (118) 
GLN   MET

>  <FRAG_NAME>  (118) 
ACEM   NMA

>  <FRAG_ATOM_NUM>  (118) 
fragi: 9  fragj: 12

>  <atom.prop.CHAIN_ID>  (118) 
A A A A A A A A A Z Z Z Z Z Z Z Z Z Z Z Z

>  <atom.prop.IS_HEAVY_ATOM>  (118) 
1 0 0 0 1 1 0 0 1 1 0 0 0 1 0 1 1 1 0 0 0

>  <DIFUSE_FUNC_ATOM>  (118) 
n/a

>  <FINAL_SINGLE_POINT_ENERGY>  (118) 
0

>  <NONCOV_INTER_ENERGY_QM>  (118) 
0

>  <FF_Energy>  (118) 
9.15

>  <QM_Energy>  (118) 
21.05

>  <source>  (118) 
ACEM_nNMA_07

>  <Index>  (118) 
14887

$$$$
ACEM-pdb2h8g-A-ASN-260:NMA-pdb2h8g-A-LYS-70
     RDKit          3D

 21 19  0  0  0  0  0  0  0  0999 V2000
   -5.9045    0.6355   -1.7058 C   0  0  0  0  0  0  0  0  0  0  0  0
   -5.4035    0.8617   -2.5361 H   0  0  0  0  0  0  0  0  0  0  0  0
   -6.4918    1.3952   -1.4408 H   0  0  0  0  0  0  0  0  0  0  0  0
   -6.5340   -0.2310   -1.9082 H   0  0  0  0  0  0  0  0  0  0  0  0
   -4.9040    0.3847   -0.5902 C   0  0  0  0  0  0  0  0  0  0  0  0
   -3.7576   -0.1863   -0.9416 N   0  0  0  0  0  0  0  0  0  0  0  0
   -3.5903   -0.4209   -1.9013 H   0  0  0  0  0  0  0  0  0  0  0  0
   -3.0615   -0.3821   -0.2523 H   0  0  0  0  0  0  0  0  0  0  0  0
   -5.1647    0.6900    0.5761 O   0  0  0  0  0  0  0  0  0  0  0  0
   -1.0849   -2.1730    0.0291 C   0  0  0  0  0  0  0  0  0  0  0  0
   -0.1551   -2.4454    0.3294 H   0  0  0  0  0  0  0  0  0  0  0  0
   -1.2449   -2.6221   -0.9512 H   0  0  0  0  0  0  0  0  0  0  0  0
   -1.8371   -2.5466    0.7239 H   0  0  0  0  0  0  0  0  0  0  0  0
   -1.1182   -0.7159    0.0000 N   0  0  0  0  0  0  0  0  0  0  0  0
   -1.9938   -0.1621   -0.0216 H   0  0  0  0  0  0  0  0  0  0  0  0
    0.0000    0.0000    0.0000 C   0  0  0  0  0  0  0  0  0  0  0  0
    1.1182   -0.5118   -0.0000 O   0  0  0  0  0  0  0  0  0  0  0  0
   -0.1559    1.5154   -0.0137 C   0  0  0  0  0  0  0  0  0  0  0  0
    0.2705    1.8905    0.8169 H   0  0  0  0  0  0  0  0  0  0  0  0
    0.3363    1.9407   -0.8884 H   0  0  0  0  0  0  0  0  0  0  0  0
   -1.2117    1.7862   -0.0032 H   0  0  0  0  0  0  0  0  0  0  0  0
  1  5  1  0
  5  6  1  0
  5  9  2  0
  1  2  1  0
  1  3  1  0
  1  4  1  0
  6  7  1  0
  6  8  1  0
 10 14  1  0
 14 16  1  0
 16 17  2  0
 16 18  1  0
 10 11  1  0
 10 12  1  0
 10 13  1  0
 14 15  1  0
 18 19  1  0
 18 20  1  0
 18 21  1  0
M  END
>  <PDB_ID>  (119) 
pdb2h8g

>  <RESIDUE_NAME>  (119) 
ASN   LYS

>  <FRAG_NAME>  (119) 
ACEM   NMA

>  <FRAG_ATOM_NUM>  (119) 
fragi: 9  fragj: 12

>  <atom.prop.CHAIN_ID>  (119) 
A A A A A A A A A Z Z Z Z Z Z Z Z Z Z Z Z

>  <atom.prop.IS_HEAVY_ATOM>  (119) 
1 0 0 0 1 1 0 0 1 1 0 0 0 1 0 1 1 1 0 0 0

>  <DIFUSE_FUNC_ATOM>  (119) 
n/a

>  <FINAL_SINGLE_POINT_ENERGY>  (119) 
0

>  <NONCOV_INTER_ENERGY_QM>  (119) 
0

>  <FF_Energy>  (119) 
5.46

>  <QM_Energy>  (119) 
17.75

>  <source>  (119) 
ACEM_nNMA_07

>  <Index>  (119) 
17878

$$$$
ACEM-pdb1g59-C-ASN-314:NMA-pdb1g59-C-PHE-261
     RDKit          3D

 21 19  0  0  0  0  0  0  0  0999 V2000
   -5.1495    1.9548   -0.6530 C   0  0  0  0  0  0  0  0  0  0  0  0
   -5.0146    2.4433   -1.5131 H   0  0  0  0  0  0  0  0  0  0  0  0
   -5.3970    2.6012    0.0669 H   0  0  0  0  0  0  0  0  0  0  0  0
   -5.9733    1.2528   -0.7821 H   0  0  0  0  0  0  0  0  0  0  0  0
   -3.8612    1.2754   -0.2728 C   0  0  0  0  0  0  0  0  0  0  0  0
   -3.4855    0.2343   -1.0164 N   0  0  0  0  0  0  0  0  0  0  0  0
   -4.0580   -0.0489   -1.7890 H   0  0  0  0  0  0  0  0  0  0  0  0
   -2.6446   -0.2545   -0.8063 H   0  0  0  0  0  0  0  0  0  0  0  0
   -3.2008    1.6844    0.6757 O   0  0  0  0  0  0  0  0  0  0  0  0
   -1.0973   -2.1749    0.0173 C   0  0  0  0  0  0  0  0  0  0  0  0
   -0.4048   -2.4684    0.6817 H   0  0  0  0  0  0  0  0  0  0  0  0
   -0.8243   -2.5534   -0.9677 H   0  0  0  0  0  0  0  0  0  0  0  0
   -2.0684   -2.5748    0.3093 H   0  0  0  0  0  0  0  0  0  0  0  0
   -1.1275   -0.7111   -0.0000 N   0  0  0  0  0  0  0  0  0  0  0  0
   -1.9982   -0.1553   -0.0127 H   0  0  0  0  0  0  0  0  0  0  0  0
    0.0000    0.0000    0.0000 C   0  0  0  0  0  0  0  0  0  0  0  0
    1.1275   -0.5104    0.0000 O   0  0  0  0  0  0  0  0  0  0  0  0
   -0.1488    1.5015   -0.0177 C   0  0  0  0  0  0  0  0  0  0  0  0
   -1.0836    1.7102    0.2784 H   0  0  0  0  0  0  0  0  0  0  0  0
    0.5217    1.9443    0.7189 H   0  0  0  0  0  0  0  0  0  0  0  0
    0.0887    1.8502   -1.0227 H   0  0  0  0  0  0  0  0  0  0  0  0
  1  5  1  0
  5  6  1  0
  5  9  2  0
  1  2  1  0
  1  3  1  0
  1  4  1  0
  6  7  1  0
  6  8  1  0
 10 14  1  0
 14 16  1  0
 16 17  2  0
 16 18  1  0
 10 11  1  0
 10 12  1  0
 10 13  1  0
 14 15  1  0
 18 19  1  0
 18 20  1  0
 18 21  1  0
M  END
>  <PDB_ID>  (120) 
pdb1g59

>  <RESIDUE_NAME>  (120) 
ASN   PHE

>  <FRAG_NAME>  (120) 
ACEM   NMA

>  <FRAG_ATOM_NUM>  (120) 
fragi: 9  fragj: 12

>  <atom.prop.CHAIN_ID>  (120) 
A A A A A A A A A Z Z Z Z Z Z Z Z Z Z Z Z

>  <atom.prop.IS_HEAVY_ATOM>  (120) 
1 0 0 0 1 1 0 0 1 1 0 0 0 1 0 1 1 1 0 0 0

>  <DIFUSE_FUNC_ATOM>  (120) 
n/a

>  <FINAL_SINGLE_POINT_ENERGY>  (120) 
0

>  <NONCOV_INTER_ENERGY_QM>  (120) 
0

>  <FF_Energy>  (120) 
5.44

>  <QM_Energy>  (120) 
23.58

>  <source>  (120) 
ACEM_nNMA_07

>  <Index>  (120) 
18712

$$$$
ACEM-pdb1g63-J-ASN-85:NMA-pdb1g63-E-ILE-94
     RDKit          3D

 21 19  0  0  0  0  0  0  0  0999 V2000
   -5.1216   -0.6761   -0.3359 C   0  0  0  0  0  0  0  0  0  0  0  0
   -4.5851   -1.3735    0.1303 H   0  0  0  0  0  0  0  0  0  0  0  0
   -6.0422   -1.0108   -0.5138 H   0  0  0  0  0  0  0  0  0  0  0  0
   -5.1969    0.1905    0.3208 H   0  0  0  0  0  0  0  0  0  0  0  0
   -4.4527   -0.3570   -1.6674 C   0  0  0  0  0  0  0  0  0  0  0  0
   -3.1542   -0.1069   -1.6336 N   0  0  0  0  0  0  0  0  0  0  0  0
   -2.6614   -0.1392   -0.7603 H   0  0  0  0  0  0  0  0  0  0  0  0
   -2.6596    0.1141   -2.4744 H   0  0  0  0  0  0  0  0  0  0  0  0
   -5.1001   -0.3323   -2.7131 O   0  0  0  0  0  0  0  0  0  0  0  0
   -1.0897   -2.1624   -0.0215 C   0  0  0  0  0  0  0  0  0  0  0  0
   -0.1443   -2.4651   -0.2047 H   0  0  0  0  0  0  0  0  0  0  0  0
   -1.7249   -2.5646   -0.8106 H   0  0  0  0  0  0  0  0  0  0  0  0
   -1.3797   -2.5500    0.9551 H   0  0  0  0  0  0  0  0  0  0  0  0
   -1.1151   -0.7121    0.0000 N   0  0  0  0  0  0  0  0  0  0  0  0
   -1.9912   -0.1525    0.0164 H   0  0  0  0  0  0  0  0  0  0  0  0
    0.0000    0.0000    0.0000 C   0  0  0  0  0  0  0  0  0  0  0  0
    1.1151   -0.5122   -0.0000 O   0  0  0  0  0  0  0  0  0  0  0  0
   -0.1769    1.5166    0.0315 C   0  0  0  0  0  0  0  0  0  0  0  0
   -1.1606    1.6871    0.1226 H   0  0  0  0  0  0  0  0  0  0  0  0
    0.2923    1.9371    0.9209 H   0  0  0  0  0  0  0  0  0  0  0  0
    0.2440    1.9670   -0.8675 H   0  0  0  0  0  0  0  0  0  0  0  0
  1  5  1  0
  5  6  1  0
  5  9  2  0
  1  2  1  0
  1  3  1  0
  1  4  1  0
  6  7  1  0
  6  8  1  0
 10 14  1  0
 14 16  1  0
 16 17  2  0
 16 18  1  0
 10 11  1  0
 10 12  1  0
 10 13  1  0
 14 15  1  0
 18 19  1  0
 18 20  1  0
 18 21  1  0
M  END
>  <PDB_ID>  (121) 
pdb1g63

>  <RESIDUE_NAME>  (121) 
ASN   ILE

>  <FRAG_NAME>  (121) 
ACEM   NMA

>  <FRAG_ATOM_NUM>  (121) 
fragi: 9  fragj: 12

>  <atom.prop.CHAIN_ID>  (121) 
A A A A A A A A A Z Z Z Z Z Z Z Z Z Z Z Z

>  <atom.prop.IS_HEAVY_ATOM>  (121) 
1 0 0 0 1 1 0 0 1 1 0 0 0 1 0 1 1 1 0 0 0

>  <DIFUSE_FUNC_ATOM>  (121) 
n/a

>  <FINAL_SINGLE_POINT_ENERGY>  (121) 
0

>  <NONCOV_INTER_ENERGY_QM>  (121) 
0

>  <FF_Energy>  (121) 
14.34

>  <QM_Energy>  (121) 
27.3

>  <source>  (121) 
ACEM_nNMA_07

>  <Index>  (121) 
19124

$$$$
ACEM-pdb2gyy-C-GLN-288:NMA-pdb2gyy-D-LYS-196
     RDKit          3D

 21 19  0  0  0  0  0  0  0  0999 V2000
   -6.0954   -0.1247    1.2960 C   0  0  0  0  0  0  0  0  0  0  0  0
   -6.9004    0.2108    0.8081 H   0  0  0  0  0  0  0  0  0  0  0  0
   -5.8128    0.5453    1.9807 H   0  0  0  0  0  0  0  0  0  0  0  0
   -6.3490   -1.0585    1.7979 H   0  0  0  0  0  0  0  0  0  0  0  0
   -4.9773   -0.3109    0.3114 C   0  0  0  0  0  0  0  0  0  0  0  0
   -3.8211    0.2399    0.6240 N   0  0  0  0  0  0  0  0  0  0  0  0
   -3.0042    0.1470    0.0115 H   0  0  0  0  0  0  0  0  0  0  0  0
   -3.7404    0.7695    1.4937 H   0  0  0  0  0  0  0  0  0  0  0  0
   -5.1554   -0.9568   -0.7199 O   0  0  0  0  0  0  0  0  0  0  0  0
   -1.1218   -2.1671    0.1366 C   0  0  0  0  0  0  0  0  0  0  0  0
   -0.1696   -2.4835    0.2552 H   0  0  0  0  0  0  0  0  0  0  0  0
   -1.5438   -2.6533   -0.7430 H   0  0  0  0  0  0  0  0  0  0  0  0
   -1.6710   -2.4652    1.0297 H   0  0  0  0  0  0  0  0  0  0  0  0
   -1.1223   -0.7168    0.0000 N   0  0  0  0  0  0  0  0  0  0  0  0
   -1.9941   -0.1521   -0.1055 H   0  0  0  0  0  0  0  0  0  0  0  0
    0.0000    0.0000    0.0000 C   0  0  0  0  0  0  0  0  0  0  0  0
    1.1223   -0.5071   -0.0000 O   0  0  0  0  0  0  0  0  0  0  0  0
   -0.1565    1.5181    0.0101 C   0  0  0  0  0  0  0  0  0  0  0  0
    0.6878    1.9318   -0.3776 H   0  0  0  0  0  0  0  0  0  0  0  0
   -1.0123    1.8691   -0.5665 H   0  0  0  0  0  0  0  0  0  0  0  0
   -0.2330    1.8490    1.0459 H   0  0  0  0  0  0  0  0  0  0  0  0
  1  5  1  0
  5  6  1  0
  5  9  2  0
  1  2  1  0
  1  3  1  0
  1  4  1  0
  6  7  1  0
  6  8  1  0
 10 14  1  0
 14 16  1  0
 16 17  2  0
 16 18  1  0
 10 11  1  0
 10 12  1  0
 10 13  1  0
 14 15  1  0
 18 19  1  0
 18 20  1  0
 18 21  1  0
M  END
>  <PDB_ID>  (122) 
pdb2gyy

>  <RESIDUE_NAME>  (122) 
GLN   LYS

>  <FRAG_NAME>  (122) 
ACEM   NMA

>  <FRAG_ATOM_NUM>  (122) 
fragi: 9  fragj: 12

>  <atom.prop.CHAIN_ID>  (122) 
A A A A A A A A A Z Z Z Z Z Z Z Z Z Z Z Z

>  <atom.prop.IS_HEAVY_ATOM>  (122) 
1 0 0 0 1 1 0 0 1 1 0 0 0 1 0 1 1 1 0 0 0

>  <DIFUSE_FUNC_ATOM>  (122) 
n/a

>  <FINAL_SINGLE_POINT_ENERGY>  (122) 
0

>  <NONCOV_INTER_ENERGY_QM>  (122) 
0

>  <FF_Energy>  (122) 
9.62

>  <QM_Energy>  (122) 
20.76

>  <source>  (122) 
ACEM_nNMA_07

>  <Index>  (122) 
20322

$$$$
ACEM-pdb2h8p-A-ASN-201:NMA-pdb2h8p-A-ASN-160
     RDKit          3D

 21 19  0  0  0  0  0  0  0  0999 V2000
   -6.0666   -1.0258    0.0932 C   0  0  0  0  0  0  0  0  0  0  0  0
   -5.9208   -1.5347    0.9369 H   0  0  0  0  0  0  0  0  0  0  0  0
   -6.4606   -1.6201   -0.6024 H   0  0  0  0  0  0  0  0  0  0  0  0
   -6.7724   -0.2203    0.2958 H   0  0  0  0  0  0  0  0  0  0  0  0
   -4.7196   -0.5210   -0.4064 C   0  0  0  0  0  0  0  0  0  0  0  0
   -3.8500   -0.1262    0.5235 N   0  0  0  0  0  0  0  0  0  0  0  0
   -4.1028   -0.1797    1.4912 H   0  0  0  0  0  0  0  0  0  0  0  0
   -2.9539    0.2185    0.2573 H   0  0  0  0  0  0  0  0  0  0  0  0
   -4.4655   -0.4854   -1.6125 O   0  0  0  0  0  0  0  0  0  0  0  0
   -1.2042   -2.1597   -0.0145 C   0  0  0  0  0  0  0  0  0  0  0  0
   -2.1698   -2.4296    0.1290 H   0  0  0  0  0  0  0  0  0  0  0  0
   -0.6121   -2.6131    0.7804 H   0  0  0  0  0  0  0  0  0  0  0  0
   -0.8832   -2.5356   -0.9859 H   0  0  0  0  0  0  0  0  0  0  0  0
   -1.1349   -0.7046   -0.0000 N   0  0  0  0  0  0  0  0  0  0  0  0
   -2.0017   -0.0974    0.0122 H   0  0  0  0  0  0  0  0  0  0  0  0
    0.0000    0.0000    0.0000 C   0  0  0  0  0  0  0  0  0  0  0  0
    1.1349   -0.4983    0.0000 O   0  0  0  0  0  0  0  0  0  0  0  0
   -0.2299    1.5070    0.0086 C   0  0  0  0  0  0  0  0  0  0  0  0
   -0.6532    1.7434   -0.8644 H   0  0  0  0  0  0  0  0  0  0  0  0
   -0.9470    1.7475    0.7935 H   0  0  0  0  0  0  0  0  0  0  0  0
    0.6919    2.0723    0.1462 H   0  0  0  0  0  0  0  0  0  0  0  0
  1  5  1  0
  5  6  1  0
  5  9  2  0
  1  2  1  0
  1  3  1  0
  1  4  1  0
  6  7  1  0
  6  8  1  0
 10 14  1  0
 14 16  1  0
 16 17  2  0
 16 18  1  0
 10 11  1  0
 10 12  1  0
 10 13  1  0
 14 15  1  0
 18 19  1  0
 18 20  1  0
 18 21  1  0
M  END
>  <PDB_ID>  (123) 
pdb2h8p

>  <RESIDUE_NAME>  (123) 
ASN   ASN

>  <FRAG_NAME>  (123) 
ACEM   NMA

>  <FRAG_ATOM_NUM>  (123) 
fragi: 9  fragj: 12

>  <atom.prop.CHAIN_ID>  (123) 
A A A A A A A A A Z Z Z Z Z Z Z Z Z Z Z Z

>  <atom.prop.IS_HEAVY_ATOM>  (123) 
1 0 0 0 1 1 0 0 1 1 0 0 0 1 0 1 1 1 0 0 0

>  <DIFUSE_FUNC_ATOM>  (123) 
n/a

>  <FINAL_SINGLE_POINT_ENERGY>  (123) 
0

>  <NONCOV_INTER_ENERGY_QM>  (123) 
0

>  <FF_Energy>  (123) 
9.88

>  <QM_Energy>  (123) 
23.33

>  <source>  (123) 
ACEM_nNMA_07

>  <Index>  (123) 
20389

$$$$
ACEM-pdb2h4v-B-ASN-1100:NMA-pdb2h4v-B-ILE-883
     RDKit          3D

 21 19  0  0  0  0  0  0  0  0999 V2000
   -5.8041    0.7012   -1.9228 C   0  0  0  0  0  0  0  0  0  0  0  0
   -5.9776    1.6067   -1.5206 H   0  0  0  0  0  0  0  0  0  0  0  0
   -6.3734    0.0241   -1.4436 H   0  0  0  0  0  0  0  0  0  0  0  0
   -6.1329    0.7328   -2.9615 H   0  0  0  0  0  0  0  0  0  0  0  0
   -4.3329    0.3438   -1.6971 C   0  0  0  0  0  0  0  0  0  0  0  0
   -3.9196   -0.0341   -0.4732 N   0  0  0  0  0  0  0  0  0  0  0  0
   -4.6313   -0.0662    0.2475 H   0  0  0  0  0  0  0  0  0  0  0  0
   -2.9907   -0.2618   -0.2995 H   0  0  0  0  0  0  0  0  0  0  0  0
   -3.5633    0.4274   -2.6758 O   0  0  0  0  0  0  0  0  0  0  0  0
   -1.2058   -2.1528    0.1842 C   0  0  0  0  0  0  0  0  0  0  0  0
   -0.2829   -2.4965    0.3874 H   0  0  0  0  0  0  0  0  0  0  0  0
   -1.5617   -2.6409   -0.7232 H   0  0  0  0  0  0  0  0  0  0  0  0
   -1.8820   -2.3907    1.0053 H   0  0  0  0  0  0  0  0  0  0  0  0
   -1.1349   -0.7070    0.0000 N   0  0  0  0  0  0  0  0  0  0  0  0
   -1.9966   -0.1127   -0.1482 H   0  0  0  0  0  0  0  0  0  0  0  0
    0.0000    0.0000    0.0000 C   0  0  0  0  0  0  0  0  0  0  0  0
    1.1349   -0.4915   -0.0000 O   0  0  0  0  0  0  0  0  0  0  0  0
   -0.1934    1.5009    0.0327 C   0  0  0  0  0  0  0  0  0  0  0  0
   -1.1630    1.6720   -0.0777 H   0  0  0  0  0  0  0  0  0  0  0  0
    0.0568    1.8316    1.0407 H   0  0  0  0  0  0  0  0  0  0  0  0
    0.4185    1.9659   -0.7403 H   0  0  0  0  0  0  0  0  0  0  0  0
  1  5  1  0
  5  6  1  0
  5  9  2  0
  1  2  1  0
  1  3  1  0
  1  4  1  0
  6  7  1  0
  6  8  1  0
 10 14  1  0
 14 16  1  0
 16 17  2  0
 16 18  1  0
 10 11  1  0
 10 12  1  0
 10 13  1  0
 14 15  1  0
 18 19  1  0
 18 20  1  0
 18 21  1  0
M  END
>  <PDB_ID>  (124) 
pdb2h4v

>  <RESIDUE_NAME>  (124) 
ASN   ILE

>  <FRAG_NAME>  (124) 
ACEM   NMA

>  <FRAG_ATOM_NUM>  (124) 
fragi: 9  fragj: 12

>  <atom.prop.CHAIN_ID>  (124) 
A A A A A A A A A Z Z Z Z Z Z Z Z Z Z Z Z

>  <atom.prop.IS_HEAVY_ATOM>  (124) 
1 0 0 0 1 1 0 0 1 1 0 0 0 1 0 1 1 1 0 0 0

>  <DIFUSE_FUNC_ATOM>  (124) 
n/a

>  <FINAL_SINGLE_POINT_ENERGY>  (124) 
0

>  <NONCOV_INTER_ENERGY_QM>  (124) 
0

>  <FF_Energy>  (124) 
6.68

>  <QM_Energy>  (124) 
23.18

>  <source>  (124) 
ACEM_nNMA_07

>  <Index>  (124) 
20946

$$$$
ACEM-pdb1fui-F-GLN-404:NMA-pdb1fui-F-MET-413
     RDKit          3D

 21 19  0  0  0  0  0  0  0  0999 V2000
   -4.6990    2.0545    2.2908 C   0  0  0  0  0  0  0  0  0  0  0  0
   -5.5325    1.6119    2.6287 H   0  0  0  0  0  0  0  0  0  0  0  0
   -4.8926    3.0202    2.1061 H   0  0  0  0  0  0  0  0  0  0  0  0
   -3.9285    1.9896    3.0591 H   0  0  0  0  0  0  0  0  0  0  0  0
   -4.2964    1.3885    0.9908 C   0  0  0  0  0  0  0  0  0  0  0  0
   -3.3149    0.5175    1.0619 N   0  0  0  0  0  0  0  0  0  0  0  0
   -2.9932    0.0142    0.2301 H   0  0  0  0  0  0  0  0  0  0  0  0
   -2.8662    0.3419    1.9615 H   0  0  0  0  0  0  0  0  0  0  0  0
   -4.8613    1.6517   -0.0608 O   0  0  0  0  0  0  0  0  0  0  0  0
   -1.0408   -2.1566    0.0896 C   0  0  0  0  0  0  0  0  0  0  0  0
   -0.0528   -2.4308    0.1467 H   0  0  0  0  0  0  0  0  0  0  0  0
   -1.5017   -2.6942   -0.7391 H   0  0  0  0  0  0  0  0  0  0  0  0
   -1.5188   -2.4703    1.0177 H   0  0  0  0  0  0  0  0  0  0  0  0
   -1.1122   -0.7139   -0.0000 N   0  0  0  0  0  0  0  0  0  0  0  0
   -1.9874   -0.1777   -0.0657 H   0  0  0  0  0  0  0  0  0  0  0  0
    0.0000    0.0000    0.0000 C   0  0  0  0  0  0  0  0  0  0  0  0
    1.1122   -0.5246    0.0000 O   0  0  0  0  0  0  0  0  0  0  0  0
   -0.1458    1.5128    0.0187 C   0  0  0  0  0  0  0  0  0  0  0  0
   -1.0592    1.7322    0.2695 H   0  0  0  0  0  0  0  0  0  0  0  0
    0.5098    1.7893    0.8446 H   0  0  0  0  0  0  0  0  0  0  0  0
    0.1658    1.9520   -0.9290 H   0  0  0  0  0  0  0  0  0  0  0  0
  1  5  1  0
  5  6  1  0
  5  9  2  0
  1  2  1  0
  1  3  1  0
  1  4  1  0
  6  7  1  0
  6  8  1  0
 10 14  1  0
 14 16  1  0
 16 17  2  0
 16 18  1  0
 10 11  1  0
 10 12  1  0
 10 13  1  0
 14 15  1  0
 18 19  1  0
 18 20  1  0
 18 21  1  0
M  END
>  <PDB_ID>  (125) 
pdb1fui

>  <RESIDUE_NAME>  (125) 
GLN   MET

>  <FRAG_NAME>  (125) 
ACEM   NMA

>  <FRAG_ATOM_NUM>  (125) 
fragi: 9  fragj: 12

>  <atom.prop.CHAIN_ID>  (125) 
A A A A A A A A A Z Z Z Z Z Z Z Z Z Z Z Z

>  <atom.prop.IS_HEAVY_ATOM>  (125) 
1 0 0 0 1 1 0 0 1 1 0 0 0 1 0 1 1 1 0 0 0

>  <DIFUSE_FUNC_ATOM>  (125) 
n/a

>  <FINAL_SINGLE_POINT_ENERGY>  (125) 
0

>  <NONCOV_INTER_ENERGY_QM>  (125) 
0

>  <FF_Energy>  (125) 
9.84

>  <QM_Energy>  (125) 
22.9

>  <source>  (125) 
ACEM_nNMA_07

>  <Index>  (125) 
23154

$$$$
ACEM-pdb1gg4-A-ASN-183:NMA-pdb1gg4-A-SER-108
     RDKit          3D

 21 19  0  0  0  0  0  0  0  0999 V2000
   -5.5480    1.0240    1.8399 C   0  0  0  0  0  0  0  0  0  0  0  0
   -5.2465    1.2617    2.7586 H   0  0  0  0  0  0  0  0  0  0  0  0
   -6.4380    0.5775    1.8748 H   0  0  0  0  0  0  0  0  0  0  0  0
   -5.6525    1.9452    1.2667 H   0  0  0  0  0  0  0  0  0  0  0  0
   -4.5472    0.0745    1.2282 C   0  0  0  0  0  0  0  0  0  0  0  0
   -3.3092    0.5316    1.1000 N   0  0  0  0  0  0  0  0  0  0  0  0
   -3.0783    1.4556    1.4056 H   0  0  0  0  0  0  0  0  0  0  0  0
   -2.5993   -0.0490    0.6960 H   0  0  0  0  0  0  0  0  0  0  0  0
   -4.8761   -1.0763    0.8997 O   0  0  0  0  0  0  0  0  0  0  0  0
   -1.0809   -2.1772    0.0270 C   0  0  0  0  0  0  0  0  0  0  0  0
   -0.2204   -2.4803   -0.3860 H   0  0  0  0  0  0  0  0  0  0  0  0
   -1.8957   -2.5764   -0.5769 H   0  0  0  0  0  0  0  0  0  0  0  0
   -1.1160   -2.5538    1.0492 H   0  0  0  0  0  0  0  0  0  0  0  0
   -1.1157   -0.7196    0.0000 N   0  0  0  0  0  0  0  0  0  0  0  0
   -1.9932   -0.1675   -0.0200 H   0  0  0  0  0  0  0  0  0  0  0  0
    0.0000    0.0000    0.0000 C   0  0  0  0  0  0  0  0  0  0  0  0
    1.1157   -0.5033   -0.0000 O   0  0  0  0  0  0  0  0  0  0  0  0
   -0.1683    1.5080   -0.0557 C   0  0  0  0  0  0  0  0  0  0  0  0
    0.6020    1.8873   -0.5588 H   0  0  0  0  0  0  0  0  0  0  0  0
   -1.0796    1.7206   -0.6148 H   0  0  0  0  0  0  0  0  0  0  0  0
   -0.2159    1.9326    0.9471 H   0  0  0  0  0  0  0  0  0  0  0  0
  1  5  1  0
  5  6  1  0
  5  9  2  0
  1  2  1  0
  1  3  1  0
  1  4  1  0
  6  7  1  0
  6  8  1  0
 10 14  1  0
 14 16  1  0
 16 17  2  0
 16 18  1  0
 10 11  1  0
 10 12  1  0
 10 13  1  0
 14 15  1  0
 18 19  1  0
 18 20  1  0
 18 21  1  0
M  END
>  <PDB_ID>  (126) 
pdb1gg4

>  <RESIDUE_NAME>  (126) 
ASN   SER

>  <FRAG_NAME>  (126) 
ACEM   NMA

>  <FRAG_ATOM_NUM>  (126) 
fragi: 9  fragj: 12

>  <atom.prop.CHAIN_ID>  (126) 
A A A A A A A A A Z Z Z Z Z Z Z Z Z Z Z Z

>  <atom.prop.IS_HEAVY_ATOM>  (126) 
1 0 0 0 1 1 0 0 1 1 0 0 0 1 0 1 1 1 0 0 0

>  <DIFUSE_FUNC_ATOM>  (126) 
n/a

>  <FINAL_SINGLE_POINT_ENERGY>  (126) 
0

>  <NONCOV_INTER_ENERGY_QM>  (126) 
0

>  <FF_Energy>  (126) 
12.82

>  <QM_Energy>  (126) 
30.7

>  <source>  (126) 
ACEM_nNMA_07

>  <Index>  (126) 
23287

$$$$
ACEM-pdb2hcj-B-GLN-290:NMA-pdb2hcj-B-ILE-286
     RDKit          3D

 21 19  0  0  0  0  0  0  0  0999 V2000
   -5.3530   -0.5020    1.1951 C   0  0  0  0  0  0  0  0  0  0  0  0
   -6.1202   -0.4901    1.8359 H   0  0  0  0  0  0  0  0  0  0  0  0
   -4.8454   -1.3569    1.2953 H   0  0  0  0  0  0  0  0  0  0  0  0
   -5.7430   -0.4418    0.1790 H   0  0  0  0  0  0  0  0  0  0  0  0
   -4.4354    0.6472    1.5183 C   0  0  0  0  0  0  0  0  0  0  0  0
   -3.2060    0.5692    1.0227 N   0  0  0  0  0  0  0  0  0  0  0  0
   -2.5270    1.3162    1.1859 H   0  0  0  0  0  0  0  0  0  0  0  0
   -2.9443   -0.2482    0.4762 H   0  0  0  0  0  0  0  0  0  0  0  0
   -4.8159    1.5921    2.2215 O   0  0  0  0  0  0  0  0  0  0  0  0
   -1.0503   -2.1748   -0.0151 C   0  0  0  0  0  0  0  0  0  0  0  0
   -0.2197   -2.4665   -0.5410 H   0  0  0  0  0  0  0  0  0  0  0  0
   -1.9266   -2.6742   -0.4286 H   0  0  0  0  0  0  0  0  0  0  0  0
   -0.8530   -2.5576    0.9861 H   0  0  0  0  0  0  0  0  0  0  0  0
   -1.1191   -0.7185   -0.0000 N   0  0  0  0  0  0  0  0  0  0  0  0
   -1.9932   -0.1800    0.0114 H   0  0  0  0  0  0  0  0  0  0  0  0
    0.0000    0.0000    0.0000 C   0  0  0  0  0  0  0  0  0  0  0  0
    1.1191   -0.5116   -0.0000 O   0  0  0  0  0  0  0  0  0  0  0  0
   -0.1578    1.5123   -0.0079 C   0  0  0  0  0  0  0  0  0  0  0  0
   -0.9798    1.7218    0.5394 H   0  0  0  0  0  0  0  0  0  0  0  0
    0.6724    2.0149    0.4883 H   0  0  0  0  0  0  0  0  0  0  0  0
   -0.2462    1.8210   -1.0495 H   0  0  0  0  0  0  0  0  0  0  0  0
  1  5  1  0
  5  6  1  0
  5  9  2  0
  1  2  1  0
  1  3  1  0
  1  4  1  0
  6  7  1  0
  6  8  1  0
 10 14  1  0
 14 16  1  0
 16 17  2  0
 16 18  1  0
 10 11  1  0
 10 12  1  0
 10 13  1  0
 14 15  1  0
 18 19  1  0
 18 20  1  0
 18 21  1  0
M  END
>  <PDB_ID>  (127) 
pdb2hcj

>  <RESIDUE_NAME>  (127) 
GLN   ILE

>  <FRAG_NAME>  (127) 
ACEM   NMA

>  <FRAG_ATOM_NUM>  (127) 
fragi: 9  fragj: 12

>  <atom.prop.CHAIN_ID>  (127) 
A A A A A A A A A Z Z Z Z Z Z Z Z Z Z Z Z

>  <atom.prop.IS_HEAVY_ATOM>  (127) 
1 0 0 0 1 1 0 0 1 1 0 0 0 1 0 1 1 1 0 0 0

>  <DIFUSE_FUNC_ATOM>  (127) 
n/a

>  <FINAL_SINGLE_POINT_ENERGY>  (127) 
0

>  <NONCOV_INTER_ENERGY_QM>  (127) 
0

>  <FF_Energy>  (127) 
14.47

>  <QM_Energy>  (127) 
29.69

>  <source>  (127) 
ACEM_nNMA_07

>  <Index>  (127) 
24019

$$$$
ACEM-pdb1gpl-A-ASN-229:NMA-pdb1gpl-A-ASN-328
     RDKit          3D

 21 19  0  0  0  0  0  0  0  0999 V2000
   -4.4689    2.3042    2.4206 C   0  0  0  0  0  0  0  0  0  0  0  0
   -4.8939    2.1208    3.2991 H   0  0  0  0  0  0  0  0  0  0  0  0
   -5.1484    2.6012    1.7595 H   0  0  0  0  0  0  0  0  0  0  0  0
   -3.7430    3.1068    2.5506 H   0  0  0  0  0  0  0  0  0  0  0  0
   -3.8236    1.0276    1.9159 C   0  0  0  0  0  0  0  0  0  0  0  0
   -3.2631    1.0673    0.7265 N   0  0  0  0  0  0  0  0  0  0  0  0
   -2.8351    0.2608    0.4015 H   0  0  0  0  0  0  0  0  0  0  0  0
   -3.2524    1.8866    0.1892 H   0  0  0  0  0  0  0  0  0  0  0  0
   -3.8613    0.0056    2.5850 O   0  0  0  0  0  0  0  0  0  0  0  0
   -1.0870   -2.1655    0.0040 C   0  0  0  0  0  0  0  0  0  0  0  0
   -0.1764   -2.4674   -0.2926 H   0  0  0  0  0  0  0  0  0  0  0  0
   -1.8231   -2.5560   -0.6987 H   0  0  0  0  0  0  0  0  0  0  0  0
   -1.3873   -2.5621    0.9738 H   0  0  0  0  0  0  0  0  0  0  0  0
   -1.1206   -0.7113   -0.0000 N   0  0  0  0  0  0  0  0  0  0  0  0
   -2.0001   -0.2648    0.0099 H   0  0  0  0  0  0  0  0  0  0  0  0
    0.0000    0.0000    0.0000 C   0  0  0  0  0  0  0  0  0  0  0  0
    1.1206   -0.5012   -0.0000 O   0  0  0  0  0  0  0  0  0  0  0  0
   -0.1659    1.5002    0.0246 C   0  0  0  0  0  0  0  0  0  0  0  0
   -0.8499    1.7159    0.7155 H   0  0  0  0  0  0  0  0  0  0  0  0
    0.7754    1.9343    0.3618 H   0  0  0  0  0  0  0  0  0  0  0  0
   -0.4510    1.8489   -0.9680 H   0  0  0  0  0  0  0  0  0  0  0  0
  1  5  1  0
  5  6  1  0
  5  9  2  0
  1  2  1  0
  1  3  1  0
  1  4  1  0
  6  7  1  0
  6  8  1  0
 10 14  1  0
 14 16  1  0
 16 17  2  0
 16 18  1  0
 10 11  1  0
 10 12  1  0
 10 13  1  0
 14 15  1  0
 18 19  1  0
 18 20  1  0
 18 21  1  0
M  END
>  <PDB_ID>  (128) 
pdb1gpl

>  <RESIDUE_NAME>  (128) 
ASN   ASN

>  <FRAG_NAME>  (128) 
ACEM   NMA

>  <FRAG_ATOM_NUM>  (128) 
fragi: 9  fragj: 12

>  <atom.prop.CHAIN_ID>  (128) 
A A A A A A A A A Z Z Z Z Z Z Z Z Z Z Z Z

>  <atom.prop.IS_HEAVY_ATOM>  (128) 
1 0 0 0 1 1 0 0 1 1 0 0 0 1 0 1 1 1 0 0 0

>  <DIFUSE_FUNC_ATOM>  (128) 
n/a

>  <FINAL_SINGLE_POINT_ENERGY>  (128) 
0

>  <NONCOV_INTER_ENERGY_QM>  (128) 
0

>  <FF_Energy>  (128) 
11.14

>  <QM_Energy>  (128) 
22.19

>  <source>  (128) 
ACEM_nNMA_08

>  <Index>  (128) 
1980

$$$$
ACEM-pdb1gtt-A-ASN-93:NMA-pdb1gtt-A-SER-62
     RDKit          3D

 21 19  0  0  0  0  0  0  0  0999 V2000
   -6.0103   -0.1613    0.1237 C   0  0  0  0  0  0  0  0  0  0  0  0
   -6.5590   -0.0909   -0.6974 H   0  0  0  0  0  0  0  0  0  0  0  0
   -6.3951    0.3803    0.8582 H   0  0  0  0  0  0  0  0  0  0  0  0
   -5.9800   -1.2048    0.4369 H   0  0  0  0  0  0  0  0  0  0  0  0
   -4.6089    0.3764   -0.1877 C   0  0  0  0  0  0  0  0  0  0  0  0
   -3.6082   -0.2315    0.4209 N   0  0  0  0  0  0  0  0  0  0  0  0
   -3.7804   -1.0008    1.0396 H   0  0  0  0  0  0  0  0  0  0  0  0
   -2.6639    0.0730    0.2665 H   0  0  0  0  0  0  0  0  0  0  0  0
   -4.4417    1.3230   -1.0073 O   0  0  0  0  0  0  0  0  0  0  0  0
   -1.0965   -2.1797    0.0725 C   0  0  0  0  0  0  0  0  0  0  0  0
   -0.2350   -2.5255   -0.3142 H   0  0  0  0  0  0  0  0  0  0  0  0
   -1.1509   -2.4652    1.0352 H   0  0  0  0  0  0  0  0  0  0  0  0
   -1.9401   -2.5909   -0.4818 H   0  0  0  0  0  0  0  0  0  0  0  0
   -1.1078   -0.7251   -0.0000 N   0  0  0  0  0  0  0  0  0  0  0  0
   -1.9904   -0.1654   -0.0563 H   0  0  0  0  0  0  0  0  0  0  0  0
    0.0000    0.0000    0.0000 C   0  0  0  0  0  0  0  0  0  0  0  0
    1.1078   -0.5373   -0.0000 O   0  0  0  0  0  0  0  0  0  0  0  0
   -0.1856    1.5108   -0.0129 C   0  0  0  0  0  0  0  0  0  0  0  0
   -0.9623    1.7317    0.5816 H   0  0  0  0  0  0  0  0  0  0  0  0
    0.7023    1.9956    0.3928 H   0  0  0  0  0  0  0  0  0  0  0  0
   -0.3824    1.8835   -1.0181 H   0  0  0  0  0  0  0  0  0  0  0  0
  1  5  1  0
  5  6  1  0
  5  9  2  0
  1  2  1  0
  1  3  1  0
  1  4  1  0
  6  7  1  0
  6  8  1  0
 10 14  1  0
 14 16  1  0
 16 17  2  0
 16 18  1  0
 10 11  1  0
 10 12  1  0
 10 13  1  0
 14 15  1  0
 18 19  1  0
 18 20  1  0
 18 21  1  0
M  END
>  <PDB_ID>  (129) 
pdb1gtt

>  <RESIDUE_NAME>  (129) 
ASN   SER

>  <FRAG_NAME>  (129) 
ACEM   NMA

>  <FRAG_ATOM_NUM>  (129) 
fragi: 9  fragj: 12

>  <atom.prop.CHAIN_ID>  (129) 
A A A A A A A A A Z Z Z Z Z Z Z Z Z Z Z Z

>  <atom.prop.IS_HEAVY_ATOM>  (129) 
1 0 0 0 1 1 0 0 1 1 0 0 0 1 0 1 1 1 0 0 0

>  <DIFUSE_FUNC_ATOM>  (129) 
n/a

>  <FINAL_SINGLE_POINT_ENERGY>  (129) 
0

>  <NONCOV_INTER_ENERGY_QM>  (129) 
0

>  <FF_Energy>  (129) 
22.13

>  <QM_Energy>  (129) 
57.64

>  <source>  (129) 
ACEM_nNMA_08

>  <Index>  (129) 
3736

$$$$
ACEM-pdb2hjr-C-ASN-59:NMA-pdb2hjr-C-LYS-70
     RDKit          3D

 21 19  0  0  0  0  0  0  0  0999 V2000
   -5.9519    0.5058    1.2045 C   0  0  0  0  0  0  0  0  0  0  0  0
   -6.8565    0.1283    1.0294 H   0  0  0  0  0  0  0  0  0  0  0  0
   -5.9302    1.4731    0.9697 H   0  0  0  0  0  0  0  0  0  0  0  0
   -5.7472    0.4131    2.2711 H   0  0  0  0  0  0  0  0  0  0  0  0
   -4.9435   -0.2271    0.3703 C   0  0  0  0  0  0  0  0  0  0  0  0
   -3.6798   -0.0008    0.6747 N   0  0  0  0  0  0  0  0  0  0  0  0
   -3.4296    0.6153    1.4195 H   0  0  0  0  0  0  0  0  0  0  0  0
   -2.9480   -0.4558    0.1500 H   0  0  0  0  0  0  0  0  0  0  0  0
   -5.2846   -1.0108   -0.5270 O   0  0  0  0  0  0  0  0  0  0  0  0
   -1.1180   -2.1357   -0.0940 C   0  0  0  0  0  0  0  0  0  0  0  0
   -0.1602   -2.4155   -0.1105 H   0  0  0  0  0  0  0  0  0  0  0  0
   -1.5400   -2.4305   -1.0548 H   0  0  0  0  0  0  0  0  0  0  0  0
   -1.6119   -2.6087    0.7548 H   0  0  0  0  0  0  0  0  0  0  0  0
   -1.1312   -0.6936   -0.0000 N   0  0  0  0  0  0  0  0  0  0  0  0
   -1.9936   -0.1242    0.0714 H   0  0  0  0  0  0  0  0  0  0  0  0
    0.0000    0.0000    0.0000 C   0  0  0  0  0  0  0  0  0  0  0  0
    1.1312   -0.5235    0.0000 O   0  0  0  0  0  0  0  0  0  0  0  0
   -0.1647    1.5102    0.0134 C   0  0  0  0  0  0  0  0  0  0  0  0
   -1.0827    1.7321    0.3461 H   0  0  0  0  0  0  0  0  0  0  0  0
    0.5739    1.9436    0.6878 H   0  0  0  0  0  0  0  0  0  0  0  0
   -0.0488    1.8914   -1.0011 H   0  0  0  0  0  0  0  0  0  0  0  0
  1  5  1  0
  5  6  1  0
  5  9  2  0
  1  2  1  0
  1  3  1  0
  1  4  1  0
  6  7  1  0
  6  8  1  0
 10 14  1  0
 14 16  1  0
 16 17  2  0
 16 18  1  0
 10 11  1  0
 10 12  1  0
 10 13  1  0
 14 15  1  0
 18 19  1  0
 18 20  1  0
 18 21  1  0
M  END
>  <PDB_ID>  (130) 
pdb2hjr

>  <RESIDUE_NAME>  (130) 
ASN   LYS

>  <FRAG_NAME>  (130) 
ACEM   NMA

>  <FRAG_ATOM_NUM>  (130) 
fragi: 9  fragj: 12

>  <atom.prop.CHAIN_ID>  (130) 
A A A A A A A A A Z Z Z Z Z Z Z Z Z Z Z Z

>  <atom.prop.IS_HEAVY_ATOM>  (130) 
1 0 0 0 1 1 0 0 1 1 0 0 0 1 0 1 1 1 0 0 0

>  <DIFUSE_FUNC_ATOM>  (130) 
n/a

>  <FINAL_SINGLE_POINT_ENERGY>  (130) 
0

>  <NONCOV_INTER_ENERGY_QM>  (130) 
0

>  <FF_Energy>  (130) 
11.3

>  <QM_Energy>  (130) 
28.06

>  <source>  (130) 
ACEM_nNMA_08

>  <Index>  (130) 
4477

$$$$
ACEM-pdb1gtt-B-ASN-93:NMA-pdb1gtt-B-SER-62
     RDKit          3D

 21 19  0  0  0  0  0  0  0  0999 V2000
   -6.0381   -0.1528   -0.0693 C   0  0  0  0  0  0  0  0  0  0  0  0
   -6.5168   -0.1354   -0.9410 H   0  0  0  0  0  0  0  0  0  0  0  0
   -6.5363    0.3754    0.6112 H   0  0  0  0  0  0  0  0  0  0  0  0
   -5.9797   -1.1864    0.2718 H   0  0  0  0  0  0  0  0  0  0  0  0
   -4.6652    0.4740   -0.2593 C   0  0  0  0  0  0  0  0  0  0  0  0
   -3.6246   -0.0569    0.4265 N   0  0  0  0  0  0  0  0  0  0  0  0
   -3.8159   -0.8429    1.0205 H   0  0  0  0  0  0  0  0  0  0  0  0
   -2.7244    0.3213    0.3355 H   0  0  0  0  0  0  0  0  0  0  0  0
   -4.5316    1.3807   -1.0290 O   0  0  0  0  0  0  0  0  0  0  0  0
   -1.1384   -2.1771    0.0915 C   0  0  0  0  0  0  0  0  0  0  0  0
   -0.2796   -2.5426   -0.2866 H   0  0  0  0  0  0  0  0  0  0  0  0
   -1.1960   -2.4461    1.0604 H   0  0  0  0  0  0  0  0  0  0  0  0
   -1.9852   -2.5925   -0.4550 H   0  0  0  0  0  0  0  0  0  0  0  0
   -1.1176   -0.7115    0.0000 N   0  0  0  0  0  0  0  0  0  0  0  0
   -1.9941   -0.1412   -0.0711 H   0  0  0  0  0  0  0  0  0  0  0  0
    0.0000    0.0000    0.0000 C   0  0  0  0  0  0  0  0  0  0  0  0
    1.1176   -0.5008    0.0000 O   0  0  0  0  0  0  0  0  0  0  0  0
   -0.1921    1.5188   -0.0259 C   0  0  0  0  0  0  0  0  0  0  0  0
   -0.9839    1.7340    0.5473 H   0  0  0  0  0  0  0  0  0  0  0  0
    0.6881    1.9989    0.4019 H   0  0  0  0  0  0  0  0  0  0  0  0
   -0.3552    1.8509   -1.0512 H   0  0  0  0  0  0  0  0  0  0  0  0
  1  5  1  0
  5  6  1  0
  5  9  2  0
  1  2  1  0
  1  3  1  0
  1  4  1  0
  6  7  1  0
  6  8  1  0
 10 14  1  0
 14 16  1  0
 16 17  2  0
 16 18  1  0
 10 11  1  0
 10 12  1  0
 10 13  1  0
 14 15  1  0
 18 19  1  0
 18 20  1  0
 18 21  1  0
M  END
>  <PDB_ID>  (131) 
pdb1gtt

>  <RESIDUE_NAME>  (131) 
ASN   SER

>  <FRAG_NAME>  (131) 
ACEM   NMA

>  <FRAG_ATOM_NUM>  (131) 
fragi: 9  fragj: 12

>  <atom.prop.CHAIN_ID>  (131) 
A A A A A A A A A Z Z Z Z Z Z Z Z Z Z Z Z

>  <atom.prop.IS_HEAVY_ATOM>  (131) 
1 0 0 0 1 1 0 0 1 1 0 0 0 1 0 1 1 1 0 0 0

>  <DIFUSE_FUNC_ATOM>  (131) 
n/a

>  <FINAL_SINGLE_POINT_ENERGY>  (131) 
0

>  <NONCOV_INTER_ENERGY_QM>  (131) 
0

>  <FF_Energy>  (131) 
14.69

>  <QM_Energy>  (131) 
34.37

>  <source>  (131) 
ACEM_nNMA_08

>  <Index>  (131) 
5530

$$$$
ACEM-pdb2hql-C-ASN-3:NMA-pdb2hql-C-ILE-69
     RDKit          3D

 21 19  0  0  0  0  0  0  0  0999 V2000
   -4.8034    1.3875   -2.8392 C   0  0  0  0  0  0  0  0  0  0  0  0
   -5.3227    0.9165   -3.5458 H   0  0  0  0  0  0  0  0  0  0  0  0
   -4.2707    2.1285   -3.2390 H   0  0  0  0  0  0  0  0  0  0  0  0
   -5.5074    1.8181   -2.1272 H   0  0  0  0  0  0  0  0  0  0  0  0
   -3.8520    0.3979   -2.1933 C   0  0  0  0  0  0  0  0  0  0  0  0
   -3.6035    0.5613   -0.8984 N   0  0  0  0  0  0  0  0  0  0  0  0
   -4.0475    1.3109   -0.4024 H   0  0  0  0  0  0  0  0  0  0  0  0
   -2.9830   -0.0558   -0.4230 H   0  0  0  0  0  0  0  0  0  0  0  0
   -3.3612   -0.5121   -2.8483 O   0  0  0  0  0  0  0  0  0  0  0  0
   -1.0398   -2.1804   -0.0458 C   0  0  0  0  0  0  0  0  0  0  0  0
   -0.4796   -2.5005    0.7217 H   0  0  0  0  0  0  0  0  0  0  0  0
   -0.5658   -2.4959   -0.9753 H   0  0  0  0  0  0  0  0  0  0  0  0
   -2.0360   -2.6156    0.0325 H   0  0  0  0  0  0  0  0  0  0  0  0
   -1.1097   -0.7285    0.0000 N   0  0  0  0  0  0  0  0  0  0  0  0
   -1.9905   -0.1926    0.0342 H   0  0  0  0  0  0  0  0  0  0  0  0
    0.0000    0.0000    0.0000 C   0  0  0  0  0  0  0  0  0  0  0  0
    1.1097   -0.5069   -0.0000 O   0  0  0  0  0  0  0  0  0  0  0  0
   -0.1600    1.5214    0.0362 C   0  0  0  0  0  0  0  0  0  0  0  0
   -1.1282    1.6990    0.2278 H   0  0  0  0  0  0  0  0  0  0  0  0
    0.4052    1.9430    0.8675 H   0  0  0  0  0  0  0  0  0  0  0  0
    0.1784    1.9764   -0.8947 H   0  0  0  0  0  0  0  0  0  0  0  0
  1  5  1  0
  5  6  1  0
  5  9  2  0
  1  2  1  0
  1  3  1  0
  1  4  1  0
  6  7  1  0
  6  8  1  0
 10 14  1  0
 14 16  1  0
 16 17  2  0
 16 18  1  0
 10 11  1  0
 10 12  1  0
 10 13  1  0
 14 15  1  0
 18 19  1  0
 18 20  1  0
 18 21  1  0
M  END
>  <PDB_ID>  (132) 
pdb2hql

>  <RESIDUE_NAME>  (132) 
ASN   ILE

>  <FRAG_NAME>  (132) 
ACEM   NMA

>  <FRAG_ATOM_NUM>  (132) 
fragi: 9  fragj: 12

>  <atom.prop.CHAIN_ID>  (132) 
A A A A A A A A A Z Z Z Z Z Z Z Z Z Z Z Z

>  <atom.prop.IS_HEAVY_ATOM>  (132) 
1 0 0 0 1 1 0 0 1 1 0 0 0 1 0 1 1 1 0 0 0

>  <DIFUSE_FUNC_ATOM>  (132) 
n/a

>  <FINAL_SINGLE_POINT_ENERGY>  (132) 
0

>  <NONCOV_INTER_ENERGY_QM>  (132) 
0

>  <FF_Energy>  (132) 
7.94

>  <QM_Energy>  (132) 
18.58

>  <source>  (132) 
ACEM_nNMA_08

>  <Index>  (132) 
6911

$$$$
ACEM-pdb1gtt-C-ASN-93:NMA-pdb1gtt-C-SER-62
     RDKit          3D

 21 19  0  0  0  0  0  0  0  0999 V2000
   -6.0101   -0.5031   -0.2189 C   0  0  0  0  0  0  0  0  0  0  0  0
   -6.4766   -0.4876   -1.1030 H   0  0  0  0  0  0  0  0  0  0  0  0
   -6.5275    0.0433    0.4408 H   0  0  0  0  0  0  0  0  0  0  0  0
   -5.9636   -1.5324    0.1370 H   0  0  0  0  0  0  0  0  0  0  0  0
   -4.6434    0.1284   -0.3915 C   0  0  0  0  0  0  0  0  0  0  0  0
   -3.6497   -0.3833    0.3540 N   0  0  0  0  0  0  0  0  0  0  0  0
   -3.8447   -1.1433    0.9724 H   0  0  0  0  0  0  0  0  0  0  0  0
   -2.7333   -0.0048    0.2861 H   0  0  0  0  0  0  0  0  0  0  0  0
   -4.4775    1.0222   -1.2026 O   0  0  0  0  0  0  0  0  0  0  0  0
   -1.1144   -2.1886    0.1532 C   0  0  0  0  0  0  0  0  0  0  0  0
   -0.2053   -2.5574   -0.1248 H   0  0  0  0  0  0  0  0  0  0  0  0
   -1.2299   -2.4236    1.1387 H   0  0  0  0  0  0  0  0  0  0  0  0
   -1.8902   -2.6945   -0.4215 H   0  0  0  0  0  0  0  0  0  0  0  0
   -1.1142   -0.7409    0.0000 N   0  0  0  0  0  0  0  0  0  0  0  0
   -1.9937   -0.1795   -0.1211 H   0  0  0  0  0  0  0  0  0  0  0  0
    0.0000    0.0000    0.0000 C   0  0  0  0  0  0  0  0  0  0  0  0
    1.1142   -0.4983   -0.0000 O   0  0  0  0  0  0  0  0  0  0  0  0
   -0.1908    1.5131   -0.0664 C   0  0  0  0  0  0  0  0  0  0  0  0
   -1.0008    1.7453    0.4803 H   0  0  0  0  0  0  0  0  0  0  0  0
    0.6702    2.0215    0.3675 H   0  0  0  0  0  0  0  0  0  0  0  0
   -0.3616    1.8464   -1.0902 H   0  0  0  0  0  0  0  0  0  0  0  0
  1  5  1  0
  5  6  1  0
  5  9  2  0
  1  2  1  0
  1  3  1  0
  1  4  1  0
  6  7  1  0
  6  8  1  0
 10 14  1  0
 14 16  1  0
 16 17  2  0
 16 18  1  0
 10 11  1  0
 10 12  1  0
 10 13  1  0
 14 15  1  0
 18 19  1  0
 18 20  1  0
 18 21  1  0
M  END
>  <PDB_ID>  (133) 
pdb1gtt

>  <RESIDUE_NAME>  (133) 
ASN   SER

>  <FRAG_NAME>  (133) 
ACEM   NMA

>  <FRAG_ATOM_NUM>  (133) 
fragi: 9  fragj: 12

>  <atom.prop.CHAIN_ID>  (133) 
A A A A A A A A A Z Z Z Z Z Z Z Z Z Z Z Z

>  <atom.prop.IS_HEAVY_ATOM>  (133) 
1 0 0 0 1 1 0 0 1 1 0 0 0 1 0 1 1 1 0 0 0

>  <DIFUSE_FUNC_ATOM>  (133) 
n/a

>  <FINAL_SINGLE_POINT_ENERGY>  (133) 
0

>  <NONCOV_INTER_ENERGY_QM>  (133) 
0

>  <FF_Energy>  (133) 
19.22

>  <QM_Energy>  (133) 
45.42

>  <source>  (133) 
ACEM_nNMA_08

>  <Index>  (133) 
8347

$$$$
ACEM-pdb1gy7-B-ASN-6:NMA-pdb1gy7-B-ASP-70
     RDKit          3D

 21 19  0  0  0  0  0  0  0  0999 V2000
   -4.8847    0.8058    2.7310 C   0  0  0  0  0  0  0  0  0  0  0  0
   -5.8737    0.8129    2.6227 H   0  0  0  0  0  0  0  0  0  0  0  0
   -4.6029    1.5224    3.3622 H   0  0  0  0  0  0  0  0  0  0  0  0
   -4.5912   -0.1568    3.1499 H   0  0  0  0  0  0  0  0  0  0  0  0
   -4.2469    1.0731    1.3780 C   0  0  0  0  0  0  0  0  0  0  0  0
   -3.5718    0.0683    0.8311 N   0  0  0  0  0  0  0  0  0  0  0  0
   -3.5112   -0.8104    1.3113 H   0  0  0  0  0  0  0  0  0  0  0  0
   -3.1259    0.1846   -0.0540 H   0  0  0  0  0  0  0  0  0  0  0  0
   -4.3561    2.1695    0.8335 O   0  0  0  0  0  0  0  0  0  0  0  0
   -1.0550   -2.1678    0.0210 C   0  0  0  0  0  0  0  0  0  0  0  0
   -0.0911   -2.4519   -0.1424 H   0  0  0  0  0  0  0  0  0  0  0  0
   -1.6877   -2.6377   -0.7319 H   0  0  0  0  0  0  0  0  0  0  0  0
   -1.3318   -2.5362    1.0089 H   0  0  0  0  0  0  0  0  0  0  0  0
   -1.1176   -0.7139   -0.0000 N   0  0  0  0  0  0  0  0  0  0  0  0
   -1.9923   -0.1725   -0.0153 H   0  0  0  0  0  0  0  0  0  0  0  0
    0.0000    0.0000    0.0000 C   0  0  0  0  0  0  0  0  0  0  0  0
    1.1176   -0.5119    0.0000 O   0  0  0  0  0  0  0  0  0  0  0  0
   -0.1556    1.5039   -0.0091 C   0  0  0  0  0  0  0  0  0  0  0  0
   -1.1067    1.7077    0.2303 H   0  0  0  0  0  0  0  0  0  0  0  0
    0.4725    1.9326    0.7719 H   0  0  0  0  0  0  0  0  0  0  0  0
    0.1511    1.8943   -0.9795 H   0  0  0  0  0  0  0  0  0  0  0  0
  1  5  1  0
  5  6  1  0
  5  9  2  0
  1  2  1  0
  1  3  1  0
  1  4  1  0
  6  7  1  0
  6  8  1  0
 10 14  1  0
 14 16  1  0
 16 17  2  0
 16 18  1  0
 10 11  1  0
 10 12  1  0
 10 13  1  0
 14 15  1  0
 18 19  1  0
 18 20  1  0
 18 21  1  0
M  END
>  <PDB_ID>  (134) 
pdb1gy7

>  <RESIDUE_NAME>  (134) 
ASN   ASP

>  <FRAG_NAME>  (134) 
ACEM   NMA

>  <FRAG_ATOM_NUM>  (134) 
fragi: 9  fragj: 12

>  <atom.prop.CHAIN_ID>  (134) 
A A A A A A A A A Z Z Z Z Z Z Z Z Z Z Z Z

>  <atom.prop.IS_HEAVY_ATOM>  (134) 
1 0 0 0 1 1 0 0 1 1 0 0 0 1 0 1 1 1 0 0 0

>  <DIFUSE_FUNC_ATOM>  (134) 
n/a

>  <FINAL_SINGLE_POINT_ENERGY>  (134) 
0

>  <NONCOV_INTER_ENERGY_QM>  (134) 
0

>  <FF_Energy>  (134) 
6.96

>  <QM_Energy>  (134) 
17.73

>  <source>  (134) 
ACEM_nNMA_08

>  <Index>  (134) 
8483

$$$$
ACEM-pdb2huf-A-ASN-29:NMA-pdb2huf-A-LEU-21
     RDKit          3D

 21 19  0  0  0  0  0  0  0  0999 V2000
   -5.9266    1.0568   -0.9770 C   0  0  0  0  0  0  0  0  0  0  0  0
   -6.0234    0.9899   -1.9642 H   0  0  0  0  0  0  0  0  0  0  0  0
   -6.2994    1.9185   -0.6493 H   0  0  0  0  0  0  0  0  0  0  0  0
   -6.4872    0.2421   -0.5184 H   0  0  0  0  0  0  0  0  0  0  0  0
   -4.4571    0.9992   -0.6288 C   0  0  0  0  0  0  0  0  0  0  0  0
   -3.7897   -0.0423   -1.0862 N   0  0  0  0  0  0  0  0  0  0  0  0
   -4.2521   -0.7411   -1.6367 H   0  0  0  0  0  0  0  0  0  0  0  0
   -2.8114   -0.1438   -0.8853 H   0  0  0  0  0  0  0  0  0  0  0  0
   -3.9505    1.8536    0.1121 O   0  0  0  0  0  0  0  0  0  0  0  0
   -1.1042   -2.1709    0.1414 C   0  0  0  0  0  0  0  0  0  0  0  0
   -0.3037   -2.4313    0.6876 H   0  0  0  0  0  0  0  0  0  0  0  0
   -1.0230   -2.6409   -0.8387 H   0  0  0  0  0  0  0  0  0  0  0  0
   -2.0032   -2.5076    0.6577 H   0  0  0  0  0  0  0  0  0  0  0  0
   -1.1197   -0.7189    0.0000 N   0  0  0  0  0  0  0  0  0  0  0  0
   -1.9926   -0.1635   -0.1076 H   0  0  0  0  0  0  0  0  0  0  0  0
    0.0000    0.0000    0.0000 C   0  0  0  0  0  0  0  0  0  0  0  0
    1.1197   -0.5032    0.0000 O   0  0  0  0  0  0  0  0  0  0  0  0
   -0.1922    1.5087    0.0273 C   0  0  0  0  0  0  0  0  0  0  0  0
   -1.1500    1.7065   -0.1424 H   0  0  0  0  0  0  0  0  0  0  0  0
    0.0703    1.8410    1.0317 H   0  0  0  0  0  0  0  0  0  0  0  0
    0.4144    1.9986   -0.7344 H   0  0  0  0  0  0  0  0  0  0  0  0
  1  5  1  0
  5  6  1  0
  5  9  2  0
  1  2  1  0
  1  3  1  0
  1  4  1  0
  6  7  1  0
  6  8  1  0
 10 14  1  0
 14 16  1  0
 16 17  2  0
 16 18  1  0
 10 11  1  0
 10 12  1  0
 10 13  1  0
 14 15  1  0
 18 19  1  0
 18 20  1  0
 18 21  1  0
M  END
>  <PDB_ID>  (135) 
pdb2huf

>  <RESIDUE_NAME>  (135) 
ASN   LEU

>  <FRAG_NAME>  (135) 
ACEM   NMA

>  <FRAG_ATOM_NUM>  (135) 
fragi: 9  fragj: 12

>  <atom.prop.CHAIN_ID>  (135) 
A A A A A A A A A Z Z Z Z Z Z Z Z Z Z Z Z

>  <atom.prop.IS_HEAVY_ATOM>  (135) 
1 0 0 0 1 1 0 0 1 1 0 0 0 1 0 1 1 1 0 0 0

>  <DIFUSE_FUNC_ATOM>  (135) 
n/a

>  <FINAL_SINGLE_POINT_ENERGY>  (135) 
0

>  <NONCOV_INTER_ENERGY_QM>  (135) 
0

>  <FF_Energy>  (135) 
1.33

>  <QM_Energy>  (135) 
13.73

>  <source>  (135) 
ACEM_nNMA_08

>  <Index>  (135) 
9162

$$$$
ACEM-pdb1gyc-A-ASN-262:NMA-pdb1gyc-A-VAL-268
     RDKit          3D

 21 19  0  0  0  0  0  0  0  0999 V2000
   -6.0733    0.3875    0.6054 C   0  0  0  0  0  0  0  0  0  0  0  0
   -6.7274   -0.3536    0.7257 H   0  0  0  0  0  0  0  0  0  0  0  0
   -6.4214    1.0527   -0.0477 H   0  0  0  0  0  0  0  0  0  0  0  0
   -5.9513    0.8894    1.5653 H   0  0  0  0  0  0  0  0  0  0  0  0
   -4.7722   -0.1899    0.0695 C   0  0  0  0  0  0  0  0  0  0  0  0
   -3.7258   -0.2737    0.8531 N   0  0  0  0  0  0  0  0  0  0  0  0
   -3.8283    0.0522    1.8126 H   0  0  0  0  0  0  0  0  0  0  0  0
   -2.8649   -0.6382    0.5395 H   0  0  0  0  0  0  0  0  0  0  0  0
   -4.7395   -0.5603   -1.1141 O   0  0  0  0  0  0  0  0  0  0  0  0
   -1.0257   -2.1823   -0.0657 C   0  0  0  0  0  0  0  0  0  0  0  0
   -1.8133   -2.5454   -0.5838 H   0  0  0  0  0  0  0  0  0  0  0  0
   -0.1851   -2.4375   -0.5650 H   0  0  0  0  0  0  0  0  0  0  0  0
   -1.0079   -2.6249    0.9302 H   0  0  0  0  0  0  0  0  0  0  0  0
   -1.1226   -0.7304   -0.0000 N   0  0  0  0  0  0  0  0  0  0  0  0
   -1.9950   -0.2043    0.0476 H   0  0  0  0  0  0  0  0  0  0  0  0
    0.0000    0.0000    0.0000 C   0  0  0  0  0  0  0  0  0  0  0  0
    1.1226   -0.5167   -0.0000 O   0  0  0  0  0  0  0  0  0  0  0  0
   -0.1855    1.4993    0.0708 C   0  0  0  0  0  0  0  0  0  0  0  0
   -0.8974    1.6990    0.7726 H   0  0  0  0  0  0  0  0  0  0  0  0
    0.7151    2.0445    0.3535 H   0  0  0  0  0  0  0  0  0  0  0  0
   -0.5989    1.8781   -0.8639 H   0  0  0  0  0  0  0  0  0  0  0  0
  1  5  1  0
  5  6  1  0
  5  9  2  0
  1  2  1  0
  1  3  1  0
  1  4  1  0
  6  7  1  0
  6  8  1  0
 10 14  1  0
 14 16  1  0
 16 17  2  0
 16 18  1  0
 10 11  1  0
 10 12  1  0
 10 13  1  0
 14 15  1  0
 18 19  1  0
 18 20  1  0
 18 21  1  0
M  END
>  <PDB_ID>  (136) 
pdb1gyc

>  <RESIDUE_NAME>  (136) 
ASN   VAL

>  <FRAG_NAME>  (136) 
ACEM   NMA

>  <FRAG_ATOM_NUM>  (136) 
fragi: 9  fragj: 12

>  <atom.prop.CHAIN_ID>  (136) 
A A A A A A A A A Z Z Z Z Z Z Z Z Z Z Z Z

>  <atom.prop.IS_HEAVY_ATOM>  (136) 
1 0 0 0 1 1 0 0 1 1 0 0 0 1 0 1 1 1 0 0 0

>  <DIFUSE_FUNC_ATOM>  (136) 
n/a

>  <FINAL_SINGLE_POINT_ENERGY>  (136) 
0

>  <NONCOV_INTER_ENERGY_QM>  (136) 
0

>  <FF_Energy>  (136) 
6.41

>  <QM_Energy>  (136) 
19.82

>  <source>  (136) 
ACEM_nNMA_08

>  <Index>  (136) 
9619

$$$$
ACEM-pdb2huf-B-ASN-29:NMA-pdb2huf-B-LEU-21
     RDKit          3D

 21 19  0  0  0  0  0  0  0  0999 V2000
   -5.9375    1.0628   -0.8373 C   0  0  0  0  0  0  0  0  0  0  0  0
   -6.0424    1.0655   -1.8276 H   0  0  0  0  0  0  0  0  0  0  0  0
   -6.2951    1.9083   -0.4514 H   0  0  0  0  0  0  0  0  0  0  0  0
   -6.5142    0.2306   -0.4337 H   0  0  0  0  0  0  0  0  0  0  0  0
   -4.4621    0.9633   -0.5056 C   0  0  0  0  0  0  0  0  0  0  0  0
   -3.8308   -0.0764   -0.9802 N   0  0  0  0  0  0  0  0  0  0  0  0
   -4.3101   -0.7610   -1.5379 H   0  0  0  0  0  0  0  0  0  0  0  0
   -2.8493   -0.2081   -0.7935 H   0  0  0  0  0  0  0  0  0  0  0  0
   -3.9024    1.8287    0.2033 O   0  0  0  0  0  0  0  0  0  0  0  0
   -1.0879   -2.1730    0.1517 C   0  0  0  0  0  0  0  0  0  0  0  0
   -0.2876   -2.4229    0.7030 H   0  0  0  0  0  0  0  0  0  0  0  0
   -0.9998   -2.6601   -0.8194 H   0  0  0  0  0  0  0  0  0  0  0  0
   -1.9925   -2.4972    0.6660 H   0  0  0  0  0  0  0  0  0  0  0  0
   -1.1149   -0.7164   -0.0000 N   0  0  0  0  0  0  0  0  0  0  0  0
   -1.9895   -0.1722   -0.1138 H   0  0  0  0  0  0  0  0  0  0  0  0
    0.0000    0.0000    0.0000 C   0  0  0  0  0  0  0  0  0  0  0  0
    1.1149   -0.5052   -0.0000 O   0  0  0  0  0  0  0  0  0  0  0  0
   -0.1670    1.5089    0.0548 C   0  0  0  0  0  0  0  0  0  0  0  0
   -1.1200    1.7299   -0.0938 H   0  0  0  0  0  0  0  0  0  0  0  0
    0.1110    1.8160    1.0630 H   0  0  0  0  0  0  0  0  0  0  0  0
    0.4663    1.9768   -0.6990 H   0  0  0  0  0  0  0  0  0  0  0  0
  1  5  1  0
  5  6  1  0
  5  9  2  0
  1  2  1  0
  1  3  1  0
  1  4  1  0
  6  7  1  0
  6  8  1  0
 10 14  1  0
 14 16  1  0
 16 17  2  0
 16 18  1  0
 10 11  1  0
 10 12  1  0
 10 13  1  0
 14 15  1  0
 18 19  1  0
 18 20  1  0
 18 21  1  0
M  END
>  <PDB_ID>  (137) 
pdb2huf

>  <RESIDUE_NAME>  (137) 
ASN   LEU

>  <FRAG_NAME>  (137) 
ACEM   NMA

>  <FRAG_ATOM_NUM>  (137) 
fragi: 9  fragj: 12

>  <atom.prop.CHAIN_ID>  (137) 
A A A A A A A A A Z Z Z Z Z Z Z Z Z Z Z Z

>  <atom.prop.IS_HEAVY_ATOM>  (137) 
1 0 0 0 1 1 0 0 1 1 0 0 0 1 0 1 1 1 0 0 0

>  <DIFUSE_FUNC_ATOM>  (137) 
n/a

>  <FINAL_SINGLE_POINT_ENERGY>  (137) 
0

>  <NONCOV_INTER_ENERGY_QM>  (137) 
0

>  <FF_Energy>  (137) 
1.69

>  <QM_Energy>  (137) 
15.45

>  <source>  (137) 
ACEM_nNMA_08

>  <Index>  (137) 
11731

$$$$
ACEM-pdb1gx3-D-GLN-244:NMA-pdb1gx3-D-ASP-240
     RDKit          3D

 21 19  0  0  0  0  0  0  0  0999 V2000
   -5.4914    0.5571   -1.5436 C   0  0  0  0  0  0  0  0  0  0  0  0
   -5.6223    1.5461   -1.5347 H   0  0  0  0  0  0  0  0  0  0  0  0
   -6.2986    0.1046   -1.1720 H   0  0  0  0  0  0  0  0  0  0  0  0
   -5.3635    0.2367   -2.5775 H   0  0  0  0  0  0  0  0  0  0  0  0
   -4.2960    0.2133   -0.6834 C   0  0  0  0  0  0  0  0  0  0  0  0
   -3.2964   -0.4303   -1.2918 N   0  0  0  0  0  0  0  0  0  0  0  0
   -2.4544   -0.6823   -0.7818 H   0  0  0  0  0  0  0  0  0  0  0  0
   -3.3938   -0.6648   -2.2763 H   0  0  0  0  0  0  0  0  0  0  0  0
   -4.2637    0.5345    0.5111 O   0  0  0  0  0  0  0  0  0  0  0  0
   -1.1793   -2.1632    0.1227 C   0  0  0  0  0  0  0  0  0  0  0  0
   -0.3087   -2.4685    0.5063 H   0  0  0  0  0  0  0  0  0  0  0  0
   -1.2892   -2.6032   -0.8684 H   0  0  0  0  0  0  0  0  0  0  0  0
   -1.9952   -2.4603    0.7818 H   0  0  0  0  0  0  0  0  0  0  0  0
   -1.1289   -0.6998   -0.0000 N   0  0  0  0  0  0  0  0  0  0  0  0
   -1.9966   -0.1150   -0.0961 H   0  0  0  0  0  0  0  0  0  0  0  0
    0.0000    0.0000    0.0000 C   0  0  0  0  0  0  0  0  0  0  0  0
    1.1289   -0.5143    0.0000 O   0  0  0  0  0  0  0  0  0  0  0  0
   -0.1904    1.5271    0.0153 C   0  0  0  0  0  0  0  0  0  0  0  0
    0.7341    1.9335    0.0336 H   0  0  0  0  0  0  0  0  0  0  0  0
   -0.6874    1.8894   -0.8845 H   0  0  0  0  0  0  0  0  0  0  0  0
   -0.8027    1.7802    0.8809 H   0  0  0  0  0  0  0  0  0  0  0  0
  1  5  1  0
  5  6  1  0
  5  9  2  0
  1  2  1  0
  1  3  1  0
  1  4  1  0
  6  7  1  0
  6  8  1  0
 10 14  1  0
 14 16  1  0
 16 17  2  0
 16 18  1  0
 10 11  1  0
 10 12  1  0
 10 13  1  0
 14 15  1  0
 18 19  1  0
 18 20  1  0
 18 21  1  0
M  END
>  <PDB_ID>  (138) 
pdb1gx3

>  <RESIDUE_NAME>  (138) 
GLN   ASP

>  <FRAG_NAME>  (138) 
ACEM   NMA

>  <FRAG_ATOM_NUM>  (138) 
fragi: 9  fragj: 12

>  <atom.prop.CHAIN_ID>  (138) 
A A A A A A A A A Z Z Z Z Z Z Z Z Z Z Z Z

>  <atom.prop.IS_HEAVY_ATOM>  (138) 
1 0 0 0 1 1 0 0 1 1 0 0 0 1 0 1 1 1 0 0 0

>  <DIFUSE_FUNC_ATOM>  (138) 
n/a

>  <FINAL_SINGLE_POINT_ENERGY>  (138) 
0

>  <NONCOV_INTER_ENERGY_QM>  (138) 
0

>  <FF_Energy>  (138) 
15.98

>  <QM_Energy>  (138) 
34.09

>  <source>  (138) 
ACEM_nNMA_08

>  <Index>  (138) 
13366

$$$$
ACEM-pdb1h6a-A-ASN-141:NMA-pdb1h6a-A-TYR-137
     RDKit          3D

 21 19  0  0  0  0  0  0  0  0999 V2000
   -5.7239    0.8437   -1.6020 C   0  0  0  0  0  0  0  0  0  0  0  0
   -6.0819    1.7618   -1.7625 H   0  0  0  0  0  0  0  0  0  0  0  0
   -6.3958    0.3016   -1.1011 H   0  0  0  0  0  0  0  0  0  0  0  0
   -5.5570    0.3696   -2.5692 H   0  0  0  0  0  0  0  0  0  0  0  0
   -4.4680    0.9467   -0.7776 C   0  0  0  0  0  0  0  0  0  0  0  0
   -3.4668    0.1427   -1.1178 N   0  0  0  0  0  0  0  0  0  0  0  0
   -3.5718   -0.4834   -1.8921 H   0  0  0  0  0  0  0  0  0  0  0  0
   -2.6100    0.1615   -0.6047 H   0  0  0  0  0  0  0  0  0  0  0  0
   -4.3881    1.7482    0.1482 O   0  0  0  0  0  0  0  0  0  0  0  0
   -1.0404   -2.1678   -0.1056 C   0  0  0  0  0  0  0  0  0  0  0  0
   -0.0963   -2.4273    0.0379 H   0  0  0  0  0  0  0  0  0  0  0  0
   -1.2833   -2.4076   -1.1408 H   0  0  0  0  0  0  0  0  0  0  0  0
   -1.6984   -2.6848    0.5928 H   0  0  0  0  0  0  0  0  0  0  0  0
   -1.1194   -0.7200   -0.0000 N   0  0  0  0  0  0  0  0  0  0  0  0
   -1.9910   -0.1880    0.0768 H   0  0  0  0  0  0  0  0  0  0  0  0
    0.0000    0.0000    0.0000 C   0  0  0  0  0  0  0  0  0  0  0  0
    1.1194   -0.5149    0.0000 O   0  0  0  0  0  0  0  0  0  0  0  0
   -0.1455    1.5143    0.0264 C   0  0  0  0  0  0  0  0  0  0  0  0
   -1.0122    1.7382    0.4832 H   0  0  0  0  0  0  0  0  0  0  0  0
    0.6687    1.9639    0.5947 H   0  0  0  0  0  0  0  0  0  0  0  0
   -0.1341    1.8622   -1.0066 H   0  0  0  0  0  0  0  0  0  0  0  0
  1  5  1  0
  5  6  1  0
  5  9  2  0
  1  2  1  0
  1  3  1  0
  1  4  1  0
  6  7  1  0
  6  8  1  0
 10 14  1  0
 14 16  1  0
 16 17  2  0
 16 18  1  0
 10 11  1  0
 10 12  1  0
 10 13  1  0
 14 15  1  0
 18 19  1  0
 18 20  1  0
 18 21  1  0
M  END
>  <PDB_ID>  (139) 
pdb1h6a

>  <RESIDUE_NAME>  (139) 
ASN   TYR

>  <FRAG_NAME>  (139) 
ACEM   NMA

>  <FRAG_ATOM_NUM>  (139) 
fragi: 9  fragj: 12

>  <atom.prop.CHAIN_ID>  (139) 
A A A A A A A A A Z Z Z Z Z Z Z Z Z Z Z Z

>  <atom.prop.IS_HEAVY_ATOM>  (139) 
1 0 0 0 1 1 0 0 1 1 0 0 0 1 0 1 1 1 0 0 0

>  <DIFUSE_FUNC_ATOM>  (139) 
n/a

>  <FINAL_SINGLE_POINT_ENERGY>  (139) 
0

>  <NONCOV_INTER_ENERGY_QM>  (139) 
0

>  <FF_Energy>  (139) 
8.93

>  <QM_Energy>  (139) 
27.65

>  <source>  (139) 
ACEM_nNMA_08

>  <Index>  (139) 
16932

$$$$
ACEM-pdb2i1a-B-GLN-272:NMA-pdb2i1a-B-ALA-311
     RDKit          3D

 21 19  0  0  0  0  0  0  0  0999 V2000
   -6.3755    0.0250   -0.9048 C   0  0  0  0  0  0  0  0  0  0  0  0
   -6.9518    0.8253   -0.7319 H   0  0  0  0  0  0  0  0  0  0  0  0
   -6.8051   -0.7849   -0.5031 H   0  0  0  0  0  0  0  0  0  0  0  0
   -6.2915   -0.1207   -1.9817 H   0  0  0  0  0  0  0  0  0  0  0  0
   -5.0335    0.2444   -0.2302 C   0  0  0  0  0  0  0  0  0  0  0  0
   -3.9947   -0.3960   -0.7592 N   0  0  0  0  0  0  0  0  0  0  0  0
   -3.0621   -0.2867   -0.3703 H   0  0  0  0  0  0  0  0  0  0  0  0
   -4.1489   -1.0000   -1.5642 H   0  0  0  0  0  0  0  0  0  0  0  0
   -4.9277    0.9880    0.7465 O   0  0  0  0  0  0  0  0  0  0  0  0
   -1.0629   -2.1716    0.0138 C   0  0  0  0  0  0  0  0  0  0  0  0
   -0.1510   -2.4742    0.3001 H   0  0  0  0  0  0  0  0  0  0  0  0
   -1.2793   -2.5590   -0.9817 H   0  0  0  0  0  0  0  0  0  0  0  0
   -1.7766   -2.5706    0.7345 H   0  0  0  0  0  0  0  0  0  0  0  0
   -1.1173   -0.7154   -0.0000 N   0  0  0  0  0  0  0  0  0  0  0  0
   -1.9921   -0.1714   -0.0100 H   0  0  0  0  0  0  0  0  0  0  0  0
    0.0000    0.0000    0.0000 C   0  0  0  0  0  0  0  0  0  0  0  0
    1.1173   -0.5185    0.0000 O   0  0  0  0  0  0  0  0  0  0  0  0
   -0.1459    1.5172   -0.0237 C   0  0  0  0  0  0  0  0  0  0  0  0
    0.0558    1.8697    0.8746 H   0  0  0  0  0  0  0  0  0  0  0  0
    0.6112    1.8668   -0.7257 H   0  0  0  0  0  0  0  0  0  0  0  0
   -1.1422    1.8010   -0.3628 H   0  0  0  0  0  0  0  0  0  0  0  0
  1  5  1  0
  5  6  1  0
  5  9  2  0
  1  2  1  0
  1  3  1  0
  1  4  1  0
  6  7  1  0
  6  8  1  0
 10 14  1  0
 14 16  1  0
 16 17  2  0
 16 18  1  0
 10 11  1  0
 10 12  1  0
 10 13  1  0
 14 15  1  0
 18 19  1  0
 18 20  1  0
 18 21  1  0
M  END
>  <PDB_ID>  (140) 
pdb2i1a

>  <RESIDUE_NAME>  (140) 
GLN   ALA

>  <FRAG_NAME>  (140) 
ACEM   NMA

>  <FRAG_ATOM_NUM>  (140) 
fragi: 9  fragj: 12

>  <atom.prop.CHAIN_ID>  (140) 
A A A A A A A A A Z Z Z Z Z Z Z Z Z Z Z Z

>  <atom.prop.IS_HEAVY_ATOM>  (140) 
1 0 0 0 1 1 0 0 1 1 0 0 0 1 0 1 1 1 0 0 0

>  <DIFUSE_FUNC_ATOM>  (140) 
n/a

>  <FINAL_SINGLE_POINT_ENERGY>  (140) 
0

>  <NONCOV_INTER_ENERGY_QM>  (140) 
0

>  <FF_Energy>  (140) 
4.62

>  <QM_Energy>  (140) 
15.24

>  <source>  (140) 
ACEM_nNMA_08

>  <Index>  (140) 
17214

$$$$
ACEM-pdb1h76-A-GLN-110:NMA-pdb1h76-A-PHE-106
     RDKit          3D

 21 19  0  0  0  0  0  0  0  0999 V2000
   -5.1701    0.5360   -0.3539 C   0  0  0  0  0  0  0  0  0  0  0  0
   -6.0433    1.0005   -0.4101 H   0  0  0  0  0  0  0  0  0  0  0  0
   -5.2949   -0.4438   -0.2675 H   0  0  0  0  0  0  0  0  0  0  0  0
   -4.6388    0.7188   -1.2879 H   0  0  0  0  0  0  0  0  0  0  0  0
   -4.3991    1.0562    0.8515 C   0  0  0  0  0  0  0  0  0  0  0  0
   -3.1597    0.6822    0.9336 N   0  0  0  0  0  0  0  0  0  0  0  0
   -2.5578    0.9997    1.7119 H   0  0  0  0  0  0  0  0  0  0  0  0
   -2.7625    0.0647    0.2245 H   0  0  0  0  0  0  0  0  0  0  0  0
   -4.9373    1.7614    1.7030 O   0  0  0  0  0  0  0  0  0  0  0  0
   -1.1168   -2.1658   -0.0173 C   0  0  0  0  0  0  0  0  0  0  0  0
   -0.1649   -2.4824    0.0076 H   0  0  0  0  0  0  0  0  0  0  0  0
   -1.5637   -2.5228   -0.9451 H   0  0  0  0  0  0  0  0  0  0  0  0
   -1.6623   -2.5472    0.8459 H   0  0  0  0  0  0  0  0  0  0  0  0
   -1.1109   -0.7125    0.0000 N   0  0  0  0  0  0  0  0  0  0  0  0
   -1.9910   -0.1414    0.0136 H   0  0  0  0  0  0  0  0  0  0  0  0
    0.0000    0.0000    0.0000 C   0  0  0  0  0  0  0  0  0  0  0  0
    1.1109   -0.5001   -0.0000 O   0  0  0  0  0  0  0  0  0  0  0  0
   -0.1709    1.5011    0.0235 C   0  0  0  0  0  0  0  0  0  0  0  0
   -0.8886    1.7047    0.6655 H   0  0  0  0  0  0  0  0  0  0  0  0
    0.7553    1.8762    0.4589 H   0  0  0  0  0  0  0  0  0  0  0  0
   -0.4266    1.8782   -0.9667 H   0  0  0  0  0  0  0  0  0  0  0  0
  1  5  1  0
  5  6  1  0
  5  9  2  0
  1  2  1  0
  1  3  1  0
  1  4  1  0
  6  7  1  0
  6  8  1  0
 10 14  1  0
 14 16  1  0
 16 17  2  0
 16 18  1  0
 10 11  1  0
 10 12  1  0
 10 13  1  0
 14 15  1  0
 18 19  1  0
 18 20  1  0
 18 21  1  0
M  END
>  <PDB_ID>  (141) 
pdb1h76

>  <RESIDUE_NAME>  (141) 
GLN   PHE

>  <FRAG_NAME>  (141) 
ACEM   NMA

>  <FRAG_ATOM_NUM>  (141) 
fragi: 9  fragj: 12

>  <atom.prop.CHAIN_ID>  (141) 
A A A A A A A A A Z Z Z Z Z Z Z Z Z Z Z Z

>  <atom.prop.IS_HEAVY_ATOM>  (141) 
1 0 0 0 1 1 0 0 1 1 0 0 0 1 0 1 1 1 0 0 0

>  <DIFUSE_FUNC_ATOM>  (141) 
n/a

>  <FINAL_SINGLE_POINT_ENERGY>  (141) 
0

>  <NONCOV_INTER_ENERGY_QM>  (141) 
0

>  <FF_Energy>  (141) 
20.98

>  <QM_Energy>  (141) 
50.33

>  <source>  (141) 
ACEM_nNMA_08

>  <Index>  (141) 
18304

$$$$
ACEM-pdb1hf2-A-ASN-107:NMA-pdb1hf2-A-GLY-124
     RDKit          3D

 21 19  0  0  0  0  0  0  0  0999 V2000
   -5.1794   -0.0094   -0.3342 C   0  0  0  0  0  0  0  0  0  0  0  0
   -6.1434    0.2414   -0.3865 H   0  0  0  0  0  0  0  0  0  0  0  0
   -5.0845   -1.0021   -0.3392 H   0  0  0  0  0  0  0  0  0  0  0  0
   -4.6762    0.3852   -1.2169 H   0  0  0  0  0  0  0  0  0  0  0  0
   -4.6040    0.5293    0.9470 C   0  0  0  0  0  0  0  0  0  0  0  0
   -3.2812    0.5218    1.0507 N   0  0  0  0  0  0  0  0  0  0  0  0
   -2.7217    0.1755    0.2954 H   0  0  0  0  0  0  0  0  0  0  0  0
   -2.8407    0.8627    1.8811 H   0  0  0  0  0  0  0  0  0  0  0  0
   -5.3395    0.9585    1.8354 O   0  0  0  0  0  0  0  0  0  0  0  0
   -1.0817   -2.1821    0.0192 C   0  0  0  0  0  0  0  0  0  0  0  0
   -0.1142   -2.4536   -0.0790 H   0  0  0  0  0  0  0  0  0  0  0  0
   -1.6235   -2.6152   -0.8216 H   0  0  0  0  0  0  0  0  0  0  0  0
   -1.5274   -2.5689    0.9356 H   0  0  0  0  0  0  0  0  0  0  0  0
   -1.1194   -0.7186   -0.0000 N   0  0  0  0  0  0  0  0  0  0  0  0
   -1.9953   -0.1689   -0.0143 H   0  0  0  0  0  0  0  0  0  0  0  0
    0.0000    0.0000    0.0000 C   0  0  0  0  0  0  0  0  0  0  0  0
    1.1194   -0.5081    0.0000 O   0  0  0  0  0  0  0  0  0  0  0  0
   -0.1332    1.5088   -0.0188 C   0  0  0  0  0  0  0  0  0  0  0  0
   -0.1762    1.8511    0.9093 H   0  0  0  0  0  0  0  0  0  0  0  0
   -0.9405    1.7658   -0.5300 H   0  0  0  0  0  0  0  0  0  0  0  0
    0.7597    1.8890   -0.5151 H   0  0  0  0  0  0  0  0  0  0  0  0
  1  5  1  0
  5  6  1  0
  5  9  2  0
  1  2  1  0
  1  3  1  0
  1  4  1  0
  6  7  1  0
  6  8  1  0
 10 14  1  0
 14 16  1  0
 16 17  2  0
 16 18  1  0
 10 11  1  0
 10 12  1  0
 10 13  1  0
 14 15  1  0
 18 19  1  0
 18 20  1  0
 18 21  1  0
M  END
>  <PDB_ID>  (142) 
pdb1hf2

>  <RESIDUE_NAME>  (142) 
ASN   GLY

>  <FRAG_NAME>  (142) 
ACEM   NMA

>  <FRAG_ATOM_NUM>  (142) 
fragi: 9  fragj: 12

>  <atom.prop.CHAIN_ID>  (142) 
A A A A A A A A A Z Z Z Z Z Z Z Z Z Z Z Z

>  <atom.prop.IS_HEAVY_ATOM>  (142) 
1 0 0 0 1 1 0 0 1 1 0 0 0 1 0 1 1 1 0 0 0

>  <DIFUSE_FUNC_ATOM>  (142) 
n/a

>  <FINAL_SINGLE_POINT_ENERGY>  (142) 
0

>  <NONCOV_INTER_ENERGY_QM>  (142) 
0

>  <FF_Energy>  (142) 
18.25

>  <QM_Energy>  (142) 
42.96

>  <source>  (142) 
ACEM_nNMA_08

>  <Index>  (142) 
25341

$$$$
ACEM-pdb1hg8-A-ASN-247:NMA-pdb1hg8-A-GLY-243
     RDKit          3D

 21 19  0  0  0  0  0  0  0  0999 V2000
   -6.0079    0.3410   -1.3059 C   0  0  0  0  0  0  0  0  0  0  0  0
   -6.3105    0.7315   -2.1565 H   0  0  0  0  0  0  0  0  0  0  0  0
   -6.0849    0.9759   -0.5576 H   0  0  0  0  0  0  0  0  0  0  0  0
   -6.6264   -0.5291   -1.0855 H   0  0  0  0  0  0  0  0  0  0  0  0
   -4.5700   -0.0876   -1.4434 C   0  0  0  0  0  0  0  0  0  0  0  0
   -3.9668   -0.4267   -0.2922 N   0  0  0  0  0  0  0  0  0  0  0  0
   -4.4617   -0.3925    0.5681 H   0  0  0  0  0  0  0  0  0  0  0  0
   -3.0061   -0.7168   -0.3093 H   0  0  0  0  0  0  0  0  0  0  0  0
   -4.0033   -0.1176   -2.5328 O   0  0  0  0  0  0  0  0  0  0  0  0
   -1.0177   -2.1994   -0.0396 C   0  0  0  0  0  0  0  0  0  0  0  0
   -0.0570   -2.4642    0.1190 H   0  0  0  0  0  0  0  0  0  0  0  0
   -1.3310   -2.5982   -1.0045 H   0  0  0  0  0  0  0  0  0  0  0  0
   -1.6468   -2.6073    0.7516 H   0  0  0  0  0  0  0  0  0  0  0  0
   -1.1207   -0.7453   -0.0000 N   0  0  0  0  0  0  0  0  0  0  0  0
   -1.9967   -0.2217    0.0287 H   0  0  0  0  0  0  0  0  0  0  0  0
    0.0000    0.0000    0.0000 C   0  0  0  0  0  0  0  0  0  0  0  0
    1.1207   -0.4930    0.0000 O   0  0  0  0  0  0  0  0  0  0  0  0
   -0.2277    1.5122    0.0485 C   0  0  0  0  0  0  0  0  0  0  0  0
    0.1971    1.9357   -0.7625 H   0  0  0  0  0  0  0  0  0  0  0  0
    0.2246    1.8875    0.8683 H   0  0  0  0  0  0  0  0  0  0  0  0
   -1.2892    1.7586    0.0738 H   0  0  0  0  0  0  0  0  0  0  0  0
  1  5  1  0
  5  6  1  0
  5  9  2  0
  1  2  1  0
  1  3  1  0
  1  4  1  0
  6  7  1  0
  6  8  1  0
 10 14  1  0
 14 16  1  0
 16 17  2  0
 16 18  1  0
 10 11  1  0
 10 12  1  0
 10 13  1  0
 14 15  1  0
 18 19  1  0
 18 20  1  0
 18 21  1  0
M  END
>  <PDB_ID>  (143) 
pdb1hg8

>  <RESIDUE_NAME>  (143) 
ASN   GLY

>  <FRAG_NAME>  (143) 
ACEM   NMA

>  <FRAG_ATOM_NUM>  (143) 
fragi: 9  fragj: 12

>  <atom.prop.CHAIN_ID>  (143) 
A A A A A A A A A Z Z Z Z Z Z Z Z Z Z Z Z

>  <atom.prop.IS_HEAVY_ATOM>  (143) 
1 0 0 0 1 1 0 0 1 1 0 0 0 1 0 1 1 1 0 0 0

>  <DIFUSE_FUNC_ATOM>  (143) 
n/a

>  <FINAL_SINGLE_POINT_ENERGY>  (143) 
0

>  <NONCOV_INTER_ENERGY_QM>  (143) 
0

>  <FF_Energy>  (143) 
4.2

>  <QM_Energy>  (143) 
14.84

>  <source>  (143) 
ACEM_nNMA_08

>  <Index>  (143) 
26537

$$$$
ACEM-pdb1hno-A-ASN-31:NMA-pdb1hno-A-ILE-25
     RDKit          3D

 21 19  0  0  0  0  0  0  0  0999 V2000
   -6.0001   -0.3016    1.2226 C   0  0  0  0  0  0  0  0  0  0  0  0
   -6.8646   -0.2210    0.7457 H   0  0  0  0  0  0  0  0  0  0  0  0
   -5.9189    0.3850    1.9321 H   0  0  0  0  0  0  0  0  0  0  0  0
   -5.9328   -1.2912    1.6747 H   0  0  0  0  0  0  0  0  0  0  0  0
   -4.8763   -0.0824    0.2148 C   0  0  0  0  0  0  0  0  0  0  0  0
   -3.6782    0.2373    0.6641 N   0  0  0  0  0  0  0  0  0  0  0  0
   -3.5483    0.3191    1.6653 H   0  0  0  0  0  0  0  0  0  0  0  0
   -2.9215    0.3932    0.0468 H   0  0  0  0  0  0  0  0  0  0  0  0
   -5.0756   -0.2328   -0.9961 O   0  0  0  0  0  0  0  0  0  0  0  0
   -1.2478   -2.0907    0.2372 C   0  0  0  0  0  0  0  0  0  0  0  0
   -0.4171   -2.5335   -0.0948 H   0  0  0  0  0  0  0  0  0  0  0  0
   -2.0702   -2.4676   -0.3708 H   0  0  0  0  0  0  0  0  0  0  0  0
   -1.4561   -2.2447    1.2959 H   0  0  0  0  0  0  0  0  0  0  0  0
   -1.1175   -0.6747   -0.0000 N   0  0  0  0  0  0  0  0  0  0  0  0
   -1.9763   -0.0622   -0.2009 H   0  0  0  0  0  0  0  0  0  0  0  0
    0.0000    0.0000    0.0000 C   0  0  0  0  0  0  0  0  0  0  0  0
    1.1175   -0.5710    0.0000 O   0  0  0  0  0  0  0  0  0  0  0  0
   -0.1449    1.4819   -0.3749 C   0  0  0  0  0  0  0  0  0  0  0  0
   -0.7206    1.5098   -1.1932 H   0  0  0  0  0  0  0  0  0  0  0  0
   -0.6877    2.0143    0.4060 H   0  0  0  0  0  0  0  0  0  0  0  0
    0.8325    1.9226   -0.5712 H   0  0  0  0  0  0  0  0  0  0  0  0
  1  5  1  0
  5  6  1  0
  5  9  2  0
  1  2  1  0
  1  3  1  0
  1  4  1  0
  6  7  1  0
  6  8  1  0
 10 14  1  0
 14 16  1  0
 16 17  2  0
 16 18  1  0
 10 11  1  0
 10 12  1  0
 10 13  1  0
 14 15  1  0
 18 19  1  0
 18 20  1  0
 18 21  1  0
M  END
>  <PDB_ID>  (144) 
pdb1hno

>  <RESIDUE_NAME>  (144) 
ASN   ILE

>  <FRAG_NAME>  (144) 
ACEM   NMA

>  <FRAG_ATOM_NUM>  (144) 
fragi: 9  fragj: 12

>  <atom.prop.CHAIN_ID>  (144) 
A A A A A A A A A Z Z Z Z Z Z Z Z Z Z Z Z

>  <atom.prop.IS_HEAVY_ATOM>  (144) 
1 0 0 0 1 1 0 0 1 1 0 0 0 1 0 1 1 1 0 0 0

>  <DIFUSE_FUNC_ATOM>  (144) 
n/a

>  <FINAL_SINGLE_POINT_ENERGY>  (144) 
0

>  <NONCOV_INTER_ENERGY_QM>  (144) 
0

>  <FF_Energy>  (144) 
9.39

>  <QM_Energy>  (144) 
21.4

>  <source>  (144) 
ACEM_nNMA_09

>  <Index>  (144) 
71

$$$$
ACEM-pdb2ics-A-ASN-96:NMA-pdb2ics-A-THR-92
     RDKit          3D

 21 19  0  0  0  0  0  0  0  0999 V2000
   -4.9418    1.7472   -2.1149 C   0  0  0  0  0  0  0  0  0  0  0  0
   -4.7008    2.6811   -2.3642 H   0  0  0  0  0  0  0  0  0  0  0  0
   -5.9089    1.6938   -1.8806 H   0  0  0  0  0  0  0  0  0  0  0  0
   -4.7594    1.1021   -2.9743 H   0  0  0  0  0  0  0  0  0  0  0  0
   -4.1257    1.3518   -0.8831 C   0  0  0  0  0  0  0  0  0  0  0  0
   -3.4196    0.2314   -0.9870 N   0  0  0  0  0  0  0  0  0  0  0  0
   -3.4365   -0.2967   -1.8361 H   0  0  0  0  0  0  0  0  0  0  0  0
   -2.8673   -0.0862   -0.2143 H   0  0  0  0  0  0  0  0  0  0  0  0
   -4.1212    2.0461    0.1389 O   0  0  0  0  0  0  0  0  0  0  0  0
   -1.1122   -2.1559   -0.0426 C   0  0  0  0  0  0  0  0  0  0  0  0
   -0.1884   -2.4909    0.0632 H   0  0  0  0  0  0  0  0  0  0  0  0
   -1.7083   -2.5210    0.6574 H   0  0  0  0  0  0  0  0  0  0  0  0
   -1.4915   -2.4314   -1.0266 H   0  0  0  0  0  0  0  0  0  0  0  0
   -1.1242   -0.7071    0.0000 N   0  0  0  0  0  0  0  0  0  0  0  0
   -1.9948   -0.1378    0.0327 H   0  0  0  0  0  0  0  0  0  0  0  0
    0.0000    0.0000    0.0000 C   0  0  0  0  0  0  0  0  0  0  0  0
    1.1242   -0.4991   -0.0000 O   0  0  0  0  0  0  0  0  0  0  0  0
   -0.1971    1.4989   -0.0065 C   0  0  0  0  0  0  0  0  0  0  0  0
   -1.0260    1.7166    0.5469 H   0  0  0  0  0  0  0  0  0  0  0  0
    0.6424    2.0560    0.4094 H   0  0  0  0  0  0  0  0  0  0  0  0
   -0.3928    1.7762   -1.0423 H   0  0  0  0  0  0  0  0  0  0  0  0
  1  5  1  0
  5  6  1  0
  5  9  2  0
  1  2  1  0
  1  3  1  0
  1  4  1  0
  6  7  1  0
  6  8  1  0
 10 14  1  0
 14 16  1  0
 16 17  2  0
 16 18  1  0
 10 11  1  0
 10 12  1  0
 10 13  1  0
 14 15  1  0
 18 19  1  0
 18 20  1  0
 18 21  1  0
M  END
>  <PDB_ID>  (145) 
pdb2ics

>  <RESIDUE_NAME>  (145) 
ASN   THR

>  <FRAG_NAME>  (145) 
ACEM   NMA

>  <FRAG_ATOM_NUM>  (145) 
fragi: 9  fragj: 12

>  <atom.prop.CHAIN_ID>  (145) 
A A A A A A A A A Z Z Z Z Z Z Z Z Z Z Z Z

>  <atom.prop.IS_HEAVY_ATOM>  (145) 
1 0 0 0 1 1 0 0 1 1 0 0 0 1 0 1 1 1 0 0 0

>  <DIFUSE_FUNC_ATOM>  (145) 
n/a

>  <FINAL_SINGLE_POINT_ENERGY>  (145) 
0

>  <NONCOV_INTER_ENERGY_QM>  (145) 
0

>  <FF_Energy>  (145) 
12.2

>  <QM_Energy>  (145) 
37.42

>  <source>  (145) 
ACEM_nNMA_09

>  <Index>  (145) 
998

$$$$
ACEM-pdb1hru-A-GLN-81:NMA-pdb1hru-A-LEU-77
     RDKit          3D

 21 19  0  0  0  0  0  0  0  0999 V2000
   -4.2572    0.2864   -2.5498 C   0  0  0  0  0  0  0  0  0  0  0  0
   -5.0665    0.5128   -3.0901 H   0  0  0  0  0  0  0  0  0  0  0  0
   -4.2920   -0.6735   -2.2766 H   0  0  0  0  0  0  0  0  0  0  0  0
   -3.3711    0.4429   -3.1650 H   0  0  0  0  0  0  0  0  0  0  0  0
   -4.2457    1.1451   -1.3109 C   0  0  0  0  0  0  0  0  0  0  0  0
   -3.2437    0.9425   -0.4585 N   0  0  0  0  0  0  0  0  0  0  0  0
   -3.1607    1.4936    0.3928 H   0  0  0  0  0  0  0  0  0  0  0  0
   -2.5560    0.2218   -0.6721 H   0  0  0  0  0  0  0  0  0  0  0  0
   -5.1313    1.9816   -1.1137 O   0  0  0  0  0  0  0  0  0  0  0  0
   -1.0918   -2.1714   -0.0233 C   0  0  0  0  0  0  0  0  0  0  0  0
   -0.4828   -2.4897    0.6952 H   0  0  0  0  0  0  0  0  0  0  0  0
   -0.6848   -2.4809   -0.9859 H   0  0  0  0  0  0  0  0  0  0  0  0
   -2.0949   -2.5891    0.0631 H   0  0  0  0  0  0  0  0  0  0  0  0
   -1.1189   -0.7104    0.0000 N   0  0  0  0  0  0  0  0  0  0  0  0
   -1.9936   -0.1552    0.0170 H   0  0  0  0  0  0  0  0  0  0  0  0
    0.0000    0.0000    0.0000 C   0  0  0  0  0  0  0  0  0  0  0  0
    1.1189   -0.5138   -0.0000 O   0  0  0  0  0  0  0  0  0  0  0  0
   -0.1647    1.5098    0.0138 C   0  0  0  0  0  0  0  0  0  0  0  0
   -1.1549    1.7217    0.0054 H   0  0  0  0  0  0  0  0  0  0  0  0
    0.2806    1.9598    0.9010 H   0  0  0  0  0  0  0  0  0  0  0  0
    0.2871    1.9472   -0.8765 H   0  0  0  0  0  0  0  0  0  0  0  0
  1  5  1  0
  5  6  1  0
  5  9  2  0
  1  2  1  0
  1  3  1  0
  1  4  1  0
  6  7  1  0
  6  8  1  0
 10 14  1  0
 14 16  1  0
 16 17  2  0
 16 18  1  0
 10 11  1  0
 10 12  1  0
 10 13  1  0
 14 15  1  0
 18 19  1  0
 18 20  1  0
 18 21  1  0
M  END
>  <PDB_ID>  (146) 
pdb1hru

>  <RESIDUE_NAME>  (146) 
GLN   LEU

>  <FRAG_NAME>  (146) 
ACEM   NMA

>  <FRAG_ATOM_NUM>  (146) 
fragi: 9  fragj: 12

>  <atom.prop.CHAIN_ID>  (146) 
A A A A A A A A A Z Z Z Z Z Z Z Z Z Z Z Z

>  <atom.prop.IS_HEAVY_ATOM>  (146) 
1 0 0 0 1 1 0 0 1 1 0 0 0 1 0 1 1 1 0 0 0

>  <DIFUSE_FUNC_ATOM>  (146) 
n/a

>  <FINAL_SINGLE_POINT_ENERGY>  (146) 
0

>  <NONCOV_INTER_ENERGY_QM>  (146) 
0

>  <FF_Energy>  (146) 
15.86

>  <QM_Energy>  (146) 
32.86

>  <source>  (146) 
ACEM_nNMA_09

>  <Index>  (146) 
3350

$$$$
ACEM-pdb2ifc-B-ASN-178:NMA-pdb2ifc-B-GLN-46
     RDKit          3D

 21 19  0  0  0  0  0  0  0  0999 V2000
   -5.4064    0.5139    2.5895 C   0  0  0  0  0  0  0  0  0  0  0  0
   -6.0626    0.9319    1.9654 H   0  0  0  0  0  0  0  0  0  0  0  0
   -5.3837    1.0201    3.4489 H   0  0  0  0  0  0  0  0  0  0  0  0
   -5.7514   -0.4969    2.8073 H   0  0  0  0  0  0  0  0  0  0  0  0
   -4.0518    0.5299    1.9687 C   0  0  0  0  0  0  0  0  0  0  0  0
   -3.9743    0.1375    0.6934 N   0  0  0  0  0  0  0  0  0  0  0  0
   -4.8049   -0.1393    0.2101 H   0  0  0  0  0  0  0  0  0  0  0  0
   -3.0929    0.1237    0.2291 H   0  0  0  0  0  0  0  0  0  0  0  0
   -3.0710    0.9226    2.6138 O   0  0  0  0  0  0  0  0  0  0  0  0
   -1.0529   -2.1305   -0.0111 C   0  0  0  0  0  0  0  0  0  0  0  0
   -0.5313   -2.4205    0.7982 H   0  0  0  0  0  0  0  0  0  0  0  0
   -0.4953   -2.4768   -0.8812 H   0  0  0  0  0  0  0  0  0  0  0  0
   -2.0461   -2.5796   -0.0072 H   0  0  0  0  0  0  0  0  0  0  0  0
   -1.1214   -0.6908    0.0000 N   0  0  0  0  0  0  0  0  0  0  0  0
   -1.9881   -0.1454    0.0083 H   0  0  0  0  0  0  0  0  0  0  0  0
    0.0000    0.0000    0.0000 C   0  0  0  0  0  0  0  0  0  0  0  0
    1.1214   -0.5319    0.0000 O   0  0  0  0  0  0  0  0  0  0  0  0
   -0.1582    1.5169   -0.0151 C   0  0  0  0  0  0  0  0  0  0  0  0
   -1.0418    1.7284    0.3895 H   0  0  0  0  0  0  0  0  0  0  0  0
    0.6297    1.9233    0.6190 H   0  0  0  0  0  0  0  0  0  0  0  0
   -0.0405    1.8735   -1.0384 H   0  0  0  0  0  0  0  0  0  0  0  0
  1  5  1  0
  5  6  1  0
  5  9  2  0
  1  2  1  0
  1  3  1  0
  1  4  1  0
  6  7  1  0
  6  8  1  0
 10 14  1  0
 14 16  1  0
 16 17  2  0
 16 18  1  0
 10 11  1  0
 10 12  1  0
 10 13  1  0
 14 15  1  0
 18 19  1  0
 18 20  1  0
 18 21  1  0
M  END
>  <PDB_ID>  (147) 
pdb2ifc

>  <RESIDUE_NAME>  (147) 
ASN   GLN

>  <FRAG_NAME>  (147) 
ACEM   NMA

>  <FRAG_ATOM_NUM>  (147) 
fragi: 9  fragj: 12

>  <atom.prop.CHAIN_ID>  (147) 
A A A A A A A A A Z Z Z Z Z Z Z Z Z Z Z Z

>  <atom.prop.IS_HEAVY_ATOM>  (147) 
1 0 0 0 1 1 0 0 1 1 0 0 0 1 0 1 1 1 0 0 0

>  <DIFUSE_FUNC_ATOM>  (147) 
n/a

>  <FINAL_SINGLE_POINT_ENERGY>  (147) 
0

>  <NONCOV_INTER_ENERGY_QM>  (147) 
0

>  <FF_Energy>  (147) 
4.06

>  <QM_Energy>  (147) 
14.37

>  <source>  (147) 
ACEM_nNMA_09

>  <Index>  (147) 
7031

$$$$
ACEM-pdb1hvq-A-ASN-102:NMA-pdb1hvq-A-GLY-107
     RDKit          3D

 21 19  0  0  0  0  0  0  0  0999 V2000
   -2.7541    0.0779   -3.1818 C   0  0  0  0  0  0  0  0  0  0  0  0
   -3.2117    0.1634   -4.0587 H   0  0  0  0  0  0  0  0  0  0  0  0
   -2.7973   -0.8574   -2.8521 H   0  0  0  0  0  0  0  0  0  0  0  0
   -1.7087    0.3637   -3.2991 H   0  0  0  0  0  0  0  0  0  0  0  0
   -3.4643    0.9725   -2.1811 C   0  0  0  0  0  0  0  0  0  0  0  0
   -2.9724    1.0878   -0.9867 N   0  0  0  0  0  0  0  0  0  0  0  0
   -2.1222    0.5820   -0.7531 H   0  0  0  0  0  0  0  0  0  0  0  0
   -3.4044    1.6588   -0.2933 H   0  0  0  0  0  0  0  0  0  0  0  0
   -4.4975    1.5864   -2.4483 O   0  0  0  0  0  0  0  0  0  0  0  0
   -0.9432   -2.1757    0.1171 C   0  0  0  0  0  0  0  0  0  0  0  0
    0.0186   -2.4238   -0.1285 H   0  0  0  0  0  0  0  0  0  0  0  0
   -1.6193   -2.7535   -0.5133 H   0  0  0  0  0  0  0  0  0  0  0  0
   -1.0561   -2.4448    1.1673 H   0  0  0  0  0  0  0  0  0  0  0  0
   -1.0944   -0.7360    0.0000 N   0  0  0  0  0  0  0  0  0  0  0  0
   -1.9782   -0.2458   -0.0821 H   0  0  0  0  0  0  0  0  0  0  0  0
    0.0000    0.0000    0.0000 C   0  0  0  0  0  0  0  0  0  0  0  0
    1.0944   -0.5430   -0.0000 O   0  0  0  0  0  0  0  0  0  0  0  0
   -0.0841    1.4869   -0.0644 C   0  0  0  0  0  0  0  0  0  0  0  0
   -0.2433    1.8623    0.8470 H   0  0  0  0  0  0  0  0  0  0  0  0
   -0.8248    1.7632   -0.6752 H   0  0  0  0  0  0  0  0  0  0  0  0
    0.8664    1.8550   -0.4507 H   0  0  0  0  0  0  0  0  0  0  0  0
  1  5  1  0
  5  6  1  0
  5  9  2  0
  1  2  1  0
  1  3  1  0
  1  4  1  0
  6  7  1  0
  6  8  1  0
 10 14  1  0
 14 16  1  0
 16 17  2  0
 16 18  1  0
 10 11  1  0
 10 12  1  0
 10 13  1  0
 14 15  1  0
 18 19  1  0
 18 20  1  0
 18 21  1  0
M  END
>  <PDB_ID>  (148) 
pdb1hvq

>  <RESIDUE_NAME>  (148) 
ASN   GLY

>  <FRAG_NAME>  (148) 
ACEM   NMA

>  <FRAG_ATOM_NUM>  (148) 
fragi: 9  fragj: 12

>  <atom.prop.CHAIN_ID>  (148) 
A A A A A A A A A Z Z Z Z Z Z Z Z Z Z Z Z

>  <atom.prop.IS_HEAVY_ATOM>  (148) 
1 0 0 0 1 1 0 0 1 1 0 0 0 1 0 1 1 1 0 0 0

>  <DIFUSE_FUNC_ATOM>  (148) 
n/a

>  <FINAL_SINGLE_POINT_ENERGY>  (148) 
0

>  <NONCOV_INTER_ENERGY_QM>  (148) 
0

>  <FF_Energy>  (148) 
14.16

>  <QM_Energy>  (148) 
24.54

>  <source>  (148) 
ACEM_nNMA_09

>  <Index>  (148) 
7814

$$$$
ACEM-pdb1hx1-A-GLN-330:NMA-pdb1hx1-A-LEU-326
     RDKit          3D

 21 19  0  0  0  0  0  0  0  0999 V2000
   -5.2206   -0.0391   -0.1336 C   0  0  0  0  0  0  0  0  0  0  0  0
   -6.1635    0.2737   -0.0193 H   0  0  0  0  0  0  0  0  0  0  0  0
   -5.1803   -1.0295    0.0035 H   0  0  0  0  0  0  0  0  0  0  0  0
   -4.9081    0.1782   -1.1550 H   0  0  0  0  0  0  0  0  0  0  0  0
   -4.3537    0.6353    0.9156 C   0  0  0  0  0  0  0  0  0  0  0  0
   -3.0669    0.3158    0.9175 N   0  0  0  0  0  0  0  0  0  0  0  0
   -2.4235    0.7373    1.5807 H   0  0  0  0  0  0  0  0  0  0  0  0
   -2.7279   -0.3657    0.2372 H   0  0  0  0  0  0  0  0  0  0  0  0
   -4.8349    1.4353    1.7137 O   0  0  0  0  0  0  0  0  0  0  0  0
   -1.0785   -2.1393   -0.0106 C   0  0  0  0  0  0  0  0  0  0  0  0
   -0.1308   -2.4162    0.0957 H   0  0  0  0  0  0  0  0  0  0  0  0
   -1.3923   -2.4443   -1.0089 H   0  0  0  0  0  0  0  0  0  0  0  0
   -1.7628   -2.5529    0.7301 H   0  0  0  0  0  0  0  0  0  0  0  0
   -1.1196   -0.7002   -0.0000 N   0  0  0  0  0  0  0  0  0  0  0  0
   -1.9906   -0.1418    0.0078 H   0  0  0  0  0  0  0  0  0  0  0  0
    0.0000    0.0000    0.0000 C   0  0  0  0  0  0  0  0  0  0  0  0
    1.1196   -0.5160    0.0000 O   0  0  0  0  0  0  0  0  0  0  0  0
   -0.1755    1.4949   -0.0135 C   0  0  0  0  0  0  0  0  0  0  0  0
   -0.8888    1.7436    0.6479 H   0  0  0  0  0  0  0  0  0  0  0  0
    0.7566    1.9756    0.2835 H   0  0  0  0  0  0  0  0  0  0  0  0
   -0.4634    1.7910   -1.0222 H   0  0  0  0  0  0  0  0  0  0  0  0
  1  5  1  0
  5  6  1  0
  5  9  2  0
  1  2  1  0
  1  3  1  0
  1  4  1  0
  6  7  1  0
  6  8  1  0
 10 14  1  0
 14 16  1  0
 16 17  2  0
 16 18  1  0
 10 11  1  0
 10 12  1  0
 10 13  1  0
 14 15  1  0
 18 19  1  0
 18 20  1  0
 18 21  1  0
M  END
>  <PDB_ID>  (149) 
pdb1hx1

>  <RESIDUE_NAME>  (149) 
GLN   LEU

>  <FRAG_NAME>  (149) 
ACEM   NMA

>  <FRAG_ATOM_NUM>  (149) 
fragi: 9  fragj: 12

>  <atom.prop.CHAIN_ID>  (149) 
A A A A A A A A A Z Z Z Z Z Z Z Z Z Z Z Z

>  <atom.prop.IS_HEAVY_ATOM>  (149) 
1 0 0 0 1 1 0 0 1 1 0 0 0 1 0 1 1 1 0 0 0

>  <DIFUSE_FUNC_ATOM>  (149) 
n/a

>  <FINAL_SINGLE_POINT_ENERGY>  (149) 
0

>  <NONCOV_INTER_ENERGY_QM>  (149) 
0

>  <FF_Energy>  (149) 
47.83

>  <QM_Energy>  (149) 
69.8

>  <source>  (149) 
ACEM_nNMA_09

>  <Index>  (149) 
9826

$$$$
ACEM-pdb1hyp-A-ASN-65:NMA-pdb1hyp-A-PRO-72
     RDKit          3D

 21 19  0  0  0  0  0  0  0  0999 V2000
   -5.4734    1.7027    1.3331 C   0  0  0  0  0  0  0  0  0  0  0  0
   -6.3776    1.5986    0.8986 H   0  0  0  0  0  0  0  0  0  0  0  0
   -5.3169    2.6832    1.5063 H   0  0  0  0  0  0  0  0  0  0  0  0
   -5.5006    1.1913    2.2954 H   0  0  0  0  0  0  0  0  0  0  0  0
   -4.4261    1.2039    0.3941 C   0  0  0  0  0  0  0  0  0  0  0  0
   -3.3315    0.5440    0.8356 N   0  0  0  0  0  0  0  0  0  0  0  0
   -2.7530    0.0991    0.1819 H   0  0  0  0  0  0  0  0  0  0  0  0
   -3.1919    0.4643    1.8045 H   0  0  0  0  0  0  0  0  0  0  0  0
   -4.6099    1.4436   -0.8159 O   0  0  0  0  0  0  0  0  0  0  0  0
   -1.0096   -2.1920   -0.0160 C   0  0  0  0  0  0  0  0  0  0  0  0
   -0.2373   -2.4562    0.5587 H   0  0  0  0  0  0  0  0  0  0  0  0
   -0.8035   -2.5098   -1.0380 H   0  0  0  0  0  0  0  0  0  0  0  0
   -1.9371   -2.6268    0.3566 H   0  0  0  0  0  0  0  0  0  0  0  0
   -1.1061   -0.7355    0.0000 N   0  0  0  0  0  0  0  0  0  0  0  0
   -1.9993   -0.3361   -0.0592 H   0  0  0  0  0  0  0  0  0  0  0  0
    0.0000    0.0000    0.0000 C   0  0  0  0  0  0  0  0  0  0  0  0
    1.1061   -0.5392   -0.0000 O   0  0  0  0  0  0  0  0  0  0  0  0
   -0.0463    1.5178    0.0405 C   0  0  0  0  0  0  0  0  0  0  0  0
   -0.8970    1.8444    0.4789 H   0  0  0  0  0  0  0  0  0  0  0  0
    0.8209    1.9458    0.5434 H   0  0  0  0  0  0  0  0  0  0  0  0
   -0.0769    1.9352   -0.9659 H   0  0  0  0  0  0  0  0  0  0  0  0
  1  5  1  0
  5  6  1  0
  5  9  2  0
  1  2  1  0
  1  3  1  0
  1  4  1  0
  6  7  1  0
  6  8  1  0
 10 14  1  0
 14 16  1  0
 16 17  2  0
 16 18  1  0
 10 11  1  0
 10 12  1  0
 10 13  1  0
 14 15  1  0
 18 19  1  0
 18 20  1  0
 18 21  1  0
M  END
>  <PDB_ID>  (150) 
pdb1hyp

>  <RESIDUE_NAME>  (150) 
ASN   PRO

>  <FRAG_NAME>  (150) 
ACEM   NMA

>  <FRAG_ATOM_NUM>  (150) 
fragi: 9  fragj: 12

>  <atom.prop.CHAIN_ID>  (150) 
A A A A A A A A A Z Z Z Z Z Z Z Z Z Z Z Z

>  <atom.prop.IS_HEAVY_ATOM>  (150) 
1 0 0 0 1 1 0 0 1 1 0 0 0 1 0 1 1 1 0 0 0

>  <DIFUSE_FUNC_ATOM>  (150) 
n/a

>  <FINAL_SINGLE_POINT_ENERGY>  (150) 
0

>  <NONCOV_INTER_ENERGY_QM>  (150) 
0

>  <FF_Energy>  (150) 
14.5

>  <QM_Energy>  (150) 
37.1

>  <source>  (150) 
ACEM_nNMA_09

>  <Index>  (150) 
10608

$$$$
ACEM-pdb2inp-C-GLN-165:NMA-pdb2inp-A-THR-57
     RDKit          3D

 21 19  0  0  0  0  0  0  0  0999 V2000
   -5.8736   -0.1689   -1.1993 C   0  0  0  0  0  0  0  0  0  0  0  0
   -6.5295   -0.1345   -0.4239 H   0  0  0  0  0  0  0  0  0  0  0  0
   -6.1865   -0.9122   -1.8179 H   0  0  0  0  0  0  0  0  0  0  0  0
   -5.9104    0.7784   -1.7372 H   0  0  0  0  0  0  0  0  0  0  0  0
   -4.5249   -0.5501   -0.6535 C   0  0  0  0  0  0  0  0  0  0  0  0
   -3.4772   -0.1666   -1.3250 N   0  0  0  0  0  0  0  0  0  0  0  0
   -2.5241   -0.3755   -1.0106 H   0  0  0  0  0  0  0  0  0  0  0  0
   -3.6042    0.3606   -2.1980 H   0  0  0  0  0  0  0  0  0  0  0  0
   -4.4336   -1.2585    0.3253 O   0  0  0  0  0  0  0  0  0  0  0  0
   -1.0901   -2.1751    0.1961 C   0  0  0  0  0  0  0  0  0  0  0  0
   -0.6260   -2.3618    1.0705 H   0  0  0  0  0  0  0  0  0  0  0  0
   -0.5361   -2.6687   -0.6024 H   0  0  0  0  0  0  0  0  0  0  0  0
   -2.0873   -2.5768    0.3757 H   0  0  0  0  0  0  0  0  0  0  0  0
   -1.1077   -0.7245   -0.0000 N   0  0  0  0  0  0  0  0  0  0  0  0
   -1.9851   -0.1836   -0.1500 H   0  0  0  0  0  0  0  0  0  0  0  0
    0.0000    0.0000    0.0000 C   0  0  0  0  0  0  0  0  0  0  0  0
    1.1077   -0.5061    0.0000 O   0  0  0  0  0  0  0  0  0  0  0  0
   -0.1893    1.5465   -0.0459 C   0  0  0  0  0  0  0  0  0  0  0  0
   -0.8510    1.7853    0.6600 H   0  0  0  0  0  0  0  0  0  0  0  0
    0.7663    2.0242    0.1705 H   0  0  0  0  0  0  0  0  0  0  0  0
   -0.5858    1.8573   -1.0125 H   0  0  0  0  0  0  0  0  0  0  0  0
  1  5  1  0
  5  6  1  0
  5  9  2  0
  1  2  1  0
  1  3  1  0
  1  4  1  0
  6  7  1  0
  6  8  1  0
 10 14  1  0
 14 16  1  0
 16 17  2  0
 16 18  1  0
 10 11  1  0
 10 12  1  0
 10 13  1  0
 14 15  1  0
 18 19  1  0
 18 20  1  0
 18 21  1  0
M  END
>  <PDB_ID>  (151) 
pdb2inp

>  <RESIDUE_NAME>  (151) 
GLN   THR

>  <FRAG_NAME>  (151) 
ACEM   NMA

>  <FRAG_ATOM_NUM>  (151) 
fragi: 9  fragj: 12

>  <atom.prop.CHAIN_ID>  (151) 
A A A A A A A A A Z Z Z Z Z Z Z Z Z Z Z Z

>  <atom.prop.IS_HEAVY_ATOM>  (151) 
1 0 0 0 1 1 0 0 1 1 0 0 0 1 0 1 1 1 0 0 0

>  <DIFUSE_FUNC_ATOM>  (151) 
n/a

>  <FINAL_SINGLE_POINT_ENERGY>  (151) 
0

>  <NONCOV_INTER_ENERGY_QM>  (151) 
0

>  <FF_Energy>  (151) 
8.86

>  <QM_Energy>  (151) 
20.87

>  <source>  (151) 
ACEM_nNMA_09

>  <Index>  (151) 
11245

$$$$
ACEM-pdb1i1j-A-GLN-44:NMA-pdb1i1j-A-ILE-40
     RDKit          3D

 21 19  0  0  0  0  0  0  0  0999 V2000
   -5.3888   -0.4331    0.1799 C   0  0  0  0  0  0  0  0  0  0  0  0
   -6.3203   -0.4474    0.4644 H   0  0  0  0  0  0  0  0  0  0  0  0
   -4.9799   -1.3161    0.1230 H   0  0  0  0  0  0  0  0  0  0  0  0
   -5.3273    0.0464   -0.7970 H   0  0  0  0  0  0  0  0  0  0  0  0
   -4.5867    0.4269    1.1477 C   0  0  0  0  0  0  0  0  0  0  0  0
   -3.2982    0.4761    0.8688 N   0  0  0  0  0  0  0  0  0  0  0  0
   -2.6681    1.0512    1.4657 H   0  0  0  0  0  0  0  0  0  0  0  0
   -2.9270   -0.0364    0.0855 H   0  0  0  0  0  0  0  0  0  0  0  0
   -5.1065    0.9098    2.1356 O   0  0  0  0  0  0  0  0  0  0  0  0
   -1.1119   -2.1917    0.0367 C   0  0  0  0  0  0  0  0  0  0  0  0
   -0.1731   -2.5073   -0.0925 H   0  0  0  0  0  0  0  0  0  0  0  0
   -1.7179   -2.5758   -0.7839 H   0  0  0  0  0  0  0  0  0  0  0  0
   -1.5596   -2.5740    0.9541 H   0  0  0  0  0  0  0  0  0  0  0  0
   -1.1218   -0.7304    0.0000 N   0  0  0  0  0  0  0  0  0  0  0  0
   -1.9990   -0.1653   -0.0283 H   0  0  0  0  0  0  0  0  0  0  0  0
    0.0000    0.0000    0.0000 C   0  0  0  0  0  0  0  0  0  0  0  0
    1.1218   -0.5486   -0.0000 O   0  0  0  0  0  0  0  0  0  0  0  0
   -0.1464    1.4937   -0.1500 C   0  0  0  0  0  0  0  0  0  0  0  0
   -0.9817    1.7595    0.3325 H   0  0  0  0  0  0  0  0  0  0  0  0
    0.6689    1.9970    0.3698 H   0  0  0  0  0  0  0  0  0  0  0  0
   -0.0704    1.8025   -1.1926 H   0  0  0  0  0  0  0  0  0  0  0  0
  1  5  1  0
  5  6  1  0
  5  9  2  0
  1  2  1  0
  1  3  1  0
  1  4  1  0
  6  7  1  0
  6  8  1  0
 10 14  1  0
 14 16  1  0
 16 17  2  0
 16 18  1  0
 10 11  1  0
 10 12  1  0
 10 13  1  0
 14 15  1  0
 18 19  1  0
 18 20  1  0
 18 21  1  0
M  END
>  <PDB_ID>  (152) 
pdb1i1j

>  <RESIDUE_NAME>  (152) 
GLN   ILE

>  <FRAG_NAME>  (152) 
ACEM   NMA

>  <FRAG_ATOM_NUM>  (152) 
fragi: 9  fragj: 12

>  <atom.prop.CHAIN_ID>  (152) 
A A A A A A A A A Z Z Z Z Z Z Z Z Z Z Z Z

>  <atom.prop.IS_HEAVY_ATOM>  (152) 
1 0 0 0 1 1 0 0 1 1 0 0 0 1 0 1 1 1 0 0 0

>  <DIFUSE_FUNC_ATOM>  (152) 
n/a

>  <FINAL_SINGLE_POINT_ENERGY>  (152) 
0

>  <NONCOV_INTER_ENERGY_QM>  (152) 
0

>  <FF_Energy>  (152) 
17.81

>  <QM_Energy>  (152) 
37.64

>  <source>  (152) 
ACEM_nNMA_09

>  <Index>  (152) 
12998

$$$$
ACEM-pdb2ipt-H-ASN-196:NMA-pdb2ipt-H-ASN-155
     RDKit          3D

 21 19  0  0  0  0  0  0  0  0999 V2000
   -5.9009   -0.8428    0.0543 C   0  0  0  0  0  0  0  0  0  0  0  0
   -5.7115   -1.3485    0.8937 H   0  0  0  0  0  0  0  0  0  0  0  0
   -6.2301   -1.4689   -0.6498 H   0  0  0  0  0  0  0  0  0  0  0  0
   -6.6869   -0.1167    0.2615 H   0  0  0  0  0  0  0  0  0  0  0  0
   -4.6250   -0.2011   -0.4244 C   0  0  0  0  0  0  0  0  0  0  0  0
   -3.5810   -0.2370    0.4078 N   0  0  0  0  0  0  0  0  0  0  0  0
   -3.6806   -0.6839    1.2984 H   0  0  0  0  0  0  0  0  0  0  0  0
   -2.7162    0.1768    0.1441 H   0  0  0  0  0  0  0  0  0  0  0  0
   -4.5748    0.3105   -1.5391 O   0  0  0  0  0  0  0  0  0  0  0  0
   -1.1399   -2.1816   -0.1049 C   0  0  0  0  0  0  0  0  0  0  0  0
   -2.1077   -2.4812   -0.0769 H   0  0  0  0  0  0  0  0  0  0  0  0
   -0.6128   -2.6751    0.7116 H   0  0  0  0  0  0  0  0  0  0  0  0
   -0.7379   -2.4853   -1.0715 H   0  0  0  0  0  0  0  0  0  0  0  0
   -1.1246   -0.7141   -0.0000 N   0  0  0  0  0  0  0  0  0  0  0  0
   -1.9978   -0.1456    0.0807 H   0  0  0  0  0  0  0  0  0  0  0  0
    0.0000    0.0000    0.0000 C   0  0  0  0  0  0  0  0  0  0  0  0
    1.1246   -0.5057    0.0000 O   0  0  0  0  0  0  0  0  0  0  0  0
   -0.1824    1.5153    0.0156 C   0  0  0  0  0  0  0  0  0  0  0  0
   -0.5873    1.7700   -0.8708 H   0  0  0  0  0  0  0  0  0  0  0  0
   -0.8843    1.8177    0.7928 H   0  0  0  0  0  0  0  0  0  0  0  0
    0.7617    2.0488    0.1254 H   0  0  0  0  0  0  0  0  0  0  0  0
  1  5  1  0
  5  6  1  0
  5  9  2  0
  1  2  1  0
  1  3  1  0
  1  4  1  0
  6  7  1  0
  6  8  1  0
 10 14  1  0
 14 16  1  0
 16 17  2  0
 16 18  1  0
 10 11  1  0
 10 12  1  0
 10 13  1  0
 14 15  1  0
 18 19  1  0
 18 20  1  0
 18 21  1  0
M  END
>  <PDB_ID>  (153) 
pdb2ipt

>  <RESIDUE_NAME>  (153) 
ASN   ASN

>  <FRAG_NAME>  (153) 
ACEM   NMA

>  <FRAG_ATOM_NUM>  (153) 
fragi: 9  fragj: 12

>  <atom.prop.CHAIN_ID>  (153) 
A A A A A A A A A Z Z Z Z Z Z Z Z Z Z Z Z

>  <atom.prop.IS_HEAVY_ATOM>  (153) 
1 0 0 0 1 1 0 0 1 1 0 0 0 1 0 1 1 1 0 0 0

>  <DIFUSE_FUNC_ATOM>  (153) 
n/a

>  <FINAL_SINGLE_POINT_ENERGY>  (153) 
0

>  <NONCOV_INTER_ENERGY_QM>  (153) 
0

>  <FF_Energy>  (153) 
27.67

>  <QM_Energy>  (153) 
59.64

>  <source>  (153) 
ACEM_nNMA_09

>  <Index>  (153) 
13571

$$$$
ACEM-pdb2inp-D-GLN-165:NMA-pdb2inp-B-THR-57
     RDKit          3D

 21 19  0  0  0  0  0  0  0  0999 V2000
   -6.0490   -0.0372   -0.7344 C   0  0  0  0  0  0  0  0  0  0  0  0
   -6.5820    0.2383    0.0776 H   0  0  0  0  0  0  0  0  0  0  0  0
   -6.5144   -0.8246   -1.1601 H   0  0  0  0  0  0  0  0  0  0  0  0
   -6.0942    0.7881   -1.4450 H   0  0  0  0  0  0  0  0  0  0  0  0
   -4.6465   -0.4842   -0.2720 C   0  0  0  0  0  0  0  0  0  0  0  0
   -3.5797   -0.0944   -0.9734 N   0  0  0  0  0  0  0  0  0  0  0  0
   -2.6606   -0.3436   -0.7100 H   0  0  0  0  0  0  0  0  0  0  0  0
   -3.7470    0.4807   -1.8112 H   0  0  0  0  0  0  0  0  0  0  0  0
   -4.5427   -1.2150    0.7144 O   0  0  0  0  0  0  0  0  0  0  0  0
   -1.0330   -2.2019   -0.0407 C   0  0  0  0  0  0  0  0  0  0  0  0
   -0.5329   -2.5047    0.7888 H   0  0  0  0  0  0  0  0  0  0  0  0
   -0.5038   -2.5630   -0.9226 H   0  0  0  0  0  0  0  0  0  0  0  0
   -2.0185   -2.6577    0.0553 H   0  0  0  0  0  0  0  0  0  0  0  0
   -1.1043   -0.7401    0.0000 N   0  0  0  0  0  0  0  0  0  0  0  0
   -1.9902   -0.2109    0.0305 H   0  0  0  0  0  0  0  0  0  0  0  0
    0.0000    0.0000    0.0000 C   0  0  0  0  0  0  0  0  0  0  0  0
    1.1043   -0.4953   -0.0000 O   0  0  0  0  0  0  0  0  0  0  0  0
   -0.1536    1.5303    0.0488 C   0  0  0  0  0  0  0  0  0  0  0  0
   -0.7937    1.7493    0.7740 H   0  0  0  0  0  0  0  0  0  0  0  0
    0.8260    1.9418    0.2920 H   0  0  0  0  0  0  0  0  0  0  0  0
   -0.5727    1.9449   -0.8680 H   0  0  0  0  0  0  0  0  0  0  0  0
  1  5  1  0
  5  6  1  0
  5  9  2  0
  1  2  1  0
  1  3  1  0
  1  4  1  0
  6  7  1  0
  6  8  1  0
 10 14  1  0
 14 16  1  0
 16 17  2  0
 16 18  1  0
 10 11  1  0
 10 12  1  0
 10 13  1  0
 14 15  1  0
 18 19  1  0
 18 20  1  0
 18 21  1  0
M  END
>  <PDB_ID>  (154) 
pdb2inp

>  <RESIDUE_NAME>  (154) 
GLN   THR

>  <FRAG_NAME>  (154) 
ACEM   NMA

>  <FRAG_ATOM_NUM>  (154) 
fragi: 9  fragj: 12

>  <atom.prop.CHAIN_ID>  (154) 
A A A A A A A A A Z Z Z Z Z Z Z Z Z Z Z Z

>  <atom.prop.IS_HEAVY_ATOM>  (154) 
1 0 0 0 1 1 0 0 1 1 0 0 0 1 0 1 1 1 0 0 0

>  <DIFUSE_FUNC_ATOM>  (154) 
n/a

>  <FINAL_SINGLE_POINT_ENERGY>  (154) 
0

>  <NONCOV_INTER_ENERGY_QM>  (154) 
0

>  <FF_Energy>  (154) 
10.04

>  <QM_Energy>  (154) 
24.21

>  <source>  (154) 
ACEM_nNMA_09

>  <Index>  (154) 
13900

$$$$
ACEM-pdb1i36-A-ASN-88:NMA-pdb1i36-A-ALA-63
     RDKit          3D

 21 19  0  0  0  0  0  0  0  0999 V2000
   -5.1377    1.3009   -2.5814 C   0  0  0  0  0  0  0  0  0  0  0  0
   -6.0494    1.5781   -2.2915 H   0  0  0  0  0  0  0  0  0  0  0  0
   -5.1944    0.5006   -3.1722 H   0  0  0  0  0  0  0  0  0  0  0  0
   -4.6888    2.1179   -3.1463 H   0  0  0  0  0  0  0  0  0  0  0  0
   -4.3318    0.9345   -1.3502 C   0  0  0  0  0  0  0  0  0  0  0  0
   -3.1647    0.3366   -1.5620 N   0  0  0  0  0  0  0  0  0  0  0  0
   -2.8596    0.1572   -2.4990 H   0  0  0  0  0  0  0  0  0  0  0  0
   -2.5910    0.0660   -0.7905 H   0  0  0  0  0  0  0  0  0  0  0  0
   -4.7618    1.1619   -0.2299 O   0  0  0  0  0  0  0  0  0  0  0  0
   -1.1266   -2.1605   -0.1438 C   0  0  0  0  0  0  0  0  0  0  0  0
   -0.2008   -2.4858   -0.0093 H   0  0  0  0  0  0  0  0  0  0  0  0
   -1.4193   -2.3801   -1.1705 H   0  0  0  0  0  0  0  0  0  0  0  0
   -1.8108   -2.5996    0.5823 H   0  0  0  0  0  0  0  0  0  0  0  0
   -1.1256   -0.7013    0.0000 N   0  0  0  0  0  0  0  0  0  0  0  0
   -1.9926   -0.1410    0.1084 H   0  0  0  0  0  0  0  0  0  0  0  0
    0.0000    0.0000    0.0000 C   0  0  0  0  0  0  0  0  0  0  0  0
    1.1256   -0.5246    0.0000 O   0  0  0  0  0  0  0  0  0  0  0  0
   -0.1802    1.5048    0.1988 C   0  0  0  0  0  0  0  0  0  0  0  0
   -0.8440    1.8330   -0.4563 H   0  0  0  0  0  0  0  0  0  0  0  0
   -0.5745    1.6325    1.2068 H   0  0  0  0  0  0  0  0  0  0  0  0
    0.7750    2.0218    0.1072 H   0  0  0  0  0  0  0  0  0  0  0  0
  1  5  1  0
  5  6  1  0
  5  9  2  0
  1  2  1  0
  1  3  1  0
  1  4  1  0
  6  7  1  0
  6  8  1  0
 10 14  1  0
 14 16  1  0
 16 17  2  0
 16 18  1  0
 10 11  1  0
 10 12  1  0
 10 13  1  0
 14 15  1  0
 18 19  1  0
 18 20  1  0
 18 21  1  0
M  END
>  <PDB_ID>  (155) 
pdb1i36

>  <RESIDUE_NAME>  (155) 
ASN   ALA

>  <FRAG_NAME>  (155) 
ACEM   NMA

>  <FRAG_ATOM_NUM>  (155) 
fragi: 9  fragj: 12

>  <atom.prop.CHAIN_ID>  (155) 
A A A A A A A A A Z Z Z Z Z Z Z Z Z Z Z Z

>  <atom.prop.IS_HEAVY_ATOM>  (155) 
1 0 0 0 1 1 0 0 1 1 0 0 0 1 0 1 1 1 0 0 0

>  <DIFUSE_FUNC_ATOM>  (155) 
n/a

>  <FINAL_SINGLE_POINT_ENERGY>  (155) 
0

>  <NONCOV_INTER_ENERGY_QM>  (155) 
0

>  <FF_Energy>  (155) 
6.52

>  <QM_Energy>  (155) 
18.82

>  <source>  (155) 
ACEM_nNMA_09

>  <Index>  (155) 
13914

$$$$
ACEM-pdb2iq7-A-ASN-176:NMA-pdb2iq7-A-GLY-115
     RDKit          3D

 21 19  0  0  0  0  0  0  0  0999 V2000
   -4.4065    1.0091    0.9809 C   0  0  0  0  0  0  0  0  0  0  0  0
   -3.4687    0.9810    1.3171 H   0  0  0  0  0  0  0  0  0  0  0  0
   -4.9365    0.2679    1.3862 H   0  0  0  0  0  0  0  0  0  0  0  0
   -4.8498    1.9510    1.3040 H   0  0  0  0  0  0  0  0  0  0  0  0
   -4.3960    0.8438   -0.5205 C   0  0  0  0  0  0  0  0  0  0  0  0
   -3.2389    0.4884   -1.0955 N   0  0  0  0  0  0  0  0  0  0  0  0
   -2.4379    0.3412   -0.5080 H   0  0  0  0  0  0  0  0  0  0  0  0
   -3.1808    0.3725   -2.0758 H   0  0  0  0  0  0  0  0  0  0  0  0
   -5.4276    1.0356   -1.1668 O   0  0  0  0  0  0  0  0  0  0  0  0
   -1.0688   -2.1726    0.0559 C   0  0  0  0  0  0  0  0  0  0  0  0
   -0.1905   -2.4422    0.4822 H   0  0  0  0  0  0  0  0  0  0  0  0
   -1.1069   -2.6324   -0.9316 H   0  0  0  0  0  0  0  0  0  0  0  0
   -1.8444   -2.5422    0.7268 H   0  0  0  0  0  0  0  0  0  0  0  0
   -1.1208   -0.7191   -0.0000 N   0  0  0  0  0  0  0  0  0  0  0  0
   -1.9947   -0.1725   -0.0415 H   0  0  0  0  0  0  0  0  0  0  0  0
    0.0000    0.0000    0.0000 C   0  0  0  0  0  0  0  0  0  0  0  0
    1.1208   -0.5086    0.0000 O   0  0  0  0  0  0  0  0  0  0  0  0
   -0.1692    1.5054   -0.0267 C   0  0  0  0  0  0  0  0  0  0  0  0
    0.0946    1.8891    0.8785 H   0  0  0  0  0  0  0  0  0  0  0  0
   -1.1528    1.7306   -0.1606 H   0  0  0  0  0  0  0  0  0  0  0  0
    0.4168    1.9938   -0.8053 H   0  0  0  0  0  0  0  0  0  0  0  0
  1  5  1  0
  5  6  1  0
  5  9  2  0
  1  2  1  0
  1  3  1  0
  1  4  1  0
  6  7  1  0
  6  8  1  0
 10 14  1  0
 14 16  1  0
 16 17  2  0
 16 18  1  0
 10 11  1  0
 10 12  1  0
 10 13  1  0
 14 15  1  0
 18 19  1  0
 18 20  1  0
 18 21  1  0
M  END
>  <PDB_ID>  (156) 
pdb2iq7

>  <RESIDUE_NAME>  (156) 
ASN   GLY

>  <FRAG_NAME>  (156) 
ACEM   NMA

>  <FRAG_ATOM_NUM>  (156) 
fragi: 9  fragj: 12

>  <atom.prop.CHAIN_ID>  (156) 
A A A A A A A A A Z Z Z Z Z Z Z Z Z Z Z Z

>  <atom.prop.IS_HEAVY_ATOM>  (156) 
1 0 0 0 1 1 0 0 1 1 0 0 0 1 0 1 1 1 0 0 0

>  <DIFUSE_FUNC_ATOM>  (156) 
n/a

>  <FINAL_SINGLE_POINT_ENERGY>  (156) 
0

>  <NONCOV_INTER_ENERGY_QM>  (156) 
0

>  <FF_Energy>  (156) 
21.29

>  <QM_Energy>  (156) 
49.94

>  <source>  (156) 
ACEM_nNMA_09

>  <Index>  (156) 
13959

$$$$
ACEM-pdb1i45-B-GLN-146:NMA-pdb1i45-B-ILE-127
     RDKit          3D

 21 19  0  0  0  0  0  0  0  0999 V2000
   -5.0954    1.9209   -1.4361 C   0  0  0  0  0  0  0  0  0  0  0  0
   -5.9667    1.6940   -0.9928 H   0  0  0  0  0  0  0  0  0  0  0  0
   -5.2148    1.8759   -2.4307 H   0  0  0  0  0  0  0  0  0  0  0  0
   -4.8269    2.9423   -1.1665 H   0  0  0  0  0  0  0  0  0  0  0  0
   -4.0606    0.8803   -1.0256 C   0  0  0  0  0  0  0  0  0  0  0  0
   -2.8416    1.3237   -0.7755 N   0  0  0  0  0  0  0  0  0  0  0  0
   -2.1017    0.6899   -0.4828 H   0  0  0  0  0  0  0  0  0  0  0  0
   -2.6462    2.3207   -0.8808 H   0  0  0  0  0  0  0  0  0  0  0  0
   -4.3619   -0.3127   -0.9513 O   0  0  0  0  0  0  0  0  0  0  0  0
   -1.0516   -2.1693   -0.0108 C   0  0  0  0  0  0  0  0  0  0  0  0
   -0.8383   -2.4856   -0.9587 H   0  0  0  0  0  0  0  0  0  0  0  0
   -0.2656   -2.4703    0.5693 H   0  0  0  0  0  0  0  0  0  0  0  0
   -1.9597   -2.6634    0.3349 H   0  0  0  0  0  0  0  0  0  0  0  0
   -1.1204   -0.7155    0.0000 N   0  0  0  0  0  0  0  0  0  0  0  0
   -1.9932   -0.1761    0.0076 H   0  0  0  0  0  0  0  0  0  0  0  0
    0.0000    0.0000    0.0000 C   0  0  0  0  0  0  0  0  0  0  0  0
    1.1204   -0.5200    0.0000 O   0  0  0  0  0  0  0  0  0  0  0  0
   -0.1445    1.5221    0.0096 C   0  0  0  0  0  0  0  0  0  0  0  0
   -0.7912    1.7396    0.7316 H   0  0  0  0  0  0  0  0  0  0  0  0
    0.8132    1.9441    0.3142 H   0  0  0  0  0  0  0  0  0  0  0  0
   -0.4360    1.8556   -0.9864 H   0  0  0  0  0  0  0  0  0  0  0  0
  1  5  1  0
  5  6  1  0
  5  9  2  0
  1  2  1  0
  1  3  1  0
  1  4  1  0
  6  7  1  0
  6  8  1  0
 10 14  1  0
 14 16  1  0
 16 17  2  0
 16 18  1  0
 10 11  1  0
 10 12  1  0
 10 13  1  0
 14 15  1  0
 18 19  1  0
 18 20  1  0
 18 21  1  0
M  END
>  <PDB_ID>  (157) 
pdb1i45

>  <RESIDUE_NAME>  (157) 
GLN   ILE

>  <FRAG_NAME>  (157) 
ACEM   NMA

>  <FRAG_ATOM_NUM>  (157) 
fragi: 9  fragj: 12

>  <atom.prop.CHAIN_ID>  (157) 
A A A A A A A A A Z Z Z Z Z Z Z Z Z Z Z Z

>  <atom.prop.IS_HEAVY_ATOM>  (157) 
1 0 0 0 1 1 0 0 1 1 0 0 0 1 0 1 1 1 0 0 0

>  <DIFUSE_FUNC_ATOM>  (157) 
n/a

>  <FINAL_SINGLE_POINT_ENERGY>  (157) 
0

>  <NONCOV_INTER_ENERGY_QM>  (157) 
0

>  <FF_Energy>  (157) 
18.22

>  <QM_Energy>  (157) 
28.88

>  <source>  (157) 
ACEM_nNMA_09

>  <Index>  (157) 
17081

$$$$
ACEM-pdb2iuf-A-GLN-455:NMA-pdb2iuf-A-ALA-194
     RDKit          3D

 21 19  0  0  0  0  0  0  0  0999 V2000
   -4.3470    1.4272    1.5299 C   0  0  0  0  0  0  0  0  0  0  0  0
   -3.8226    2.1594    1.0852 H   0  0  0  0  0  0  0  0  0  0  0  0
   -3.7289    0.9018    2.1217 H   0  0  0  0  0  0  0  0  0  0  0  0
   -5.1276    1.8755    2.1446 H   0  0  0  0  0  0  0  0  0  0  0  0
   -4.8702    0.4891    0.4358 C   0  0  0  0  0  0  0  0  0  0  0  0
   -3.9904   -0.3336   -0.1281 N   0  0  0  0  0  0  0  0  0  0  0  0
   -4.2719   -0.9850   -0.8429 H   0  0  0  0  0  0  0  0  0  0  0  0
   -3.0178   -0.2903    0.1799 H   0  0  0  0  0  0  0  0  0  0  0  0
   -6.0759    0.4662    0.1432 O   0  0  0  0  0  0  0  0  0  0  0  0
   -1.0138   -2.1781    0.1330 C   0  0  0  0  0  0  0  0  0  0  0  0
   -0.4638   -2.3954    0.9667 H   0  0  0  0  0  0  0  0  0  0  0  0
   -1.9464   -2.5589    0.3048 H   0  0  0  0  0  0  0  0  0  0  0  0
   -0.5743   -2.6807   -0.7286 H   0  0  0  0  0  0  0  0  0  0  0  0
   -1.1144   -0.7235   -0.0000 N   0  0  0  0  0  0  0  0  0  0  0  0
   -1.9881   -0.2103   -0.0942 H   0  0  0  0  0  0  0  0  0  0  0  0
    0.0000    0.0000    0.0000 C   0  0  0  0  0  0  0  0  0  0  0  0
    1.1144   -0.5555   -0.0000 O   0  0  0  0  0  0  0  0  0  0  0  0
   -0.1278    1.5385   -0.0222 C   0  0  0  0  0  0  0  0  0  0  0  0
   -0.3868    1.8429    0.8853 H   0  0  0  0  0  0  0  0  0  0  0  0
    0.8513    1.9465   -0.2735 H   0  0  0  0  0  0  0  0  0  0  0  0
   -0.8651    1.8687   -0.7541 H   0  0  0  0  0  0  0  0  0  0  0  0
  1  5  1  0
  5  6  1  0
  5  9  2  0
  1  2  1  0
  1  3  1  0
  1  4  1  0
  6  7  1  0
  6  8  1  0
 10 14  1  0
 14 16  1  0
 16 17  2  0
 16 18  1  0
 10 11  1  0
 10 12  1  0
 10 13  1  0
 14 15  1  0
 18 19  1  0
 18 20  1  0
 18 21  1  0
M  END
>  <PDB_ID>  (158) 
pdb2iuf

>  <RESIDUE_NAME>  (158) 
GLN   ALA

>  <FRAG_NAME>  (158) 
ACEM   NMA

>  <FRAG_ATOM_NUM>  (158) 
fragi: 9  fragj: 12

>  <atom.prop.CHAIN_ID>  (158) 
A A A A A A A A A Z Z Z Z Z Z Z Z Z Z Z Z

>  <atom.prop.IS_HEAVY_ATOM>  (158) 
1 0 0 0 1 1 0 0 1 1 0 0 0 1 0 1 1 1 0 0 0

>  <DIFUSE_FUNC_ATOM>  (158) 
n/a

>  <FINAL_SINGLE_POINT_ENERGY>  (158) 
0

>  <NONCOV_INTER_ENERGY_QM>  (158) 
0

>  <FF_Energy>  (158) 
7.7

>  <QM_Energy>  (158) 
19.78

>  <source>  (158) 
ACEM_nNMA_09

>  <Index>  (158) 
17205

$$$$
ACEM-pdb2ipi-B-GLN-357:NMA-pdb2ipi-B-TRP-353
     RDKit          3D

 21 19  0  0  0  0  0  0  0  0999 V2000
   -4.8624    0.5964   -0.5361 C   0  0  0  0  0  0  0  0  0  0  0  0
   -5.5734    1.2789   -0.7623 H   0  0  0  0  0  0  0  0  0  0  0  0
   -5.2969   -0.3166   -0.5449 H   0  0  0  0  0  0  0  0  0  0  0  0
   -4.1021    0.6218   -1.3167 H   0  0  0  0  0  0  0  0  0  0  0  0
   -4.3608    0.8749    0.8659 C   0  0  0  0  0  0  0  0  0  0  0  0
   -3.3113    0.1881    1.2827 N   0  0  0  0  0  0  0  0  0  0  0  0
   -2.9145    0.3329    2.2039 H   0  0  0  0  0  0  0  0  0  0  0  0
   -2.8961   -0.5053    0.6534 H   0  0  0  0  0  0  0  0  0  0  0  0
   -4.9095    1.6951    1.6131 O   0  0  0  0  0  0  0  0  0  0  0  0
   -1.0594   -2.1754   -0.1067 C   0  0  0  0  0  0  0  0  0  0  0  0
   -0.2726   -2.5028    0.4131 H   0  0  0  0  0  0  0  0  0  0  0  0
   -0.9166   -2.4499   -1.1518 H   0  0  0  0  0  0  0  0  0  0  0  0
   -1.9473   -2.6534    0.3070 H   0  0  0  0  0  0  0  0  0  0  0  0
   -1.1192   -0.7198    0.0000 N   0  0  0  0  0  0  0  0  0  0  0  0
   -1.9922   -0.1825    0.0783 H   0  0  0  0  0  0  0  0  0  0  0  0
    0.0000    0.0000    0.0000 C   0  0  0  0  0  0  0  0  0  0  0  0
    1.1192   -0.5315   -0.0000 O   0  0  0  0  0  0  0  0  0  0  0  0
   -0.1029    1.5194    0.0132 C   0  0  0  0  0  0  0  0  0  0  0  0
   -0.8077    1.7710    0.6872 H   0  0  0  0  0  0  0  0  0  0  0  0
    0.8357    1.9744    0.3298 H   0  0  0  0  0  0  0  0  0  0  0  0
   -0.3749    1.8767   -0.9800 H   0  0  0  0  0  0  0  0  0  0  0  0
  1  5  1  0
  5  6  1  0
  5  9  2  0
  1  2  1  0
  1  3  1  0
  1  4  1  0
  6  7  1  0
  6  8  1  0
 10 14  1  0
 14 16  1  0
 16 17  2  0
 16 18  1  0
 10 11  1  0
 10 12  1  0
 10 13  1  0
 14 15  1  0
 18 19  1  0
 18 20  1  0
 18 21  1  0
M  END
>  <PDB_ID>  (159) 
pdb2ipi

>  <RESIDUE_NAME>  (159) 
GLN   TRP

>  <FRAG_NAME>  (159) 
ACEM   NMA

>  <FRAG_ATOM_NUM>  (159) 
fragi: 9  fragj: 12

>  <atom.prop.CHAIN_ID>  (159) 
A A A A A A A A A Z Z Z Z Z Z Z Z Z Z Z Z

>  <atom.prop.IS_HEAVY_ATOM>  (159) 
1 0 0 0 1 1 0 0 1 1 0 0 0 1 0 1 1 1 0 0 0

>  <DIFUSE_FUNC_ATOM>  (159) 
n/a

>  <FINAL_SINGLE_POINT_ENERGY>  (159) 
0

>  <NONCOV_INTER_ENERGY_QM>  (159) 
0

>  <FF_Energy>  (159) 
8.02

>  <QM_Energy>  (159) 
21.08

>  <source>  (159) 
ACEM_nNMA_09

>  <Index>  (159) 
17505

$$$$
ACEM-pdb2iuf-A-GLN-455:NMA-pdb2iuf-A-GLY-519
     RDKit          3D

 21 19  0  0  0  0  0  0  0  0999 V2000
   -4.9090    1.6743   -2.0104 C   0  0  0  0  0  0  0  0  0  0  0  0
   -5.0719    2.4131   -1.3497 H   0  0  0  0  0  0  0  0  0  0  0  0
   -5.6991    1.0546   -2.0021 H   0  0  0  0  0  0  0  0  0  0  0  0
   -4.8101    2.1066   -3.0060 H   0  0  0  0  0  0  0  0  0  0  0  0
   -3.6802    0.8851   -1.5433 C   0  0  0  0  0  0  0  0  0  0  0  0
   -3.8428    0.0697   -0.5053 N   0  0  0  0  0  0  0  0  0  0  0  0
   -3.0794   -0.4879   -0.1578 H   0  0  0  0  0  0  0  0  0  0  0  0
   -4.7628    0.0210   -0.0650 H   0  0  0  0  0  0  0  0  0  0  0  0
   -2.6037    0.9670   -2.1552 O   0  0  0  0  0  0  0  0  0  0  0  0
   -1.1832   -2.1428   -0.0964 C   0  0  0  0  0  0  0  0  0  0  0  0
   -0.4020   -2.5183    0.4079 H   0  0  0  0  0  0  0  0  0  0  0  0
   -1.1134   -2.4561   -1.1381 H   0  0  0  0  0  0  0  0  0  0  0  0
   -2.1120   -2.5151    0.3358 H   0  0  0  0  0  0  0  0  0  0  0  0
   -1.1377   -0.6712    0.0000 N   0  0  0  0  0  0  0  0  0  0  0  0
   -1.9959   -0.0877    0.0722 H   0  0  0  0  0  0  0  0  0  0  0  0
    0.0000    0.0000    0.0000 C   0  0  0  0  0  0  0  0  0  0  0  0
    1.1377   -0.5728    0.0000 O   0  0  0  0  0  0  0  0  0  0  0  0
   -0.1244    1.5117    0.0520 C   0  0  0  0  0  0  0  0  0  0  0  0
   -0.6985    1.7743    0.8392 H   0  0  0  0  0  0  0  0  0  0  0  0
   -0.5809    1.8393   -0.7871 H   0  0  0  0  0  0  0  0  0  0  0  0
    0.8513    1.9892    0.1423 H   0  0  0  0  0  0  0  0  0  0  0  0
  1  5  1  0
  5  6  1  0
  5  9  2  0
  1  2  1  0
  1  3  1  0
  1  4  1  0
  6  7  1  0
  6  8  1  0
 10 14  1  0
 14 16  1  0
 16 17  2  0
 16 18  1  0
 10 11  1  0
 10 12  1  0
 10 13  1  0
 14 15  1  0
 18 19  1  0
 18 20  1  0
 18 21  1  0
M  END
>  <PDB_ID>  (160) 
pdb2iuf

>  <RESIDUE_NAME>  (160) 
GLN   GLY

>  <FRAG_NAME>  (160) 
ACEM   NMA

>  <FRAG_ATOM_NUM>  (160) 
fragi: 9  fragj: 12

>  <atom.prop.CHAIN_ID>  (160) 
A A A A A A A A A Z Z Z Z Z Z Z Z Z Z Z Z

>  <atom.prop.IS_HEAVY_ATOM>  (160) 
1 0 0 0 1 1 0 0 1 1 0 0 0 1 0 1 1 1 0 0 0

>  <DIFUSE_FUNC_ATOM>  (160) 
n/a

>  <FINAL_SINGLE_POINT_ENERGY>  (160) 
0

>  <NONCOV_INTER_ENERGY_QM>  (160) 
0

>  <FF_Energy>  (160) 
2.59

>  <QM_Energy>  (160) 
15.27

>  <source>  (160) 
ACEM_nNMA_09

>  <Index>  (160) 
20171

$$$$
ACEM-pdb2isj-C-GLN-64:NMA-pdb2isj-D-ARG-212
     RDKit          3D

 21 19  0  0  0  0  0  0  0  0999 V2000
   -5.9997    0.1780    0.5043 C   0  0  0  0  0  0  0  0  0  0  0  0
   -6.4051   -0.5253   -0.0748 H   0  0  0  0  0  0  0  0  0  0  0  0
   -6.4859    1.0410    0.3803 H   0  0  0  0  0  0  0  0  0  0  0  0
   -6.0956   -0.1292    1.5457 H   0  0  0  0  0  0  0  0  0  0  0  0
   -4.5401    0.3798    0.0683 C   0  0  0  0  0  0  0  0  0  0  0  0
   -3.8727   -0.7117   -0.2856 N   0  0  0  0  0  0  0  0  0  0  0  0
   -2.9118   -0.6510   -0.5963 H   0  0  0  0  0  0  0  0  0  0  0  0
   -4.3449   -1.6125   -0.2383 H   0  0  0  0  0  0  0  0  0  0  0  0
   -4.0222    1.5006    0.0663 O   0  0  0  0  0  0  0  0  0  0  0  0
   -1.0832   -2.1655   -0.0098 C   0  0  0  0  0  0  0  0  0  0  0  0
   -0.2929   -2.4693    0.5405 H   0  0  0  0  0  0  0  0  0  0  0  0
   -0.9714   -2.5554   -1.0215 H   0  0  0  0  0  0  0  0  0  0  0  0
   -1.9967   -2.5895    0.4072 H   0  0  0  0  0  0  0  0  0  0  0  0
   -1.1210   -0.7105   -0.0000 N   0  0  0  0  0  0  0  0  0  0  0  0
   -1.9942   -0.1569    0.0069 H   0  0  0  0  0  0  0  0  0  0  0  0
    0.0000    0.0000    0.0000 C   0  0  0  0  0  0  0  0  0  0  0  0
    1.1210   -0.5185    0.0000 O   0  0  0  0  0  0  0  0  0  0  0  0
   -0.1496    1.5209   -0.0085 C   0  0  0  0  0  0  0  0  0  0  0  0
   -1.0757    1.7527    0.2725 H   0  0  0  0  0  0  0  0  0  0  0  0
    0.5547    1.9341    0.7136 H   0  0  0  0  0  0  0  0  0  0  0  0
    0.0819    1.8869   -1.0088 H   0  0  0  0  0  0  0  0  0  0  0  0
  1  5  1  0
  5  6  1  0
  5  9  2  0
  1  2  1  0
  1  3  1  0
  1  4  1  0
  6  7  1  0
  6  8  1  0
 10 14  1  0
 14 16  1  0
 16 17  2  0
 16 18  1  0
 10 11  1  0
 10 12  1  0
 10 13  1  0
 14 15  1  0
 18 19  1  0
 18 20  1  0
 18 21  1  0
M  END
>  <PDB_ID>  (161) 
pdb2isj

>  <RESIDUE_NAME>  (161) 
GLN   ARG

>  <FRAG_NAME>  (161) 
ACEM   NMA

>  <FRAG_ATOM_NUM>  (161) 
fragi: 9  fragj: 12

>  <atom.prop.CHAIN_ID>  (161) 
A A A A A A A A A Z Z Z Z Z Z Z Z Z Z Z Z

>  <atom.prop.IS_HEAVY_ATOM>  (161) 
1 0 0 0 1 1 0 0 1 1 0 0 0 1 0 1 1 1 0 0 0

>  <DIFUSE_FUNC_ATOM>  (161) 
n/a

>  <FINAL_SINGLE_POINT_ENERGY>  (161) 
0

>  <NONCOV_INTER_ENERGY_QM>  (161) 
0

>  <FF_Energy>  (161) 
1.92

>  <QM_Energy>  (161) 
12.9

>  <source>  (161) 
ACEM_nNMA_09

>  <Index>  (161) 
23008

$$$$
ACEM-pdb1icp-A-GLN-89:NMA-pdb1icp-A-TRP-85
     RDKit          3D

 21 19  0  0  0  0  0  0  0  0999 V2000
   -5.5039   -0.6985    0.6628 C   0  0  0  0  0  0  0  0  0  0  0  0
   -6.4477   -0.5667    0.9700 H   0  0  0  0  0  0  0  0  0  0  0  0
   -5.2220   -1.6405    0.8559 H   0  0  0  0  0  0  0  0  0  0  0  0
   -5.4638   -0.5385   -0.4146 H   0  0  0  0  0  0  0  0  0  0  0  0
   -4.6083    0.2443    1.4336 C   0  0  0  0  0  0  0  0  0  0  0  0
   -3.3823    0.4310    0.9465 N   0  0  0  0  0  0  0  0  0  0  0  0
   -2.7292    1.0618    1.4035 H   0  0  0  0  0  0  0  0  0  0  0  0
   -3.1091   -0.0722    0.1041 H   0  0  0  0  0  0  0  0  0  0  0  0
   -5.0185    0.8155    2.4493 O   0  0  0  0  0  0  0  0  0  0  0  0
   -1.0633   -2.1980   -0.0058 C   0  0  0  0  0  0  0  0  0  0  0  0
   -0.0968   -2.4761    0.0640 H   0  0  0  0  0  0  0  0  0  0  0  0
   -1.4761   -2.6143   -0.9246 H   0  0  0  0  0  0  0  0  0  0  0  0
   -1.6337   -2.6467    0.8074 H   0  0  0  0  0  0  0  0  0  0  0  0
   -1.1189   -0.7262   -0.0000 N   0  0  0  0  0  0  0  0  0  0  0  0
   -1.9965   -0.1881    0.0044 H   0  0  0  0  0  0  0  0  0  0  0  0
    0.0000    0.0000    0.0000 C   0  0  0  0  0  0  0  0  0  0  0  0
    1.1189   -0.5137   -0.0000 O   0  0  0  0  0  0  0  0  0  0  0  0
   -0.1455    1.5326   -0.0172 C   0  0  0  0  0  0  0  0  0  0  0  0
    0.4259    1.8765   -0.7780 H   0  0  0  0  0  0  0  0  0  0  0  0
   -1.1710    1.8566   -0.1952 H   0  0  0  0  0  0  0  0  0  0  0  0
    0.2347    1.9680    0.9070 H   0  0  0  0  0  0  0  0  0  0  0  0
  1  5  1  0
  5  6  1  0
  5  9  2  0
  1  2  1  0
  1  3  1  0
  1  4  1  0
  6  7  1  0
  6  8  1  0
 10 14  1  0
 14 16  1  0
 16 17  2  0
 16 18  1  0
 10 11  1  0
 10 12  1  0
 10 13  1  0
 14 15  1  0
 18 19  1  0
 18 20  1  0
 18 21  1  0
M  END
>  <PDB_ID>  (162) 
pdb1icp

>  <RESIDUE_NAME>  (162) 
GLN   TRP

>  <FRAG_NAME>  (162) 
ACEM   NMA

>  <FRAG_ATOM_NUM>  (162) 
fragi: 9  fragj: 12

>  <atom.prop.CHAIN_ID>  (162) 
A A A A A A A A A Z Z Z Z Z Z Z Z Z Z Z Z

>  <atom.prop.IS_HEAVY_ATOM>  (162) 
1 0 0 0 1 1 0 0 1 1 0 0 0 1 0 1 1 1 0 0 0

>  <DIFUSE_FUNC_ATOM>  (162) 
n/a

>  <FINAL_SINGLE_POINT_ENERGY>  (162) 
0

>  <NONCOV_INTER_ENERGY_QM>  (162) 
0

>  <FF_Energy>  (162) 
11.4

>  <QM_Energy>  (162) 
22.52

>  <source>  (162) 
ACEM_nNMA_09

>  <Index>  (162) 
23253

$$$$
ACEM-pdb1ibj-C-GLN-336:NMA-pdb1ibj-C-ALA-376
     RDKit          3D

 21 19  0  0  0  0  0  0  0  0999 V2000
   -4.5535   -0.6375    1.3660 C   0  0  0  0  0  0  0  0  0  0  0  0
   -4.9645    0.0122    1.9963 H   0  0  0  0  0  0  0  0  0  0  0  0
   -3.6017   -0.7990    1.6037 H   0  0  0  0  0  0  0  0  0  0  0  0
   -5.1019   -1.5787    1.4073 H   0  0  0  0  0  0  0  0  0  0  0  0
   -4.6168   -0.0721   -0.0175 C   0  0  0  0  0  0  0  0  0  0  0  0
   -3.4996   -0.1425   -0.7246 N   0  0  0  0  0  0  0  0  0  0  0  0
   -3.4616    0.2106   -1.6888 H   0  0  0  0  0  0  0  0  0  0  0  0
   -2.6688   -0.5521   -0.3019 H   0  0  0  0  0  0  0  0  0  0  0  0
   -5.6454    0.4570   -0.4470 O   0  0  0  0  0  0  0  0  0  0  0  0
   -0.8711   -2.1647    0.0286 C   0  0  0  0  0  0  0  0  0  0  0  0
   -1.4311   -2.6078   -0.6727 H   0  0  0  0  0  0  0  0  0  0  0  0
    0.0940   -2.3714   -0.1409 H   0  0  0  0  0  0  0  0  0  0  0  0
   -1.1570   -2.5344    1.0133 H   0  0  0  0  0  0  0  0  0  0  0  0
   -1.0817   -0.7439    0.0000 N   0  0  0  0  0  0  0  0  0  0  0  0
   -1.9719   -0.2744   -0.0195 H   0  0  0  0  0  0  0  0  0  0  0  0
    0.0000    0.0000    0.0000 C   0  0  0  0  0  0  0  0  0  0  0  0
    1.0817   -0.5207    0.0000 O   0  0  0  0  0  0  0  0  0  0  0  0
   -0.1444    1.5255   -0.0165 C   0  0  0  0  0  0  0  0  0  0  0  0
    0.6434    1.9142   -0.5153 H   0  0  0  0  0  0  0  0  0  0  0  0
   -1.0634    1.8408   -0.5105 H   0  0  0  0  0  0  0  0  0  0  0  0
   -0.1201    1.9200    0.9994 H   0  0  0  0  0  0  0  0  0  0  0  0
  1  5  1  0
  5  6  1  0
  5  9  2  0
  1  2  1  0
  1  3  1  0
  1  4  1  0
  6  7  1  0
  6  8  1  0
 10 14  1  0
 14 16  1  0
 16 17  2  0
 16 18  1  0
 10 11  1  0
 10 12  1  0
 10 13  1  0
 14 15  1  0
 18 19  1  0
 18 20  1  0
 18 21  1  0
M  END
>  <PDB_ID>  (163) 
pdb1ibj

>  <RESIDUE_NAME>  (163) 
GLN   ALA

>  <FRAG_NAME>  (163) 
ACEM   NMA

>  <FRAG_ATOM_NUM>  (163) 
fragi: 9  fragj: 12

>  <atom.prop.CHAIN_ID>  (163) 
A A A A A A A A A Z Z Z Z Z Z Z Z Z Z Z Z

>  <atom.prop.IS_HEAVY_ATOM>  (163) 
1 0 0 0 1 1 0 0 1 1 0 0 0 1 0 1 1 1 0 0 0

>  <DIFUSE_FUNC_ATOM>  (163) 
n/a

>  <FINAL_SINGLE_POINT_ENERGY>  (163) 
0

>  <NONCOV_INTER_ENERGY_QM>  (163) 
0

>  <FF_Energy>  (163) 
20.57

>  <QM_Energy>  (163) 
54.9

>  <source>  (163) 
ACEM_nNMA_09

>  <Index>  (163) 
26578

$$$$
ACEM-pdb2j0y-D-ASN-214:NMA-pdb2j0y-D-VAL-197
     RDKit          3D

 21 19  0  0  0  0  0  0  0  0999 V2000
   -6.1755   -0.5578    1.1154 C   0  0  0  0  0  0  0  0  0  0  0  0
   -6.5699   -1.4127    1.4389 H   0  0  0  0  0  0  0  0  0  0  0  0
   -6.8501   -0.0460    0.5895 H   0  0  0  0  0  0  0  0  0  0  0  0
   -5.8895    0.0392    1.9814 H   0  0  0  0  0  0  0  0  0  0  0  0
   -4.9971   -0.8855    0.2010 C   0  0  0  0  0  0  0  0  0  0  0  0
   -3.7913   -0.5136    0.6310 N   0  0  0  0  0  0  0  0  0  0  0  0
   -3.7018   -0.0518    1.5150 H   0  0  0  0  0  0  0  0  0  0  0  0
   -2.9839   -0.6958    0.0751 H   0  0  0  0  0  0  0  0  0  0  0  0
   -5.1782   -1.4602   -0.8847 O   0  0  0  0  0  0  0  0  0  0  0  0
   -1.1275   -2.1694    0.1313 C   0  0  0  0  0  0  0  0  0  0  0  0
   -0.1814   -2.4723    0.3131 H   0  0  0  0  0  0  0  0  0  0  0  0
   -1.4789   -2.6588   -0.7770 H   0  0  0  0  0  0  0  0  0  0  0  0
   -1.7518   -2.4748    0.9711 H   0  0  0  0  0  0  0  0  0  0  0  0
   -1.1270   -0.7117   -0.0000 N   0  0  0  0  0  0  0  0  0  0  0  0
   -1.9958   -0.1488   -0.1003 H   0  0  0  0  0  0  0  0  0  0  0  0
    0.0000    0.0000    0.0000 C   0  0  0  0  0  0  0  0  0  0  0  0
    1.1270   -0.5120   -0.0000 O   0  0  0  0  0  0  0  0  0  0  0  0
   -0.1673    1.5175    0.0209 C   0  0  0  0  0  0  0  0  0  0  0  0
   -1.0953    1.7276   -0.2643 H   0  0  0  0  0  0  0  0  0  0  0  0
   -0.0402    1.8437    1.0531 H   0  0  0  0  0  0  0  0  0  0  0  0
    0.5550    1.9894   -0.6453 H   0  0  0  0  0  0  0  0  0  0  0  0
  1  5  1  0
  5  6  1  0
  5  9  2  0
  1  2  1  0
  1  3  1  0
  1  4  1  0
  6  7  1  0
  6  8  1  0
 10 14  1  0
 14 16  1  0
 16 17  2  0
 16 18  1  0
 10 11  1  0
 10 12  1  0
 10 13  1  0
 14 15  1  0
 18 19  1  0
 18 20  1  0
 18 21  1  0
M  END
>  <PDB_ID>  (164) 
pdb2j0y

>  <RESIDUE_NAME>  (164) 
ASN   VAL

>  <FRAG_NAME>  (164) 
ACEM   NMA

>  <FRAG_ATOM_NUM>  (164) 
fragi: 9  fragj: 12

>  <atom.prop.CHAIN_ID>  (164) 
A A A A A A A A A Z Z Z Z Z Z Z Z Z Z Z Z

>  <atom.prop.IS_HEAVY_ATOM>  (164) 
1 0 0 0 1 1 0 0 1 1 0 0 0 1 0 1 1 1 0 0 0

>  <DIFUSE_FUNC_ATOM>  (164) 
n/a

>  <FINAL_SINGLE_POINT_ENERGY>  (164) 
0

>  <NONCOV_INTER_ENERGY_QM>  (164) 
0

>  <FF_Energy>  (164) 
8.59

>  <QM_Energy>  (164) 
19.08

>  <source>  (164) 
ACEM_nNMA_09

>  <Index>  (164) 
27952

$$$$
ACEM-pdb1ith-A-GLN-6:NMA-pdb1ith-A-LEU-2
     RDKit          3D

 21 19  0  0  0  0  0  0  0  0999 V2000
   -4.9553    0.5722   -0.4483 C   0  0  0  0  0  0  0  0  0  0  0  0
   -5.8779    0.9300   -0.5470 H   0  0  0  0  0  0  0  0  0  0  0  0
   -4.9754   -0.3280   -0.0269 H   0  0  0  0  0  0  0  0  0  0  0  0
   -4.4939    0.4962   -1.4329 H   0  0  0  0  0  0  0  0  0  0  0  0
   -4.1680    1.5046    0.4389 C   0  0  0  0  0  0  0  0  0  0  0  0
   -2.9570    1.1937    0.8761 N   0  0  0  0  0  0  0  0  0  0  0  0
   -2.4090    1.7787    1.4425 H   0  0  0  0  0  0  0  0  0  0  0  0
   -2.5798    0.2630    0.5911 H   0  0  0  0  0  0  0  0  0  0  0  0
   -4.6791    2.5702    0.7514 O   0  0  0  0  0  0  0  0  0  0  0  0
   -1.0755   -2.1696   -0.0075 C   0  0  0  0  0  0  0  0  0  0  0  0
   -0.1497   -2.4756    0.2109 H   0  0  0  0  0  0  0  0  0  0  0  0
   -1.3208   -2.5168   -1.0112 H   0  0  0  0  0  0  0  0  0  0  0  0
   -1.7765   -2.5209    0.7497 H   0  0  0  0  0  0  0  0  0  0  0  0
   -1.1100   -0.7241    0.0000 N   0  0  0  0  0  0  0  0  0  0  0  0
   -1.9914   -0.1676    0.0059 H   0  0  0  0  0  0  0  0  0  0  0  0
    0.0000    0.0000    0.0000 C   0  0  0  0  0  0  0  0  0  0  0  0
    1.1100   -0.5401   -0.0000 O   0  0  0  0  0  0  0  0  0  0  0  0
   -0.1382    1.5089   -0.0822 C   0  0  0  0  0  0  0  0  0  0  0  0
   -1.1813    1.7293   -0.1105 H   0  0  0  0  0  0  0  0  0  0  0  0
    0.3056    2.2133    0.6214 H   0  0  0  0  0  0  0  0  0  0  0  0
    0.1578    1.7460   -1.1042 H   0  0  0  0  0  0  0  0  0  0  0  0
  1  5  1  0
  5  6  1  0
  5  9  2  0
  1  2  1  0
  1  3  1  0
  1  4  1  0
  6  7  1  0
  6  8  1  0
 10 14  1  0
 14 16  1  0
 16 17  2  0
 16 18  1  0
 10 11  1  0
 10 12  1  0
 10 13  1  0
 14 15  1  0
 18 19  1  0
 18 20  1  0
 18 21  1  0
M  END
>  <PDB_ID>  (165) 
pdb1ith

>  <RESIDUE_NAME>  (165) 
GLN   LEU

>  <FRAG_NAME>  (165) 
ACEM   NMA

>  <FRAG_ATOM_NUM>  (165) 
fragi: 9  fragj: 12

>  <atom.prop.CHAIN_ID>  (165) 
A A A A A A A A A Z Z Z Z Z Z Z Z Z Z Z Z

>  <atom.prop.IS_HEAVY_ATOM>  (165) 
1 0 0 0 1 1 0 0 1 1 0 0 0 1 0 1 1 1 0 0 0

>  <DIFUSE_FUNC_ATOM>  (165) 
n/a

>  <FINAL_SINGLE_POINT_ENERGY>  (165) 
0

>  <NONCOV_INTER_ENERGY_QM>  (165) 
0

>  <FF_Energy>  (165) 
22.46

>  <QM_Energy>  (165) 
35.62

>  <source>  (165) 
ACEM_nNMA_10

>  <Index>  (165) 
7012

$$$$
ACEM-pdb1is2-A-ASN-166:NMA-pdb1is2-A-ASP-243
     RDKit          3D

 21 19  0  0  0  0  0  0  0  0999 V2000
   -5.1714   -1.3115    0.2026 C   0  0  0  0  0  0  0  0  0  0  0  0
   -4.5541   -2.0943    0.2248 H   0  0  0  0  0  0  0  0  0  0  0  0
   -6.1177   -1.6250    0.1769 H   0  0  0  0  0  0  0  0  0  0  0  0
   -5.0280   -0.7393    1.1191 H   0  0  0  0  0  0  0  0  0  0  0  0
   -4.8905   -0.5061   -1.0483 C   0  0  0  0  0  0  0  0  0  0  0  0
   -3.6579   -0.0109   -1.1664 N   0  0  0  0  0  0  0  0  0  0  0  0
   -2.9804   -0.1858   -0.4527 H   0  0  0  0  0  0  0  0  0  0  0  0
   -3.4130    0.5336   -1.9671 H   0  0  0  0  0  0  0  0  0  0  0  0
   -5.7692   -0.3211   -1.9002 O   0  0  0  0  0  0  0  0  0  0  0  0
   -1.0871   -2.1779    0.0525 C   0  0  0  0  0  0  0  0  0  0  0  0
   -1.9582   -2.4825    0.4241 H   0  0  0  0  0  0  0  0  0  0  0  0
   -0.3155   -2.4675    0.7659 H   0  0  0  0  0  0  0  0  0  0  0  0
   -0.8744   -2.5968   -0.9311 H   0  0  0  0  0  0  0  0  0  0  0  0
   -1.1216   -0.7200   -0.0000 N   0  0  0  0  0  0  0  0  0  0  0  0
   -1.9957   -0.1671   -0.0395 H   0  0  0  0  0  0  0  0  0  0  0  0
    0.0000    0.0000    0.0000 C   0  0  0  0  0  0  0  0  0  0  0  0
    1.1216   -0.5115    0.0000 O   0  0  0  0  0  0  0  0  0  0  0  0
   -0.1608    1.5270   -0.0162 C   0  0  0  0  0  0  0  0  0  0  0  0
   -1.0112    1.7237   -0.5128 H   0  0  0  0  0  0  0  0  0  0  0  0
   -0.2789    1.9103    0.9973 H   0  0  0  0  0  0  0  0  0  0  0  0
    0.7170    1.9801   -0.4771 H   0  0  0  0  0  0  0  0  0  0  0  0
  1  5  1  0
  5  6  1  0
  5  9  2  0
  1  2  1  0
  1  3  1  0
  1  4  1  0
  6  7  1  0
  6  8  1  0
 10 14  1  0
 14 16  1  0
 16 17  2  0
 16 18  1  0
 10 11  1  0
 10 12  1  0
 10 13  1  0
 14 15  1  0
 18 19  1  0
 18 20  1  0
 18 21  1  0
M  END
>  <PDB_ID>  (166) 
pdb1is2

>  <RESIDUE_NAME>  (166) 
ASN   ASP

>  <FRAG_NAME>  (166) 
ACEM   NMA

>  <FRAG_ATOM_NUM>  (166) 
fragi: 9  fragj: 12

>  <atom.prop.CHAIN_ID>  (166) 
A A A A A A A A A Z Z Z Z Z Z Z Z Z Z Z Z

>  <atom.prop.IS_HEAVY_ATOM>  (166) 
1 0 0 0 1 1 0 0 1 1 0 0 0 1 0 1 1 1 0 0 0

>  <DIFUSE_FUNC_ATOM>  (166) 
n/a

>  <FINAL_SINGLE_POINT_ENERGY>  (166) 
0

>  <NONCOV_INTER_ENERGY_QM>  (166) 
0

>  <FF_Energy>  (166) 
9.25

>  <QM_Energy>  (166) 
21.36

>  <source>  (166) 
ACEM_nNMA_10

>  <Index>  (166) 
8062

$$$$
ACEM-pdb2jks-A-GLN-139:NMA-pdb2jks-A-PHE-79
     RDKit          3D

 21 19  0  0  0  0  0  0  0  0999 V2000
   -5.9247    0.0346   -1.0526 C   0  0  0  0  0  0  0  0  0  0  0  0
   -6.6717   -0.4792   -0.6390 H   0  0  0  0  0  0  0  0  0  0  0  0
   -5.7387   -0.3107   -1.9688 H   0  0  0  0  0  0  0  0  0  0  0  0
   -6.2300    1.0777   -1.1353 H   0  0  0  0  0  0  0  0  0  0  0  0
   -4.6932   -0.1190   -0.2071 C   0  0  0  0  0  0  0  0  0  0  0  0
   -3.5663   -0.3132   -0.8624 N   0  0  0  0  0  0  0  0  0  0  0  0
   -2.6728   -0.4148   -0.3614 H   0  0  0  0  0  0  0  0  0  0  0  0
   -3.5810   -0.3644   -1.8797 H   0  0  0  0  0  0  0  0  0  0  0  0
   -4.7463   -0.0703    1.0243 O   0  0  0  0  0  0  0  0  0  0  0  0
   -1.0530   -2.1706    0.1434 C   0  0  0  0  0  0  0  0  0  0  0  0
   -1.9658   -2.5618   -0.0143 H   0  0  0  0  0  0  0  0  0  0  0  0
   -0.4223   -2.5476   -0.5435 H   0  0  0  0  0  0  0  0  0  0  0  0
   -0.7082   -2.4426    1.1411 H   0  0  0  0  0  0  0  0  0  0  0  0
   -1.1159   -0.7196   -0.0000 N   0  0  0  0  0  0  0  0  0  0  0  0
   -1.9895   -0.1875   -0.1048 H   0  0  0  0  0  0  0  0  0  0  0  0
    0.0000    0.0000    0.0000 C   0  0  0  0  0  0  0  0  0  0  0  0
    1.1159   -0.5230   -0.0000 O   0  0  0  0  0  0  0  0  0  0  0  0
   -0.1577    1.5343   -0.0255 C   0  0  0  0  0  0  0  0  0  0  0  0
   -1.1380    1.7180   -0.0118 H   0  0  0  0  0  0  0  0  0  0  0  0
    0.2612    1.9505    0.8907 H   0  0  0  0  0  0  0  0  0  0  0  0
    0.3638    1.9121   -0.9049 H   0  0  0  0  0  0  0  0  0  0  0  0
  1  5  1  0
  5  6  1  0
  5  9  2  0
  1  2  1  0
  1  3  1  0
  1  4  1  0
  6  7  1  0
  6  8  1  0
 10 14  1  0
 14 16  1  0
 16 17  2  0
 16 18  1  0
 10 11  1  0
 10 12  1  0
 10 13  1  0
 14 15  1  0
 18 19  1  0
 18 20  1  0
 18 21  1  0
M  END
>  <PDB_ID>  (167) 
pdb2jks

>  <RESIDUE_NAME>  (167) 
GLN   PHE

>  <FRAG_NAME>  (167) 
ACEM   NMA

>  <FRAG_ATOM_NUM>  (167) 
fragi: 9  fragj: 12

>  <atom.prop.CHAIN_ID>  (167) 
A A A A A A A A A Z Z Z Z Z Z Z Z Z Z Z Z

>  <atom.prop.IS_HEAVY_ATOM>  (167) 
1 0 0 0 1 1 0 0 1 1 0 0 0 1 0 1 1 1 0 0 0

>  <DIFUSE_FUNC_ATOM>  (167) 
n/a

>  <FINAL_SINGLE_POINT_ENERGY>  (167) 
0

>  <NONCOV_INTER_ENERGY_QM>  (167) 
0

>  <FF_Energy>  (167) 
21.73

>  <QM_Energy>  (167) 
58.53

>  <source>  (167) 
ACEM_nNMA_10

>  <Index>  (167) 
8493

$$$$
ACEM-pdb1itz-B-GLN-633:NMA-pdb1itz-B-LEU-630
     RDKit          3D

 21 19  0  0  0  0  0  0  0  0999 V2000
   -5.3586   -0.4852    2.8897 C   0  0  0  0  0  0  0  0  0  0  0  0
   -6.2164   -0.0668    2.5973 H   0  0  0  0  0  0  0  0  0  0  0  0
   -5.1636   -0.2314    3.8353 H   0  0  0  0  0  0  0  0  0  0  0  0
   -5.4647   -1.5686    2.8357 H   0  0  0  0  0  0  0  0  0  0  0  0
   -4.2297    0.0558    2.0001 C   0  0  0  0  0  0  0  0  0  0  0  0
   -3.6944   -0.7973    1.1302 N   0  0  0  0  0  0  0  0  0  0  0  0
   -2.9584   -0.5037    0.5058 H   0  0  0  0  0  0  0  0  0  0  0  0
   -4.0436   -1.7549    1.1080 H   0  0  0  0  0  0  0  0  0  0  0  0
   -3.8569    1.2276    2.0928 O   0  0  0  0  0  0  0  0  0  0  0  0
   -1.0341   -2.1541   -0.0073 C   0  0  0  0  0  0  0  0  0  0  0  0
   -1.7803   -2.5289   -0.6080 H   0  0  0  0  0  0  0  0  0  0  0  0
   -0.1569   -2.4426   -0.4621 H   0  0  0  0  0  0  0  0  0  0  0  0
   -1.0963   -2.6347    0.9690 H   0  0  0  0  0  0  0  0  0  0  0  0
   -1.1123   -0.7103    0.0000 N   0  0  0  0  0  0  0  0  0  0  0  0
   -1.9881   -0.1740    0.0054 H   0  0  0  0  0  0  0  0  0  0  0  0
    0.0000    0.0000    0.0000 C   0  0  0  0  0  0  0  0  0  0  0  0
    1.1123   -0.5253   -0.0000 O   0  0  0  0  0  0  0  0  0  0  0  0
   -0.1761    1.5142   -0.0022 C   0  0  0  0  0  0  0  0  0  0  0  0
   -1.1625    1.7187    0.1450 H   0  0  0  0  0  0  0  0  0  0  0  0
    0.3999    2.0223    0.7712 H   0  0  0  0  0  0  0  0  0  0  0  0
    0.0899    1.9131   -0.9811 H   0  0  0  0  0  0  0  0  0  0  0  0
  1  5  1  0
  5  6  1  0
  5  9  2  0
  1  2  1  0
  1  3  1  0
  1  4  1  0
  6  7  1  0
  6  8  1  0
 10 14  1  0
 14 16  1  0
 16 17  2  0
 16 18  1  0
 10 11  1  0
 10 12  1  0
 10 13  1  0
 14 15  1  0
 18 19  1  0
 18 20  1  0
 18 21  1  0
M  END
>  <PDB_ID>  (168) 
pdb1itz

>  <RESIDUE_NAME>  (168) 
GLN   LEU

>  <FRAG_NAME>  (168) 
ACEM   NMA

>  <FRAG_ATOM_NUM>  (168) 
fragi: 9  fragj: 12

>  <atom.prop.CHAIN_ID>  (168) 
A A A A A A A A A Z Z Z Z Z Z Z Z Z Z Z Z

>  <atom.prop.IS_HEAVY_ATOM>  (168) 
1 0 0 0 1 1 0 0 1 1 0 0 0 1 0 1 1 1 0 0 0

>  <DIFUSE_FUNC_ATOM>  (168) 
n/a

>  <FINAL_SINGLE_POINT_ENERGY>  (168) 
0

>  <NONCOV_INTER_ENERGY_QM>  (168) 
0

>  <FF_Energy>  (168) 
5.24

>  <QM_Energy>  (168) 
17.06

>  <source>  (168) 
ACEM_nNMA_10

>  <Index>  (168) 
15598

$$$$
ACEM-pdb1izj-A-GLN-422:NMA-pdb1izj-A-ASP-432
     RDKit          3D

 21 19  0  0  0  0  0  0  0  0999 V2000
   -5.0032    2.3556    1.2646 C   0  0  0  0  0  0  0  0  0  0  0  0
   -5.6546    2.8531    0.6968 H   0  0  0  0  0  0  0  0  0  0  0  0
   -4.4626    2.9969    1.8038 H   0  0  0  0  0  0  0  0  0  0  0  0
   -5.5516    1.6987    1.9398 H   0  0  0  0  0  0  0  0  0  0  0  0
   -4.0675    1.5792    0.3571 C   0  0  0  0  0  0  0  0  0  0  0  0
   -3.1105    0.8933    0.9566 N   0  0  0  0  0  0  0  0  0  0  0  0
   -2.4487    0.3333    0.4160 H   0  0  0  0  0  0  0  0  0  0  0  0
   -3.0369    0.9275    1.9728 H   0  0  0  0  0  0  0  0  0  0  0  0
   -4.1995    1.6033   -0.8723 O   0  0  0  0  0  0  0  0  0  0  0  0
   -1.0017   -2.1801    0.0349 C   0  0  0  0  0  0  0  0  0  0  0  0
   -0.3741   -2.4280    0.8074 H   0  0  0  0  0  0  0  0  0  0  0  0
   -0.6127   -2.6455   -0.8708 H   0  0  0  0  0  0  0  0  0  0  0  0
   -1.9453   -2.6449    0.3207 H   0  0  0  0  0  0  0  0  0  0  0  0
   -1.1154   -0.7239    0.0000 N   0  0  0  0  0  0  0  0  0  0  0  0
   -1.9902   -0.2092   -0.0249 H   0  0  0  0  0  0  0  0  0  0  0  0
    0.0000    0.0000    0.0000 C   0  0  0  0  0  0  0  0  0  0  0  0
    1.1154   -0.5279    0.0000 O   0  0  0  0  0  0  0  0  0  0  0  0
   -0.1061    1.5288    0.0054 C   0  0  0  0  0  0  0  0  0  0  0  0
   -0.5571    1.7800    0.8389 H   0  0  0  0  0  0  0  0  0  0  0  0
    0.9308    1.8569    0.0779 H   0  0  0  0  0  0  0  0  0  0  0  0
   -0.5776    1.9101   -0.9004 H   0  0  0  0  0  0  0  0  0  0  0  0
  1  5  1  0
  5  6  1  0
  5  9  2  0
  1  2  1  0
  1  3  1  0
  1  4  1  0
  6  7  1  0
  6  8  1  0
 10 14  1  0
 14 16  1  0
 16 17  2  0
 16 18  1  0
 10 11  1  0
 10 12  1  0
 10 13  1  0
 14 15  1  0
 18 19  1  0
 18 20  1  0
 18 21  1  0
M  END
>  <PDB_ID>  (169) 
pdb1izj

>  <RESIDUE_NAME>  (169) 
GLN   ASP

>  <FRAG_NAME>  (169) 
ACEM   NMA

>  <FRAG_ATOM_NUM>  (169) 
fragi: 9  fragj: 12

>  <atom.prop.CHAIN_ID>  (169) 
A A A A A A A A A Z Z Z Z Z Z Z Z Z Z Z Z

>  <atom.prop.IS_HEAVY_ATOM>  (169) 
1 0 0 0 1 1 0 0 1 1 0 0 0 1 0 1 1 1 0 0 0

>  <DIFUSE_FUNC_ATOM>  (169) 
n/a

>  <FINAL_SINGLE_POINT_ENERGY>  (169) 
0

>  <NONCOV_INTER_ENERGY_QM>  (169) 
0

>  <FF_Energy>  (169) 
15.88

>  <QM_Energy>  (169) 
44.13

>  <source>  (169) 
ACEM_nNMA_10

>  <Index>  (169) 
16688

$$$$
ACEM-pdb1iu4-D-ASN-276:NMA-pdb1iu4-D-MET-288
     RDKit          3D

 21 19  0  0  0  0  0  0  0  0999 V2000
   -5.9494   -0.5186   -0.5374 C   0  0  0  0  0  0  0  0  0  0  0  0
   -6.7072   -0.2548    0.0552 H   0  0  0  0  0  0  0  0  0  0  0  0
   -6.0355   -1.4801   -0.7908 H   0  0  0  0  0  0  0  0  0  0  0  0
   -6.0190    0.0728   -1.4504 H   0  0  0  0  0  0  0  0  0  0  0  0
   -4.6426   -0.3256    0.2215 C   0  0  0  0  0  0  0  0  0  0  0  0
   -3.5585    0.0351   -0.4810 N   0  0  0  0  0  0  0  0  0  0  0  0
   -3.6604    0.1681   -1.4724 H   0  0  0  0  0  0  0  0  0  0  0  0
   -2.6901    0.1675   -0.0325 H   0  0  0  0  0  0  0  0  0  0  0  0
   -4.6027   -0.5319    1.4201 O   0  0  0  0  0  0  0  0  0  0  0  0
   -1.1388   -2.1420   -0.2273 C   0  0  0  0  0  0  0  0  0  0  0  0
   -0.1930   -2.4941   -0.0943 H   0  0  0  0  0  0  0  0  0  0  0  0
   -1.4658   -2.4499   -1.2205 H   0  0  0  0  0  0  0  0  0  0  0  0
   -1.7347   -2.5957    0.5647 H   0  0  0  0  0  0  0  0  0  0  0  0
   -1.1231   -0.6833    0.0000 N   0  0  0  0  0  0  0  0  0  0  0  0
   -1.9848   -0.1334    0.1690 H   0  0  0  0  0  0  0  0  0  0  0  0
    0.0000    0.0000    0.0000 C   0  0  0  0  0  0  0  0  0  0  0  0
    1.1231   -0.4813   -0.0000 O   0  0  0  0  0  0  0  0  0  0  0  0
   -0.2751    1.4617    0.0004 C   0  0  0  0  0  0  0  0  0  0  0  0
   -1.2759    1.6068    0.1369 H   0  0  0  0  0  0  0  0  0  0  0  0
    0.2428    1.9997    0.7943 H   0  0  0  0  0  0  0  0  0  0  0  0
   -0.0057    1.8537   -0.9804 H   0  0  0  0  0  0  0  0  0  0  0  0
  1  5  1  0
  5  6  1  0
  5  9  2  0
  1  2  1  0
  1  3  1  0
  1  4  1  0
  6  7  1  0
  6  8  1  0
 10 14  1  0
 14 16  1  0
 16 17  2  0
 16 18  1  0
 10 11  1  0
 10 12  1  0
 10 13  1  0
 14 15  1  0
 18 19  1  0
 18 20  1  0
 18 21  1  0
M  END
>  <PDB_ID>  (170) 
pdb1iu4

>  <RESIDUE_NAME>  (170) 
ASN   MET

>  <FRAG_NAME>  (170) 
ACEM   NMA

>  <FRAG_ATOM_NUM>  (170) 
fragi: 9  fragj: 12

>  <atom.prop.CHAIN_ID>  (170) 
A A A A A A A A A Z Z Z Z Z Z Z Z Z Z Z Z

>  <atom.prop.IS_HEAVY_ATOM>  (170) 
1 0 0 0 1 1 0 0 1 1 0 0 0 1 0 1 1 1 0 0 0

>  <DIFUSE_FUNC_ATOM>  (170) 
n/a

>  <FINAL_SINGLE_POINT_ENERGY>  (170) 
0

>  <NONCOV_INTER_ENERGY_QM>  (170) 
0

>  <FF_Energy>  (170) 
24.17

>  <QM_Energy>  (170) 
56.79

>  <source>  (170) 
ACEM_nNMA_10

>  <Index>  (170) 
18209

$$$$
ACEM-pdb2nut-A-GLN-486:NMA-pdb2nut-A-THR-282
     RDKit          3D

 21 19  0  0  0  0  0  0  0  0999 V2000
   -6.2015   -0.7494   -0.3137 C   0  0  0  0  0  0  0  0  0  0  0  0
   -6.6687   -1.5678   -0.6423 H   0  0  0  0  0  0  0  0  0  0  0  0
   -6.6788    0.0662   -0.6346 H   0  0  0  0  0  0  0  0  0  0  0  0
   -6.1975   -0.7546    0.7763 H   0  0  0  0  0  0  0  0  0  0  0  0
   -4.7940   -0.7393   -0.8876 C   0  0  0  0  0  0  0  0  0  0  0  0
   -3.7965   -0.8322   -0.0102 N   0  0  0  0  0  0  0  0  0  0  0  0
   -2.8309   -0.8455   -0.3219 H   0  0  0  0  0  0  0  0  0  0  0  0
   -4.0200   -0.8892    0.9813 H   0  0  0  0  0  0  0  0  0  0  0  0
   -4.6059   -0.6542   -2.1059 O   0  0  0  0  0  0  0  0  0  0  0  0
   -1.0939   -2.1611    0.0235 C   0  0  0  0  0  0  0  0  0  0  0  0
   -0.8351   -2.4748    0.9705 H   0  0  0  0  0  0  0  0  0  0  0  0
   -2.0512   -2.5171   -0.1160 H   0  0  0  0  0  0  0  0  0  0  0  0
   -0.4324   -2.6400   -0.6984 H   0  0  0  0  0  0  0  0  0  0  0  0
   -1.1230   -0.7118   -0.0000 N   0  0  0  0  0  0  0  0  0  0  0  0
   -1.9952   -0.1510   -0.0181 H   0  0  0  0  0  0  0  0  0  0  0  0
    0.0000    0.0000    0.0000 C   0  0  0  0  0  0  0  0  0  0  0  0
    1.1230   -0.5061   -0.0000 O   0  0  0  0  0  0  0  0  0  0  0  0
   -0.1576    1.5116    0.0049 C   0  0  0  0  0  0  0  0  0  0  0  0
   -1.0180    1.7385    0.4351 H   0  0  0  0  0  0  0  0  0  0  0  0
    0.6560    1.8923    0.6223 H   0  0  0  0  0  0  0  0  0  0  0  0
   -0.0995    1.8692   -1.0232 H   0  0  0  0  0  0  0  0  0  0  0  0
  1  5  1  0
  5  6  1  0
  5  9  2  0
  1  2  1  0
  1  3  1  0
  1  4  1  0
  6  7  1  0
  6  8  1  0
 10 14  1  0
 14 16  1  0
 16 17  2  0
 16 18  1  0
 10 11  1  0
 10 12  1  0
 10 13  1  0
 14 15  1  0
 18 19  1  0
 18 20  1  0
 18 21  1  0
M  END
>  <PDB_ID>  (171) 
pdb2nut

>  <RESIDUE_NAME>  (171) 
GLN   THR

>  <FRAG_NAME>  (171) 
ACEM   NMA

>  <FRAG_ATOM_NUM>  (171) 
fragi: 9  fragj: 12

>  <atom.prop.CHAIN_ID>  (171) 
A A A A A A A A A Z Z Z Z Z Z Z Z Z Z Z Z

>  <atom.prop.IS_HEAVY_ATOM>  (171) 
1 0 0 0 1 1 0 0 1 1 0 0 0 1 0 1 1 1 0 0 0

>  <DIFUSE_FUNC_ATOM>  (171) 
n/a

>  <FINAL_SINGLE_POINT_ENERGY>  (171) 
0

>  <NONCOV_INTER_ENERGY_QM>  (171) 
0

>  <FF_Energy>  (171) 
11.32

>  <QM_Energy>  (171) 
22.74

>  <source>  (171) 
ACEM_nNMA_10

>  <Index>  (171) 
20256

$$$$
ACEM-pdb2nyu-A-ASN-14:NMA-pdb2nyu-A-ILE-19
     RDKit          3D

 21 19  0  0  0  0  0  0  0  0999 V2000
   -5.1289    0.7393    2.5570 C   0  0  0  0  0  0  0  0  0  0  0  0
   -4.5350    0.4616    3.3068 H   0  0  0  0  0  0  0  0  0  0  0  0
   -6.0733    0.4948    2.7587 H   0  0  0  0  0  0  0  0  0  0  0  0
   -5.0675    1.8222    2.4487 H   0  0  0  0  0  0  0  0  0  0  0  0
   -4.6974    0.0143    1.3044 C   0  0  0  0  0  0  0  0  0  0  0  0
   -3.4912    0.2214    0.9006 N   0  0  0  0  0  0  0  0  0  0  0  0
   -2.8680    0.8350    1.4043 H   0  0  0  0  0  0  0  0  0  0  0  0
   -3.1385   -0.2274    0.0646 H   0  0  0  0  0  0  0  0  0  0  0  0
   -5.4695   -0.7376    0.7218 O   0  0  0  0  0  0  0  0  0  0  0  0
   -1.1453   -2.2000   -0.0305 C   0  0  0  0  0  0  0  0  0  0  0  0
   -0.1849   -2.5115    0.0208 H   0  0  0  0  0  0  0  0  0  0  0  0
   -1.6014   -2.5988   -0.9366 H   0  0  0  0  0  0  0  0  0  0  0  0
   -1.6833   -2.5999    0.8290 H   0  0  0  0  0  0  0  0  0  0  0  0
   -1.1331   -0.7080   -0.0000 N   0  0  0  0  0  0  0  0  0  0  0  0
   -2.0037   -0.1447    0.0228 H   0  0  0  0  0  0  0  0  0  0  0  0
    0.0000    0.0000    0.0000 C   0  0  0  0  0  0  0  0  0  0  0  0
    1.1331   -0.5338    0.0000 O   0  0  0  0  0  0  0  0  0  0  0  0
   -0.1470    1.5037   -0.0153 C   0  0  0  0  0  0  0  0  0  0  0  0
    0.4776    1.8518   -0.7362 H   0  0  0  0  0  0  0  0  0  0  0  0
   -1.1458    1.8402   -0.2935 H   0  0  0  0  0  0  0  0  0  0  0  0
    0.1587    1.9096    0.9491 H   0  0  0  0  0  0  0  0  0  0  0  0
  1  5  1  0
  5  6  1  0
  5  9  2  0
  1  2  1  0
  1  3  1  0
  1  4  1  0
  6  7  1  0
  6  8  1  0
 10 14  1  0
 14 16  1  0
 16 17  2  0
 16 18  1  0
 10 11  1  0
 10 12  1  0
 10 13  1  0
 14 15  1  0
 18 19  1  0
 18 20  1  0
 18 21  1  0
M  END
>  <PDB_ID>  (172) 
pdb2nyu

>  <RESIDUE_NAME>  (172) 
ASN   ILE

>  <FRAG_NAME>  (172) 
ACEM   NMA

>  <FRAG_ATOM_NUM>  (172) 
fragi: 9  fragj: 12

>  <atom.prop.CHAIN_ID>  (172) 
A A A A A A A A A Z Z Z Z Z Z Z Z Z Z Z Z

>  <atom.prop.IS_HEAVY_ATOM>  (172) 
1 0 0 0 1 1 0 0 1 1 0 0 0 1 0 1 1 1 0 0 0

>  <DIFUSE_FUNC_ATOM>  (172) 
n/a

>  <FINAL_SINGLE_POINT_ENERGY>  (172) 
0

>  <NONCOV_INTER_ENERGY_QM>  (172) 
0

>  <FF_Energy>  (172) 
12.07

>  <QM_Energy>  (172) 
22.17

>  <source>  (172) 
ACEM_nNMA_10

>  <Index>  (172) 
23641

$$$$
ACEM-pdb1j6x-A-ASN-45:NMA-pdb1j6x-B-TRP-124
     RDKit          3D

 21 19  0  0  0  0  0  0  0  0999 V2000
   -4.8535    2.5149   -1.7287 C   0  0  0  0  0  0  0  0  0  0  0  0
   -5.7287    2.8231   -1.3681 H   0  0  0  0  0  0  0  0  0  0  0  0
   -4.9842    2.0593   -2.6047 H   0  0  0  0  0  0  0  0  0  0  0  0
   -4.2189    3.3871   -1.8857 H   0  0  0  0  0  0  0  0  0  0  0  0
   -4.2427    1.5453   -0.7614 C   0  0  0  0  0  0  0  0  0  0  0  0
   -3.1657    0.8840   -1.1733 N   0  0  0  0  0  0  0  0  0  0  0  0
   -2.8011    1.0550   -2.0909 H   0  0  0  0  0  0  0  0  0  0  0  0
   -2.7216    0.2230   -0.5735 H   0  0  0  0  0  0  0  0  0  0  0  0
   -4.7406    1.3768    0.3437 O   0  0  0  0  0  0  0  0  0  0  0  0
   -1.1732   -2.1661    0.0320 C   0  0  0  0  0  0  0  0  0  0  0  0
   -0.8225   -2.4785    0.9411 H   0  0  0  0  0  0  0  0  0  0  0  0
   -0.5910   -2.6552   -0.7489 H   0  0  0  0  0  0  0  0  0  0  0  0
   -2.2080   -2.5035   -0.0254 H   0  0  0  0  0  0  0  0  0  0  0  0
   -1.1267   -0.7071    0.0000 N   0  0  0  0  0  0  0  0  0  0  0  0
   -1.9987   -0.1148   -0.0253 H   0  0  0  0  0  0  0  0  0  0  0  0
    0.0000    0.0000    0.0000 C   0  0  0  0  0  0  0  0  0  0  0  0
    1.1267   -0.5069   -0.0000 O   0  0  0  0  0  0  0  0  0  0  0  0
   -0.1881    1.5175    0.0132 C   0  0  0  0  0  0  0  0  0  0  0  0
   -0.8174    1.7470   -0.7158 H   0  0  0  0  0  0  0  0  0  0  0  0
   -0.6644    1.7681    0.9610 H   0  0  0  0  0  0  0  0  0  0  0  0
    0.7807    2.0069   -0.0870 H   0  0  0  0  0  0  0  0  0  0  0  0
  1  5  1  0
  5  6  1  0
  5  9  2  0
  1  2  1  0
  1  3  1  0
  1  4  1  0
  6  7  1  0
  6  8  1  0
 10 14  1  0
 14 16  1  0
 16 17  2  0
 16 18  1  0
 10 11  1  0
 10 12  1  0
 10 13  1  0
 14 15  1  0
 18 19  1  0
 18 20  1  0
 18 21  1  0
M  END
>  <PDB_ID>  (173) 
pdb1j6x

>  <RESIDUE_NAME>  (173) 
ASN   TRP

>  <FRAG_NAME>  (173) 
ACEM   NMA

>  <FRAG_ATOM_NUM>  (173) 
fragi: 9  fragj: 12

>  <atom.prop.CHAIN_ID>  (173) 
A A A A A A A A A Z Z Z Z Z Z Z Z Z Z Z Z

>  <atom.prop.IS_HEAVY_ATOM>  (173) 
1 0 0 0 1 1 0 0 1 1 0 0 0 1 0 1 1 1 0 0 0

>  <DIFUSE_FUNC_ATOM>  (173) 
n/a

>  <FINAL_SINGLE_POINT_ENERGY>  (173) 
0

>  <NONCOV_INTER_ENERGY_QM>  (173) 
0

>  <FF_Energy>  (173) 
10.07

>  <QM_Energy>  (173) 
27.85

>  <source>  (173) 
ACEM_nNMA_10

>  <Index>  (173) 
24453

$$$$
ACEM-pdb2o0h-A-GLN-334:NMA-pdb2o0h-A-ASN-324
     RDKit          3D

 21 19  0  0  0  0  0  0  0  0999 V2000
   -4.9572    2.0959    1.4651 C   0  0  0  0  0  0  0  0  0  0  0  0
   -4.7209    1.8962    2.4138 H   0  0  0  0  0  0  0  0  0  0  0  0
   -5.9470    2.1915    1.3756 H   0  0  0  0  0  0  0  0  0  0  0  0
   -4.4890    3.0381    1.1802 H   0  0  0  0  0  0  0  0  0  0  0  0
   -4.5034    0.9199    0.5969 C   0  0  0  0  0  0  0  0  0  0  0  0
   -3.3606    0.3513    0.9297 N   0  0  0  0  0  0  0  0  0  0  0  0
   -3.0015   -0.4448    0.4079 H   0  0  0  0  0  0  0  0  0  0  0  0
   -2.8348    0.7208    1.7217 H   0  0  0  0  0  0  0  0  0  0  0  0
   -5.1760    0.5415   -0.3599 O   0  0  0  0  0  0  0  0  0  0  0  0
   -1.1549   -2.1733   -0.0069 C   0  0  0  0  0  0  0  0  0  0  0  0
   -0.6357   -2.4845    0.8112 H   0  0  0  0  0  0  0  0  0  0  0  0
   -0.6738   -2.6190   -0.8775 H   0  0  0  0  0  0  0  0  0  0  0  0
   -2.1836   -2.5283    0.0553 H   0  0  0  0  0  0  0  0  0  0  0  0
   -1.1260   -0.7114    0.0000 N   0  0  0  0  0  0  0  0  0  0  0  0
   -1.9988   -0.1287    0.0059 H   0  0  0  0  0  0  0  0  0  0  0  0
    0.0000    0.0000    0.0000 C   0  0  0  0  0  0  0  0  0  0  0  0
    1.1260   -0.5017   -0.0000 O   0  0  0  0  0  0  0  0  0  0  0  0
   -0.1817    1.5160    0.0229 C   0  0  0  0  0  0  0  0  0  0  0  0
   -0.5926    1.7490    0.9263 H   0  0  0  0  0  0  0  0  0  0  0  0
    0.7452    2.0833   -0.0619 H   0  0  0  0  0  0  0  0  0  0  0  0
   -0.8878    1.8232   -0.7486 H   0  0  0  0  0  0  0  0  0  0  0  0
  1  5  1  0
  5  6  1  0
  5  9  2  0
  1  2  1  0
  1  3  1  0
  1  4  1  0
  6  7  1  0
  6  8  1  0
 10 14  1  0
 14 16  1  0
 16 17  2  0
 16 18  1  0
 10 11  1  0
 10 12  1  0
 10 13  1  0
 14 15  1  0
 18 19  1  0
 18 20  1  0
 18 21  1  0
M  END
>  <PDB_ID>  (174) 
pdb2o0h

>  <RESIDUE_NAME>  (174) 
GLN   ASN

>  <FRAG_NAME>  (174) 
ACEM   NMA

>  <FRAG_ATOM_NUM>  (174) 
fragi: 9  fragj: 12

>  <atom.prop.CHAIN_ID>  (174) 
A A A A A A A A A Z Z Z Z Z Z Z Z Z Z Z Z

>  <atom.prop.IS_HEAVY_ATOM>  (174) 
1 0 0 0 1 1 0 0 1 1 0 0 0 1 0 1 1 1 0 0 0

>  <DIFUSE_FUNC_ATOM>  (174) 
n/a

>  <FINAL_SINGLE_POINT_ENERGY>  (174) 
0

>  <NONCOV_INTER_ENERGY_QM>  (174) 
0

>  <FF_Energy>  (174) 
10.81

>  <QM_Energy>  (174) 
22.19

>  <source>  (174) 
ACEM_nNMA_10

>  <Index>  (174) 
27447

$$$$
ACEM-pdb1jds-C-GLN-118:NMA-pdb1jds-B-SER-157
     RDKit          3D

 21 19  0  0  0  0  0  0  0  0999 V2000
   -6.2155    0.7609   -0.7785 C   0  0  0  0  0  0  0  0  0  0  0  0
   -6.5498    1.6995   -0.8478 H   0  0  0  0  0  0  0  0  0  0  0  0
   -6.4158    0.3985    0.1300 H   0  0  0  0  0  0  0  0  0  0  0  0
   -6.7321    0.1506   -1.5193 H   0  0  0  0  0  0  0  0  0  0  0  0
   -4.7051    0.7702   -0.9751 C   0  0  0  0  0  0  0  0  0  0  0  0
   -4.0228   -0.1643   -0.3327 N   0  0  0  0  0  0  0  0  0  0  0  0
   -3.0111   -0.2302   -0.4260 H   0  0  0  0  0  0  0  0  0  0  0  0
   -4.5250   -0.8218    0.2622 H   0  0  0  0  0  0  0  0  0  0  0  0
   -4.1628    1.6140   -1.6847 O   0  0  0  0  0  0  0  0  0  0  0  0
   -1.0940   -2.1781   -0.0718 C   0  0  0  0  0  0  0  0  0  0  0  0
   -0.1426   -2.4636    0.0449 H   0  0  0  0  0  0  0  0  0  0  0  0
   -1.4034   -2.5019   -1.0656 H   0  0  0  0  0  0  0  0  0  0  0  0
   -1.7681   -2.6204    0.6618 H   0  0  0  0  0  0  0  0  0  0  0  0
   -1.1214   -0.7150    0.0000 N   0  0  0  0  0  0  0  0  0  0  0  0
   -1.9954   -0.1624    0.0544 H   0  0  0  0  0  0  0  0  0  0  0  0
    0.0000    0.0000    0.0000 C   0  0  0  0  0  0  0  0  0  0  0  0
    1.1214   -0.5115   -0.0000 O   0  0  0  0  0  0  0  0  0  0  0  0
   -0.1618    1.5188    0.0227 C   0  0  0  0  0  0  0  0  0  0  0  0
   -1.0165    1.7277    0.5181 H   0  0  0  0  0  0  0  0  0  0  0  0
    0.6634    2.0034    0.5445 H   0  0  0  0  0  0  0  0  0  0  0  0
   -0.1962    1.9085   -0.9947 H   0  0  0  0  0  0  0  0  0  0  0  0
  1  5  1  0
  5  6  1  0
  5  9  2  0
  1  2  1  0
  1  3  1  0
  1  4  1  0
  6  7  1  0
  6  8  1  0
 10 14  1  0
 14 16  1  0
 16 17  2  0
 16 18  1  0
 10 11  1  0
 10 12  1  0
 10 13  1  0
 14 15  1  0
 18 19  1  0
 18 20  1  0
 18 21  1  0
M  END
>  <PDB_ID>  (175) 
pdb1jds

>  <RESIDUE_NAME>  (175) 
GLN   SER

>  <FRAG_NAME>  (175) 
ACEM   NMA

>  <FRAG_ATOM_NUM>  (175) 
fragi: 9  fragj: 12

>  <atom.prop.CHAIN_ID>  (175) 
A A A A A A A A A Z Z Z Z Z Z Z Z Z Z Z Z

>  <atom.prop.IS_HEAVY_ATOM>  (175) 
1 0 0 0 1 1 0 0 1 1 0 0 0 1 0 1 1 1 0 0 0

>  <DIFUSE_FUNC_ATOM>  (175) 
n/a

>  <FINAL_SINGLE_POINT_ENERGY>  (175) 
0

>  <NONCOV_INTER_ENERGY_QM>  (175) 
0

>  <FF_Energy>  (175) 
4.08

>  <QM_Energy>  (175) 
15.61

>  <source>  (175) 
ACEM_nNMA_11

>  <Index>  (175) 
2878

$$$$
ACEM-pdb1jds-B-GLN-118:NMA-pdb1jds-C-SER-157
     RDKit          3D

 21 19  0  0  0  0  0  0  0  0999 V2000
   -6.1481    0.6724   -1.0523 C   0  0  0  0  0  0  0  0  0  0  0  0
   -6.4370    1.6045   -1.2656 H   0  0  0  0  0  0  0  0  0  0  0  0
   -6.4296    0.4366   -0.1236 H   0  0  0  0  0  0  0  0  0  0  0  0
   -6.6317   -0.0121   -1.7493 H   0  0  0  0  0  0  0  0  0  0  0  0
   -4.6302    0.6085   -1.1285 C   0  0  0  0  0  0  0  0  0  0  0  0
   -4.0463   -0.3384   -0.4098 N   0  0  0  0  0  0  0  0  0  0  0  0
   -3.0339   -0.4526   -0.4204 H   0  0  0  0  0  0  0  0  0  0  0  0
   -4.6244   -0.9544    0.1590 H   0  0  0  0  0  0  0  0  0  0  0  0
   -3.9924    1.4119   -1.8146 O   0  0  0  0  0  0  0  0  0  0  0  0
   -1.1398   -2.1769   -0.0277 C   0  0  0  0  0  0  0  0  0  0  0  0
   -0.2010   -2.4862    0.1711 H   0  0  0  0  0  0  0  0  0  0  0  0
   -1.3979   -2.5573   -1.0160 H   0  0  0  0  0  0  0  0  0  0  0  0
   -1.8631   -2.5748    0.6841 H   0  0  0  0  0  0  0  0  0  0  0  0
   -1.1274   -0.7130   -0.0000 N   0  0  0  0  0  0  0  0  0  0  0  0
   -1.9993   -0.1376    0.0214 H   0  0  0  0  0  0  0  0  0  0  0  0
    0.0000    0.0000    0.0000 C   0  0  0  0  0  0  0  0  0  0  0  0
    1.1274   -0.5064    0.0000 O   0  0  0  0  0  0  0  0  0  0  0  0
   -0.1676    1.5184   -0.0005 C   0  0  0  0  0  0  0  0  0  0  0  0
   -1.0410    1.7306    0.4669 H   0  0  0  0  0  0  0  0  0  0  0  0
    0.6351    2.0283    0.5324 H   0  0  0  0  0  0  0  0  0  0  0  0
   -0.1962    1.8848   -1.0267 H   0  0  0  0  0  0  0  0  0  0  0  0
  1  5  1  0
  5  6  1  0
  5  9  2  0
  1  2  1  0
  1  3  1  0
  1  4  1  0
  6  7  1  0
  6  8  1  0
 10 14  1  0
 14 16  1  0
 16 17  2  0
 16 18  1  0
 10 11  1  0
 10 12  1  0
 10 13  1  0
 14 15  1  0
 18 19  1  0
 18 20  1  0
 18 21  1  0
M  END
>  <PDB_ID>  (176) 
pdb1jds

>  <RESIDUE_NAME>  (176) 
GLN   SER

>  <FRAG_NAME>  (176) 
ACEM   NMA

>  <FRAG_ATOM_NUM>  (176) 
fragi: 9  fragj: 12

>  <atom.prop.CHAIN_ID>  (176) 
A A A A A A A A A Z Z Z Z Z Z Z Z Z Z Z Z

>  <atom.prop.IS_HEAVY_ATOM>  (176) 
1 0 0 0 1 1 0 0 1 1 0 0 0 1 0 1 1 1 0 0 0

>  <DIFUSE_FUNC_ATOM>  (176) 
n/a

>  <FINAL_SINGLE_POINT_ENERGY>  (176) 
0

>  <NONCOV_INTER_ENERGY_QM>  (176) 
0

>  <FF_Energy>  (176) 
2.4

>  <QM_Energy>  (176) 
13.37

>  <source>  (176) 
ACEM_nNMA_11

>  <Index>  (176) 
3793

$$$$
ACEM-pdb1jds-F-GLN-118:NMA-pdb1jds-E-SER-157
     RDKit          3D

 21 19  0  0  0  0  0  0  0  0999 V2000
   -6.1859    0.7891   -0.7590 C   0  0  0  0  0  0  0  0  0  0  0  0
   -6.5079    1.7256   -0.8991 H   0  0  0  0  0  0  0  0  0  0  0  0
   -6.4171    0.4935    0.1683 H   0  0  0  0  0  0  0  0  0  0  0  0
   -6.6987    0.1377   -1.4667 H   0  0  0  0  0  0  0  0  0  0  0  0
   -4.6784    0.7655   -0.9166 C   0  0  0  0  0  0  0  0  0  0  0  0
   -4.0302   -0.1770   -0.2453 N   0  0  0  0  0  0  0  0  0  0  0  0
   -3.0182   -0.2645   -0.3123 H   0  0  0  0  0  0  0  0  0  0  0  0
   -4.5613   -0.8163    0.3440 H   0  0  0  0  0  0  0  0  0  0  0  0
   -4.1011    1.5941   -1.6233 O   0  0  0  0  0  0  0  0  0  0  0  0
   -1.1041   -2.1846   -0.0614 C   0  0  0  0  0  0  0  0  0  0  0  0
   -0.1523   -2.4754    0.0521 H   0  0  0  0  0  0  0  0  0  0  0  0
   -1.4223   -2.5226   -1.0476 H   0  0  0  0  0  0  0  0  0  0  0  0
   -1.7742   -2.6177    0.6812 H   0  0  0  0  0  0  0  0  0  0  0  0
   -1.1223   -0.7179   -0.0000 N   0  0  0  0  0  0  0  0  0  0  0  0
   -1.9964   -0.1612    0.0465 H   0  0  0  0  0  0  0  0  0  0  0  0
    0.0000    0.0000    0.0000 C   0  0  0  0  0  0  0  0  0  0  0  0
    1.1223   -0.5055    0.0000 O   0  0  0  0  0  0  0  0  0  0  0  0
   -0.1610    1.5173    0.0197 C   0  0  0  0  0  0  0  0  0  0  0  0
   -1.0020    1.7307    0.5375 H   0  0  0  0  0  0  0  0  0  0  0  0
    0.6764    2.0081    0.5157 H   0  0  0  0  0  0  0  0  0  0  0  0
   -0.2332    1.8900   -1.0020 H   0  0  0  0  0  0  0  0  0  0  0  0
  1  5  1  0
  5  6  1  0
  5  9  2  0
  1  2  1  0
  1  3  1  0
  1  4  1  0
  6  7  1  0
  6  8  1  0
 10 14  1  0
 14 16  1  0
 16 17  2  0
 16 18  1  0
 10 11  1  0
 10 12  1  0
 10 13  1  0
 14 15  1  0
 18 19  1  0
 18 20  1  0
 18 21  1  0
M  END
>  <PDB_ID>  (177) 
pdb1jds

>  <RESIDUE_NAME>  (177) 
GLN   SER

>  <FRAG_NAME>  (177) 
ACEM   NMA

>  <FRAG_ATOM_NUM>  (177) 
fragi: 9  fragj: 12

>  <atom.prop.CHAIN_ID>  (177) 
A A A A A A A A A Z Z Z Z Z Z Z Z Z Z Z Z

>  <atom.prop.IS_HEAVY_ATOM>  (177) 
1 0 0 0 1 1 0 0 1 1 0 0 0 1 0 1 1 1 0 0 0

>  <DIFUSE_FUNC_ATOM>  (177) 
n/a

>  <FINAL_SINGLE_POINT_ENERGY>  (177) 
0

>  <NONCOV_INTER_ENERGY_QM>  (177) 
0

>  <FF_Energy>  (177) 
4.49

>  <QM_Energy>  (177) 
17.55

>  <source>  (177) 
ACEM_nNMA_11

>  <Index>  (177) 
5740

$$$$
ACEM-pdb2o8g-A-GLN-185:NMA-pdb2o8g-A-LEU-180
     RDKit          3D

 21 19  0  0  0  0  0  0  0  0999 V2000
   -5.5336    0.5423   -1.8442 C   0  0  0  0  0  0  0  0  0  0  0  0
   -6.4832    0.5720   -1.5354 H   0  0  0  0  0  0  0  0  0  0  0  0
   -5.3783   -0.2924   -2.3700 H   0  0  0  0  0  0  0  0  0  0  0  0
   -5.3356    1.4072   -2.4772 H   0  0  0  0  0  0  0  0  0  0  0  0
   -4.6366    0.5236   -0.6363 C   0  0  0  0  0  0  0  0  0  0  0  0
   -3.6859   -0.3990   -0.6198 N   0  0  0  0  0  0  0  0  0  0  0  0
   -3.0286   -0.4665    0.1589 H   0  0  0  0  0  0  0  0  0  0  0  0
   -3.6153   -1.0494   -1.4024 H   0  0  0  0  0  0  0  0  0  0  0  0
   -4.8081    1.3213    0.2865 O   0  0  0  0  0  0  0  0  0  0  0  0
   -1.0765   -2.1715    0.0285 C   0  0  0  0  0  0  0  0  0  0  0  0
   -0.1473   -2.4531    0.3025 H   0  0  0  0  0  0  0  0  0  0  0  0
   -1.2742   -2.6020   -0.9532 H   0  0  0  0  0  0  0  0  0  0  0  0
   -1.7807   -2.5544    0.7673 H   0  0  0  0  0  0  0  0  0  0  0  0
   -1.1171   -0.7129    0.0000 N   0  0  0  0  0  0  0  0  0  0  0  0
   -1.9928   -0.1634   -0.0210 H   0  0  0  0  0  0  0  0  0  0  0  0
    0.0000    0.0000    0.0000 C   0  0  0  0  0  0  0  0  0  0  0  0
    1.1171   -0.5184    0.0000 O   0  0  0  0  0  0  0  0  0  0  0  0
   -0.1803    1.5159   -0.0157 C   0  0  0  0  0  0  0  0  0  0  0  0
   -1.0526    1.7260   -0.4725 H   0  0  0  0  0  0  0  0  0  0  0  0
   -0.2113    1.9172    0.9972 H   0  0  0  0  0  0  0  0  0  0  0  0
    0.5681    2.0145   -0.6317 H   0  0  0  0  0  0  0  0  0  0  0  0
  1  5  1  0
  5  6  1  0
  5  9  2  0
  1  2  1  0
  1  3  1  0
  1  4  1  0
  6  7  1  0
  6  8  1  0
 10 14  1  0
 14 16  1  0
 16 17  2  0
 16 18  1  0
 10 11  1  0
 10 12  1  0
 10 13  1  0
 14 15  1  0
 18 19  1  0
 18 20  1  0
 18 21  1  0
M  END
>  <PDB_ID>  (178) 
pdb2o8g

>  <RESIDUE_NAME>  (178) 
GLN   LEU

>  <FRAG_NAME>  (178) 
ACEM   NMA

>  <FRAG_ATOM_NUM>  (178) 
fragi: 9  fragj: 12

>  <atom.prop.CHAIN_ID>  (178) 
A A A A A A A A A Z Z Z Z Z Z Z Z Z Z Z Z

>  <atom.prop.IS_HEAVY_ATOM>  (178) 
1 0 0 0 1 1 0 0 1 1 0 0 0 1 0 1 1 1 0 0 0

>  <DIFUSE_FUNC_ATOM>  (178) 
n/a

>  <FINAL_SINGLE_POINT_ENERGY>  (178) 
0

>  <NONCOV_INTER_ENERGY_QM>  (178) 
0

>  <FF_Energy>  (178) 
9.35

>  <QM_Energy>  (178) 
22.5

>  <source>  (178) 
ACEM_nNMA_11

>  <Index>  (178) 
6125

$$$$
ACEM-pdb1jds-E-GLN-118:NMA-pdb1jds-F-SER-157
     RDKit          3D

 21 19  0  0  0  0  0  0  0  0999 V2000
   -6.1230    0.6063   -1.1495 C   0  0  0  0  0  0  0  0  0  0  0  0
   -6.4204    1.5290   -1.3885 H   0  0  0  0  0  0  0  0  0  0  0  0
   -6.4120    0.3889   -0.2191 H   0  0  0  0  0  0  0  0  0  0  0  0
   -6.5879   -0.1014   -1.8360 H   0  0  0  0  0  0  0  0  0  0  0  0
   -4.6030    0.5599   -1.2074 C   0  0  0  0  0  0  0  0  0  0  0  0
   -4.0178   -0.4028   -0.5073 N   0  0  0  0  0  0  0  0  0  0  0  0
   -3.0053   -0.5058   -0.5087 H   0  0  0  0  0  0  0  0  0  0  0  0
   -4.5971   -1.0408    0.0344 H   0  0  0  0  0  0  0  0  0  0  0  0
   -3.9634    1.3931   -1.8592 O   0  0  0  0  0  0  0  0  0  0  0  0
   -1.0896   -2.1802   -0.0305 C   0  0  0  0  0  0  0  0  0  0  0  0
   -0.1463   -2.4620    0.1886 H   0  0  0  0  0  0  0  0  0  0  0  0
   -1.3138   -2.5656   -1.0251 H   0  0  0  0  0  0  0  0  0  0  0  0
   -1.8085   -2.5958    0.6757 H   0  0  0  0  0  0  0  0  0  0  0  0
   -1.1211   -0.7165   -0.0000 N   0  0  0  0  0  0  0  0  0  0  0  0
   -1.9957   -0.1641    0.0224 H   0  0  0  0  0  0  0  0  0  0  0  0
    0.0000    0.0000    0.0000 C   0  0  0  0  0  0  0  0  0  0  0  0
    1.1211   -0.5081   -0.0000 O   0  0  0  0  0  0  0  0  0  0  0  0
   -0.1656    1.5141   -0.0048 C   0  0  0  0  0  0  0  0  0  0  0  0
   -1.0557    1.7288    0.4377 H   0  0  0  0  0  0  0  0  0  0  0  0
    0.6173    2.0391    0.5424 H   0  0  0  0  0  0  0  0  0  0  0  0
   -0.1766    1.8775   -1.0324 H   0  0  0  0  0  0  0  0  0  0  0  0
  1  5  1  0
  5  6  1  0
  5  9  2  0
  1  2  1  0
  1  3  1  0
  1  4  1  0
  6  7  1  0
  6  8  1  0
 10 14  1  0
 14 16  1  0
 16 17  2  0
 16 18  1  0
 10 11  1  0
 10 12  1  0
 10 13  1  0
 14 15  1  0
 18 19  1  0
 18 20  1  0
 18 21  1  0
M  END
>  <PDB_ID>  (179) 
pdb1jds

>  <RESIDUE_NAME>  (179) 
GLN   SER

>  <FRAG_NAME>  (179) 
ACEM   NMA

>  <FRAG_ATOM_NUM>  (179) 
fragi: 9  fragj: 12

>  <atom.prop.CHAIN_ID>  (179) 
A A A A A A A A A Z Z Z Z Z Z Z Z Z Z Z Z

>  <atom.prop.IS_HEAVY_ATOM>  (179) 
1 0 0 0 1 1 0 0 1 1 0 0 0 1 0 1 1 1 0 0 0

>  <DIFUSE_FUNC_ATOM>  (179) 
n/a

>  <FINAL_SINGLE_POINT_ENERGY>  (179) 
0

>  <NONCOV_INTER_ENERGY_QM>  (179) 
0

>  <FF_Energy>  (179) 
1.99

>  <QM_Energy>  (179) 
12.46

>  <source>  (179) 
ACEM_nNMA_11

>  <Index>  (179) 
6544

$$$$
ACEM-pdb2o6y-B-GLN-408:NMA-pdb2o6y-A-THR-431
     RDKit          3D

 21 19  0  0  0  0  0  0  0  0999 V2000
   -6.0590   -0.1811    1.3816 C   0  0  0  0  0  0  0  0  0  0  0  0
   -6.5142    0.6897    1.5682 H   0  0  0  0  0  0  0  0  0  0  0  0
   -6.0642   -0.7442    2.2085 H   0  0  0  0  0  0  0  0  0  0  0  0
   -6.6178   -0.7034    0.6050 H   0  0  0  0  0  0  0  0  0  0  0  0
   -4.6220    0.0967    0.9895 C   0  0  0  0  0  0  0  0  0  0  0  0
   -3.9774   -0.8829    0.3621 N   0  0  0  0  0  0  0  0  0  0  0  0
   -3.0160   -0.7640    0.0568 H   0  0  0  0  0  0  0  0  0  0  0  0
   -4.4657   -1.7613    0.1932 H   0  0  0  0  0  0  0  0  0  0  0  0
   -4.1040    1.1887    1.2233 O   0  0  0  0  0  0  0  0  0  0  0  0
   -1.1009   -2.1902   -0.0176 C   0  0  0  0  0  0  0  0  0  0  0  0
   -2.0495   -2.5012    0.0626 H   0  0  0  0  0  0  0  0  0  0  0  0
   -0.5699   -2.5698    0.8553 H   0  0  0  0  0  0  0  0  0  0  0  0
   -0.6208   -2.5392   -0.9318 H   0  0  0  0  0  0  0  0  0  0  0  0
   -1.1206   -0.7229   -0.0000 N   0  0  0  0  0  0  0  0  0  0  0  0
   -1.9975   -0.1660    0.0139 H   0  0  0  0  0  0  0  0  0  0  0  0
    0.0000    0.0000    0.0000 C   0  0  0  0  0  0  0  0  0  0  0  0
    1.1206   -0.5078    0.0000 O   0  0  0  0  0  0  0  0  0  0  0  0
   -0.1528    1.5259    0.0321 C   0  0  0  0  0  0  0  0  0  0  0  0
   -0.5935    1.7761    0.9030 H   0  0  0  0  0  0  0  0  0  0  0  0
    0.8153    2.0233   -0.0266 H   0  0  0  0  0  0  0  0  0  0  0  0
   -0.7836    1.8870   -0.7802 H   0  0  0  0  0  0  0  0  0  0  0  0
  1  5  1  0
  5  6  1  0
  5  9  2  0
  1  2  1  0
  1  3  1  0
  1  4  1  0
  6  7  1  0
  6  8  1  0
 10 14  1  0
 14 16  1  0
 16 17  2  0
 16 18  1  0
 10 11  1  0
 10 12  1  0
 10 13  1  0
 14 15  1  0
 18 19  1  0
 18 20  1  0
 18 21  1  0
M  END
>  <PDB_ID>  (180) 
pdb2o6y

>  <RESIDUE_NAME>  (180) 
GLN   THR

>  <FRAG_NAME>  (180) 
ACEM   NMA

>  <FRAG_ATOM_NUM>  (180) 
fragi: 9  fragj: 12

>  <atom.prop.CHAIN_ID>  (180) 
A A A A A A A A A Z Z Z Z Z Z Z Z Z Z Z Z

>  <atom.prop.IS_HEAVY_ATOM>  (180) 
1 0 0 0 1 1 0 0 1 1 0 0 0 1 0 1 1 1 0 0 0

>  <DIFUSE_FUNC_ATOM>  (180) 
n/a

>  <FINAL_SINGLE_POINT_ENERGY>  (180) 
0

>  <NONCOV_INTER_ENERGY_QM>  (180) 
0

>  <FF_Energy>  (180) 
2.37

>  <QM_Energy>  (180) 
13.85

>  <source>  (180) 
ACEM_nNMA_11

>  <Index>  (180) 
6864

$$$$
ACEM-pdb2oaj-A-GLN-276:NMA-pdb2oaj-A-LYS-336
     RDKit          3D

 21 19  0  0  0  0  0  0  0  0999 V2000
   -5.7428    0.3076    2.1882 C   0  0  0  0  0  0  0  0  0  0  0  0
   -5.8900   -0.6172    2.5396 H   0  0  0  0  0  0  0  0  0  0  0  0
   -6.6079    0.6771    1.8476 H   0  0  0  0  0  0  0  0  0  0  0  0
   -5.3888    0.9390    3.0031 H   0  0  0  0  0  0  0  0  0  0  0  0
   -4.7609    0.2298    1.0265 C   0  0  0  0  0  0  0  0  0  0  0  0
   -3.4716    0.2056    1.3460 N   0  0  0  0  0  0  0  0  0  0  0  0
   -2.7589    0.1416    0.6245 H   0  0  0  0  0  0  0  0  0  0  0  0
   -3.2073    0.2557    2.3282 H   0  0  0  0  0  0  0  0  0  0  0  0
   -5.1537    0.2076   -0.1384 O   0  0  0  0  0  0  0  0  0  0  0  0
   -1.0661   -2.1638   -0.0063 C   0  0  0  0  0  0  0  0  0  0  0  0
   -0.1258   -2.4451   -0.2390 H   0  0  0  0  0  0  0  0  0  0  0  0
   -1.7365   -2.5785   -0.7591 H   0  0  0  0  0  0  0  0  0  0  0  0
   -1.3418   -2.5745    0.9650 H   0  0  0  0  0  0  0  0  0  0  0  0
   -1.1186   -0.7132    0.0000 N   0  0  0  0  0  0  0  0  0  0  0  0
   -1.9925   -0.1648    0.0047 H   0  0  0  0  0  0  0  0  0  0  0  0
    0.0000    0.0000    0.0000 C   0  0  0  0  0  0  0  0  0  0  0  0
    1.1186   -0.5123   -0.0000 O   0  0  0  0  0  0  0  0  0  0  0  0
   -0.1664    1.5112    0.0070 C   0  0  0  0  0  0  0  0  0  0  0  0
   -0.9498    1.7470    0.5996 H   0  0  0  0  0  0  0  0  0  0  0  0
    0.7265    2.0072    0.3875 H   0  0  0  0  0  0  0  0  0  0  0  0
   -0.3825    1.8678   -1.0001 H   0  0  0  0  0  0  0  0  0  0  0  0
  1  5  1  0
  5  6  1  0
  5  9  2  0
  1  2  1  0
  1  3  1  0
  1  4  1  0
  6  7  1  0
  6  8  1  0
 10 14  1  0
 14 16  1  0
 16 17  2  0
 16 18  1  0
 10 11  1  0
 10 12  1  0
 10 13  1  0
 14 15  1  0
 18 19  1  0
 18 20  1  0
 18 21  1  0
M  END
>  <PDB_ID>  (181) 
pdb2oaj

>  <RESIDUE_NAME>  (181) 
GLN   LYS

>  <FRAG_NAME>  (181) 
ACEM   NMA

>  <FRAG_ATOM_NUM>  (181) 
fragi: 9  fragj: 12

>  <atom.prop.CHAIN_ID>  (181) 
A A A A A A A A A Z Z Z Z Z Z Z Z Z Z Z Z

>  <atom.prop.IS_HEAVY_ATOM>  (181) 
1 0 0 0 1 1 0 0 1 1 0 0 0 1 0 1 1 1 0 0 0

>  <DIFUSE_FUNC_ATOM>  (181) 
n/a

>  <FINAL_SINGLE_POINT_ENERGY>  (181) 
0

>  <NONCOV_INTER_ENERGY_QM>  (181) 
0

>  <FF_Energy>  (181) 
9.14

>  <QM_Energy>  (181) 
22.68

>  <source>  (181) 
ACEM_nNMA_11

>  <Index>  (181) 
8477

$$$$
ACEM-pdb1jju-A-GLN-393:NMA-pdb1jju-A-ASP-398
     RDKit          3D

 21 19  0  0  0  0  0  0  0  0999 V2000
   -5.7938   -0.1723    0.5684 C   0  0  0  0  0  0  0  0  0  0  0  0
   -5.9488   -1.1444    0.4258 H   0  0  0  0  0  0  0  0  0  0  0  0
   -6.3721    0.3635   -0.0394 H   0  0  0  0  0  0  0  0  0  0  0  0
   -6.0282    0.0810    1.6023 H   0  0  0  0  0  0  0  0  0  0  0  0
   -4.3586    0.1379    0.2700 C   0  0  0  0  0  0  0  0  0  0  0  0
   -3.4636   -0.6249    0.8653 N   0  0  0  0  0  0  0  0  0  0  0  0
   -2.4577   -0.4889    0.7042 H   0  0  0  0  0  0  0  0  0  0  0  0
   -3.7767   -1.3622    1.4967 H   0  0  0  0  0  0  0  0  0  0  0  0
   -4.0500    1.0380   -0.5080 O   0  0  0  0  0  0  0  0  0  0  0  0
   -1.2582   -2.1864    0.0237 C   0  0  0  0  0  0  0  0  0  0  0  0
   -1.8526   -2.4061    0.8705 H   0  0  0  0  0  0  0  0  0  0  0  0
   -0.4108   -2.8710    0.0628 H   0  0  0  0  0  0  0  0  0  0  0  0
   -1.8862   -2.5146   -0.8046 H   0  0  0  0  0  0  0  0  0  0  0  0
   -1.1280   -0.7145    0.0000 N   0  0  0  0  0  0  0  0  0  0  0  0
   -2.0035   -0.0910   -0.0203 H   0  0  0  0  0  0  0  0  0  0  0  0
    0.0000    0.0000    0.0000 C   0  0  0  0  0  0  0  0  0  0  0  0
    1.1280   -0.4926   -0.0000 O   0  0  0  0  0  0  0  0  0  0  0  0
   -0.1898    1.5343   -0.0284 C   0  0  0  0  0  0  0  0  0  0  0  0
    0.7346    1.9398    0.0482 H   0  0  0  0  0  0  0  0  0  0  0  0
   -0.6248    1.8950   -0.9604 H   0  0  0  0  0  0  0  0  0  0  0  0
   -0.8226    1.8593    0.7975 H   0  0  0  0  0  0  0  0  0  0  0  0
  1  5  1  0
  5  6  1  0
  5  9  2  0
  1  2  1  0
  1  3  1  0
  1  4  1  0
  6  7  1  0
  6  8  1  0
 10 14  1  0
 14 16  1  0
 16 17  2  0
 16 18  1  0
 10 11  1  0
 10 12  1  0
 10 13  1  0
 14 15  1  0
 18 19  1  0
 18 20  1  0
 18 21  1  0
M  END
>  <PDB_ID>  (182) 
pdb1jju

>  <RESIDUE_NAME>  (182) 
GLN   ASP

>  <FRAG_NAME>  (182) 
ACEM   NMA

>  <FRAG_ATOM_NUM>  (182) 
fragi: 9  fragj: 12

>  <atom.prop.CHAIN_ID>  (182) 
A A A A A A A A A Z Z Z Z Z Z Z Z Z Z Z Z

>  <atom.prop.IS_HEAVY_ATOM>  (182) 
1 0 0 0 1 1 0 0 1 1 0 0 0 1 0 1 1 1 0 0 0

>  <DIFUSE_FUNC_ATOM>  (182) 
n/a

>  <FINAL_SINGLE_POINT_ENERGY>  (182) 
0

>  <NONCOV_INTER_ENERGY_QM>  (182) 
0

>  <FF_Energy>  (182) 
25.64

>  <QM_Energy>  (182) 
40.51

>  <source>  (182) 
ACEM_nNMA_11

>  <Index>  (182) 
8876

$$$$
ACEM-pdb2o6y-A-GLN-408:NMA-pdb2o6y-B-THR-431
     RDKit          3D

 21 19  0  0  0  0  0  0  0  0999 V2000
   -6.0799   -0.2095    1.3245 C   0  0  0  0  0  0  0  0  0  0  0  0
   -6.5425    0.6578    1.5123 H   0  0  0  0  0  0  0  0  0  0  0  0
   -6.0812   -0.7722    2.1519 H   0  0  0  0  0  0  0  0  0  0  0  0
   -6.6347   -0.7361    0.5479 H   0  0  0  0  0  0  0  0  0  0  0  0
   -4.6438    0.0814    0.9350 C   0  0  0  0  0  0  0  0  0  0  0  0
   -3.9637   -0.9179    0.3854 N   0  0  0  0  0  0  0  0  0  0  0  0
   -3.0008   -0.7932    0.0867 H   0  0  0  0  0  0  0  0  0  0  0  0
   -4.4243   -1.8194    0.2680 H   0  0  0  0  0  0  0  0  0  0  0  0
   -4.1605    1.2027    1.1004 O   0  0  0  0  0  0  0  0  0  0  0  0
   -1.0895   -2.1874   -0.0138 C   0  0  0  0  0  0  0  0  0  0  0  0
   -2.0367   -2.5040    0.0552 H   0  0  0  0  0  0  0  0  0  0  0  0
   -0.5663   -2.5565    0.8683 H   0  0  0  0  0  0  0  0  0  0  0  0
   -0.5904   -2.5414   -0.9158 H   0  0  0  0  0  0  0  0  0  0  0  0
   -1.1197   -0.7212    0.0000 N   0  0  0  0  0  0  0  0  0  0  0  0
   -1.9968   -0.1692    0.0103 H   0  0  0  0  0  0  0  0  0  0  0  0
    0.0000    0.0000    0.0000 C   0  0  0  0  0  0  0  0  0  0  0  0
    1.1197   -0.5116   -0.0000 O   0  0  0  0  0  0  0  0  0  0  0  0
   -0.1466    1.5247    0.0308 C   0  0  0  0  0  0  0  0  0  0  0  0
   -0.5749    1.7794    0.9063 H   0  0  0  0  0  0  0  0  0  0  0  0
    0.8242    2.0154   -0.0399 H   0  0  0  0  0  0  0  0  0  0  0  0
   -0.7874    1.8958   -0.7691 H   0  0  0  0  0  0  0  0  0  0  0  0
  1  5  1  0
  5  6  1  0
  5  9  2  0
  1  2  1  0
  1  3  1  0
  1  4  1  0
  6  7  1  0
  6  8  1  0
 10 14  1  0
 14 16  1  0
 16 17  2  0
 16 18  1  0
 10 11  1  0
 10 12  1  0
 10 13  1  0
 14 15  1  0
 18 19  1  0
 18 20  1  0
 18 21  1  0
M  END
>  <PDB_ID>  (183) 
pdb2o6y

>  <RESIDUE_NAME>  (183) 
GLN   THR

>  <FRAG_NAME>  (183) 
ACEM   NMA

>  <FRAG_ATOM_NUM>  (183) 
fragi: 9  fragj: 12

>  <atom.prop.CHAIN_ID>  (183) 
A A A A A A A A A Z Z Z Z Z Z Z Z Z Z Z Z

>  <atom.prop.IS_HEAVY_ATOM>  (183) 
1 0 0 0 1 1 0 0 1 1 0 0 0 1 0 1 1 1 0 0 0

>  <DIFUSE_FUNC_ATOM>  (183) 
n/a

>  <FINAL_SINGLE_POINT_ENERGY>  (183) 
0

>  <NONCOV_INTER_ENERGY_QM>  (183) 
0

>  <FF_Energy>  (183) 
2.39

>  <QM_Energy>  (183) 
13.94

>  <source>  (183) 
ACEM_nNMA_11

>  <Index>  (183) 
9776

$$$$
ACEM-pdb1jmm-A-GLN-604:NMA-pdb1jmm-A-LEU-600
     RDKit          3D

 21 19  0  0  0  0  0  0  0  0999 V2000
   -4.9305   -0.1207   -0.2951 C   0  0  0  0  0  0  0  0  0  0  0  0
   -5.9272   -0.0810   -0.3594 H   0  0  0  0  0  0  0  0  0  0  0  0
   -4.6248   -1.0639   -0.4287 H   0  0  0  0  0  0  0  0  0  0  0  0
   -4.5011    0.5040   -1.0783 H   0  0  0  0  0  0  0  0  0  0  0  0
   -4.5211    0.3259    1.0970 C   0  0  0  0  0  0  0  0  0  0  0  0
   -3.2278    0.5614    1.2836 N   0  0  0  0  0  0  0  0  0  0  0  0
   -2.8795    0.8770    2.1863 H   0  0  0  0  0  0  0  0  0  0  0  0
   -2.5847    0.4192    0.5063 H   0  0  0  0  0  0  0  0  0  0  0  0
   -5.3547    0.4663    1.9913 O   0  0  0  0  0  0  0  0  0  0  0  0
   -1.1115   -2.1630   -0.0323 C   0  0  0  0  0  0  0  0  0  0  0  0
   -0.1890   -2.4994    0.0194 H   0  0  0  0  0  0  0  0  0  0  0  0
   -1.5467   -2.4236   -0.9971 H   0  0  0  0  0  0  0  0  0  0  0  0
   -1.7294   -2.5762    0.7650 H   0  0  0  0  0  0  0  0  0  0  0  0
   -1.1206   -0.7094   -0.0000 N   0  0  0  0  0  0  0  0  0  0  0  0
   -1.9939   -0.1420    0.0247 H   0  0  0  0  0  0  0  0  0  0  0  0
    0.0000    0.0000    0.0000 C   0  0  0  0  0  0  0  0  0  0  0  0
    1.1206   -0.5118   -0.0000 O   0  0  0  0  0  0  0  0  0  0  0  0
   -0.1786    1.5127   -0.0201 C   0  0  0  0  0  0  0  0  0  0  0  0
   -1.0096    1.7421    0.5218 H   0  0  0  0  0  0  0  0  0  0  0  0
    0.6643    2.0628    0.3985 H   0  0  0  0  0  0  0  0  0  0  0  0
   -0.3396    1.8103   -1.0563 H   0  0  0  0  0  0  0  0  0  0  0  0
  1  5  1  0
  5  6  1  0
  5  9  2  0
  1  2  1  0
  1  3  1  0
  1  4  1  0
  6  7  1  0
  6  8  1  0
 10 14  1  0
 14 16  1  0
 16 17  2  0
 16 18  1  0
 10 11  1  0
 10 12  1  0
 10 13  1  0
 14 15  1  0
 18 19  1  0
 18 20  1  0
 18 21  1  0
M  END
>  <PDB_ID>  (184) 
pdb1jmm

>  <RESIDUE_NAME>  (184) 
GLN   LEU

>  <FRAG_NAME>  (184) 
ACEM   NMA

>  <FRAG_ATOM_NUM>  (184) 
fragi: 9  fragj: 12

>  <atom.prop.CHAIN_ID>  (184) 
A A A A A A A A A Z Z Z Z Z Z Z Z Z Z Z Z

>  <atom.prop.IS_HEAVY_ATOM>  (184) 
1 0 0 0 1 1 0 0 1 1 0 0 0 1 0 1 1 1 0 0 0

>  <DIFUSE_FUNC_ATOM>  (184) 
n/a

>  <FINAL_SINGLE_POINT_ENERGY>  (184) 
0

>  <NONCOV_INTER_ENERGY_QM>  (184) 
0

>  <FF_Energy>  (184) 
14.33

>  <QM_Energy>  (184) 
32.85

>  <source>  (184) 
ACEM_nNMA_11

>  <Index>  (184) 
9843

$$$$
ACEM-pdb1jji-D-ASN-37:NMA-pdb1jji-D-ILE-92
     RDKit          3D

 21 19  0  0  0  0  0  0  0  0999 V2000
   -5.4077   -1.0434    2.3796 C   0  0  0  0  0  0  0  0  0  0  0  0
   -5.7929   -0.2957    2.9176 H   0  0  0  0  0  0  0  0  0  0  0  0
   -5.3825   -1.8768    2.9295 H   0  0  0  0  0  0  0  0  0  0  0  0
   -6.0526   -1.2178    1.5182 H   0  0  0  0  0  0  0  0  0  0  0  0
   -3.9918   -0.6783    1.9927 C   0  0  0  0  0  0  0  0  0  0  0  0
   -3.7966   -0.3303    0.7226 N   0  0  0  0  0  0  0  0  0  0  0  0
   -4.5691   -0.3152    0.0859 H   0  0  0  0  0  0  0  0  0  0  0  0
   -2.8827   -0.0838    0.4054 H   0  0  0  0  0  0  0  0  0  0  0  0
   -3.0829   -0.7227    2.8119 O   0  0  0  0  0  0  0  0  0  0  0  0
   -1.0855   -2.1884    0.0037 C   0  0  0  0  0  0  0  0  0  0  0  0
   -2.0379   -2.5148   -0.0971 H   0  0  0  0  0  0  0  0  0  0  0  0
   -0.6827   -2.5865    0.9350 H   0  0  0  0  0  0  0  0  0  0  0  0
   -0.4937   -2.5855   -0.8209 H   0  0  0  0  0  0  0  0  0  0  0  0
   -1.1063   -0.7292    0.0000 N   0  0  0  0  0  0  0  0  0  0  0  0
   -1.9920   -0.1735   -0.0028 H   0  0  0  0  0  0  0  0  0  0  0  0
    0.0000    0.0000    0.0000 C   0  0  0  0  0  0  0  0  0  0  0  0
    1.1063   -0.4826    0.0000 O   0  0  0  0  0  0  0  0  0  0  0  0
   -0.1994    1.5213    0.0261 C   0  0  0  0  0  0  0  0  0  0  0  0
   -0.4253    1.7613    0.9914 H   0  0  0  0  0  0  0  0  0  0  0  0
    0.6780    2.1113   -0.2387 H   0  0  0  0  0  0  0  0  0  0  0  0
   -1.0399    1.7929   -0.6126 H   0  0  0  0  0  0  0  0  0  0  0  0
  1  5  1  0
  5  6  1  0
  5  9  2  0
  1  2  1  0
  1  3  1  0
  1  4  1  0
  6  7  1  0
  6  8  1  0
 10 14  1  0
 14 16  1  0
 16 17  2  0
 16 18  1  0
 10 11  1  0
 10 12  1  0
 10 13  1  0
 14 15  1  0
 18 19  1  0
 18 20  1  0
 18 21  1  0
M  END
>  <PDB_ID>  (185) 
pdb1jji

>  <RESIDUE_NAME>  (185) 
ASN   ILE

>  <FRAG_NAME>  (185) 
ACEM   NMA

>  <FRAG_ATOM_NUM>  (185) 
fragi: 9  fragj: 12

>  <atom.prop.CHAIN_ID>  (185) 
A A A A A A A A A Z Z Z Z Z Z Z Z Z Z Z Z

>  <atom.prop.IS_HEAVY_ATOM>  (185) 
1 0 0 0 1 1 0 0 1 1 0 0 0 1 0 1 1 1 0 0 0

>  <DIFUSE_FUNC_ATOM>  (185) 
n/a

>  <FINAL_SINGLE_POINT_ENERGY>  (185) 
0

>  <NONCOV_INTER_ENERGY_QM>  (185) 
0

>  <FF_Energy>  (185) 
11.75

>  <QM_Energy>  (185) 
27.52

>  <source>  (185) 
ACEM_nNMA_11

>  <Index>  (185) 
13328

$$$$
ACEM-pdb2ohy-A-ASN-438:NMA-pdb2ohy-A-GLY-70
     RDKit          3D

 21 19  0  0  0  0  0  0  0  0999 V2000
   -5.2957    1.2673    1.9001 C   0  0  0  0  0  0  0  0  0  0  0  0
   -5.5938    2.2161    1.9359 H   0  0  0  0  0  0  0  0  0  0  0  0
   -4.8319    1.0194    2.7455 H   0  0  0  0  0  0  0  0  0  0  0  0
   -6.1751    0.6326    1.7912 H   0  0  0  0  0  0  0  0  0  0  0  0
   -4.3116    1.1140    0.7453 C   0  0  0  0  0  0  0  0  0  0  0  0
   -3.0508    0.8651    1.0742 N   0  0  0  0  0  0  0  0  0  0  0  0
   -2.7926    0.7830    2.0387 H   0  0  0  0  0  0  0  0  0  0  0  0
   -2.3560    0.7599    0.3633 H   0  0  0  0  0  0  0  0  0  0  0  0
   -4.6799    1.2281   -0.4258 O   0  0  0  0  0  0  0  0  0  0  0  0
   -1.1392   -2.1758    0.0014 C   0  0  0  0  0  0  0  0  0  0  0  0
   -0.5452   -2.5206    0.7343 H   0  0  0  0  0  0  0  0  0  0  0  0
   -0.7945   -2.5649   -0.9567 H   0  0  0  0  0  0  0  0  0  0  0  0
   -2.1508   -2.5216    0.2141 H   0  0  0  0  0  0  0  0  0  0  0  0
   -1.1224   -0.7139    0.0000 N   0  0  0  0  0  0  0  0  0  0  0  0
   -1.9972   -0.1373   -0.0011 H   0  0  0  0  0  0  0  0  0  0  0  0
    0.0000    0.0000    0.0000 C   0  0  0  0  0  0  0  0  0  0  0  0
    1.1224   -0.5033    0.0000 O   0  0  0  0  0  0  0  0  0  0  0  0
   -0.1636    1.5065   -0.0082 C   0  0  0  0  0  0  0  0  0  0  0  0
    0.1609    1.8820    0.8679 H   0  0  0  0  0  0  0  0  0  0  0  0
   -1.1384    1.7355   -0.1088 H   0  0  0  0  0  0  0  0  0  0  0  0
    0.4032    1.9473   -0.8283 H   0  0  0  0  0  0  0  0  0  0  0  0
  1  5  1  0
  5  6  1  0
  5  9  2  0
  1  2  1  0
  1  3  1  0
  1  4  1  0
  6  7  1  0
  6  8  1  0
 10 14  1  0
 14 16  1  0
 16 17  2  0
 16 18  1  0
 10 11  1  0
 10 12  1  0
 10 13  1  0
 14 15  1  0
 18 19  1  0
 18 20  1  0
 18 21  1  0
M  END
>  <PDB_ID>  (186) 
pdb2ohy

>  <RESIDUE_NAME>  (186) 
ASN   GLY

>  <FRAG_NAME>  (186) 
ACEM   NMA

>  <FRAG_ATOM_NUM>  (186) 
fragi: 9  fragj: 12

>  <atom.prop.CHAIN_ID>  (186) 
A A A A A A A A A Z Z Z Z Z Z Z Z Z Z Z Z

>  <atom.prop.IS_HEAVY_ATOM>  (186) 
1 0 0 0 1 1 0 0 1 1 0 0 0 1 0 1 1 1 0 0 0

>  <DIFUSE_FUNC_ATOM>  (186) 
n/a

>  <FINAL_SINGLE_POINT_ENERGY>  (186) 
0

>  <NONCOV_INTER_ENERGY_QM>  (186) 
0

>  <FF_Energy>  (186) 
13.6

>  <QM_Energy>  (186) 
28.76

>  <source>  (186) 
ACEM_nNMA_11

>  <Index>  (186) 
14293

$$$$
ACEM-pdb2ok0-H-ASN-87:NMA-pdb2ok0-H-THR-110
     RDKit          3D

 21 19  0  0  0  0  0  0  0  0999 V2000
   -4.7138    2.3960    1.3605 C   0  0  0  0  0  0  0  0  0  0  0  0
   -5.7074    2.2968    1.4428 H   0  0  0  0  0  0  0  0  0  0  0  0
   -4.5043    3.2829    0.9433 H   0  0  0  0  0  0  0  0  0  0  0  0
   -4.2808    2.3749    2.3606 H   0  0  0  0  0  0  0  0  0  0  0  0
   -4.1918    1.3105    0.4761 C   0  0  0  0  0  0  0  0  0  0  0  0
   -3.2653    0.5186    1.0088 N   0  0  0  0  0  0  0  0  0  0  0  0
   -2.9599    0.6607    1.9488 H   0  0  0  0  0  0  0  0  0  0  0  0
   -2.8718   -0.2250    0.4639 H   0  0  0  0  0  0  0  0  0  0  0  0
   -4.5762    1.2020   -0.6811 O   0  0  0  0  0  0  0  0  0  0  0  0
   -1.0933   -2.1483    0.0419 C   0  0  0  0  0  0  0  0  0  0  0  0
   -0.1506   -2.4546    0.0945 H   0  0  0  0  0  0  0  0  0  0  0  0
   -1.5093   -2.4802   -0.9093 H   0  0  0  0  0  0  0  0  0  0  0  0
   -1.6762   -2.5157    0.8865 H   0  0  0  0  0  0  0  0  0  0  0  0
   -1.1114   -0.7139    0.0000 N   0  0  0  0  0  0  0  0  0  0  0  0
   -1.9892   -0.1459   -0.0328 H   0  0  0  0  0  0  0  0  0  0  0  0
    0.0000    0.0000    0.0000 C   0  0  0  0  0  0  0  0  0  0  0  0
    1.1114   -0.5084   -0.0000 O   0  0  0  0  0  0  0  0  0  0  0  0
   -0.1602    1.4873   -0.0016 C   0  0  0  0  0  0  0  0  0  0  0  0
   -1.1223    1.7077    0.1850 H   0  0  0  0  0  0  0  0  0  0  0  0
    0.4589    1.9095    0.7899 H   0  0  0  0  0  0  0  0  0  0  0  0
    0.1906    1.8746   -0.9583 H   0  0  0  0  0  0  0  0  0  0  0  0
  1  5  1  0
  5  6  1  0
  5  9  2  0
  1  2  1  0
  1  3  1  0
  1  4  1  0
  6  7  1  0
  6  8  1  0
 10 14  1  0
 14 16  1  0
 16 17  2  0
 16 18  1  0
 10 11  1  0
 10 12  1  0
 10 13  1  0
 14 15  1  0
 18 19  1  0
 18 20  1  0
 18 21  1  0
M  END
>  <PDB_ID>  (187) 
pdb2ok0

>  <RESIDUE_NAME>  (187) 
ASN   THR

>  <FRAG_NAME>  (187) 
ACEM   NMA

>  <FRAG_ATOM_NUM>  (187) 
fragi: 9  fragj: 12

>  <atom.prop.CHAIN_ID>  (187) 
A A A A A A A A A Z Z Z Z Z Z Z Z Z Z Z Z

>  <atom.prop.IS_HEAVY_ATOM>  (187) 
1 0 0 0 1 1 0 0 1 1 0 0 0 1 0 1 1 1 0 0 0

>  <DIFUSE_FUNC_ATOM>  (187) 
n/a

>  <FINAL_SINGLE_POINT_ENERGY>  (187) 
0

>  <NONCOV_INTER_ENERGY_QM>  (187) 
0

>  <FF_Energy>  (187) 
10.38

>  <QM_Energy>  (187) 
27.82

>  <source>  (187) 
ACEM_nNMA_11

>  <Index>  (187) 
15622

$$$$
ACEM-pdb2ohy-B-ASN-438:NMA-pdb2ohy-B-GLY-70
     RDKit          3D

 21 19  0  0  0  0  0  0  0  0999 V2000
   -5.5349    0.9025    2.1330 C   0  0  0  0  0  0  0  0  0  0  0  0
   -5.9619    1.8019    2.1317 H   0  0  0  0  0  0  0  0  0  0  0  0
   -4.9704    0.7901    2.9458 H   0  0  0  0  0  0  0  0  0  0  0  0
   -6.3223    0.1491    2.1565 H   0  0  0  0  0  0  0  0  0  0  0  0
   -4.6435    0.7879    0.9027 C   0  0  0  0  0  0  0  0  0  0  0  0
   -3.3308    0.7245    1.1284 N   0  0  0  0  0  0  0  0  0  0  0  0
   -2.9875    0.7471    2.0680 H   0  0  0  0  0  0  0  0  0  0  0  0
   -2.6950    0.6536    0.3624 H   0  0  0  0  0  0  0  0  0  0  0  0
   -5.1272    0.7738   -0.2388 O   0  0  0  0  0  0  0  0  0  0  0  0
   -1.1005   -2.1603    0.0067 C   0  0  0  0  0  0  0  0  0  0  0  0
   -0.6447   -2.4918    0.8471 H   0  0  0  0  0  0  0  0  0  0  0  0
   -0.5847   -2.5639   -0.8646 H   0  0  0  0  0  0  0  0  0  0  0  0
   -2.1192   -2.5469    0.0355 H   0  0  0  0  0  0  0  0  0  0  0  0
   -1.1206   -0.7088   -0.0000 N   0  0  0  0  0  0  0  0  0  0  0  0
   -1.9935   -0.1458   -0.0048 H   0  0  0  0  0  0  0  0  0  0  0  0
    0.0000    0.0000    0.0000 C   0  0  0  0  0  0  0  0  0  0  0  0
    1.1206   -0.5153   -0.0000 O   0  0  0  0  0  0  0  0  0  0  0  0
   -0.1748    1.5060   -0.0025 C   0  0  0  0  0  0  0  0  0  0  0  0
    0.1893    1.8851    0.8671 H   0  0  0  0  0  0  0  0  0  0  0  0
   -1.1669    1.7260   -0.0261 H   0  0  0  0  0  0  0  0  0  0  0  0
    0.3236    1.9868   -0.8441 H   0  0  0  0  0  0  0  0  0  0  0  0
  1  5  1  0
  5  6  1  0
  5  9  2  0
  1  2  1  0
  1  3  1  0
  1  4  1  0
  6  7  1  0
  6  8  1  0
 10 14  1  0
 14 16  1  0
 16 17  2  0
 16 18  1  0
 10 11  1  0
 10 12  1  0
 10 13  1  0
 14 15  1  0
 18 19  1  0
 18 20  1  0
 18 21  1  0
M  END
>  <PDB_ID>  (188) 
pdb2ohy

>  <RESIDUE_NAME>  (188) 
ASN   GLY

>  <FRAG_NAME>  (188) 
ACEM   NMA

>  <FRAG_ATOM_NUM>  (188) 
fragi: 9  fragj: 12

>  <atom.prop.CHAIN_ID>  (188) 
A A A A A A A A A Z Z Z Z Z Z Z Z Z Z Z Z

>  <atom.prop.IS_HEAVY_ATOM>  (188) 
1 0 0 0 1 1 0 0 1 1 0 0 0 1 0 1 1 1 0 0 0

>  <DIFUSE_FUNC_ATOM>  (188) 
n/a

>  <FINAL_SINGLE_POINT_ENERGY>  (188) 
0

>  <NONCOV_INTER_ENERGY_QM>  (188) 
0

>  <FF_Energy>  (188) 
8.18

>  <QM_Energy>  (188) 
18.59

>  <source>  (188) 
ACEM_nNMA_11

>  <Index>  (188) 
17572

$$$$
ACEM-pdb2okx-A-GLN-495:NMA-pdb2okx-A-CYS-490
     RDKit          3D

 21 19  0  0  0  0  0  0  0  0999 V2000
   -5.4057    0.7135   -1.7348 C   0  0  0  0  0  0  0  0  0  0  0  0
   -5.6913    0.5739   -2.6822 H   0  0  0  0  0  0  0  0  0  0  0  0
   -4.9051    1.5765   -1.6616 H   0  0  0  0  0  0  0  0  0  0  0  0
   -6.2939    0.7699   -1.1055 H   0  0  0  0  0  0  0  0  0  0  0  0
   -4.4810   -0.4183   -1.3365 C   0  0  0  0  0  0  0  0  0  0  0  0
   -3.6012   -0.1512   -0.3829 N   0  0  0  0  0  0  0  0  0  0  0  0
   -2.9548   -0.8662   -0.0517 H   0  0  0  0  0  0  0  0  0  0  0  0
   -3.5780    0.7844    0.0192 H   0  0  0  0  0  0  0  0  0  0  0  0
   -4.5646   -1.5271   -1.8757 O   0  0  0  0  0  0  0  0  0  0  0  0
   -1.1091   -2.1559   -0.0976 C   0  0  0  0  0  0  0  0  0  0  0  0
   -0.2394   -2.4892    0.1411 H   0  0  0  0  0  0  0  0  0  0  0  0
   -1.2342   -2.2412   -1.1770 H   0  0  0  0  0  0  0  0  0  0  0  0
   -1.9572   -2.6038    0.4202 H   0  0  0  0  0  0  0  0  0  0  0  0
   -1.1227   -0.7085   -0.0000 N   0  0  0  0  0  0  0  0  0  0  0  0
   -1.9929   -0.1443    0.0747 H   0  0  0  0  0  0  0  0  0  0  0  0
    0.0000    0.0000    0.0000 C   0  0  0  0  0  0  0  0  0  0  0  0
    1.1227   -0.4995   -0.0000 O   0  0  0  0  0  0  0  0  0  0  0  0
   -0.2000    1.5040   -0.0051 C   0  0  0  0  0  0  0  0  0  0  0  0
   -1.1633    1.6927    0.3618 H   0  0  0  0  0  0  0  0  0  0  0  0
    0.4836    2.1564    0.5382 H   0  0  0  0  0  0  0  0  0  0  0  0
   -0.2396    1.8159   -1.0487 H   0  0  0  0  0  0  0  0  0  0  0  0
  1  5  1  0
  5  6  1  0
  5  9  2  0
  1  2  1  0
  1  3  1  0
  1  4  1  0
  6  7  1  0
  6  8  1  0
 10 14  1  0
 14 16  1  0
 16 17  2  0
 16 18  1  0
 10 11  1  0
 10 12  1  0
 10 13  1  0
 14 15  1  0
 18 19  1  0
 18 20  1  0
 18 21  1  0
M  END
>  <PDB_ID>  (189) 
pdb2okx

>  <RESIDUE_NAME>  (189) 
GLN   CYS

>  <FRAG_NAME>  (189) 
ACEM   NMA

>  <FRAG_ATOM_NUM>  (189) 
fragi: 9  fragj: 12

>  <atom.prop.CHAIN_ID>  (189) 
A A A A A A A A A Z Z Z Z Z Z Z Z Z Z Z Z

>  <atom.prop.IS_HEAVY_ATOM>  (189) 
1 0 0 0 1 1 0 0 1 1 0 0 0 1 0 1 1 1 0 0 0

>  <DIFUSE_FUNC_ATOM>  (189) 
n/a

>  <FINAL_SINGLE_POINT_ENERGY>  (189) 
0

>  <NONCOV_INTER_ENERGY_QM>  (189) 
0

>  <FF_Energy>  (189) 
15.48

>  <QM_Energy>  (189) 
26.2

>  <source>  (189) 
ACEM_nNMA_11

>  <Index>  (189) 
20375

$$$$
ACEM-pdb2okx-A-ASN-547:NMA-pdb2okx-A-ARG-540
     RDKit          3D

 21 19  0  0  0  0  0  0  0  0999 V2000
   -5.0802    2.1784    0.8803 C   0  0  0  0  0  0  0  0  0  0  0  0
   -6.0222    1.9406    0.6575 H   0  0  0  0  0  0  0  0  0  0  0  0
   -4.8432    3.0550    0.4682 H   0  0  0  0  0  0  0  0  0  0  0  0
   -4.9977    2.2763    1.9628 H   0  0  0  0  0  0  0  0  0  0  0  0
   -4.1662    1.1165    0.3269 C   0  0  0  0  0  0  0  0  0  0  0  0
   -3.1983    0.6881    1.1318 N   0  0  0  0  0  0  0  0  0  0  0  0
   -3.1133    1.0676    2.0542 H   0  0  0  0  0  0  0  0  0  0  0  0
   -2.5577   -0.0118    0.8188 H   0  0  0  0  0  0  0  0  0  0  0  0
   -4.3311    0.6787   -0.8139 O   0  0  0  0  0  0  0  0  0  0  0  0
   -1.0695   -2.1645   -0.0224 C   0  0  0  0  0  0  0  0  0  0  0  0
   -0.2380   -2.4488   -0.5132 H   0  0  0  0  0  0  0  0  0  0  0  0
   -1.9288   -2.5715   -0.5554 H   0  0  0  0  0  0  0  0  0  0  0  0
   -1.0231   -2.5600    0.9922 H   0  0  0  0  0  0  0  0  0  0  0  0
   -1.1200   -0.7151    0.0000 N   0  0  0  0  0  0  0  0  0  0  0  0
   -1.9933   -0.1650    0.0169 H   0  0  0  0  0  0  0  0  0  0  0  0
    0.0000    0.0000    0.0000 C   0  0  0  0  0  0  0  0  0  0  0  0
    1.1200   -0.5124   -0.0000 O   0  0  0  0  0  0  0  0  0  0  0  0
   -0.1471    1.5106    0.0076 C   0  0  0  0  0  0  0  0  0  0  0  0
   -0.9950    1.7513    0.4569 H   0  0  0  0  0  0  0  0  0  0  0  0
    0.6864    1.8968    0.5943 H   0  0  0  0  0  0  0  0  0  0  0  0
   -0.1299    1.8650   -1.0230 H   0  0  0  0  0  0  0  0  0  0  0  0
  1  5  1  0
  5  6  1  0
  5  9  2  0
  1  2  1  0
  1  3  1  0
  1  4  1  0
  6  7  1  0
  6  8  1  0
 10 14  1  0
 14 16  1  0
 16 17  2  0
 16 18  1  0
 10 11  1  0
 10 12  1  0
 10 13  1  0
 14 15  1  0
 18 19  1  0
 18 20  1  0
 18 21  1  0
M  END
>  <PDB_ID>  (190) 
pdb2okx

>  <RESIDUE_NAME>  (190) 
ASN   ARG

>  <FRAG_NAME>  (190) 
ACEM   NMA

>  <FRAG_ATOM_NUM>  (190) 
fragi: 9  fragj: 12

>  <atom.prop.CHAIN_ID>  (190) 
A A A A A A A A A Z Z Z Z Z Z Z Z Z Z Z Z

>  <atom.prop.IS_HEAVY_ATOM>  (190) 
1 0 0 0 1 1 0 0 1 1 0 0 0 1 0 1 1 1 0 0 0

>  <DIFUSE_FUNC_ATOM>  (190) 
n/a

>  <FINAL_SINGLE_POINT_ENERGY>  (190) 
0

>  <NONCOV_INTER_ENERGY_QM>  (190) 
0

>  <FF_Energy>  (190) 
8.8

>  <QM_Energy>  (190) 
26.34

>  <source>  (190) 
ACEM_nNMA_11

>  <Index>  (190) 
20781

$$$$
ACEM-pdb2oog-A-ASN-107:NMA-pdb2oog-A-HID-113
     RDKit          3D

 21 19  0  0  0  0  0  0  0  0999 V2000
   -4.3845    2.9682    1.7048 C   0  0  0  0  0  0  0  0  0  0  0  0
   -5.2544    2.6893    2.1061 H   0  0  0  0  0  0  0  0  0  0  0  0
   -4.5007    3.8235    1.2035 H   0  0  0  0  0  0  0  0  0  0  0  0
   -3.6699    3.1353    2.5108 H   0  0  0  0  0  0  0  0  0  0  0  0
   -3.9416    1.8896    0.7203 C   0  0  0  0  0  0  0  0  0  0  0  0
   -3.2120    0.9029    1.2243 N   0  0  0  0  0  0  0  0  0  0  0  0
   -2.9866    0.8913    2.1996 H   0  0  0  0  0  0  0  0  0  0  0  0
   -2.8848    0.1663    0.6308 H   0  0  0  0  0  0  0  0  0  0  0  0
   -4.2322    1.9504   -0.4709 O   0  0  0  0  0  0  0  0  0  0  0  0
   -1.0691   -2.1580   -0.0018 C   0  0  0  0  0  0  0  0  0  0  0  0
   -1.6456   -2.5117   -0.7590 H   0  0  0  0  0  0  0  0  0  0  0  0
   -0.1169   -2.4579   -0.1908 H   0  0  0  0  0  0  0  0  0  0  0  0
   -1.4039   -2.5908    0.9410 H   0  0  0  0  0  0  0  0  0  0  0  0
   -1.1216   -0.7049   -0.0000 N   0  0  0  0  0  0  0  0  0  0  0  0
   -1.9927   -0.1577    0.0011 H   0  0  0  0  0  0  0  0  0  0  0  0
    0.0000    0.0000    0.0000 C   0  0  0  0  0  0  0  0  0  0  0  0
    1.1216   -0.5327   -0.0000 O   0  0  0  0  0  0  0  0  0  0  0  0
   -0.1610    1.5189   -0.0038 C   0  0  0  0  0  0  0  0  0  0  0  0
   -0.9399    1.7548    0.5759 H   0  0  0  0  0  0  0  0  0  0  0  0
    0.7327    1.9792    0.4175 H   0  0  0  0  0  0  0  0  0  0  0  0
   -0.3457    1.8588   -1.0228 H   0  0  0  0  0  0  0  0  0  0  0  0
  1  5  1  0
  5  6  1  0
  5  9  2  0
  1  2  1  0
  1  3  1  0
  1  4  1  0
  6  7  1  0
  6  8  1  0
 10 14  1  0
 14 16  1  0
 16 17  2  0
 16 18  1  0
 10 11  1  0
 10 12  1  0
 10 13  1  0
 14 15  1  0
 18 19  1  0
 18 20  1  0
 18 21  1  0
M  END
>  <PDB_ID>  (191) 
pdb2oog

>  <RESIDUE_NAME>  (191) 
ASN   HID

>  <FRAG_NAME>  (191) 
ACEM   NMA

>  <FRAG_ATOM_NUM>  (191) 
fragi: 9  fragj: 12

>  <atom.prop.CHAIN_ID>  (191) 
A A A A A A A A A Z Z Z Z Z Z Z Z Z Z Z Z

>  <atom.prop.IS_HEAVY_ATOM>  (191) 
1 0 0 0 1 1 0 0 1 1 0 0 0 1 0 1 1 1 0 0 0

>  <DIFUSE_FUNC_ATOM>  (191) 
n/a

>  <FINAL_SINGLE_POINT_ENERGY>  (191) 
0

>  <NONCOV_INTER_ENERGY_QM>  (191) 
0

>  <FF_Energy>  (191) 
5.13

>  <QM_Energy>  (191) 
16.16

>  <source>  (191) 
ACEM_nNMA_11

>  <Index>  (191) 
21155

$$$$
ACEM-pdb2oqc-A-GLN-300:NMA-pdb2oqc-A-ALA-319
     RDKit          3D

 21 19  0  0  0  0  0  0  0  0999 V2000
   -5.6647    1.5557   -1.1801 C   0  0  0  0  0  0  0  0  0  0  0  0
   -6.1992    0.9486   -0.5690 H   0  0  0  0  0  0  0  0  0  0  0  0
   -6.0551    1.4669   -2.1111 H   0  0  0  0  0  0  0  0  0  0  0  0
   -5.8061    2.5841   -0.8477 H   0  0  0  0  0  0  0  0  0  0  0  0
   -4.2354    1.0632   -1.2106 C   0  0  0  0  0  0  0  0  0  0  0  0
   -3.6479    0.8721   -0.0544 N   0  0  0  0  0  0  0  0  0  0  0  0
   -2.6883    0.5275    0.0069 H   0  0  0  0  0  0  0  0  0  0  0  0
   -4.1631    1.0742    0.8077 H   0  0  0  0  0  0  0  0  0  0  0  0
   -3.6849    0.7903   -2.3015 O   0  0  0  0  0  0  0  0  0  0  0  0
   -1.2578   -2.0268   -0.4674 C   0  0  0  0  0  0  0  0  0  0  0  0
   -0.6081   -2.5977   -0.0039 H   0  0  0  0  0  0  0  0  0  0  0  0
   -0.9763   -1.9584   -1.5182 H   0  0  0  0  0  0  0  0  0  0  0  0
   -2.2924   -2.3525   -0.3595 H   0  0  0  0  0  0  0  0  0  0  0  0
   -1.1429   -0.6729   -0.0000 N   0  0  0  0  0  0  0  0  0  0  0  0
   -1.9582   -0.1213    0.3750 H   0  0  0  0  0  0  0  0  0  0  0  0
    0.0000    0.0000    0.0000 C   0  0  0  0  0  0  0  0  0  0  0  0
    1.1429   -0.5423   -0.0000 O   0  0  0  0  0  0  0  0  0  0  0  0
   -0.1369    1.5330    0.0347 C   0  0  0  0  0  0  0  0  0  0  0  0
   -1.0384    1.7575    0.4393 H   0  0  0  0  0  0  0  0  0  0  0  0
    0.6463    2.0107    0.6234 H   0  0  0  0  0  0  0  0  0  0  0  0
   -0.1035    1.9335   -0.9784 H   0  0  0  0  0  0  0  0  0  0  0  0
  1  5  1  0
  5  6  1  0
  5  9  2  0
  1  2  1  0
  1  3  1  0
  1  4  1  0
  6  7  1  0
  6  8  1  0
 10 14  1  0
 14 16  1  0
 16 17  2  0
 16 18  1  0
 10 11  1  0
 10 12  1  0
 10 13  1  0
 14 15  1  0
 18 19  1  0
 18 20  1  0
 18 21  1  0
M  END
>  <PDB_ID>  (192) 
pdb2oqc

>  <RESIDUE_NAME>  (192) 
GLN   ALA

>  <FRAG_NAME>  (192) 
ACEM   NMA

>  <FRAG_ATOM_NUM>  (192) 
fragi: 9  fragj: 12

>  <atom.prop.CHAIN_ID>  (192) 
A A A A A A A A A Z Z Z Z Z Z Z Z Z Z Z Z

>  <atom.prop.IS_HEAVY_ATOM>  (192) 
1 0 0 0 1 1 0 0 1 1 0 0 0 1 0 1 1 1 0 0 0

>  <DIFUSE_FUNC_ATOM>  (192) 
n/a

>  <FINAL_SINGLE_POINT_ENERGY>  (192) 
0

>  <NONCOV_INTER_ENERGY_QM>  (192) 
0

>  <FF_Energy>  (192) 
9.49

>  <QM_Energy>  (192) 
21.47

>  <source>  (192) 
ACEM_nNMA_11

>  <Index>  (192) 
24484

$$$$
ACEM-pdb1k2d-A-ASN-62:NMA-pdb1k2d-P-GLN-3
     RDKit          3D

 21 19  0  0  0  0  0  0  0  0999 V2000
   -5.5371   -0.4720    2.1169 C   0  0  0  0  0  0  0  0  0  0  0  0
   -6.0961   -0.0330    2.8107 H   0  0  0  0  0  0  0  0  0  0  0  0
   -5.1236   -1.3010    2.4756 H   0  0  0  0  0  0  0  0  0  0  0  0
   -6.1787   -0.7432    1.2784 H   0  0  0  0  0  0  0  0  0  0  0  0
   -4.4362    0.4820    1.7040 C   0  0  0  0  0  0  0  0  0  0  0  0
   -3.4159   -0.0380    1.0377 N   0  0  0  0  0  0  0  0  0  0  0  0
   -3.4066   -1.0182    0.8273 H   0  0  0  0  0  0  0  0  0  0  0  0
   -2.6572    0.5415    0.7430 H   0  0  0  0  0  0  0  0  0  0  0  0
   -4.4949    1.6737    2.0026 O   0  0  0  0  0  0  0  0  0  0  0  0
   -1.1101   -2.2027   -0.0931 C   0  0  0  0  0  0  0  0  0  0  0  0
   -0.2407   -2.5283    0.1950 H   0  0  0  0  0  0  0  0  0  0  0  0
   -1.1985   -2.3703   -1.1665 H   0  0  0  0  0  0  0  0  0  0  0  0
   -1.9786   -2.6069    0.4270 H   0  0  0  0  0  0  0  0  0  0  0  0
   -1.1148   -0.7307   -0.0000 N   0  0  0  0  0  0  0  0  0  0  0  0
   -1.9963   -0.1754    0.0717 H   0  0  0  0  0  0  0  0  0  0  0  0
    0.0000    0.0000    0.0000 C   0  0  0  0  0  0  0  0  0  0  0  0
    1.1148   -0.5015   -0.0000 O   0  0  0  0  0  0  0  0  0  0  0  0
   -0.1592    1.5344    0.0211 C   0  0  0  0  0  0  0  0  0  0  0  0
   -1.1454    1.7349    0.1573 H   0  0  0  0  0  0  0  0  0  0  0  0
    0.3930    2.0250    0.8227 H   0  0  0  0  0  0  0  0  0  0  0  0
    0.1716    1.9069   -0.9483 H   0  0  0  0  0  0  0  0  0  0  0  0
  1  5  1  0
  5  6  1  0
  5  9  2  0
  1  2  1  0
  1  3  1  0
  1  4  1  0
  6  7  1  0
  6  8  1  0
 10 14  1  0
 14 16  1  0
 16 17  2  0
 16 18  1  0
 10 11  1  0
 10 12  1  0
 10 13  1  0
 14 15  1  0
 18 19  1  0
 18 20  1  0
 18 21  1  0
M  END
>  <PDB_ID>  (193) 
pdb1k2d

>  <RESIDUE_NAME>  (193) 
ASN   GLN

>  <FRAG_NAME>  (193) 
ACEM   NMA

>  <FRAG_ATOM_NUM>  (193) 
fragi: 9  fragj: 12

>  <atom.prop.CHAIN_ID>  (193) 
A A A A A A A A A Z Z Z Z Z Z Z Z Z Z Z Z

>  <atom.prop.IS_HEAVY_ATOM>  (193) 
1 0 0 0 1 1 0 0 1 1 0 0 0 1 0 1 1 1 0 0 0

>  <DIFUSE_FUNC_ATOM>  (193) 
n/a

>  <FINAL_SINGLE_POINT_ENERGY>  (193) 
0

>  <NONCOV_INTER_ENERGY_QM>  (193) 
0

>  <FF_Energy>  (193) 
12.76

>  <QM_Energy>  (193) 
22.85

>  <source>  (193) 
ACEM_nNMA_11

>  <Index>  (193) 
24576

$$$$
ACEM-pdb1k4w-A-ASN-218:NMA-pdb1k4w-A-ILE-280
     RDKit          3D

 21 19  0  0  0  0  0  0  0  0999 V2000
   -5.2954    1.4599   -2.0450 C   0  0  0  0  0  0  0  0  0  0  0  0
   -6.0081    0.7621   -2.0391 H   0  0  0  0  0  0  0  0  0  0  0  0
   -4.8230    1.4547   -2.9242 H   0  0  0  0  0  0  0  0  0  0  0  0
   -5.7682    2.4336   -1.9171 H   0  0  0  0  0  0  0  0  0  0  0  0
   -4.2986    1.1452   -0.9554 C   0  0  0  0  0  0  0  0  0  0  0  0
   -3.1361    0.6070   -1.3325 N   0  0  0  0  0  0  0  0  0  0  0  0
   -2.9698    0.4409   -2.3068 H   0  0  0  0  0  0  0  0  0  0  0  0
   -2.4472    0.3757   -0.6552 H   0  0  0  0  0  0  0  0  0  0  0  0
   -4.5624    1.3988    0.2130 O   0  0  0  0  0  0  0  0  0  0  0  0
   -1.0934   -2.1814    0.0367 C   0  0  0  0  0  0  0  0  0  0  0  0
   -0.9060   -2.4728    0.9981 H   0  0  0  0  0  0  0  0  0  0  0  0
   -0.3424   -2.6408   -0.6060 H   0  0  0  0  0  0  0  0  0  0  0  0
   -2.0673   -2.5985   -0.2195 H   0  0  0  0  0  0  0  0  0  0  0  0
   -1.1204   -0.7206   -0.0000 N   0  0  0  0  0  0  0  0  0  0  0  0
   -1.9959   -0.1656   -0.0277 H   0  0  0  0  0  0  0  0  0  0  0  0
    0.0000    0.0000    0.0000 C   0  0  0  0  0  0  0  0  0  0  0  0
    1.1204   -0.5088    0.0000 O   0  0  0  0  0  0  0  0  0  0  0  0
   -0.1723    1.5196   -0.0060 C   0  0  0  0  0  0  0  0  0  0  0  0
   -1.1319    1.6942   -0.2022 H   0  0  0  0  0  0  0  0  0  0  0  0
    0.0097    1.8884    1.0034 H   0  0  0  0  0  0  0  0  0  0  0  0
    0.5175    1.9597   -0.7263 H   0  0  0  0  0  0  0  0  0  0  0  0
  1  5  1  0
  5  6  1  0
  5  9  2  0
  1  2  1  0
  1  3  1  0
  1  4  1  0
  6  7  1  0
  6  8  1  0
 10 14  1  0
 14 16  1  0
 16 17  2  0
 16 18  1  0
 10 11  1  0
 10 12  1  0
 10 13  1  0
 14 15  1  0
 18 19  1  0
 18 20  1  0
 18 21  1  0
M  END
>  <PDB_ID>  (194) 
pdb1k4w

>  <RESIDUE_NAME>  (194) 
ASN   ILE

>  <FRAG_NAME>  (194) 
ACEM   NMA

>  <FRAG_ATOM_NUM>  (194) 
fragi: 9  fragj: 12

>  <atom.prop.CHAIN_ID>  (194) 
A A A A A A A A A Z Z Z Z Z Z Z Z Z Z Z Z

>  <atom.prop.IS_HEAVY_ATOM>  (194) 
1 0 0 0 1 1 0 0 1 1 0 0 0 1 0 1 1 1 0 0 0

>  <DIFUSE_FUNC_ATOM>  (194) 
n/a

>  <FINAL_SINGLE_POINT_ENERGY>  (194) 
0

>  <NONCOV_INTER_ENERGY_QM>  (194) 
0

>  <FF_Energy>  (194) 
11.54

>  <QM_Energy>  (194) 
31.98

>  <source>  (194) 
ACEM_nNMA_11

>  <Index>  (194) 
25678

$$$$
ACEM-pdb2oyy-B-ASN-68:NMA-pdb2oyy-B-VAL-7
     RDKit          3D

 21 19  0  0  0  0  0  0  0  0999 V2000
   -5.6033    1.0425    1.1102 C   0  0  0  0  0  0  0  0  0  0  0  0
   -6.2440    0.7652    1.8183 H   0  0  0  0  0  0  0  0  0  0  0  0
   -5.7824    0.5471    0.2669 H   0  0  0  0  0  0  0  0  0  0  0  0
   -5.7311    2.1085    0.9221 H   0  0  0  0  0  0  0  0  0  0  0  0
   -4.2019    0.7194    1.5725 C   0  0  0  0  0  0  0  0  0  0  0  0
   -3.3666    0.3057    0.6229 N   0  0  0  0  0  0  0  0  0  0  0  0
   -3.6700    0.2284   -0.3231 H   0  0  0  0  0  0  0  0  0  0  0  0
   -2.4205    0.0686    0.8619 H   0  0  0  0  0  0  0  0  0  0  0  0
   -3.8575    0.8589    2.7614 O   0  0  0  0  0  0  0  0  0  0  0  0
   -1.1593   -2.1476    0.0327 C   0  0  0  0  0  0  0  0  0  0  0  0
   -0.2596   -2.5015   -0.2351 H   0  0  0  0  0  0  0  0  0  0  0  0
   -1.8961   -2.5129   -0.6826 H   0  0  0  0  0  0  0  0  0  0  0  0
   -1.3836   -2.4844    1.0449 H   0  0  0  0  0  0  0  0  0  0  0  0
   -1.1242   -0.7023   -0.0000 N   0  0  0  0  0  0  0  0  0  0  0  0
   -1.9946   -0.1097   -0.0258 H   0  0  0  0  0  0  0  0  0  0  0  0
    0.0000    0.0000    0.0000 C   0  0  0  0  0  0  0  0  0  0  0  0
    1.1242   -0.5059   -0.0000 O   0  0  0  0  0  0  0  0  0  0  0  0
   -0.1976    1.5119    0.0129 C   0  0  0  0  0  0  0  0  0  0  0  0
   -1.1666    1.6933    0.2141 H   0  0  0  0  0  0  0  0  0  0  0  0
    0.4082    1.9706    0.7944 H   0  0  0  0  0  0  0  0  0  0  0  0
   -0.0003    1.9569   -0.9624 H   0  0  0  0  0  0  0  0  0  0  0  0
  1  5  1  0
  5  6  1  0
  5  9  2  0
  1  2  1  0
  1  3  1  0
  1  4  1  0
  6  7  1  0
  6  8  1  0
 10 14  1  0
 14 16  1  0
 16 17  2  0
 16 18  1  0
 10 11  1  0
 10 12  1  0
 10 13  1  0
 14 15  1  0
 18 19  1  0
 18 20  1  0
 18 21  1  0
M  END
>  <PDB_ID>  (195) 
pdb2oyy

>  <RESIDUE_NAME>  (195) 
ASN   VAL

>  <FRAG_NAME>  (195) 
ACEM   NMA

>  <FRAG_ATOM_NUM>  (195) 
fragi: 9  fragj: 12

>  <atom.prop.CHAIN_ID>  (195) 
A A A A A A A A A Z Z Z Z Z Z Z Z Z Z Z Z

>  <atom.prop.IS_HEAVY_ATOM>  (195) 
1 0 0 0 1 1 0 0 1 1 0 0 0 1 0 1 1 1 0 0 0

>  <DIFUSE_FUNC_ATOM>  (195) 
n/a

>  <FINAL_SINGLE_POINT_ENERGY>  (195) 
0

>  <NONCOV_INTER_ENERGY_QM>  (195) 
0

>  <FF_Energy>  (195) 
21.37

>  <QM_Energy>  (195) 
38.63

>  <source>  (195) 
ACEM_nNMA_12

>  <Index>  (195) 
2158

$$$$
ACEM-pdb1k7h-B-ASN-30:NMA-pdb1k7h-B-GLY-304
     RDKit          3D

 21 19  0  0  0  0  0  0  0  0999 V2000
   -5.1379    0.5411    0.9910 C   0  0  0  0  0  0  0  0  0  0  0  0
   -5.9919    0.9799    1.2572 H   0  0  0  0  0  0  0  0  0  0  0  0
   -5.1338   -0.4091    1.2915 H   0  0  0  0  0  0  0  0  0  0  0  0
   -5.0360    0.5768   -0.0936 H   0  0  0  0  0  0  0  0  0  0  0  0
   -3.9923    1.2682    1.7260 C   0  0  0  0  0  0  0  0  0  0  0  0
   -2.7624    0.8897    1.4247 N   0  0  0  0  0  0  0  0  0  0  0  0
   -2.6146    0.1667    0.7434 H   0  0  0  0  0  0  0  0  0  0  0  0
   -1.9771    1.3177    1.8703 H   0  0  0  0  0  0  0  0  0  0  0  0
   -4.2325    2.1681    2.5104 O   0  0  0  0  0  0  0  0  0  0  0  0
   -1.0676   -2.1854   -0.0459 C   0  0  0  0  0  0  0  0  0  0  0  0
   -0.2971   -2.4264   -0.6580 H   0  0  0  0  0  0  0  0  0  0  0  0
   -1.9558   -2.6508   -0.4735 H   0  0  0  0  0  0  0  0  0  0  0  0
   -0.9246   -2.6081    0.9485 H   0  0  0  0  0  0  0  0  0  0  0  0
   -1.1312   -0.7140   -0.0000 N   0  0  0  0  0  0  0  0  0  0  0  0
   -1.9990   -0.1771    0.0335 H   0  0  0  0  0  0  0  0  0  0  0  0
    0.0000    0.0000    0.0000 C   0  0  0  0  0  0  0  0  0  0  0  0
    1.1312   -0.5528   -0.0000 O   0  0  0  0  0  0  0  0  0  0  0  0
   -0.1573    1.5049    0.0145 C   0  0  0  0  0  0  0  0  0  0  0  0
   -0.7897    1.7693    0.7745 H   0  0  0  0  0  0  0  0  0  0  0  0
   -0.6220    1.8030   -0.8481 H   0  0  0  0  0  0  0  0  0  0  0  0
    0.7750    2.0591    0.1222 H   0  0  0  0  0  0  0  0  0  0  0  0
  1  5  1  0
  5  6  1  0
  5  9  2  0
  1  2  1  0
  1  3  1  0
  1  4  1  0
  6  7  1  0
  6  8  1  0
 10 14  1  0
 14 16  1  0
 16 17  2  0
 16 18  1  0
 10 11  1  0
 10 12  1  0
 10 13  1  0
 14 15  1  0
 18 19  1  0
 18 20  1  0
 18 21  1  0
M  END
>  <PDB_ID>  (196) 
pdb1k7h

>  <RESIDUE_NAME>  (196) 
ASN   GLY

>  <FRAG_NAME>  (196) 
ACEM   NMA

>  <FRAG_ATOM_NUM>  (196) 
fragi: 9  fragj: 12

>  <atom.prop.CHAIN_ID>  (196) 
A A A A A A A A A Z Z Z Z Z Z Z Z Z Z Z Z

>  <atom.prop.IS_HEAVY_ATOM>  (196) 
1 0 0 0 1 1 0 0 1 1 0 0 0 1 0 1 1 1 0 0 0

>  <DIFUSE_FUNC_ATOM>  (196) 
n/a

>  <FINAL_SINGLE_POINT_ENERGY>  (196) 
0

>  <NONCOV_INTER_ENERGY_QM>  (196) 
0

>  <FF_Energy>  (196) 
19.72

>  <QM_Energy>  (196) 
33.34

>  <source>  (196) 
ACEM_nNMA_12

>  <Index>  (196) 
3653

$$$$
ACEM-pdb1kjn-B-GLN-21:NMA-pdb1kjn-B-LEU-13
     RDKit          3D

 21 19  0  0  0  0  0  0  0  0999 V2000
   -5.1852    1.1721   -2.3879 C   0  0  0  0  0  0  0  0  0  0  0  0
   -4.6038    1.7512   -2.9651 H   0  0  0  0  0  0  0  0  0  0  0  0
   -5.4732    1.6972   -1.5836 H   0  0  0  0  0  0  0  0  0  0  0  0
   -6.0720    0.8920   -2.9564 H   0  0  0  0  0  0  0  0  0  0  0  0
   -4.3733   -0.0163   -1.9247 C   0  0  0  0  0  0  0  0  0  0  0  0
   -3.6024    0.1801   -0.8505 N   0  0  0  0  0  0  0  0  0  0  0  0
   -3.0385   -0.5770   -0.4725 H   0  0  0  0  0  0  0  0  0  0  0  0
   -3.5905    1.1000   -0.4201 H   0  0  0  0  0  0  0  0  0  0  0  0
   -4.4409   -1.1073   -2.5075 O   0  0  0  0  0  0  0  0  0  0  0  0
   -1.1218   -2.1454    0.0725 C   0  0  0  0  0  0  0  0  0  0  0  0
   -0.2809   -2.4606    0.5178 H   0  0  0  0  0  0  0  0  0  0  0  0
   -1.9114   -2.4631    0.6016 H   0  0  0  0  0  0  0  0  0  0  0  0
   -1.1729   -2.5557   -0.9361 H   0  0  0  0  0  0  0  0  0  0  0  0
   -1.1279   -0.7007    0.0000 N   0  0  0  0  0  0  0  0  0  0  0  0
   -1.9941   -0.1284   -0.0558 H   0  0  0  0  0  0  0  0  0  0  0  0
    0.0000    0.0000    0.0000 C   0  0  0  0  0  0  0  0  0  0  0  0
    1.1279   -0.5149   -0.0000 O   0  0  0  0  0  0  0  0  0  0  0  0
   -0.1772    1.5066   -0.1159 C   0  0  0  0  0  0  0  0  0  0  0  0
   -1.0464    1.7624    0.3306 H   0  0  0  0  0  0  0  0  0  0  0  0
    0.6312    2.0517    0.3713 H   0  0  0  0  0  0  0  0  0  0  0  0
   -0.2403    1.7624   -1.1736 H   0  0  0  0  0  0  0  0  0  0  0  0
  1  5  1  0
  5  6  1  0
  5  9  2  0
  1  2  1  0
  1  3  1  0
  1  4  1  0
  6  7  1  0
  6  8  1  0
 10 14  1  0
 14 16  1  0
 16 17  2  0
 16 18  1  0
 10 11  1  0
 10 12  1  0
 10 13  1  0
 14 15  1  0
 18 19  1  0
 18 20  1  0
 18 21  1  0
M  END
>  <PDB_ID>  (197) 
pdb1kjn

>  <RESIDUE_NAME>  (197) 
GLN   LEU

>  <FRAG_NAME>  (197) 
ACEM   NMA

>  <FRAG_ATOM_NUM>  (197) 
fragi: 9  fragj: 12

>  <atom.prop.CHAIN_ID>  (197) 
A A A A A A A A A Z Z Z Z Z Z Z Z Z Z Z Z

>  <atom.prop.IS_HEAVY_ATOM>  (197) 
1 0 0 0 1 1 0 0 1 1 0 0 0 1 0 1 1 1 0 0 0

>  <DIFUSE_FUNC_ATOM>  (197) 
n/a

>  <FINAL_SINGLE_POINT_ENERGY>  (197) 
0

>  <NONCOV_INTER_ENERGY_QM>  (197) 
0

>  <FF_Energy>  (197) 
8.12

>  <QM_Energy>  (197) 
18.43

>  <source>  (197) 
ACEM_nNMA_12

>  <Index>  (197) 
6384

$$$$
ACEM-pdb1k9a-D-GLN-91:NMA-pdb1k9a-D-ILE-87
     RDKit          3D

 21 19  0  0  0  0  0  0  0  0999 V2000
   -2.0610    0.1136   -3.4432 C   0  0  0  0  0  0  0  0  0  0  0  0
   -1.7175   -0.6487   -2.8990 H   0  0  0  0  0  0  0  0  0  0  0  0
   -1.3038    0.7004   -3.7213 H   0  0  0  0  0  0  0  0  0  0  0  0
   -2.5514   -0.2789   -4.3341 H   0  0  0  0  0  0  0  0  0  0  0  0
   -3.0104    0.9303   -2.5788 C   0  0  0  0  0  0  0  0  0  0  0  0
   -3.1622    0.5277   -1.3215 N   0  0  0  0  0  0  0  0  0  0  0  0
   -3.7684    1.0317   -0.6833 H   0  0  0  0  0  0  0  0  0  0  0  0
   -2.6576   -0.3004   -1.0071 H   0  0  0  0  0  0  0  0  0  0  0  0
   -3.6006    1.9098   -3.0380 O   0  0  0  0  0  0  0  0  0  0  0  0
   -1.0792   -2.1799   -0.0042 C   0  0  0  0  0  0  0  0  0  0  0  0
   -0.7967   -2.4928    0.9082 H   0  0  0  0  0  0  0  0  0  0  0  0
   -0.3502   -2.5345   -0.7328 H   0  0  0  0  0  0  0  0  0  0  0  0
   -2.0484   -2.6139   -0.2500 H   0  0  0  0  0  0  0  0  0  0  0  0
   -1.1211   -0.7215   -0.0000 N   0  0  0  0  0  0  0  0  0  0  0  0
   -1.9961   -0.1707    0.0034 H   0  0  0  0  0  0  0  0  0  0  0  0
    0.0000    0.0000    0.0000 C   0  0  0  0  0  0  0  0  0  0  0  0
    1.1211   -0.5127   -0.0000 O   0  0  0  0  0  0  0  0  0  0  0  0
   -0.1560    1.5231    0.0136 C   0  0  0  0  0  0  0  0  0  0  0  0
   -1.1042    1.7069    0.2597 H   0  0  0  0  0  0  0  0  0  0  0  0
    0.4584    1.9329    0.8154 H   0  0  0  0  0  0  0  0  0  0  0  0
    0.1388    1.9333   -0.9523 H   0  0  0  0  0  0  0  0  0  0  0  0
  1  5  1  0
  5  6  1  0
  5  9  2  0
  1  2  1  0
  1  3  1  0
  1  4  1  0
  6  7  1  0
  6  8  1  0
 10 14  1  0
 14 16  1  0
 16 17  2  0
 16 18  1  0
 10 11  1  0
 10 12  1  0
 10 13  1  0
 14 15  1  0
 18 19  1  0
 18 20  1  0
 18 21  1  0
M  END
>  <PDB_ID>  (198) 
pdb1k9a

>  <RESIDUE_NAME>  (198) 
GLN   ILE

>  <FRAG_NAME>  (198) 
ACEM   NMA

>  <FRAG_ATOM_NUM>  (198) 
fragi: 9  fragj: 12

>  <atom.prop.CHAIN_ID>  (198) 
A A A A A A A A A Z Z Z Z Z Z Z Z Z Z Z Z

>  <atom.prop.IS_HEAVY_ATOM>  (198) 
1 0 0 0 1 1 0 0 1 1 0 0 0 1 0 1 1 1 0 0 0

>  <DIFUSE_FUNC_ATOM>  (198) 
n/a

>  <FINAL_SINGLE_POINT_ENERGY>  (198) 
0

>  <NONCOV_INTER_ENERGY_QM>  (198) 
0

>  <FF_Energy>  (198) 
5.35

>  <QM_Energy>  (198) 
16.24

>  <source>  (198) 
ACEM_nNMA_12

>  <Index>  (198) 
7873

$$$$
ACEM-pdb1kj1-Q-ASN-6:NMA-pdb1kj1-Q-ASN-84
     RDKit          3D

 21 19  0  0  0  0  0  0  0  0999 V2000
   -5.6200    1.6216   -0.6619 C   0  0  0  0  0  0  0  0  0  0  0  0
   -5.7704    2.2299   -1.4392 H   0  0  0  0  0  0  0  0  0  0  0  0
   -5.9629    2.0489    0.1729 H   0  0  0  0  0  0  0  0  0  0  0  0
   -6.1850    0.7052   -0.8322 H   0  0  0  0  0  0  0  0  0  0  0  0
   -4.1297    1.3861   -0.5101 C   0  0  0  0  0  0  0  0  0  0  0  0
   -3.6399    0.2817   -1.0381 N   0  0  0  0  0  0  0  0  0  0  0  0
   -4.2524   -0.3546   -1.5190 H   0  0  0  0  0  0  0  0  0  0  0  0
   -2.6668    0.0712   -0.9645 H   0  0  0  0  0  0  0  0  0  0  0  0
   -3.4269    2.2086    0.0606 O   0  0  0  0  0  0  0  0  0  0  0  0
   -1.0658   -2.1610    0.0166 C   0  0  0  0  0  0  0  0  0  0  0  0
   -0.1001   -2.4491   -0.0576 H   0  0  0  0  0  0  0  0  0  0  0  0
   -1.6125   -2.5855   -0.8255 H   0  0  0  0  0  0  0  0  0  0  0  0
   -1.4988   -2.5271    0.9475 H   0  0  0  0  0  0  0  0  0  0  0  0
   -1.1135   -0.7117    0.0000 N   0  0  0  0  0  0  0  0  0  0  0  0
   -1.9900   -0.1626   -0.0121 H   0  0  0  0  0  0  0  0  0  0  0  0
    0.0000    0.0000    0.0000 C   0  0  0  0  0  0  0  0  0  0  0  0
    1.1135   -0.5117   -0.0000 O   0  0  0  0  0  0  0  0  0  0  0  0
   -0.1708    1.5062    0.0104 C   0  0  0  0  0  0  0  0  0  0  0  0
   -1.1482    1.6917    0.0958 H   0  0  0  0  0  0  0  0  0  0  0  0
    0.3145    1.9028    0.9022 H   0  0  0  0  0  0  0  0  0  0  0  0
    0.2784    1.9500   -0.8781 H   0  0  0  0  0  0  0  0  0  0  0  0
  1  5  1  0
  5  6  1  0
  5  9  2  0
  1  2  1  0
  1  3  1  0
  1  4  1  0
  6  7  1  0
  6  8  1  0
 10 14  1  0
 14 16  1  0
 16 17  2  0
 16 18  1  0
 10 11  1  0
 10 12  1  0
 10 13  1  0
 14 15  1  0
 18 19  1  0
 18 20  1  0
 18 21  1  0
M  END
>  <PDB_ID>  (199) 
pdb1kj1

>  <RESIDUE_NAME>  (199) 
ASN   ASN

>  <FRAG_NAME>  (199) 
ACEM   NMA

>  <FRAG_ATOM_NUM>  (199) 
fragi: 9  fragj: 12

>  <atom.prop.CHAIN_ID>  (199) 
A A A A A A A A A Z Z Z Z Z Z Z Z Z Z Z Z

>  <atom.prop.IS_HEAVY_ATOM>  (199) 
1 0 0 0 1 1 0 0 1 1 0 0 0 1 0 1 1 1 0 0 0

>  <DIFUSE_FUNC_ATOM>  (199) 
n/a

>  <FINAL_SINGLE_POINT_ENERGY>  (199) 
0

>  <NONCOV_INTER_ENERGY_QM>  (199) 
0

>  <FF_Energy>  (199) 
0.41

>  <QM_Energy>  (199) 
11.61

>  <source>  (199) 
ACEM_nNMA_12

>  <Index>  (199) 
8103

$$$$
ACEM-pdb1km8-A-GLN-99:NMA-pdb1km8-A-THR-53
     RDKit          3D

 21 19  0  0  0  0  0  0  0  0999 V2000
   -4.3555   -0.2705    2.1819 C   0  0  0  0  0  0  0  0  0  0  0  0
   -3.4720   -0.7410    2.2211 H   0  0  0  0  0  0  0  0  0  0  0  0
   -4.9953   -0.7190    2.8084 H   0  0  0  0  0  0  0  0  0  0  0  0
   -4.2157    0.7609    2.5056 H   0  0  0  0  0  0  0  0  0  0  0  0
   -4.8991   -0.3805    0.7754 C   0  0  0  0  0  0  0  0  0  0  0  0
   -4.0038   -0.3665   -0.1982 N   0  0  0  0  0  0  0  0  0  0  0  0
   -4.2902   -0.4502   -1.1767 H   0  0  0  0  0  0  0  0  0  0  0  0
   -3.0167   -0.2700    0.0350 H   0  0  0  0  0  0  0  0  0  0  0  0
   -6.1065   -0.4668    0.5657 O   0  0  0  0  0  0  0  0  0  0  0  0
   -1.0687   -2.1667   -0.0132 C   0  0  0  0  0  0  0  0  0  0  0  0
   -1.9713   -2.5307   -0.3480 H   0  0  0  0  0  0  0  0  0  0  0  0
   -0.3834   -2.4715   -0.7182 H   0  0  0  0  0  0  0  0  0  0  0  0
   -0.8294   -2.6443    0.9369 H   0  0  0  0  0  0  0  0  0  0  0  0
   -1.1198   -0.7153   -0.0000 N   0  0  0  0  0  0  0  0  0  0  0  0
   -1.9938   -0.1667    0.0102 H   0  0  0  0  0  0  0  0  0  0  0  0
    0.0000    0.0000    0.0000 C   0  0  0  0  0  0  0  0  0  0  0  0
    1.1198   -0.5125    0.0000 O   0  0  0  0  0  0  0  0  0  0  0  0
   -0.1636    1.5174    0.0042 C   0  0  0  0  0  0  0  0  0  0  0  0
   -1.1413    1.7297    0.1082 H   0  0  0  0  0  0  0  0  0  0  0  0
    0.3778    1.9601    0.8403 H   0  0  0  0  0  0  0  0  0  0  0  0
    0.1929    1.9141   -0.9464 H   0  0  0  0  0  0  0  0  0  0  0  0
  1  5  1  0
  5  6  1  0
  5  9  2  0
  1  2  1  0
  1  3  1  0
  1  4  1  0
  6  7  1  0
  6  8  1  0
 10 14  1  0
 14 16  1  0
 16 17  2  0
 16 18  1  0
 10 11  1  0
 10 12  1  0
 10 13  1  0
 14 15  1  0
 18 19  1  0
 18 20  1  0
 18 21  1  0
M  END
>  <PDB_ID>  (200) 
pdb1km8

>  <RESIDUE_NAME>  (200) 
GLN   THR

>  <FRAG_NAME>  (200) 
ACEM   NMA

>  <FRAG_ATOM_NUM>  (200) 
fragi: 9  fragj: 12

>  <atom.prop.CHAIN_ID>  (200) 
A A A A A A A A A Z Z Z Z Z Z Z Z Z Z Z Z

>  <atom.prop.IS_HEAVY_ATOM>  (200) 
1 0 0 0 1 1 0 0 1 1 0 0 0 1 0 1 1 1 0 0 0

>  <DIFUSE_FUNC_ATOM>  (200) 
n/a

>  <FINAL_SINGLE_POINT_ENERGY>  (200) 
0

>  <NONCOV_INTER_ENERGY_QM>  (200) 
0

>  <FF_Energy>  (200) 
8.74

>  <QM_Energy>  (200) 
22.34

>  <source>  (200) 
ACEM_nNMA_12

>  <Index>  (200) 
8470

$$$$
ACEM-pdb2p3l-A-GLN-177:NMA-pdb2p3l-A-VAL-71
     RDKit          3D

 21 19  0  0  0  0  0  0  0  0999 V2000
   -5.3517   -0.8878   -0.4241 C   0  0  0  0  0  0  0  0  0  0  0  0
   -6.3128   -1.1536   -0.3854 H   0  0  0  0  0  0  0  0  0  0  0  0
   -4.7824   -1.6959   -0.5585 H   0  0  0  0  0  0  0  0  0  0  0  0
   -5.2142   -0.2265   -1.2797 H   0  0  0  0  0  0  0  0  0  0  0  0
   -4.9708   -0.2271    0.8752 C   0  0  0  0  0  0  0  0  0  0  0  0
   -3.6959    0.0979    1.0158 N   0  0  0  0  0  0  0  0  0  0  0  0
   -3.3608    0.5618    1.8637 H   0  0  0  0  0  0  0  0  0  0  0  0
   -3.0430   -0.1220    0.2653 H   0  0  0  0  0  0  0  0  0  0  0  0
   -5.8209    0.0196    1.7356 O   0  0  0  0  0  0  0  0  0  0  0  0
   -1.0657   -2.1812   -0.1213 C   0  0  0  0  0  0  0  0  0  0  0  0
   -0.0993   -2.4470   -0.2625 H   0  0  0  0  0  0  0  0  0  0  0  0
   -1.6498   -2.5536   -0.9629 H   0  0  0  0  0  0  0  0  0  0  0  0
   -1.3365   -2.6979    0.7994 H   0  0  0  0  0  0  0  0  0  0  0  0
   -1.1264   -0.7199   -0.0000 N   0  0  0  0  0  0  0  0  0  0  0  0
   -1.9952   -0.1850    0.0879 H   0  0  0  0  0  0  0  0  0  0  0  0
    0.0000    0.0000    0.0000 C   0  0  0  0  0  0  0  0  0  0  0  0
    1.1264   -0.5165    0.0000 O   0  0  0  0  0  0  0  0  0  0  0  0
   -0.1361    1.5322    0.0101 C   0  0  0  0  0  0  0  0  0  0  0  0
   -1.0109    1.7572    0.4180 H   0  0  0  0  0  0  0  0  0  0  0  0
    0.6526    1.9259    0.6513 H   0  0  0  0  0  0  0  0  0  0  0  0
   -0.1115    1.9372   -1.0016 H   0  0  0  0  0  0  0  0  0  0  0  0
  1  5  1  0
  5  6  1  0
  5  9  2  0
  1  2  1  0
  1  3  1  0
  1  4  1  0
  6  7  1  0
  6  8  1  0
 10 14  1  0
 14 16  1  0
 16 17  2  0
 16 18  1  0
 10 11  1  0
 10 12  1  0
 10 13  1  0
 14 15  1  0
 18 19  1  0
 18 20  1  0
 18 21  1  0
M  END
>  <PDB_ID>  (201) 
pdb2p3l

>  <RESIDUE_NAME>  (201) 
GLN   VAL

>  <FRAG_NAME>  (201) 
ACEM   NMA

>  <FRAG_ATOM_NUM>  (201) 
fragi: 9  fragj: 12

>  <atom.prop.CHAIN_ID>  (201) 
A A A A A A A A A Z Z Z Z Z Z Z Z Z Z Z Z

>  <atom.prop.IS_HEAVY_ATOM>  (201) 
1 0 0 0 1 1 0 0 1 1 0 0 0 1 0 1 1 1 0 0 0

>  <DIFUSE_FUNC_ATOM>  (201) 
n/a

>  <FINAL_SINGLE_POINT_ENERGY>  (201) 
0

>  <NONCOV_INTER_ENERGY_QM>  (201) 
0

>  <FF_Energy>  (201) 
8.69

>  <QM_Energy>  (201) 
21.54

>  <source>  (201) 
ACEM_nNMA_12

>  <Index>  (201) 
9334

$$$$
ACEM-pdb2p49-A-ASN-27:NMA-pdb2p49-A-ALA-96
     RDKit          3D

 21 19  0  0  0  0  0  0  0  0999 V2000
   -5.7358    1.0089    1.4205 C   0  0  0  0  0  0  0  0  0  0  0  0
   -6.6389    0.6763    1.1512 H   0  0  0  0  0  0  0  0  0  0  0  0
   -5.7694    1.9987    1.5573 H   0  0  0  0  0  0  0  0  0  0  0  0
   -5.4774    0.5468    2.3733 H   0  0  0  0  0  0  0  0  0  0  0  0
   -4.7551    0.6909    0.3562 C   0  0  0  0  0  0  0  0  0  0  0  0
   -3.4691    0.7297    0.6845 N   0  0  0  0  0  0  0  0  0  0  0  0
   -3.2064    0.9622    1.6254 H   0  0  0  0  0  0  0  0  0  0  0  0
   -2.7685    0.5293    0.0051 H   0  0  0  0  0  0  0  0  0  0  0  0
   -5.1554    0.4436   -0.7865 O   0  0  0  0  0  0  0  0  0  0  0  0
   -1.1838   -2.1256    0.2872 C   0  0  0  0  0  0  0  0  0  0  0  0
   -0.2405   -2.5012    0.2348 H   0  0  0  0  0  0  0  0  0  0  0  0
   -1.8066   -2.6718   -0.4212 H   0  0  0  0  0  0  0  0  0  0  0  0
   -1.5830   -2.3236    1.2820 H   0  0  0  0  0  0  0  0  0  0  0  0
   -1.1220   -0.7054   -0.0000 N   0  0  0  0  0  0  0  0  0  0  0  0
   -1.9800   -0.1356   -0.2307 H   0  0  0  0  0  0  0  0  0  0  0  0
    0.0000    0.0000    0.0000 C   0  0  0  0  0  0  0  0  0  0  0  0
    1.1220   -0.5413   -0.0000 O   0  0  0  0  0  0  0  0  0  0  0  0
   -0.1191    1.4866   -0.1013 C   0  0  0  0  0  0  0  0  0  0  0  0
   -1.0091    1.7707    0.2545 H   0  0  0  0  0  0  0  0  0  0  0  0
    0.6662    1.9244    0.5150 H   0  0  0  0  0  0  0  0  0  0  0  0
   -0.0199    1.8246   -1.1328 H   0  0  0  0  0  0  0  0  0  0  0  0
  1  5  1  0
  5  6  1  0
  5  9  2  0
  1  2  1  0
  1  3  1  0
  1  4  1  0
  6  7  1  0
  6  8  1  0
 10 14  1  0
 14 16  1  0
 16 17  2  0
 16 18  1  0
 10 11  1  0
 10 12  1  0
 10 13  1  0
 14 15  1  0
 18 19  1  0
 18 20  1  0
 18 21  1  0
M  END
>  <PDB_ID>  (202) 
pdb2p49

>  <RESIDUE_NAME>  (202) 
ASN   ALA

>  <FRAG_NAME>  (202) 
ACEM   NMA

>  <FRAG_ATOM_NUM>  (202) 
fragi: 9  fragj: 12

>  <atom.prop.CHAIN_ID>  (202) 
A A A A A A A A A Z Z Z Z Z Z Z Z Z Z Z Z

>  <atom.prop.IS_HEAVY_ATOM>  (202) 
1 0 0 0 1 1 0 0 1 1 0 0 0 1 0 1 1 1 0 0 0

>  <DIFUSE_FUNC_ATOM>  (202) 
n/a

>  <FINAL_SINGLE_POINT_ENERGY>  (202) 
0

>  <NONCOV_INTER_ENERGY_QM>  (202) 
0

>  <FF_Energy>  (202) 
9.7

>  <QM_Energy>  (202) 
22.64

>  <source>  (202) 
ACEM_nNMA_12

>  <Index>  (202) 
10113

$$$$
ACEM-pdb1knq-B-GLN-137:NMA-pdb1knq-B-VAL-16
     RDKit          3D

 21 19  0  0  0  0  0  0  0  0999 V2000
   -5.3127    1.1272   -0.9391 C   0  0  0  0  0  0  0  0  0  0  0  0
   -6.0455    1.5273   -0.3979 H   0  0  0  0  0  0  0  0  0  0  0  0
   -5.6805    0.4603   -1.5785 H   0  0  0  0  0  0  0  0  0  0  0  0
   -4.8180    1.9188   -1.5020 H   0  0  0  0  0  0  0  0  0  0  0  0
   -4.3448    0.4533   -0.0291 C   0  0  0  0  0  0  0  0  0  0  0  0
   -3.2780   -0.0785   -0.5916 N   0  0  0  0  0  0  0  0  0  0  0  0
   -2.5551   -0.5490   -0.0338 H   0  0  0  0  0  0  0  0  0  0  0  0
   -3.1687   -0.0207   -1.6069 H   0  0  0  0  0  0  0  0  0  0  0  0
   -4.5764    0.3823    1.1823 O   0  0  0  0  0  0  0  0  0  0  0  0
   -1.0408   -2.1709   -0.1641 C   0  0  0  0  0  0  0  0  0  0  0  0
   -0.4620   -2.5453    0.5600 H   0  0  0  0  0  0  0  0  0  0  0  0
   -0.5679   -2.3982   -1.1195 H   0  0  0  0  0  0  0  0  0  0  0  0
   -2.0473   -2.5893   -0.1530 H   0  0  0  0  0  0  0  0  0  0  0  0
   -1.1084   -0.7294    0.0000 N   0  0  0  0  0  0  0  0  0  0  0  0
   -1.9863   -0.2012    0.1218 H   0  0  0  0  0  0  0  0  0  0  0  0
    0.0000    0.0000    0.0000 C   0  0  0  0  0  0  0  0  0  0  0  0
    1.1084   -0.5105    0.0000 O   0  0  0  0  0  0  0  0  0  0  0  0
   -0.1751    1.5181    0.0295 C   0  0  0  0  0  0  0  0  0  0  0  0
   -0.9452    1.7271    0.6535 H   0  0  0  0  0  0  0  0  0  0  0  0
    0.7106    2.0356    0.3980 H   0  0  0  0  0  0  0  0  0  0  0  0
   -0.4206    1.8702   -0.9724 H   0  0  0  0  0  0  0  0  0  0  0  0
  1  5  1  0
  5  6  1  0
  5  9  2  0
  1  2  1  0
  1  3  1  0
  1  4  1  0
  6  7  1  0
  6  8  1  0
 10 14  1  0
 14 16  1  0
 16 17  2  0
 16 18  1  0
 10 11  1  0
 10 12  1  0
 10 13  1  0
 14 15  1  0
 18 19  1  0
 18 20  1  0
 18 21  1  0
M  END
>  <PDB_ID>  (203) 
pdb1knq

>  <RESIDUE_NAME>  (203) 
GLN   VAL

>  <FRAG_NAME>  (203) 
ACEM   NMA

>  <FRAG_ATOM_NUM>  (203) 
fragi: 9  fragj: 12

>  <atom.prop.CHAIN_ID>  (203) 
A A A A A A A A A Z Z Z Z Z Z Z Z Z Z Z Z

>  <atom.prop.IS_HEAVY_ATOM>  (203) 
1 0 0 0 1 1 0 0 1 1 0 0 0 1 0 1 1 1 0 0 0

>  <DIFUSE_FUNC_ATOM>  (203) 
n/a

>  <FINAL_SINGLE_POINT_ENERGY>  (203) 
0

>  <NONCOV_INTER_ENERGY_QM>  (203) 
0

>  <FF_Energy>  (203) 
62.38

>  <QM_Energy>  (203) 
97.83

>  <source>  (203) 
ACEM_nNMA_12

>  <Index>  (203) 
10867

$$$$
ACEM-pdb1kq6-A-GLN-33:NMA-pdb1kq6-A-THR-4
     RDKit          3D

 21 19  0  0  0  0  0  0  0  0999 V2000
   -3.8664    1.9545    1.6068 C   0  0  0  0  0  0  0  0  0  0  0  0
   -4.5562    2.6398    1.9310 H   0  0  0  0  0  0  0  0  0  0  0  0
   -2.9840    2.2146    2.0580 H   0  0  0  0  0  0  0  0  0  0  0  0
   -4.1611    0.9802    1.9966 H   0  0  0  0  0  0  0  0  0  0  0  0
   -3.7044    2.1123    0.1157 C   0  0  0  0  0  0  0  0  0  0  0  0
   -3.2357    1.1104   -0.6304 N   0  0  0  0  0  0  0  0  0  0  0  0
   -3.1273    1.1659   -1.6067 H   0  0  0  0  0  0  0  0  0  0  0  0
   -2.9770    0.2370   -0.1321 H   0  0  0  0  0  0  0  0  0  0  0  0
   -4.0025    3.1358   -0.4999 O   0  0  0  0  0  0  0  0  0  0  0  0
   -1.0801   -2.1557   -0.1856 C   0  0  0  0  0  0  0  0  0  0  0  0
   -0.4978   -2.3292   -0.9751 H   0  0  0  0  0  0  0  0  0  0  0  0
   -2.0820   -2.4981   -0.4446 H   0  0  0  0  0  0  0  0  0  0  0  0
   -0.6973   -2.6633    0.6998 H   0  0  0  0  0  0  0  0  0  0  0  0
   -1.1177   -0.6961    0.0000 N   0  0  0  0  0  0  0  0  0  0  0  0
   -1.9859   -0.1629    0.1345 H   0  0  0  0  0  0  0  0  0  0  0  0
    0.0000    0.0000    0.0000 C   0  0  0  0  0  0  0  0  0  0  0  0
    1.1177   -0.5474   -0.0000 O   0  0  0  0  0  0  0  0  0  0  0  0
   -0.1220    1.5169    0.0364 C   0  0  0  0  0  0  0  0  0  0  0  0
   -1.0663    1.7526    0.2159 H   0  0  0  0  0  0  0  0  0  0  0  0
    0.4915    1.8521    0.8727 H   0  0  0  0  0  0  0  0  0  0  0  0
    0.2032    1.9614   -0.9043 H   0  0  0  0  0  0  0  0  0  0  0  0
  1  5  1  0
  5  6  1  0
  5  9  2  0
  1  2  1  0
  1  3  1  0
  1  4  1  0
  6  7  1  0
  6  8  1  0
 10 14  1  0
 14 16  1  0
 16 17  2  0
 16 18  1  0
 10 11  1  0
 10 12  1  0
 10 13  1  0
 14 15  1  0
 18 19  1  0
 18 20  1  0
 18 21  1  0
M  END
>  <PDB_ID>  (204) 
pdb1kq6

>  <RESIDUE_NAME>  (204) 
GLN   THR

>  <FRAG_NAME>  (204) 
ACEM   NMA

>  <FRAG_ATOM_NUM>  (204) 
fragi: 9  fragj: 12

>  <atom.prop.CHAIN_ID>  (204) 
A A A A A A A A A Z Z Z Z Z Z Z Z Z Z Z Z

>  <atom.prop.IS_HEAVY_ATOM>  (204) 
1 0 0 0 1 1 0 0 1 1 0 0 0 1 0 1 1 1 0 0 0

>  <DIFUSE_FUNC_ATOM>  (204) 
n/a

>  <FINAL_SINGLE_POINT_ENERGY>  (204) 
0

>  <NONCOV_INTER_ENERGY_QM>  (204) 
0

>  <FF_Energy>  (204) 
9.17

>  <QM_Energy>  (204) 
20.32

>  <source>  (204) 
ACEM_nNMA_12

>  <Index>  (204) 
11585

$$$$
ACEM-pdb1kkc-Y-GLN-29:NMA-pdb1kkc-Y-SER-33
     RDKit          3D

 21 19  0  0  0  0  0  0  0  0999 V2000
   -2.7231    0.9743    3.2240 C   0  0  0  0  0  0  0  0  0  0  0  0
   -1.8774    1.0493    2.6930 H   0  0  0  0  0  0  0  0  0  0  0  0
   -2.6369    0.2200    3.8768 H   0  0  0  0  0  0  0  0  0  0  0  0
   -2.8739    1.9014    3.7770 H   0  0  0  0  0  0  0  0  0  0  0  0
   -3.8630    0.6598    2.2714 C   0  0  0  0  0  0  0  0  0  0  0  0
   -3.5304    0.0992    1.1097 N   0  0  0  0  0  0  0  0  0  0  0  0
   -4.2407   -0.1511    0.4304 H   0  0  0  0  0  0  0  0  0  0  0  0
   -2.5462   -0.0734    0.9144 H   0  0  0  0  0  0  0  0  0  0  0  0
   -5.0310    0.9034    2.5820 O   0  0  0  0  0  0  0  0  0  0  0  0
   -1.1395   -2.1647    0.0034 C   0  0  0  0  0  0  0  0  0  0  0  0
   -0.6071   -2.4782    0.7883 H   0  0  0  0  0  0  0  0  0  0  0  0
   -0.6458   -2.5242   -0.8994 H   0  0  0  0  0  0  0  0  0  0  0  0
   -2.1694   -2.5205    0.0283 H   0  0  0  0  0  0  0  0  0  0  0  0
   -1.1272   -0.7063   -0.0000 N   0  0  0  0  0  0  0  0  0  0  0  0
   -1.9970   -0.1293   -0.0026 H   0  0  0  0  0  0  0  0  0  0  0  0
    0.0000    0.0000    0.0000 C   0  0  0  0  0  0  0  0  0  0  0  0
    1.1272   -0.5127    0.0000 O   0  0  0  0  0  0  0  0  0  0  0  0
   -0.1950    1.5137   -0.0314 C   0  0  0  0  0  0  0  0  0  0  0  0
   -1.0257    1.7281    0.5302 H   0  0  0  0  0  0  0  0  0  0  0  0
    0.6337    2.1031    0.3611 H   0  0  0  0  0  0  0  0  0  0  0  0
   -0.4119    1.8187   -1.0551 H   0  0  0  0  0  0  0  0  0  0  0  0
  1  5  1  0
  5  6  1  0
  5  9  2  0
  1  2  1  0
  1  3  1  0
  1  4  1  0
  6  7  1  0
  6  8  1  0
 10 14  1  0
 14 16  1  0
 16 17  2  0
 16 18  1  0
 10 11  1  0
 10 12  1  0
 10 13  1  0
 14 15  1  0
 18 19  1  0
 18 20  1  0
 18 21  1  0
M  END
>  <PDB_ID>  (205) 
pdb1kkc

>  <RESIDUE_NAME>  (205) 
GLN   SER

>  <FRAG_NAME>  (205) 
ACEM   NMA

>  <FRAG_ATOM_NUM>  (205) 
fragi: 9  fragj: 12

>  <atom.prop.CHAIN_ID>  (205) 
A A A A A A A A A Z Z Z Z Z Z Z Z Z Z Z Z

>  <atom.prop.IS_HEAVY_ATOM>  (205) 
1 0 0 0 1 1 0 0 1 1 0 0 0 1 0 1 1 1 0 0 0

>  <DIFUSE_FUNC_ATOM>  (205) 
n/a

>  <FINAL_SINGLE_POINT_ENERGY>  (205) 
0

>  <NONCOV_INTER_ENERGY_QM>  (205) 
0

>  <FF_Energy>  (205) 
8.68

>  <QM_Energy>  (205) 
21.21

>  <source>  (205) 
ACEM_nNMA_12

>  <Index>  (205) 
12913

$$$$
ACEM-pdb1kop-B-ASN-38:NMA-pdb1kop-B-LYS-102
     RDKit          3D

 21 19  0  0  0  0  0  0  0  0999 V2000
   -5.7335   -0.5988   -1.7437 C   0  0  0  0  0  0  0  0  0  0  0  0
   -6.0042   -1.5238   -1.4942 H   0  0  0  0  0  0  0  0  0  0  0  0
   -6.0119   -0.3996   -2.6796 H   0  0  0  0  0  0  0  0  0  0  0  0
   -6.2424    0.0991   -1.0789 H   0  0  0  0  0  0  0  0  0  0  0  0
   -4.2177   -0.4969   -1.6563 C   0  0  0  0  0  0  0  0  0  0  0  0
   -3.7253    0.0182   -0.5393 N   0  0  0  0  0  0  0  0  0  0  0  0
   -4.3436    0.3099    0.1937 H   0  0  0  0  0  0  0  0  0  0  0  0
   -2.7368    0.1163   -0.4230 H   0  0  0  0  0  0  0  0  0  0  0  0
   -3.5008   -0.8890   -2.5752 O   0  0  0  0  0  0  0  0  0  0  0  0
   -1.0871   -2.1659   -0.0949 C   0  0  0  0  0  0  0  0  0  0  0  0
   -1.9877   -2.4963   -0.4764 H   0  0  0  0  0  0  0  0  0  0  0  0
   -0.3917   -2.4359   -0.8098 H   0  0  0  0  0  0  0  0  0  0  0  0
   -0.8742   -2.7107    0.8249 H   0  0  0  0  0  0  0  0  0  0  0  0
   -1.1229   -0.7167    0.0000 N   0  0  0  0  0  0  0  0  0  0  0  0
   -1.9935   -0.1629    0.0714 H   0  0  0  0  0  0  0  0  0  0  0  0
    0.0000    0.0000    0.0000 C   0  0  0  0  0  0  0  0  0  0  0  0
    1.1229   -0.5121   -0.0000 O   0  0  0  0  0  0  0  0  0  0  0  0
   -0.1702    1.5231    0.0791 C   0  0  0  0  0  0  0  0  0  0  0  0
   -0.3915    1.8673   -0.8333 H   0  0  0  0  0  0  0  0  0  0  0  0
   -0.9873    1.7668    0.7581 H   0  0  0  0  0  0  0  0  0  0  0  0
    0.7655    1.9775    0.4049 H   0  0  0  0  0  0  0  0  0  0  0  0
  1  5  1  0
  5  6  1  0
  5  9  2  0
  1  2  1  0
  1  3  1  0
  1  4  1  0
  6  7  1  0
  6  8  1  0
 10 14  1  0
 14 16  1  0
 16 17  2  0
 16 18  1  0
 10 11  1  0
 10 12  1  0
 10 13  1  0
 14 15  1  0
 18 19  1  0
 18 20  1  0
 18 21  1  0
M  END
>  <PDB_ID>  (206) 
pdb1kop

>  <RESIDUE_NAME>  (206) 
ASN   LYS

>  <FRAG_NAME>  (206) 
ACEM   NMA

>  <FRAG_ATOM_NUM>  (206) 
fragi: 9  fragj: 12

>  <atom.prop.CHAIN_ID>  (206) 
A A A A A A A A A Z Z Z Z Z Z Z Z Z Z Z Z

>  <atom.prop.IS_HEAVY_ATOM>  (206) 
1 0 0 0 1 1 0 0 1 1 0 0 0 1 0 1 1 1 0 0 0

>  <DIFUSE_FUNC_ATOM>  (206) 
n/a

>  <FINAL_SINGLE_POINT_ENERGY>  (206) 
0

>  <NONCOV_INTER_ENERGY_QM>  (206) 
0

>  <FF_Energy>  (206) 
14.12

>  <QM_Energy>  (206) 
32.71

>  <source>  (206) 
ACEM_nNMA_12

>  <Index>  (206) 
13105

$$$$
ACEM-pdb1knv-B-ASN-214:NMA-pdb1knv-B-ALA-256
     RDKit          3D

 21 19  0  0  0  0  0  0  0  0999 V2000
   -5.0386    1.7845   -2.2707 C   0  0  0  0  0  0  0  0  0  0  0  0
   -5.9312    2.1267   -1.9912 H   0  0  0  0  0  0  0  0  0  0  0  0
   -5.1394    0.9253   -2.7641 H   0  0  0  0  0  0  0  0  0  0  0  0
   -4.5874    2.5139   -2.9434 H   0  0  0  0  0  0  0  0  0  0  0  0
   -4.1999    1.5515   -1.0489 C   0  0  0  0  0  0  0  0  0  0  0  0
   -3.0169    0.9661   -1.2353 N   0  0  0  0  0  0  0  0  0  0  0  0
   -2.7323    0.7133   -2.1622 H   0  0  0  0  0  0  0  0  0  0  0  0
   -2.4206    0.7818   -0.4585 H   0  0  0  0  0  0  0  0  0  0  0  0
   -4.6143    1.8841    0.0646 O   0  0  0  0  0  0  0  0  0  0  0  0
   -1.0570   -2.1864    0.0375 C   0  0  0  0  0  0  0  0  0  0  0  0
   -0.6540   -2.4637    0.9456 H   0  0  0  0  0  0  0  0  0  0  0  0
   -0.4822   -2.6791   -0.7468 H   0  0  0  0  0  0  0  0  0  0  0  0
   -2.0510   -2.6332    0.0584 H   0  0  0  0  0  0  0  0  0  0  0  0
   -1.1146   -0.7247   -0.0000 N   0  0  0  0  0  0  0  0  0  0  0  0
   -1.9934   -0.1855   -0.0280 H   0  0  0  0  0  0  0  0  0  0  0  0
    0.0000    0.0000    0.0000 C   0  0  0  0  0  0  0  0  0  0  0  0
    1.1146   -0.5124    0.0000 O   0  0  0  0  0  0  0  0  0  0  0  0
   -0.1372    1.5224    0.0128 C   0  0  0  0  0  0  0  0  0  0  0  0
   -1.0859    1.7517    0.1012 H   0  0  0  0  0  0  0  0  0  0  0  0
    0.3955    1.8224    0.9151 H   0  0  0  0  0  0  0  0  0  0  0  0
    0.3470    1.9627   -0.8589 H   0  0  0  0  0  0  0  0  0  0  0  0
  1  5  1  0
  5  6  1  0
  5  9  2  0
  1  2  1  0
  1  3  1  0
  1  4  1  0
  6  7  1  0
  6  8  1  0
 10 14  1  0
 14 16  1  0
 16 17  2  0
 16 18  1  0
 10 11  1  0
 10 12  1  0
 10 13  1  0
 14 15  1  0
 18 19  1  0
 18 20  1  0
 18 21  1  0
M  END
>  <PDB_ID>  (207) 
pdb1knv

>  <RESIDUE_NAME>  (207) 
ASN   ALA

>  <FRAG_NAME>  (207) 
ACEM   NMA

>  <FRAG_ATOM_NUM>  (207) 
fragi: 9  fragj: 12

>  <atom.prop.CHAIN_ID>  (207) 
A A A A A A A A A Z Z Z Z Z Z Z Z Z Z Z Z

>  <atom.prop.IS_HEAVY_ATOM>  (207) 
1 0 0 0 1 1 0 0 1 1 0 0 0 1 0 1 1 1 0 0 0

>  <DIFUSE_FUNC_ATOM>  (207) 
n/a

>  <FINAL_SINGLE_POINT_ENERGY>  (207) 
0

>  <NONCOV_INTER_ENERGY_QM>  (207) 
0

>  <FF_Energy>  (207) 
8.73

>  <QM_Energy>  (207) 
19.19

>  <source>  (207) 
ACEM_nNMA_12

>  <Index>  (207) 
13779

$$$$
ACEM-pdb1kut-A-GLN-140:NMA-pdb1kut-A-ALA-136
     RDKit          3D

 21 19  0  0  0  0  0  0  0  0999 V2000
   -5.1127    0.1920   -0.0218 C   0  0  0  0  0  0  0  0  0  0  0  0
   -6.0475    0.5472    0.0057 H   0  0  0  0  0  0  0  0  0  0  0  0
   -5.1308   -0.8026    0.0823 H   0  0  0  0  0  0  0  0  0  0  0  0
   -4.6815    0.4298   -0.9943 H   0  0  0  0  0  0  0  0  0  0  0  0
   -4.3327    0.7882    1.1319 C   0  0  0  0  0  0  0  0  0  0  0  0
   -3.0106    0.7302    1.0392 N   0  0  0  0  0  0  0  0  0  0  0  0
   -2.4180    1.1225    1.7698 H   0  0  0  0  0  0  0  0  0  0  0  0
   -2.5917    0.2852    0.2248 H   0  0  0  0  0  0  0  0  0  0  0  0
   -4.9141    1.3180    2.0889 O   0  0  0  0  0  0  0  0  0  0  0  0
   -1.1169   -2.1672   -0.0533 C   0  0  0  0  0  0  0  0  0  0  0  0
   -0.2127   -2.4934    0.1788 H   0  0  0  0  0  0  0  0  0  0  0  0
   -1.3243   -2.4312   -1.0903 H   0  0  0  0  0  0  0  0  0  0  0  0
   -1.9114   -2.5893    0.5622 H   0  0  0  0  0  0  0  0  0  0  0  0
   -1.1217   -0.7110   -0.0000 N   0  0  0  0  0  0  0  0  0  0  0  0
   -1.9950   -0.1430    0.0410 H   0  0  0  0  0  0  0  0  0  0  0  0
    0.0000    0.0000    0.0000 C   0  0  0  0  0  0  0  0  0  0  0  0
    1.1217   -0.5128    0.0000 O   0  0  0  0  0  0  0  0  0  0  0  0
   -0.1599    1.5140    0.0301 C   0  0  0  0  0  0  0  0  0  0  0  0
   -0.7528    1.7585    0.7957 H   0  0  0  0  0  0  0  0  0  0  0  0
    0.8206    1.9651    0.1824 H   0  0  0  0  0  0  0  0  0  0  0  0
   -0.5906    1.8670   -0.9069 H   0  0  0  0  0  0  0  0  0  0  0  0
  1  5  1  0
  5  6  1  0
  5  9  2  0
  1  2  1  0
  1  3  1  0
  1  4  1  0
  6  7  1  0
  6  8  1  0
 10 14  1  0
 14 16  1  0
 16 17  2  0
 16 18  1  0
 10 11  1  0
 10 12  1  0
 10 13  1  0
 14 15  1  0
 18 19  1  0
 18 20  1  0
 18 21  1  0
M  END
>  <PDB_ID>  (208) 
pdb1kut

>  <RESIDUE_NAME>  (208) 
GLN   ALA

>  <FRAG_NAME>  (208) 
ACEM   NMA

>  <FRAG_ATOM_NUM>  (208) 
fragi: 9  fragj: 12

>  <atom.prop.CHAIN_ID>  (208) 
A A A A A A A A A Z Z Z Z Z Z Z Z Z Z Z Z

>  <atom.prop.IS_HEAVY_ATOM>  (208) 
1 0 0 0 1 1 0 0 1 1 0 0 0 1 0 1 1 1 0 0 0

>  <DIFUSE_FUNC_ATOM>  (208) 
n/a

>  <FINAL_SINGLE_POINT_ENERGY>  (208) 
0

>  <NONCOV_INTER_ENERGY_QM>  (208) 
0

>  <FF_Energy>  (208) 
28.05

>  <QM_Energy>  (208) 
64.75

>  <source>  (208) 
ACEM_nNMA_12

>  <Index>  (208) 
15545

$$$$
ACEM-pdb1kv9-A-ASN-54:NMA-pdb1kv9-A-MET-73
     RDKit          3D

 21 19  0  0  0  0  0  0  0  0999 V2000
   -5.6373    1.1230   -1.2472 C   0  0  0  0  0  0  0  0  0  0  0  0
   -5.0950    1.7589   -1.7950 H   0  0  0  0  0  0  0  0  0  0  0  0
   -6.2180    1.6337   -0.6140 H   0  0  0  0  0  0  0  0  0  0  0  0
   -6.2830    0.5596   -1.9208 H   0  0  0  0  0  0  0  0  0  0  0  0
   -4.7007    0.2476   -0.4495 C   0  0  0  0  0  0  0  0  0  0  0  0
   -3.5626   -0.0842   -1.0405 N   0  0  0  0  0  0  0  0  0  0  0  0
   -3.3578    0.2476   -1.9628 H   0  0  0  0  0  0  0  0  0  0  0  0
   -2.9007   -0.6673   -0.5654 H   0  0  0  0  0  0  0  0  0  0  0  0
   -4.9989   -0.1311    0.6843 O   0  0  0  0  0  0  0  0  0  0  0  0
   -1.0805   -2.1691   -0.0096 C   0  0  0  0  0  0  0  0  0  0  0  0
   -0.5893   -2.4756    0.8057 H   0  0  0  0  0  0  0  0  0  0  0  0
   -0.5251   -2.5112   -0.8829 H   0  0  0  0  0  0  0  0  0  0  0  0
   -2.0928   -2.5724   -0.0379 H   0  0  0  0  0  0  0  0  0  0  0  0
   -1.1178   -0.7121    0.0000 N   0  0  0  0  0  0  0  0  0  0  0  0
   -1.9930   -0.1601    0.0072 H   0  0  0  0  0  0  0  0  0  0  0  0
    0.0000    0.0000    0.0000 C   0  0  0  0  0  0  0  0  0  0  0  0
    1.1178   -0.5142   -0.0000 O   0  0  0  0  0  0  0  0  0  0  0  0
   -0.1593    1.5132   -0.0100 C   0  0  0  0  0  0  0  0  0  0  0  0
   -0.5913    1.7861    0.8473 H   0  0  0  0  0  0  0  0  0  0  0  0
    0.8295    1.9697   -0.0567 H   0  0  0  0  0  0  0  0  0  0  0  0
   -0.7517    1.8017   -0.8784 H   0  0  0  0  0  0  0  0  0  0  0  0
  1  5  1  0
  5  6  1  0
  5  9  2  0
  1  2  1  0
  1  3  1  0
  1  4  1  0
  6  7  1  0
  6  8  1  0
 10 14  1  0
 14 16  1  0
 16 17  2  0
 16 18  1  0
 10 11  1  0
 10 12  1  0
 10 13  1  0
 14 15  1  0
 18 19  1  0
 18 20  1  0
 18 21  1  0
M  END
>  <PDB_ID>  (209) 
pdb1kv9

>  <RESIDUE_NAME>  (209) 
ASN   MET

>  <FRAG_NAME>  (209) 
ACEM   NMA

>  <FRAG_ATOM_NUM>  (209) 
fragi: 9  fragj: 12

>  <atom.prop.CHAIN_ID>  (209) 
A A A A A A A A A Z Z Z Z Z Z Z Z Z Z Z Z

>  <atom.prop.IS_HEAVY_ATOM>  (209) 
1 0 0 0 1 1 0 0 1 1 0 0 0 1 0 1 1 1 0 0 0

>  <DIFUSE_FUNC_ATOM>  (209) 
n/a

>  <FINAL_SINGLE_POINT_ENERGY>  (209) 
0

>  <NONCOV_INTER_ENERGY_QM>  (209) 
0

>  <FF_Energy>  (209) 
5.64

>  <QM_Energy>  (209) 
16.49

>  <source>  (209) 
ACEM_nNMA_12

>  <Index>  (209) 
15772

$$$$
ACEM-pdb2obe-B-ASN-825:NMA-pdb2obe-B-GLN-802
     RDKit          3D

 21 19  0  0  0  0  0  0  0  0999 V2000
   -5.0095    0.9839    1.6123 C   0  0  0  0  0  0  0  0  0  0  0  0
   -5.1832    1.9023    1.8959 H   0  0  0  0  0  0  0  0  0  0  0  0
   -4.9507    0.3523    2.3560 H   0  0  0  0  0  0  0  0  0  0  0  0
   -5.7843    0.6609    0.9169 H   0  0  0  0  0  0  0  0  0  0  0  0
   -3.5926    0.9818    0.8885 C   0  0  0  0  0  0  0  0  0  0  0  0
   -3.0471    1.3980    2.2589 N   0  0  0  0  0  0  0  0  0  0  0  0
   -3.2558    1.5680    3.0598 H   0  0  0  0  0  0  0  0  0  0  0  0
   -1.9203    1.5095    2.0763 H   0  0  0  0  0  0  0  0  0  0  0  0
   -3.4760    0.8614    0.2094 O   0  0  0  0  0  0  0  0  0  0  0  0
   -1.0884   -2.1306   -0.1645 C   0  0  0  0  0  0  0  0  0  0  0  0
   -0.2384   -2.3868   -0.6516 H   0  0  0  0  0  0  0  0  0  0  0  0
   -1.9307   -2.4898   -0.7559 H   0  0  0  0  0  0  0  0  0  0  0  0
   -0.9982   -2.6616    0.7831 H   0  0  0  0  0  0  0  0  0  0  0  0
   -1.1224   -0.7048   -0.0000 N   0  0  0  0  0  0  0  0  0  0  0  0
   -1.9870   -0.1494    0.1245 H   0  0  0  0  0  0  0  0  0  0  0  0
    0.0000    0.0000    0.0000 C   0  0  0  0  0  0  0  0  0  0  0  0
    1.1224   -0.5123   -0.0000 O   0  0  0  0  0  0  0  0  0  0  0  0
   -0.1460    1.4957   -0.1483 C   0  0  0  0  0  0  0  0  0  0  0  0
   -0.9757    1.7856    0.3239 H   0  0  0  0  0  0  0  0  0  0  0  0
    0.6914    1.9865    0.3476 H   0  0  0  0  0  0  0  0  0  0  0  0
   -0.1174    1.6715   -1.2236 H   0  0  0  0  0  0  0  0  0  0  0  0
  1  5  1  0
  5  6  1  0
  5  9  2  0
  1  2  1  0
  1  3  1  0
  1  4  1  0
  6  7  1  0
  6  8  1  0
 10 14  1  0
 14 16  1  0
 16 17  2  0
 16 18  1  0
 10 11  1  0
 10 12  1  0
 10 13  1  0
 14 15  1  0
 18 19  1  0
 18 20  1  0
 18 21  1  0
M  END
>  <PDB_ID>  (210) 
pdb2obe

>  <RESIDUE_NAME>  (210) 
ASN   GLN

>  <FRAG_NAME>  (210) 
ACEM   NMA

>  <FRAG_ATOM_NUM>  (210) 
fragi: 9  fragj: 12

>  <atom.prop.CHAIN_ID>  (210) 
A A A A A A A A A Z Z Z Z Z Z Z Z Z Z Z Z

>  <atom.prop.IS_HEAVY_ATOM>  (210) 
1 0 0 0 1 1 0 0 1 1 0 0 0 1 0 1 1 1 0 0 0

>  <DIFUSE_FUNC_ATOM>  (210) 
n/a

>  <FINAL_SINGLE_POINT_ENERGY>  (210) 
0

>  <NONCOV_INTER_ENERGY_QM>  (210) 
0

>  <FF_Energy>  (210) 
-3.17

>  <QM_Energy>  (210) 
6.91

>  <source>  (210) 
ACEM_nNMA_12

>  <Index>  (210) 
17883

$$$$
ACEM-pdb1l0y-D-GLN-8:NMA-pdb1l0y-D-PRO-4
     RDKit          3D

 21 19  0  0  0  0  0  0  0  0999 V2000
   -4.9314   -0.5054    0.8064 C   0  0  0  0  0  0  0  0  0  0  0  0
   -5.9013   -0.4356    1.0483 H   0  0  0  0  0  0  0  0  0  0  0  0
   -4.7072   -1.4636    0.6167 H   0  0  0  0  0  0  0  0  0  0  0  0
   -4.7538    0.0796   -0.0960 H   0  0  0  0  0  0  0  0  0  0  0  0
   -4.1062   -0.0392    1.9832 C   0  0  0  0  0  0  0  0  0  0  0  0
   -2.7913    0.0763    1.7789 N   0  0  0  0  0  0  0  0  0  0  0  0
   -2.1759    0.3975    2.5202 H   0  0  0  0  0  0  0  0  0  0  0  0
   -2.4162   -0.1653    0.8646 H   0  0  0  0  0  0  0  0  0  0  0  0
   -4.6418    0.2244    3.0649 O   0  0  0  0  0  0  0  0  0  0  0  0
   -1.1553   -2.1643   -0.0293 C   0  0  0  0  0  0  0  0  0  0  0  0
   -0.2271   -2.4829   -0.0704 H   0  0  0  0  0  0  0  0  0  0  0  0
   -1.6135   -2.3980   -0.9903 H   0  0  0  0  0  0  0  0  0  0  0  0
   -1.7797   -2.5254    0.7879 H   0  0  0  0  0  0  0  0  0  0  0  0
   -1.1209   -0.7085    0.0000 N   0  0  0  0  0  0  0  0  0  0  0  0
   -1.9958   -0.1226    0.0234 H   0  0  0  0  0  0  0  0  0  0  0  0
    0.0000    0.0000    0.0000 C   0  0  0  0  0  0  0  0  0  0  0  0
    1.1209   -0.4988   -0.0000 O   0  0  0  0  0  0  0  0  0  0  0  0
   -0.1975    1.5070   -0.0070 C   0  0  0  0  0  0  0  0  0  0  0  0
   -0.9642    1.7697    0.6163 H   0  0  0  0  0  0  0  0  0  0  0  0
    0.6999    2.0755    0.2368 H   0  0  0  0  0  0  0  0  0  0  0  0
   -0.4517    1.8699   -1.0029 H   0  0  0  0  0  0  0  0  0  0  0  0
  1  5  1  0
  5  6  1  0
  5  9  2  0
  1  2  1  0
  1  3  1  0
  1  4  1  0
  6  7  1  0
  6  8  1  0
 10 14  1  0
 14 16  1  0
 16 17  2  0
 16 18  1  0
 10 11  1  0
 10 12  1  0
 10 13  1  0
 14 15  1  0
 18 19  1  0
 18 20  1  0
 18 21  1  0
M  END
>  <PDB_ID>  (211) 
pdb1l0y

>  <RESIDUE_NAME>  (211) 
GLN   PRO

>  <FRAG_NAME>  (211) 
ACEM   NMA

>  <FRAG_ATOM_NUM>  (211) 
fragi: 9  fragj: 12

>  <atom.prop.CHAIN_ID>  (211) 
A A A A A A A A A Z Z Z Z Z Z Z Z Z Z Z Z

>  <atom.prop.IS_HEAVY_ATOM>  (211) 
1 0 0 0 1 1 0 0 1 1 0 0 0 1 0 1 1 1 0 0 0

>  <DIFUSE_FUNC_ATOM>  (211) 
n/a

>  <FINAL_SINGLE_POINT_ENERGY>  (211) 
0

>  <NONCOV_INTER_ENERGY_QM>  (211) 
0

>  <FF_Energy>  (211) 
21.16

>  <QM_Energy>  (211) 
38.32

>  <source>  (211) 
ACEM_nNMA_12

>  <Index>  (211) 
24796

$$$$
ACEM-pdb1l9x-A-GLN-144:NMA-pdb1l9x-A-THR-141
     RDKit          3D

 21 19  0  0  0  0  0  0  0  0999 V2000
   -6.0293   -1.4737    0.4487 C   0  0  0  0  0  0  0  0  0  0  0  0
   -6.3680   -2.4161    0.4298 H   0  0  0  0  0  0  0  0  0  0  0  0
   -6.6096   -0.9022   -0.1339 H   0  0  0  0  0  0  0  0  0  0  0  0
   -6.0980   -1.1034    1.4716 H   0  0  0  0  0  0  0  0  0  0  0  0
   -4.6138   -1.4563   -0.1071 C   0  0  0  0  0  0  0  0  0  0  0  0
   -3.7796   -0.5757    0.4307 N   0  0  0  0  0  0  0  0  0  0  0  0
   -2.8133   -0.5161    0.1193 H   0  0  0  0  0  0  0  0  0  0  0  0
   -4.1224    0.0436    1.1634 H   0  0  0  0  0  0  0  0  0  0  0  0
   -4.2710   -2.2364   -0.9924 O   0  0  0  0  0  0  0  0  0  0  0  0
   -1.1056   -2.1541    0.0405 C   0  0  0  0  0  0  0  0  0  0  0  0
   -1.7710   -2.5203   -0.5900 H   0  0  0  0  0  0  0  0  0  0  0  0
   -0.1978   -2.4872   -0.1564 H   0  0  0  0  0  0  0  0  0  0  0  0
   -1.3812   -2.4220    1.0605 H   0  0  0  0  0  0  0  0  0  0  0  0
   -1.1247   -0.7057    0.0000 N   0  0  0  0  0  0  0  0  0  0  0  0
   -1.9940   -0.1398   -0.0309 H   0  0  0  0  0  0  0  0  0  0  0  0
    0.0000    0.0000    0.0000 C   0  0  0  0  0  0  0  0  0  0  0  0
    1.1247   -0.5067   -0.0000 O   0  0  0  0  0  0  0  0  0  0  0  0
   -0.1680    1.5080    0.0169 C   0  0  0  0  0  0  0  0  0  0  0  0
    0.4741    1.9098   -0.6594 H   0  0  0  0  0  0  0  0  0  0  0  0
   -1.1777    1.8247   -0.2442 H   0  0  0  0  0  0  0  0  0  0  0  0
    0.0895    1.8277    1.0266 H   0  0  0  0  0  0  0  0  0  0  0  0
  1  5  1  0
  5  6  1  0
  5  9  2  0
  1  2  1  0
  1  3  1  0
  1  4  1  0
  6  7  1  0
  6  8  1  0
 10 14  1  0
 14 16  1  0
 16 17  2  0
 16 18  1  0
 10 11  1  0
 10 12  1  0
 10 13  1  0
 14 15  1  0
 18 19  1  0
 18 20  1  0
 18 21  1  0
M  END
>  <PDB_ID>  (212) 
pdb1l9x

>  <RESIDUE_NAME>  (212) 
GLN   THR

>  <FRAG_NAME>  (212) 
ACEM   NMA

>  <FRAG_ATOM_NUM>  (212) 
fragi: 9  fragj: 12

>  <atom.prop.CHAIN_ID>  (212) 
A A A A A A A A A Z Z Z Z Z Z Z Z Z Z Z Z

>  <atom.prop.IS_HEAVY_ATOM>  (212) 
1 0 0 0 1 1 0 0 1 1 0 0 0 1 0 1 1 1 0 0 0

>  <DIFUSE_FUNC_ATOM>  (212) 
n/a

>  <FINAL_SINGLE_POINT_ENERGY>  (212) 
0

>  <NONCOV_INTER_ENERGY_QM>  (212) 
0

>  <FF_Energy>  (212) 
17.04

>  <QM_Energy>  (212) 
35.73

>  <source>  (212) 
ACEM_nNMA_12

>  <Index>  (212) 
25459

$$$$
ACEM-pdb1l8a-A-GLN-727:NMA-pdb1l8a-A-MET-792
     RDKit          3D

 21 19  0  0  0  0  0  0  0  0999 V2000
   -6.1573    0.0589    0.2481 C   0  0  0  0  0  0  0  0  0  0  0  0
   -5.9548   -0.2562    1.1714 H   0  0  0  0  0  0  0  0  0  0  0  0
   -6.8711   -0.5057   -0.1577 H   0  0  0  0  0  0  0  0  0  0  0  0
   -6.4994    1.0929    0.2898 H   0  0  0  0  0  0  0  0  0  0  0  0
   -4.9143   -0.0595   -0.5842 C   0  0  0  0  0  0  0  0  0  0  0  0
   -3.7682   -0.1764    0.0763 N   0  0  0  0  0  0  0  0  0  0  0  0
   -2.8809   -0.2755   -0.4197 H   0  0  0  0  0  0  0  0  0  0  0  0
   -3.7841   -0.1658    1.0956 H   0  0  0  0  0  0  0  0  0  0  0  0
   -4.9782   -0.0362   -1.8158 O   0  0  0  0  0  0  0  0  0  0  0  0
   -1.0999   -2.1690   -0.0497 C   0  0  0  0  0  0  0  0  0  0  0  0
   -0.1717   -2.4497   -0.2816 H   0  0  0  0  0  0  0  0  0  0  0  0
   -1.7416   -2.4969   -0.8676 H   0  0  0  0  0  0  0  0  0  0  0  0
   -1.4041   -2.6099    0.8995 H   0  0  0  0  0  0  0  0  0  0  0  0
   -1.1184   -0.7128   -0.0000 N   0  0  0  0  0  0  0  0  0  0  0  0
   -1.9938   -0.1529    0.0377 H   0  0  0  0  0  0  0  0  0  0  0  0
    0.0000    0.0000    0.0000 C   0  0  0  0  0  0  0  0  0  0  0  0
    1.1184   -0.5057    0.0000 O   0  0  0  0  0  0  0  0  0  0  0  0
   -0.1766    1.5122    0.0036 C   0  0  0  0  0  0  0  0  0  0  0  0
   -0.7397    1.7599    0.8138 H   0  0  0  0  0  0  0  0  0  0  0  0
    0.7604    2.0652    0.0687 H   0  0  0  0  0  0  0  0  0  0  0  0
   -0.7124    1.7894   -0.9042 H   0  0  0  0  0  0  0  0  0  0  0  0
  1  5  1  0
  5  6  1  0
  5  9  2  0
  1  2  1  0
  1  3  1  0
  1  4  1  0
  6  7  1  0
  6  8  1  0
 10 14  1  0
 14 16  1  0
 16 17  2  0
 16 18  1  0
 10 11  1  0
 10 12  1  0
 10 13  1  0
 14 15  1  0
 18 19  1  0
 18 20  1  0
 18 21  1  0
M  END
>  <PDB_ID>  (213) 
pdb1l8a

>  <RESIDUE_NAME>  (213) 
GLN   MET

>  <FRAG_NAME>  (213) 
ACEM   NMA

>  <FRAG_ATOM_NUM>  (213) 
fragi: 9  fragj: 12

>  <atom.prop.CHAIN_ID>  (213) 
A A A A A A A A A Z Z Z Z Z Z Z Z Z Z Z Z

>  <atom.prop.IS_HEAVY_ATOM>  (213) 
1 0 0 0 1 1 0 0 1 1 0 0 0 1 0 1 1 1 0 0 0

>  <DIFUSE_FUNC_ATOM>  (213) 
n/a

>  <FINAL_SINGLE_POINT_ENERGY>  (213) 
0

>  <NONCOV_INTER_ENERGY_QM>  (213) 
0

>  <FF_Energy>  (213) 
12.15

>  <QM_Energy>  (213) 
28.12

>  <source>  (213) 
ACEM_nNMA_13

>  <Index>  (213) 
364

$$$$
ACEM-pdb2plu-A-ASN-129:NMA-pdb2plu-A-ARG-107
     RDKit          3D

 21 19  0  0  0  0  0  0  0  0999 V2000
   -3.7225    2.2913    1.5713 C   0  0  0  0  0  0  0  0  0  0  0  0
   -4.4565    2.7930    2.0133 H   0  0  0  0  0  0  0  0  0  0  0  0
   -2.9670    2.8971    1.3507 H   0  0  0  0  0  0  0  0  0  0  0  0
   -3.3612    1.5297    2.2624 H   0  0  0  0  0  0  0  0  0  0  0  0
   -4.2549    1.6883    0.2796 C   0  0  0  0  0  0  0  0  0  0  0  0
   -3.5689    0.6679   -0.2428 N   0  0  0  0  0  0  0  0  0  0  0  0
   -2.7483    0.3414    0.2324 H   0  0  0  0  0  0  0  0  0  0  0  0
   -3.8693    0.2411   -1.0861 H   0  0  0  0  0  0  0  0  0  0  0  0
   -5.2664    2.1387   -0.2448 O   0  0  0  0  0  0  0  0  0  0  0  0
   -1.1170   -2.1366   -0.3735 C   0  0  0  0  0  0  0  0  0  0  0  0
   -0.3956   -2.5721    0.1510 H   0  0  0  0  0  0  0  0  0  0  0  0
   -0.8316   -2.1979   -1.4237 H   0  0  0  0  0  0  0  0  0  0  0  0
   -2.0953   -2.5923   -0.2208 H   0  0  0  0  0  0  0  0  0  0  0  0
   -1.1298   -0.7141    0.0000 N   0  0  0  0  0  0  0  0  0  0  0  0
   -1.9777   -0.2015    0.2735 H   0  0  0  0  0  0  0  0  0  0  0  0
    0.0000    0.0000    0.0000 C   0  0  0  0  0  0  0  0  0  0  0  0
    1.1298   -0.5080   -0.0000 O   0  0  0  0  0  0  0  0  0  0  0  0
   -0.1555    1.5169   -0.0564 C   0  0  0  0  0  0  0  0  0  0  0  0
   -1.0734    1.7590    0.3174 H   0  0  0  0  0  0  0  0  0  0  0  0
    0.6027    2.0644    0.5035 H   0  0  0  0  0  0  0  0  0  0  0  0
    0.0004    1.7867   -1.1010 H   0  0  0  0  0  0  0  0  0  0  0  0
  1  5  1  0
  5  6  1  0
  5  9  2  0
  1  2  1  0
  1  3  1  0
  1  4  1  0
  6  7  1  0
  6  8  1  0
 10 14  1  0
 14 16  1  0
 16 17  2  0
 16 18  1  0
 10 11  1  0
 10 12  1  0
 10 13  1  0
 14 15  1  0
 18 19  1  0
 18 20  1  0
 18 21  1  0
M  END
>  <PDB_ID>  (214) 
pdb2plu

>  <RESIDUE_NAME>  (214) 
ASN   ARG

>  <FRAG_NAME>  (214) 
ACEM   NMA

>  <FRAG_ATOM_NUM>  (214) 
fragi: 9  fragj: 12

>  <atom.prop.CHAIN_ID>  (214) 
A A A A A A A A A Z Z Z Z Z Z Z Z Z Z Z Z

>  <atom.prop.IS_HEAVY_ATOM>  (214) 
1 0 0 0 1 1 0 0 1 1 0 0 0 1 0 1 1 1 0 0 0

>  <DIFUSE_FUNC_ATOM>  (214) 
n/a

>  <FINAL_SINGLE_POINT_ENERGY>  (214) 
0

>  <NONCOV_INTER_ENERGY_QM>  (214) 
0

>  <FF_Energy>  (214) 
13.55

>  <QM_Energy>  (214) 
31.71

>  <source>  (214) 
ACEM_nNMA_13

>  <Index>  (214) 
1653

$$$$
ACEM-pdb2ppq-A-GLN-252:NMA-pdb2ppq-A-PRO-256
     RDKit          3D

 21 19  0  0  0  0  0  0  0  0999 V2000
   -4.8747    1.5526    1.5811 C   0  0  0  0  0  0  0  0  0  0  0  0
   -4.9084    1.1201    2.4874 H   0  0  0  0  0  0  0  0  0  0  0  0
   -5.8135    1.6495    1.2350 H   0  0  0  0  0  0  0  0  0  0  0  0
   -4.4410    2.5469    1.6881 H   0  0  0  0  0  0  0  0  0  0  0  0
   -4.1030    0.6651    0.6502 C   0  0  0  0  0  0  0  0  0  0  0  0
   -3.2661   -0.1970    1.1809 N   0  0  0  0  0  0  0  0  0  0  0  0
   -2.7192   -0.8408    0.6130 H   0  0  0  0  0  0  0  0  0  0  0  0
   -3.1615   -0.2203    2.2029 H   0  0  0  0  0  0  0  0  0  0  0  0
   -4.2731    0.7614   -0.5509 O   0  0  0  0  0  0  0  0  0  0  0  0
   -1.1520   -2.1582   -0.0598 C   0  0  0  0  0  0  0  0  0  0  0  0
   -0.3086   -2.5162    0.3255 H   0  0  0  0  0  0  0  0  0  0  0  0
   -1.2002   -2.4333   -1.1134 H   0  0  0  0  0  0  0  0  0  0  0  0
   -2.0091   -2.5516    0.4866 H   0  0  0  0  0  0  0  0  0  0  0  0
   -1.1214   -0.7144    0.0000 N   0  0  0  0  0  0  0  0  0  0  0  0
   -1.9956   -0.1258    0.0479 H   0  0  0  0  0  0  0  0  0  0  0  0
    0.0000    0.0000    0.0000 C   0  0  0  0  0  0  0  0  0  0  0  0
    1.1214   -0.4983   -0.0000 O   0  0  0  0  0  0  0  0  0  0  0  0
   -0.1754    1.5255    0.0264 C   0  0  0  0  0  0  0  0  0  0  0  0
   -1.1380    1.7636    0.2622 H   0  0  0  0  0  0  0  0  0  0  0  0
    0.5205    2.0366    0.6916 H   0  0  0  0  0  0  0  0  0  0  0  0
    0.0542    1.9535   -0.9494 H   0  0  0  0  0  0  0  0  0  0  0  0
  1  5  1  0
  5  6  1  0
  5  9  2  0
  1  2  1  0
  1  3  1  0
  1  4  1  0
  6  7  1  0
  6  8  1  0
 10 14  1  0
 14 16  1  0
 16 17  2  0
 16 18  1  0
 10 11  1  0
 10 12  1  0
 10 13  1  0
 14 15  1  0
 18 19  1  0
 18 20  1  0
 18 21  1  0
M  END
>  <PDB_ID>  (215) 
pdb2ppq

>  <RESIDUE_NAME>  (215) 
GLN   PRO

>  <FRAG_NAME>  (215) 
ACEM   NMA

>  <FRAG_ATOM_NUM>  (215) 
fragi: 9  fragj: 12

>  <atom.prop.CHAIN_ID>  (215) 
A A A A A A A A A Z Z Z Z Z Z Z Z Z Z Z Z

>  <atom.prop.IS_HEAVY_ATOM>  (215) 
1 0 0 0 1 1 0 0 1 1 0 0 0 1 0 1 1 1 0 0 0

>  <DIFUSE_FUNC_ATOM>  (215) 
n/a

>  <FINAL_SINGLE_POINT_ENERGY>  (215) 
0

>  <NONCOV_INTER_ENERGY_QM>  (215) 
0

>  <FF_Energy>  (215) 
15.02

>  <QM_Energy>  (215) 
27.94

>  <source>  (215) 
ACEM_nNMA_13

>  <Index>  (215) 
6111

$$$$
ACEM-pdb1lq8-A-GLN-71:NMA-pdb1lq8-A-SER-305
     RDKit          3D

 21 19  0  0  0  0  0  0  0  0999 V2000
   -5.7948    0.6201   -1.3778 C   0  0  0  0  0  0  0  0  0  0  0  0
   -6.5333    1.1217   -0.9306 H   0  0  0  0  0  0  0  0  0  0  0  0
   -6.0943   -0.3106   -1.5823 H   0  0  0  0  0  0  0  0  0  0  0  0
   -5.5337    1.1237   -2.3085 H   0  0  0  0  0  0  0  0  0  0  0  0
   -4.6218    0.5531   -0.4394 C   0  0  0  0  0  0  0  0  0  0  0  0
   -3.5343   -0.0407   -0.9044 N   0  0  0  0  0  0  0  0  0  0  0  0
   -2.6884   -0.1148   -0.3323 H   0  0  0  0  0  0  0  0  0  0  0  0
   -3.5455   -0.4289   -1.8464 H   0  0  0  0  0  0  0  0  0  0  0  0
   -4.6879    1.0214    0.6966 O   0  0  0  0  0  0  0  0  0  0  0  0
   -1.0717   -2.1722    0.0213 C   0  0  0  0  0  0  0  0  0  0  0  0
   -0.6986   -2.4456    0.9349 H   0  0  0  0  0  0  0  0  0  0  0  0
   -0.4311   -2.6341   -0.7300 H   0  0  0  0  0  0  0  0  0  0  0  0
   -2.0847   -2.5707   -0.0341 H   0  0  0  0  0  0  0  0  0  0  0  0
   -1.1164   -0.7143    0.0000 N   0  0  0  0  0  0  0  0  0  0  0  0
   -1.9928   -0.1674   -0.0156 H   0  0  0  0  0  0  0  0  0  0  0  0
    0.0000    0.0000    0.0000 C   0  0  0  0  0  0  0  0  0  0  0  0
    1.1164   -0.5164   -0.0000 O   0  0  0  0  0  0  0  0  0  0  0  0
   -0.1559    1.5196    0.0227 C   0  0  0  0  0  0  0  0  0  0  0  0
    0.7573    1.9254   -0.2309 H   0  0  0  0  0  0  0  0  0  0  0  0
   -0.9048    1.9490   -0.6429 H   0  0  0  0  0  0  0  0  0  0  0  0
   -0.3876    1.8256    1.0429 H   0  0  0  0  0  0  0  0  0  0  0  0
  1  5  1  0
  5  6  1  0
  5  9  2  0
  1  2  1  0
  1  3  1  0
  1  4  1  0
  6  7  1  0
  6  8  1  0
 10 14  1  0
 14 16  1  0
 16 17  2  0
 16 18  1  0
 10 11  1  0
 10 12  1  0
 10 13  1  0
 14 15  1  0
 18 19  1  0
 18 20  1  0
 18 21  1  0
M  END
>  <PDB_ID>  (216) 
pdb1lq8

>  <RESIDUE_NAME>  (216) 
GLN   SER

>  <FRAG_NAME>  (216) 
ACEM   NMA

>  <FRAG_ATOM_NUM>  (216) 
fragi: 9  fragj: 12

>  <atom.prop.CHAIN_ID>  (216) 
A A A A A A A A A Z Z Z Z Z Z Z Z Z Z Z Z

>  <atom.prop.IS_HEAVY_ATOM>  (216) 
1 0 0 0 1 1 0 0 1 1 0 0 0 1 0 1 1 1 0 0 0

>  <DIFUSE_FUNC_ATOM>  (216) 
n/a

>  <FINAL_SINGLE_POINT_ENERGY>  (216) 
0

>  <NONCOV_INTER_ENERGY_QM>  (216) 
0

>  <FF_Energy>  (216) 
19.64

>  <QM_Energy>  (216) 
56.75

>  <source>  (216) 
ACEM_nNMA_13

>  <Index>  (216) 
10228

$$$$
ACEM-pdb2q3f-A-ASN-93:NMA-pdb2q3f-A-ASN-88
     RDKit          3D

 21 19  0  0  0  0  0  0  0  0999 V2000
   -5.1167    0.8376    2.1671 C   0  0  0  0  0  0  0  0  0  0  0  0
   -5.9889    1.2352    1.8959 H   0  0  0  0  0  0  0  0  0  0  0  0
   -4.7276    1.3531    2.9260 H   0  0  0  0  0  0  0  0  0  0  0  0
   -5.2944   -0.1843    2.5023 H   0  0  0  0  0  0  0  0  0  0  0  0
   -4.1766    0.8865    1.0086 C   0  0  0  0  0  0  0  0  0  0  0  0
   -2.9587    0.3941    1.2057 N   0  0  0  0  0  0  0  0  0  0  0  0
   -2.7157    0.0110    2.0986 H   0  0  0  0  0  0  0  0  0  0  0  0
   -2.2866    0.4059    0.4675 H   0  0  0  0  0  0  0  0  0  0  0  0
   -4.5320    1.3756   -0.0588 O   0  0  0  0  0  0  0  0  0  0  0  0
   -1.1033   -2.1521    0.0062 C   0  0  0  0  0  0  0  0  0  0  0  0
   -0.2298   -2.4572    0.4048 H   0  0  0  0  0  0  0  0  0  0  0  0
   -1.1607   -2.5442   -1.0092 H   0  0  0  0  0  0  0  0  0  0  0  0
   -1.9432   -2.5241    0.5929 H   0  0  0  0  0  0  0  0  0  0  0  0
   -1.1206   -0.7035    0.0000 N   0  0  0  0  0  0  0  0  0  0  0  0
   -1.9925   -0.1376   -0.0053 H   0  0  0  0  0  0  0  0  0  0  0  0
    0.0000    0.0000    0.0000 C   0  0  0  0  0  0  0  0  0  0  0  0
    1.1206   -0.5150    0.0000 O   0  0  0  0  0  0  0  0  0  0  0  0
   -0.1803    1.5075    0.0091 C   0  0  0  0  0  0  0  0  0  0  0  0
   -0.7933    1.7381   -0.7512 H   0  0  0  0  0  0  0  0  0  0  0  0
   -0.6760    1.8236    0.9270 H   0  0  0  0  0  0  0  0  0  0  0  0
    0.7913    1.9922   -0.0864 H   0  0  0  0  0  0  0  0  0  0  0  0
  1  5  1  0
  5  6  1  0
  5  9  2  0
  1  2  1  0
  1  3  1  0
  1  4  1  0
  6  7  1  0
  6  8  1  0
 10 14  1  0
 14 16  1  0
 16 17  2  0
 16 18  1  0
 10 11  1  0
 10 12  1  0
 10 13  1  0
 14 15  1  0
 18 19  1  0
 18 20  1  0
 18 21  1  0
M  END
>  <PDB_ID>  (217) 
pdb2q3f

>  <RESIDUE_NAME>  (217) 
ASN   ASN

>  <FRAG_NAME>  (217) 
ACEM   NMA

>  <FRAG_ATOM_NUM>  (217) 
fragi: 9  fragj: 12

>  <atom.prop.CHAIN_ID>  (217) 
A A A A A A A A A Z Z Z Z Z Z Z Z Z Z Z Z

>  <atom.prop.IS_HEAVY_ATOM>  (217) 
1 0 0 0 1 1 0 0 1 1 0 0 0 1 0 1 1 1 0 0 0

>  <DIFUSE_FUNC_ATOM>  (217) 
n/a

>  <FINAL_SINGLE_POINT_ENERGY>  (217) 
0

>  <NONCOV_INTER_ENERGY_QM>  (217) 
0

>  <FF_Energy>  (217) 
34.71

>  <QM_Energy>  (217) 
65.95

>  <source>  (217) 
ACEM_nNMA_13

>  <Index>  (217) 
20313

$$$$
ACEM-pdb2q2l-B-ASN-85:NMA-pdb2q2l-B-PRO-122
     RDKit          3D

 21 19  0  0  0  0  0  0  0  0999 V2000
   -5.7441    1.1697   -0.3617 C   0  0  0  0  0  0  0  0  0  0  0  0
   -6.4199    1.3267   -1.0816 H   0  0  0  0  0  0  0  0  0  0  0  0
   -5.4251    2.0459   -0.0031 H   0  0  0  0  0  0  0  0  0  0  0  0
   -6.2290    0.6262    0.4492 H   0  0  0  0  0  0  0  0  0  0  0  0
   -4.5880    0.4246   -0.9306 C   0  0  0  0  0  0  0  0  0  0  0  0
   -3.5322    0.1984   -0.1267 N   0  0  0  0  0  0  0  0  0  0  0  0
   -3.5738    0.5361    0.8160 H   0  0  0  0  0  0  0  0  0  0  0  0
   -2.7431   -0.2872   -0.4654 H   0  0  0  0  0  0  0  0  0  0  0  0
   -4.6719   -0.0268   -2.0758 O   0  0  0  0  0  0  0  0  0  0  0  0
   -1.1552   -2.1382   -0.3058 C   0  0  0  0  0  0  0  0  0  0  0  0
   -0.3286   -2.5357    0.0407 H   0  0  0  0  0  0  0  0  0  0  0  0
   -1.0848   -2.1711   -1.3931 H   0  0  0  0  0  0  0  0  0  0  0  0
   -2.0804   -2.5853    0.0575 H   0  0  0  0  0  0  0  0  0  0  0  0
   -1.1299   -0.7173   -0.0000 N   0  0  0  0  0  0  0  0  0  0  0  0
   -1.9842   -0.1654    0.2384 H   0  0  0  0  0  0  0  0  0  0  0  0
    0.0000    0.0000    0.0000 C   0  0  0  0  0  0  0  0  0  0  0  0
    1.1299   -0.5096    0.0000 O   0  0  0  0  0  0  0  0  0  0  0  0
   -0.1716    1.5303    0.0294 C   0  0  0  0  0  0  0  0  0  0  0  0
   -1.1145    1.7654    0.3292 H   0  0  0  0  0  0  0  0  0  0  0  0
    0.5758    2.0307    0.6451 H   0  0  0  0  0  0  0  0  0  0  0  0
    0.0061    1.9461   -0.9624 H   0  0  0  0  0  0  0  0  0  0  0  0
  1  5  1  0
  5  6  1  0
  5  9  2  0
  1  2  1  0
  1  3  1  0
  1  4  1  0
  6  7  1  0
  6  8  1  0
 10 14  1  0
 14 16  1  0
 16 17  2  0
 16 18  1  0
 10 11  1  0
 10 12  1  0
 10 13  1  0
 14 15  1  0
 18 19  1  0
 18 20  1  0
 18 21  1  0
M  END
>  <PDB_ID>  (218) 
pdb2q2l

>  <RESIDUE_NAME>  (218) 
ASN   PRO

>  <FRAG_NAME>  (218) 
ACEM   NMA

>  <FRAG_ATOM_NUM>  (218) 
fragi: 9  fragj: 12

>  <atom.prop.CHAIN_ID>  (218) 
A A A A A A A A A Z Z Z Z Z Z Z Z Z Z Z Z

>  <atom.prop.IS_HEAVY_ATOM>  (218) 
1 0 0 0 1 1 0 0 1 1 0 0 0 1 0 1 1 1 0 0 0

>  <DIFUSE_FUNC_ATOM>  (218) 
n/a

>  <FINAL_SINGLE_POINT_ENERGY>  (218) 
0

>  <NONCOV_INTER_ENERGY_QM>  (218) 
0

>  <FF_Energy>  (218) 
16.99

>  <QM_Energy>  (218) 
33.18

>  <source>  (218) 
ACEM_nNMA_13

>  <Index>  (218) 
20699

$$$$
ACEM-pdb1m7d-B-ASN-196:NMA-pdb1m7d-B-ASN-155
     RDKit          3D

 21 19  0  0  0  0  0  0  0  0999 V2000
   -6.0490   -1.4451    0.0201 C   0  0  0  0  0  0  0  0  0  0  0  0
   -5.8423   -1.7102    0.9575 H   0  0  0  0  0  0  0  0  0  0  0  0
   -6.3699   -2.2354   -0.4955 H   0  0  0  0  0  0  0  0  0  0  0  0
   -6.8458   -0.7016    0.0407 H   0  0  0  0  0  0  0  0  0  0  0  0
   -4.7835   -0.9249   -0.6268 C   0  0  0  0  0  0  0  0  0  0  0  0
   -3.9131   -0.3100    0.1725 N   0  0  0  0  0  0  0  0  0  0  0  0
   -4.1169   -0.2210    1.1489 H   0  0  0  0  0  0  0  0  0  0  0  0
   -3.0643    0.0574   -0.1989 H   0  0  0  0  0  0  0  0  0  0  0  0
   -4.5951   -1.0591   -1.8350 O   0  0  0  0  0  0  0  0  0  0  0  0
   -1.1676   -2.1809   -0.0091 C   0  0  0  0  0  0  0  0  0  0  0  0
   -2.1475   -2.4631   -0.0693 H   0  0  0  0  0  0  0  0  0  0  0  0
   -0.7324   -2.6530    0.8717 H   0  0  0  0  0  0  0  0  0  0  0  0
   -0.6661   -2.5820   -0.8899 H   0  0  0  0  0  0  0  0  0  0  0  0
   -1.1252   -0.7154   -0.0000 N   0  0  0  0  0  0  0  0  0  0  0  0
   -2.0000   -0.1278    0.0077 H   0  0  0  0  0  0  0  0  0  0  0  0
    0.0000    0.0000    0.0000 C   0  0  0  0  0  0  0  0  0  0  0  0
    1.1252   -0.5035    0.0000 O   0  0  0  0  0  0  0  0  0  0  0  0
   -0.1897    1.5191    0.0051 C   0  0  0  0  0  0  0  0  0  0  0  0
   -0.4450    1.7821   -0.9248 H   0  0  0  0  0  0  0  0  0  0  0  0
   -1.0247    1.7736    0.6579 H   0  0  0  0  0  0  0  0  0  0  0  0
    0.7249    2.0121    0.3344 H   0  0  0  0  0  0  0  0  0  0  0  0
  1  5  1  0
  5  6  1  0
  5  9  2  0
  1  2  1  0
  1  3  1  0
  1  4  1  0
  6  7  1  0
  6  8  1  0
 10 14  1  0
 14 16  1  0
 16 17  2  0
 16 18  1  0
 10 11  1  0
 10 12  1  0
 10 13  1  0
 14 15  1  0
 18 19  1  0
 18 20  1  0
 18 21  1  0
M  END
>  <PDB_ID>  (219) 
pdb1m7d

>  <RESIDUE_NAME>  (219) 
ASN   ASN

>  <FRAG_NAME>  (219) 
ACEM   NMA

>  <FRAG_ATOM_NUM>  (219) 
fragi: 9  fragj: 12

>  <atom.prop.CHAIN_ID>  (219) 
A A A A A A A A A Z Z Z Z Z Z Z Z Z Z Z Z

>  <atom.prop.IS_HEAVY_ATOM>  (219) 
1 0 0 0 1 1 0 0 1 1 0 0 0 1 0 1 1 1 0 0 0

>  <DIFUSE_FUNC_ATOM>  (219) 
n/a

>  <FINAL_SINGLE_POINT_ENERGY>  (219) 
0

>  <NONCOV_INTER_ENERGY_QM>  (219) 
0

>  <FF_Energy>  (219) 
9.6

>  <QM_Energy>  (219) 
19.81

>  <source>  (219) 
ACEM_nNMA_13

>  <Index>  (219) 
24318

$$$$
ACEM-pdb2qc3-A-GLN-12:NMA-pdb2qc3-A-GLN-9
     RDKit          3D

 21 19  0  0  0  0  0  0  0  0999 V2000
   -5.8352    0.1084    1.6001 C   0  0  0  0  0  0  0  0  0  0  0  0
   -6.4536   -0.6820    1.5962 H   0  0  0  0  0  0  0  0  0  0  0  0
   -6.2910    0.8811    1.1496 H   0  0  0  0  0  0  0  0  0  0  0  0
   -5.6337    0.3831    2.6355 H   0  0  0  0  0  0  0  0  0  0  0  0
   -4.5915   -0.2460    0.8157 C   0  0  0  0  0  0  0  0  0  0  0  0
   -3.4644    0.3456    1.1983 N   0  0  0  0  0  0  0  0  0  0  0  0
   -2.5843    0.1467    0.7265 H   0  0  0  0  0  0  0  0  0  0  0  0
   -3.4945    1.0058    1.9729 H   0  0  0  0  0  0  0  0  0  0  0  0
   -4.6344   -1.0532   -0.1084 O   0  0  0  0  0  0  0  0  0  0  0  0
   -1.0967   -2.1597    0.0027 C   0  0  0  0  0  0  0  0  0  0  0  0
   -1.7673   -2.5113   -0.6732 H   0  0  0  0  0  0  0  0  0  0  0  0
   -0.1803   -2.4792   -0.2952 H   0  0  0  0  0  0  0  0  0  0  0  0
   -1.3220   -2.5791    0.9833 H   0  0  0  0  0  0  0  0  0  0  0  0
   -1.1256   -0.7102   -0.0000 N   0  0  0  0  0  0  0  0  0  0  0  0
   -1.9960   -0.1481   -0.0022 H   0  0  0  0  0  0  0  0  0  0  0  0
    0.0000    0.0000    0.0000 C   0  0  0  0  0  0  0  0  0  0  0  0
    1.1256   -0.5082   -0.0000 O   0  0  0  0  0  0  0  0  0  0  0  0
   -0.1831    1.5136   -0.0061 C   0  0  0  0  0  0  0  0  0  0  0  0
   -0.9887    1.7292    0.5793 H   0  0  0  0  0  0  0  0  0  0  0  0
    0.6696    2.0660    0.3886 H   0  0  0  0  0  0  0  0  0  0  0  0
   -0.4219    1.8421   -1.0177 H   0  0  0  0  0  0  0  0  0  0  0  0
  1  5  1  0
  5  6  1  0
  5  9  2  0
  1  2  1  0
  1  3  1  0
  1  4  1  0
  6  7  1  0
  6  8  1  0
 10 14  1  0
 14 16  1  0
 16 17  2  0
 16 18  1  0
 10 11  1  0
 10 12  1  0
 10 13  1  0
 14 15  1  0
 18 19  1  0
 18 20  1  0
 18 21  1  0
M  END
>  <PDB_ID>  (220) 
pdb2qc3

>  <RESIDUE_NAME>  (220) 
GLN   GLN

>  <FRAG_NAME>  (220) 
ACEM   NMA

>  <FRAG_ATOM_NUM>  (220) 
fragi: 9  fragj: 12

>  <atom.prop.CHAIN_ID>  (220) 
A A A A A A A A A Z Z Z Z Z Z Z Z Z Z Z Z

>  <atom.prop.IS_HEAVY_ATOM>  (220) 
1 0 0 0 1 1 0 0 1 1 0 0 0 1 0 1 1 1 0 0 0

>  <DIFUSE_FUNC_ATOM>  (220) 
n/a

>  <FINAL_SINGLE_POINT_ENERGY>  (220) 
0

>  <NONCOV_INTER_ENERGY_QM>  (220) 
0

>  <FF_Energy>  (220) 
11.03

>  <QM_Energy>  (220) 
25.32

>  <source>  (220) 
ACEM_nNMA_13

>  <Index>  (220) 
27126

$$$$
ACEM-pdb2qc3-A-ASN-224:NMA-pdb2qc3-A-HIE-90
     RDKit          3D

 21 19  0  0  0  0  0  0  0  0999 V2000
   -5.8065    0.6891    1.3641 C   0  0  0  0  0  0  0  0  0  0  0  0
   -5.8719   -0.1037    1.9664 H   0  0  0  0  0  0  0  0  0  0  0  0
   -6.1471    0.4543    0.4565 H   0  0  0  0  0  0  0  0  0  0  0  0
   -6.4398    1.4779    1.7702 H   0  0  0  0  0  0  0  0  0  0  0  0
   -4.3541    1.0951    1.2502 C   0  0  0  0  0  0  0  0  0  0  0  0
   -3.4697    0.1298    0.9962 N   0  0  0  0  0  0  0  0  0  0  0  0
   -3.7966   -0.8129    0.8863 H   0  0  0  0  0  0  0  0  0  0  0  0
   -2.5029    0.3418    0.9175 H   0  0  0  0  0  0  0  0  0  0  0  0
   -4.0263    2.2719    1.4056 O   0  0  0  0  0  0  0  0  0  0  0  0
   -1.1237   -2.1840   -0.0641 C   0  0  0  0  0  0  0  0  0  0  0  0
   -2.0864   -2.4967    0.0211 H   0  0  0  0  0  0  0  0  0  0  0  0
   -0.5484   -2.6507    0.7354 H   0  0  0  0  0  0  0  0  0  0  0  0
   -0.7438   -2.5042   -1.0343 H   0  0  0  0  0  0  0  0  0  0  0  0
   -1.1242   -0.7184    0.0000 N   0  0  0  0  0  0  0  0  0  0  0  0
   -1.9982   -0.1530    0.0489 H   0  0  0  0  0  0  0  0  0  0  0  0
    0.0000    0.0000    0.0000 C   0  0  0  0  0  0  0  0  0  0  0  0
    1.1242   -0.4883    0.0000 O   0  0  0  0  0  0  0  0  0  0  0  0
   -0.1844    1.5062    0.0211 C   0  0  0  0  0  0  0  0  0  0  0  0
   -1.1709    1.7015    0.0866 H   0  0  0  0  0  0  0  0  0  0  0  0
    0.3170    1.9441    0.8841 H   0  0  0  0  0  0  0  0  0  0  0  0
    0.1753    1.9662   -0.8993 H   0  0  0  0  0  0  0  0  0  0  0  0
  1  5  1  0
  5  6  1  0
  5  9  2  0
  1  2  1  0
  1  3  1  0
  1  4  1  0
  6  7  1  0
  6  8  1  0
 10 14  1  0
 14 16  1  0
 16 17  2  0
 16 18  1  0
 10 11  1  0
 10 12  1  0
 10 13  1  0
 14 15  1  0
 18 19  1  0
 18 20  1  0
 18 21  1  0
M  END
>  <PDB_ID>  (221) 
pdb2qc3

>  <RESIDUE_NAME>  (221) 
ASN   HIE

>  <FRAG_NAME>  (221) 
ACEM   NMA

>  <FRAG_ATOM_NUM>  (221) 
fragi: 9  fragj: 12

>  <atom.prop.CHAIN_ID>  (221) 
A A A A A A A A A Z Z Z Z Z Z Z Z Z Z Z Z

>  <atom.prop.IS_HEAVY_ATOM>  (221) 
1 0 0 0 1 1 0 0 1 1 0 0 0 1 0 1 1 1 0 0 0

>  <DIFUSE_FUNC_ATOM>  (221) 
n/a

>  <FINAL_SINGLE_POINT_ENERGY>  (221) 
0

>  <NONCOV_INTER_ENERGY_QM>  (221) 
0

>  <FF_Energy>  (221) 
8.56

>  <QM_Energy>  (221) 
21.11

>  <source>  (221) 
ACEM_nNMA_13

>  <Index>  (221) 
27556

$$$$
ACEM-pdb1mix-A-GLN-211:NMA-pdb1mix-A-ARG-207
     RDKit          3D

 21 19  0  0  0  0  0  0  0  0999 V2000
   -3.4032   -0.0164   -1.4307 C   0  0  0  0  0  0  0  0  0  0  0  0
   -3.1789   -0.9913   -1.4440 H   0  0  0  0  0  0  0  0  0  0  0  0
   -2.5751    0.5179   -1.6024 H   0  0  0  0  0  0  0  0  0  0  0  0
   -4.1295    0.1920   -2.2162 H   0  0  0  0  0  0  0  0  0  0  0  0
   -3.9160    0.3351   -0.0324 C   0  0  0  0  0  0  0  0  0  0  0  0
   -3.0689    0.1643    0.9729 N   0  0  0  0  0  0  0  0  0  0  0  0
   -3.3365    0.3901    1.9227 H   0  0  0  0  0  0  0  0  0  0  0  0
   -2.1370   -0.2012    0.7737 H   0  0  0  0  0  0  0  0  0  0  0  0
   -5.0562    0.7554    0.1308 O   0  0  0  0  0  0  0  0  0  0  0  0
   -1.1492   -2.1662   -0.0595 C   0  0  0  0  0  0  0  0  0  0  0  0
   -0.3887   -2.4976    0.4632 H   0  0  0  0  0  0  0  0  0  0  0  0
   -0.9341   -2.3816   -1.1061 H   0  0  0  0  0  0  0  0  0  0  0  0
   -2.1481   -2.5175    0.1990 H   0  0  0  0  0  0  0  0  0  0  0  0
   -1.1223   -0.7081    0.0000 N   0  0  0  0  0  0  0  0  0  0  0  0
   -1.9951   -0.1274    0.0470 H   0  0  0  0  0  0  0  0  0  0  0  0
    0.0000    0.0000    0.0000 C   0  0  0  0  0  0  0  0  0  0  0  0
    1.1223   -0.5037    0.0000 O   0  0  0  0  0  0  0  0  0  0  0  0
   -0.1869    1.5135    0.0051 C   0  0  0  0  0  0  0  0  0  0  0  0
   -1.0839    1.7245    0.4397 H   0  0  0  0  0  0  0  0  0  0  0  0
    0.5956    2.0488    0.5430 H   0  0  0  0  0  0  0  0  0  0  0  0
   -0.2454    1.8544   -1.0286 H   0  0  0  0  0  0  0  0  0  0  0  0
  1  5  1  0
  5  6  1  0
  5  9  2  0
  1  2  1  0
  1  3  1  0
  1  4  1  0
  6  7  1  0
  6  8  1  0
 10 14  1  0
 14 16  1  0
 16 17  2  0
 16 18  1  0
 10 11  1  0
 10 12  1  0
 10 13  1  0
 14 15  1  0
 18 19  1  0
 18 20  1  0
 18 21  1  0
M  END
>  <PDB_ID>  (222) 
pdb1mix

>  <RESIDUE_NAME>  (222) 
GLN   ARG

>  <FRAG_NAME>  (222) 
ACEM   NMA

>  <FRAG_ATOM_NUM>  (222) 
fragi: 9  fragj: 12

>  <atom.prop.CHAIN_ID>  (222) 
A A A A A A A A A Z Z Z Z Z Z Z Z Z Z Z Z

>  <atom.prop.IS_HEAVY_ATOM>  (222) 
1 0 0 0 1 1 0 0 1 1 0 0 0 1 0 1 1 1 0 0 0

>  <DIFUSE_FUNC_ATOM>  (222) 
n/a

>  <FINAL_SINGLE_POINT_ENERGY>  (222) 
0

>  <NONCOV_INTER_ENERGY_QM>  (222) 
0

>  <FF_Energy>  (222) 
74.45

>  <QM_Energy>  (222) 
91.62

>  <source>  (222) 
ACEM_nNMA_14

>  <Index>  (222) 
655

$$$$
ACEM-pdb1mp9-A-ASN-17:NMA-pdb1mp9-A-THR-72
     RDKit          3D

 21 19  0  0  0  0  0  0  0  0999 V2000
   -6.0085   -1.2096   -1.2889 C   0  0  0  0  0  0  0  0  0  0  0  0
   -5.9561   -1.9888   -1.9023 H   0  0  0  0  0  0  0  0  0  0  0  0
   -6.6724   -0.5481   -1.6183 H   0  0  0  0  0  0  0  0  0  0  0  0
   -6.3385   -1.5654   -0.3129 H   0  0  0  0  0  0  0  0  0  0  0  0
   -4.6486   -0.5478   -1.2219 C   0  0  0  0  0  0  0  0  0  0  0  0
   -3.7259   -1.1070   -0.4386 N   0  0  0  0  0  0  0  0  0  0  0  0
   -3.9661   -1.9423    0.0660 H   0  0  0  0  0  0  0  0  0  0  0  0
   -2.8230   -0.7080   -0.3581 H   0  0  0  0  0  0  0  0  0  0  0  0
   -4.4411    0.4814   -1.8562 O   0  0  0  0  0  0  0  0  0  0  0  0
   -1.0808   -2.1620   -0.0488 C   0  0  0  0  0  0  0  0  0  0  0  0
   -1.5663   -2.4813   -0.9042 H   0  0  0  0  0  0  0  0  0  0  0  0
   -0.0997   -2.4586   -0.1895 H   0  0  0  0  0  0  0  0  0  0  0  0
   -1.4889   -2.7028    0.8050 H   0  0  0  0  0  0  0  0  0  0  0  0
   -1.1271   -0.7085    0.0000 N   0  0  0  0  0  0  0  0  0  0  0  0
   -1.9951   -0.1566    0.0362 H   0  0  0  0  0  0  0  0  0  0  0  0
    0.0000    0.0000    0.0000 C   0  0  0  0  0  0  0  0  0  0  0  0
    1.1271   -0.5153   -0.0000 O   0  0  0  0  0  0  0  0  0  0  0  0
   -0.1525    1.5168    0.0347 C   0  0  0  0  0  0  0  0  0  0  0  0
   -0.9958    1.7346    0.5475 H   0  0  0  0  0  0  0  0  0  0  0  0
    0.6943    1.9921    0.5298 H   0  0  0  0  0  0  0  0  0  0  0  0
   -0.2456    1.9081   -0.9784 H   0  0  0  0  0  0  0  0  0  0  0  0
  1  5  1  0
  5  6  1  0
  5  9  2  0
  1  2  1  0
  1  3  1  0
  1  4  1  0
  6  7  1  0
  6  8  1  0
 10 14  1  0
 14 16  1  0
 16 17  2  0
 16 18  1  0
 10 11  1  0
 10 12  1  0
 10 13  1  0
 14 15  1  0
 18 19  1  0
 18 20  1  0
 18 21  1  0
M  END
>  <PDB_ID>  (223) 
pdb1mp9

>  <RESIDUE_NAME>  (223) 
ASN   THR

>  <FRAG_NAME>  (223) 
ACEM   NMA

>  <FRAG_ATOM_NUM>  (223) 
fragi: 9  fragj: 12

>  <atom.prop.CHAIN_ID>  (223) 
A A A A A A A A A Z Z Z Z Z Z Z Z Z Z Z Z

>  <atom.prop.IS_HEAVY_ATOM>  (223) 
1 0 0 0 1 1 0 0 1 1 0 0 0 1 0 1 1 1 0 0 0

>  <DIFUSE_FUNC_ATOM>  (223) 
n/a

>  <FINAL_SINGLE_POINT_ENERGY>  (223) 
0

>  <NONCOV_INTER_ENERGY_QM>  (223) 
0

>  <FF_Energy>  (223) 
12.33

>  <QM_Energy>  (223) 
24.56

>  <source>  (223) 
ACEM_nNMA_14

>  <Index>  (223) 
4987

$$$$
ACEM-pdb2qfv-B-ASN-208:NMA-pdb2qfv-B-ILE-246
     RDKit          3D

 21 19  0  0  0  0  0  0  0  0999 V2000
   -5.2806    0.1403   -0.2486 C   0  0  0  0  0  0  0  0  0  0  0  0
   -6.1978    0.5135   -0.1461 H   0  0  0  0  0  0  0  0  0  0  0  0
   -5.3076   -0.8541   -0.2140 H   0  0  0  0  0  0  0  0  0  0  0  0
   -4.8910    0.4418   -1.2210 H   0  0  0  0  0  0  0  0  0  0  0  0
   -4.4224    0.6431    0.8823 C   0  0  0  0  0  0  0  0  0  0  0  0
   -3.1118    0.5092    0.7386 N   0  0  0  0  0  0  0  0  0  0  0  0
   -2.7402    0.0953   -0.0954 H   0  0  0  0  0  0  0  0  0  0  0  0
   -2.4913    0.8199    1.4578 H   0  0  0  0  0  0  0  0  0  0  0  0
   -4.9362    1.1560    1.8791 O   0  0  0  0  0  0  0  0  0  0  0  0
   -1.0261   -2.1624    0.0558 C   0  0  0  0  0  0  0  0  0  0  0  0
   -0.0455   -2.4291   -0.1121 H   0  0  0  0  0  0  0  0  0  0  0  0
   -1.6465   -2.7089   -0.6545 H   0  0  0  0  0  0  0  0  0  0  0  0
   -1.2507   -2.4762    1.0752 H   0  0  0  0  0  0  0  0  0  0  0  0
   -1.1158   -0.7178    0.0000 N   0  0  0  0  0  0  0  0  0  0  0  0
   -1.9898   -0.1874   -0.0405 H   0  0  0  0  0  0  0  0  0  0  0  0
    0.0000    0.0000    0.0000 C   0  0  0  0  0  0  0  0  0  0  0  0
    1.1158   -0.5205   -0.0000 O   0  0  0  0  0  0  0  0  0  0  0  0
   -0.1492    1.5204   -0.0035 C   0  0  0  0  0  0  0  0  0  0  0  0
   -0.7946    1.7445    0.7204 H   0  0  0  0  0  0  0  0  0  0  0  0
    0.8038    1.9626    0.2869 H   0  0  0  0  0  0  0  0  0  0  0  0
   -0.4861    1.8559   -0.9843 H   0  0  0  0  0  0  0  0  0  0  0  0
  1  5  1  0
  5  6  1  0
  5  9  2  0
  1  2  1  0
  1  3  1  0
  1  4  1  0
  6  7  1  0
  6  8  1  0
 10 14  1  0
 14 16  1  0
 16 17  2  0
 16 18  1  0
 10 11  1  0
 10 12  1  0
 10 13  1  0
 14 15  1  0
 18 19  1  0
 18 20  1  0
 18 21  1  0
M  END
>  <PDB_ID>  (224) 
pdb2qfv

>  <RESIDUE_NAME>  (224) 
ASN   ILE

>  <FRAG_NAME>  (224) 
ACEM   NMA

>  <FRAG_ATOM_NUM>  (224) 
fragi: 9  fragj: 12

>  <atom.prop.CHAIN_ID>  (224) 
A A A A A A A A A Z Z Z Z Z Z Z Z Z Z Z Z

>  <atom.prop.IS_HEAVY_ATOM>  (224) 
1 0 0 0 1 1 0 0 1 1 0 0 0 1 0 1 1 1 0 0 0

>  <DIFUSE_FUNC_ATOM>  (224) 
n/a

>  <FINAL_SINGLE_POINT_ENERGY>  (224) 
0

>  <NONCOV_INTER_ENERGY_QM>  (224) 
0

>  <FF_Energy>  (224) 
38.43

>  <QM_Energy>  (224) 
63.69

>  <source>  (224) 
ACEM_nNMA_14

>  <Index>  (224) 
5649

$$$$
ACEM-pdb2qkp-A-ASN-333:NMA-pdb2qkp-B-PHE-322
     RDKit          3D

 21 19  0  0  0  0  0  0  0  0999 V2000
   -4.8077    2.3999   -1.2854 C   0  0  0  0  0  0  0  0  0  0  0  0
   -4.1198    3.1092   -1.2365 H   0  0  0  0  0  0  0  0  0  0  0  0
   -5.6429    2.6786   -0.8355 H   0  0  0  0  0  0  0  0  0  0  0  0
   -5.0359    2.2266   -2.3370 H   0  0  0  0  0  0  0  0  0  0  0  0
   -4.2739    1.1438   -0.6057 C   0  0  0  0  0  0  0  0  0  0  0  0
   -3.1773    0.5669   -1.1340 N   0  0  0  0  0  0  0  0  0  0  0  0
   -2.7626    0.9945   -1.9421 H   0  0  0  0  0  0  0  0  0  0  0  0
   -2.7995   -0.2485   -0.7316 H   0  0  0  0  0  0  0  0  0  0  0  0
   -4.8227    0.7222    0.3944 O   0  0  0  0  0  0  0  0  0  0  0  0
   -1.0435   -2.1991   -0.0144 C   0  0  0  0  0  0  0  0  0  0  0  0
   -1.9805   -2.5734    0.0980 H   0  0  0  0  0  0  0  0  0  0  0  0
   -0.7108   -2.5033   -0.9237 H   0  0  0  0  0  0  0  0  0  0  0  0
   -0.3953   -2.6030    0.7634 H   0  0  0  0  0  0  0  0  0  0  0  0
   -1.1127   -0.7335   -0.0000 N   0  0  0  0  0  0  0  0  0  0  0  0
   -1.9940   -0.2015    0.0106 H   0  0  0  0  0  0  0  0  0  0  0  0
    0.0000    0.0000    0.0000 C   0  0  0  0  0  0  0  0  0  0  0  0
    1.1127   -0.4992   -0.0000 O   0  0  0  0  0  0  0  0  0  0  0  0
   -0.1308    1.5124   -0.0631 C   0  0  0  0  0  0  0  0  0  0  0  0
   -1.0493    1.7341    0.2107 H   0  0  0  0  0  0  0  0  0  0  0  0
    0.5329    1.8762    0.7212 H   0  0  0  0  0  0  0  0  0  0  0  0
    0.2343    1.8369   -1.0375 H   0  0  0  0  0  0  0  0  0  0  0  0
  1  5  1  0
  5  6  1  0
  5  9  2  0
  1  2  1  0
  1  3  1  0
  1  4  1  0
  6  7  1  0
  6  8  1  0
 10 14  1  0
 14 16  1  0
 16 17  2  0
 16 18  1  0
 10 11  1  0
 10 12  1  0
 10 13  1  0
 14 15  1  0
 18 19  1  0
 18 20  1  0
 18 21  1  0
M  END
>  <PDB_ID>  (225) 
pdb2qkp

>  <RESIDUE_NAME>  (225) 
ASN   PHE

>  <FRAG_NAME>  (225) 
ACEM   NMA

>  <FRAG_ATOM_NUM>  (225) 
fragi: 9  fragj: 12

>  <atom.prop.CHAIN_ID>  (225) 
A A A A A A A A A Z Z Z Z Z Z Z Z Z Z Z Z

>  <atom.prop.IS_HEAVY_ATOM>  (225) 
1 0 0 0 1 1 0 0 1 1 0 0 0 1 0 1 1 1 0 0 0

>  <DIFUSE_FUNC_ATOM>  (225) 
n/a

>  <FINAL_SINGLE_POINT_ENERGY>  (225) 
0

>  <NONCOV_INTER_ENERGY_QM>  (225) 
0

>  <FF_Energy>  (225) 
8.83

>  <QM_Energy>  (225) 
21.46

>  <source>  (225) 
ACEM_nNMA_14

>  <Index>  (225) 
8004

$$$$
ACEM-pdb1mt1-E-ASN-16:NMA-pdb1mt1-F-TYR-164
     RDKit          3D

 21 19  0  0  0  0  0  0  0  0999 V2000
   -5.2336    1.6540    2.1105 C   0  0  0  0  0  0  0  0  0  0  0  0
   -5.7283    0.9968    2.6738 H   0  0  0  0  0  0  0  0  0  0  0  0
   -5.8773    2.2089    1.5894 H   0  0  0  0  0  0  0  0  0  0  0  0
   -4.6674    2.3128    2.7689 H   0  0  0  0  0  0  0  0  0  0  0  0
   -4.3546    0.8817    1.1270 C   0  0  0  0  0  0  0  0  0  0  0  0
   -3.0536    0.8682    1.3966 N   0  0  0  0  0  0  0  0  0  0  0  0
   -2.7025    1.3391    2.2058 H   0  0  0  0  0  0  0  0  0  0  0  0
   -2.4219    0.3843    0.7894 H   0  0  0  0  0  0  0  0  0  0  0  0
   -4.8288    0.3224    0.1395 O   0  0  0  0  0  0  0  0  0  0  0  0
   -1.1220   -2.1681    0.0594 C   0  0  0  0  0  0  0  0  0  0  0  0
   -0.2306   -2.5092   -0.2425 H   0  0  0  0  0  0  0  0  0  0  0  0
   -1.8890   -2.5599   -0.6086 H   0  0  0  0  0  0  0  0  0  0  0  0
   -1.3214   -2.4931    1.0805 H   0  0  0  0  0  0  0  0  0  0  0  0
   -1.1219   -0.7109   -0.0000 N   0  0  0  0  0  0  0  0  0  0  0  0
   -1.9953   -0.1422   -0.0459 H   0  0  0  0  0  0  0  0  0  0  0  0
    0.0000    0.0000    0.0000 C   0  0  0  0  0  0  0  0  0  0  0  0
    1.1219   -0.5048    0.0000 O   0  0  0  0  0  0  0  0  0  0  0  0
   -0.1847    1.5098   -0.0577 C   0  0  0  0  0  0  0  0  0  0  0  0
   -1.0757    1.7332    0.3829 H   0  0  0  0  0  0  0  0  0  0  0  0
    0.5971    2.0694    0.4559 H   0  0  0  0  0  0  0  0  0  0  0  0
   -0.2329    1.8330   -1.0976 H   0  0  0  0  0  0  0  0  0  0  0  0
  1  5  1  0
  5  6  1  0
  5  9  2  0
  1  2  1  0
  1  3  1  0
  1  4  1  0
  6  7  1  0
  6  8  1  0
 10 14  1  0
 14 16  1  0
 16 17  2  0
 16 18  1  0
 10 11  1  0
 10 12  1  0
 10 13  1  0
 14 15  1  0
 18 19  1  0
 18 20  1  0
 18 21  1  0
M  END
>  <PDB_ID>  (226) 
pdb1mt1

>  <RESIDUE_NAME>  (226) 
ASN   TYR

>  <FRAG_NAME>  (226) 
ACEM   NMA

>  <FRAG_ATOM_NUM>  (226) 
fragi: 9  fragj: 12

>  <atom.prop.CHAIN_ID>  (226) 
A A A A A A A A A Z Z Z Z Z Z Z Z Z Z Z Z

>  <atom.prop.IS_HEAVY_ATOM>  (226) 
1 0 0 0 1 1 0 0 1 1 0 0 0 1 0 1 1 1 0 0 0

>  <DIFUSE_FUNC_ATOM>  (226) 
n/a

>  <FINAL_SINGLE_POINT_ENERGY>  (226) 
0

>  <NONCOV_INTER_ENERGY_QM>  (226) 
0

>  <FF_Energy>  (226) 
9.16

>  <QM_Energy>  (226) 
20.03

>  <source>  (226) 
ACEM_nNMA_14

>  <Index>  (226) 
8986

$$$$
ACEM-pdb1n1b-A-GLN-515:NMA-pdb1n1b-A-PRO-511
     RDKit          3D

 21 19  0  0  0  0  0  0  0  0999 V2000
   -4.3296    1.6106   -0.2581 C   0  0  0  0  0  0  0  0  0  0  0  0
   -3.6719    2.0244    0.3729 H   0  0  0  0  0  0  0  0  0  0  0  0
   -5.0997    2.2369   -0.3921 H   0  0  0  0  0  0  0  0  0  0  0  0
   -3.8376    1.4569   -1.2185 H   0  0  0  0  0  0  0  0  0  0  0  0
   -4.8580    0.3227    0.3723 C   0  0  0  0  0  0  0  0  0  0  0  0
   -3.9788   -0.6640    0.5206 N   0  0  0  0  0  0  0  0  0  0  0  0
   -4.2546   -1.5435    0.9445 H   0  0  0  0  0  0  0  0  0  0  0  0
   -3.0233   -0.5216    0.2013 H   0  0  0  0  0  0  0  0  0  0  0  0
   -6.0378    0.2163    0.7108 O   0  0  0  0  0  0  0  0  0  0  0  0
   -1.1133   -2.1718   -0.0120 C   0  0  0  0  0  0  0  0  0  0  0  0
   -0.1678   -2.4960   -0.0404 H   0  0  0  0  0  0  0  0  0  0  0  0
   -1.6288   -2.5257   -0.9048 H   0  0  0  0  0  0  0  0  0  0  0  0
   -1.5983   -2.5614    0.8831 H   0  0  0  0  0  0  0  0  0  0  0  0
   -1.1208   -0.7151    0.0000 N   0  0  0  0  0  0  0  0  0  0  0  0
   -1.9954   -0.1479    0.0091 H   0  0  0  0  0  0  0  0  0  0  0  0
    0.0000    0.0000    0.0000 C   0  0  0  0  0  0  0  0  0  0  0  0
    1.1208   -0.5079   -0.0000 O   0  0  0  0  0  0  0  0  0  0  0  0
   -0.1731    1.5209   -0.0099 C   0  0  0  0  0  0  0  0  0  0  0  0
   -1.1615    1.7647   -0.0614 H   0  0  0  0  0  0  0  0  0  0  0  0
    0.2986    2.0238    0.8344 H   0  0  0  0  0  0  0  0  0  0  0  0
    0.3150    1.9752   -0.8721 H   0  0  0  0  0  0  0  0  0  0  0  0
  1  5  1  0
  5  6  1  0
  5  9  2  0
  1  2  1  0
  1  3  1  0
  1  4  1  0
  6  7  1  0
  6  8  1  0
 10 14  1  0
 14 16  1  0
 16 17  2  0
 16 18  1  0
 10 11  1  0
 10 12  1  0
 10 13  1  0
 14 15  1  0
 18 19  1  0
 18 20  1  0
 18 21  1  0
M  END
>  <PDB_ID>  (227) 
pdb1n1b

>  <RESIDUE_NAME>  (227) 
GLN   PRO

>  <FRAG_NAME>  (227) 
ACEM   NMA

>  <FRAG_ATOM_NUM>  (227) 
fragi: 9  fragj: 12

>  <atom.prop.CHAIN_ID>  (227) 
A A A A A A A A A Z Z Z Z Z Z Z Z Z Z Z Z

>  <atom.prop.IS_HEAVY_ATOM>  (227) 
1 0 0 0 1 1 0 0 1 1 0 0 0 1 0 1 1 1 0 0 0

>  <DIFUSE_FUNC_ATOM>  (227) 
n/a

>  <FINAL_SINGLE_POINT_ENERGY>  (227) 
0

>  <NONCOV_INTER_ENERGY_QM>  (227) 
0

>  <FF_Energy>  (227) 
7.12

>  <QM_Energy>  (227) 
18.22

>  <source>  (227) 
ACEM_nNMA_14

>  <Index>  (227) 
15463

$$$$
ACEM-pdb2qts-B-GLN-261:NMA-pdb2qts-A-THR-215
     RDKit          3D

 21 19  0  0  0  0  0  0  0  0999 V2000
   -6.0709    0.4726    0.4555 C   0  0  0  0  0  0  0  0  0  0  0  0
   -6.5597    0.5419    1.3228 H   0  0  0  0  0  0  0  0  0  0  0  0
   -6.6092   -0.0600   -0.1941 H   0  0  0  0  0  0  0  0  0  0  0  0
   -5.9327    1.4760    0.0527 H   0  0  0  0  0  0  0  0  0  0  0  0
   -4.7556   -0.2315    0.6926 C   0  0  0  0  0  0  0  0  0  0  0  0
   -3.9112   -0.2533   -0.3228 N   0  0  0  0  0  0  0  0  0  0  0  0
   -2.9945   -0.6986   -0.2366 H   0  0  0  0  0  0  0  0  0  0  0  0
   -4.1827    0.1813   -1.2040 H   0  0  0  0  0  0  0  0  0  0  0  0
   -4.4995   -0.7520    1.7802 O   0  0  0  0  0  0  0  0  0  0  0  0
   -1.0926   -2.1658    0.0350 C   0  0  0  0  0  0  0  0  0  0  0  0
   -0.7169   -2.4693    0.9422 H   0  0  0  0  0  0  0  0  0  0  0  0
   -2.0575   -2.5185    0.0115 H   0  0  0  0  0  0  0  0  0  0  0  0
   -0.5221   -2.6425   -0.7621 H   0  0  0  0  0  0  0  0  0  0  0  0
   -1.1212   -0.7116   -0.0000 N   0  0  0  0  0  0  0  0  0  0  0  0
   -1.9943   -0.1532   -0.0263 H   0  0  0  0  0  0  0  0  0  0  0  0
    0.0000    0.0000    0.0000 C   0  0  0  0  0  0  0  0  0  0  0  0
    1.1212   -0.5094   -0.0000 O   0  0  0  0  0  0  0  0  0  0  0  0
   -0.1607    1.5166   -0.0093 C   0  0  0  0  0  0  0  0  0  0  0  0
    0.6735    1.9185   -0.4375 H   0  0  0  0  0  0  0  0  0  0  0  0
   -1.0335    1.8672   -0.5603 H   0  0  0  0  0  0  0  0  0  0  0  0
   -0.2013    1.8678    1.0217 H   0  0  0  0  0  0  0  0  0  0  0  0
  1  5  1  0
  5  6  1  0
  5  9  2  0
  1  2  1  0
  1  3  1  0
  1  4  1  0
  6  7  1  0
  6  8  1  0
 10 14  1  0
 14 16  1  0
 16 17  2  0
 16 18  1  0
 10 11  1  0
 10 12  1  0
 10 13  1  0
 14 15  1  0
 18 19  1  0
 18 20  1  0
 18 21  1  0
M  END
>  <PDB_ID>  (228) 
pdb2qts

>  <RESIDUE_NAME>  (228) 
GLN   THR

>  <FRAG_NAME>  (228) 
ACEM   NMA

>  <FRAG_ATOM_NUM>  (228) 
fragi: 9  fragj: 12

>  <atom.prop.CHAIN_ID>  (228) 
A A A A A A A A A Z Z Z Z Z Z Z Z Z Z Z Z

>  <atom.prop.IS_HEAVY_ATOM>  (228) 
1 0 0 0 1 1 0 0 1 1 0 0 0 1 0 1 1 1 0 0 0

>  <DIFUSE_FUNC_ATOM>  (228) 
n/a

>  <FINAL_SINGLE_POINT_ENERGY>  (228) 
0

>  <NONCOV_INTER_ENERGY_QM>  (228) 
0

>  <FF_Energy>  (228) 
5.2

>  <QM_Energy>  (228) 
15.85

>  <source>  (228) 
ACEM_nNMA_14

>  <Index>  (228) 
18206

$$$$
ACEM-pdb2qvg-A-ASN-68:NMA-pdb2qvg-A-THR-96
     RDKit          3D

 21 19  0  0  0  0  0  0  0  0999 V2000
   -5.0063    1.9327    1.4519 C   0  0  0  0  0  0  0  0  0  0  0  0
   -4.6683    2.0785    2.3802 H   0  0  0  0  0  0  0  0  0  0  0  0
   -5.7481    1.2651    1.4630 H   0  0  0  0  0  0  0  0  0  0  0  0
   -5.4047    2.8774    1.0818 H   0  0  0  0  0  0  0  0  0  0  0  0
   -3.8855    1.4031    0.6021 C   0  0  0  0  0  0  0  0  0  0  0  0
   -2.8221    0.9534    1.2500 N   0  0  0  0  0  0  0  0  0  0  0  0
   -2.7943    0.9712    2.2501 H   0  0  0  0  0  0  0  0  0  0  0  0
   -2.0389    0.5919    0.7395 H   0  0  0  0  0  0  0  0  0  0  0  0
   -3.9761    1.3827   -0.6263 O   0  0  0  0  0  0  0  0  0  0  0  0
   -1.1141   -2.1671   -0.0505 C   0  0  0  0  0  0  0  0  0  0  0  0
   -0.2676   -2.5044    0.3531 H   0  0  0  0  0  0  0  0  0  0  0  0
   -1.1449   -2.4710   -1.0968 H   0  0  0  0  0  0  0  0  0  0  0  0
   -1.9765   -2.5623    0.4863 H   0  0  0  0  0  0  0  0  0  0  0  0
   -1.1223   -0.7132    0.0000 N   0  0  0  0  0  0  0  0  0  0  0  0
   -1.9956   -0.1457    0.0387 H   0  0  0  0  0  0  0  0  0  0  0  0
    0.0000    0.0000    0.0000 C   0  0  0  0  0  0  0  0  0  0  0  0
    1.1223   -0.5101    0.0000 O   0  0  0  0  0  0  0  0  0  0  0  0
   -0.1741    1.5092    0.0128 C   0  0  0  0  0  0  0  0  0  0  0  0
   -0.9550    1.7340    0.6237 H   0  0  0  0  0  0  0  0  0  0  0  0
    0.7086    2.0357    0.3757 H   0  0  0  0  0  0  0  0  0  0  0  0
   -0.4165    1.8435   -0.9960 H   0  0  0  0  0  0  0  0  0  0  0  0
  1  5  1  0
  5  6  1  0
  5  9  2  0
  1  2  1  0
  1  3  1  0
  1  4  1  0
  6  7  1  0
  6  8  1  0
 10 14  1  0
 14 16  1  0
 16 17  2  0
 16 18  1  0
 10 11  1  0
 10 12  1  0
 10 13  1  0
 14 15  1  0
 18 19  1  0
 18 20  1  0
 18 21  1  0
M  END
>  <PDB_ID>  (229) 
pdb2qvg

>  <RESIDUE_NAME>  (229) 
ASN   THR

>  <FRAG_NAME>  (229) 
ACEM   NMA

>  <FRAG_ATOM_NUM>  (229) 
fragi: 9  fragj: 12

>  <atom.prop.CHAIN_ID>  (229) 
A A A A A A A A A Z Z Z Z Z Z Z Z Z Z Z Z

>  <atom.prop.IS_HEAVY_ATOM>  (229) 
1 0 0 0 1 1 0 0 1 1 0 0 0 1 0 1 1 1 0 0 0

>  <DIFUSE_FUNC_ATOM>  (229) 
n/a

>  <FINAL_SINGLE_POINT_ENERGY>  (229) 
0

>  <NONCOV_INTER_ENERGY_QM>  (229) 
0

>  <FF_Energy>  (229) 
20.08

>  <QM_Energy>  (229) 
32.98

>  <source>  (229) 
ACEM_nNMA_14

>  <Index>  (229) 
18503

$$$$
ACEM-pdb1n1b-B-GLN-515:NMA-pdb1n1b-B-PRO-511
     RDKit          3D

 21 19  0  0  0  0  0  0  0  0999 V2000
   -4.3164    1.6341   -0.2733 C   0  0  0  0  0  0  0  0  0  0  0  0
   -3.6586    2.0488    0.3581 H   0  0  0  0  0  0  0  0  0  0  0  0
   -5.0868    2.2608   -0.4042 H   0  0  0  0  0  0  0  0  0  0  0  0
   -3.8251    1.4847   -1.2347 H   0  0  0  0  0  0  0  0  0  0  0  0
   -4.8405    0.3458    0.3521 C   0  0  0  0  0  0  0  0  0  0  0  0
   -3.9615   -0.6414    0.4924 N   0  0  0  0  0  0  0  0  0  0  0  0
   -4.2352   -1.5240    0.9134 H   0  0  0  0  0  0  0  0  0  0  0  0
   -3.0069   -0.4983    0.1687 H   0  0  0  0  0  0  0  0  0  0  0  0
   -6.0197    0.2366    0.6981 O   0  0  0  0  0  0  0  0  0  0  0  0
   -1.1125   -2.1726   -0.0222 C   0  0  0  0  0  0  0  0  0  0  0  0
   -0.1669   -2.4937   -0.0544 H   0  0  0  0  0  0  0  0  0  0  0  0
   -1.6296   -2.5153   -0.9184 H   0  0  0  0  0  0  0  0  0  0  0  0
   -1.6000   -2.5720    0.8671 H   0  0  0  0  0  0  0  0  0  0  0  0
   -1.1208   -0.7142    0.0000 N   0  0  0  0  0  0  0  0  0  0  0  0
   -1.9954   -0.1490    0.0170 H   0  0  0  0  0  0  0  0  0  0  0  0
    0.0000    0.0000    0.0000 C   0  0  0  0  0  0  0  0  0  0  0  0
    1.1208   -0.5095   -0.0000 O   0  0  0  0  0  0  0  0  0  0  0  0
   -0.1678    1.5204   -0.0047 C   0  0  0  0  0  0  0  0  0  0  0  0
   -1.1539    1.7679   -0.0536 H   0  0  0  0  0  0  0  0  0  0  0  0
    0.3068    2.0153    0.8425 H   0  0  0  0  0  0  0  0  0  0  0  0
    0.3240    1.9767   -0.8637 H   0  0  0  0  0  0  0  0  0  0  0  0
  1  5  1  0
  5  6  1  0
  5  9  2  0
  1  2  1  0
  1  3  1  0
  1  4  1  0
  6  7  1  0
  6  8  1  0
 10 14  1  0
 14 16  1  0
 16 17  2  0
 16 18  1  0
 10 11  1  0
 10 12  1  0
 10 13  1  0
 14 15  1  0
 18 19  1  0
 18 20  1  0
 18 21  1  0
M  END
>  <PDB_ID>  (230) 
pdb1n1b

>  <RESIDUE_NAME>  (230) 
GLN   PRO

>  <FRAG_NAME>  (230) 
ACEM   NMA

>  <FRAG_ATOM_NUM>  (230) 
fragi: 9  fragj: 12

>  <atom.prop.CHAIN_ID>  (230) 
A A A A A A A A A Z Z Z Z Z Z Z Z Z Z Z Z

>  <atom.prop.IS_HEAVY_ATOM>  (230) 
1 0 0 0 1 1 0 0 1 1 0 0 0 1 0 1 1 1 0 0 0

>  <DIFUSE_FUNC_ATOM>  (230) 
n/a

>  <FINAL_SINGLE_POINT_ENERGY>  (230) 
0

>  <NONCOV_INTER_ENERGY_QM>  (230) 
0

>  <FF_Energy>  (230) 
7.83

>  <QM_Energy>  (230) 
20.08

>  <source>  (230) 
ACEM_nNMA_14

>  <Index>  (230) 
18620

$$$$
ACEM-pdb2qry-C-GLN-272:NMA-pdb2qry-C-PRO-283
     RDKit          3D

 21 19  0  0  0  0  0  0  0  0999 V2000
   -4.8284    0.8691   -2.9412 C   0  0  0  0  0  0  0  0  0  0  0  0
   -5.8181    0.9749   -3.0288 H   0  0  0  0  0  0  0  0  0  0  0  0
   -4.5244    0.0828   -3.4753 H   0  0  0  0  0  0  0  0  0  0  0  0
   -4.3495    1.7634   -3.3398 H   0  0  0  0  0  0  0  0  0  0  0  0
   -4.4922    0.6291   -1.4796 C   0  0  0  0  0  0  0  0  0  0  0  0
   -3.2123    0.4075   -1.1980 N   0  0  0  0  0  0  0  0  0  0  0  0
   -2.9088    0.2523   -0.2398 H   0  0  0  0  0  0  0  0  0  0  0  0
   -2.5360    0.3957   -1.9591 H   0  0  0  0  0  0  0  0  0  0  0  0
   -5.3710    0.6418   -0.6136 O   0  0  0  0  0  0  0  0  0  0  0  0
   -1.0838   -2.1723    0.0001 C   0  0  0  0  0  0  0  0  0  0  0  0
   -0.2563   -2.4708    0.4736 H   0  0  0  0  0  0  0  0  0  0  0  0
   -1.0250   -2.5254   -1.0294 H   0  0  0  0  0  0  0  0  0  0  0  0
   -1.9747   -2.5765    0.4806 H   0  0  0  0  0  0  0  0  0  0  0  0
   -1.1150   -0.7157   -0.0000 N   0  0  0  0  0  0  0  0  0  0  0  0
   -1.9922   -0.1616   -0.0006 H   0  0  0  0  0  0  0  0  0  0  0  0
    0.0000    0.0000    0.0000 C   0  0  0  0  0  0  0  0  0  0  0  0
    1.1150   -0.5091   -0.0000 O   0  0  0  0  0  0  0  0  0  0  0  0
   -0.1546    1.5142   -0.0112 C   0  0  0  0  0  0  0  0  0  0  0  0
   -0.9859    1.7936    0.4599 H   0  0  0  0  0  0  0  0  0  0  0  0
    0.7271    1.9527    0.4560 H   0  0  0  0  0  0  0  0  0  0  0  0
   -0.1184    1.9064   -1.0276 H   0  0  0  0  0  0  0  0  0  0  0  0
  1  5  1  0
  5  6  1  0
  5  9  2  0
  1  2  1  0
  1  3  1  0
  1  4  1  0
  6  7  1  0
  6  8  1  0
 10 14  1  0
 14 16  1  0
 16 17  2  0
 16 18  1  0
 10 11  1  0
 10 12  1  0
 10 13  1  0
 14 15  1  0
 18 19  1  0
 18 20  1  0
 18 21  1  0
M  END
>  <PDB_ID>  (231) 
pdb2qry

>  <RESIDUE_NAME>  (231) 
GLN   PRO

>  <FRAG_NAME>  (231) 
ACEM   NMA

>  <FRAG_ATOM_NUM>  (231) 
fragi: 9  fragj: 12

>  <atom.prop.CHAIN_ID>  (231) 
A A A A A A A A A Z Z Z Z Z Z Z Z Z Z Z Z

>  <atom.prop.IS_HEAVY_ATOM>  (231) 
1 0 0 0 1 1 0 0 1 1 0 0 0 1 0 1 1 1 0 0 0

>  <DIFUSE_FUNC_ATOM>  (231) 
n/a

>  <FINAL_SINGLE_POINT_ENERGY>  (231) 
0

>  <NONCOV_INTER_ENERGY_QM>  (231) 
0

>  <FF_Energy>  (231) 
14.53

>  <QM_Energy>  (231) 
27.07

>  <source>  (231) 
ACEM_nNMA_14

>  <Index>  (231) 
19741

$$$$
ACEM-pdb1n82-A-ASN-302:NMA-pdb1n82-A-HID-306
     RDKit          3D

 21 19  0  0  0  0  0  0  0  0999 V2000
   -4.2599    1.8754    0.9139 C   0  0  0  0  0  0  0  0  0  0  0  0
   -5.0739    2.3447    1.2037 H   0  0  0  0  0  0  0  0  0  0  0  0
   -3.7404    2.3968    0.2615 H   0  0  0  0  0  0  0  0  0  0  0  0
   -3.6332    1.7119    1.7906 H   0  0  0  0  0  0  0  0  0  0  0  0
   -4.6401    0.5487    0.3027 C   0  0  0  0  0  0  0  0  0  0  0  0
   -3.7216   -0.3160   -0.0671 N   0  0  0  0  0  0  0  0  0  0  0  0
   -2.7494   -0.0399    0.0893 H   0  0  0  0  0  0  0  0  0  0  0  0
   -3.9428   -1.1788   -0.4686 H   0  0  0  0  0  0  0  0  0  0  0  0
   -5.8466    0.3616    0.1529 O   0  0  0  0  0  0  0  0  0  0  0  0
   -1.0420   -2.1416   -0.3163 C   0  0  0  0  0  0  0  0  0  0  0  0
   -1.9703   -2.4666   -0.6015 H   0  0  0  0  0  0  0  0  0  0  0  0
   -0.4398   -2.2726   -1.1346 H   0  0  0  0  0  0  0  0  0  0  0  0
   -0.6785   -2.7630    0.5020 H   0  0  0  0  0  0  0  0  0  0  0  0
   -1.1101   -0.7341    0.0000 N   0  0  0  0  0  0  0  0  0  0  0  0
   -1.9732   -0.2275    0.2348 H   0  0  0  0  0  0  0  0  0  0  0  0
    0.0000    0.0000    0.0000 C   0  0  0  0  0  0  0  0  0  0  0  0
    1.1101   -0.5256   -0.0000 O   0  0  0  0  0  0  0  0  0  0  0  0
   -0.1996    1.5094   -0.0319 C   0  0  0  0  0  0  0  0  0  0  0  0
   -1.1238    1.7137    0.3299 H   0  0  0  0  0  0  0  0  0  0  0  0
    0.5313    2.0406    0.5778 H   0  0  0  0  0  0  0  0  0  0  0  0
   -0.1860    1.8185   -1.0770 H   0  0  0  0  0  0  0  0  0  0  0  0
  1  5  1  0
  5  6  1  0
  5  9  2  0
  1  2  1  0
  1  3  1  0
  1  4  1  0
  6  7  1  0
  6  8  1  0
 10 14  1  0
 14 16  1  0
 16 17  2  0
 16 18  1  0
 10 11  1  0
 10 12  1  0
 10 13  1  0
 14 15  1  0
 18 19  1  0
 18 20  1  0
 18 21  1  0
M  END
>  <PDB_ID>  (232) 
pdb1n82

>  <RESIDUE_NAME>  (232) 
ASN   HID

>  <FRAG_NAME>  (232) 
ACEM   NMA

>  <FRAG_ATOM_NUM>  (232) 
fragi: 9  fragj: 12

>  <atom.prop.CHAIN_ID>  (232) 
A A A A A A A A A Z Z Z Z Z Z Z Z Z Z Z Z

>  <atom.prop.IS_HEAVY_ATOM>  (232) 
1 0 0 0 1 1 0 0 1 1 0 0 0 1 0 1 1 1 0 0 0

>  <DIFUSE_FUNC_ATOM>  (232) 
n/a

>  <FINAL_SINGLE_POINT_ENERGY>  (232) 
0

>  <NONCOV_INTER_ENERGY_QM>  (232) 
0

>  <FF_Energy>  (232) 
22.68

>  <QM_Energy>  (232) 
51.65

>  <source>  (232) 
ACEM_nNMA_14

>  <Index>  (232) 
19796

$$$$
ACEM-pdb1n97-A-GLN-300:NMA-pdb1n97-A-TYR-326
     RDKit          3D

 21 19  0  0  0  0  0  0  0  0999 V2000
   -4.1149    2.4123   -0.7304 C   0  0  0  0  0  0  0  0  0  0  0  0
   -3.1447    2.6506   -0.5310 H   0  0  0  0  0  0  0  0  0  0  0  0
   -4.5309    2.1214    0.1530 H   0  0  0  0  0  0  0  0  0  0  0  0
   -4.6395    3.2858   -1.1175 H   0  0  0  0  0  0  0  0  0  0  0  0
   -4.1179    1.2396   -1.6449 C   0  0  0  0  0  0  0  0  0  0  0  0
   -3.4602    0.2479   -1.2299 N   0  0  0  0  0  0  0  0  0  0  0  0
   -3.4027   -0.6554   -1.7959 H   0  0  0  0  0  0  0  0  0  0  0  0
   -2.9568    0.2670   -0.3396 H   0  0  0  0  0  0  0  0  0  0  0  0
   -4.7716    1.2386   -2.7276 O   0  0  0  0  0  0  0  0  0  0  0  0
   -1.0954   -2.1921    0.2320 C   0  0  0  0  0  0  0  0  0  0  0  0
   -0.1666   -2.5039   -0.0595 H   0  0  0  0  0  0  0  0  0  0  0  0
   -1.8280   -2.7628   -0.3387 H   0  0  0  0  0  0  0  0  0  0  0  0
   -1.1758   -2.3908    1.3007 H   0  0  0  0  0  0  0  0  0  0  0  0
   -1.1160   -0.7232   -0.0000 N   0  0  0  0  0  0  0  0  0  0  0  0
   -1.9880   -0.1963   -0.1704 H   0  0  0  0  0  0  0  0  0  0  0  0
    0.0000    0.0000    0.0000 C   0  0  0  0  0  0  0  0  0  0  0  0
    1.1160   -0.5100   -0.0000 O   0  0  0  0  0  0  0  0  0  0  0  0
   -0.2192    1.5000   -0.0857 C   0  0  0  0  0  0  0  0  0  0  0  0
   -1.1541    1.6675   -0.3887 H   0  0  0  0  0  0  0  0  0  0  0  0
   -0.1043    1.9253    0.9113 H   0  0  0  0  0  0  0  0  0  0  0  0
    0.4655    1.9616   -0.7971 H   0  0  0  0  0  0  0  0  0  0  0  0
  1  5  1  0
  5  6  1  0
  5  9  2  0
  1  2  1  0
  1  3  1  0
  1  4  1  0
  6  7  1  0
  6  8  1  0
 10 14  1  0
 14 16  1  0
 16 17  2  0
 16 18  1  0
 10 11  1  0
 10 12  1  0
 10 13  1  0
 14 15  1  0
 18 19  1  0
 18 20  1  0
 18 21  1  0
M  END
>  <PDB_ID>  (233) 
pdb1n97

>  <RESIDUE_NAME>  (233) 
GLN   TYR

>  <FRAG_NAME>  (233) 
ACEM   NMA

>  <FRAG_ATOM_NUM>  (233) 
fragi: 9  fragj: 12

>  <atom.prop.CHAIN_ID>  (233) 
A A A A A A A A A Z Z Z Z Z Z Z Z Z Z Z Z

>  <atom.prop.IS_HEAVY_ATOM>  (233) 
1 0 0 0 1 1 0 0 1 1 0 0 0 1 0 1 1 1 0 0 0

>  <DIFUSE_FUNC_ATOM>  (233) 
n/a

>  <FINAL_SINGLE_POINT_ENERGY>  (233) 
0

>  <NONCOV_INTER_ENERGY_QM>  (233) 
0

>  <FF_Energy>  (233) 
9.64

>  <QM_Energy>  (233) 
21.48

>  <source>  (233) 
ACEM_nNMA_14

>  <Index>  (233) 
20650

$$$$
ACEM-pdb2qts-C-GLN-261:NMA-pdb2qts-B-THR-215
     RDKit          3D

 21 19  0  0  0  0  0  0  0  0999 V2000
   -6.0874    0.4628    0.2026 C   0  0  0  0  0  0  0  0  0  0  0  0
   -6.6401    0.4783    1.0295 H   0  0  0  0  0  0  0  0  0  0  0  0
   -6.5444   -0.0640   -0.5077 H   0  0  0  0  0  0  0  0  0  0  0  0
   -5.9568    1.4858   -0.1500 H   0  0  0  0  0  0  0  0  0  0  0  0
   -4.7603   -0.1853    0.5153 C   0  0  0  0  0  0  0  0  0  0  0  0
   -3.8632   -0.1935   -0.4598 N   0  0  0  0  0  0  0  0  0  0  0  0
   -2.9391   -0.6008   -0.3206 H   0  0  0  0  0  0  0  0  0  0  0  0
   -4.1096    0.2143   -1.3613 H   0  0  0  0  0  0  0  0  0  0  0  0
   -4.5449   -0.6811    1.6242 O   0  0  0  0  0  0  0  0  0  0  0  0
   -1.0561   -2.1757    0.0269 C   0  0  0  0  0  0  0  0  0  0  0  0
   -0.6403   -2.4750    0.9180 H   0  0  0  0  0  0  0  0  0  0  0  0
   -2.0140   -2.5497    0.0407 H   0  0  0  0  0  0  0  0  0  0  0  0
   -0.5073   -2.6412   -0.7919 H   0  0  0  0  0  0  0  0  0  0  0  0
   -1.1179   -0.7213    0.0000 N   0  0  0  0  0  0  0  0  0  0  0  0
   -1.9932   -0.1794   -0.0200 H   0  0  0  0  0  0  0  0  0  0  0  0
    0.0000    0.0000    0.0000 C   0  0  0  0  0  0  0  0  0  0  0  0
    1.1179   -0.5038   -0.0000 O   0  0  0  0  0  0  0  0  0  0  0  0
   -0.1562    1.5123   -0.0087 C   0  0  0  0  0  0  0  0  0  0  0  0
    0.6962    1.9162   -0.4020 H   0  0  0  0  0  0  0  0  0  0  0  0
   -1.0055    1.8745   -0.5879 H   0  0  0  0  0  0  0  0  0  0  0  0
   -0.2265    1.8590    1.0223 H   0  0  0  0  0  0  0  0  0  0  0  0
  1  5  1  0
  5  6  1  0
  5  9  2  0
  1  2  1  0
  1  3  1  0
  1  4  1  0
  6  7  1  0
  6  8  1  0
 10 14  1  0
 14 16  1  0
 16 17  2  0
 16 18  1  0
 10 11  1  0
 10 12  1  0
 10 13  1  0
 14 15  1  0
 18 19  1  0
 18 20  1  0
 18 21  1  0
M  END
>  <PDB_ID>  (234) 
pdb2qts

>  <RESIDUE_NAME>  (234) 
GLN   THR

>  <FRAG_NAME>  (234) 
ACEM   NMA

>  <FRAG_ATOM_NUM>  (234) 
fragi: 9  fragj: 12

>  <atom.prop.CHAIN_ID>  (234) 
A A A A A A A A A Z Z Z Z Z Z Z Z Z Z Z Z

>  <atom.prop.IS_HEAVY_ATOM>  (234) 
1 0 0 0 1 1 0 0 1 1 0 0 0 1 0 1 1 1 0 0 0

>  <DIFUSE_FUNC_ATOM>  (234) 
n/a

>  <FINAL_SINGLE_POINT_ENERGY>  (234) 
0

>  <NONCOV_INTER_ENERGY_QM>  (234) 
0

>  <FF_Energy>  (234) 
6.68

>  <QM_Energy>  (234) 
19.68

>  <source>  (234) 
ACEM_nNMA_14

>  <Index>  (234) 
21303

$$$$
ACEM-pdb1nb8-A-GLN-219:NMA-pdb1nb8-A-GLY-275
     RDKit          3D

 21 19  0  0  0  0  0  0  0  0999 V2000
   -4.9635    2.2070    1.8451 C   0  0  0  0  0  0  0  0  0  0  0  0
   -5.3018    3.1000    1.5463 H   0  0  0  0  0  0  0  0  0  0  0  0
   -4.4543    2.3143    2.7000 H   0  0  0  0  0  0  0  0  0  0  0  0
   -5.8245    1.5685    2.0428 H   0  0  0  0  0  0  0  0  0  0  0  0
   -4.0211    1.6585    0.7777 C   0  0  0  0  0  0  0  0  0  0  0  0
   -3.4825    0.4695    1.0230 N   0  0  0  0  0  0  0  0  0  0  0  0
   -2.8570    0.0345    0.3515 H   0  0  0  0  0  0  0  0  0  0  0  0
   -3.7083   -0.0015    1.8972 H   0  0  0  0  0  0  0  0  0  0  0  0
   -3.7884    2.2927   -0.2533 O   0  0  0  0  0  0  0  0  0  0  0  0
   -1.0675   -2.1781    0.0252 C   0  0  0  0  0  0  0  0  0  0  0  0
   -0.1834   -2.4763   -0.3798 H   0  0  0  0  0  0  0  0  0  0  0  0
   -1.8710   -2.6527   -0.5379 H   0  0  0  0  0  0  0  0  0  0  0  0
   -1.1018   -2.5400    1.0527 H   0  0  0  0  0  0  0  0  0  0  0  0
   -1.1182   -0.7219    0.0000 N   0  0  0  0  0  0  0  0  0  0  0  0
   -1.9943   -0.1758   -0.0184 H   0  0  0  0  0  0  0  0  0  0  0  0
    0.0000    0.0000    0.0000 C   0  0  0  0  0  0  0  0  0  0  0  0
    1.1182   -0.5270    0.0000 O   0  0  0  0  0  0  0  0  0  0  0  0
   -0.1509    1.5224   -0.0096 C   0  0  0  0  0  0  0  0  0  0  0  0
   -0.8121    1.7918    0.7037 H   0  0  0  0  0  0  0  0  0  0  0  0
   -0.5247    1.8105   -0.9027 H   0  0  0  0  0  0  0  0  0  0  0  0
    0.8009    2.0235    0.1668 H   0  0  0  0  0  0  0  0  0  0  0  0
  1  5  1  0
  5  6  1  0
  5  9  2  0
  1  2  1  0
  1  3  1  0
  1  4  1  0
  6  7  1  0
  6  8  1  0
 10 14  1  0
 14 16  1  0
 16 17  2  0
 16 18  1  0
 10 11  1  0
 10 12  1  0
 10 13  1  0
 14 15  1  0
 18 19  1  0
 18 20  1  0
 18 21  1  0
M  END
>  <PDB_ID>  (235) 
pdb1nb8

>  <RESIDUE_NAME>  (235) 
GLN   GLY

>  <FRAG_NAME>  (235) 
ACEM   NMA

>  <FRAG_ATOM_NUM>  (235) 
fragi: 9  fragj: 12

>  <atom.prop.CHAIN_ID>  (235) 
A A A A A A A A A Z Z Z Z Z Z Z Z Z Z Z Z

>  <atom.prop.IS_HEAVY_ATOM>  (235) 
1 0 0 0 1 1 0 0 1 1 0 0 0 1 0 1 1 1 0 0 0

>  <DIFUSE_FUNC_ATOM>  (235) 
n/a

>  <FINAL_SINGLE_POINT_ENERGY>  (235) 
0

>  <NONCOV_INTER_ENERGY_QM>  (235) 
0

>  <FF_Energy>  (235) 
7.66

>  <QM_Energy>  (235) 
28.05

>  <source>  (235) 
ACEM_nNMA_14

>  <Index>  (235) 
21504

$$$$
ACEM-pdb2qz9-A-ASN-301:NMA-pdb2qz9-A-ASP-259
     RDKit          3D

 21 19  0  0  0  0  0  0  0  0999 V2000
   -5.7173    0.4656    1.6416 C   0  0  0  0  0  0  0  0  0  0  0  0
   -6.5080    0.2455    1.0772 H   0  0  0  0  0  0  0  0  0  0  0  0
   -5.8686    1.3228    2.1261 H   0  0  0  0  0  0  0  0  0  0  0  0
   -5.5911   -0.3269    2.3793 H   0  0  0  0  0  0  0  0  0  0  0  0
   -4.5045    0.6306    0.7318 C   0  0  0  0  0  0  0  0  0  0  0  0
   -3.3247    0.4872    1.3031 N   0  0  0  0  0  0  0  0  0  0  0  0
   -3.2560    0.2741    2.2804 H   0  0  0  0  0  0  0  0  0  0  0  0
   -2.4849    0.5879    0.7622 H   0  0  0  0  0  0  0  0  0  0  0  0
   -4.6323    0.8776   -0.4703 O   0  0  0  0  0  0  0  0  0  0  0  0
   -1.1279   -2.1838   -0.0322 C   0  0  0  0  0  0  0  0  0  0  0  0
   -0.7828   -2.5258    0.8595 H   0  0  0  0  0  0  0  0  0  0  0  0
   -0.5039   -2.5994   -0.8234 H   0  0  0  0  0  0  0  0  0  0  0  0
   -2.1451   -2.5670   -0.1131 H   0  0  0  0  0  0  0  0  0  0  0  0
   -1.1273   -0.7181    0.0000 N   0  0  0  0  0  0  0  0  0  0  0  0
   -2.0004   -0.1491    0.0247 H   0  0  0  0  0  0  0  0  0  0  0  0
    0.0000    0.0000    0.0000 C   0  0  0  0  0  0  0  0  0  0  0  0
    1.1273   -0.5021   -0.0000 O   0  0  0  0  0  0  0  0  0  0  0  0
   -0.1653    1.5144   -0.0275 C   0  0  0  0  0  0  0  0  0  0  0  0
   -1.0184    1.7231    0.4670 H   0  0  0  0  0  0  0  0  0  0  0  0
    0.6522    2.0013    0.5043 H   0  0  0  0  0  0  0  0  0  0  0  0
   -0.2083    1.8702   -1.0569 H   0  0  0  0  0  0  0  0  0  0  0  0
  1  5  1  0
  5  6  1  0
  5  9  2  0
  1  2  1  0
  1  3  1  0
  1  4  1  0
  6  7  1  0
  6  8  1  0
 10 14  1  0
 14 16  1  0
 16 17  2  0
 16 18  1  0
 10 11  1  0
 10 12  1  0
 10 13  1  0
 14 15  1  0
 18 19  1  0
 18 20  1  0
 18 21  1  0
M  END
>  <PDB_ID>  (236) 
pdb2qz9

>  <RESIDUE_NAME>  (236) 
ASN   ASP

>  <FRAG_NAME>  (236) 
ACEM   NMA

>  <FRAG_ATOM_NUM>  (236) 
fragi: 9  fragj: 12

>  <atom.prop.CHAIN_ID>  (236) 
A A A A A A A A A Z Z Z Z Z Z Z Z Z Z Z Z

>  <atom.prop.IS_HEAVY_ATOM>  (236) 
1 0 0 0 1 1 0 0 1 1 0 0 0 1 0 1 1 1 0 0 0

>  <DIFUSE_FUNC_ATOM>  (236) 
n/a

>  <FINAL_SINGLE_POINT_ENERGY>  (236) 
0

>  <NONCOV_INTER_ENERGY_QM>  (236) 
0

>  <FF_Energy>  (236) 
6.38

>  <QM_Energy>  (236) 
17.15

>  <source>  (236) 
ACEM_nNMA_14

>  <Index>  (236) 
25436

$$$$
ACEM-pdb2r33-A-ASN-36:NMA-pdb2r33-A-ASP-20
     RDKit          3D

 21 19  0  0  0  0  0  0  0  0999 V2000
   -5.6898    1.5209    1.1541 C   0  0  0  0  0  0  0  0  0  0  0  0
   -6.2960    1.5206    0.3565 H   0  0  0  0  0  0  0  0  0  0  0  0
   -5.8040    2.3828    1.6539 H   0  0  0  0  0  0  0  0  0  0  0  0
   -5.9836    0.7017    1.8103 H   0  0  0  0  0  0  0  0  0  0  0  0
   -4.2576    1.4335    0.6679 C   0  0  0  0  0  0  0  0  0  0  0  0
   -3.5017    0.3980    0.9776 N   0  0  0  0  0  0  0  0  0  0  0  0
   -3.9383   -0.3271    1.5489 H   0  0  0  0  0  0  0  0  0  0  0  0
   -2.5738    0.3197    0.6805 H   0  0  0  0  0  0  0  0  0  0  0  0
   -3.8682    2.3687   -0.0355 O   0  0  0  0  0  0  0  0  0  0  0  0
   -1.1233   -2.1538    0.1996 C   0  0  0  0  0  0  0  0  0  0  0  0
   -0.1685   -2.4836    0.1551 H   0  0  0  0  0  0  0  0  0  0  0  0
   -1.6872   -2.6703   -0.5772 H   0  0  0  0  0  0  0  0  0  0  0  0
   -1.5636   -2.4131    1.1624 H   0  0  0  0  0  0  0  0  0  0  0  0
   -1.1171   -0.7152   -0.0000 N   0  0  0  0  0  0  0  0  0  0  0  0
   -1.9876   -0.1555   -0.1556 H   0  0  0  0  0  0  0  0  0  0  0  0
    0.0000    0.0000    0.0000 C   0  0  0  0  0  0  0  0  0  0  0  0
    1.1171   -0.5119    0.0000 O   0  0  0  0  0  0  0  0  0  0  0  0
   -0.1001    1.4922   -0.2440 C   0  0  0  0  0  0  0  0  0  0  0  0
    0.7260    1.7677   -0.7481 H   0  0  0  0  0  0  0  0  0  0  0  0
   -0.9561    1.7173   -0.8801 H   0  0  0  0  0  0  0  0  0  0  0  0
   -0.1317    2.0610    0.6853 H   0  0  0  0  0  0  0  0  0  0  0  0
  1  5  1  0
  5  6  1  0
  5  9  2  0
  1  2  1  0
  1  3  1  0
  1  4  1  0
  6  7  1  0
  6  8  1  0
 10 14  1  0
 14 16  1  0
 16 17  2  0
 16 18  1  0
 10 11  1  0
 10 12  1  0
 10 13  1  0
 14 15  1  0
 18 19  1  0
 18 20  1  0
 18 21  1  0
M  END
>  <PDB_ID>  (237) 
pdb2r33

>  <RESIDUE_NAME>  (237) 
ASN   ASP

>  <FRAG_NAME>  (237) 
ACEM   NMA

>  <FRAG_ATOM_NUM>  (237) 
fragi: 9  fragj: 12

>  <atom.prop.CHAIN_ID>  (237) 
A A A A A A A A A Z Z Z Z Z Z Z Z Z Z Z Z

>  <atom.prop.IS_HEAVY_ATOM>  (237) 
1 0 0 0 1 1 0 0 1 1 0 0 0 1 0 1 1 1 0 0 0

>  <DIFUSE_FUNC_ATOM>  (237) 
n/a

>  <FINAL_SINGLE_POINT_ENERGY>  (237) 
0

>  <NONCOV_INTER_ENERGY_QM>  (237) 
0

>  <FF_Energy>  (237) 
3.86

>  <QM_Energy>  (237) 
16.77

>  <source>  (237) 
ACEM_nNMA_14

>  <Index>  (237) 
26677

$$$$
ACEM-pdb2r2y-A-ASN-125:NMA-pdb2r2y-A-GLU-81
     RDKit          3D

 21 19  0  0  0  0  0  0  0  0999 V2000
   -6.0414    0.7652    0.3524 C   0  0  0  0  0  0  0  0  0  0  0  0
   -6.9272    0.5428   -0.0411 H   0  0  0  0  0  0  0  0  0  0  0  0
   -5.7752    1.6918    0.1065 H   0  0  0  0  0  0  0  0  0  0  0  0
   -6.1045    0.6885    1.4379 H   0  0  0  0  0  0  0  0  0  0  0  0
   -5.0066   -0.1963   -0.2337 C   0  0  0  0  0  0  0  0  0  0  0  0
   -3.7686   -0.0766    0.2213 N   0  0  0  0  0  0  0  0  0  0  0  0
   -3.5543    0.6119    0.9175 H   0  0  0  0  0  0  0  0  0  0  0  0
   -3.0443   -0.6724   -0.1264 H   0  0  0  0  0  0  0  0  0  0  0  0
   -5.3300   -1.0479   -1.0544 O   0  0  0  0  0  0  0  0  0  0  0  0
   -1.0969   -2.1755   -0.0937 C   0  0  0  0  0  0  0  0  0  0  0  0
   -0.1591   -2.4588    0.0490 H   0  0  0  0  0  0  0  0  0  0  0  0
   -1.3542   -2.4245   -1.1232 H   0  0  0  0  0  0  0  0  0  0  0  0
   -1.8411   -2.5713    0.5974 H   0  0  0  0  0  0  0  0  0  0  0  0
   -1.1178   -0.7119    0.0000 N   0  0  0  0  0  0  0  0  0  0  0  0
   -1.9931   -0.1596    0.0700 H   0  0  0  0  0  0  0  0  0  0  0  0
    0.0000    0.0000    0.0000 C   0  0  0  0  0  0  0  0  0  0  0  0
    1.1178   -0.4976    0.0000 O   0  0  0  0  0  0  0  0  0  0  0  0
   -0.1468    1.5206   -0.0108 C   0  0  0  0  0  0  0  0  0  0  0  0
   -1.0767    1.7621    0.2424 H   0  0  0  0  0  0  0  0  0  0  0  0
    0.5642    1.9178    0.7134 H   0  0  0  0  0  0  0  0  0  0  0  0
    0.0718    1.8843   -1.0148 H   0  0  0  0  0  0  0  0  0  0  0  0
  1  5  1  0
  5  6  1  0
  5  9  2  0
  1  2  1  0
  1  3  1  0
  1  4  1  0
  6  7  1  0
  6  8  1  0
 10 14  1  0
 14 16  1  0
 16 17  2  0
 16 18  1  0
 10 11  1  0
 10 12  1  0
 10 13  1  0
 14 15  1  0
 18 19  1  0
 18 20  1  0
 18 21  1  0
M  END
>  <PDB_ID>  (238) 
pdb2r2y

>  <RESIDUE_NAME>  (238) 
ASN   GLU

>  <FRAG_NAME>  (238) 
ACEM   NMA

>  <FRAG_ATOM_NUM>  (238) 
fragi: 9  fragj: 12

>  <atom.prop.CHAIN_ID>  (238) 
A A A A A A A A A Z Z Z Z Z Z Z Z Z Z Z Z

>  <atom.prop.IS_HEAVY_ATOM>  (238) 
1 0 0 0 1 1 0 0 1 1 0 0 0 1 0 1 1 1 0 0 0

>  <DIFUSE_FUNC_ATOM>  (238) 
n/a

>  <FINAL_SINGLE_POINT_ENERGY>  (238) 
0

>  <NONCOV_INTER_ENERGY_QM>  (238) 
0

>  <FF_Energy>  (238) 
8.41

>  <QM_Energy>  (238) 
19.31

>  <source>  (238) 
ACEM_nNMA_14

>  <Index>  (238) 
26934

$$$$
ACEM-pdb2r33-B-ASN-36:NMA-pdb2r33-B-ASP-20
     RDKit          3D

 21 19  0  0  0  0  0  0  0  0999 V2000
   -5.3719    1.7126    1.9134 C   0  0  0  0  0  0  0  0  0  0  0  0
   -6.0629    1.9736    1.2310 H   0  0  0  0  0  0  0  0  0  0  0  0
   -5.3211    2.4355    2.6113 H   0  0  0  0  0  0  0  0  0  0  0  0
   -5.7032    0.7949    2.3993 H   0  0  0  0  0  0  0  0  0  0  0  0
   -4.0322    1.6119    1.2266 C   0  0  0  0  0  0  0  0  0  0  0  0
   -3.3758    0.4749    1.3766 N   0  0  0  0  0  0  0  0  0  0  0  0
   -3.7742   -0.2684    1.9189 H   0  0  0  0  0  0  0  0  0  0  0  0
   -2.4783    0.3492    0.9494 H   0  0  0  0  0  0  0  0  0  0  0  0
   -3.5938    2.5135    0.5236 O   0  0  0  0  0  0  0  0  0  0  0  0
   -1.1421   -2.1518   -0.0320 C   0  0  0  0  0  0  0  0  0  0  0  0
   -0.2170   -2.4772   -0.2672 H   0  0  0  0  0  0  0  0  0  0  0  0
   -1.8244   -2.5225   -0.7970 H   0  0  0  0  0  0  0  0  0  0  0  0
   -1.4588   -2.5873    0.9157 H   0  0  0  0  0  0  0  0  0  0  0  0
   -1.1237   -0.7030    0.0000 N   0  0  0  0  0  0  0  0  0  0  0  0
   -1.9949   -0.1202    0.0249 H   0  0  0  0  0  0  0  0  0  0  0  0
    0.0000    0.0000    0.0000 C   0  0  0  0  0  0  0  0  0  0  0  0
    1.1237   -0.5070   -0.0000 O   0  0  0  0  0  0  0  0  0  0  0  0
   -0.0794    1.5052    0.1520 C   0  0  0  0  0  0  0  0  0  0  0  0
    0.7511    1.8936   -0.2720 H   0  0  0  0  0  0  0  0  0  0  0  0
   -0.9342    1.9195   -0.3824 H   0  0  0  0  0  0  0  0  0  0  0  0
   -0.0555    1.8151    1.1968 H   0  0  0  0  0  0  0  0  0  0  0  0
  1  5  1  0
  5  6  1  0
  5  9  2  0
  1  2  1  0
  1  3  1  0
  1  4  1  0
  6  7  1  0
  6  8  1  0
 10 14  1  0
 14 16  1  0
 16 17  2  0
 16 18  1  0
 10 11  1  0
 10 12  1  0
 10 13  1  0
 14 15  1  0
 18 19  1  0
 18 20  1  0
 18 21  1  0
M  END
>  <PDB_ID>  (239) 
pdb2r33

>  <RESIDUE_NAME>  (239) 
ASN   ASP

>  <FRAG_NAME>  (239) 
ACEM   NMA

>  <FRAG_ATOM_NUM>  (239) 
fragi: 9  fragj: 12

>  <atom.prop.CHAIN_ID>  (239) 
A A A A A A A A A Z Z Z Z Z Z Z Z Z Z Z Z

>  <atom.prop.IS_HEAVY_ATOM>  (239) 
1 0 0 0 1 1 0 0 1 1 0 0 0 1 0 1 1 1 0 0 0

>  <DIFUSE_FUNC_ATOM>  (239) 
n/a

>  <FINAL_SINGLE_POINT_ENERGY>  (239) 
0

>  <NONCOV_INTER_ENERGY_QM>  (239) 
0

>  <FF_Energy>  (239) 
2.53

>  <QM_Energy>  (239) 
14.67

>  <source>  (239) 
ACEM_nNMA_14

>  <Index>  (239) 
27018

$$$$
ACEM-pdb1nni-1-GLN-48:NMA-pdb1nni-1-PHE-42
     RDKit          3D

 21 19  0  0  0  0  0  0  0  0999 V2000
   -4.3090    1.0912    3.5803 C   0  0  0  0  0  0  0  0  0  0  0  0
   -4.4918    2.0507    3.4219 H   0  0  0  0  0  0  0  0  0  0  0  0
   -4.0365    0.9264    4.5169 H   0  0  0  0  0  0  0  0  0  0  0  0
   -5.2184    0.5254    3.3776 H   0  0  0  0  0  0  0  0  0  0  0  0
   -3.2040    0.6409    2.6569 C   0  0  0  0  0  0  0  0  0  0  0  0
   -3.2737    0.5365    1.3417 N   0  0  0  0  0  0  0  0  0  0  0  0
   -2.5808    0.2681    0.7506 H   0  0  0  0  0  0  0  0  0  0  0  0
   -4.2224    0.7866    0.9211 H   0  0  0  0  0  0  0  0  0  0  0  0
   -2.0914    0.3252    3.1018 O   0  0  0  0  0  0  0  0  0  0  0  0
   -1.0888   -2.1872   -0.0379 C   0  0  0  0  0  0  0  0  0  0  0  0
   -0.2809   -2.4523   -0.5945 H   0  0  0  0  0  0  0  0  0  0  0  0
   -1.9586   -2.6388   -0.5150 H   0  0  0  0  0  0  0  0  0  0  0  0
   -0.9506   -2.5908    0.9651 H   0  0  0  0  0  0  0  0  0  0  0  0
   -1.1221   -0.7230   -0.0000 N   0  0  0  0  0  0  0  0  0  0  0  0
   -1.9974   -0.1707    0.0280 H   0  0  0  0  0  0  0  0  0  0  0  0
    0.0000    0.0000    0.0000 C   0  0  0  0  0  0  0  0  0  0  0  0
    1.1221   -0.5091   -0.0000 O   0  0  0  0  0  0  0  0  0  0  0  0
   -0.1509    1.5247    0.0165 C   0  0  0  0  0  0  0  0  0  0  0  0
   -0.9607    1.7277    0.5743 H   0  0  0  0  0  0  0  0  0  0  0  0
    0.7019    1.9907    0.5101 H   0  0  0  0  0  0  0  0  0  0  0  0
   -0.1997    1.9150   -1.0001 H   0  0  0  0  0  0  0  0  0  0  0  0
  1  5  1  0
  5  6  1  0
  5  9  2  0
  1  2  1  0
  1  3  1  0
  1  4  1  0
  6  7  1  0
  6  8  1  0
 10 14  1  0
 14 16  1  0
 16 17  2  0
 16 18  1  0
 10 11  1  0
 10 12  1  0
 10 13  1  0
 14 15  1  0
 18 19  1  0
 18 20  1  0
 18 21  1  0
M  END
>  <PDB_ID>  (240) 
pdb1nni

>  <RESIDUE_NAME>  (240) 
GLN   PHE

>  <FRAG_NAME>  (240) 
ACEM   NMA

>  <FRAG_ATOM_NUM>  (240) 
fragi: 9  fragj: 12

>  <atom.prop.CHAIN_ID>  (240) 
A A A A A A A A A Z Z Z Z Z Z Z Z Z Z Z Z

>  <atom.prop.IS_HEAVY_ATOM>  (240) 
1 0 0 0 1 1 0 0 1 1 0 0 0 1 0 1 1 1 0 0 0

>  <DIFUSE_FUNC_ATOM>  (240) 
n/a

>  <FINAL_SINGLE_POINT_ENERGY>  (240) 
0

>  <NONCOV_INTER_ENERGY_QM>  (240) 
0

>  <FF_Energy>  (240) 
10.49

>  <QM_Energy>  (240) 
24.79

>  <source>  (240) 
ACEM_nNMA_15

>  <Index>  (240) 
1870

$$$$
ACEM-pdb1ni4-B-GLN-127:NMA-pdb1ni4-C-ASN-135
     RDKit          3D

 21 19  0  0  0  0  0  0  0  0999 V2000
   -6.2610   -0.8555   -0.1780 C   0  0  0  0  0  0  0  0  0  0  0  0
   -7.0393   -0.5656   -0.7358 H   0  0  0  0  0  0  0  0  0  0  0  0
   -6.3933   -0.5463    0.7639 H   0  0  0  0  0  0  0  0  0  0  0  0
   -6.2184   -1.9447   -0.1824 H   0  0  0  0  0  0  0  0  0  0  0  0
   -4.9996   -0.2031   -0.7298 C   0  0  0  0  0  0  0  0  0  0  0  0
   -3.8470   -0.6649   -0.2601 N   0  0  0  0  0  0  0  0  0  0  0  0
   -2.9621   -0.2879   -0.5923 H   0  0  0  0  0  0  0  0  0  0  0  0
   -3.8604   -1.4039    0.4394 H   0  0  0  0  0  0  0  0  0  0  0  0
   -5.0609    0.6974   -1.5709 O   0  0  0  0  0  0  0  0  0  0  0  0
   -1.0714   -2.1740    0.0619 C   0  0  0  0  0  0  0  0  0  0  0  0
   -0.3024   -2.4497    0.7167 H   0  0  0  0  0  0  0  0  0  0  0  0
   -1.9260   -2.5093    0.5647 H   0  0  0  0  0  0  0  0  0  0  0  0
   -0.9643   -2.7501   -0.8572 H   0  0  0  0  0  0  0  0  0  0  0  0
   -1.1190   -0.7208   -0.0000 N   0  0  0  0  0  0  0  0  0  0  0  0
   -1.9935   -0.1732   -0.0459 H   0  0  0  0  0  0  0  0  0  0  0  0
    0.0000    0.0000    0.0000 C   0  0  0  0  0  0  0  0  0  0  0  0
    1.1190   -0.5037   -0.0000 O   0  0  0  0  0  0  0  0  0  0  0  0
   -0.1651    1.5178   -0.0055 C   0  0  0  0  0  0  0  0  0  0  0  0
   -1.1164    1.7096    0.2322 H   0  0  0  0  0  0  0  0  0  0  0  0
    0.4572    1.9503    0.7780 H   0  0  0  0  0  0  0  0  0  0  0  0
    0.1242    1.9364   -0.9694 H   0  0  0  0  0  0  0  0  0  0  0  0
  1  5  1  0
  5  6  1  0
  5  9  2  0
  1  2  1  0
  1  3  1  0
  1  4  1  0
  6  7  1  0
  6  8  1  0
 10 14  1  0
 14 16  1  0
 16 17  2  0
 16 18  1  0
 10 11  1  0
 10 12  1  0
 10 13  1  0
 14 15  1  0
 18 19  1  0
 18 20  1  0
 18 21  1  0
M  END
>  <PDB_ID>  (241) 
pdb1ni4

>  <RESIDUE_NAME>  (241) 
GLN   ASN

>  <FRAG_NAME>  (241) 
ACEM   NMA

>  <FRAG_ATOM_NUM>  (241) 
fragi: 9  fragj: 12

>  <atom.prop.CHAIN_ID>  (241) 
A A A A A A A A A Z Z Z Z Z Z Z Z Z Z Z Z

>  <atom.prop.IS_HEAVY_ATOM>  (241) 
1 0 0 0 1 1 0 0 1 1 0 0 0 1 0 1 1 1 0 0 0

>  <DIFUSE_FUNC_ATOM>  (241) 
n/a

>  <FINAL_SINGLE_POINT_ENERGY>  (241) 
0

>  <NONCOV_INTER_ENERGY_QM>  (241) 
0

>  <FF_Energy>  (241) 
9.24

>  <QM_Energy>  (241) 
19.81

>  <source>  (241) 
ACEM_nNMA_15

>  <Index>  (241) 
3657

$$$$
ACEM-pdb1no4-C-ASN-35:NMA-pdb1no4-C-PRO-2
     RDKit          3D

 21 19  0  0  0  0  0  0  0  0999 V2000
   -5.5872    0.7118    1.3612 C   0  0  0  0  0  0  0  0  0  0  0  0
   -5.7293   -0.0186    2.0221 H   0  0  0  0  0  0  0  0  0  0  0  0
   -6.2758    0.6654    0.6437 H   0  0  0  0  0  0  0  0  0  0  0  0
   -5.6911    1.6671    1.8758 H   0  0  0  0  0  0  0  0  0  0  0  0
   -4.2214    0.5425    0.7368 C   0  0  0  0  0  0  0  0  0  0  0  0
   -3.2997   -0.0317    1.4932 N   0  0  0  0  0  0  0  0  0  0  0  0
   -3.5239   -0.3341    2.4209 H   0  0  0  0  0  0  0  0  0  0  0  0
   -2.3720   -0.1690    1.1394 H   0  0  0  0  0  0  0  0  0  0  0  0
   -3.9887    0.9419   -0.4059 O   0  0  0  0  0  0  0  0  0  0  0  0
   -1.0984   -2.1759   -0.0462 C   0  0  0  0  0  0  0  0  0  0  0  0
   -0.6375   -2.5146    0.7624 H   0  0  0  0  0  0  0  0  0  0  0  0
   -0.5138   -2.4536   -0.9233 H   0  0  0  0  0  0  0  0  0  0  0  0
   -2.1089   -2.5692   -0.1570 H   0  0  0  0  0  0  0  0  0  0  0  0
   -1.1220   -0.7172   -0.0000 N   0  0  0  0  0  0  0  0  0  0  0  0
   -1.9955   -0.1591    0.0354 H   0  0  0  0  0  0  0  0  0  0  0  0
    0.0000    0.0000    0.0000 C   0  0  0  0  0  0  0  0  0  0  0  0
    1.1220   -0.5089    0.0000 O   0  0  0  0  0  0  0  0  0  0  0  0
   -0.1605    1.5136    0.0209 C   0  0  0  0  0  0  0  0  0  0  0  0
   -1.1317    1.7735    0.0529 H   0  0  0  0  0  0  0  0  0  0  0  0
    0.3781    1.9528    0.8606 H   0  0  0  0  0  0  0  0  0  0  0  0
    0.2534    1.9499   -0.8881 H   0  0  0  0  0  0  0  0  0  0  0  0
  1  5  1  0
  5  6  1  0
  5  9  2  0
  1  2  1  0
  1  3  1  0
  1  4  1  0
  6  7  1  0
  6  8  1  0
 10 14  1  0
 14 16  1  0
 16 17  2  0
 16 18  1  0
 10 11  1  0
 10 12  1  0
 10 13  1  0
 14 15  1  0
 18 19  1  0
 18 20  1  0
 18 21  1  0
M  END
>  <PDB_ID>  (242) 
pdb1no4

>  <RESIDUE_NAME>  (242) 
ASN   PRO

>  <FRAG_NAME>  (242) 
ACEM   NMA

>  <FRAG_ATOM_NUM>  (242) 
fragi: 9  fragj: 12

>  <atom.prop.CHAIN_ID>  (242) 
A A A A A A A A A Z Z Z Z Z Z Z Z Z Z Z Z

>  <atom.prop.IS_HEAVY_ATOM>  (242) 
1 0 0 0 1 1 0 0 1 1 0 0 0 1 0 1 1 1 0 0 0

>  <DIFUSE_FUNC_ATOM>  (242) 
n/a

>  <FINAL_SINGLE_POINT_ENERGY>  (242) 
0

>  <NONCOV_INTER_ENERGY_QM>  (242) 
0

>  <FF_Energy>  (242) 
2.42

>  <QM_Energy>  (242) 
13.19

>  <source>  (242) 
ACEM_nNMA_15

>  <Index>  (242) 
3670

$$$$
ACEM-pdb2r3v-C-ASN-55:NMA-pdb2r3v-C-TRP-134
     RDKit          3D

 21 19  0  0  0  0  0  0  0  0999 V2000
   -5.0084    1.7320    1.0921 C   0  0  0  0  0  0  0  0  0  0  0  0
   -4.6623    2.1310    1.9380 H   0  0  0  0  0  0  0  0  0  0  0  0
   -5.7702    1.1197    1.2909 H   0  0  0  0  0  0  0  0  0  0  0  0
   -5.3767    2.5398    0.4598 H   0  0  0  0  0  0  0  0  0  0  0  0
   -3.9014    0.9370    0.4396 C   0  0  0  0  0  0  0  0  0  0  0  0
   -3.2116    0.1221    1.2278 N   0  0  0  0  0  0  0  0  0  0  0  0
   -3.4424    0.0551    2.2003 H   0  0  0  0  0  0  0  0  0  0  0  0
   -2.4643   -0.4259    0.8547 H   0  0  0  0  0  0  0  0  0  0  0  0
   -3.6633    1.0597   -0.7606 O   0  0  0  0  0  0  0  0  0  0  0  0
   -1.0446   -2.1764    0.0161 C   0  0  0  0  0  0  0  0  0  0  0  0
   -0.0639   -2.4398   -0.1172 H   0  0  0  0  0  0  0  0  0  0  0  0
   -1.6294   -2.6784   -0.7547 H   0  0  0  0  0  0  0  0  0  0  0  0
   -1.3502   -2.5601    0.9895 H   0  0  0  0  0  0  0  0  0  0  0  0
   -1.1173   -0.7194    0.0000 N   0  0  0  0  0  0  0  0  0  0  0  0
   -1.9927   -0.1841   -0.0118 H   0  0  0  0  0  0  0  0  0  0  0  0
    0.0000    0.0000    0.0000 C   0  0  0  0  0  0  0  0  0  0  0  0
    1.1173   -0.5154   -0.0000 O   0  0  0  0  0  0  0  0  0  0  0  0
   -0.1404    1.5172   -0.0074 C   0  0  0  0  0  0  0  0  0  0  0  0
   -1.0451    1.7383    0.3335 H   0  0  0  0  0  0  0  0  0  0  0  0
    0.5904    1.9092    0.7001 H   0  0  0  0  0  0  0  0  0  0  0  0
    0.0692    1.8994   -1.0064 H   0  0  0  0  0  0  0  0  0  0  0  0
  1  5  1  0
  5  6  1  0
  5  9  2  0
  1  2  1  0
  1  3  1  0
  1  4  1  0
  6  7  1  0
  6  8  1  0
 10 14  1  0
 14 16  1  0
 16 17  2  0
 16 18  1  0
 10 11  1  0
 10 12  1  0
 10 13  1  0
 14 15  1  0
 18 19  1  0
 18 20  1  0
 18 21  1  0
M  END
>  <PDB_ID>  (243) 
pdb2r3v

>  <RESIDUE_NAME>  (243) 
ASN   TRP

>  <FRAG_NAME>  (243) 
ACEM   NMA

>  <FRAG_ATOM_NUM>  (243) 
fragi: 9  fragj: 12

>  <atom.prop.CHAIN_ID>  (243) 
A A A A A A A A A Z Z Z Z Z Z Z Z Z Z Z Z

>  <atom.prop.IS_HEAVY_ATOM>  (243) 
1 0 0 0 1 1 0 0 1 1 0 0 0 1 0 1 1 1 0 0 0

>  <DIFUSE_FUNC_ATOM>  (243) 
n/a

>  <FINAL_SINGLE_POINT_ENERGY>  (243) 
0

>  <NONCOV_INTER_ENERGY_QM>  (243) 
0

>  <FF_Energy>  (243) 
11.18

>  <QM_Energy>  (243) 
30.09

>  <source>  (243) 
ACEM_nNMA_15

>  <Index>  (243) 
4069

$$$$
ACEM-pdb1nir-B-ASN-487:NMA-pdb1nir-B-GLY-490
     RDKit          3D

 21 19  0  0  0  0  0  0  0  0999 V2000
   -4.5555    2.6976   -1.6177 C   0  0  0  0  0  0  0  0  0  0  0  0
   -5.3720    3.0834   -1.1899 H   0  0  0  0  0  0  0  0  0  0  0  0
   -4.8031    2.2601   -2.4822 H   0  0  0  0  0  0  0  0  0  0  0  0
   -3.8659    3.5135   -1.8340 H   0  0  0  0  0  0  0  0  0  0  0  0
   -3.9802    1.6338   -0.6859 C   0  0  0  0  0  0  0  0  0  0  0  0
   -2.7196    1.2555   -0.8165 N   0  0  0  0  0  0  0  0  0  0  0  0
   -2.1762    1.7085   -1.5476 H   0  0  0  0  0  0  0  0  0  0  0  0
   -2.3206    0.5723   -0.2382 H   0  0  0  0  0  0  0  0  0  0  0  0
   -4.6868    1.1358    0.1828 O   0  0  0  0  0  0  0  0  0  0  0  0
   -1.1351   -2.1659   -0.0267 C   0  0  0  0  0  0  0  0  0  0  0  0
   -0.1834   -2.4653   -0.0279 H   0  0  0  0  0  0  0  0  0  0  0  0
   -1.5788   -2.5001   -0.9646 H   0  0  0  0  0  0  0  0  0  0  0  0
   -1.7049   -2.5683    0.8109 H   0  0  0  0  0  0  0  0  0  0  0  0
   -1.1241   -0.6912   -0.0000 N   0  0  0  0  0  0  0  0  0  0  0  0
   -1.9950   -0.1240    0.0197 H   0  0  0  0  0  0  0  0  0  0  0  0
    0.0000    0.0000    0.0000 C   0  0  0  0  0  0  0  0  0  0  0  0
    1.1241   -0.5228    0.0000 O   0  0  0  0  0  0  0  0  0  0  0  0
   -0.1674    1.5307   -0.0046 C   0  0  0  0  0  0  0  0  0  0  0  0
   -0.5255    1.8196   -0.9024 H   0  0  0  0  0  0  0  0  0  0  0  0
    0.7355    1.9614    0.1233 H   0  0  0  0  0  0  0  0  0  0  0  0
   -0.8424    1.8754    0.7788 H   0  0  0  0  0  0  0  0  0  0  0  0
  1  5  1  0
  5  6  1  0
  5  9  2  0
  1  2  1  0
  1  3  1  0
  1  4  1  0
  6  7  1  0
  6  8  1  0
 10 14  1  0
 14 16  1  0
 16 17  2  0
 16 18  1  0
 10 11  1  0
 10 12  1  0
 10 13  1  0
 14 15  1  0
 18 19  1  0
 18 20  1  0
 18 21  1  0
M  END
>  <PDB_ID>  (244) 
pdb1nir

>  <RESIDUE_NAME>  (244) 
ASN   GLY

>  <FRAG_NAME>  (244) 
ACEM   NMA

>  <FRAG_ATOM_NUM>  (244) 
fragi: 9  fragj: 12

>  <atom.prop.CHAIN_ID>  (244) 
A A A A A A A A A Z Z Z Z Z Z Z Z Z Z Z Z

>  <atom.prop.IS_HEAVY_ATOM>  (244) 
1 0 0 0 1 1 0 0 1 1 0 0 0 1 0 1 1 1 0 0 0

>  <DIFUSE_FUNC_ATOM>  (244) 
n/a

>  <FINAL_SINGLE_POINT_ENERGY>  (244) 
0

>  <NONCOV_INTER_ENERGY_QM>  (244) 
0

>  <FF_Energy>  (244) 
32.94

>  <QM_Energy>  (244) 
57.84

>  <source>  (244) 
ACEM_nNMA_15

>  <Index>  (244) 
6324

$$$$
ACEM-pdb1nir-B-GLN-483:NMA-pdb1nir-B-GLY-531
     RDKit          3D

 21 19  0  0  0  0  0  0  0  0999 V2000
   -5.4117    1.7565    1.3391 C   0  0  0  0  0  0  0  0  0  0  0  0
   -6.1142    1.1295    1.6712 H   0  0  0  0  0  0  0  0  0  0  0  0
   -5.8167    2.4132    0.7054 H   0  0  0  0  0  0  0  0  0  0  0  0
   -5.0000    2.3007    2.1892 H   0  0  0  0  0  0  0  0  0  0  0  0
   -4.3567    0.9449    0.5869 C   0  0  0  0  0  0  0  0  0  0  0  0
   -3.2747    0.5248    1.2165 N   0  0  0  0  0  0  0  0  0  0  0  0
   -2.5700   -0.0149    0.7764 H   0  0  0  0  0  0  0  0  0  0  0  0
   -3.1720    0.7808    2.2160 H   0  0  0  0  0  0  0  0  0  0  0  0
   -4.5175    0.6839   -0.6031 O   0  0  0  0  0  0  0  0  0  0  0  0
   -1.1308   -2.1775   -0.0495 C   0  0  0  0  0  0  0  0  0  0  0  0
   -0.2477   -2.4964   -0.3541 H   0  0  0  0  0  0  0  0  0  0  0  0
   -1.8827   -2.4394   -0.7939 H   0  0  0  0  0  0  0  0  0  0  0  0
   -1.4425   -2.6030    0.9044 H   0  0  0  0  0  0  0  0  0  0  0  0
   -1.1210   -0.7164    0.0000 N   0  0  0  0  0  0  0  0  0  0  0  0
   -1.9965   -0.1441    0.0383 H   0  0  0  0  0  0  0  0  0  0  0  0
    0.0000    0.0000    0.0000 C   0  0  0  0  0  0  0  0  0  0  0  0
    1.1210   -0.5035    0.0000 O   0  0  0  0  0  0  0  0  0  0  0  0
   -0.1764    1.5064    0.0305 C   0  0  0  0  0  0  0  0  0  0  0  0
   -1.1094    1.7256    0.3857 H   0  0  0  0  0  0  0  0  0  0  0  0
   -0.1493    1.8650   -0.9269 H   0  0  0  0  0  0  0  0  0  0  0  0
    0.5662    2.0332    0.6297 H   0  0  0  0  0  0  0  0  0  0  0  0
  1  5  1  0
  5  6  1  0
  5  9  2  0
  1  2  1  0
  1  3  1  0
  1  4  1  0
  6  7  1  0
  6  8  1  0
 10 14  1  0
 14 16  1  0
 16 17  2  0
 16 18  1  0
 10 11  1  0
 10 12  1  0
 10 13  1  0
 14 15  1  0
 18 19  1  0
 18 20  1  0
 18 21  1  0
M  END
>  <PDB_ID>  (245) 
pdb1nir

>  <RESIDUE_NAME>  (245) 
GLN   GLY

>  <FRAG_NAME>  (245) 
ACEM   NMA

>  <FRAG_ATOM_NUM>  (245) 
fragi: 9  fragj: 12

>  <atom.prop.CHAIN_ID>  (245) 
A A A A A A A A A Z Z Z Z Z Z Z Z Z Z Z Z

>  <atom.prop.IS_HEAVY_ATOM>  (245) 
1 0 0 0 1 1 0 0 1 1 0 0 0 1 0 1 1 1 0 0 0

>  <DIFUSE_FUNC_ATOM>  (245) 
n/a

>  <FINAL_SINGLE_POINT_ENERGY>  (245) 
0

>  <NONCOV_INTER_ENERGY_QM>  (245) 
0

>  <FF_Energy>  (245) 
10.13

>  <QM_Energy>  (245) 
29.67

>  <source>  (245) 
ACEM_nNMA_15

>  <Index>  (245) 
6578

$$$$
ACEM-pdb1nt4-B-ASN-1090:NMA-pdb1nt4-B-MET-1123
     RDKit          3D

 21 19  0  0  0  0  0  0  0  0999 V2000
   -6.1042    0.1013    0.8441 C   0  0  0  0  0  0  0  0  0  0  0  0
   -6.6372   -0.2723    0.0905 H   0  0  0  0  0  0  0  0  0  0  0  0
   -6.5063    0.9568    1.1590 H   0  0  0  0  0  0  0  0  0  0  0  0
   -6.1219   -0.6127    1.6674 H   0  0  0  0  0  0  0  0  0  0  0  0
   -4.6980    0.3839    0.3470 C   0  0  0  0  0  0  0  0  0  0  0  0
   -3.8315   -0.6280    0.3961 N   0  0  0  0  0  0  0  0  0  0  0  0
   -4.1323   -1.5173    0.7448 H   0  0  0  0  0  0  0  0  0  0  0  0
   -2.8922   -0.4998    0.0885 H   0  0  0  0  0  0  0  0  0  0  0  0
   -4.3875    1.5035   -0.0625 O   0  0  0  0  0  0  0  0  0  0  0  0
   -1.0909   -2.1666   -0.0548 C   0  0  0  0  0  0  0  0  0  0  0  0
   -0.2014   -2.4577    0.2426 H   0  0  0  0  0  0  0  0  0  0  0  0
   -1.1600   -2.3879   -1.1198 H   0  0  0  0  0  0  0  0  0  0  0  0
   -1.9422   -2.5833    0.4834 H   0  0  0  0  0  0  0  0  0  0  0  0
   -1.1184   -0.7114    0.0000 N   0  0  0  0  0  0  0  0  0  0  0  0
   -1.9926   -0.1551    0.0418 H   0  0  0  0  0  0  0  0  0  0  0  0
    0.0000    0.0000    0.0000 C   0  0  0  0  0  0  0  0  0  0  0  0
    1.1184   -0.5158   -0.0000 O   0  0  0  0  0  0  0  0  0  0  0  0
   -0.1726    1.5098    0.0054 C   0  0  0  0  0  0  0  0  0  0  0  0
   -1.1484    1.7117    0.2527 H   0  0  0  0  0  0  0  0  0  0  0  0
    0.4651    2.0573    0.6995 H   0  0  0  0  0  0  0  0  0  0  0  0
   -0.0115    1.8803   -1.0069 H   0  0  0  0  0  0  0  0  0  0  0  0
  1  5  1  0
  5  6  1  0
  5  9  2  0
  1  2  1  0
  1  3  1  0
  1  4  1  0
  6  7  1  0
  6  8  1  0
 10 14  1  0
 14 16  1  0
 16 17  2  0
 16 18  1  0
 10 11  1  0
 10 12  1  0
 10 13  1  0
 14 15  1  0
 18 19  1  0
 18 20  1  0
 18 21  1  0
M  END
>  <PDB_ID>  (246) 
pdb1nt4

>  <RESIDUE_NAME>  (246) 
ASN   MET

>  <FRAG_NAME>  (246) 
ACEM   NMA

>  <FRAG_ATOM_NUM>  (246) 
fragi: 9  fragj: 12

>  <atom.prop.CHAIN_ID>  (246) 
A A A A A A A A A Z Z Z Z Z Z Z Z Z Z Z Z

>  <atom.prop.IS_HEAVY_ATOM>  (246) 
1 0 0 0 1 1 0 0 1 1 0 0 0 1 0 1 1 1 0 0 0

>  <DIFUSE_FUNC_ATOM>  (246) 
n/a

>  <FINAL_SINGLE_POINT_ENERGY>  (246) 
0

>  <NONCOV_INTER_ENERGY_QM>  (246) 
0

>  <FF_Energy>  (246) 
8.17

>  <QM_Energy>  (246) 
29.39

>  <source>  (246) 
ACEM_nNMA_15

>  <Index>  (246) 
11555

$$$$
ACEM-pdb1nx9-A-GLN-489:NMA-pdb1nx9-A-PHE-485
     RDKit          3D

 21 19  0  0  0  0  0  0  0  0999 V2000
   -5.4314   -0.3610    0.9451 C   0  0  0  0  0  0  0  0  0  0  0  0
   -6.2892   -0.3010    1.4516 H   0  0  0  0  0  0  0  0  0  0  0  0
   -4.9917   -1.2379    1.1277 H   0  0  0  0  0  0  0  0  0  0  0  0
   -5.6482   -0.2927   -0.1209 H   0  0  0  0  0  0  0  0  0  0  0  0
   -4.5118    0.7497    1.4176 C   0  0  0  0  0  0  0  0  0  0  0  0
   -3.2286    0.6334    1.0993 N   0  0  0  0  0  0  0  0  0  0  0  0
   -2.5563    1.3449    1.3701 H   0  0  0  0  0  0  0  0  0  0  0  0
   -2.9246   -0.1873    0.5766 H   0  0  0  0  0  0  0  0  0  0  0  0
   -4.9562    1.6947    2.0644 O   0  0  0  0  0  0  0  0  0  0  0  0
   -1.1367   -2.1471   -0.0554 C   0  0  0  0  0  0  0  0  0  0  0  0
   -0.2114   -2.4818   -0.1789 H   0  0  0  0  0  0  0  0  0  0  0  0
   -1.7262   -2.4195   -0.9308 H   0  0  0  0  0  0  0  0  0  0  0  0
   -1.5819   -2.5602    0.8497 H   0  0  0  0  0  0  0  0  0  0  0  0
   -1.1224   -0.7029   -0.0000 N   0  0  0  0  0  0  0  0  0  0  0  0
   -1.9932   -0.1211    0.0435 H   0  0  0  0  0  0  0  0  0  0  0  0
    0.0000    0.0000    0.0000 C   0  0  0  0  0  0  0  0  0  0  0  0
    1.1224   -0.5070   -0.0000 O   0  0  0  0  0  0  0  0  0  0  0  0
   -0.1710    1.4983   -0.0172 C   0  0  0  0  0  0  0  0  0  0  0  0
   -1.1311    1.6890    0.2380 H   0  0  0  0  0  0  0  0  0  0  0  0
    0.4586    1.9823    0.7294 H   0  0  0  0  0  0  0  0  0  0  0  0
    0.0340    1.8589   -1.0251 H   0  0  0  0  0  0  0  0  0  0  0  0
  1  5  1  0
  5  6  1  0
  5  9  2  0
  1  2  1  0
  1  3  1  0
  1  4  1  0
  6  7  1  0
  6  8  1  0
 10 14  1  0
 14 16  1  0
 16 17  2  0
 16 18  1  0
 10 11  1  0
 10 12  1  0
 10 13  1  0
 14 15  1  0
 18 19  1  0
 18 20  1  0
 18 21  1  0
M  END
>  <PDB_ID>  (247) 
pdb1nx9

>  <RESIDUE_NAME>  (247) 
GLN   PHE

>  <FRAG_NAME>  (247) 
ACEM   NMA

>  <FRAG_ATOM_NUM>  (247) 
fragi: 9  fragj: 12

>  <atom.prop.CHAIN_ID>  (247) 
A A A A A A A A A Z Z Z Z Z Z Z Z Z Z Z Z

>  <atom.prop.IS_HEAVY_ATOM>  (247) 
1 0 0 0 1 1 0 0 1 1 0 0 0 1 0 1 1 1 0 0 0

>  <DIFUSE_FUNC_ATOM>  (247) 
n/a

>  <FINAL_SINGLE_POINT_ENERGY>  (247) 
0

>  <NONCOV_INTER_ENERGY_QM>  (247) 
0

>  <FF_Energy>  (247) 
11.74

>  <QM_Energy>  (247) 
25.78

>  <source>  (247) 
ACEM_nNMA_15

>  <Index>  (247) 
13753

$$$$
ACEM-pdb2rgk-A-ASN-174:NMA-pdb2rgk-A-MET-153
     RDKit          3D

 21 19  0  0  0  0  0  0  0  0999 V2000
   -5.9864   -0.3731    1.0423 C   0  0  0  0  0  0  0  0  0  0  0  0
   -6.8418   -0.1616    0.5783 H   0  0  0  0  0  0  0  0  0  0  0  0
   -5.7081    0.3930    1.6156 H   0  0  0  0  0  0  0  0  0  0  0  0
   -6.1464   -1.2412    1.6818 H   0  0  0  0  0  0  0  0  0  0  0  0
   -4.9141   -0.6104   -0.0044 C   0  0  0  0  0  0  0  0  0  0  0  0
   -3.7139   -0.1185    0.2707 N   0  0  0  0  0  0  0  0  0  0  0  0
   -3.5518    0.3695    1.1283 H   0  0  0  0  0  0  0  0  0  0  0  0
   -2.9619   -0.2354   -0.3818 H   0  0  0  0  0  0  0  0  0  0  0  0
   -5.1562   -1.2348   -1.0439 O   0  0  0  0  0  0  0  0  0  0  0  0
   -1.0667   -2.1824    0.0401 C   0  0  0  0  0  0  0  0  0  0  0  0
   -0.1377   -2.4551    0.3560 H   0  0  0  0  0  0  0  0  0  0  0  0
   -1.2493   -2.6574   -0.9237 H   0  0  0  0  0  0  0  0  0  0  0  0
   -1.7887   -2.5632    0.7625 H   0  0  0  0  0  0  0  0  0  0  0  0
   -1.1153   -0.7203   -0.0000 N   0  0  0  0  0  0  0  0  0  0  0  0
   -1.9928   -0.1778   -0.0300 H   0  0  0  0  0  0  0  0  0  0  0  0
    0.0000    0.0000    0.0000 C   0  0  0  0  0  0  0  0  0  0  0  0
    1.1153   -0.5121    0.0000 O   0  0  0  0  0  0  0  0  0  0  0  0
   -0.1402    1.5153   -0.0152 C   0  0  0  0  0  0  0  0  0  0  0  0
   -0.6455    1.7876    0.7845 H   0  0  0  0  0  0  0  0  0  0  0  0
    0.8768    1.8973    0.0737 H   0  0  0  0  0  0  0  0  0  0  0  0
   -0.6002    1.8349   -0.9503 H   0  0  0  0  0  0  0  0  0  0  0  0
  1  5  1  0
  5  6  1  0
  5  9  2  0
  1  2  1  0
  1  3  1  0
  1  4  1  0
  6  7  1  0
  6  8  1  0
 10 14  1  0
 14 16  1  0
 16 17  2  0
 16 18  1  0
 10 11  1  0
 10 12  1  0
 10 13  1  0
 14 15  1  0
 18 19  1  0
 18 20  1  0
 18 21  1  0
M  END
>  <PDB_ID>  (248) 
pdb2rgk

>  <RESIDUE_NAME>  (248) 
ASN   MET

>  <FRAG_NAME>  (248) 
ACEM   NMA

>  <FRAG_ATOM_NUM>  (248) 
fragi: 9  fragj: 12

>  <atom.prop.CHAIN_ID>  (248) 
A A A A A A A A A Z Z Z Z Z Z Z Z Z Z Z Z

>  <atom.prop.IS_HEAVY_ATOM>  (248) 
1 0 0 0 1 1 0 0 1 1 0 0 0 1 0 1 1 1 0 0 0

>  <DIFUSE_FUNC_ATOM>  (248) 
n/a

>  <FINAL_SINGLE_POINT_ENERGY>  (248) 
0

>  <NONCOV_INTER_ENERGY_QM>  (248) 
0

>  <FF_Energy>  (248) 
13.46

>  <QM_Energy>  (248) 
27.95

>  <source>  (248) 
ACEM_nNMA_15

>  <Index>  (248) 
14750

$$$$
ACEM-pdb2rh0-B-ASN-98:NMA-pdb2rh0-B-ARG-94
     RDKit          3D

 21 19  0  0  0  0  0  0  0  0999 V2000
   -3.7172    0.5179   -2.5985 C   0  0  0  0  0  0  0  0  0  0  0  0
   -2.7448    0.3397   -2.4868 H   0  0  0  0  0  0  0  0  0  0  0  0
   -3.8679    1.4679   -2.8526 H   0  0  0  0  0  0  0  0  0  0  0  0
   -4.1138   -0.1294   -3.3807 H   0  0  0  0  0  0  0  0  0  0  0  0
   -4.4003    0.2706   -1.2622 C   0  0  0  0  0  0  0  0  0  0  0  0
   -3.6299   -0.2157   -0.2737 N   0  0  0  0  0  0  0  0  0  0  0  0
   -2.6617   -0.3849   -0.4519 H   0  0  0  0  0  0  0  0  0  0  0  0
   -4.0253   -0.4012    0.6176 H   0  0  0  0  0  0  0  0  0  0  0  0
   -5.5981    0.5390   -1.1033 O   0  0  0  0  0  0  0  0  0  0  0  0
   -1.0742   -2.1886   -0.0981 C   0  0  0  0  0  0  0  0  0  0  0  0
   -0.2250   -2.4960    0.3277 H   0  0  0  0  0  0  0  0  0  0  0  0
   -1.0240   -2.4877   -1.1450 H   0  0  0  0  0  0  0  0  0  0  0  0
   -1.9699   -2.6076    0.3604 H   0  0  0  0  0  0  0  0  0  0  0  0
   -1.1092   -0.7212    0.0000 N   0  0  0  0  0  0  0  0  0  0  0  0
   -1.9900   -0.1808    0.0728 H   0  0  0  0  0  0  0  0  0  0  0  0
    0.0000    0.0000    0.0000 C   0  0  0  0  0  0  0  0  0  0  0  0
    1.1092   -0.5225   -0.0000 O   0  0  0  0  0  0  0  0  0  0  0  0
   -0.1591    1.5373   -0.0125 C   0  0  0  0  0  0  0  0  0  0  0  0
   -0.2201    1.8381   -0.9868 H   0  0  0  0  0  0  0  0  0  0  0  0
   -1.0286    1.9178    0.5236 H   0  0  0  0  0  0  0  0  0  0  0  0
    0.7238    2.0267    0.3985 H   0  0  0  0  0  0  0  0  0  0  0  0
  1  5  1  0
  5  6  1  0
  5  9  2  0
  1  2  1  0
  1  3  1  0
  1  4  1  0
  6  7  1  0
  6  8  1  0
 10 14  1  0
 14 16  1  0
 16 17  2  0
 16 18  1  0
 10 11  1  0
 10 12  1  0
 10 13  1  0
 14 15  1  0
 18 19  1  0
 18 20  1  0
 18 21  1  0
M  END
>  <PDB_ID>  (249) 
pdb2rh0

>  <RESIDUE_NAME>  (249) 
ASN   ARG

>  <FRAG_NAME>  (249) 
ACEM   NMA

>  <FRAG_ATOM_NUM>  (249) 
fragi: 9  fragj: 12

>  <atom.prop.CHAIN_ID>  (249) 
A A A A A A A A A Z Z Z Z Z Z Z Z Z Z Z Z

>  <atom.prop.IS_HEAVY_ATOM>  (249) 
1 0 0 0 1 1 0 0 1 1 0 0 0 1 0 1 1 1 0 0 0

>  <DIFUSE_FUNC_ATOM>  (249) 
n/a

>  <FINAL_SINGLE_POINT_ENERGY>  (249) 
0

>  <NONCOV_INTER_ENERGY_QM>  (249) 
0

>  <FF_Energy>  (249) 
19.6

>  <QM_Energy>  (249) 
44.05

>  <source>  (249) 
ACEM_nNMA_15

>  <Index>  (249) 
14809

$$$$
ACEM-pdb2rgk-B-ASN-174:NMA-pdb2rgk-B-MET-153
     RDKit          3D

 21 19  0  0  0  0  0  0  0  0999 V2000
   -5.9710   -0.4136    1.1295 C   0  0  0  0  0  0  0  0  0  0  0  0
   -6.8372   -0.1773    0.7030 H   0  0  0  0  0  0  0  0  0  0  0  0
   -5.6496    0.3337    1.7010 H   0  0  0  0  0  0  0  0  0  0  0  0
   -6.1242   -1.2891    1.7603 H   0  0  0  0  0  0  0  0  0  0  0  0
   -4.9454   -0.6632    0.0372 C   0  0  0  0  0  0  0  0  0  0  0  0
   -3.7355   -0.1368    0.2317 N   0  0  0  0  0  0  0  0  0  0  0  0
   -3.5478    0.3820    1.0655 H   0  0  0  0  0  0  0  0  0  0  0  0
   -3.0201   -0.2620   -0.4531 H   0  0  0  0  0  0  0  0  0  0  0  0
   -5.2310   -1.3367   -0.9638 O   0  0  0  0  0  0  0  0  0  0  0  0
   -1.0610   -2.1797    0.0365 C   0  0  0  0  0  0  0  0  0  0  0  0
   -0.1280   -2.4517    0.3350 H   0  0  0  0  0  0  0  0  0  0  0  0
   -1.2561   -2.6460   -0.9292 H   0  0  0  0  0  0  0  0  0  0  0  0
   -1.7791   -2.5612    0.7624 H   0  0  0  0  0  0  0  0  0  0  0  0
   -1.1139   -0.7194    0.0000 N   0  0  0  0  0  0  0  0  0  0  0  0
   -1.9921   -0.1781   -0.0267 H   0  0  0  0  0  0  0  0  0  0  0  0
    0.0000    0.0000    0.0000 C   0  0  0  0  0  0  0  0  0  0  0  0
    1.1139   -0.5156   -0.0000 O   0  0  0  0  0  0  0  0  0  0  0  0
   -0.1341    1.5215   -0.0120 C   0  0  0  0  0  0  0  0  0  0  0  0
   -0.6193    1.7918    0.7973 H   0  0  0  0  0  0  0  0  0  0  0  0
    0.8916    1.8834    0.0599 H   0  0  0  0  0  0  0  0  0  0  0  0
   -0.5997    1.8457   -0.9427 H   0  0  0  0  0  0  0  0  0  0  0  0
  1  5  1  0
  5  6  1  0
  5  9  2  0
  1  2  1  0
  1  3  1  0
  1  4  1  0
  6  7  1  0
  6  8  1  0
 10 14  1  0
 14 16  1  0
 16 17  2  0
 16 18  1  0
 10 11  1  0
 10 12  1  0
 10 13  1  0
 14 15  1  0
 18 19  1  0
 18 20  1  0
 18 21  1  0
M  END
>  <PDB_ID>  (250) 
pdb2rgk

>  <RESIDUE_NAME>  (250) 
ASN   MET

>  <FRAG_NAME>  (250) 
ACEM   NMA

>  <FRAG_ATOM_NUM>  (250) 
fragi: 9  fragj: 12

>  <atom.prop.CHAIN_ID>  (250) 
A A A A A A A A A Z Z Z Z Z Z Z Z Z Z Z Z

>  <atom.prop.IS_HEAVY_ATOM>  (250) 
1 0 0 0 1 1 0 0 1 1 0 0 0 1 0 1 1 1 0 0 0

>  <DIFUSE_FUNC_ATOM>  (250) 
n/a

>  <FINAL_SINGLE_POINT_ENERGY>  (250) 
0

>  <NONCOV_INTER_ENERGY_QM>  (250) 
0

>  <FF_Energy>  (250) 
11.7

>  <QM_Energy>  (250) 
22.75

>  <source>  (250) 
ACEM_nNMA_15

>  <Index>  (250) 
16546

$$$$
ACEM-pdb2rkq-A-GLN-65:NMA-pdb2rkq-A-ILE-74
     RDKit          3D

 21 19  0  0  0  0  0  0  0  0999 V2000
   -4.9508    1.7786    1.8171 C   0  0  0  0  0  0  0  0  0  0  0  0
   -5.7680    1.5493    2.3482 H   0  0  0  0  0  0  0  0  0  0  0  0
   -5.1589    2.5370    1.1977 H   0  0  0  0  0  0  0  0  0  0  0  0
   -4.1696    2.0999    2.5060 H   0  0  0  0  0  0  0  0  0  0  0  0
   -4.5440    0.5826    1.0077 C   0  0  0  0  0  0  0  0  0  0  0  0
   -3.3940    0.6640    0.3963 N   0  0  0  0  0  0  0  0  0  0  0  0
   -3.0300   -0.1180   -0.1709 H   0  0  0  0  0  0  0  0  0  0  0  0
   -2.8363    1.5175    0.4762 H   0  0  0  0  0  0  0  0  0  0  0  0
   -5.2507   -0.4387    0.9793 O   0  0  0  0  0  0  0  0  0  0  0  0
   -1.0652   -2.1591    0.3062 C   0  0  0  0  0  0  0  0  0  0  0  0
   -0.4301   -2.2994    1.1101 H   0  0  0  0  0  0  0  0  0  0  0  0
   -1.9929   -2.4467    0.6614 H   0  0  0  0  0  0  0  0  0  0  0  0
   -0.7697   -2.8274   -0.5026 H   0  0  0  0  0  0  0  0  0  0  0  0
   -1.1118   -0.7289   -0.0000 N   0  0  0  0  0  0  0  0  0  0  0  0
   -1.9774   -0.2178   -0.2256 H   0  0  0  0  0  0  0  0  0  0  0  0
    0.0000    0.0000    0.0000 C   0  0  0  0  0  0  0  0  0  0  0  0
    1.1118   -0.5044   -0.0000 O   0  0  0  0  0  0  0  0  0  0  0  0
   -0.1603    1.5253    0.0475 C   0  0  0  0  0  0  0  0  0  0  0  0
   -1.0202    1.7022    0.5129 H   0  0  0  0  0  0  0  0  0  0  0  0
    0.6272    1.9273    0.6849 H   0  0  0  0  0  0  0  0  0  0  0  0
   -0.1166    1.9844   -0.9401 H   0  0  0  0  0  0  0  0  0  0  0  0
  1  5  1  0
  5  6  1  0
  5  9  2  0
  1  2  1  0
  1  3  1  0
  1  4  1  0
  6  7  1  0
  6  8  1  0
 10 14  1  0
 14 16  1  0
 16 17  2  0
 16 18  1  0
 10 11  1  0
 10 12  1  0
 10 13  1  0
 14 15  1  0
 18 19  1  0
 18 20  1  0
 18 21  1  0
M  END
>  <PDB_ID>  (251) 
pdb2rkq

>  <RESIDUE_NAME>  (251) 
GLN   ILE

>  <FRAG_NAME>  (251) 
ACEM   NMA

>  <FRAG_ATOM_NUM>  (251) 
fragi: 9  fragj: 12

>  <atom.prop.CHAIN_ID>  (251) 
A A A A A A A A A Z Z Z Z Z Z Z Z Z Z Z Z

>  <atom.prop.IS_HEAVY_ATOM>  (251) 
1 0 0 0 1 1 0 0 1 1 0 0 0 1 0 1 1 1 0 0 0

>  <DIFUSE_FUNC_ATOM>  (251) 
n/a

>  <FINAL_SINGLE_POINT_ENERGY>  (251) 
0

>  <NONCOV_INTER_ENERGY_QM>  (251) 
0

>  <FF_Energy>  (251) 
14.75

>  <QM_Energy>  (251) 
27.74

>  <source>  (251) 
ACEM_nNMA_15

>  <Index>  (251) 
17125

$$$$
ACEM-pdb2rgk-D-GLN-41:NMA-pdb2rgk-D-ASN-38
     RDKit          3D

 21 19  0  0  0  0  0  0  0  0999 V2000
   -6.2150   -1.0382    0.7138 C   0  0  0  0  0  0  0  0  0  0  0  0
   -6.9314   -0.3615    0.5184 H   0  0  0  0  0  0  0  0  0  0  0  0
   -6.3221   -1.3567    1.6610 H   0  0  0  0  0  0  0  0  0  0  0  0
   -6.3667   -1.8906    0.0515 H   0  0  0  0  0  0  0  0  0  0  0  0
   -4.8519   -0.3542    0.5817 C   0  0  0  0  0  0  0  0  0  0  0  0
   -3.8393   -1.1353    0.2116 N   0  0  0  0  0  0  0  0  0  0  0  0
   -2.9091   -0.7480    0.0894 H   0  0  0  0  0  0  0  0  0  0  0  0
   -4.0134   -2.1239    0.0534 H   0  0  0  0  0  0  0  0  0  0  0  0
   -4.7161    0.8503    0.7855 O   0  0  0  0  0  0  0  0  0  0  0  0
   -1.0645   -2.1715   -0.0276 C   0  0  0  0  0  0  0  0  0  0  0  0
   -0.1135   -2.4636   -0.1646 H   0  0  0  0  0  0  0  0  0  0  0  0
   -1.6687   -2.5484   -0.8528 H   0  0  0  0  0  0  0  0  0  0  0  0
   -1.4142   -2.5836    0.9189 H   0  0  0  0  0  0  0  0  0  0  0  0
   -1.1156   -0.7171    0.0000 N   0  0  0  0  0  0  0  0  0  0  0  0
   -1.9919   -0.1719    0.0202 H   0  0  0  0  0  0  0  0  0  0  0  0
    0.0000    0.0000    0.0000 C   0  0  0  0  0  0  0  0  0  0  0  0
    1.1156   -0.5093    0.0000 O   0  0  0  0  0  0  0  0  0  0  0  0
   -0.1480    1.5095    0.0022 C   0  0  0  0  0  0  0  0  0  0  0  0
    0.4082    1.8665   -0.7834 H   0  0  0  0  0  0  0  0  0  0  0  0
   -1.1591    1.8936   -0.1331 H   0  0  0  0  0  0  0  0  0  0  0  0
    0.2909    1.9106    0.9157 H   0  0  0  0  0  0  0  0  0  0  0  0
  1  5  1  0
  5  6  1  0
  5  9  2  0
  1  2  1  0
  1  3  1  0
  1  4  1  0
  6  7  1  0
  6  8  1  0
 10 14  1  0
 14 16  1  0
 16 17  2  0
 16 18  1  0
 10 11  1  0
 10 12  1  0
 10 13  1  0
 14 15  1  0
 18 19  1  0
 18 20  1  0
 18 21  1  0
M  END
>  <PDB_ID>  (252) 
pdb2rgk

>  <RESIDUE_NAME>  (252) 
GLN   ASN

>  <FRAG_NAME>  (252) 
ACEM   NMA

>  <FRAG_ATOM_NUM>  (252) 
fragi: 9  fragj: 12

>  <atom.prop.CHAIN_ID>  (252) 
A A A A A A A A A Z Z Z Z Z Z Z Z Z Z Z Z

>  <atom.prop.IS_HEAVY_ATOM>  (252) 
1 0 0 0 1 1 0 0 1 1 0 0 0 1 0 1 1 1 0 0 0

>  <DIFUSE_FUNC_ATOM>  (252) 
n/a

>  <FINAL_SINGLE_POINT_ENERGY>  (252) 
0

>  <NONCOV_INTER_ENERGY_QM>  (252) 
0

>  <FF_Energy>  (252) 
7.58

>  <QM_Energy>  (252) 
20.68

>  <source>  (252) 
ACEM_nNMA_15

>  <Index>  (252) 
19883

$$$$
ACEM-pdb1o66-D-GLN-89:NMA-pdb1o66-D-PHE-85
     RDKit          3D

 21 19  0  0  0  0  0  0  0  0999 V2000
   -5.9179    0.3314    0.8216 C   0  0  0  0  0  0  0  0  0  0  0  0
   -6.4047    0.9470    0.2025 H   0  0  0  0  0  0  0  0  0  0  0  0
   -6.0259    0.6502    1.7628 H   0  0  0  0  0  0  0  0  0  0  0  0
   -6.3565   -0.6630    0.7389 H   0  0  0  0  0  0  0  0  0  0  0  0
   -4.4405    0.3566    0.4672 C   0  0  0  0  0  0  0  0  0  0  0  0
   -3.6746   -0.5455    1.0734 N   0  0  0  0  0  0  0  0  0  0  0  0
   -2.6787   -0.5984    0.8765 H   0  0  0  0  0  0  0  0  0  0  0  0
   -4.1013   -1.1832    1.7414 H   0  0  0  0  0  0  0  0  0  0  0  0
   -3.9932    1.1701   -0.3367 O   0  0  0  0  0  0  0  0  0  0  0  0
   -1.0749   -2.1629   -0.0077 C   0  0  0  0  0  0  0  0  0  0  0  0
   -1.8718   -2.5203   -0.5523 H   0  0  0  0  0  0  0  0  0  0  0  0
   -0.2410   -2.4691   -0.5265 H   0  0  0  0  0  0  0  0  0  0  0  0
   -1.0752   -2.6385    0.9731 H   0  0  0  0  0  0  0  0  0  0  0  0
   -1.1203   -0.7155   -0.0000 N   0  0  0  0  0  0  0  0  0  0  0  0
   -1.9941   -0.1619    0.0059 H   0  0  0  0  0  0  0  0  0  0  0  0
    0.0000    0.0000    0.0000 C   0  0  0  0  0  0  0  0  0  0  0  0
    1.1203   -0.5053   -0.0000 O   0  0  0  0  0  0  0  0  0  0  0  0
   -0.1708    1.5149   -0.0229 C   0  0  0  0  0  0  0  0  0  0  0  0
   -1.1416    1.7010    0.1855 H   0  0  0  0  0  0  0  0  0  0  0  0
    0.4204    2.0031    0.7519 H   0  0  0  0  0  0  0  0  0  0  0  0
    0.1249    1.8836   -1.0051 H   0  0  0  0  0  0  0  0  0  0  0  0
  1  5  1  0
  5  6  1  0
  5  9  2  0
  1  2  1  0
  1  3  1  0
  1  4  1  0
  6  7  1  0
  6  8  1  0
 10 14  1  0
 14 16  1  0
 16 17  2  0
 16 18  1  0
 10 11  1  0
 10 12  1  0
 10 13  1  0
 14 15  1  0
 18 19  1  0
 18 20  1  0
 18 21  1  0
M  END
>  <PDB_ID>  (253) 
pdb1o66

>  <RESIDUE_NAME>  (253) 
GLN   PHE

>  <FRAG_NAME>  (253) 
ACEM   NMA

>  <FRAG_ATOM_NUM>  (253) 
fragi: 9  fragj: 12

>  <atom.prop.CHAIN_ID>  (253) 
A A A A A A A A A Z Z Z Z Z Z Z Z Z Z Z Z

>  <atom.prop.IS_HEAVY_ATOM>  (253) 
1 0 0 0 1 1 0 0 1 1 0 0 0 1 0 1 1 1 0 0 0

>  <DIFUSE_FUNC_ATOM>  (253) 
n/a

>  <FINAL_SINGLE_POINT_ENERGY>  (253) 
0

>  <NONCOV_INTER_ENERGY_QM>  (253) 
0

>  <FF_Energy>  (253) 
0.59

>  <QM_Energy>  (253) 
11.95

>  <source>  (253) 
ACEM_nNMA_15

>  <Index>  (253) 
20656

$$$$
ACEM-pdb1oah-A-ASN-64:NMA-pdb1oah-A-TRP-336
     RDKit          3D

 21 19  0  0  0  0  0  0  0  0999 V2000
   -5.2436    1.7496   -2.0104 C   0  0  0  0  0  0  0  0  0  0  0  0
   -5.8348    2.4149   -1.5609 H   0  0  0  0  0  0  0  0  0  0  0  0
   -5.7937    1.0224   -2.4139 H   0  0  0  0  0  0  0  0  0  0  0  0
   -4.7086    2.2572   -2.8130 H   0  0  0  0  0  0  0  0  0  0  0  0
   -4.3164    1.1510   -0.9896 C   0  0  0  0  0  0  0  0  0  0  0  0
   -3.4009    0.3179   -1.4521 N   0  0  0  0  0  0  0  0  0  0  0  0
   -3.3443    0.1169   -2.4310 H   0  0  0  0  0  0  0  0  0  0  0  0
   -2.7539   -0.1203   -0.8207 H   0  0  0  0  0  0  0  0  0  0  0  0
   -4.4162    1.4337    0.2084 O   0  0  0  0  0  0  0  0  0  0  0  0
   -1.1099   -2.1819    0.0128 C   0  0  0  0  0  0  0  0  0  0  0  0
   -0.2054   -2.4869    0.3172 H   0  0  0  0  0  0  0  0  0  0  0  0
   -1.2742   -2.5600   -0.9962 H   0  0  0  0  0  0  0  0  0  0  0  0
   -1.8636   -2.5361    0.7160 H   0  0  0  0  0  0  0  0  0  0  0  0
   -1.1174   -0.7212   -0.0000 N   0  0  0  0  0  0  0  0  0  0  0  0
   -1.9957   -0.1571   -0.0095 H   0  0  0  0  0  0  0  0  0  0  0  0
    0.0000    0.0000    0.0000 C   0  0  0  0  0  0  0  0  0  0  0  0
    1.1174   -0.5019   -0.0000 O   0  0  0  0  0  0  0  0  0  0  0  0
   -0.1564    1.5123    0.0647 C   0  0  0  0  0  0  0  0  0  0  0  0
   -1.1007    1.7229   -0.1142 H   0  0  0  0  0  0  0  0  0  0  0  0
    0.0580    1.7665    1.1028 H   0  0  0  0  0  0  0  0  0  0  0  0
    0.5612    2.0167   -0.5824 H   0  0  0  0  0  0  0  0  0  0  0  0
  1  5  1  0
  5  6  1  0
  5  9  2  0
  1  2  1  0
  1  3  1  0
  1  4  1  0
  6  7  1  0
  6  8  1  0
 10 14  1  0
 14 16  1  0
 16 17  2  0
 16 18  1  0
 10 11  1  0
 10 12  1  0
 10 13  1  0
 14 15  1  0
 18 19  1  0
 18 20  1  0
 18 21  1  0
M  END
>  <PDB_ID>  (254) 
pdb1oah

>  <RESIDUE_NAME>  (254) 
ASN   TRP

>  <FRAG_NAME>  (254) 
ACEM   NMA

>  <FRAG_ATOM_NUM>  (254) 
fragi: 9  fragj: 12

>  <atom.prop.CHAIN_ID>  (254) 
A A A A A A A A A Z Z Z Z Z Z Z Z Z Z Z Z

>  <atom.prop.IS_HEAVY_ATOM>  (254) 
1 0 0 0 1 1 0 0 1 1 0 0 0 1 0 1 1 1 0 0 0

>  <DIFUSE_FUNC_ATOM>  (254) 
n/a

>  <FINAL_SINGLE_POINT_ENERGY>  (254) 
0

>  <NONCOV_INTER_ENERGY_QM>  (254) 
0

>  <FF_Energy>  (254) 
3.21

>  <QM_Energy>  (254) 
15.87

>  <source>  (254) 
ACEM_nNMA_15

>  <Index>  (254) 
22296

$$$$
ACEM-pdb2rgk-E-ASN-174:NMA-pdb2rgk-E-MET-153
     RDKit          3D

 21 19  0  0  0  0  0  0  0  0999 V2000
   -6.0055   -0.4404    0.9586 C   0  0  0  0  0  0  0  0  0  0  0  0
   -6.8587   -0.2603    0.4786 H   0  0  0  0  0  0  0  0  0  0  0  0
   -5.7495    0.3438    1.5159 H   0  0  0  0  0  0  0  0  0  0  0  0
   -6.1501   -1.2993    1.6139 H   0  0  0  0  0  0  0  0  0  0  0  0
   -4.9150   -0.6790   -0.0700 C   0  0  0  0  0  0  0  0  0  0  0  0
   -3.7353   -0.1308    0.1944 N   0  0  0  0  0  0  0  0  0  0  0  0
   -3.6011    0.3972    1.0330 H   0  0  0  0  0  0  0  0  0  0  0  0
   -2.9740   -0.2462   -0.4468 H   0  0  0  0  0  0  0  0  0  0  0  0
   -5.1206   -1.3651   -1.0785 O   0  0  0  0  0  0  0  0  0  0  0  0
   -1.0617   -2.1770    0.0486 C   0  0  0  0  0  0  0  0  0  0  0  0
   -0.1356   -2.4432    0.3883 H   0  0  0  0  0  0  0  0  0  0  0  0
   -1.2226   -2.6708   -0.9098 H   0  0  0  0  0  0  0  0  0  0  0  0
   -1.7897   -2.5538    0.7671 H   0  0  0  0  0  0  0  0  0  0  0  0
   -1.1177   -0.7159    0.0000 N   0  0  0  0  0  0  0  0  0  0  0  0
   -1.9930   -0.1761   -0.0356 H   0  0  0  0  0  0  0  0  0  0  0  0
    0.0000    0.0000    0.0000 C   0  0  0  0  0  0  0  0  0  0  0  0
    1.1177   -0.5228   -0.0000 O   0  0  0  0  0  0  0  0  0  0  0  0
   -0.1313    1.5256   -0.0169 C   0  0  0  0  0  0  0  0  0  0  0  0
   -0.6331    1.7970    0.7808 H   0  0  0  0  0  0  0  0  0  0  0  0
    0.8927    1.8869    0.0777 H   0  0  0  0  0  0  0  0  0  0  0  0
   -0.5919    1.8465   -0.9512 H   0  0  0  0  0  0  0  0  0  0  0  0
  1  5  1  0
  5  6  1  0
  5  9  2  0
  1  2  1  0
  1  3  1  0
  1  4  1  0
  6  7  1  0
  6  8  1  0
 10 14  1  0
 14 16  1  0
 16 17  2  0
 16 18  1  0
 10 11  1  0
 10 12  1  0
 10 13  1  0
 14 15  1  0
 18 19  1  0
 18 20  1  0
 18 21  1  0
M  END
>  <PDB_ID>  (255) 
pdb2rgk

>  <RESIDUE_NAME>  (255) 
ASN   MET

>  <FRAG_NAME>  (255) 
ACEM   NMA

>  <FRAG_ATOM_NUM>  (255) 
fragi: 9  fragj: 12

>  <atom.prop.CHAIN_ID>  (255) 
A A A A A A A A A Z Z Z Z Z Z Z Z Z Z Z Z

>  <atom.prop.IS_HEAVY_ATOM>  (255) 
1 0 0 0 1 1 0 0 1 1 0 0 0 1 0 1 1 1 0 0 0

>  <DIFUSE_FUNC_ATOM>  (255) 
n/a

>  <FINAL_SINGLE_POINT_ENERGY>  (255) 
0

>  <NONCOV_INTER_ENERGY_QM>  (255) 
0

>  <FF_Energy>  (255) 
12.71

>  <QM_Energy>  (255) 
25.63

>  <source>  (255) 
ACEM_nNMA_15

>  <Index>  (255) 
22637

$$$$
ACEM-pdb2uzh-A-GLN-100:NMA-pdb2uzh-B-GLY-9
     RDKit          3D

 21 19  0  0  0  0  0  0  0  0999 V2000
   -5.3947    1.2364    2.1997 C   0  0  0  0  0  0  0  0  0  0  0  0
   -5.9657    0.4547    2.4679 H   0  0  0  0  0  0  0  0  0  0  0  0
   -5.9898    1.9679    1.8545 H   0  0  0  0  0  0  0  0  0  0  0  0
   -4.8884    1.6057    3.0915 H   0  0  0  0  0  0  0  0  0  0  0  0
   -4.4606    0.7987    1.0841 C   0  0  0  0  0  0  0  0  0  0  0  0
   -3.3911    0.0772    1.4412 N   0  0  0  0  0  0  0  0  0  0  0  0
   -2.7379   -0.2582    0.7492 H   0  0  0  0  0  0  0  0  0  0  0  0
   -3.2530   -0.1251    2.4304 H   0  0  0  0  0  0  0  0  0  0  0  0
   -4.6823    1.1203   -0.0802 O   0  0  0  0  0  0  0  0  0  0  0  0
   -1.1347   -2.1396   -0.2304 C   0  0  0  0  0  0  0  0  0  0  0  0
   -0.2296   -2.4245   -0.5405 H   0  0  0  0  0  0  0  0  0  0  0  0
   -1.8528   -2.3603   -1.0201 H   0  0  0  0  0  0  0  0  0  0  0  0
   -1.4423   -2.7054    0.6490 H   0  0  0  0  0  0  0  0  0  0  0  0
   -1.1226   -0.7039    0.0000 N   0  0  0  0  0  0  0  0  0  0  0  0
   -1.9855   -0.1455    0.1777 H   0  0  0  0  0  0  0  0  0  0  0  0
    0.0000    0.0000    0.0000 C   0  0  0  0  0  0  0  0  0  0  0  0
    1.1226   -0.5060    0.0000 O   0  0  0  0  0  0  0  0  0  0  0  0
   -0.1673    1.4951    0.0555 C   0  0  0  0  0  0  0  0  0  0  0  0
   -1.0472    1.7244    0.4779 H   0  0  0  0  0  0  0  0  0  0  0  0
   -0.1414    1.8762   -0.8716 H   0  0  0  0  0  0  0  0  0  0  0  0
    0.6394    1.9303    0.6453 H   0  0  0  0  0  0  0  0  0  0  0  0
  1  5  1  0
  5  6  1  0
  5  9  2  0
  1  2  1  0
  1  3  1  0
  1  4  1  0
  6  7  1  0
  6  8  1  0
 10 14  1  0
 14 16  1  0
 16 17  2  0
 16 18  1  0
 10 11  1  0
 10 12  1  0
 10 13  1  0
 14 15  1  0
 18 19  1  0
 18 20  1  0
 18 21  1  0
M  END
>  <PDB_ID>  (256) 
pdb2uzh

>  <RESIDUE_NAME>  (256) 
GLN   GLY

>  <FRAG_NAME>  (256) 
ACEM   NMA

>  <FRAG_ATOM_NUM>  (256) 
fragi: 9  fragj: 12

>  <atom.prop.CHAIN_ID>  (256) 
A A A A A A A A A Z Z Z Z Z Z Z Z Z Z Z Z

>  <atom.prop.IS_HEAVY_ATOM>  (256) 
1 0 0 0 1 1 0 0 1 1 0 0 0 1 0 1 1 1 0 0 0

>  <DIFUSE_FUNC_ATOM>  (256) 
n/a

>  <FINAL_SINGLE_POINT_ENERGY>  (256) 
0

>  <NONCOV_INTER_ENERGY_QM>  (256) 
0

>  <FF_Energy>  (256) 
8.92

>  <QM_Energy>  (256) 
28.97

>  <source>  (256) 
ACEM_nNMA_15

>  <Index>  (256) 
22956

$$$$
ACEM-pdb1oc4-B-GLN-278:NMA-pdb1oc4-B-LEU-275
     RDKit          3D

 21 19  0  0  0  0  0  0  0  0999 V2000
   -5.4020    1.1869   -1.9663 C   0  0  0  0  0  0  0  0  0  0  0  0
   -6.0340    1.8895   -1.6306 H   0  0  0  0  0  0  0  0  0  0  0  0
   -5.9319    0.3943   -2.2799 H   0  0  0  0  0  0  0  0  0  0  0  0
   -4.8331    1.5899   -2.8043 H   0  0  0  0  0  0  0  0  0  0  0  0
   -4.5234    0.7488   -0.8160 C   0  0  0  0  0  0  0  0  0  0  0  0
   -3.3088    0.3251   -1.1403 N   0  0  0  0  0  0  0  0  0  0  0  0
   -2.6504    0.0254   -0.4183 H   0  0  0  0  0  0  0  0  0  0  0  0
   -3.0383    0.3020   -2.1211 H   0  0  0  0  0  0  0  0  0  0  0  0
   -4.9408    0.7781    0.3578 O   0  0  0  0  0  0  0  0  0  0  0  0
   -1.0848   -2.1603   -0.0340 C   0  0  0  0  0  0  0  0  0  0  0  0
   -0.1317   -2.4812   -0.0524 H   0  0  0  0  0  0  0  0  0  0  0  0
   -1.6076   -2.5295   -0.9163 H   0  0  0  0  0  0  0  0  0  0  0  0
   -1.5336   -2.5786    0.8670 H   0  0  0  0  0  0  0  0  0  0  0  0
   -1.1170   -0.7088   -0.0000 N   0  0  0  0  0  0  0  0  0  0  0  0
   -1.9912   -0.1532    0.0258 H   0  0  0  0  0  0  0  0  0  0  0  0
    0.0000    0.0000    0.0000 C   0  0  0  0  0  0  0  0  0  0  0  0
    1.1170   -0.5152    0.0000 O   0  0  0  0  0  0  0  0  0  0  0  0
   -0.1759    1.5178    0.0036 C   0  0  0  0  0  0  0  0  0  0  0  0
   -1.1386    1.7240    0.2109 H   0  0  0  0  0  0  0  0  0  0  0  0
    0.4512    1.9820    0.7647 H   0  0  0  0  0  0  0  0  0  0  0  0
    0.0464    1.9099   -0.9888 H   0  0  0  0  0  0  0  0  0  0  0  0
  1  5  1  0
  5  6  1  0
  5  9  2  0
  1  2  1  0
  1  3  1  0
  1  4  1  0
  6  7  1  0
  6  8  1  0
 10 14  1  0
 14 16  1  0
 16 17  2  0
 16 18  1  0
 10 11  1  0
 10 12  1  0
 10 13  1  0
 14 15  1  0
 18 19  1  0
 18 20  1  0
 18 21  1  0
M  END
>  <PDB_ID>  (257) 
pdb1oc4

>  <RESIDUE_NAME>  (257) 
GLN   LEU

>  <FRAG_NAME>  (257) 
ACEM   NMA

>  <FRAG_ATOM_NUM>  (257) 
fragi: 9  fragj: 12

>  <atom.prop.CHAIN_ID>  (257) 
A A A A A A A A A Z Z Z Z Z Z Z Z Z Z Z Z

>  <atom.prop.IS_HEAVY_ATOM>  (257) 
1 0 0 0 1 1 0 0 1 1 0 0 0 1 0 1 1 1 0 0 0

>  <DIFUSE_FUNC_ATOM>  (257) 
n/a

>  <FINAL_SINGLE_POINT_ENERGY>  (257) 
0

>  <NONCOV_INTER_ENERGY_QM>  (257) 
0

>  <FF_Energy>  (257) 
18.28

>  <QM_Energy>  (257) 
48.8

>  <source>  (257) 
ACEM_nNMA_15

>  <Index>  (257) 
24908

$$$$
ACEM-pdb2v0h-A-ASN-386:NMA-pdb2v0h-A-LYS-392
     RDKit          3D

 21 19  0  0  0  0  0  0  0  0999 V2000
   -4.6338    2.9322    0.8030 C   0  0  0  0  0  0  0  0  0  0  0  0
   -4.6268    3.7412    0.2199 H   0  0  0  0  0  0  0  0  0  0  0  0
   -4.1064    3.1044    1.6315 H   0  0  0  0  0  0  0  0  0  0  0  0
   -5.6649    2.7264    1.0901 H   0  0  0  0  0  0  0  0  0  0  0  0
   -3.9995    1.7859    0.0514 C   0  0  0  0  0  0  0  0  0  0  0  0
   -3.4556    0.8213    0.7876 N   0  0  0  0  0  0  0  0  0  0  0  0
   -3.4882    0.8800    1.7872 H   0  0  0  0  0  0  0  0  0  0  0  0
   -3.0175    0.0400    0.3473 H   0  0  0  0  0  0  0  0  0  0  0  0
   -3.9945    1.7661   -1.1801 O   0  0  0  0  0  0  0  0  0  0  0  0
   -1.1295   -2.1437    0.2645 C   0  0  0  0  0  0  0  0  0  0  0  0
   -0.1950   -2.4787    0.0907 H   0  0  0  0  0  0  0  0  0  0  0  0
   -1.7863   -2.6752   -0.4241 H   0  0  0  0  0  0  0  0  0  0  0  0
   -1.4133   -2.3227    1.3015 H   0  0  0  0  0  0  0  0  0  0  0  0
   -1.1237   -0.7083    0.0000 N   0  0  0  0  0  0  0  0  0  0  0  0
   -1.9847   -0.1614   -0.2012 H   0  0  0  0  0  0  0  0  0  0  0  0
    0.0000    0.0000    0.0000 C   0  0  0  0  0  0  0  0  0  0  0  0
    1.1237   -0.5165    0.0000 O   0  0  0  0  0  0  0  0  0  0  0  0
   -0.1603    1.5206    0.0029 C   0  0  0  0  0  0  0  0  0  0  0  0
   -0.8236    1.7691    0.7105 H   0  0  0  0  0  0  0  0  0  0  0  0
    0.7993    1.9852    0.2297 H   0  0  0  0  0  0  0  0  0  0  0  0
   -0.5411    1.8912   -0.9489 H   0  0  0  0  0  0  0  0  0  0  0  0
  1  5  1  0
  5  6  1  0
  5  9  2  0
  1  2  1  0
  1  3  1  0
  1  4  1  0
  6  7  1  0
  6  8  1  0
 10 14  1  0
 14 16  1  0
 16 17  2  0
 16 18  1  0
 10 11  1  0
 10 12  1  0
 10 13  1  0
 14 15  1  0
 18 19  1  0
 18 20  1  0
 18 21  1  0
M  END
>  <PDB_ID>  (258) 
pdb2v0h

>  <RESIDUE_NAME>  (258) 
ASN   LYS

>  <FRAG_NAME>  (258) 
ACEM   NMA

>  <FRAG_ATOM_NUM>  (258) 
fragi: 9  fragj: 12

>  <atom.prop.CHAIN_ID>  (258) 
A A A A A A A A A Z Z Z Z Z Z Z Z Z Z Z Z

>  <atom.prop.IS_HEAVY_ATOM>  (258) 
1 0 0 0 1 1 0 0 1 1 0 0 0 1 0 1 1 1 0 0 0

>  <DIFUSE_FUNC_ATOM>  (258) 
n/a

>  <FINAL_SINGLE_POINT_ENERGY>  (258) 
0

>  <NONCOV_INTER_ENERGY_QM>  (258) 
0

>  <FF_Energy>  (258) 
2.86

>  <QM_Energy>  (258) 
13.64

>  <source>  (258) 
ACEM_nNMA_15

>  <Index>  (258) 
25648

$$$$
ACEM-pdb1oah-B-ASN-64:NMA-pdb1oah-B-TRP-336
     RDKit          3D

 21 19  0  0  0  0  0  0  0  0999 V2000
   -5.1447    1.5461   -2.3702 C   0  0  0  0  0  0  0  0  0  0  0  0
   -5.7743    2.2183   -1.9911 H   0  0  0  0  0  0  0  0  0  0  0  0
   -5.6520    0.7765   -2.7484 H   0  0  0  0  0  0  0  0  0  0  0  0
   -4.5813    2.0171   -3.1758 H   0  0  0  0  0  0  0  0  0  0  0  0
   -4.2522    1.0390   -1.2598 C   0  0  0  0  0  0  0  0  0  0  0  0
   -3.3318    0.1419   -1.6023 N   0  0  0  0  0  0  0  0  0  0  0  0
   -3.2572   -0.1559   -2.5545 H   0  0  0  0  0  0  0  0  0  0  0  0
   -2.7170   -0.2343   -0.9110 H   0  0  0  0  0  0  0  0  0  0  0  0
   -4.3929    1.4400   -0.1046 O   0  0  0  0  0  0  0  0  0  0  0  0
   -1.0651   -2.1869    0.0384 C   0  0  0  0  0  0  0  0  0  0  0  0
   -0.1764   -2.4626    0.4069 H   0  0  0  0  0  0  0  0  0  0  0  0
   -1.1482   -2.5896   -0.9710 H   0  0  0  0  0  0  0  0  0  0  0  0
   -1.8375   -2.5513    0.7158 H   0  0  0  0  0  0  0  0  0  0  0  0
   -1.1120   -0.7212   -0.0000 N   0  0  0  0  0  0  0  0  0  0  0  0
   -1.9922   -0.1806   -0.0286 H   0  0  0  0  0  0  0  0  0  0  0  0
    0.0000    0.0000    0.0000 C   0  0  0  0  0  0  0  0  0  0  0  0
    1.1120   -0.5104    0.0000 O   0  0  0  0  0  0  0  0  0  0  0  0
   -0.1568    1.5158    0.0477 C   0  0  0  0  0  0  0  0  0  0  0  0
   -1.0879    1.7276   -0.2133 H   0  0  0  0  0  0  0  0  0  0  0  0
   -0.0196    1.8051    1.0895 H   0  0  0  0  0  0  0  0  0  0  0  0
    0.6039    2.0035   -0.5619 H   0  0  0  0  0  0  0  0  0  0  0  0
  1  5  1  0
  5  6  1  0
  5  9  2  0
  1  2  1  0
  1  3  1  0
  1  4  1  0
  6  7  1  0
  6  8  1  0
 10 14  1  0
 14 16  1  0
 16 17  2  0
 16 18  1  0
 10 11  1  0
 10 12  1  0
 10 13  1  0
 14 15  1  0
 18 19  1  0
 18 20  1  0
 18 21  1  0
M  END
>  <PDB_ID>  (259) 
pdb1oah

>  <RESIDUE_NAME>  (259) 
ASN   TRP

>  <FRAG_NAME>  (259) 
ACEM   NMA

>  <FRAG_ATOM_NUM>  (259) 
fragi: 9  fragj: 12

>  <atom.prop.CHAIN_ID>  (259) 
A A A A A A A A A Z Z Z Z Z Z Z Z Z Z Z Z

>  <atom.prop.IS_HEAVY_ATOM>  (259) 
1 0 0 0 1 1 0 0 1 1 0 0 0 1 0 1 1 1 0 0 0

>  <DIFUSE_FUNC_ATOM>  (259) 
n/a

>  <FINAL_SINGLE_POINT_ENERGY>  (259) 
0

>  <NONCOV_INTER_ENERGY_QM>  (259) 
0

>  <FF_Energy>  (259) 
2.59

>  <QM_Energy>  (259) 
14.56

>  <source>  (259) 
ACEM_nNMA_15

>  <Index>  (259) 
26311

$$$$
ACEM-pdb1okk-A-GLN-224:NMA-pdb1okk-A-ASN-44
     RDKit          3D

 21 19  0  0  0  0  0  0  0  0999 V2000
   -4.5252    2.6295    1.7831 C   0  0  0  0  0  0  0  0  0  0  0  0
   -4.3893    3.2164    2.5845 H   0  0  0  0  0  0  0  0  0  0  0  0
   -5.3906    2.1341    1.8824 H   0  0  0  0  0  0  0  0  0  0  0  0
   -4.5723    3.2523    0.8898 H   0  0  0  0  0  0  0  0  0  0  0  0
   -3.4108    1.6453    1.7125 C   0  0  0  0  0  0  0  0  0  0  0  0
   -3.4203    0.8168    0.6855 N   0  0  0  0  0  0  0  0  0  0  0  0
   -2.6798    0.1170    0.5554 H   0  0  0  0  0  0  0  0  0  0  0  0
   -4.1810    0.8735    0.0073 H   0  0  0  0  0  0  0  0  0  0  0  0
   -2.5550    1.6174    2.5923 O   0  0  0  0  0  0  0  0  0  0  0  0
   -1.0975   -2.1666    0.1543 C   0  0  0  0  0  0  0  0  0  0  0  0
   -0.6942   -2.3847    1.0644 H   0  0  0  0  0  0  0  0  0  0  0  0
   -0.5189   -2.6895   -0.6072 H   0  0  0  0  0  0  0  0  0  0  0  0
   -2.1053   -2.5763    0.2219 H   0  0  0  0  0  0  0  0  0  0  0  0
   -1.1186   -0.7100   -0.0000 N   0  0  0  0  0  0  0  0  0  0  0  0
   -1.9898   -0.1626   -0.1157 H   0  0  0  0  0  0  0  0  0  0  0  0
    0.0000    0.0000    0.0000 C   0  0  0  0  0  0  0  0  0  0  0  0
    1.1186   -0.5209   -0.0000 O   0  0  0  0  0  0  0  0  0  0  0  0
   -0.1543    1.5380    0.0345 C   0  0  0  0  0  0  0  0  0  0  0  0
   -1.0225    1.7267    0.4815 H   0  0  0  0  0  0  0  0  0  0  0  0
    0.6350    1.9482    0.6644 H   0  0  0  0  0  0  0  0  0  0  0  0
   -0.1296    1.9773   -0.9627 H   0  0  0  0  0  0  0  0  0  0  0  0
  1  5  1  0
  5  6  1  0
  5  9  2  0
  1  2  1  0
  1  3  1  0
  1  4  1  0
  6  7  1  0
  6  8  1  0
 10 14  1  0
 14 16  1  0
 16 17  2  0
 16 18  1  0
 10 11  1  0
 10 12  1  0
 10 13  1  0
 14 15  1  0
 18 19  1  0
 18 20  1  0
 18 21  1  0
M  END
>  <PDB_ID>  (260) 
pdb1okk

>  <RESIDUE_NAME>  (260) 
GLN   ASN

>  <FRAG_NAME>  (260) 
ACEM   NMA

>  <FRAG_ATOM_NUM>  (260) 
fragi: 9  fragj: 12

>  <atom.prop.CHAIN_ID>  (260) 
A A A A A A A A A Z Z Z Z Z Z Z Z Z Z Z Z

>  <atom.prop.IS_HEAVY_ATOM>  (260) 
1 0 0 0 1 1 0 0 1 1 0 0 0 1 0 1 1 1 0 0 0

>  <DIFUSE_FUNC_ATOM>  (260) 
n/a

>  <FINAL_SINGLE_POINT_ENERGY>  (260) 
0

>  <NONCOV_INTER_ENERGY_QM>  (260) 
0

>  <FF_Energy>  (260) 
8.88

>  <QM_Energy>  (260) 
24.86

>  <source>  (260) 
ACEM_nNMA_15

>  <Index>  (260) 
27670

$$$$
ACEM-pdb2v36-B-ASN-441:NMA-pdb2v36-B-GLH-423
     RDKit          3D

 21 19  0  0  0  0  0  0  0  0999 V2000
   -6.0028    1.2021   -0.3930 C   0  0  0  0  0  0  0  0  0  0  0  0
   -6.7402    1.1543    0.2765 H   0  0  0  0  0  0  0  0  0  0  0  0
   -6.2534    0.6916   -1.2122 H   0  0  0  0  0  0  0  0  0  0  0  0
   -5.8430    2.2454   -0.6653 H   0  0  0  0  0  0  0  0  0  0  0  0
   -4.7611    0.5377    0.2202 C   0  0  0  0  0  0  0  0  0  0  0  0
   -3.8787    0.0563   -0.6308 N   0  0  0  0  0  0  0  0  0  0  0  0
   -4.0299    0.1378   -1.6195 H   0  0  0  0  0  0  0  0  0  0  0  0
   -3.0465   -0.3950   -0.2972 H   0  0  0  0  0  0  0  0  0  0  0  0
   -4.6170    0.4461    1.4695 O   0  0  0  0  0  0  0  0  0  0  0  0
   -1.0386   -2.1853   -0.2276 C   0  0  0  0  0  0  0  0  0  0  0  0
   -0.4518   -2.5867    0.4848 H   0  0  0  0  0  0  0  0  0  0  0  0
   -0.5886   -2.4219   -1.1918 H   0  0  0  0  0  0  0  0  0  0  0  0
   -2.0188   -2.6577   -0.1629 H   0  0  0  0  0  0  0  0  0  0  0  0
   -1.1040   -0.7373    0.0000 N   0  0  0  0  0  0  0  0  0  0  0  0
   -1.9822   -0.2245    0.1681 H   0  0  0  0  0  0  0  0  0  0  0  0
    0.0000    0.0000    0.0000 C   0  0  0  0  0  0  0  0  0  0  0  0
    1.1040   -0.4901    0.0000 O   0  0  0  0  0  0  0  0  0  0  0  0
   -0.1638    1.5157    0.0113 C   0  0  0  0  0  0  0  0  0  0  0  0
    0.3972    1.9074    0.7711 H   0  0  0  0  0  0  0  0  0  0  0  0
    0.1060    2.0071   -0.9235 H   0  0  0  0  0  0  0  0  0  0  0  0
   -1.1294    1.8380    0.4008 H   0  0  0  0  0  0  0  0  0  0  0  0
  1  5  1  0
  5  6  1  0
  5  9  2  0
  1  2  1  0
  1  3  1  0
  1  4  1  0
  6  7  1  0
  6  8  1  0
 10 14  1  0
 14 16  1  0
 16 17  2  0
 16 18  1  0
 10 11  1  0
 10 12  1  0
 10 13  1  0
 14 15  1  0
 18 19  1  0
 18 20  1  0
 18 21  1  0
M  END
>  <PDB_ID>  (261) 
pdb2v36

>  <RESIDUE_NAME>  (261) 
ASN   GLH

>  <FRAG_NAME>  (261) 
ACEM   NMA

>  <FRAG_ATOM_NUM>  (261) 
fragi: 9  fragj: 12

>  <atom.prop.CHAIN_ID>  (261) 
A A A A A A A A A Z Z Z Z Z Z Z Z Z Z Z Z

>  <atom.prop.IS_HEAVY_ATOM>  (261) 
1 0 0 0 1 1 0 0 1 1 0 0 0 1 0 1 1 1 0 0 0

>  <DIFUSE_FUNC_ATOM>  (261) 
n/a

>  <FINAL_SINGLE_POINT_ENERGY>  (261) 
0

>  <NONCOV_INTER_ENERGY_QM>  (261) 
0

>  <FF_Energy>  (261) 
2.88

>  <QM_Energy>  (261) 
13.09

>  <source>  (261) 
ACEM_nNMA_16

>  <Index>  (261) 
363

$$$$
ACEM-pdb1ocr-F-GLN-80:NMA-pdb1ocr-F-LEU-74
     RDKit          3D

 21 19  0  0  0  0  0  0  0  0999 V2000
   -5.4492    1.4819   -0.6075 C   0  0  0  0  0  0  0  0  0  0  0  0
   -6.2805    1.3530   -0.0560 H   0  0  0  0  0  0  0  0  0  0  0  0
   -5.5644    0.9912   -1.4783 H   0  0  0  0  0  0  0  0  0  0  0  0
   -5.3347    2.5448   -0.8202 H   0  0  0  0  0  0  0  0  0  0  0  0
   -4.2797    0.8727    0.1373 C   0  0  0  0  0  0  0  0  0  0  0  0
   -3.7396   -0.2382   -0.3818 N   0  0  0  0  0  0  0  0  0  0  0  0
   -2.9504   -0.6864    0.0570 H   0  0  0  0  0  0  0  0  0  0  0  0
   -4.1487   -0.6212   -1.2330 H   0  0  0  0  0  0  0  0  0  0  0  0
   -3.8436    1.4130    1.1545 O   0  0  0  0  0  0  0  0  0  0  0  0
   -1.0594   -2.1746   -0.0123 C   0  0  0  0  0  0  0  0  0  0  0  0
   -0.0954   -2.4563    0.1790 H   0  0  0  0  0  0  0  0  0  0  0  0
   -1.3671   -2.6328   -0.9522 H   0  0  0  0  0  0  0  0  0  0  0  0
   -1.7073   -2.5947    0.7570 H   0  0  0  0  0  0  0  0  0  0  0  0
   -1.1131   -0.7150   -0.0000 N   0  0  0  0  0  0  0  0  0  0  0  0
   -1.9912   -0.1738    0.0092 H   0  0  0  0  0  0  0  0  0  0  0  0
    0.0000    0.0000    0.0000 C   0  0  0  0  0  0  0  0  0  0  0  0
    1.1131   -0.5260    0.0000 O   0  0  0  0  0  0  0  0  0  0  0  0
   -0.1439    1.5149   -0.0013 C   0  0  0  0  0  0  0  0  0  0  0  0
   -1.0729    1.7436    0.2032 H   0  0  0  0  0  0  0  0  0  0  0  0
    0.4900    1.8302    0.8275 H   0  0  0  0  0  0  0  0  0  0  0  0
    0.2867    1.8511   -0.9445 H   0  0  0  0  0  0  0  0  0  0  0  0
  1  5  1  0
  5  6  1  0
  5  9  2  0
  1  2  1  0
  1  3  1  0
  1  4  1  0
  6  7  1  0
  6  8  1  0
 10 14  1  0
 14 16  1  0
 16 17  2  0
 16 18  1  0
 10 11  1  0
 10 12  1  0
 10 13  1  0
 14 15  1  0
 18 19  1  0
 18 20  1  0
 18 21  1  0
M  END
>  <PDB_ID>  (262) 
pdb1ocr

>  <RESIDUE_NAME>  (262) 
GLN   LEU

>  <FRAG_NAME>  (262) 
ACEM   NMA

>  <FRAG_ATOM_NUM>  (262) 
fragi: 9  fragj: 12

>  <atom.prop.CHAIN_ID>  (262) 
A A A A A A A A A Z Z Z Z Z Z Z Z Z Z Z Z

>  <atom.prop.IS_HEAVY_ATOM>  (262) 
1 0 0 0 1 1 0 0 1 1 0 0 0 1 0 1 1 1 0 0 0

>  <DIFUSE_FUNC_ATOM>  (262) 
n/a

>  <FINAL_SINGLE_POINT_ENERGY>  (262) 
0

>  <NONCOV_INTER_ENERGY_QM>  (262) 
0

>  <FF_Energy>  (262) 
5.13

>  <QM_Energy>  (262) 
21.97

>  <source>  (262) 
ACEM_nNMA_16

>  <Index>  (262) 
651

$$$$
ACEM-pdb1ooe-A-GLN-103:NMA-pdb1ooe-A-GLY-81
     RDKit          3D

 21 19  0  0  0  0  0  0  0  0999 V2000
   -4.6228    1.5166    0.9681 C   0  0  0  0  0  0  0  0  0  0  0  0
   -4.0441    1.8602    1.7078 H   0  0  0  0  0  0  0  0  0  0  0  0
   -5.5574    1.8486    1.0955 H   0  0  0  0  0  0  0  0  0  0  0  0
   -4.2427    1.9009    0.0215 H   0  0  0  0  0  0  0  0  0  0  0  0
   -4.6334    0.0017    1.0260 C   0  0  0  0  0  0  0  0  0  0  0  0
   -3.5820   -0.6171    0.5003 N   0  0  0  0  0  0  0  0  0  0  0  0
   -3.5120   -1.6316    0.5147 H   0  0  0  0  0  0  0  0  0  0  0  0
   -2.8418   -0.0577    0.0790 H   0  0  0  0  0  0  0  0  0  0  0  0
   -5.5787   -0.6055    1.5249 O   0  0  0  0  0  0  0  0  0  0  0  0
   -1.1034   -2.1686    0.0141 C   0  0  0  0  0  0  0  0  0  0  0  0
   -0.1461   -2.4929   -0.0150 H   0  0  0  0  0  0  0  0  0  0  0  0
   -1.5137   -2.5025    0.8751 H   0  0  0  0  0  0  0  0  0  0  0  0
   -1.6495   -2.5889   -0.8304 H   0  0  0  0  0  0  0  0  0  0  0  0
   -1.1235   -0.7151   -0.0000 N   0  0  0  0  0  0  0  0  0  0  0  0
   -1.9959   -0.1512   -0.0112 H   0  0  0  0  0  0  0  0  0  0  0  0
    0.0000    0.0000    0.0000 C   0  0  0  0  0  0  0  0  0  0  0  0
    1.1235   -0.5008    0.0000 O   0  0  0  0  0  0  0  0  0  0  0  0
   -0.1880    1.5048   -0.0217 C   0  0  0  0  0  0  0  0  0  0  0  0
   -1.1078    1.7298    0.4027 H   0  0  0  0  0  0  0  0  0  0  0  0
   -0.2922    1.8122   -1.0083 H   0  0  0  0  0  0  0  0  0  0  0  0
    0.5749    2.1203    0.4552 H   0  0  0  0  0  0  0  0  0  0  0  0
  1  5  1  0
  5  6  1  0
  5  9  2  0
  1  2  1  0
  1  3  1  0
  1  4  1  0
  6  7  1  0
  6  8  1  0
 10 14  1  0
 14 16  1  0
 16 17  2  0
 16 18  1  0
 10 11  1  0
 10 12  1  0
 10 13  1  0
 14 15  1  0
 18 19  1  0
 18 20  1  0
 18 21  1  0
M  END
>  <PDB_ID>  (263) 
pdb1ooe

>  <RESIDUE_NAME>  (263) 
GLN   GLY

>  <FRAG_NAME>  (263) 
ACEM   NMA

>  <FRAG_ATOM_NUM>  (263) 
fragi: 9  fragj: 12

>  <atom.prop.CHAIN_ID>  (263) 
A A A A A A A A A Z Z Z Z Z Z Z Z Z Z Z Z

>  <atom.prop.IS_HEAVY_ATOM>  (263) 
1 0 0 0 1 1 0 0 1 1 0 0 0 1 0 1 1 1 0 0 0

>  <DIFUSE_FUNC_ATOM>  (263) 
n/a

>  <FINAL_SINGLE_POINT_ENERGY>  (263) 
0

>  <NONCOV_INTER_ENERGY_QM>  (263) 
0

>  <FF_Energy>  (263) 
30.03

>  <QM_Energy>  (263) 
50.65

>  <source>  (263) 
ACEM_nNMA_16

>  <Index>  (263) 
2893

$$$$
ACEM-pdb1onw-A-ASN-124:NMA-pdb1onw-A-SER-129
     RDKit          3D

 21 19  0  0  0  0  0  0  0  0999 V2000
   -4.9894    1.3171    2.3406 C   0  0  0  0  0  0  0  0  0  0  0  0
   -5.7566    0.8378    2.7491 H   0  0  0  0  0  0  0  0  0  0  0  0
   -5.2955    2.1428    1.8830 H   0  0  0  0  0  0  0  0  0  0  0  0
   -4.3008    1.6022    3.1361 H   0  0  0  0  0  0  0  0  0  0  0  0
   -4.3360    0.4027    1.3103 C   0  0  0  0  0  0  0  0  0  0  0  0
   -3.0277    0.5775    1.1163 N   0  0  0  0  0  0  0  0  0  0  0  0
   -2.5352    1.2738    1.6378 H   0  0  0  0  0  0  0  0  0  0  0  0
   -2.5429    0.0134    0.4501 H   0  0  0  0  0  0  0  0  0  0  0  0
   -4.9742   -0.4742    0.7121 O   0  0  0  0  0  0  0  0  0  0  0  0
   -1.0819   -2.1607    0.0670 C   0  0  0  0  0  0  0  0  0  0  0  0
   -0.1368   -2.4797   -0.1649 H   0  0  0  0  0  0  0  0  0  0  0  0
   -1.7748   -2.6748   -0.5990 H   0  0  0  0  0  0  0  0  0  0  0  0
   -1.2882   -2.4326    1.1022 H   0  0  0  0  0  0  0  0  0  0  0  0
   -1.1179   -0.7095   -0.0000 N   0  0  0  0  0  0  0  0  0  0  0  0
   -1.9913   -0.1569   -0.0502 H   0  0  0  0  0  0  0  0  0  0  0  0
    0.0000    0.0000    0.0000 C   0  0  0  0  0  0  0  0  0  0  0  0
    1.1179   -0.5083    0.0000 O   0  0  0  0  0  0  0  0  0  0  0  0
   -0.1725    1.5032    0.0060 C   0  0  0  0  0  0  0  0  0  0  0  0
   -1.1441    1.7028    0.1430 H   0  0  0  0  0  0  0  0  0  0  0  0
    0.3866    1.9218    0.8429 H   0  0  0  0  0  0  0  0  0  0  0  0
    0.1374    1.9471   -0.9400 H   0  0  0  0  0  0  0  0  0  0  0  0
  1  5  1  0
  5  6  1  0
  5  9  2  0
  1  2  1  0
  1  3  1  0
  1  4  1  0
  6  7  1  0
  6  8  1  0
 10 14  1  0
 14 16  1  0
 16 17  2  0
 16 18  1  0
 10 11  1  0
 10 12  1  0
 10 13  1  0
 14 15  1  0
 18 19  1  0
 18 20  1  0
 18 21  1  0
M  END
>  <PDB_ID>  (264) 
pdb1onw

>  <RESIDUE_NAME>  (264) 
ASN   SER

>  <FRAG_NAME>  (264) 
ACEM   NMA

>  <FRAG_ATOM_NUM>  (264) 
fragi: 9  fragj: 12

>  <atom.prop.CHAIN_ID>  (264) 
A A A A A A A A A Z Z Z Z Z Z Z Z Z Z Z Z

>  <atom.prop.IS_HEAVY_ATOM>  (264) 
1 0 0 0 1 1 0 0 1 1 0 0 0 1 0 1 1 1 0 0 0

>  <DIFUSE_FUNC_ATOM>  (264) 
n/a

>  <FINAL_SINGLE_POINT_ENERGY>  (264) 
0

>  <NONCOV_INTER_ENERGY_QM>  (264) 
0

>  <FF_Energy>  (264) 
29.37

>  <QM_Energy>  (264) 
64.08

>  <source>  (264) 
ACEM_nNMA_16

>  <Index>  (264) 
3073

$$$$
ACEM-pdb2v36-D-ASN-441:NMA-pdb2v36-D-GLH-423
     RDKit          3D

 21 19  0  0  0  0  0  0  0  0999 V2000
   -5.9085    1.2952   -0.6464 C   0  0  0  0  0  0  0  0  0  0  0  0
   -6.6621    1.3550    0.0009 H   0  0  0  0  0  0  0  0  0  0  0  0
   -6.1672    0.7370   -1.4283 H   0  0  0  0  0  0  0  0  0  0  0  0
   -5.6989    2.3016   -1.0088 H   0  0  0  0  0  0  0  0  0  0  0  0
   -4.7170    0.6581    0.0417 C   0  0  0  0  0  0  0  0  0  0  0  0
   -3.8513    0.0995   -0.7417 N   0  0  0  0  0  0  0  0  0  0  0  0
   -3.9598    0.0948   -1.7405 H   0  0  0  0  0  0  0  0  0  0  0  0
   -3.0272   -0.3539   -0.3556 H   0  0  0  0  0  0  0  0  0  0  0  0
   -4.6070    0.6481    1.2829 O   0  0  0  0  0  0  0  0  0  0  0  0
   -1.0956   -2.1838   -0.0471 C   0  0  0  0  0  0  0  0  0  0  0  0
   -0.5327   -2.5036    0.7128 H   0  0  0  0  0  0  0  0  0  0  0  0
   -0.6204   -2.5001   -0.9756 H   0  0  0  0  0  0  0  0  0  0  0  0
   -2.1067   -2.5904   -0.0283 H   0  0  0  0  0  0  0  0  0  0  0  0
   -1.1257   -0.7168   -0.0000 N   0  0  0  0  0  0  0  0  0  0  0  0
   -1.9978   -0.1640    0.0345 H   0  0  0  0  0  0  0  0  0  0  0  0
    0.0000    0.0000    0.0000 C   0  0  0  0  0  0  0  0  0  0  0  0
    1.1257   -0.5242    0.0000 O   0  0  0  0  0  0  0  0  0  0  0  0
   -0.1068    1.5252   -0.0245 C   0  0  0  0  0  0  0  0  0  0  0  0
    0.4649    1.9183    0.6966 H   0  0  0  0  0  0  0  0  0  0  0  0
    0.2223    1.9114   -0.9892 H   0  0  0  0  0  0  0  0  0  0  0  0
   -1.0791    1.9087    0.2847 H   0  0  0  0  0  0  0  0  0  0  0  0
  1  5  1  0
  5  6  1  0
  5  9  2  0
  1  2  1  0
  1  3  1  0
  1  4  1  0
  6  7  1  0
  6  8  1  0
 10 14  1  0
 14 16  1  0
 16 17  2  0
 16 18  1  0
 10 11  1  0
 10 12  1  0
 10 13  1  0
 14 15  1  0
 18 19  1  0
 18 20  1  0
 18 21  1  0
M  END
>  <PDB_ID>  (265) 
pdb2v36

>  <RESIDUE_NAME>  (265) 
ASN   GLH

>  <FRAG_NAME>  (265) 
ACEM   NMA

>  <FRAG_ATOM_NUM>  (265) 
fragi: 9  fragj: 12

>  <atom.prop.CHAIN_ID>  (265) 
A A A A A A A A A Z Z Z Z Z Z Z Z Z Z Z Z

>  <atom.prop.IS_HEAVY_ATOM>  (265) 
1 0 0 0 1 1 0 0 1 1 0 0 0 1 0 1 1 1 0 0 0

>  <DIFUSE_FUNC_ATOM>  (265) 
n/a

>  <FINAL_SINGLE_POINT_ENERGY>  (265) 
0

>  <NONCOV_INTER_ENERGY_QM>  (265) 
0

>  <FF_Energy>  (265) 
3.85

>  <QM_Energy>  (265) 
16.07

>  <source>  (265) 
ACEM_nNMA_16

>  <Index>  (265) 
3383

$$$$
ACEM-pdb1oj9-B-GLN-191:NMA-pdb1oj9-B-TRP-432
     RDKit          3D

 21 19  0  0  0  0  0  0  0  0999 V2000
   -5.2803    1.0863   -1.7739 C   0  0  0  0  0  0  0  0  0  0  0  0
   -5.9141    0.3154   -1.8218 H   0  0  0  0  0  0  0  0  0  0  0  0
   -5.2640    1.5626   -2.6523 H   0  0  0  0  0  0  0  0  0  0  0  0
   -5.6440    1.7803   -1.0162 H   0  0  0  0  0  0  0  0  0  0  0  0
   -3.8917    0.5609   -1.4744 C   0  0  0  0  0  0  0  0  0  0  0  0
   -3.5882    0.3807   -0.1921 N   0  0  0  0  0  0  0  0  0  0  0  0
   -2.6807    0.0181    0.0842 H   0  0  0  0  0  0  0  0  0  0  0  0
   -4.2857    0.6145    0.5137 H   0  0  0  0  0  0  0  0  0  0  0  0
   -3.1033    0.3222   -2.3885 O   0  0  0  0  0  0  0  0  0  0  0  0
   -1.0890   -2.1496   -0.3190 C   0  0  0  0  0  0  0  0  0  0  0  0
   -0.5090   -2.6078    0.3461 H   0  0  0  0  0  0  0  0  0  0  0  0
   -0.6312   -2.2647   -1.3015 H   0  0  0  0  0  0  0  0  0  0  0  0
   -2.0999   -2.5568   -0.3364 H   0  0  0  0  0  0  0  0  0  0  0  0
   -1.1139   -0.7250    0.0000 N   0  0  0  0  0  0  0  0  0  0  0  0
   -1.9763   -0.2057    0.2396 H   0  0  0  0  0  0  0  0  0  0  0  0
    0.0000    0.0000    0.0000 C   0  0  0  0  0  0  0  0  0  0  0  0
    1.1139   -0.5092    0.0000 O   0  0  0  0  0  0  0  0  0  0  0  0
   -0.1602    1.5239    0.0194 C   0  0  0  0  0  0  0  0  0  0  0  0
   -0.3497    1.8197   -0.9302 H   0  0  0  0  0  0  0  0  0  0  0  0
   -0.9928    1.8553    0.6400 H   0  0  0  0  0  0  0  0  0  0  0  0
    0.7783    1.9920    0.3166 H   0  0  0  0  0  0  0  0  0  0  0  0
  1  5  1  0
  5  6  1  0
  5  9  2  0
  1  2  1  0
  1  3  1  0
  1  4  1  0
  6  7  1  0
  6  8  1  0
 10 14  1  0
 14 16  1  0
 16 17  2  0
 16 18  1  0
 10 11  1  0
 10 12  1  0
 10 13  1  0
 14 15  1  0
 18 19  1  0
 18 20  1  0
 18 21  1  0
M  END
>  <PDB_ID>  (266) 
pdb1oj9

>  <RESIDUE_NAME>  (266) 
GLN   TRP

>  <FRAG_NAME>  (266) 
ACEM   NMA

>  <FRAG_ATOM_NUM>  (266) 
fragi: 9  fragj: 12

>  <atom.prop.CHAIN_ID>  (266) 
A A A A A A A A A Z Z Z Z Z Z Z Z Z Z Z Z

>  <atom.prop.IS_HEAVY_ATOM>  (266) 
1 0 0 0 1 1 0 0 1 1 0 0 0 1 0 1 1 1 0 0 0

>  <DIFUSE_FUNC_ATOM>  (266) 
n/a

>  <FINAL_SINGLE_POINT_ENERGY>  (266) 
0

>  <NONCOV_INTER_ENERGY_QM>  (266) 
0

>  <FF_Energy>  (266) 
20.73

>  <QM_Energy>  (266) 
58.27

>  <source>  (266) 
ACEM_nNMA_16

>  <Index>  (266) 
3460

$$$$
ACEM-pdb2v7s-A-GLN-88:NMA-pdb2v7s-A-GLY-127
     RDKit          3D

 21 19  0  0  0  0  0  0  0  0999 V2000
   -6.0811    0.4437   -0.2992 C   0  0  0  0  0  0  0  0  0  0  0  0
   -6.7557    0.2812   -1.0216 H   0  0  0  0  0  0  0  0  0  0  0  0
   -5.7417    1.3826   -0.3689 H   0  0  0  0  0  0  0  0  0  0  0  0
   -6.5987    0.3541    0.6558 H   0  0  0  0  0  0  0  0  0  0  0  0
   -4.9104   -0.5255   -0.4848 C   0  0  0  0  0  0  0  0  0  0  0  0
   -3.7498   -0.1426   -0.0016 N   0  0  0  0  0  0  0  0  0  0  0  0
   -2.9275   -0.7402   -0.0763 H   0  0  0  0  0  0  0  0  0  0  0  0
   -3.6750    0.7687    0.4526 H   0  0  0  0  0  0  0  0  0  0  0  0
   -5.0460   -1.5779   -1.0999 O   0  0  0  0  0  0  0  0  0  0  0  0
   -1.1676   -2.1495    0.0480 C   0  0  0  0  0  0  0  0  0  0  0  0
   -0.2409   -2.4835    0.2527 H   0  0  0  0  0  0  0  0  0  0  0  0
   -1.4854   -2.5604   -0.9103 H   0  0  0  0  0  0  0  0  0  0  0  0
   -1.8432   -2.4861    0.8344 H   0  0  0  0  0  0  0  0  0  0  0  0
   -1.1351   -0.6820    0.0000 N   0  0  0  0  0  0  0  0  0  0  0  0
   -1.9975   -0.0989   -0.0363 H   0  0  0  0  0  0  0  0  0  0  0  0
    0.0000    0.0000    0.0000 C   0  0  0  0  0  0  0  0  0  0  0  0
    1.1351   -0.5425   -0.0000 O   0  0  0  0  0  0  0  0  0  0  0  0
   -0.1493    1.5085    0.0125 C   0  0  0  0  0  0  0  0  0  0  0  0
    0.7432    1.9367   -0.1727 H   0  0  0  0  0  0  0  0  0  0  0  0
   -0.4612    1.8089    0.9211 H   0  0  0  0  0  0  0  0  0  0  0  0
   -0.8677    1.8345   -0.7396 H   0  0  0  0  0  0  0  0  0  0  0  0
  1  5  1  0
  5  6  1  0
  5  9  2  0
  1  2  1  0
  1  3  1  0
  1  4  1  0
  6  7  1  0
  6  8  1  0
 10 14  1  0
 14 16  1  0
 16 17  2  0
 16 18  1  0
 10 11  1  0
 10 12  1  0
 10 13  1  0
 14 15  1  0
 18 19  1  0
 18 20  1  0
 18 21  1  0
M  END
>  <PDB_ID>  (267) 
pdb2v7s

>  <RESIDUE_NAME>  (267) 
GLN   GLY

>  <FRAG_NAME>  (267) 
ACEM   NMA

>  <FRAG_ATOM_NUM>  (267) 
fragi: 9  fragj: 12

>  <atom.prop.CHAIN_ID>  (267) 
A A A A A A A A A Z Z Z Z Z Z Z Z Z Z Z Z

>  <atom.prop.IS_HEAVY_ATOM>  (267) 
1 0 0 0 1 1 0 0 1 1 0 0 0 1 0 1 1 1 0 0 0

>  <DIFUSE_FUNC_ATOM>  (267) 
n/a

>  <FINAL_SINGLE_POINT_ENERGY>  (267) 
0

>  <NONCOV_INTER_ENERGY_QM>  (267) 
0

>  <FF_Energy>  (267) 
10.86

>  <QM_Energy>  (267) 
24.6

>  <source>  (267) 
ACEM_nNMA_16

>  <Index>  (267) 
3868

$$$$
ACEM-pdb1oqe-B-GLN-7:NMA-pdb1oqe-A-GLY-108
     RDKit          3D

 21 19  0  0  0  0  0  0  0  0999 V2000
   -5.8433    0.3733    0.5898 C   0  0  0  0  0  0  0  0  0  0  0  0
   -6.1198    1.2152    0.1331 H   0  0  0  0  0  0  0  0  0  0  0  0
   -5.6510    0.5522    1.5504 H   0  0  0  0  0  0  0  0  0  0  0  0
   -6.6590   -0.3466    0.5222 H   0  0  0  0  0  0  0  0  0  0  0  0
   -4.5712   -0.1385   -0.0728 C   0  0  0  0  0  0  0  0  0  0  0  0
   -3.5815   -0.4777    0.7329 N   0  0  0  0  0  0  0  0  0  0  0  0
   -2.7055   -0.8426    0.3641 H   0  0  0  0  0  0  0  0  0  0  0  0
   -3.7044   -0.3704    1.7404 H   0  0  0  0  0  0  0  0  0  0  0  0
   -4.4902   -0.2437   -1.2926 O   0  0  0  0  0  0  0  0  0  0  0  0
   -1.0801   -2.1741   -0.0043 C   0  0  0  0  0  0  0  0  0  0  0  0
   -0.1123   -2.4329    0.0633 H   0  0  0  0  0  0  0  0  0  0  0  0
   -1.4403   -2.5689   -0.9542 H   0  0  0  0  0  0  0  0  0  0  0  0
   -1.6834   -2.5852    0.8051 H   0  0  0  0  0  0  0  0  0  0  0  0
   -1.1192   -0.7197   -0.0000 N   0  0  0  0  0  0  0  0  0  0  0  0
   -1.9951   -0.1666    0.0034 H   0  0  0  0  0  0  0  0  0  0  0  0
    0.0000    0.0000    0.0000 C   0  0  0  0  0  0  0  0  0  0  0  0
    1.1192   -0.5084   -0.0000 O   0  0  0  0  0  0  0  0  0  0  0  0
   -0.1484    1.5082    0.0006 C   0  0  0  0  0  0  0  0  0  0  0  0
   -0.6584    1.7932    0.8238 H   0  0  0  0  0  0  0  0  0  0  0  0
   -0.6818    1.7914   -0.8085 H   0  0  0  0  0  0  0  0  0  0  0  0
    0.8254    1.9977   -0.0137 H   0  0  0  0  0  0  0  0  0  0  0  0
  1  5  1  0
  5  6  1  0
  5  9  2  0
  1  2  1  0
  1  3  1  0
  1  4  1  0
  6  7  1  0
  6  8  1  0
 10 14  1  0
 14 16  1  0
 16 17  2  0
 16 18  1  0
 10 11  1  0
 10 12  1  0
 10 13  1  0
 14 15  1  0
 18 19  1  0
 18 20  1  0
 18 21  1  0
M  END
>  <PDB_ID>  (268) 
pdb1oqe

>  <RESIDUE_NAME>  (268) 
GLN   GLY

>  <FRAG_NAME>  (268) 
ACEM   NMA

>  <FRAG_ATOM_NUM>  (268) 
fragi: 9  fragj: 12

>  <atom.prop.CHAIN_ID>  (268) 
A A A A A A A A A Z Z Z Z Z Z Z Z Z Z Z Z

>  <atom.prop.IS_HEAVY_ATOM>  (268) 
1 0 0 0 1 1 0 0 1 1 0 0 0 1 0 1 1 1 0 0 0

>  <DIFUSE_FUNC_ATOM>  (268) 
n/a

>  <FINAL_SINGLE_POINT_ENERGY>  (268) 
0

>  <NONCOV_INTER_ENERGY_QM>  (268) 
0

>  <FF_Energy>  (268) 
13.23

>  <QM_Energy>  (268) 
30.77

>  <source>  (268) 
ACEM_nNMA_16

>  <Index>  (268) 
4315

$$$$
ACEM-pdb1onw-B-ASN-49:NMA-pdb1onw-B-ASP-3
     RDKit          3D

 21 19  0  0  0  0  0  0  0  0999 V2000
   -5.7334   -1.5147   -1.1757 C   0  0  0  0  0  0  0  0  0  0  0  0
   -5.1824   -2.3824   -1.2090 H   0  0  0  0  0  0  0  0  0  0  0  0
   -5.9419   -1.2910   -2.1585 H   0  0  0  0  0  0  0  0  0  0  0  0
   -6.6816   -1.7573   -0.6957 H   0  0  0  0  0  0  0  0  0  0  0  0
   -4.8031   -0.3929   -0.6297 C   0  0  0  0  0  0  0  0  0  0  0  0
   -3.4836   -0.5839   -0.6804 N   0  0  0  0  0  0  0  0  0  0  0  0
   -3.1517   -1.4499   -1.0797 H   0  0  0  0  0  0  0  0  0  0  0  0
   -2.8580    0.0964   -0.3421 H   0  0  0  0  0  0  0  0  0  0  0  0
   -5.2369    0.6637   -0.1317 O   0  0  0  0  0  0  0  0  0  0  0  0
   -1.1564   -2.1998    0.0469 C   0  0  0  0  0  0  0  0  0  0  0  0
   -0.2265   -2.5389    0.2486 H   0  0  0  0  0  0  0  0  0  0  0  0
   -1.4625   -2.6496   -0.8976 H   0  0  0  0  0  0  0  0  0  0  0  0
   -1.8011   -2.4905    0.8764 H   0  0  0  0  0  0  0  0  0  0  0  0
   -1.1207   -0.7326    0.0000 N   0  0  0  0  0  0  0  0  0  0  0  0
   -2.0006   -0.1506   -0.0377 H   0  0  0  0  0  0  0  0  0  0  0  0
    0.0000    0.0000    0.0000 C   0  0  0  0  0  0  0  0  0  0  0  0
    1.1207   -0.4917   -0.0000 O   0  0  0  0  0  0  0  0  0  0  0  0
   -0.1757    1.5295   -0.0331 C   0  0  0  0  0  0  0  0  0  0  0  0
   -1.1646    1.7050   -0.1673 H   0  0  0  0  0  0  0  0  0  0  0  0
    0.1140    2.0155    0.8986 H   0  0  0  0  0  0  0  0  0  0  0  0
    0.3655    1.9484   -0.8815 H   0  0  0  0  0  0  0  0  0  0  0  0
  1  5  1  0
  5  6  1  0
  5  9  2  0
  1  2  1  0
  1  3  1  0
  1  4  1  0
  6  7  1  0
  6  8  1  0
 10 14  1  0
 14 16  1  0
 16 17  2  0
 16 18  1  0
 10 11  1  0
 10 12  1  0
 10 13  1  0
 14 15  1  0
 18 19  1  0
 18 20  1  0
 18 21  1  0
M  END
>  <PDB_ID>  (269) 
pdb1onw

>  <RESIDUE_NAME>  (269) 
ASN   ASP

>  <FRAG_NAME>  (269) 
ACEM   NMA

>  <FRAG_ATOM_NUM>  (269) 
fragi: 9  fragj: 12

>  <atom.prop.CHAIN_ID>  (269) 
A A A A A A A A A Z Z Z Z Z Z Z Z Z Z Z Z

>  <atom.prop.IS_HEAVY_ATOM>  (269) 
1 0 0 0 1 1 0 0 1 1 0 0 0 1 0 1 1 1 0 0 0

>  <DIFUSE_FUNC_ATOM>  (269) 
n/a

>  <FINAL_SINGLE_POINT_ENERGY>  (269) 
0

>  <NONCOV_INTER_ENERGY_QM>  (269) 
0

>  <FF_Energy>  (269) 
29.9

>  <QM_Energy>  (269) 
42.22

>  <source>  (269) 
ACEM_nNMA_16

>  <Index>  (269) 
4531

$$$$
ACEM-pdb1onw-B-ASN-124:NMA-pdb1onw-B-SER-129
     RDKit          3D

 21 19  0  0  0  0  0  0  0  0999 V2000
   -4.9166    1.3521    2.3605 C   0  0  0  0  0  0  0  0  0  0  0  0
   -5.6482    0.8484    2.7827 H   0  0  0  0  0  0  0  0  0  0  0  0
   -5.2303    2.1812    1.9350 H   0  0  0  0  0  0  0  0  0  0  0  0
   -4.1939    1.6170    3.1323 H   0  0  0  0  0  0  0  0  0  0  0  0
   -4.2520    0.4805    1.3186 C   0  0  0  0  0  0  0  0  0  0  0  0
   -2.9750    0.7044    1.0861 N   0  0  0  0  0  0  0  0  0  0  0  0
   -2.4879    1.4206    1.5953 H   0  0  0  0  0  0  0  0  0  0  0  0
   -2.4803    0.1626    0.4037 H   0  0  0  0  0  0  0  0  0  0  0  0
   -4.8979   -0.3603    0.7222 O   0  0  0  0  0  0  0  0  0  0  0  0
   -1.0526   -2.1524    0.0451 C   0  0  0  0  0  0  0  0  0  0  0  0
   -0.1153   -2.4472   -0.2171 H   0  0  0  0  0  0  0  0  0  0  0  0
   -1.7632   -2.6271   -0.6315 H   0  0  0  0  0  0  0  0  0  0  0  0
   -1.2751   -2.4391    1.0729 H   0  0  0  0  0  0  0  0  0  0  0  0
   -1.1191   -0.7110    0.0000 N   0  0  0  0  0  0  0  0  0  0  0  0
   -1.9913   -0.1665   -0.0337 H   0  0  0  0  0  0  0  0  0  0  0  0
    0.0000    0.0000    0.0000 C   0  0  0  0  0  0  0  0  0  0  0  0
    1.1191   -0.4946    0.0000 O   0  0  0  0  0  0  0  0  0  0  0  0
   -0.1575    1.4958    0.0697 C   0  0  0  0  0  0  0  0  0  0  0  0
   -1.1190    1.7083    0.2035 H   0  0  0  0  0  0  0  0  0  0  0  0
    0.3851    1.8383    0.9508 H   0  0  0  0  0  0  0  0  0  0  0  0
    0.2269    1.9777   -0.8292 H   0  0  0  0  0  0  0  0  0  0  0  0
  1  5  1  0
  5  6  1  0
  5  9  2  0
  1  2  1  0
  1  3  1  0
  1  4  1  0
  6  7  1  0
  6  8  1  0
 10 14  1  0
 14 16  1  0
 16 17  2  0
 16 18  1  0
 10 11  1  0
 10 12  1  0
 10 13  1  0
 14 15  1  0
 18 19  1  0
 18 20  1  0
 18 21  1  0
M  END
>  <PDB_ID>  (270) 
pdb1onw

>  <RESIDUE_NAME>  (270) 
ASN   SER

>  <FRAG_NAME>  (270) 
ACEM   NMA

>  <FRAG_ATOM_NUM>  (270) 
fragi: 9  fragj: 12

>  <atom.prop.CHAIN_ID>  (270) 
A A A A A A A A A Z Z Z Z Z Z Z Z Z Z Z Z

>  <atom.prop.IS_HEAVY_ATOM>  (270) 
1 0 0 0 1 1 0 0 1 1 0 0 0 1 0 1 1 1 0 0 0

>  <DIFUSE_FUNC_ATOM>  (270) 
n/a

>  <FINAL_SINGLE_POINT_ENERGY>  (270) 
0

>  <NONCOV_INTER_ENERGY_QM>  (270) 
0

>  <FF_Energy>  (270) 
32.13

>  <QM_Energy>  (270) 
70.51

>  <source>  (270) 
ACEM_nNMA_16

>  <Index>  (270) 
5311

$$$$
ACEM-pdb2v6b-D-ASN-116:NMA-pdb2v6b-D-GLY-99
     RDKit          3D

 21 19  0  0  0  0  0  0  0  0999 V2000
   -4.9104    2.4468    0.9727 C   0  0  0  0  0  0  0  0  0  0  0  0
   -5.8085    2.4780    0.5482 H   0  0  0  0  0  0  0  0  0  0  0  0
   -4.4861    3.3465    0.9572 H   0  0  0  0  0  0  0  0  0  0  0  0
   -5.0312    2.1413    2.0120 H   0  0  0  0  0  0  0  0  0  0  0  0
   -4.0369    1.4843    0.1910 C   0  0  0  0  0  0  0  0  0  0  0  0
   -3.3669    0.5817    0.8966 N   0  0  0  0  0  0  0  0  0  0  0  0
   -3.4607    0.5607    1.8948 H   0  0  0  0  0  0  0  0  0  0  0  0
   -2.7711   -0.0752    0.4384 H   0  0  0  0  0  0  0  0  0  0  0  0
   -3.9682    1.5526   -1.0443 O   0  0  0  0  0  0  0  0  0  0  0  0
   -1.0938   -2.1601    0.0884 C   0  0  0  0  0  0  0  0  0  0  0  0
   -0.2324   -2.4434    0.5206 H   0  0  0  0  0  0  0  0  0  0  0  0
   -1.1430   -2.5958   -0.9096 H   0  0  0  0  0  0  0  0  0  0  0  0
   -1.9281   -2.5101    0.6962 H   0  0  0  0  0  0  0  0  0  0  0  0
   -1.1219   -0.7083    0.0000 N   0  0  0  0  0  0  0  0  0  0  0  0
   -1.9931   -0.1525   -0.0659 H   0  0  0  0  0  0  0  0  0  0  0  0
    0.0000    0.0000    0.0000 C   0  0  0  0  0  0  0  0  0  0  0  0
    1.1219   -0.5100   -0.0000 O   0  0  0  0  0  0  0  0  0  0  0  0
   -0.1553    1.4990    0.0051 C   0  0  0  0  0  0  0  0  0  0  0  0
   -0.9045    1.7579    0.6183 H   0  0  0  0  0  0  0  0  0  0  0  0
   -0.3649    1.8197   -0.9207 H   0  0  0  0  0  0  0  0  0  0  0  0
    0.7742    1.9522    0.3494 H   0  0  0  0  0  0  0  0  0  0  0  0
  1  5  1  0
  5  6  1  0
  5  9  2  0
  1  2  1  0
  1  3  1  0
  1  4  1  0
  6  7  1  0
  6  8  1  0
 10 14  1  0
 14 16  1  0
 16 17  2  0
 16 18  1  0
 10 11  1  0
 10 12  1  0
 10 13  1  0
 14 15  1  0
 18 19  1  0
 18 20  1  0
 18 21  1  0
M  END
>  <PDB_ID>  (271) 
pdb2v6b

>  <RESIDUE_NAME>  (271) 
ASN   GLY

>  <FRAG_NAME>  (271) 
ACEM   NMA

>  <FRAG_ATOM_NUM>  (271) 
fragi: 9  fragj: 12

>  <atom.prop.CHAIN_ID>  (271) 
A A A A A A A A A Z Z Z Z Z Z Z Z Z Z Z Z

>  <atom.prop.IS_HEAVY_ATOM>  (271) 
1 0 0 0 1 1 0 0 1 1 0 0 0 1 0 1 1 1 0 0 0

>  <DIFUSE_FUNC_ATOM>  (271) 
n/a

>  <FINAL_SINGLE_POINT_ENERGY>  (271) 
0

>  <NONCOV_INTER_ENERGY_QM>  (271) 
0

>  <FF_Energy>  (271) 
9.38

>  <QM_Energy>  (271) 
32.67

>  <source>  (271) 
ACEM_nNMA_16

>  <Index>  (271) 
5605

$$$$
ACEM-pdb2v4m-D-GLN-663:NMA-pdb2v4m-D-HID-657
     RDKit          3D

 21 19  0  0  0  0  0  0  0  0999 V2000
   -5.0375    0.0412    0.9131 C   0  0  0  0  0  0  0  0  0  0  0  0
   -4.5572   -0.6080    0.3078 H   0  0  0  0  0  0  0  0  0  0  0  0
   -5.4124    0.7828    0.3411 H   0  0  0  0  0  0  0  0  0  0  0  0
   -5.8572   -0.4750    1.4128 H   0  0  0  0  0  0  0  0  0  0  0  0
   -4.0155    0.6462    1.8570 C   0  0  0  0  0  0  0  0  0  0  0  0
   -2.7412    0.3281    1.6685 N   0  0  0  0  0  0  0  0  0  0  0  0
   -2.0106    0.7063    2.2515 H   0  0  0  0  0  0  0  0  0  0  0  0
   -2.5078   -0.3189    0.9089 H   0  0  0  0  0  0  0  0  0  0  0  0
   -4.3799    1.3950    2.7436 O   0  0  0  0  0  0  0  0  0  0  0  0
   -1.1405   -2.1474   -0.2618 C   0  0  0  0  0  0  0  0  0  0  0  0
   -0.2437   -2.4189   -0.5954 H   0  0  0  0  0  0  0  0  0  0  0  0
   -1.8634   -2.3295   -1.0571 H   0  0  0  0  0  0  0  0  0  0  0  0
   -1.4273   -2.6882    0.6402 H   0  0  0  0  0  0  0  0  0  0  0  0
   -1.1196   -0.7148    0.0000 N   0  0  0  0  0  0  0  0  0  0  0  0
   -1.9835   -0.1604    0.2036 H   0  0  0  0  0  0  0  0  0  0  0  0
    0.0000    0.0000    0.0000 C   0  0  0  0  0  0  0  0  0  0  0  0
    1.1196   -0.5033   -0.0000 O   0  0  0  0  0  0  0  0  0  0  0  0
   -0.1640    1.5071   -0.0029 C   0  0  0  0  0  0  0  0  0  0  0  0
   -1.1333    1.7219    0.1808 H   0  0  0  0  0  0  0  0  0  0  0  0
    0.4453    1.9725    0.7719 H   0  0  0  0  0  0  0  0  0  0  0  0
    0.1502    1.8753   -0.9795 H   0  0  0  0  0  0  0  0  0  0  0  0
  1  5  1  0
  5  6  1  0
  5  9  2  0
  1  2  1  0
  1  3  1  0
  1  4  1  0
  6  7  1  0
  6  8  1  0
 10 14  1  0
 14 16  1  0
 16 17  2  0
 16 18  1  0
 10 11  1  0
 10 12  1  0
 10 13  1  0
 14 15  1  0
 18 19  1  0
 18 20  1  0
 18 21  1  0
M  END
>  <PDB_ID>  (272) 
pdb2v4m

>  <RESIDUE_NAME>  (272) 
GLN   HID

>  <FRAG_NAME>  (272) 
ACEM   NMA

>  <FRAG_ATOM_NUM>  (272) 
fragi: 9  fragj: 12

>  <atom.prop.CHAIN_ID>  (272) 
A A A A A A A A A Z Z Z Z Z Z Z Z Z Z Z Z

>  <atom.prop.IS_HEAVY_ATOM>  (272) 
1 0 0 0 1 1 0 0 1 1 0 0 0 1 0 1 1 1 0 0 0

>  <DIFUSE_FUNC_ATOM>  (272) 
n/a

>  <FINAL_SINGLE_POINT_ENERGY>  (272) 
0

>  <NONCOV_INTER_ENERGY_QM>  (272) 
0

>  <FF_Energy>  (272) 
22.14

>  <QM_Energy>  (272) 
44.51

>  <source>  (272) 
ACEM_nNMA_16

>  <Index>  (272) 
6142

$$$$
ACEM-pdb1oqs-E-GLN-4:NMA-pdb1oqs-E-THR-72
     RDKit          3D

 21 19  0  0  0  0  0  0  0  0999 V2000
   -4.6055    1.2272   -3.2402 C   0  0  0  0  0  0  0  0  0  0  0  0
   -4.5701    0.9767   -4.2194 H   0  0  0  0  0  0  0  0  0  0  0  0
   -4.4781    2.2277   -3.1739 H   0  0  0  0  0  0  0  0  0  0  0  0
   -5.5980    0.9835   -2.8613 H   0  0  0  0  0  0  0  0  0  0  0  0
   -3.4939    0.5476   -2.5265 C   0  0  0  0  0  0  0  0  0  0  0  0
   -3.3095    0.9016   -1.2705 N   0  0  0  0  0  0  0  0  0  0  0  0
   -2.5696    0.4704   -0.6951 H   0  0  0  0  0  0  0  0  0  0  0  0
   -3.9099    1.6161   -0.8585 H   0  0  0  0  0  0  0  0  0  0  0  0
   -2.8229   -0.3089   -3.0744 O   0  0  0  0  0  0  0  0  0  0  0  0
   -1.0381   -2.1898    0.1870 C   0  0  0  0  0  0  0  0  0  0  0  0
   -0.1364   -2.4023    0.6222 H   0  0  0  0  0  0  0  0  0  0  0  0
   -1.1223   -2.7931   -0.7169 H   0  0  0  0  0  0  0  0  0  0  0  0
   -1.8440   -2.4733    0.8641 H   0  0  0  0  0  0  0  0  0  0  0  0
   -1.1056   -0.7162   -0.0000 N   0  0  0  0  0  0  0  0  0  0  0  0
   -1.9837   -0.2072   -0.1332 H   0  0  0  0  0  0  0  0  0  0  0  0
    0.0000    0.0000    0.0000 C   0  0  0  0  0  0  0  0  0  0  0  0
    1.1056   -0.4999    0.0000 O   0  0  0  0  0  0  0  0  0  0  0  0
   -0.1509    1.4829    0.0110 C   0  0  0  0  0  0  0  0  0  0  0  0
   -1.0893    1.7175   -0.2647 H   0  0  0  0  0  0  0  0  0  0  0  0
    0.0181    1.8511    1.0230 H   0  0  0  0  0  0  0  0  0  0  0  0
    0.4943    1.9624   -0.7250 H   0  0  0  0  0  0  0  0  0  0  0  0
  1  5  1  0
  5  6  1  0
  5  9  2  0
  1  2  1  0
  1  3  1  0
  1  4  1  0
  6  7  1  0
  6  8  1  0
 10 14  1  0
 14 16  1  0
 16 17  2  0
 16 18  1  0
 10 11  1  0
 10 12  1  0
 10 13  1  0
 14 15  1  0
 18 19  1  0
 18 20  1  0
 18 21  1  0
M  END
>  <PDB_ID>  (273) 
pdb1oqs

>  <RESIDUE_NAME>  (273) 
GLN   THR

>  <FRAG_NAME>  (273) 
ACEM   NMA

>  <FRAG_ATOM_NUM>  (273) 
fragi: 9  fragj: 12

>  <atom.prop.CHAIN_ID>  (273) 
A A A A A A A A A Z Z Z Z Z Z Z Z Z Z Z Z

>  <atom.prop.IS_HEAVY_ATOM>  (273) 
1 0 0 0 1 1 0 0 1 1 0 0 0 1 0 1 1 1 0 0 0

>  <DIFUSE_FUNC_ATOM>  (273) 
n/a

>  <FINAL_SINGLE_POINT_ENERGY>  (273) 
0

>  <NONCOV_INTER_ENERGY_QM>  (273) 
0

>  <FF_Energy>  (273) 
10.52

>  <QM_Energy>  (273) 
21.08

>  <source>  (273) 
ACEM_nNMA_16

>  <Index>  (273) 
7337

$$$$
ACEM-pdb1oqe-D-GLN-7:NMA-pdb1oqe-F-GLY-108
     RDKit          3D

 21 19  0  0  0  0  0  0  0  0999 V2000
   -5.9513    0.2042    0.5734 C   0  0  0  0  0  0  0  0  0  0  0  0
   -6.2806    1.0009    0.0681 H   0  0  0  0  0  0  0  0  0  0  0  0
   -5.7361    0.4674    1.5129 H   0  0  0  0  0  0  0  0  0  0  0  0
   -6.7310   -0.5573    0.5859 H   0  0  0  0  0  0  0  0  0  0  0  0
   -4.6748   -0.2881   -0.0901 C   0  0  0  0  0  0  0  0  0  0  0  0
   -3.6386   -0.5124    0.7111 N   0  0  0  0  0  0  0  0  0  0  0  0
   -2.7583   -0.8558    0.3412 H   0  0  0  0  0  0  0  0  0  0  0  0
   -3.7433   -0.3334    1.7092 H   0  0  0  0  0  0  0  0  0  0  0  0
   -4.6261   -0.4753   -1.3038 O   0  0  0  0  0  0  0  0  0  0  0  0
   -1.0785   -2.1764    0.0120 C   0  0  0  0  0  0  0  0  0  0  0  0
   -0.1093   -2.4317    0.0620 H   0  0  0  0  0  0  0  0  0  0  0  0
   -1.4606   -2.5732   -0.9285 H   0  0  0  0  0  0  0  0  0  0  0  0
   -1.6712   -2.5813    0.8323 H   0  0  0  0  0  0  0  0  0  0  0  0
   -1.1171   -0.7197    0.0000 N   0  0  0  0  0  0  0  0  0  0  0  0
   -1.9939   -0.1677   -0.0089 H   0  0  0  0  0  0  0  0  0  0  0  0
    0.0000    0.0000    0.0000 C   0  0  0  0  0  0  0  0  0  0  0  0
    1.1171   -0.5145   -0.0000 O   0  0  0  0  0  0  0  0  0  0  0  0
   -0.1498    1.5095   -0.0104 C   0  0  0  0  0  0  0  0  0  0  0  0
   -0.6448    1.8015    0.8171 H   0  0  0  0  0  0  0  0  0  0  0  0
   -0.6920    1.7858   -0.8136 H   0  0  0  0  0  0  0  0  0  0  0  0
    0.8245    1.9970   -0.0437 H   0  0  0  0  0  0  0  0  0  0  0  0
  1  5  1  0
  5  6  1  0
  5  9  2  0
  1  2  1  0
  1  3  1  0
  1  4  1  0
  6  7  1  0
  6  8  1  0
 10 14  1  0
 14 16  1  0
 16 17  2  0
 16 18  1  0
 10 11  1  0
 10 12  1  0
 10 13  1  0
 14 15  1  0
 18 19  1  0
 18 20  1  0
 18 21  1  0
M  END
>  <PDB_ID>  (274) 
pdb1oqe

>  <RESIDUE_NAME>  (274) 
GLN   GLY

>  <FRAG_NAME>  (274) 
ACEM   NMA

>  <FRAG_ATOM_NUM>  (274) 
fragi: 9  fragj: 12

>  <atom.prop.CHAIN_ID>  (274) 
A A A A A A A A A Z Z Z Z Z Z Z Z Z Z Z Z

>  <atom.prop.IS_HEAVY_ATOM>  (274) 
1 0 0 0 1 1 0 0 1 1 0 0 0 1 0 1 1 1 0 0 0

>  <DIFUSE_FUNC_ATOM>  (274) 
n/a

>  <FINAL_SINGLE_POINT_ENERGY>  (274) 
0

>  <NONCOV_INTER_ENERGY_QM>  (274) 
0

>  <FF_Energy>  (274) 
10.38

>  <QM_Energy>  (274) 
25.9

>  <source>  (274) 
ACEM_nNMA_16

>  <Index>  (274) 
8955

$$$$
ACEM-pdb1ocr-S-GLN-80:NMA-pdb1ocr-S-LEU-74
     RDKit          3D

 21 19  0  0  0  0  0  0  0  0999 V2000
   -5.4433    1.4710   -0.5165 C   0  0  0  0  0  0  0  0  0  0  0  0
   -6.2706    1.3605    0.0439 H   0  0  0  0  0  0  0  0  0  0  0  0
   -5.5743    0.9798   -1.3838 H   0  0  0  0  0  0  0  0  0  0  0  0
   -5.3178    2.5310   -0.7376 H   0  0  0  0  0  0  0  0  0  0  0  0
   -4.2780    0.8658    0.2142 C   0  0  0  0  0  0  0  0  0  0  0  0
   -3.7534   -0.2410   -0.3093 N   0  0  0  0  0  0  0  0  0  0  0  0
   -2.9550   -0.6992    0.1217 H   0  0  0  0  0  0  0  0  0  0  0  0
   -4.1705   -0.6258   -1.1567 H   0  0  0  0  0  0  0  0  0  0  0  0
   -3.8345    1.3940    1.2337 O   0  0  0  0  0  0  0  0  0  0  0  0
   -1.0645   -2.1590   -0.0068 C   0  0  0  0  0  0  0  0  0  0  0  0
   -0.0965   -2.4368    0.1739 H   0  0  0  0  0  0  0  0  0  0  0  0
   -1.3855   -2.6130   -0.9442 H   0  0  0  0  0  0  0  0  0  0  0  0
   -1.6903   -2.5793    0.7804 H   0  0  0  0  0  0  0  0  0  0  0  0
   -1.1218   -0.7100    0.0000 N   0  0  0  0  0  0  0  0  0  0  0  0
   -1.9932   -0.1630    0.0052 H   0  0  0  0  0  0  0  0  0  0  0  0
    0.0000    0.0000    0.0000 C   0  0  0  0  0  0  0  0  0  0  0  0
    1.1218   -0.5225   -0.0000 O   0  0  0  0  0  0  0  0  0  0  0  0
   -0.1394    1.5034   -0.0066 C   0  0  0  0  0  0  0  0  0  0  0  0
   -1.0648    1.7394    0.2102 H   0  0  0  0  0  0  0  0  0  0  0  0
    0.5069    1.8196    0.8121 H   0  0  0  0  0  0  0  0  0  0  0  0
    0.2676    1.8478   -0.9573 H   0  0  0  0  0  0  0  0  0  0  0  0
  1  5  1  0
  5  6  1  0
  5  9  2  0
  1  2  1  0
  1  3  1  0
  1  4  1  0
  6  7  1  0
  6  8  1  0
 10 14  1  0
 14 16  1  0
 16 17  2  0
 16 18  1  0
 10 11  1  0
 10 12  1  0
 10 13  1  0
 14 15  1  0
 18 19  1  0
 18 20  1  0
 18 21  1  0
M  END
>  <PDB_ID>  (275) 
pdb1ocr

>  <RESIDUE_NAME>  (275) 
GLN   LEU

>  <FRAG_NAME>  (275) 
ACEM   NMA

>  <FRAG_ATOM_NUM>  (275) 
fragi: 9  fragj: 12

>  <atom.prop.CHAIN_ID>  (275) 
A A A A A A A A A Z Z Z Z Z Z Z Z Z Z Z Z

>  <atom.prop.IS_HEAVY_ATOM>  (275) 
1 0 0 0 1 1 0 0 1 1 0 0 0 1 0 1 1 1 0 0 0

>  <DIFUSE_FUNC_ATOM>  (275) 
n/a

>  <FINAL_SINGLE_POINT_ENERGY>  (275) 
0

>  <NONCOV_INTER_ENERGY_QM>  (275) 
0

>  <FF_Energy>  (275) 
5.0

>  <QM_Energy>  (275) 
21.13

>  <source>  (275) 
ACEM_nNMA_16

>  <Index>  (275) 
8975

$$$$
ACEM-pdb1oqe-I-GLN-7:NMA-pdb1oqe-H-GLY-108
     RDKit          3D

 21 19  0  0  0  0  0  0  0  0999 V2000
   -5.8717    0.3321    0.6134 C   0  0  0  0  0  0  0  0  0  0  0  0
   -6.1584    1.1655    0.1490 H   0  0  0  0  0  0  0  0  0  0  0  0
   -5.6775    0.5231    1.5718 H   0  0  0  0  0  0  0  0  0  0  0  0
   -6.6777   -0.3993    0.5554 H   0  0  0  0  0  0  0  0  0  0  0  0
   -4.5892   -0.1699   -0.0491 C   0  0  0  0  0  0  0  0  0  0  0  0
   -3.5933   -0.5099    0.7637 N   0  0  0  0  0  0  0  0  0  0  0  0
   -2.7190   -0.8636    0.3943 H   0  0  0  0  0  0  0  0  0  0  0  0
   -3.7247   -0.4075    1.7688 H   0  0  0  0  0  0  0  0  0  0  0  0
   -4.5061   -0.2673   -1.2724 O   0  0  0  0  0  0  0  0  0  0  0  0
   -1.0668   -2.1759   -0.0001 C   0  0  0  0  0  0  0  0  0  0  0  0
   -0.0951   -2.4258    0.0564 H   0  0  0  0  0  0  0  0  0  0  0  0
   -1.4370   -2.5714   -0.9459 H   0  0  0  0  0  0  0  0  0  0  0  0
   -1.6600   -2.5897    0.8154 H   0  0  0  0  0  0  0  0  0  0  0  0
   -1.1168   -0.7223   -0.0000 N   0  0  0  0  0  0  0  0  0  0  0  0
   -1.9934   -0.1745    0.0005 H   0  0  0  0  0  0  0  0  0  0  0  0
    0.0000    0.0000    0.0000 C   0  0  0  0  0  0  0  0  0  0  0  0
    1.1168   -0.5092    0.0000 O   0  0  0  0  0  0  0  0  0  0  0  0
   -0.1555    1.5092   -0.0034 C   0  0  0  0  0  0  0  0  0  0  0  0
   -0.6650    1.7937    0.8198 H   0  0  0  0  0  0  0  0  0  0  0  0
   -0.6912    1.7869   -0.8123 H   0  0  0  0  0  0  0  0  0  0  0  0
    0.8156    2.0037   -0.0208 H   0  0  0  0  0  0  0  0  0  0  0  0
  1  5  1  0
  5  6  1  0
  5  9  2  0
  1  2  1  0
  1  3  1  0
  1  4  1  0
  6  7  1  0
  6  8  1  0
 10 14  1  0
 14 16  1  0
 16 17  2  0
 16 18  1  0
 10 11  1  0
 10 12  1  0
 10 13  1  0
 14 15  1  0
 18 19  1  0
 18 20  1  0
 18 21  1  0
M  END
>  <PDB_ID>  (276) 
pdb1oqe

>  <RESIDUE_NAME>  (276) 
GLN   GLY

>  <FRAG_NAME>  (276) 
ACEM   NMA

>  <FRAG_ATOM_NUM>  (276) 
fragi: 9  fragj: 12

>  <atom.prop.CHAIN_ID>  (276) 
A A A A A A A A A Z Z Z Z Z Z Z Z Z Z Z Z

>  <atom.prop.IS_HEAVY_ATOM>  (276) 
1 0 0 0 1 1 0 0 1 1 0 0 0 1 0 1 1 1 0 0 0

>  <DIFUSE_FUNC_ATOM>  (276) 
n/a

>  <FINAL_SINGLE_POINT_ENERGY>  (276) 
0

>  <NONCOV_INTER_ENERGY_QM>  (276) 
0

>  <FF_Energy>  (276) 
11.5

>  <QM_Energy>  (276) 
27.69

>  <source>  (276) 
ACEM_nNMA_16

>  <Index>  (276) 
11438

$$$$
ACEM-pdb1p0k-A-GLN-42:NMA-pdb1p0k-A-LEU-38
     RDKit          3D

 21 19  0  0  0  0  0  0  0  0999 V2000
   -5.2236   -0.9086   -0.4492 C   0  0  0  0  0  0  0  0  0  0  0  0
   -6.0830   -1.3533   -0.2124 H   0  0  0  0  0  0  0  0  0  0  0  0
   -4.4815   -1.5732   -0.4421 H   0  0  0  0  0  0  0  0  0  0  0  0
   -5.3091   -0.4879   -1.4511 H   0  0  0  0  0  0  0  0  0  0  0  0
   -4.9288    0.1583    0.5928 C   0  0  0  0  0  0  0  0  0  0  0  0
   -3.6686    0.2598    1.0027 N   0  0  0  0  0  0  0  0  0  0  0  0
   -3.3967    0.9577    1.6856 H   0  0  0  0  0  0  0  0  0  0  0  0
   -2.9749   -0.3808    0.6170 H   0  0  0  0  0  0  0  0  0  0  0  0
   -5.8269    0.8929    1.0141 O   0  0  0  0  0  0  0  0  0  0  0  0
   -1.0911   -2.1766   -0.0576 C   0  0  0  0  0  0  0  0  0  0  0  0
   -0.1740   -2.4887    0.1523 H   0  0  0  0  0  0  0  0  0  0  0  0
   -1.3333   -2.4605   -1.0816 H   0  0  0  0  0  0  0  0  0  0  0  0
   -1.8188   -2.6039    0.6323 H   0  0  0  0  0  0  0  0  0  0  0  0
   -1.1219   -0.7151   -0.0000 N   0  0  0  0  0  0  0  0  0  0  0  0
   -1.9955   -0.1620    0.0433 H   0  0  0  0  0  0  0  0  0  0  0  0
    0.0000    0.0000    0.0000 C   0  0  0  0  0  0  0  0  0  0  0  0
    1.1219   -0.5123   -0.0000 O   0  0  0  0  0  0  0  0  0  0  0  0
   -0.1677    1.5072    0.0174 C   0  0  0  0  0  0  0  0  0  0  0  0
   -1.0815    1.7220    0.3834 H   0  0  0  0  0  0  0  0  0  0  0  0
    0.5840    1.9705    0.6564 H   0  0  0  0  0  0  0  0  0  0  0  0
   -0.0588    1.8998   -0.9935 H   0  0  0  0  0  0  0  0  0  0  0  0
  1  5  1  0
  5  6  1  0
  5  9  2  0
  1  2  1  0
  1  3  1  0
  1  4  1  0
  6  7  1  0
  6  8  1  0
 10 14  1  0
 14 16  1  0
 16 17  2  0
 16 18  1  0
 10 11  1  0
 10 12  1  0
 10 13  1  0
 14 15  1  0
 18 19  1  0
 18 20  1  0
 18 21  1  0
M  END
>  <PDB_ID>  (277) 
pdb1p0k

>  <RESIDUE_NAME>  (277) 
GLN   LEU

>  <FRAG_NAME>  (277) 
ACEM   NMA

>  <FRAG_ATOM_NUM>  (277) 
fragi: 9  fragj: 12

>  <atom.prop.CHAIN_ID>  (277) 
A A A A A A A A A Z Z Z Z Z Z Z Z Z Z Z Z

>  <atom.prop.IS_HEAVY_ATOM>  (277) 
1 0 0 0 1 1 0 0 1 1 0 0 0 1 0 1 1 1 0 0 0

>  <DIFUSE_FUNC_ATOM>  (277) 
n/a

>  <FINAL_SINGLE_POINT_ENERGY>  (277) 
0

>  <NONCOV_INTER_ENERGY_QM>  (277) 
0

>  <FF_Energy>  (277) 
5.09

>  <QM_Energy>  (277) 
15.44

>  <source>  (277) 
ACEM_nNMA_16

>  <Index>  (277) 
12079

$$$$
ACEM-pdb1oqe-G-GLN-7:NMA-pdb1oqe-I-GLY-108
     RDKit          3D

 21 19  0  0  0  0  0  0  0  0999 V2000
   -5.8636    0.2754    0.6152 C   0  0  0  0  0  0  0  0  0  0  0  0
   -6.1377    1.1160    0.1555 H   0  0  0  0  0  0  0  0  0  0  0  0
   -5.6658    0.4593    1.5739 H   0  0  0  0  0  0  0  0  0  0  0  0
   -6.6815   -0.4427    0.5549 H   0  0  0  0  0  0  0  0  0  0  0  0
   -4.5903   -0.2441   -0.0499 C   0  0  0  0  0  0  0  0  0  0  0  0
   -3.5995   -0.5781    0.7580 N   0  0  0  0  0  0  0  0  0  0  0  0
   -2.7254   -0.9446    0.3891 H   0  0  0  0  0  0  0  0  0  0  0  0
   -3.7205   -0.4629    1.7635 H   0  0  0  0  0  0  0  0  0  0  0  0
   -4.5119   -0.3583   -1.2693 O   0  0  0  0  0  0  0  0  0  0  0  0
   -1.0720   -2.1762    0.0078 C   0  0  0  0  0  0  0  0  0  0  0  0
   -0.1016   -2.4298    0.0615 H   0  0  0  0  0  0  0  0  0  0  0  0
   -1.4498   -2.5788   -0.9320 H   0  0  0  0  0  0  0  0  0  0  0  0
   -1.6683   -2.5813    0.8253 H   0  0  0  0  0  0  0  0  0  0  0  0
   -1.1141   -0.7182   -0.0000 N   0  0  0  0  0  0  0  0  0  0  0  0
   -1.9921   -0.1702   -0.0063 H   0  0  0  0  0  0  0  0  0  0  0  0
    0.0000    0.0000    0.0000 C   0  0  0  0  0  0  0  0  0  0  0  0
    1.1141   -0.5166    0.0000 O   0  0  0  0  0  0  0  0  0  0  0  0
   -0.1530    1.5096   -0.0110 C   0  0  0  0  0  0  0  0  0  0  0  0
   -0.6510    1.7998    0.8162 H   0  0  0  0  0  0  0  0  0  0  0  0
   -0.6979    1.7834   -0.8145 H   0  0  0  0  0  0  0  0  0  0  0  0
    0.8195    2.0009   -0.0435 H   0  0  0  0  0  0  0  0  0  0  0  0
  1  5  1  0
  5  6  1  0
  5  9  2  0
  1  2  1  0
  1  3  1  0
  1  4  1  0
  6  7  1  0
  6  8  1  0
 10 14  1  0
 14 16  1  0
 16 17  2  0
 16 18  1  0
 10 11  1  0
 10 12  1  0
 10 13  1  0
 14 15  1  0
 18 19  1  0
 18 20  1  0
 18 21  1  0
M  END
>  <PDB_ID>  (278) 
pdb1oqe

>  <RESIDUE_NAME>  (278) 
GLN   GLY

>  <FRAG_NAME>  (278) 
ACEM   NMA

>  <FRAG_ATOM_NUM>  (278) 
fragi: 9  fragj: 12

>  <atom.prop.CHAIN_ID>  (278) 
A A A A A A A A A Z Z Z Z Z Z Z Z Z Z Z Z

>  <atom.prop.IS_HEAVY_ATOM>  (278) 
1 0 0 0 1 1 0 0 1 1 0 0 0 1 0 1 1 1 0 0 0

>  <DIFUSE_FUNC_ATOM>  (278) 
n/a

>  <FINAL_SINGLE_POINT_ENERGY>  (278) 
0

>  <NONCOV_INTER_ENERGY_QM>  (278) 
0

>  <FF_Energy>  (278) 
10.35

>  <QM_Energy>  (278) 
24.64

>  <source>  (278) 
ACEM_nNMA_16

>  <Index>  (278) 
12727

$$$$
ACEM-pdb1oyv-A-GLN-245:NMA-pdb1oyv-A-LEU-241
     RDKit          3D

 21 19  0  0  0  0  0  0  0  0999 V2000
   -5.0142    0.1704   -0.4881 C   0  0  0  0  0  0  0  0  0  0  0  0
   -5.9437    0.5127   -0.6041 H   0  0  0  0  0  0  0  0  0  0  0  0
   -5.0349   -0.8082   -0.2933 H   0  0  0  0  0  0  0  0  0  0  0  0
   -4.4673    0.3280   -1.4177 H   0  0  0  0  0  0  0  0  0  0  0  0
   -4.3740    0.8880    0.6830 C   0  0  0  0  0  0  0  0  0  0  0  0
   -3.1245    0.5488    0.9672 N   0  0  0  0  0  0  0  0  0  0  0  0
   -2.6218    0.9973    1.7327 H   0  0  0  0  0  0  0  0  0  0  0  0
   -2.6694   -0.1714    0.4092 H   0  0  0  0  0  0  0  0  0  0  0  0
   -4.9962    1.7355    1.3285 O   0  0  0  0  0  0  0  0  0  0  0  0
   -1.0991   -2.1745   -0.0544 C   0  0  0  0  0  0  0  0  0  0  0  0
   -0.2397   -2.4937    0.3429 H   0  0  0  0  0  0  0  0  0  0  0  0
   -1.1228   -2.4992   -1.0946 H   0  0  0  0  0  0  0  0  0  0  0  0
   -1.9709   -2.5817    0.4577 H   0  0  0  0  0  0  0  0  0  0  0  0
   -1.1164   -0.7123    0.0000 N   0  0  0  0  0  0  0  0  0  0  0  0
   -1.9932   -0.1554    0.0417 H   0  0  0  0  0  0  0  0  0  0  0  0
    0.0000    0.0000    0.0000 C   0  0  0  0  0  0  0  0  0  0  0  0
    1.1164   -0.5065   -0.0000 O   0  0  0  0  0  0  0  0  0  0  0  0
   -0.1601    1.5030    0.0361 C   0  0  0  0  0  0  0  0  0  0  0  0
   -0.9596    1.7291    0.5948 H   0  0  0  0  0  0  0  0  0  0  0  0
    0.7207    1.9514    0.4955 H   0  0  0  0  0  0  0  0  0  0  0  0
   -0.3116    1.8895   -0.9718 H   0  0  0  0  0  0  0  0  0  0  0  0
  1  5  1  0
  5  6  1  0
  5  9  2  0
  1  2  1  0
  1  3  1  0
  1  4  1  0
  6  7  1  0
  6  8  1  0
 10 14  1  0
 14 16  1  0
 16 17  2  0
 16 18  1  0
 10 11  1  0
 10 12  1  0
 10 13  1  0
 14 15  1  0
 18 19  1  0
 18 20  1  0
 18 21  1  0
M  END
>  <PDB_ID>  (279) 
pdb1oyv

>  <RESIDUE_NAME>  (279) 
GLN   LEU

>  <FRAG_NAME>  (279) 
ACEM   NMA

>  <FRAG_ATOM_NUM>  (279) 
fragi: 9  fragj: 12

>  <atom.prop.CHAIN_ID>  (279) 
A A A A A A A A A Z Z Z Z Z Z Z Z Z Z Z Z

>  <atom.prop.IS_HEAVY_ATOM>  (279) 
1 0 0 0 1 1 0 0 1 1 0 0 0 1 0 1 1 1 0 0 0

>  <DIFUSE_FUNC_ATOM>  (279) 
n/a

>  <FINAL_SINGLE_POINT_ENERGY>  (279) 
0

>  <NONCOV_INTER_ENERGY_QM>  (279) 
0

>  <FF_Energy>  (279) 
26.53

>  <QM_Energy>  (279) 
62.89

>  <source>  (279) 
ACEM_nNMA_16

>  <Index>  (279) 
12829

$$$$
ACEM-pdb1p30-A-GLN-640:NMA-pdb1p30-A-LEU-571
     RDKit          3D

 21 19  0  0  0  0  0  0  0  0999 V2000
   -6.1875    0.7795    0.3610 C   0  0  0  0  0  0  0  0  0  0  0  0
   -6.2484    0.6983    1.3566 H   0  0  0  0  0  0  0  0  0  0  0  0
   -6.9667    0.3137   -0.0587 H   0  0  0  0  0  0  0  0  0  0  0  0
   -6.2225    1.8351    0.0917 H   0  0  0  0  0  0  0  0  0  0  0  0
   -4.9110    0.0945   -0.0997 C   0  0  0  0  0  0  0  0  0  0  0  0
   -3.7862    0.5401    0.4380 N   0  0  0  0  0  0  0  0  0  0  0  0
   -2.8884    0.1217    0.1895 H   0  0  0  0  0  0  0  0  0  0  0  0
   -3.8250    1.3082    1.1033 H   0  0  0  0  0  0  0  0  0  0  0  0
   -4.9345   -0.8216   -0.9285 O   0  0  0  0  0  0  0  0  0  0  0  0
   -1.0872   -2.1759   -0.0909 C   0  0  0  0  0  0  0  0  0  0  0  0
   -0.1951   -2.4905    0.1508 H   0  0  0  0  0  0  0  0  0  0  0  0
   -1.2453   -2.3665   -1.1524 H   0  0  0  0  0  0  0  0  0  0  0  0
   -1.8900   -2.6256    0.4935 H   0  0  0  0  0  0  0  0  0  0  0  0
   -1.1216   -0.7160    0.0000 N   0  0  0  0  0  0  0  0  0  0  0  0
   -1.9948   -0.1671    0.0677 H   0  0  0  0  0  0  0  0  0  0  0  0
    0.0000    0.0000    0.0000 C   0  0  0  0  0  0  0  0  0  0  0  0
    1.1216   -0.5088   -0.0000 O   0  0  0  0  0  0  0  0  0  0  0  0
   -0.1615    1.5138    0.0246 C   0  0  0  0  0  0  0  0  0  0  0  0
   -1.1005    1.7277    0.3432 H   0  0  0  0  0  0  0  0  0  0  0  0
    0.5502    2.0008    0.6913 H   0  0  0  0  0  0  0  0  0  0  0  0
   -0.0404    1.9029   -0.9864 H   0  0  0  0  0  0  0  0  0  0  0  0
  1  5  1  0
  5  6  1  0
  5  9  2  0
  1  2  1  0
  1  3  1  0
  1  4  1  0
  6  7  1  0
  6  8  1  0
 10 14  1  0
 14 16  1  0
 16 17  2  0
 16 18  1  0
 10 11  1  0
 10 12  1  0
 10 13  1  0
 14 15  1  0
 18 19  1  0
 18 20  1  0
 18 21  1  0
M  END
>  <PDB_ID>  (280) 
pdb1p30

>  <RESIDUE_NAME>  (280) 
GLN   LEU

>  <FRAG_NAME>  (280) 
ACEM   NMA

>  <FRAG_ATOM_NUM>  (280) 
fragi: 9  fragj: 12

>  <atom.prop.CHAIN_ID>  (280) 
A A A A A A A A A Z Z Z Z Z Z Z Z Z Z Z Z

>  <atom.prop.IS_HEAVY_ATOM>  (280) 
1 0 0 0 1 1 0 0 1 1 0 0 0 1 0 1 1 1 0 0 0

>  <DIFUSE_FUNC_ATOM>  (280) 
n/a

>  <FINAL_SINGLE_POINT_ENERGY>  (280) 
0

>  <NONCOV_INTER_ENERGY_QM>  (280) 
0

>  <FF_Energy>  (280) 
11.65

>  <QM_Energy>  (280) 
27.88

>  <source>  (280) 
ACEM_nNMA_16

>  <Index>  (280) 
16779

$$$$
ACEM-pdb1p9e-A-GLN-139:NMA-pdb1p9e-A-TYR-135
     RDKit          3D

 21 19  0  0  0  0  0  0  0  0999 V2000
   -5.4611   -0.9112    0.4947 C   0  0  0  0  0  0  0  0  0  0  0  0
   -6.3817   -1.0920    0.8497 H   0  0  0  0  0  0  0  0  0  0  0  0
   -4.9257   -1.7577    0.5262 H   0  0  0  0  0  0  0  0  0  0  0  0
   -5.5397   -0.5801   -0.5409 H   0  0  0  0  0  0  0  0  0  0  0  0
   -4.7994    0.1096    1.3750 C   0  0  0  0  0  0  0  0  0  0  0  0
   -3.5164    0.3425    1.1366 N   0  0  0  0  0  0  0  0  0  0  0  0
   -2.9961    1.0350    1.6839 H   0  0  0  0  0  0  0  0  0  0  0  0
   -3.0480   -0.1775    0.3979 H   0  0  0  0  0  0  0  0  0  0  0  0
   -5.4283    0.6846    2.2716 O   0  0  0  0  0  0  0  0  0  0  0  0
   -1.1396   -2.1699   -0.0003 C   0  0  0  0  0  0  0  0  0  0  0  0
   -0.2026   -2.4940    0.0635 H   0  0  0  0  0  0  0  0  0  0  0  0
   -1.5391   -2.5015   -0.9587 H   0  0  0  0  0  0  0  0  0  0  0  0
   -1.7898   -2.5236    0.7999 H   0  0  0  0  0  0  0  0  0  0  0  0
   -1.1221   -0.7097    0.0000 N   0  0  0  0  0  0  0  0  0  0  0  0
   -1.9967   -0.1318    0.0002 H   0  0  0  0  0  0  0  0  0  0  0  0
    0.0000    0.0000    0.0000 C   0  0  0  0  0  0  0  0  0  0  0  0
    1.1221   -0.5011   -0.0000 O   0  0  0  0  0  0  0  0  0  0  0  0
   -0.1883    1.5018   -0.0194 C   0  0  0  0  0  0  0  0  0  0  0  0
   -0.9285    1.7376    0.6338 H   0  0  0  0  0  0  0  0  0  0  0  0
    0.7103    2.0409    0.2807 H   0  0  0  0  0  0  0  0  0  0  0  0
   -0.4915    1.8124   -1.0193 H   0  0  0  0  0  0  0  0  0  0  0  0
  1  5  1  0
  5  6  1  0
  5  9  2  0
  1  2  1  0
  1  3  1  0
  1  4  1  0
  6  7  1  0
  6  8  1  0
 10 14  1  0
 14 16  1  0
 16 17  2  0
 16 18  1  0
 10 11  1  0
 10 12  1  0
 10 13  1  0
 14 15  1  0
 18 19  1  0
 18 20  1  0
 18 21  1  0
M  END
>  <PDB_ID>  (281) 
pdb1p9e

>  <RESIDUE_NAME>  (281) 
GLN   TYR

>  <FRAG_NAME>  (281) 
ACEM   NMA

>  <FRAG_ATOM_NUM>  (281) 
fragi: 9  fragj: 12

>  <atom.prop.CHAIN_ID>  (281) 
A A A A A A A A A Z Z Z Z Z Z Z Z Z Z Z Z

>  <atom.prop.IS_HEAVY_ATOM>  (281) 
1 0 0 0 1 1 0 0 1 1 0 0 0 1 0 1 1 1 0 0 0

>  <DIFUSE_FUNC_ATOM>  (281) 
n/a

>  <FINAL_SINGLE_POINT_ENERGY>  (281) 
0

>  <NONCOV_INTER_ENERGY_QM>  (281) 
0

>  <FF_Energy>  (281) 
8.08

>  <QM_Energy>  (281) 
19.11

>  <source>  (281) 
ACEM_nNMA_16

>  <Index>  (281) 
17982

$$$$
ACEM-pdb1pa2-A-ASN-135:NMA-pdb1pa2-A-ALA-67
     RDKit          3D

 21 19  0  0  0  0  0  0  0  0999 V2000
   -5.3694    1.2714   -1.9870 C   0  0  0  0  0  0  0  0  0  0  0  0
   -5.6741    2.2128   -2.0149 H   0  0  0  0  0  0  0  0  0  0  0  0
   -6.1204    0.6582   -1.7852 H   0  0  0  0  0  0  0  0  0  0  0  0
   -4.9749    1.0126   -2.9697 H   0  0  0  0  0  0  0  0  0  0  0  0
   -4.3127    1.1264   -0.9138 C   0  0  0  0  0  0  0  0  0  0  0  0
   -3.3055    0.2985   -1.1714 N   0  0  0  0  0  0  0  0  0  0  0  0
   -3.2768   -0.1857   -2.0494 H   0  0  0  0  0  0  0  0  0  0  0  0
   -2.5833    0.1591   -0.4992 H   0  0  0  0  0  0  0  0  0  0  0  0
   -4.3379    1.7356    0.1687 O   0  0  0  0  0  0  0  0  0  0  0  0
   -1.1048   -2.1414    0.0644 C   0  0  0  0  0  0  0  0  0  0  0  0
   -0.9250   -2.4330    1.0446 H   0  0  0  0  0  0  0  0  0  0  0  0
   -2.0648   -2.4886   -0.1222 H   0  0  0  0  0  0  0  0  0  0  0  0
   -0.4087   -2.6651   -0.5907 H   0  0  0  0  0  0  0  0  0  0  0  0
   -1.1084   -0.7078    0.0000 N   0  0  0  0  0  0  0  0  0  0  0  0
   -1.9861   -0.1349   -0.0507 H   0  0  0  0  0  0  0  0  0  0  0  0
    0.0000    0.0000    0.0000 C   0  0  0  0  0  0  0  0  0  0  0  0
    1.1084   -0.5299   -0.0000 O   0  0  0  0  0  0  0  0  0  0  0  0
   -0.1087    1.5274   -0.0080 C   0  0  0  0  0  0  0  0  0  0  0  0
   -0.9460    1.7844    0.4801 H   0  0  0  0  0  0  0  0  0  0  0  0
    0.7551    1.9546    0.5013 H   0  0  0  0  0  0  0  0  0  0  0  0
   -0.1843    1.8855   -1.0347 H   0  0  0  0  0  0  0  0  0  0  0  0
  1  5  1  0
  5  6  1  0
  5  9  2  0
  1  2  1  0
  1  3  1  0
  1  4  1  0
  6  7  1  0
  6  8  1  0
 10 14  1  0
 14 16  1  0
 16 17  2  0
 16 18  1  0
 10 11  1  0
 10 12  1  0
 10 13  1  0
 14 15  1  0
 18 19  1  0
 18 20  1  0
 18 21  1  0
M  END
>  <PDB_ID>  (282) 
pdb1pa2

>  <RESIDUE_NAME>  (282) 
ASN   ALA

>  <FRAG_NAME>  (282) 
ACEM   NMA

>  <FRAG_ATOM_NUM>  (282) 
fragi: 9  fragj: 12

>  <atom.prop.CHAIN_ID>  (282) 
A A A A A A A A A Z Z Z Z Z Z Z Z Z Z Z Z

>  <atom.prop.IS_HEAVY_ATOM>  (282) 
1 0 0 0 1 1 0 0 1 1 0 0 0 1 0 1 1 1 0 0 0

>  <DIFUSE_FUNC_ATOM>  (282) 
n/a

>  <FINAL_SINGLE_POINT_ENERGY>  (282) 
0

>  <NONCOV_INTER_ENERGY_QM>  (282) 
0

>  <FF_Energy>  (282) 
15.99

>  <QM_Energy>  (282) 
50.05

>  <source>  (282) 
ACEM_nNMA_16

>  <Index>  (282) 
18604

$$$$
ACEM-pdb2vut-A-GLN-227:NMA-pdb2vut-A-LEU-223
     RDKit          3D

 21 19  0  0  0  0  0  0  0  0999 V2000
   -4.9057    0.1713   -0.5177 C   0  0  0  0  0  0  0  0  0  0  0  0
   -5.8446    0.4721   -0.6815 H   0  0  0  0  0  0  0  0  0  0  0  0
   -4.8904   -0.8175   -0.3759 H   0  0  0  0  0  0  0  0  0  0  0  0
   -4.2990    0.4136   -1.3903 H   0  0  0  0  0  0  0  0  0  0  0  0
   -4.3976    0.8461    0.7375 C   0  0  0  0  0  0  0  0  0  0  0  0
   -3.1304    0.6171    1.0653 N   0  0  0  0  0  0  0  0  0  0  0  0
   -2.7151    1.0479    1.8868 H   0  0  0  0  0  0  0  0  0  0  0  0
   -2.5749   -0.0022    0.4747 H   0  0  0  0  0  0  0  0  0  0  0  0
   -5.1366    1.5664    1.4063 O   0  0  0  0  0  0  0  0  0  0  0  0
   -1.0905   -2.1665   -0.0138 C   0  0  0  0  0  0  0  0  0  0  0  0
   -0.2444   -2.4672    0.4112 H   0  0  0  0  0  0  0  0  0  0  0  0
   -1.0747   -2.4784   -1.0581 H   0  0  0  0  0  0  0  0  0  0  0  0
   -1.9820   -2.5736    0.4633 H   0  0  0  0  0  0  0  0  0  0  0  0
   -1.1196   -0.7131    0.0000 N   0  0  0  0  0  0  0  0  0  0  0  0
   -1.9938   -0.1553    0.0101 H   0  0  0  0  0  0  0  0  0  0  0  0
    0.0000    0.0000    0.0000 C   0  0  0  0  0  0  0  0  0  0  0  0
    1.1196   -0.5073    0.0000 O   0  0  0  0  0  0  0  0  0  0  0  0
   -0.1701    1.5075   -0.0023 C   0  0  0  0  0  0  0  0  0  0  0  0
   -0.9717    1.7405    0.5549 H   0  0  0  0  0  0  0  0  0  0  0  0
    0.7071    1.9845    0.4347 H   0  0  0  0  0  0  0  0  0  0  0  0
   -0.3181    1.8454   -1.0280 H   0  0  0  0  0  0  0  0  0  0  0  0
  1  5  1  0
  5  6  1  0
  5  9  2  0
  1  2  1  0
  1  3  1  0
  1  4  1  0
  6  7  1  0
  6  8  1  0
 10 14  1  0
 14 16  1  0
 16 17  2  0
 16 18  1  0
 10 11  1  0
 10 12  1  0
 10 13  1  0
 14 15  1  0
 18 19  1  0
 18 20  1  0
 18 21  1  0
M  END
>  <PDB_ID>  (283) 
pdb2vut

>  <RESIDUE_NAME>  (283) 
GLN   LEU

>  <FRAG_NAME>  (283) 
ACEM   NMA

>  <FRAG_ATOM_NUM>  (283) 
fragi: 9  fragj: 12

>  <atom.prop.CHAIN_ID>  (283) 
A A A A A A A A A Z Z Z Z Z Z Z Z Z Z Z Z

>  <atom.prop.IS_HEAVY_ATOM>  (283) 
1 0 0 0 1 1 0 0 1 1 0 0 0 1 0 1 1 1 0 0 0

>  <DIFUSE_FUNC_ATOM>  (283) 
n/a

>  <FINAL_SINGLE_POINT_ENERGY>  (283) 
0

>  <NONCOV_INTER_ENERGY_QM>  (283) 
0

>  <FF_Energy>  (283) 
23.33

>  <QM_Energy>  (283) 
61.03

>  <source>  (283) 
ACEM_nNMA_16

>  <Index>  (283) 
24644

$$$$
ACEM-pdb1ps9-A-GLN-79:NMA-pdb1ps9-A-LEU-74
     RDKit          3D

 21 19  0  0  0  0  0  0  0  0999 V2000
   -4.7058    1.9525   -2.2317 C   0  0  0  0  0  0  0  0  0  0  0  0
   -5.4126    2.6279   -2.0097 H   0  0  0  0  0  0  0  0  0  0  0  0
   -5.1447    1.1116   -2.5558 H   0  0  0  0  0  0  0  0  0  0  0  0
   -4.0774    2.3507   -3.0283 H   0  0  0  0  0  0  0  0  0  0  0  0
   -3.9300    1.6375   -0.9747 C   0  0  0  0  0  0  0  0  0  0  0  0
   -3.0941    0.6068   -1.0412 N   0  0  0  0  0  0  0  0  0  0  0  0
   -2.5249    0.3414   -0.2378 H   0  0  0  0  0  0  0  0  0  0  0  0
   -3.0280    0.0810   -1.9112 H   0  0  0  0  0  0  0  0  0  0  0  0
   -4.0780    2.3096    0.0484 O   0  0  0  0  0  0  0  0  0  0  0  0
   -1.0947   -2.1699    0.0151 C   0  0  0  0  0  0  0  0  0  0  0  0
   -0.1745   -2.4544   -0.3195 H   0  0  0  0  0  0  0  0  0  0  0  0
   -1.8266   -2.6435   -0.6392 H   0  0  0  0  0  0  0  0  0  0  0  0
   -1.2409   -2.5334    1.0323 H   0  0  0  0  0  0  0  0  0  0  0  0
   -1.1234   -0.7135   -0.0000 N   0  0  0  0  0  0  0  0  0  0  0  0
   -1.9958   -0.1554   -0.0109 H   0  0  0  0  0  0  0  0  0  0  0  0
    0.0000    0.0000    0.0000 C   0  0  0  0  0  0  0  0  0  0  0  0
    1.1234   -0.5079    0.0000 O   0  0  0  0  0  0  0  0  0  0  0  0
   -0.1635    1.5106    0.0077 C   0  0  0  0  0  0  0  0  0  0  0  0
   -1.0454    1.7372   -0.3926 H   0  0  0  0  0  0  0  0  0  0  0  0
   -0.1534    1.8419    1.0461 H   0  0  0  0  0  0  0  0  0  0  0  0
    0.6414    1.9666   -0.5687 H   0  0  0  0  0  0  0  0  0  0  0  0
  1  5  1  0
  5  6  1  0
  5  9  2  0
  1  2  1  0
  1  3  1  0
  1  4  1  0
  6  7  1  0
  6  8  1  0
 10 14  1  0
 14 16  1  0
 16 17  2  0
 16 18  1  0
 10 11  1  0
 10 12  1  0
 10 13  1  0
 14 15  1  0
 18 19  1  0
 18 20  1  0
 18 21  1  0
M  END
>  <PDB_ID>  (284) 
pdb1ps9

>  <RESIDUE_NAME>  (284) 
GLN   LEU

>  <FRAG_NAME>  (284) 
ACEM   NMA

>  <FRAG_ATOM_NUM>  (284) 
fragi: 9  fragj: 12

>  <atom.prop.CHAIN_ID>  (284) 
A A A A A A A A A Z Z Z Z Z Z Z Z Z Z Z Z

>  <atom.prop.IS_HEAVY_ATOM>  (284) 
1 0 0 0 1 1 0 0 1 1 0 0 0 1 0 1 1 1 0 0 0

>  <DIFUSE_FUNC_ATOM>  (284) 
n/a

>  <FINAL_SINGLE_POINT_ENERGY>  (284) 
0

>  <NONCOV_INTER_ENERGY_QM>  (284) 
0

>  <FF_Energy>  (284) 
25.69

>  <QM_Energy>  (284) 
62.35

>  <source>  (284) 
ACEM_nNMA_17

>  <Index>  (284) 
1869

$$$$
ACEM-pdb1pyy-A-ASN-95:NMA-pdb1pyy-A-ASN-156
     RDKit          3D

 21 19  0  0  0  0  0  0  0  0999 V2000
   -4.9068    1.6853    0.2732 C   0  0  0  0  0  0  0  0  0  0  0  0
   -5.8960    1.7188    0.3796 H   0  0  0  0  0  0  0  0  0  0  0  0
   -4.5483    2.5986    0.1015 H   0  0  0  0  0  0  0  0  0  0  0  0
   -4.4724    1.3141    1.2015 H   0  0  0  0  0  0  0  0  0  0  0  0
   -4.5770    0.8038   -0.9165 C   0  0  0  0  0  0  0  0  0  0  0  0
   -3.5178    0.0143   -0.7901 N   0  0  0  0  0  0  0  0  0  0  0  0
   -2.9892    0.0190    0.0611 H   0  0  0  0  0  0  0  0  0  0  0  0
   -3.2458   -0.5868   -1.5417 H   0  0  0  0  0  0  0  0  0  0  0  0
   -5.2592    0.8396   -1.9418 O   0  0  0  0  0  0  0  0  0  0  0  0
   -1.0952   -2.1607   -0.0121 C   0  0  0  0  0  0  0  0  0  0  0  0
   -2.0492   -2.5163    0.0649 H   0  0  0  0  0  0  0  0  0  0  0  0
   -0.7444   -2.4827   -0.9158 H   0  0  0  0  0  0  0  0  0  0  0  0
   -0.4874   -2.5946    0.7819 H   0  0  0  0  0  0  0  0  0  0  0  0
   -1.1237   -0.7119    0.0000 N   0  0  0  0  0  0  0  0  0  0  0  0
   -1.9948   -0.1501    0.0089 H   0  0  0  0  0  0  0  0  0  0  0  0
    0.0000    0.0000    0.0000 C   0  0  0  0  0  0  0  0  0  0  0  0
    1.1237   -0.5082    0.0000 O   0  0  0  0  0  0  0  0  0  0  0  0
   -0.1767    1.5153    0.0018 C   0  0  0  0  0  0  0  0  0  0  0  0
   -1.1329    1.6987    0.2724 H   0  0  0  0  0  0  0  0  0  0  0  0
    0.4659    2.0042    0.7340 H   0  0  0  0  0  0  0  0  0  0  0  0
    0.0334    1.9053   -0.9942 H   0  0  0  0  0  0  0  0  0  0  0  0
  1  5  1  0
  5  6  1  0
  5  9  2  0
  1  2  1  0
  1  3  1  0
  1  4  1  0
  6  7  1  0
  6  8  1  0
 10 14  1  0
 14 16  1  0
 16 17  2  0
 16 18  1  0
 10 11  1  0
 10 12  1  0
 10 13  1  0
 14 15  1  0
 18 19  1  0
 18 20  1  0
 18 21  1  0
M  END
>  <PDB_ID>  (285) 
pdb1pyy

>  <RESIDUE_NAME>  (285) 
ASN   ASN

>  <FRAG_NAME>  (285) 
ACEM   NMA

>  <FRAG_ATOM_NUM>  (285) 
fragi: 9  fragj: 12

>  <atom.prop.CHAIN_ID>  (285) 
A A A A A A A A A Z Z Z Z Z Z Z Z Z Z Z Z

>  <atom.prop.IS_HEAVY_ATOM>  (285) 
1 0 0 0 1 1 0 0 1 1 0 0 0 1 0 1 1 1 0 0 0

>  <DIFUSE_FUNC_ATOM>  (285) 
n/a

>  <FINAL_SINGLE_POINT_ENERGY>  (285) 
0

>  <NONCOV_INTER_ENERGY_QM>  (285) 
0

>  <FF_Energy>  (285) 
16.63

>  <QM_Energy>  (285) 
29.96

>  <source>  (285) 
ACEM_nNMA_17

>  <Index>  (285) 
7372

$$$$
ACEM-pdb2w9m-A-GLN-91:NMA-pdb2w9m-A-TYR-369
     RDKit          3D

 21 19  0  0  0  0  0  0  0  0999 V2000
   -5.6334    0.0366   -2.1457 C   0  0  0  0  0  0  0  0  0  0  0  0
   -5.7538    0.7314   -2.8534 H   0  0  0  0  0  0  0  0  0  0  0  0
   -6.4956   -0.1000   -1.6594 H   0  0  0  0  0  0  0  0  0  0  0  0
   -5.3466   -0.9017   -2.6207 H   0  0  0  0  0  0  0  0  0  0  0  0
   -4.5946    0.5162   -1.1679 C   0  0  0  0  0  0  0  0  0  0  0  0
   -3.3583    0.0655   -1.3456 N   0  0  0  0  0  0  0  0  0  0  0  0
   -2.5981    0.3553   -0.7323 H   0  0  0  0  0  0  0  0  0  0  0  0
   -3.1771   -0.5847   -2.1109 H   0  0  0  0  0  0  0  0  0  0  0  0
   -4.8969    1.2902   -0.2618 O   0  0  0  0  0  0  0  0  0  0  0  0
   -1.0831   -2.1707    0.0768 C   0  0  0  0  0  0  0  0  0  0  0  0
   -0.3216   -2.4372    0.6877 H   0  0  0  0  0  0  0  0  0  0  0  0
   -0.9100   -2.6268   -0.8980 H   0  0  0  0  0  0  0  0  0  0  0  0
   -1.9952   -2.5548    0.5334 H   0  0  0  0  0  0  0  0  0  0  0  0
   -1.1184   -0.7160   -0.0000 N   0  0  0  0  0  0  0  0  0  0  0  0
   -1.9928   -0.1649   -0.0578 H   0  0  0  0  0  0  0  0  0  0  0  0
    0.0000    0.0000    0.0000 C   0  0  0  0  0  0  0  0  0  0  0  0
    1.1184   -0.5143    0.0000 O   0  0  0  0  0  0  0  0  0  0  0  0
   -0.1581    1.5209    0.0027 C   0  0  0  0  0  0  0  0  0  0  0  0
    0.7184    1.9248   -0.3185 H   0  0  0  0  0  0  0  0  0  0  0  0
   -0.9561    1.8786   -0.6480 H   0  0  0  0  0  0  0  0  0  0  0  0
   -0.3195    1.8759    1.0206 H   0  0  0  0  0  0  0  0  0  0  0  0
  1  5  1  0
  5  6  1  0
  5  9  2  0
  1  2  1  0
  1  3  1  0
  1  4  1  0
  6  7  1  0
  6  8  1  0
 10 14  1  0
 14 16  1  0
 16 17  2  0
 16 18  1  0
 10 11  1  0
 10 12  1  0
 10 13  1  0
 14 15  1  0
 18 19  1  0
 18 20  1  0
 18 21  1  0
M  END
>  <PDB_ID>  (286) 
pdb2w9m

>  <RESIDUE_NAME>  (286) 
GLN   TYR

>  <FRAG_NAME>  (286) 
ACEM   NMA

>  <FRAG_ATOM_NUM>  (286) 
fragi: 9  fragj: 12

>  <atom.prop.CHAIN_ID>  (286) 
A A A A A A A A A Z Z Z Z Z Z Z Z Z Z Z Z

>  <atom.prop.IS_HEAVY_ATOM>  (286) 
1 0 0 0 1 1 0 0 1 1 0 0 0 1 0 1 1 1 0 0 0

>  <DIFUSE_FUNC_ATOM>  (286) 
n/a

>  <FINAL_SINGLE_POINT_ENERGY>  (286) 
0

>  <NONCOV_INTER_ENERGY_QM>  (286) 
0

>  <FF_Energy>  (286) 
10.51

>  <QM_Energy>  (286) 
24.1

>  <source>  (286) 
ACEM_nNMA_17

>  <Index>  (286) 
9798

$$$$
ACEM-pdb1q3a-B-ASN-119:NMA-pdb1q3a-B-SER-161
     RDKit          3D

 21 19  0  0  0  0  0  0  0  0999 V2000
   -5.6422    1.4773    0.9038 C   0  0  0  0  0  0  0  0  0  0  0  0
   -6.2267    0.7804    1.3077 H   0  0  0  0  0  0  0  0  0  0  0  0
   -6.1477    1.9982    0.2224 H   0  0  0  0  0  0  0  0  0  0  0  0
   -5.3221    2.1588    1.6919 H   0  0  0  0  0  0  0  0  0  0  0  0
   -4.4716    0.7758    0.2023 C   0  0  0  0  0  0  0  0  0  0  0  0
   -3.4363    0.5186    0.9978 N   0  0  0  0  0  0  0  0  0  0  0  0
   -3.4430    0.7623    1.9598 H   0  0  0  0  0  0  0  0  0  0  0  0
   -2.6199    0.0630    0.6115 H   0  0  0  0  0  0  0  0  0  0  0  0
   -4.4706    0.4790   -1.0231 O   0  0  0  0  0  0  0  0  0  0  0  0
   -1.0955   -2.2072    0.0560 C   0  0  0  0  0  0  0  0  0  0  0  0
   -0.1397   -2.4783    0.0137 H   0  0  0  0  0  0  0  0  0  0  0  0
   -1.5776   -2.5872   -0.8447 H   0  0  0  0  0  0  0  0  0  0  0  0
   -1.6086   -2.5578    0.9515 H   0  0  0  0  0  0  0  0  0  0  0  0
   -1.1200   -0.7334    0.0000 N   0  0  0  0  0  0  0  0  0  0  0  0
   -1.9991   -0.1825   -0.0424 H   0  0  0  0  0  0  0  0  0  0  0  0
    0.0000    0.0000    0.0000 C   0  0  0  0  0  0  0  0  0  0  0  0
    1.1200   -0.5078   -0.0000 O   0  0  0  0  0  0  0  0  0  0  0  0
   -0.1921    1.5415   -0.0041 C   0  0  0  0  0  0  0  0  0  0  0  0
   -0.9047    1.7593    0.7139 H   0  0  0  0  0  0  0  0  0  0  0  0
    0.6658    2.1850    0.1907 H   0  0  0  0  0  0  0  0  0  0  0  0
   -0.7341    1.8631   -0.8934 H   0  0  0  0  0  0  0  0  0  0  0  0
  1  5  1  0
  5  6  1  0
  5  9  2  0
  1  2  1  0
  1  3  1  0
  1  4  1  0
  6  7  1  0
  6  8  1  0
 10 14  1  0
 14 16  1  0
 16 17  2  0
 16 18  1  0
 10 11  1  0
 10 12  1  0
 10 13  1  0
 14 15  1  0
 18 19  1  0
 18 20  1  0
 18 21  1  0
M  END
>  <PDB_ID>  (287) 
pdb1q3a

>  <RESIDUE_NAME>  (287) 
ASN   SER

>  <FRAG_NAME>  (287) 
ACEM   NMA

>  <FRAG_ATOM_NUM>  (287) 
fragi: 9  fragj: 12

>  <atom.prop.CHAIN_ID>  (287) 
A A A A A A A A A Z Z Z Z Z Z Z Z Z Z Z Z

>  <atom.prop.IS_HEAVY_ATOM>  (287) 
1 0 0 0 1 1 0 0 1 1 0 0 0 1 0 1 1 1 0 0 0

>  <DIFUSE_FUNC_ATOM>  (287) 
n/a

>  <FINAL_SINGLE_POINT_ENERGY>  (287) 
0

>  <NONCOV_INTER_ENERGY_QM>  (287) 
0

>  <FF_Energy>  (287) 
9.28

>  <QM_Energy>  (287) 
29.62

>  <source>  (287) 
ACEM_nNMA_17

>  <Index>  (287) 
12694

$$$$
ACEM-pdb1q7h-A-ASN-64:NMA-pdb1q7h-A-TYR-115
     RDKit          3D

 21 19  0  0  0  0  0  0  0  0999 V2000
   -5.6360    0.9315   -1.3504 C   0  0  0  0  0  0  0  0  0  0  0  0
   -6.3102    0.7748   -2.0628 H   0  0  0  0  0  0  0  0  0  0  0  0
   -5.3093    1.8694   -1.3795 H   0  0  0  0  0  0  0  0  0  0  0  0
   -6.1066    0.7582   -0.3827 H   0  0  0  0  0  0  0  0  0  0  0  0
   -4.4581    0.0007   -1.5859 C   0  0  0  0  0  0  0  0  0  0  0  0
   -3.4695    0.0963   -0.7107 N   0  0  0  0  0  0  0  0  0  0  0  0
   -3.5206    0.7412    0.0506 H   0  0  0  0  0  0  0  0  0  0  0  0
   -2.6558   -0.4866   -0.8083 H   0  0  0  0  0  0  0  0  0  0  0  0
   -4.4370   -0.8024   -2.5347 O   0  0  0  0  0  0  0  0  0  0  0  0
   -1.1188   -2.1716    0.0010 C   0  0  0  0  0  0  0  0  0  0  0  0
   -0.3111   -2.4637    0.5328 H   0  0  0  0  0  0  0  0  0  0  0  0
   -1.0004   -2.5766   -1.0040 H   0  0  0  0  0  0  0  0  0  0  0  0
   -2.0351   -2.5351    0.4661 H   0  0  0  0  0  0  0  0  0  0  0  0
   -1.1199   -0.7136   -0.0000 N   0  0  0  0  0  0  0  0  0  0  0  0
   -1.9956   -0.1442   -0.0012 H   0  0  0  0  0  0  0  0  0  0  0  0
    0.0000    0.0000    0.0000 C   0  0  0  0  0  0  0  0  0  0  0  0
    1.1199   -0.5088    0.0000 O   0  0  0  0  0  0  0  0  0  0  0  0
   -0.1752    1.5181    0.0064 C   0  0  0  0  0  0  0  0  0  0  0  0
   -1.0423    1.7313    0.4926 H   0  0  0  0  0  0  0  0  0  0  0  0
    0.6326    2.0481    0.5110 H   0  0  0  0  0  0  0  0  0  0  0  0
   -0.2907    1.8900   -1.0116 H   0  0  0  0  0  0  0  0  0  0  0  0
  1  5  1  0
  5  6  1  0
  5  9  2  0
  1  2  1  0
  1  3  1  0
  1  4  1  0
  6  7  1  0
  6  8  1  0
 10 14  1  0
 14 16  1  0
 16 17  2  0
 16 18  1  0
 10 11  1  0
 10 12  1  0
 10 13  1  0
 14 15  1  0
 18 19  1  0
 18 20  1  0
 18 21  1  0
M  END
>  <PDB_ID>  (288) 
pdb1q7h

>  <RESIDUE_NAME>  (288) 
ASN   TYR

>  <FRAG_NAME>  (288) 
ACEM   NMA

>  <FRAG_ATOM_NUM>  (288) 
fragi: 9  fragj: 12

>  <atom.prop.CHAIN_ID>  (288) 
A A A A A A A A A Z Z Z Z Z Z Z Z Z Z Z Z

>  <atom.prop.IS_HEAVY_ATOM>  (288) 
1 0 0 0 1 1 0 0 1 1 0 0 0 1 0 1 1 1 0 0 0

>  <DIFUSE_FUNC_ATOM>  (288) 
n/a

>  <FINAL_SINGLE_POINT_ENERGY>  (288) 
0

>  <NONCOV_INTER_ENERGY_QM>  (288) 
0

>  <FF_Energy>  (288) 
15.97

>  <QM_Energy>  (288) 
30.42

>  <source>  (288) 
ACEM_nNMA_17

>  <Index>  (288) 
14930

$$$$
ACEM-pdb2wia-A-GLN-107:NMA-pdb2wia-A-SER-62
     RDKit          3D

 21 19  0  0  0  0  0  0  0  0999 V2000
   -5.6365    0.4850    0.8351 C   0  0  0  0  0  0  0  0  0  0  0  0
   -6.2739    0.0837    0.1847 H   0  0  0  0  0  0  0  0  0  0  0  0
   -5.8836    1.4308    1.0228 H   0  0  0  0  0  0  0  0  0  0  0  0
   -5.7272   -0.0696    1.7690 H   0  0  0  0  0  0  0  0  0  0  0  0
   -4.2364    0.4332    0.2641 C   0  0  0  0  0  0  0  0  0  0  0  0
   -3.2968   -0.1369    1.0128 N   0  0  0  0  0  0  0  0  0  0  0  0
   -2.3419   -0.2179    0.6863 H   0  0  0  0  0  0  0  0  0  0  0  0
   -3.5573   -0.4953    1.9338 H   0  0  0  0  0  0  0  0  0  0  0  0
   -4.0228    0.8550   -0.8694 O   0  0  0  0  0  0  0  0  0  0  0  0
   -0.9751   -2.2051   -0.0698 C   0  0  0  0  0  0  0  0  0  0  0  0
   -0.1467   -2.4763    0.4349 H   0  0  0  0  0  0  0  0  0  0  0  0
   -0.8941   -2.5422   -1.1032 H   0  0  0  0  0  0  0  0  0  0  0  0
   -1.8092   -2.7229    0.4039 H   0  0  0  0  0  0  0  0  0  0  0  0
   -1.0834   -0.7349    0.0000 N   0  0  0  0  0  0  0  0  0  0  0  0
   -1.9785   -0.2369    0.0497 H   0  0  0  0  0  0  0  0  0  0  0  0
    0.0000    0.0000    0.0000 C   0  0  0  0  0  0  0  0  0  0  0  0
    1.0834   -0.5130   -0.0000 O   0  0  0  0  0  0  0  0  0  0  0  0
   -0.1455    1.4868   -0.1524 C   0  0  0  0  0  0  0  0  0  0  0  0
   -0.9477    1.7789    0.3709 H   0  0  0  0  0  0  0  0  0  0  0  0
    0.7366    1.9654    0.2732 H   0  0  0  0  0  0  0  0  0  0  0  0
   -0.1395    1.6602   -1.2285 H   0  0  0  0  0  0  0  0  0  0  0  0
  1  5  1  0
  5  6  1  0
  5  9  2  0
  1  2  1  0
  1  3  1  0
  1  4  1  0
  6  7  1  0
  6  8  1  0
 10 14  1  0
 14 16  1  0
 16 17  2  0
 16 18  1  0
 10 11  1  0
 10 12  1  0
 10 13  1  0
 14 15  1  0
 18 19  1  0
 18 20  1  0
 18 21  1  0
M  END
>  <PDB_ID>  (289) 
pdb2wia

>  <RESIDUE_NAME>  (289) 
GLN   SER

>  <FRAG_NAME>  (289) 
ACEM   NMA

>  <FRAG_ATOM_NUM>  (289) 
fragi: 9  fragj: 12

>  <atom.prop.CHAIN_ID>  (289) 
A A A A A A A A A Z Z Z Z Z Z Z Z Z Z Z Z

>  <atom.prop.IS_HEAVY_ATOM>  (289) 
1 0 0 0 1 1 0 0 1 1 0 0 0 1 0 1 1 1 0 0 0

>  <DIFUSE_FUNC_ATOM>  (289) 
n/a

>  <FINAL_SINGLE_POINT_ENERGY>  (289) 
0

>  <NONCOV_INTER_ENERGY_QM>  (289) 
0

>  <FF_Energy>  (289) 
29.88

>  <QM_Energy>  (289) 
70.41

>  <source>  (289) 
ACEM_nNMA_17

>  <Index>  (289) 
16897

$$$$
ACEM-pdb1qhx-A-GLN-144:NMA-pdb1qhx-A-GLY-11
     RDKit          3D

 21 19  0  0  0  0  0  0  0  0999 V2000
   -5.0563    1.5799    0.0317 C   0  0  0  0  0  0  0  0  0  0  0  0
   -5.7052    2.2361    0.4127 H   0  0  0  0  0  0  0  0  0  0  0  0
   -5.4771    1.0968   -0.7350 H   0  0  0  0  0  0  0  0  0  0  0  0
   -4.1792    2.1181   -0.3274 H   0  0  0  0  0  0  0  0  0  0  0  0
   -4.7107    0.5657    1.1079 C   0  0  0  0  0  0  0  0  0  0  0  0
   -3.5074    0.0046    1.0351 N   0  0  0  0  0  0  0  0  0  0  0  0
   -3.2037   -0.6712    1.7274 H   0  0  0  0  0  0  0  0  0  0  0  0
   -2.8913    0.2653    0.2654 H   0  0  0  0  0  0  0  0  0  0  0  0
   -5.5120    0.3023    2.0035 O   0  0  0  0  0  0  0  0  0  0  0  0
   -1.0844   -2.1573   -0.0115 C   0  0  0  0  0  0  0  0  0  0  0  0
   -0.5393   -2.4717    0.7699 H   0  0  0  0  0  0  0  0  0  0  0  0
   -0.5950   -2.5149   -0.9174 H   0  0  0  0  0  0  0  0  0  0  0  0
   -2.1007   -2.5460    0.0537 H   0  0  0  0  0  0  0  0  0  0  0  0
   -1.1163   -0.7093   -0.0000 N   0  0  0  0  0  0  0  0  0  0  0  0
   -1.9915   -0.1512    0.0092 H   0  0  0  0  0  0  0  0  0  0  0  0
    0.0000    0.0000    0.0000 C   0  0  0  0  0  0  0  0  0  0  0  0
    1.1163   -0.5169    0.0000 O   0  0  0  0  0  0  0  0  0  0  0  0
   -0.1723    1.5061    0.0028 C   0  0  0  0  0  0  0  0  0  0  0  0
   -0.8543    1.7626    0.7026 H   0  0  0  0  0  0  0  0  0  0  0  0
   -0.5265    1.8028   -0.8957 H   0  0  0  0  0  0  0  0  0  0  0  0
    0.7708    2.0123    0.2088 H   0  0  0  0  0  0  0  0  0  0  0  0
  1  5  1  0
  5  6  1  0
  5  9  2  0
  1  2  1  0
  1  3  1  0
  1  4  1  0
  6  7  1  0
  6  8  1  0
 10 14  1  0
 14 16  1  0
 16 17  2  0
 16 18  1  0
 10 11  1  0
 10 12  1  0
 10 13  1  0
 14 15  1  0
 18 19  1  0
 18 20  1  0
 18 21  1  0
M  END
>  <PDB_ID>  (290) 
pdb1qhx

>  <RESIDUE_NAME>  (290) 
GLN   GLY

>  <FRAG_NAME>  (290) 
ACEM   NMA

>  <FRAG_ATOM_NUM>  (290) 
fragi: 9  fragj: 12

>  <atom.prop.CHAIN_ID>  (290) 
A A A A A A A A A Z Z Z Z Z Z Z Z Z Z Z Z

>  <atom.prop.IS_HEAVY_ATOM>  (290) 
1 0 0 0 1 1 0 0 1 1 0 0 0 1 0 1 1 1 0 0 0

>  <DIFUSE_FUNC_ATOM>  (290) 
n/a

>  <FINAL_SINGLE_POINT_ENERGY>  (290) 
0

>  <NONCOV_INTER_ENERGY_QM>  (290) 
0

>  <FF_Energy>  (290) 
13.75

>  <QM_Energy>  (290) 
26.74

>  <source>  (290) 
ACEM_nNMA_17

>  <Index>  (290) 
22753

$$$$
ACEM-pdb1qgo-A-ASN-225:NMA-pdb1qgo-A-PRO-230
     RDKit          3D

 21 19  0  0  0  0  0  0  0  0999 V2000
   -4.5598    2.4244    2.2161 C   0  0  0  0  0  0  0  0  0  0  0  0
   -5.3925    2.1903    2.7210 H   0  0  0  0  0  0  0  0  0  0  0  0
   -4.6766    3.3203    1.7838 H   0  0  0  0  0  0  0  0  0  0  0  0
   -3.7379    2.4947    2.9285 H   0  0  0  0  0  0  0  0  0  0  0  0
   -4.3416    1.3910    1.1371 C   0  0  0  0  0  0  0  0  0  0  0  0
   -3.1027    0.9529    0.9592 N   0  0  0  0  0  0  0  0  0  0  0  0
   -2.3661    1.3105    1.5405 H   0  0  0  0  0  0  0  0  0  0  0  0
   -2.9019    0.2751    0.2584 H   0  0  0  0  0  0  0  0  0  0  0  0
   -5.2490    0.9591    0.4195 O   0  0  0  0  0  0  0  0  0  0  0  0
   -1.1521   -2.1541    0.0720 C   0  0  0  0  0  0  0  0  0  0  0  0
   -0.2014   -2.5022    0.1482 H   0  0  0  0  0  0  0  0  0  0  0  0
   -1.6139   -2.6034   -0.8072 H   0  0  0  0  0  0  0  0  0  0  0  0
   -1.7114   -2.4215    0.9685 H   0  0  0  0  0  0  0  0  0  0  0  0
   -1.1172   -0.7114    0.0000 N   0  0  0  0  0  0  0  0  0  0  0  0
   -1.9924   -0.1224   -0.0578 H   0  0  0  0  0  0  0  0  0  0  0  0
    0.0000    0.0000    0.0000 C   0  0  0  0  0  0  0  0  0  0  0  0
    1.1172   -0.5318    0.0000 O   0  0  0  0  0  0  0  0  0  0  0  0
   -0.1823    1.5183    0.0128 C   0  0  0  0  0  0  0  0  0  0  0  0
   -1.1560    1.7550    0.1539 H   0  0  0  0  0  0  0  0  0  0  0  0
    0.4479    1.9984    0.7615 H   0  0  0  0  0  0  0  0  0  0  0  0
    0.1332    1.9681   -0.9286 H   0  0  0  0  0  0  0  0  0  0  0  0
  1  5  1  0
  5  6  1  0
  5  9  2  0
  1  2  1  0
  1  3  1  0
  1  4  1  0
  6  7  1  0
  6  8  1  0
 10 14  1  0
 14 16  1  0
 16 17  2  0
 16 18  1  0
 10 11  1  0
 10 12  1  0
 10 13  1  0
 14 15  1  0
 18 19  1  0
 18 20  1  0
 18 21  1  0
M  END
>  <PDB_ID>  (291) 
pdb1qgo

>  <RESIDUE_NAME>  (291) 
ASN   PRO

>  <FRAG_NAME>  (291) 
ACEM   NMA

>  <FRAG_ATOM_NUM>  (291) 
fragi: 9  fragj: 12

>  <atom.prop.CHAIN_ID>  (291) 
A A A A A A A A A Z Z Z Z Z Z Z Z Z Z Z Z

>  <atom.prop.IS_HEAVY_ATOM>  (291) 
1 0 0 0 1 1 0 0 1 1 0 0 0 1 0 1 1 1 0 0 0

>  <DIFUSE_FUNC_ATOM>  (291) 
n/a

>  <FINAL_SINGLE_POINT_ENERGY>  (291) 
0

>  <NONCOV_INTER_ENERGY_QM>  (291) 
0

>  <FF_Energy>  (291) 
15.73

>  <QM_Energy>  (291) 
26.96

>  <source>  (291) 
ACEM_nNMA_17

>  <Index>  (291) 
22760

$$$$
ACEM-pdb1qfx-A-ASN-321:NMA-pdb1qfx-A-ALA-317
     RDKit          3D

 21 19  0  0  0  0  0  0  0  0999 V2000
   -4.7339   -0.0747   -1.6252 C   0  0  0  0  0  0  0  0  0  0  0  0
   -3.7772   -0.1679   -1.8829 H   0  0  0  0  0  0  0  0  0  0  0  0
   -5.0762    0.8217   -1.8903 H   0  0  0  0  0  0  0  0  0  0  0  0
   -5.3082   -0.8322   -2.1585 H   0  0  0  0  0  0  0  0  0  0  0  0
   -4.8441   -0.2083   -0.1123 C   0  0  0  0  0  0  0  0  0  0  0  0
   -3.7141   -0.3305    0.5495 N   0  0  0  0  0  0  0  0  0  0  0  0
   -2.8367   -0.3264    0.0610 H   0  0  0  0  0  0  0  0  0  0  0  0
   -3.7182   -0.4280    1.5481 H   0  0  0  0  0  0  0  0  0  0  0  0
   -5.9428   -0.1881    0.4509 O   0  0  0  0  0  0  0  0  0  0  0  0
   -1.0733   -2.1819    0.0428 C   0  0  0  0  0  0  0  0  0  0  0  0
   -0.1108   -2.4677    0.1976 H   0  0  0  0  0  0  0  0  0  0  0  0
   -1.4204   -2.6520   -0.8774 H   0  0  0  0  0  0  0  0  0  0  0  0
   -1.7089   -2.5480    0.8491 H   0  0  0  0  0  0  0  0  0  0  0  0
   -1.1160   -0.7198   -0.0000 N   0  0  0  0  0  0  0  0  0  0  0  0
   -1.9938   -0.1738   -0.0319 H   0  0  0  0  0  0  0  0  0  0  0  0
    0.0000    0.0000    0.0000 C   0  0  0  0  0  0  0  0  0  0  0  0
    1.1160   -0.5266    0.0000 O   0  0  0  0  0  0  0  0  0  0  0  0
   -0.1502    1.5312   -0.0179 C   0  0  0  0  0  0  0  0  0  0  0  0
   -0.1340    1.8573    0.9361 H   0  0  0  0  0  0  0  0  0  0  0  0
    0.6618    2.0008   -0.5730 H   0  0  0  0  0  0  0  0  0  0  0  0
   -1.1052    1.8250   -0.4537 H   0  0  0  0  0  0  0  0  0  0  0  0
  1  5  1  0
  5  6  1  0
  5  9  2  0
  1  2  1  0
  1  3  1  0
  1  4  1  0
  6  7  1  0
  6  8  1  0
 10 14  1  0
 14 16  1  0
 16 17  2  0
 16 18  1  0
 10 11  1  0
 10 12  1  0
 10 13  1  0
 14 15  1  0
 18 19  1  0
 18 20  1  0
 18 21  1  0
M  END
>  <PDB_ID>  (292) 
pdb1qfx

>  <RESIDUE_NAME>  (292) 
ASN   ALA

>  <FRAG_NAME>  (292) 
ACEM   NMA

>  <FRAG_ATOM_NUM>  (292) 
fragi: 9  fragj: 12

>  <atom.prop.CHAIN_ID>  (292) 
A A A A A A A A A Z Z Z Z Z Z Z Z Z Z Z Z

>  <atom.prop.IS_HEAVY_ATOM>  (292) 
1 0 0 0 1 1 0 0 1 1 0 0 0 1 0 1 1 1 0 0 0

>  <DIFUSE_FUNC_ATOM>  (292) 
n/a

>  <FINAL_SINGLE_POINT_ENERGY>  (292) 
0

>  <NONCOV_INTER_ENERGY_QM>  (292) 
0

>  <FF_Energy>  (292) 
17.69

>  <QM_Energy>  (292) 
42.56

>  <source>  (292) 
ACEM_nNMA_17

>  <Index>  (292) 
22944

$$$$
ACEM-pdb1q9o-D-ASN-194:NMA-pdb1q9o-D-ASN-153
     RDKit          3D

 21 19  0  0  0  0  0  0  0  0999 V2000
   -6.0824   -0.7359    0.0222 C   0  0  0  0  0  0  0  0  0  0  0  0
   -6.0865   -1.3452    0.8095 H   0  0  0  0  0  0  0  0  0  0  0  0
   -6.3406   -1.2333   -0.8006 H   0  0  0  0  0  0  0  0  0  0  0  0
   -6.8107    0.0570    0.1923 H   0  0  0  0  0  0  0  0  0  0  0  0
   -4.6705   -0.1985   -0.1630 C   0  0  0  0  0  0  0  0  0  0  0  0
   -3.8002   -0.4882    0.7981 N   0  0  0  0  0  0  0  0  0  0  0  0
   -4.0870   -1.0379    1.5839 H   0  0  0  0  0  0  0  0  0  0  0  0
   -2.8575   -0.1591    0.7383 H   0  0  0  0  0  0  0  0  0  0  0  0
   -4.3694    0.4834   -1.1524 O   0  0  0  0  0  0  0  0  0  0  0  0
   -1.1675   -2.1691   -0.0213 C   0  0  0  0  0  0  0  0  0  0  0  0
   -2.1468   -2.4537    0.0298 H   0  0  0  0  0  0  0  0  0  0  0  0
   -0.6404   -2.6501    0.8026 H   0  0  0  0  0  0  0  0  0  0  0  0
   -0.7693   -2.5345   -0.9679 H   0  0  0  0  0  0  0  0  0  0  0  0
   -1.1264   -0.7088   -0.0000 N   0  0  0  0  0  0  0  0  0  0  0  0
   -1.9987   -0.1199    0.0165 H   0  0  0  0  0  0  0  0  0  0  0  0
    0.0000    0.0000    0.0000 C   0  0  0  0  0  0  0  0  0  0  0  0
    1.1264   -0.5083   -0.0000 O   0  0  0  0  0  0  0  0  0  0  0  0
   -0.1927    1.5212   -0.0003 C   0  0  0  0  0  0  0  0  0  0  0  0
   -0.5540    1.7686   -0.9082 H   0  0  0  0  0  0  0  0  0  0  0  0
   -0.9314    1.8318    0.7385 H   0  0  0  0  0  0  0  0  0  0  0  0
    0.7526    2.0381    0.1653 H   0  0  0  0  0  0  0  0  0  0  0  0
  1  5  1  0
  5  6  1  0
  5  9  2  0
  1  2  1  0
  1  3  1  0
  1  4  1  0
  6  7  1  0
  6  8  1  0
 10 14  1  0
 14 16  1  0
 16 17  2  0
 16 18  1  0
 10 11  1  0
 10 12  1  0
 10 13  1  0
 14 15  1  0
 18 19  1  0
 18 20  1  0
 18 21  1  0
M  END
>  <PDB_ID>  (293) 
pdb1q9o

>  <RESIDUE_NAME>  (293) 
ASN   ASN

>  <FRAG_NAME>  (293) 
ACEM   NMA

>  <FRAG_ATOM_NUM>  (293) 
fragi: 9  fragj: 12

>  <atom.prop.CHAIN_ID>  (293) 
A A A A A A A A A Z Z Z Z Z Z Z Z Z Z Z Z

>  <atom.prop.IS_HEAVY_ATOM>  (293) 
1 0 0 0 1 1 0 0 1 1 0 0 0 1 0 1 1 1 0 0 0

>  <DIFUSE_FUNC_ATOM>  (293) 
n/a

>  <FINAL_SINGLE_POINT_ENERGY>  (293) 
0

>  <NONCOV_INTER_ENERGY_QM>  (293) 
0

>  <FF_Energy>  (293) 
5.71

>  <QM_Energy>  (293) 
16.73

>  <source>  (293) 
ACEM_nNMA_17

>  <Index>  (293) 
23088

$$$$
ACEM-pdb2wj3-D-ASN-60:NMA-pdb2wj3-D-ASP-39
     RDKit          3D

 21 19  0  0  0  0  0  0  0  0999 V2000
   -5.2327    2.4252    1.4761 C   0  0  0  0  0  0  0  0  0  0  0  0
   -6.1819    2.2792    1.2420 H   0  0  0  0  0  0  0  0  0  0  0  0
   -4.9262    3.3234    1.1965 H   0  0  0  0  0  0  0  0  0  0  0  0
   -5.1131    2.3287    2.5552 H   0  0  0  0  0  0  0  0  0  0  0  0
   -4.3902    1.3784    0.7254 C   0  0  0  0  0  0  0  0  0  0  0  0
   -3.1769    1.0638    1.2141 N   0  0  0  0  0  0  0  0  0  0  0  0
   -2.8848    1.5314    2.0585 H   0  0  0  0  0  0  0  0  0  0  0  0
   -2.6070    0.4057    0.7639 H   0  0  0  0  0  0  0  0  0  0  0  0
   -4.8686    0.8616   -0.2997 O   0  0  0  0  0  0  0  0  0  0  0  0
   -1.1300   -2.2136   -0.0511 C   0  0  0  0  0  0  0  0  0  0  0  0
   -0.8842   -2.5540    0.8919 H   0  0  0  0  0  0  0  0  0  0  0  0
   -0.4730   -2.7043   -0.7693 H   0  0  0  0  0  0  0  0  0  0  0  0
   -2.1439   -2.5612   -0.2495 H   0  0  0  0  0  0  0  0  0  0  0  0
   -1.1120   -0.7308   -0.0000 N   0  0  0  0  0  0  0  0  0  0  0  0
   -1.9974   -0.1675    0.0400 H   0  0  0  0  0  0  0  0  0  0  0  0
    0.0000    0.0000    0.0000 C   0  0  0  0  0  0  0  0  0  0  0  0
    1.1120   -0.4879    0.0000 O   0  0  0  0  0  0  0  0  0  0  0  0
   -0.1850    1.5026   -0.0050 C   0  0  0  0  0  0  0  0  0  0  0  0
   -0.5433    1.7579    0.9103 H   0  0  0  0  0  0  0  0  0  0  0  0
    0.7532    2.0377   -0.1522 H   0  0  0  0  0  0  0  0  0  0  0  0
   -0.9038    1.8149   -0.7625 H   0  0  0  0  0  0  0  0  0  0  0  0
  1  5  1  0
  5  6  1  0
  5  9  2  0
  1  2  1  0
  1  3  1  0
  1  4  1  0
  6  7  1  0
  6  8  1  0
 10 14  1  0
 14 16  1  0
 16 17  2  0
 16 18  1  0
 10 11  1  0
 10 12  1  0
 10 13  1  0
 14 15  1  0
 18 19  1  0
 18 20  1  0
 18 21  1  0
M  END
>  <PDB_ID>  (294) 
pdb2wj3

>  <RESIDUE_NAME>  (294) 
ASN   ASP

>  <FRAG_NAME>  (294) 
ACEM   NMA

>  <FRAG_ATOM_NUM>  (294) 
fragi: 9  fragj: 12

>  <atom.prop.CHAIN_ID>  (294) 
A A A A A A A A A Z Z Z Z Z Z Z Z Z Z Z Z

>  <atom.prop.IS_HEAVY_ATOM>  (294) 
1 0 0 0 1 1 0 0 1 1 0 0 0 1 0 1 1 1 0 0 0

>  <DIFUSE_FUNC_ATOM>  (294) 
n/a

>  <FINAL_SINGLE_POINT_ENERGY>  (294) 
0

>  <NONCOV_INTER_ENERGY_QM>  (294) 
0

>  <FF_Energy>  (294) 
6.43

>  <QM_Energy>  (294) 
16.52

>  <source>  (294) 
ACEM_nNMA_17

>  <Index>  (294) 
24400

$$$$
ACEM-pdb1qht-A-ASN-424:NMA-pdb1qht-A-HID-439
     RDKit          3D

 21 19  0  0  0  0  0  0  0  0999 V2000
   -6.0369   -0.4871   -1.4930 C   0  0  0  0  0  0  0  0  0  0  0  0
   -6.4532   -0.0586   -2.2907 H   0  0  0  0  0  0  0  0  0  0  0  0
   -6.7119   -0.5871   -0.7663 H   0  0  0  0  0  0  0  0  0  0  0  0
   -5.6921   -1.4809   -1.7787 H   0  0  0  0  0  0  0  0  0  0  0  0
   -4.9149    0.4032   -0.9942 C   0  0  0  0  0  0  0  0  0  0  0  0
   -3.7959   -0.1982   -0.6121 N   0  0  0  0  0  0  0  0  0  0  0  0
   -3.7272   -1.1979   -0.6699 H   0  0  0  0  0  0  0  0  0  0  0  0
   -3.0269    0.3361   -0.2700 H   0  0  0  0  0  0  0  0  0  0  0  0
   -5.0552    1.6224   -0.9549 O   0  0  0  0  0  0  0  0  0  0  0  0
   -1.0555   -2.1676   -0.0084 C   0  0  0  0  0  0  0  0  0  0  0  0
   -0.1561   -2.4581    0.3559 H   0  0  0  0  0  0  0  0  0  0  0  0
   -1.1750   -2.5779   -1.0112 H   0  0  0  0  0  0  0  0  0  0  0  0
   -1.8245   -2.5833    0.6426 H   0  0  0  0  0  0  0  0  0  0  0  0
   -1.1165   -0.7138   -0.0000 N   0  0  0  0  0  0  0  0  0  0  0  0
   -1.9921   -0.1720    0.0065 H   0  0  0  0  0  0  0  0  0  0  0  0
    0.0000    0.0000    0.0000 C   0  0  0  0  0  0  0  0  0  0  0  0
    1.1165   -0.5143    0.0000 O   0  0  0  0  0  0  0  0  0  0  0  0
   -0.1446    1.5081    0.0043 C   0  0  0  0  0  0  0  0  0  0  0  0
   -1.0436    1.7382    0.3372 H   0  0  0  0  0  0  0  0  0  0  0  0
    0.5971    1.8637    0.7195 H   0  0  0  0  0  0  0  0  0  0  0  0
    0.0575    1.9131   -0.9873 H   0  0  0  0  0  0  0  0  0  0  0  0
  1  5  1  0
  5  6  1  0
  5  9  2  0
  1  2  1  0
  1  3  1  0
  1  4  1  0
  6  7  1  0
  6  8  1  0
 10 14  1  0
 14 16  1  0
 16 17  2  0
 16 18  1  0
 10 11  1  0
 10 12  1  0
 10 13  1  0
 14 15  1  0
 18 19  1  0
 18 20  1  0
 18 21  1  0
M  END
>  <PDB_ID>  (295) 
pdb1qht

>  <RESIDUE_NAME>  (295) 
ASN   HID

>  <FRAG_NAME>  (295) 
ACEM   NMA

>  <FRAG_ATOM_NUM>  (295) 
fragi: 9  fragj: 12

>  <atom.prop.CHAIN_ID>  (295) 
A A A A A A A A A Z Z Z Z Z Z Z Z Z Z Z Z

>  <atom.prop.IS_HEAVY_ATOM>  (295) 
1 0 0 0 1 1 0 0 1 1 0 0 0 1 0 1 1 1 0 0 0

>  <DIFUSE_FUNC_ATOM>  (295) 
n/a

>  <FINAL_SINGLE_POINT_ENERGY>  (295) 
0

>  <NONCOV_INTER_ENERGY_QM>  (295) 
0

>  <FF_Energy>  (295) 
6.7

>  <QM_Energy>  (295) 
16.85

>  <source>  (295) 
ACEM_nNMA_17

>  <Index>  (295) 
25461

$$$$
ACEM-pdb1qo8-A-ASN-508:NMA-pdb1qo8-A-ALA-511
     RDKit          3D

 21 19  0  0  0  0  0  0  0  0999 V2000
   -5.1607    0.7095   -2.2042 C   0  0  0  0  0  0  0  0  0  0  0  0
   -6.0443    1.1349   -2.1798 H   0  0  0  0  0  0  0  0  0  0  0  0
   -5.1873   -0.1989   -2.5736 H   0  0  0  0  0  0  0  0  0  0  0  0
   -4.5138    1.3127   -2.8412 H   0  0  0  0  0  0  0  0  0  0  0  0
   -4.5882    0.6642   -0.8045 C   0  0  0  0  0  0  0  0  0  0  0  0
   -3.4417   -0.0846   -0.7839 N   0  0  0  0  0  0  0  0  0  0  0  0
   -3.0605   -0.5124   -1.5658 H   0  0  0  0  0  0  0  0  0  0  0  0
   -2.9752   -0.1855    0.1191 H   0  0  0  0  0  0  0  0  0  0  0  0
   -5.0210    1.0727    0.2655 O   0  0  0  0  0  0  0  0  0  0  0  0
   -1.0988   -2.1282   -0.2725 C   0  0  0  0  0  0  0  0  0  0  0  0
   -0.3381   -2.5291    0.2267 H   0  0  0  0  0  0  0  0  0  0  0  0
   -0.9011   -2.2620   -1.3360 H   0  0  0  0  0  0  0  0  0  0  0  0
   -2.0850   -2.5642   -0.1128 H   0  0  0  0  0  0  0  0  0  0  0  0
   -1.1329   -0.7016    0.0000 N   0  0  0  0  0  0  0  0  0  0  0  0
   -1.9853   -0.1668    0.1999 H   0  0  0  0  0  0  0  0  0  0  0  0
    0.0000    0.0000    0.0000 C   0  0  0  0  0  0  0  0  0  0  0  0
    1.1329   -0.5207    0.0000 O   0  0  0  0  0  0  0  0  0  0  0  0
   -0.1102    1.5079   -0.1062 C   0  0  0  0  0  0  0  0  0  0  0  0
   -0.0446    1.7658   -1.0829 H   0  0  0  0  0  0  0  0  0  0  0  0
   -1.0577    1.8673    0.2952 H   0  0  0  0  0  0  0  0  0  0  0  0
    0.7697    1.9465    0.3645 H   0  0  0  0  0  0  0  0  0  0  0  0
  1  5  1  0
  5  6  1  0
  5  9  2  0
  1  2  1  0
  1  3  1  0
  1  4  1  0
  6  7  1  0
  6  8  1  0
 10 14  1  0
 14 16  1  0
 16 17  2  0
 16 18  1  0
 10 11  1  0
 10 12  1  0
 10 13  1  0
 14 15  1  0
 18 19  1  0
 18 20  1  0
 18 21  1  0
M  END
>  <PDB_ID>  (296) 
pdb1qo8

>  <RESIDUE_NAME>  (296) 
ASN   ALA

>  <FRAG_NAME>  (296) 
ACEM   NMA

>  <FRAG_ATOM_NUM>  (296) 
fragi: 9  fragj: 12

>  <atom.prop.CHAIN_ID>  (296) 
A A A A A A A A A Z Z Z Z Z Z Z Z Z Z Z Z

>  <atom.prop.IS_HEAVY_ATOM>  (296) 
1 0 0 0 1 1 0 0 1 1 0 0 0 1 0 1 1 1 0 0 0

>  <DIFUSE_FUNC_ATOM>  (296) 
n/a

>  <FINAL_SINGLE_POINT_ENERGY>  (296) 
0

>  <NONCOV_INTER_ENERGY_QM>  (296) 
0

>  <FF_Energy>  (296) 
21.25

>  <QM_Energy>  (296) 
33.92

>  <source>  (296) 
ACEM_nNMA_18

>  <Index>  (296) 
4134

$$$$
ACEM-pdb1quq-C-GLN-53:NMA-pdb1quq-C-CYS-49
     RDKit          3D

 21 19  0  0  0  0  0  0  0  0999 V2000
   -5.2571    0.0312    0.3022 C   0  0  0  0  0  0  0  0  0  0  0  0
   -6.2348    0.1984    0.4939 H   0  0  0  0  0  0  0  0  0  0  0  0
   -5.0928   -0.9634    0.3762 H   0  0  0  0  0  0  0  0  0  0  0  0
   -5.0444    0.3441   -0.7200 H   0  0  0  0  0  0  0  0  0  0  0  0
   -4.4397    0.7316    1.3322 C   0  0  0  0  0  0  0  0  0  0  0  0
   -3.1479    0.8135    1.0632 N   0  0  0  0  0  0  0  0  0  0  0  0
   -2.5028    1.2953    1.7151 H   0  0  0  0  0  0  0  0  0  0  0  0
   -2.7855    0.4002    0.2105 H   0  0  0  0  0  0  0  0  0  0  0  0
   -4.9517    1.2439    2.3447 O   0  0  0  0  0  0  0  0  0  0  0  0
   -1.1038   -2.1611   -0.0999 C   0  0  0  0  0  0  0  0  0  0  0  0
   -0.1907   -2.4811   -0.0120 H   0  0  0  0  0  0  0  0  0  0  0  0
   -1.4213   -2.3080   -1.1322 H   0  0  0  0  0  0  0  0  0  0  0  0
   -1.8438   -2.6508    0.5332 H   0  0  0  0  0  0  0  0  0  0  0  0
   -1.1172   -0.7122    0.0000 N   0  0  0  0  0  0  0  0  0  0  0  0
   -1.9908   -0.1510    0.0768 H   0  0  0  0  0  0  0  0  0  0  0  0
    0.0000    0.0000    0.0000 C   0  0  0  0  0  0  0  0  0  0  0  0
    1.1172   -0.5110   -0.0000 O   0  0  0  0  0  0  0  0  0  0  0  0
   -0.2026    1.5188    0.0108 C   0  0  0  0  0  0  0  0  0  0  0  0
   -0.8566    1.7377    0.7740 H   0  0  0  0  0  0  0  0  0  0  0  0
    0.6900    2.1285    0.1508 H   0  0  0  0  0  0  0  0  0  0  0  0
   -0.6592    1.7708   -0.9464 H   0  0  0  0  0  0  0  0  0  0  0  0
  1  5  1  0
  5  6  1  0
  5  9  2  0
  1  2  1  0
  1  3  1  0
  1  4  1  0
  6  7  1  0
  6  8  1  0
 10 14  1  0
 14 16  1  0
 16 17  2  0
 16 18  1  0
 10 11  1  0
 10 12  1  0
 10 13  1  0
 14 15  1  0
 18 19  1  0
 18 20  1  0
 18 21  1  0
M  END
>  <PDB_ID>  (297) 
pdb1quq

>  <RESIDUE_NAME>  (297) 
GLN   CYS

>  <FRAG_NAME>  (297) 
ACEM   NMA

>  <FRAG_ATOM_NUM>  (297) 
fragi: 9  fragj: 12

>  <atom.prop.CHAIN_ID>  (297) 
A A A A A A A A A Z Z Z Z Z Z Z Z Z Z Z Z

>  <atom.prop.IS_HEAVY_ATOM>  (297) 
1 0 0 0 1 1 0 0 1 1 0 0 0 1 0 1 1 1 0 0 0

>  <DIFUSE_FUNC_ATOM>  (297) 
n/a

>  <FINAL_SINGLE_POINT_ENERGY>  (297) 
0

>  <NONCOV_INTER_ENERGY_QM>  (297) 
0

>  <FF_Energy>  (297) 
15.2

>  <QM_Energy>  (297) 
31.93

>  <source>  (297) 
ACEM_nNMA_18

>  <Index>  (297) 
5181

$$$$
ACEM-pdb1qyd-A-GLN-274:NMA-pdb1qyd-A-ALA-127
     RDKit          3D

 21 19  0  0  0  0  0  0  0  0999 V2000
   -4.7144    2.4651   -2.0613 C   0  0  0  0  0  0  0  0  0  0  0  0
   -5.3088    1.7540   -2.5141 H   0  0  0  0  0  0  0  0  0  0  0  0
   -4.0911    2.8013   -2.8098 H   0  0  0  0  0  0  0  0  0  0  0  0
   -5.3552    3.2945   -1.7621 H   0  0  0  0  0  0  0  0  0  0  0  0
   -3.8537    1.7574   -1.0239 C   0  0  0  0  0  0  0  0  0  0  0  0
   -3.4701    0.5314   -1.3588 N   0  0  0  0  0  0  0  0  0  0  0  0
   -2.8751   -0.0125   -0.7215 H   0  0  0  0  0  0  0  0  0  0  0  0
   -3.7688    0.1391   -2.2423 H   0  0  0  0  0  0  0  0  0  0  0  0
   -3.4840    2.2706    0.0383 O   0  0  0  0  0  0  0  0  0  0  0  0
   -1.1900   -2.1488   -0.0430 C   0  0  0  0  0  0  0  0  0  0  0  0
   -0.5773   -2.5137    0.6359 H   0  0  0  0  0  0  0  0  0  0  0  0
   -0.8109   -2.4152   -1.0296 H   0  0  0  0  0  0  0  0  0  0  0  0
   -2.2106   -2.5206    0.0472 H   0  0  0  0  0  0  0  0  0  0  0  0
   -1.1424   -0.6978    0.0000 N   0  0  0  0  0  0  0  0  0  0  0  0
   -2.0025   -0.0970    0.0343 H   0  0  0  0  0  0  0  0  0  0  0  0
    0.0000    0.0000    0.0000 C   0  0  0  0  0  0  0  0  0  0  0  0
    1.1424   -0.4648   -0.0000 O   0  0  0  0  0  0  0  0  0  0  0  0
   -0.2692    1.4757   -0.0167 C   0  0  0  0  0  0  0  0  0  0  0  0
   -1.2247    1.6342    0.3875 H   0  0  0  0  0  0  0  0  0  0  0  0
    0.4214    2.1552    0.4828 H   0  0  0  0  0  0  0  0  0  0  0  0
   -0.3453    1.7898   -1.0577 H   0  0  0  0  0  0  0  0  0  0  0  0
  1  5  1  0
  5  6  1  0
  5  9  2  0
  1  2  1  0
  1  3  1  0
  1  4  1  0
  6  7  1  0
  6  8  1  0
 10 14  1  0
 14 16  1  0
 16 17  2  0
 16 18  1  0
 10 11  1  0
 10 12  1  0
 10 13  1  0
 14 15  1  0
 18 19  1  0
 18 20  1  0
 18 21  1  0
M  END
>  <PDB_ID>  (298) 
pdb1qyd

>  <RESIDUE_NAME>  (298) 
GLN   ALA

>  <FRAG_NAME>  (298) 
ACEM   NMA

>  <FRAG_ATOM_NUM>  (298) 
fragi: 9  fragj: 12

>  <atom.prop.CHAIN_ID>  (298) 
A A A A A A A A A Z Z Z Z Z Z Z Z Z Z Z Z

>  <atom.prop.IS_HEAVY_ATOM>  (298) 
1 0 0 0 1 1 0 0 1 1 0 0 0 1 0 1 1 1 0 0 0

>  <DIFUSE_FUNC_ATOM>  (298) 
n/a

>  <FINAL_SINGLE_POINT_ENERGY>  (298) 
0

>  <NONCOV_INTER_ENERGY_QM>  (298) 
0

>  <FF_Energy>  (298) 
1.27

>  <QM_Energy>  (298) 
13.07

>  <source>  (298) 
ACEM_nNMA_18

>  <Index>  (298) 
10454

$$$$
ACEM-pdb2x8w-A-GLN-63:NMA-pdb2x8w-A-LEU-53
     RDKit          3D

 21 19  0  0  0  0  0  0  0  0999 V2000
   -5.7771    1.3770   -0.8820 C   0  0  0  0  0  0  0  0  0  0  0  0
   -6.4308    1.8360   -0.2978 H   0  0  0  0  0  0  0  0  0  0  0  0
   -6.1942    0.6152   -1.3570 H   0  0  0  0  0  0  0  0  0  0  0  0
   -5.4141    2.0900   -1.6223 H   0  0  0  0  0  0  0  0  0  0  0  0
   -4.6320    0.8605   -0.0304 C   0  0  0  0  0  0  0  0  0  0  0  0
   -3.6620    0.1733   -0.6616 N   0  0  0  0  0  0  0  0  0  0  0  0
   -2.8697   -0.1827   -0.1570 H   0  0  0  0  0  0  0  0  0  0  0  0
   -3.7554    0.0251   -1.6645 H   0  0  0  0  0  0  0  0  0  0  0  0
   -4.6061    1.0919    1.1805 O   0  0  0  0  0  0  0  0  0  0  0  0
   -1.0647   -2.1704   -0.1367 C   0  0  0  0  0  0  0  0  0  0  0  0
   -0.4423   -2.5323    0.5711 H   0  0  0  0  0  0  0  0  0  0  0  0
   -0.6807   -2.4658   -1.1131 H   0  0  0  0  0  0  0  0  0  0  0  0
   -2.0394   -2.6256    0.0392 H   0  0  0  0  0  0  0  0  0  0  0  0
   -1.1324   -0.7210   -0.0000 N   0  0  0  0  0  0  0  0  0  0  0  0
   -1.9960   -0.1835    0.0994 H   0  0  0  0  0  0  0  0  0  0  0  0
    0.0000    0.0000    0.0000 C   0  0  0  0  0  0  0  0  0  0  0  0
    1.1324   -0.5322    0.0000 O   0  0  0  0  0  0  0  0  0  0  0  0
   -0.1160    1.5034   -0.0009 C   0  0  0  0  0  0  0  0  0  0  0  0
   -0.4984    1.8031    0.8605 H   0  0  0  0  0  0  0  0  0  0  0  0
    0.8994    1.8925   -0.0751 H   0  0  0  0  0  0  0  0  0  0  0  0
   -0.7078    1.8745   -0.8377 H   0  0  0  0  0  0  0  0  0  0  0  0
  1  5  1  0
  5  6  1  0
  5  9  2  0
  1  2  1  0
  1  3  1  0
  1  4  1  0
  6  7  1  0
  6  8  1  0
 10 14  1  0
 14 16  1  0
 16 17  2  0
 16 18  1  0
 10 11  1  0
 10 12  1  0
 10 13  1  0
 14 15  1  0
 18 19  1  0
 18 20  1  0
 18 21  1  0
M  END
>  <PDB_ID>  (299) 
pdb2x8w

>  <RESIDUE_NAME>  (299) 
GLN   LEU

>  <FRAG_NAME>  (299) 
ACEM   NMA

>  <FRAG_ATOM_NUM>  (299) 
fragi: 9  fragj: 12

>  <atom.prop.CHAIN_ID>  (299) 
A A A A A A A A A Z Z Z Z Z Z Z Z Z Z Z Z

>  <atom.prop.IS_HEAVY_ATOM>  (299) 
1 0 0 0 1 1 0 0 1 1 0 0 0 1 0 1 1 1 0 0 0

>  <DIFUSE_FUNC_ATOM>  (299) 
n/a

>  <FINAL_SINGLE_POINT_ENERGY>  (299) 
0

>  <NONCOV_INTER_ENERGY_QM>  (299) 
0

>  <FF_Energy>  (299) 
11.38

>  <QM_Energy>  (299) 
34.31

>  <source>  (299) 
ACEM_nNMA_18

>  <Index>  (299) 
14426

$$$$
ACEM-pdb1qhb-C-ASN-125:NMA-pdb1qhb-F-VAL-370
     RDKit          3D

 21 19  0  0  0  0  0  0  0  0999 V2000
   -4.7548    0.8808    3.1950 C   0  0  0  0  0  0  0  0  0  0  0  0
   -4.4071    0.1397    3.7373 H   0  0  0  0  0  0  0  0  0  0  0  0
   -5.7317    0.8512    3.0988 H   0  0  0  0  0  0  0  0  0  0  0  0
   -4.4877    1.8179    3.6834 H   0  0  0  0  0  0  0  0  0  0  0  0
   -4.1200    0.8134    1.8045 C   0  0  0  0  0  0  0  0  0  0  0  0
   -3.3432   -0.2259    1.5326 N   0  0  0  0  0  0  0  0  0  0  0  0
   -3.2065   -0.9271    2.2424 H   0  0  0  0  0  0  0  0  0  0  0  0
   -2.9036   -0.3138    0.6475 H   0  0  0  0  0  0  0  0  0  0  0  0
   -4.3565    1.6794    0.9629 O   0  0  0  0  0  0  0  0  0  0  0  0
   -1.0513   -2.1982    0.0034 C   0  0  0  0  0  0  0  0  0  0  0  0
   -0.3979   -2.4582   -0.7081 H   0  0  0  0  0  0  0  0  0  0  0  0
   -2.0152   -2.6177   -0.2849 H   0  0  0  0  0  0  0  0  0  0  0  0
   -0.7161   -2.5425    0.9817 H   0  0  0  0  0  0  0  0  0  0  0  0
   -1.1255   -0.7332   -0.0000 N   0  0  0  0  0  0  0  0  0  0  0  0
   -1.9994   -0.1987   -0.0027 H   0  0  0  0  0  0  0  0  0  0  0  0
    0.0000    0.0000    0.0000 C   0  0  0  0  0  0  0  0  0  0  0  0
    1.1255   -0.4746   -0.0000 O   0  0  0  0  0  0  0  0  0  0  0  0
   -0.2214    1.5143   -0.0343 C   0  0  0  0  0  0  0  0  0  0  0  0
   -1.1058    1.7059    0.4341 H   0  0  0  0  0  0  0  0  0  0  0  0
    0.5582    2.0878    0.4671 H   0  0  0  0  0  0  0  0  0  0  0  0
   -0.3361    1.7920   -1.0820 H   0  0  0  0  0  0  0  0  0  0  0  0
  1  5  1  0
  5  6  1  0
  5  9  2  0
  1  2  1  0
  1  3  1  0
  1  4  1  0
  6  7  1  0
  6  8  1  0
 10 14  1  0
 14 16  1  0
 16 17  2  0
 16 18  1  0
 10 11  1  0
 10 12  1  0
 10 13  1  0
 14 15  1  0
 18 19  1  0
 18 20  1  0
 18 21  1  0
M  END
>  <PDB_ID>  (300) 
pdb1qhb

>  <RESIDUE_NAME>  (300) 
ASN   VAL

>  <FRAG_NAME>  (300) 
ACEM   NMA

>  <FRAG_ATOM_NUM>  (300) 
fragi: 9  fragj: 12

>  <atom.prop.CHAIN_ID>  (300) 
A A A A A A A A A Z Z Z Z Z Z Z Z Z Z Z Z

>  <atom.prop.IS_HEAVY_ATOM>  (300) 
1 0 0 0 1 1 0 0 1 1 0 0 0 1 0 1 1 1 0 0 0

>  <DIFUSE_FUNC_ATOM>  (300) 
n/a

>  <FINAL_SINGLE_POINT_ENERGY>  (300) 
0

>  <NONCOV_INTER_ENERGY_QM>  (300) 
0

>  <FF_Energy>  (300) 
5.83

>  <QM_Energy>  (300) 
19.19

>  <source>  (300) 
ACEM_nNMA_18

>  <Index>  (300) 
19082

$$$$
ACEM-pdb2xl7-A-GLN-139:NMA-pdb2xl7-A-SER-135
     RDKit          3D

 21 19  0  0  0  0  0  0  0  0999 V2000
   -5.2986    1.0886    0.2017 C   0  0  0  0  0  0  0  0  0  0  0  0
   -5.5266    1.9469   -0.2655 H   0  0  0  0  0  0  0  0  0  0  0  0
   -6.1292    0.7171    0.6252 H   0  0  0  0  0  0  0  0  0  0  0  0
   -4.9301    0.3746   -0.5349 H   0  0  0  0  0  0  0  0  0  0  0  0
   -4.2956    1.3914    1.2976 C   0  0  0  0  0  0  0  0  0  0  0  0
   -3.1678    0.6979    1.2471 N   0  0  0  0  0  0  0  0  0  0  0  0
   -2.4309    0.8525    1.9436 H   0  0  0  0  0  0  0  0  0  0  0  0
   -3.0393    0.0106    0.5110 H   0  0  0  0  0  0  0  0  0  0  0  0
   -4.5306    2.2300    2.1898 O   0  0  0  0  0  0  0  0  0  0  0  0
   -1.1472   -2.1713   -0.1687 C   0  0  0  0  0  0  0  0  0  0  0  0
   -0.2070   -2.5338   -0.1221 H   0  0  0  0  0  0  0  0  0  0  0  0
   -1.5943   -2.4593   -1.1201 H   0  0  0  0  0  0  0  0  0  0  0  0
   -1.6863   -2.6346    0.6576 H   0  0  0  0  0  0  0  0  0  0  0  0
   -1.1239   -0.7181   -0.0000 N   0  0  0  0  0  0  0  0  0  0  0  0
   -1.9939   -0.1489    0.1324 H   0  0  0  0  0  0  0  0  0  0  0  0
    0.0000    0.0000    0.0000 C   0  0  0  0  0  0  0  0  0  0  0  0
    1.1239   -0.5025    0.0000 O   0  0  0  0  0  0  0  0  0  0  0  0
   -0.1785    1.5291    0.0509 C   0  0  0  0  0  0  0  0  0  0  0  0
   -0.9923    1.7188    0.6140 H   0  0  0  0  0  0  0  0  0  0  0  0
    0.6796    2.0187    0.5113 H   0  0  0  0  0  0  0  0  0  0  0  0
   -0.3921    1.9601   -0.9272 H   0  0  0  0  0  0  0  0  0  0  0  0
  1  5  1  0
  5  6  1  0
  5  9  2  0
  1  2  1  0
  1  3  1  0
  1  4  1  0
  6  7  1  0
  6  8  1  0
 10 14  1  0
 14 16  1  0
 16 17  2  0
 16 18  1  0
 10 11  1  0
 10 12  1  0
 10 13  1  0
 14 15  1  0
 18 19  1  0
 18 20  1  0
 18 21  1  0
M  END
>  <PDB_ID>  (301) 
pdb2xl7

>  <RESIDUE_NAME>  (301) 
GLN   SER

>  <FRAG_NAME>  (301) 
ACEM   NMA

>  <FRAG_ATOM_NUM>  (301) 
fragi: 9  fragj: 12

>  <atom.prop.CHAIN_ID>  (301) 
A A A A A A A A A Z Z Z Z Z Z Z Z Z Z Z Z

>  <atom.prop.IS_HEAVY_ATOM>  (301) 
1 0 0 0 1 1 0 0 1 1 0 0 0 1 0 1 1 1 0 0 0

>  <DIFUSE_FUNC_ATOM>  (301) 
n/a

>  <FINAL_SINGLE_POINT_ENERGY>  (301) 
0

>  <NONCOV_INTER_ENERGY_QM>  (301) 
0

>  <FF_Energy>  (301) 
9.51

>  <QM_Energy>  (301) 
20.41

>  <source>  (301) 
ACEM_nNMA_18

>  <Index>  (301) 
22470

$$$$
ACEM-pdb1r8w-A-GLN-735:NMA-pdb1r8w-A-ALA-762
     RDKit          3D

 21 19  0  0  0  0  0  0  0  0999 V2000
   -5.9592    0.1462   -1.3394 C   0  0  0  0  0  0  0  0  0  0  0  0
   -5.9330    0.3669   -2.3147 H   0  0  0  0  0  0  0  0  0  0  0  0
   -6.0612    0.9884   -0.8092 H   0  0  0  0  0  0  0  0  0  0  0  0
   -6.8170   -0.4981   -1.1466 H   0  0  0  0  0  0  0  0  0  0  0  0
   -4.6545   -0.5088   -0.9585 C   0  0  0  0  0  0  0  0  0  0  0  0
   -3.5872    0.2818   -0.9143 N   0  0  0  0  0  0  0  0  0  0  0  0
   -2.6734   -0.0849   -0.6516 H   0  0  0  0  0  0  0  0  0  0  0  0
   -3.6956    1.2675   -1.1493 H   0  0  0  0  0  0  0  0  0  0  0  0
   -4.6028   -1.7122   -0.6984 O   0  0  0  0  0  0  0  0  0  0  0  0
   -1.0762   -2.1634    0.0023 C   0  0  0  0  0  0  0  0  0  0  0  0
   -1.8887   -2.5274   -0.4772 H   0  0  0  0  0  0  0  0  0  0  0  0
   -0.2568   -2.4743   -0.5021 H   0  0  0  0  0  0  0  0  0  0  0  0
   -1.0480   -2.5625    1.0162 H   0  0  0  0  0  0  0  0  0  0  0  0
   -1.1232   -0.7115   -0.0000 N   0  0  0  0  0  0  0  0  0  0  0  0
   -1.9939   -0.1599   -0.0017 H   0  0  0  0  0  0  0  0  0  0  0  0
    0.0000    0.0000    0.0000 C   0  0  0  0  0  0  0  0  0  0  0  0
    1.1232   -0.5183    0.0000 O   0  0  0  0  0  0  0  0  0  0  0  0
   -0.1643    1.5189    0.0069 C   0  0  0  0  0  0  0  0  0  0  0  0
   -1.0527    1.7463   -0.3956 H   0  0  0  0  0  0  0  0  0  0  0  0
   -0.1381    1.8864    1.0327 H   0  0  0  0  0  0  0  0  0  0  0  0
    0.6211    1.9872   -0.5862 H   0  0  0  0  0  0  0  0  0  0  0  0
  1  5  1  0
  5  6  1  0
  5  9  2  0
  1  2  1  0
  1  3  1  0
  1  4  1  0
  6  7  1  0
  6  8  1  0
 10 14  1  0
 14 16  1  0
 16 17  2  0
 16 18  1  0
 10 11  1  0
 10 12  1  0
 10 13  1  0
 14 15  1  0
 18 19  1  0
 18 20  1  0
 18 21  1  0
M  END
>  <PDB_ID>  (302) 
pdb1r8w

>  <RESIDUE_NAME>  (302) 
GLN   ALA

>  <FRAG_NAME>  (302) 
ACEM   NMA

>  <FRAG_ATOM_NUM>  (302) 
fragi: 9  fragj: 12

>  <atom.prop.CHAIN_ID>  (302) 
A A A A A A A A A Z Z Z Z Z Z Z Z Z Z Z Z

>  <atom.prop.IS_HEAVY_ATOM>  (302) 
1 0 0 0 1 1 0 0 1 1 0 0 0 1 0 1 1 1 0 0 0

>  <DIFUSE_FUNC_ATOM>  (302) 
n/a

>  <FINAL_SINGLE_POINT_ENERGY>  (302) 
0

>  <NONCOV_INTER_ENERGY_QM>  (302) 
0

>  <FF_Energy>  (302) 
12.76

>  <QM_Energy>  (302) 
29.0

>  <source>  (302) 
ACEM_nNMA_18

>  <Index>  (302) 
24181

$$$$
ACEM-pdb1rh1-A-ASN-265:NMA-pdb1rh1-A-VAL-286
     RDKit          3D

 21 19  0  0  0  0  0  0  0  0999 V2000
   -4.3731    2.5764    1.5700 C   0  0  0  0  0  0  0  0  0  0  0  0
   -5.3783    2.6603    1.6111 H   0  0  0  0  0  0  0  0  0  0  0  0
   -4.0040    3.4379    1.1916 H   0  0  0  0  0  0  0  0  0  0  0  0
   -4.0010    2.4680    2.5888 H   0  0  0  0  0  0  0  0  0  0  0  0
   -4.0281    1.4490    0.6118 C   0  0  0  0  0  0  0  0  0  0  0  0
   -3.1662    0.5570    1.0639 N   0  0  0  0  0  0  0  0  0  0  0  0
   -2.7823    0.6348    1.9845 H   0  0  0  0  0  0  0  0  0  0  0  0
   -2.8881   -0.2141    0.4807 H   0  0  0  0  0  0  0  0  0  0  0  0
   -4.5159    1.3534   -0.5172 O   0  0  0  0  0  0  0  0  0  0  0  0
   -1.1698   -2.1717   -0.0015 C   0  0  0  0  0  0  0  0  0  0  0  0
   -0.2966   -2.5543    0.3487 H   0  0  0  0  0  0  0  0  0  0  0  0
   -1.3647   -2.5887   -0.9895 H   0  0  0  0  0  0  0  0  0  0  0  0
   -1.9560   -2.4471    0.7015 H   0  0  0  0  0  0  0  0  0  0  0  0
   -1.1073   -0.7226    0.0000 N   0  0  0  0  0  0  0  0  0  0  0  0
   -1.9925   -0.1239    0.0015 H   0  0  0  0  0  0  0  0  0  0  0  0
    0.0000    0.0000    0.0000 C   0  0  0  0  0  0  0  0  0  0  0  0
    1.1073   -0.5087    0.0000 O   0  0  0  0  0  0  0  0  0  0  0  0
   -0.2081    1.5049   -0.0902 C   0  0  0  0  0  0  0  0  0  0  0  0
   -1.1206    1.7182    0.3350 H   0  0  0  0  0  0  0  0  0  0  0  0
    0.5397    2.1257    0.4034 H   0  0  0  0  0  0  0  0  0  0  0  0
   -0.2450    1.8413   -1.1263 H   0  0  0  0  0  0  0  0  0  0  0  0
  1  5  1  0
  5  6  1  0
  5  9  2  0
  1  2  1  0
  1  3  1  0
  1  4  1  0
  6  7  1  0
  6  8  1  0
 10 14  1  0
 14 16  1  0
 16 17  2  0
 16 18  1  0
 10 11  1  0
 10 12  1  0
 10 13  1  0
 14 15  1  0
 18 19  1  0
 18 20  1  0
 18 21  1  0
M  END
>  <PDB_ID>  (303) 
pdb1rh1

>  <RESIDUE_NAME>  (303) 
ASN   VAL

>  <FRAG_NAME>  (303) 
ACEM   NMA

>  <FRAG_ATOM_NUM>  (303) 
fragi: 9  fragj: 12

>  <atom.prop.CHAIN_ID>  (303) 
A A A A A A A A A Z Z Z Z Z Z Z Z Z Z Z Z

>  <atom.prop.IS_HEAVY_ATOM>  (303) 
1 0 0 0 1 1 0 0 1 1 0 0 0 1 0 1 1 1 0 0 0

>  <DIFUSE_FUNC_ATOM>  (303) 
n/a

>  <FINAL_SINGLE_POINT_ENERGY>  (303) 
0

>  <NONCOV_INTER_ENERGY_QM>  (303) 
0

>  <FF_Energy>  (303) 
12.09

>  <QM_Energy>  (303) 
28.85

>  <source>  (303) 
ACEM_nNMA_18

>  <Index>  (303) 
24673

$$$$
ACEM-pdb2xn0-B-ASN-260:NMA-pdb2xn0-B-ARG-225
     RDKit          3D

 21 19  0  0  0  0  0  0  0  0999 V2000
   -6.1508   -1.0556   -0.1060 C   0  0  0  0  0  0  0  0  0  0  0  0
   -6.5724   -1.8833   -0.4739 H   0  0  0  0  0  0  0  0  0  0  0  0
   -6.7333   -0.2667   -0.2998 H   0  0  0  0  0  0  0  0  0  0  0  0
   -6.0748   -1.1644    0.9759 H   0  0  0  0  0  0  0  0  0  0  0  0
   -4.8193   -0.8525   -0.7642 C   0  0  0  0  0  0  0  0  0  0  0  0
   -3.7713   -0.6996    0.0567 N   0  0  0  0  0  0  0  0  0  0  0  0
   -3.9077   -0.7319    1.0447 H   0  0  0  0  0  0  0  0  0  0  0  0
   -2.8609   -0.5558   -0.3234 H   0  0  0  0  0  0  0  0  0  0  0  0
   -4.7170   -0.8494   -2.0005 O   0  0  0  0  0  0  0  0  0  0  0  0
   -1.0856   -2.1730    0.0799 C   0  0  0  0  0  0  0  0  0  0  0  0
   -1.9338   -2.5508   -0.3231 H   0  0  0  0  0  0  0  0  0  0  0  0
   -0.3085   -2.5263   -0.4651 H   0  0  0  0  0  0  0  0  0  0  0  0
   -0.9909   -2.5232    1.1078 H   0  0  0  0  0  0  0  0  0  0  0  0
   -1.1148   -0.7257   -0.0000 N   0  0  0  0  0  0  0  0  0  0  0  0
   -1.9926   -0.1693   -0.0615 H   0  0  0  0  0  0  0  0  0  0  0  0
    0.0000    0.0000    0.0000 C   0  0  0  0  0  0  0  0  0  0  0  0
    1.1148   -0.4976    0.0000 O   0  0  0  0  0  0  0  0  0  0  0  0
   -0.1580    1.5167   -0.0027 C   0  0  0  0  0  0  0  0  0  0  0  0
    0.3723    1.8935   -0.7919 H   0  0  0  0  0  0  0  0  0  0  0  0
   -1.1870    1.8677   -0.0797 H   0  0  0  0  0  0  0  0  0  0  0  0
    0.3032    1.9298    0.8944 H   0  0  0  0  0  0  0  0  0  0  0  0
  1  5  1  0
  5  6  1  0
  5  9  2  0
  1  2  1  0
  1  3  1  0
  1  4  1  0
  6  7  1  0
  6  8  1  0
 10 14  1  0
 14 16  1  0
 16 17  2  0
 16 18  1  0
 10 11  1  0
 10 12  1  0
 10 13  1  0
 14 15  1  0
 18 19  1  0
 18 20  1  0
 18 21  1  0
M  END
>  <PDB_ID>  (304) 
pdb2xn0

>  <RESIDUE_NAME>  (304) 
ASN   ARG

>  <FRAG_NAME>  (304) 
ACEM   NMA

>  <FRAG_ATOM_NUM>  (304) 
fragi: 9  fragj: 12

>  <atom.prop.CHAIN_ID>  (304) 
A A A A A A A A A Z Z Z Z Z Z Z Z Z Z Z Z

>  <atom.prop.IS_HEAVY_ATOM>  (304) 
1 0 0 0 1 1 0 0 1 1 0 0 0 1 0 1 1 1 0 0 0

>  <DIFUSE_FUNC_ATOM>  (304) 
n/a

>  <FINAL_SINGLE_POINT_ENERGY>  (304) 
0

>  <NONCOV_INTER_ENERGY_QM>  (304) 
0

>  <FF_Energy>  (304) 
14.68

>  <QM_Energy>  (304) 
30.57

>  <source>  (304) 
ACEM_nNMA_19

>  <Index>  (304) 
2861

$$$$
ACEM-pdb2xua-H-GLN-77:NMA-pdb2xua-H-TYR-73
     RDKit          3D

 21 19  0  0  0  0  0  0  0  0999 V2000
   -5.1190    0.5962    1.4538 C   0  0  0  0  0  0  0  0  0  0  0  0
   -5.9307    1.1343    1.6231 H   0  0  0  0  0  0  0  0  0  0  0  0
   -5.1124   -0.2289    1.9986 H   0  0  0  0  0  0  0  0  0  0  0  0
   -5.1347    0.2980    0.4055 H   0  0  0  0  0  0  0  0  0  0  0  0
   -3.8952    1.4137    1.7513 C   0  0  0  0  0  0  0  0  0  0  0  0
   -2.8047    1.1897    0.9991 N   0  0  0  0  0  0  0  0  0  0  0  0
   -1.9561    1.7133    1.1385 H   0  0  0  0  0  0  0  0  0  0  0  0
   -2.8589    0.4679    0.2788 H   0  0  0  0  0  0  0  0  0  0  0  0
   -3.9201    2.2312    2.6698 O   0  0  0  0  0  0  0  0  0  0  0  0
   -1.0771   -2.1112   -0.0015 C   0  0  0  0  0  0  0  0  0  0  0  0
   -0.1359   -2.4036   -0.1886 H   0  0  0  0  0  0  0  0  0  0  0  0
   -1.7235   -2.4842   -0.7959 H   0  0  0  0  0  0  0  0  0  0  0  0
   -1.4153   -2.5144    0.9531 H   0  0  0  0  0  0  0  0  0  0  0  0
   -1.1260   -0.6734   -0.0000 N   0  0  0  0  0  0  0  0  0  0  0  0
   -1.9876   -0.1170    0.0013 H   0  0  0  0  0  0  0  0  0  0  0  0
    0.0000    0.0000    0.0000 C   0  0  0  0  0  0  0  0  0  0  0  0
    1.1260   -0.5546    0.0000 O   0  0  0  0  0  0  0  0  0  0  0  0
   -0.1440    1.4817   -0.0150 C   0  0  0  0  0  0  0  0  0  0  0  0
   -0.7845    1.7578    0.6945 H   0  0  0  0  0  0  0  0  0  0  0  0
    0.8301    1.9027    0.2337 H   0  0  0  0  0  0  0  0  0  0  0  0
   -0.5175    1.8042   -0.9869 H   0  0  0  0  0  0  0  0  0  0  0  0
  1  5  1  0
  5  6  1  0
  5  9  2  0
  1  2  1  0
  1  3  1  0
  1  4  1  0
  6  7  1  0
  6  8  1  0
 10 14  1  0
 14 16  1  0
 16 17  2  0
 16 18  1  0
 10 11  1  0
 10 12  1  0
 10 13  1  0
 14 15  1  0
 18 19  1  0
 18 20  1  0
 18 21  1  0
M  END
>  <PDB_ID>  (305) 
pdb2xua

>  <RESIDUE_NAME>  (305) 
GLN   TYR

>  <FRAG_NAME>  (305) 
ACEM   NMA

>  <FRAG_ATOM_NUM>  (305) 
fragi: 9  fragj: 12

>  <atom.prop.CHAIN_ID>  (305) 
A A A A A A A A A Z Z Z Z Z Z Z Z Z Z Z Z

>  <atom.prop.IS_HEAVY_ATOM>  (305) 
1 0 0 0 1 1 0 0 1 1 0 0 0 1 0 1 1 1 0 0 0

>  <DIFUSE_FUNC_ATOM>  (305) 
n/a

>  <FINAL_SINGLE_POINT_ENERGY>  (305) 
0

>  <NONCOV_INTER_ENERGY_QM>  (305) 
0

>  <FF_Energy>  (305) 
26.58

>  <QM_Energy>  (305) 
36.89

>  <source>  (305) 
ACEM_nNMA_19

>  <Index>  (305) 
5364

$$$$
ACEM-pdb1rqx-C-ASN-42:NMA-pdb1rqx-C-GLY-48
     RDKit          3D

 21 19  0  0  0  0  0  0  0  0999 V2000
   -5.6923    0.0792   -2.1036 C   0  0  0  0  0  0  0  0  0  0  0  0
   -6.5353    0.4149   -1.7032 H   0  0  0  0  0  0  0  0  0  0  0  0
   -5.8007   -0.8537   -2.4244 H   0  0  0  0  0  0  0  0  0  0  0  0
   -5.4306    0.7129   -2.9510 H   0  0  0  0  0  0  0  0  0  0  0  0
   -4.6088    0.0921   -1.0216 C   0  0  0  0  0  0  0  0  0  0  0  0
   -3.3591    0.2365   -1.4329 N   0  0  0  0  0  0  0  0  0  0  0  0
   -3.1660    0.3372   -2.4130 H   0  0  0  0  0  0  0  0  0  0  0  0
   -2.6083    0.2477   -0.7746 H   0  0  0  0  0  0  0  0  0  0  0  0
   -4.9070   -0.0236    0.1715 O   0  0  0  0  0  0  0  0  0  0  0  0
   -1.0984   -2.1664    0.0629 C   0  0  0  0  0  0  0  0  0  0  0  0
   -1.3878   -2.5498   -0.8112 H   0  0  0  0  0  0  0  0  0  0  0  0
   -0.1762   -2.4798    0.2792 H   0  0  0  0  0  0  0  0  0  0  0  0
   -1.7833   -2.4944    0.8449 H   0  0  0  0  0  0  0  0  0  0  0  0
   -1.1259   -0.7157   -0.0000 N   0  0  0  0  0  0  0  0  0  0  0  0
   -1.9960   -0.1551   -0.0479 H   0  0  0  0  0  0  0  0  0  0  0  0
    0.0000    0.0000    0.0000 C   0  0  0  0  0  0  0  0  0  0  0  0
    1.1259   -0.5210    0.0000 O   0  0  0  0  0  0  0  0  0  0  0  0
   -0.1842    1.5164   -0.0305 C   0  0  0  0  0  0  0  0  0  0  0  0
   -0.1365    1.8728    0.9372 H   0  0  0  0  0  0  0  0  0  0  0  0
   -1.1477    1.7242   -0.3358 H   0  0  0  0  0  0  0  0  0  0  0  0
    0.5107    2.0845   -0.6489 H   0  0  0  0  0  0  0  0  0  0  0  0
  1  5  1  0
  5  6  1  0
  5  9  2  0
  1  2  1  0
  1  3  1  0
  1  4  1  0
  6  7  1  0
  6  8  1  0
 10 14  1  0
 14 16  1  0
 16 17  2  0
 16 18  1  0
 10 11  1  0
 10 12  1  0
 10 13  1  0
 14 15  1  0
 18 19  1  0
 18 20  1  0
 18 21  1  0
M  END
>  <PDB_ID>  (306) 
pdb1rqx

>  <RESIDUE_NAME>  (306) 
ASN   GLY

>  <FRAG_NAME>  (306) 
ACEM   NMA

>  <FRAG_ATOM_NUM>  (306) 
fragi: 9  fragj: 12

>  <atom.prop.CHAIN_ID>  (306) 
A A A A A A A A A Z Z Z Z Z Z Z Z Z Z Z Z

>  <atom.prop.IS_HEAVY_ATOM>  (306) 
1 0 0 0 1 1 0 0 1 1 0 0 0 1 0 1 1 1 0 0 0

>  <DIFUSE_FUNC_ATOM>  (306) 
n/a

>  <FINAL_SINGLE_POINT_ENERGY>  (306) 
0

>  <NONCOV_INTER_ENERGY_QM>  (306) 
0

>  <FF_Energy>  (306) 
8.88

>  <QM_Energy>  (306) 
23.12

>  <source>  (306) 
ACEM_nNMA_19

>  <Index>  (306) 
6909

$$$$
ACEM-pdb2y28-A-GLN-86:NMA-pdb2y28-A-TRP-7
     RDKit          3D

 21 19  0  0  0  0  0  0  0  0999 V2000
   -5.8238    1.0080   -0.2431 C   0  0  0  0  0  0  0  0  0  0  0  0
   -5.9563    1.8916    0.2262 H   0  0  0  0  0  0  0  0  0  0  0  0
   -6.5854    0.3994    0.0169 H   0  0  0  0  0  0  0  0  0  0  0  0
   -5.8823    1.1835   -1.3173 H   0  0  0  0  0  0  0  0  0  0  0  0
   -4.5256    0.3949    0.2395 C   0  0  0  0  0  0  0  0  0  0  0  0
   -3.6634    0.0069   -0.6900 N   0  0  0  0  0  0  0  0  0  0  0  0
   -2.7678   -0.3999   -0.4411 H   0  0  0  0  0  0  0  0  0  0  0  0
   -3.9159    0.1239   -1.6735 H   0  0  0  0  0  0  0  0  0  0  0  0
   -4.3091    0.2580    1.4535 O   0  0  0  0  0  0  0  0  0  0  0  0
   -1.0889   -2.1442   -0.2175 C   0  0  0  0  0  0  0  0  0  0  0  0
   -0.4729   -2.5583    0.4370 H   0  0  0  0  0  0  0  0  0  0  0  0
   -0.6831   -2.2982   -1.2173 H   0  0  0  0  0  0  0  0  0  0  0  0
   -2.1015   -2.5438   -0.1631 H   0  0  0  0  0  0  0  0  0  0  0  0
   -1.1207   -0.7089   -0.0000 N   0  0  0  0  0  0  0  0  0  0  0  0
   -1.9855   -0.1677    0.1629 H   0  0  0  0  0  0  0  0  0  0  0  0
    0.0000    0.0000    0.0000 C   0  0  0  0  0  0  0  0  0  0  0  0
    1.1207   -0.5140    0.0000 O   0  0  0  0  0  0  0  0  0  0  0  0
   -0.1612    1.5046   -0.0101 C   0  0  0  0  0  0  0  0  0  0  0  0
   -1.1143    1.7148    0.2459 H   0  0  0  0  0  0  0  0  0  0  0  0
    0.4880    1.9824    0.7236 H   0  0  0  0  0  0  0  0  0  0  0  0
    0.0325    1.8773   -1.0159 H   0  0  0  0  0  0  0  0  0  0  0  0
  1  5  1  0
  5  6  1  0
  5  9  2  0
  1  2  1  0
  1  3  1  0
  1  4  1  0
  6  7  1  0
  6  8  1  0
 10 14  1  0
 14 16  1  0
 16 17  2  0
 16 18  1  0
 10 11  1  0
 10 12  1  0
 10 13  1  0
 14 15  1  0
 18 19  1  0
 18 20  1  0
 18 21  1  0
M  END
>  <PDB_ID>  (307) 
pdb2y28

>  <RESIDUE_NAME>  (307) 
GLN   TRP

>  <FRAG_NAME>  (307) 
ACEM   NMA

>  <FRAG_ATOM_NUM>  (307) 
fragi: 9  fragj: 12

>  <atom.prop.CHAIN_ID>  (307) 
A A A A A A A A A Z Z Z Z Z Z Z Z Z Z Z Z

>  <atom.prop.IS_HEAVY_ATOM>  (307) 
1 0 0 0 1 1 0 0 1 1 0 0 0 1 0 1 1 1 0 0 0

>  <DIFUSE_FUNC_ATOM>  (307) 
n/a

>  <FINAL_SINGLE_POINT_ENERGY>  (307) 
0

>  <NONCOV_INTER_ENERGY_QM>  (307) 
0

>  <FF_Energy>  (307) 
7.79

>  <QM_Energy>  (307) 
25.17

>  <source>  (307) 
ACEM_nNMA_19

>  <Index>  (307) 
7953

$$$$
ACEM-pdb1rxx-B-GLN-354:NMA-pdb1rxx-A-TRP-47
     RDKit          3D

 21 19  0  0  0  0  0  0  0  0999 V2000
   -5.6462    1.3928   -1.6265 C   0  0  0  0  0  0  0  0  0  0  0  0
   -5.4451    1.1368   -2.5651 H   0  0  0  0  0  0  0  0  0  0  0  0
   -6.0635    2.2937   -1.5922 H   0  0  0  0  0  0  0  0  0  0  0  0
   -6.3302    0.6628   -1.1935 H   0  0  0  0  0  0  0  0  0  0  0  0
   -4.3284    1.4443   -0.8516 C   0  0  0  0  0  0  0  0  0  0  0  0
   -3.3964    0.5866   -1.2127 N   0  0  0  0  0  0  0  0  0  0  0  0
   -2.4902    0.5713   -0.7527 H   0  0  0  0  0  0  0  0  0  0  0  0
   -3.5944   -0.0730   -1.9680 H   0  0  0  0  0  0  0  0  0  0  0  0
   -4.1470    2.2647    0.0293 O   0  0  0  0  0  0  0  0  0  0  0  0
   -1.1436   -2.1504    0.0231 C   0  0  0  0  0  0  0  0  0  0  0  0
   -0.7554   -2.4580    0.9305 H   0  0  0  0  0  0  0  0  0  0  0  0
   -0.5945   -2.6789   -0.7562 H   0  0  0  0  0  0  0  0  0  0  0  0
   -2.1860   -2.4630    0.0843 H   0  0  0  0  0  0  0  0  0  0  0  0
   -1.1194   -0.6981    0.0000 N   0  0  0  0  0  0  0  0  0  0  0  0
   -1.9928   -0.1157   -0.0180 H   0  0  0  0  0  0  0  0  0  0  0  0
    0.0000    0.0000    0.0000 C   0  0  0  0  0  0  0  0  0  0  0  0
    1.1194   -0.5323   -0.0000 O   0  0  0  0  0  0  0  0  0  0  0  0
   -0.1705    1.5373    0.0579 C   0  0  0  0  0  0  0  0  0  0  0  0
   -1.0967    1.7314   -0.1831 H   0  0  0  0  0  0  0  0  0  0  0  0
   -0.0328    1.7608    1.1159 H   0  0  0  0  0  0  0  0  0  0  0  0
    0.5993    2.0490   -0.5196 H   0  0  0  0  0  0  0  0  0  0  0  0
  1  5  1  0
  5  6  1  0
  5  9  2  0
  1  2  1  0
  1  3  1  0
  1  4  1  0
  6  7  1  0
  6  8  1  0
 10 14  1  0
 14 16  1  0
 16 17  2  0
 16 18  1  0
 10 11  1  0
 10 12  1  0
 10 13  1  0
 14 15  1  0
 18 19  1  0
 18 20  1  0
 18 21  1  0
M  END
>  <PDB_ID>  (308) 
pdb1rxx

>  <RESIDUE_NAME>  (308) 
GLN   TRP

>  <FRAG_NAME>  (308) 
ACEM   NMA

>  <FRAG_ATOM_NUM>  (308) 
fragi: 9  fragj: 12

>  <atom.prop.CHAIN_ID>  (308) 
A A A A A A A A A Z Z Z Z Z Z Z Z Z Z Z Z

>  <atom.prop.IS_HEAVY_ATOM>  (308) 
1 0 0 0 1 1 0 0 1 1 0 0 0 1 0 1 1 1 0 0 0

>  <DIFUSE_FUNC_ATOM>  (308) 
n/a

>  <FINAL_SINGLE_POINT_ENERGY>  (308) 
0

>  <NONCOV_INTER_ENERGY_QM>  (308) 
0

>  <FF_Energy>  (308) 
5.7

>  <QM_Energy>  (308) 
17.11

>  <source>  (308) 
ACEM_nNMA_19

>  <Index>  (308) 
8161

$$$$
ACEM-pdb1s6r-A-GLN-136:NMA-pdb1s6r-A-THR-97
     RDKit          3D

 21 19  0  0  0  0  0  0  0  0999 V2000
   -5.3258    0.6517    1.9563 C   0  0  0  0  0  0  0  0  0  0  0  0
   -5.6697    0.8160    1.0269 H   0  0  0  0  0  0  0  0  0  0  0  0
   -5.5385    1.4518    2.5246 H   0  0  0  0  0  0  0  0  0  0  0  0
   -5.8384   -0.2168    2.3700 H   0  0  0  0  0  0  0  0  0  0  0  0
   -3.8208    0.4945    1.8905 C   0  0  0  0  0  0  0  0  0  0  0  0
   -3.3565   -0.4324    1.0574 N   0  0  0  0  0  0  0  0  0  0  0  0
   -2.3575   -0.5848    0.9503 H   0  0  0  0  0  0  0  0  0  0  0  0
   -4.0217   -0.9910    0.5254 H   0  0  0  0  0  0  0  0  0  0  0  0
   -3.0757    1.1933    2.5823 O   0  0  0  0  0  0  0  0  0  0  0  0
   -1.0376   -2.1843   -0.0467 C   0  0  0  0  0  0  0  0  0  0  0  0
   -0.6296   -2.5302    0.8141 H   0  0  0  0  0  0  0  0  0  0  0  0
   -1.9723   -2.5684   -0.1135 H   0  0  0  0  0  0  0  0  0  0  0  0
   -0.4448   -2.5386   -0.8900 H   0  0  0  0  0  0  0  0  0  0  0  0
   -1.1117   -0.7363   -0.0000 N   0  0  0  0  0  0  0  0  0  0  0  0
   -1.9919   -0.1995    0.0352 H   0  0  0  0  0  0  0  0  0  0  0  0
    0.0000    0.0000    0.0000 C   0  0  0  0  0  0  0  0  0  0  0  0
    1.1117   -0.5314   -0.0000 O   0  0  0  0  0  0  0  0  0  0  0  0
   -0.2060    1.5055   -0.0188 C   0  0  0  0  0  0  0  0  0  0  0  0
    0.2493    1.8819   -0.8364 H   0  0  0  0  0  0  0  0  0  0  0  0
   -1.2637    1.7640   -0.0700 H   0  0  0  0  0  0  0  0  0  0  0  0
    0.2507    1.9897    0.8444 H   0  0  0  0  0  0  0  0  0  0  0  0
  1  5  1  0
  5  6  1  0
  5  9  2  0
  1  2  1  0
  1  3  1  0
  1  4  1  0
  6  7  1  0
  6  8  1  0
 10 14  1  0
 14 16  1  0
 16 17  2  0
 16 18  1  0
 10 11  1  0
 10 12  1  0
 10 13  1  0
 14 15  1  0
 18 19  1  0
 18 20  1  0
 18 21  1  0
M  END
>  <PDB_ID>  (309) 
pdb1s6r

>  <RESIDUE_NAME>  (309) 
GLN   THR

>  <FRAG_NAME>  (309) 
ACEM   NMA

>  <FRAG_ATOM_NUM>  (309) 
fragi: 9  fragj: 12

>  <atom.prop.CHAIN_ID>  (309) 
A A A A A A A A A Z Z Z Z Z Z Z Z Z Z Z Z

>  <atom.prop.IS_HEAVY_ATOM>  (309) 
1 0 0 0 1 1 0 0 1 1 0 0 0 1 0 1 1 1 0 0 0

>  <DIFUSE_FUNC_ATOM>  (309) 
n/a

>  <FINAL_SINGLE_POINT_ENERGY>  (309) 
0

>  <NONCOV_INTER_ENERGY_QM>  (309) 
0

>  <FF_Energy>  (309) 
18.85

>  <QM_Energy>  (309) 
31.15

>  <source>  (309) 
ACEM_nNMA_19

>  <Index>  (309) 
16711

$$$$
ACEM-pdb1sa3-A-GLN-155:NMA-pdb1sa3-A-ASP-132
     RDKit          3D

 21 19  0  0  0  0  0  0  0  0999 V2000
   -5.3858    0.9372    1.9909 C   0  0  0  0  0  0  0  0  0  0  0  0
   -6.2206    1.1998    1.5140 H   0  0  0  0  0  0  0  0  0  0  0  0
   -5.1350    1.6406    2.6505 H   0  0  0  0  0  0  0  0  0  0  0  0
   -5.5672    0.0048    2.5255 H   0  0  0  0  0  0  0  0  0  0  0  0
   -4.2600    0.8134    0.9630 C   0  0  0  0  0  0  0  0  0  0  0  0
   -3.0388    0.5981    1.4414 N   0  0  0  0  0  0  0  0  0  0  0  0
   -2.2485    0.4920    0.8178 H   0  0  0  0  0  0  0  0  0  0  0  0
   -2.9110    0.5421    2.4513 H   0  0  0  0  0  0  0  0  0  0  0  0
   -4.4918    0.9159   -0.2456 O   0  0  0  0  0  0  0  0  0  0  0  0
   -1.0907   -2.1692    0.0214 C   0  0  0  0  0  0  0  0  0  0  0  0
   -0.7297   -2.4665    0.9264 H   0  0  0  0  0  0  0  0  0  0  0  0
   -0.4568   -2.6128   -0.7463 H   0  0  0  0  0  0  0  0  0  0  0  0
   -2.1019   -2.5640   -0.0773 H   0  0  0  0  0  0  0  0  0  0  0  0
   -1.1172   -0.7163    0.0000 N   0  0  0  0  0  0  0  0  0  0  0  0
   -1.9938   -0.1575   -0.0159 H   0  0  0  0  0  0  0  0  0  0  0  0
    0.0000    0.0000    0.0000 C   0  0  0  0  0  0  0  0  0  0  0  0
    1.1172   -0.5136   -0.0000 O   0  0  0  0  0  0  0  0  0  0  0  0
   -0.1546    1.5210   -0.0113 C   0  0  0  0  0  0  0  0  0  0  0  0
   -0.9356    1.7321    0.5463 H   0  0  0  0  0  0  0  0  0  0  0  0
    0.7341    1.8763    0.5103 H   0  0  0  0  0  0  0  0  0  0  0  0
   -0.1739    1.8665   -1.0449 H   0  0  0  0  0  0  0  0  0  0  0  0
  1  5  1  0
  5  6  1  0
  5  9  2  0
  1  2  1  0
  1  3  1  0
  1  4  1  0
  6  7  1  0
  6  8  1  0
 10 14  1  0
 14 16  1  0
 16 17  2  0
 16 18  1  0
 10 11  1  0
 10 12  1  0
 10 13  1  0
 14 15  1  0
 18 19  1  0
 18 20  1  0
 18 21  1  0
M  END
>  <PDB_ID>  (310) 
pdb1sa3

>  <RESIDUE_NAME>  (310) 
GLN   ASP

>  <FRAG_NAME>  (310) 
ACEM   NMA

>  <FRAG_ATOM_NUM>  (310) 
fragi: 9  fragj: 12

>  <atom.prop.CHAIN_ID>  (310) 
A A A A A A A A A Z Z Z Z Z Z Z Z Z Z Z Z

>  <atom.prop.IS_HEAVY_ATOM>  (310) 
1 0 0 0 1 1 0 0 1 1 0 0 0 1 0 1 1 1 0 0 0

>  <DIFUSE_FUNC_ATOM>  (310) 
n/a

>  <FINAL_SINGLE_POINT_ENERGY>  (310) 
0

>  <NONCOV_INTER_ENERGY_QM>  (310) 
0

>  <FF_Energy>  (310) 
9.54

>  <QM_Energy>  (310) 
22.2

>  <source>  (310) 
ACEM_nNMA_19

>  <Index>  (310) 
19204

$$$$
ACEM-pdb2yle-A-GLN-87:NMA-pdb2yle-A-VAL-82
     RDKit          3D

 21 19  0  0  0  0  0  0  0  0999 V2000
   -5.3589    0.6102   -2.0324 C   0  0  0  0  0  0  0  0  0  0  0  0
   -6.2405    1.0443   -1.8794 H   0  0  0  0  0  0  0  0  0  0  0  0
   -5.4801   -0.2794   -2.4605 H   0  0  0  0  0  0  0  0  0  0  0  0
   -4.7422    1.2444   -2.6692 H   0  0  0  0  0  0  0  0  0  0  0  0
   -4.6965    0.3970   -0.6755 C   0  0  0  0  0  0  0  0  0  0  0  0
   -3.4723   -0.1195   -0.6767 N   0  0  0  0  0  0  0  0  0  0  0  0
   -2.9701   -0.2740    0.1862 H   0  0  0  0  0  0  0  0  0  0  0  0
   -3.0446   -0.3604   -1.5718 H   0  0  0  0  0  0  0  0  0  0  0  0
   -5.2855    0.6893    0.3481 O   0  0  0  0  0  0  0  0  0  0  0  0
   -1.1044   -2.1891    0.0559 C   0  0  0  0  0  0  0  0  0  0  0  0
   -0.3392   -2.4762    0.6576 H   0  0  0  0  0  0  0  0  0  0  0  0
   -0.9739   -2.6597   -0.9186 H   0  0  0  0  0  0  0  0  0  0  0  0
   -2.0259   -2.5618    0.5031 H   0  0  0  0  0  0  0  0  0  0  0  0
   -1.1214   -0.7151   -0.0000 N   0  0  0  0  0  0  0  0  0  0  0  0
   -1.9967   -0.1612   -0.0421 H   0  0  0  0  0  0  0  0  0  0  0  0
    0.0000    0.0000    0.0000 C   0  0  0  0  0  0  0  0  0  0  0  0
    1.1214   -0.5161   -0.0000 O   0  0  0  0  0  0  0  0  0  0  0  0
   -0.1509    1.5262   -0.0107 C   0  0  0  0  0  0  0  0  0  0  0  0
   -1.1105    1.7363   -0.1540 H   0  0  0  0  0  0  0  0  0  0  0  0
    0.1405    1.8924    0.9737 H   0  0  0  0  0  0  0  0  0  0  0  0
    0.4798    1.9418   -0.7967 H   0  0  0  0  0  0  0  0  0  0  0  0
  1  5  1  0
  5  6  1  0
  5  9  2  0
  1  2  1  0
  1  3  1  0
  1  4  1  0
  6  7  1  0
  6  8  1  0
 10 14  1  0
 14 16  1  0
 16 17  2  0
 16 18  1  0
 10 11  1  0
 10 12  1  0
 10 13  1  0
 14 15  1  0
 18 19  1  0
 18 20  1  0
 18 21  1  0
M  END
>  <PDB_ID>  (311) 
pdb2yle

>  <RESIDUE_NAME>  (311) 
GLN   VAL

>  <FRAG_NAME>  (311) 
ACEM   NMA

>  <FRAG_ATOM_NUM>  (311) 
fragi: 9  fragj: 12

>  <atom.prop.CHAIN_ID>  (311) 
A A A A A A A A A Z Z Z Z Z Z Z Z Z Z Z Z

>  <atom.prop.IS_HEAVY_ATOM>  (311) 
1 0 0 0 1 1 0 0 1 1 0 0 0 1 0 1 1 1 0 0 0

>  <DIFUSE_FUNC_ATOM>  (311) 
n/a

>  <FINAL_SINGLE_POINT_ENERGY>  (311) 
0

>  <NONCOV_INTER_ENERGY_QM>  (311) 
0

>  <FF_Energy>  (311) 
21.57

>  <QM_Energy>  (311) 
34.04

>  <source>  (311) 
ACEM_nNMA_19

>  <Index>  (311) 
22979

$$$$
ACEM-pdb2ykg-A-ASN-710:NMA-pdb2ykg-A-THR-628
     RDKit          3D

 21 19  0  0  0  0  0  0  0  0999 V2000
   -5.6881    1.3981   -0.2317 C   0  0  0  0  0  0  0  0  0  0  0  0
   -5.6260    2.3114   -0.6221 H   0  0  0  0  0  0  0  0  0  0  0  0
   -6.2204    1.4197    0.6099 H   0  0  0  0  0  0  0  0  0  0  0  0
   -6.2055    0.7566   -0.9451 H   0  0  0  0  0  0  0  0  0  0  0  0
   -4.2917    0.9077    0.0861 C   0  0  0  0  0  0  0  0  0  0  0  0
   -3.9608   -0.2791   -0.3909 N   0  0  0  0  0  0  0  0  0  0  0  0
   -4.6179   -0.8040   -0.9371 H   0  0  0  0  0  0  0  0  0  0  0  0
   -3.0531   -0.6612   -0.2096 H   0  0  0  0  0  0  0  0  0  0  0  0
   -3.5170    1.5933    0.7472 O   0  0  0  0  0  0  0  0  0  0  0  0
   -1.1645   -2.1485   -0.2118 C   0  0  0  0  0  0  0  0  0  0  0  0
   -0.2250   -2.4486   -0.2987 H   0  0  0  0  0  0  0  0  0  0  0  0
   -1.6302   -2.3115   -1.1837 H   0  0  0  0  0  0  0  0  0  0  0  0
   -1.7288   -2.6644    0.5651 H   0  0  0  0  0  0  0  0  0  0  0  0
   -1.1257   -0.7099    0.0000 N   0  0  0  0  0  0  0  0  0  0  0  0
   -1.9903   -0.1360    0.1676 H   0  0  0  0  0  0  0  0  0  0  0  0
    0.0000    0.0000    0.0000 C   0  0  0  0  0  0  0  0  0  0  0  0
    1.1257   -0.5086    0.0000 O   0  0  0  0  0  0  0  0  0  0  0  0
   -0.1793    1.5268    0.0677 C   0  0  0  0  0  0  0  0  0  0  0  0
   -1.0400    1.7177    0.5413 H   0  0  0  0  0  0  0  0  0  0  0  0
    0.6382    1.9709    0.6358 H   0  0  0  0  0  0  0  0  0  0  0  0
   -0.2616    1.9578   -0.9300 H   0  0  0  0  0  0  0  0  0  0  0  0
  1  5  1  0
  5  6  1  0
  5  9  2  0
  1  2  1  0
  1  3  1  0
  1  4  1  0
  6  7  1  0
  6  8  1  0
 10 14  1  0
 14 16  1  0
 16 17  2  0
 16 18  1  0
 10 11  1  0
 10 12  1  0
 10 13  1  0
 14 15  1  0
 18 19  1  0
 18 20  1  0
 18 21  1  0
M  END
>  <PDB_ID>  (312) 
pdb2ykg

>  <RESIDUE_NAME>  (312) 
ASN   THR

>  <FRAG_NAME>  (312) 
ACEM   NMA

>  <FRAG_ATOM_NUM>  (312) 
fragi: 9  fragj: 12

>  <atom.prop.CHAIN_ID>  (312) 
A A A A A A A A A Z Z Z Z Z Z Z Z Z Z Z Z

>  <atom.prop.IS_HEAVY_ATOM>  (312) 
1 0 0 0 1 1 0 0 1 1 0 0 0 1 0 1 1 1 0 0 0

>  <DIFUSE_FUNC_ATOM>  (312) 
n/a

>  <FINAL_SINGLE_POINT_ENERGY>  (312) 
0

>  <NONCOV_INTER_ENERGY_QM>  (312) 
0

>  <FF_Energy>  (312) 
-2.87

>  <QM_Energy>  (312) 
9.37

>  <source>  (312) 
ACEM_nNMA_19

>  <Index>  (312) 
24522

$$$$
ACEM-pdb2ybv-E-ASN-352:NMA-pdb2ybv-E-ALA-369
     RDKit          3D

 21 19  0  0  0  0  0  0  0  0999 V2000
   -6.2270   -0.3981    0.3814 C   0  0  0  0  0  0  0  0  0  0  0  0
   -6.2157   -1.3840    0.3899 H   0  0  0  0  0  0  0  0  0  0  0  0
   -6.9195   -0.0445   -0.2257 H   0  0  0  0  0  0  0  0  0  0  0  0
   -6.4102   -0.0305    1.3911 H   0  0  0  0  0  0  0  0  0  0  0  0
   -4.8263    0.0790   -0.1803 C   0  0  0  0  0  0  0  0  0  0  0  0
   -3.7278   -0.3194    0.5071 N   0  0  0  0  0  0  0  0  0  0  0  0
   -3.8622   -0.8901    1.3181 H   0  0  0  0  0  0  0  0  0  0  0  0
   -2.8313   -0.0471    0.2060 H   0  0  0  0  0  0  0  0  0  0  0  0
   -4.7489    0.7518   -1.2653 O   0  0  0  0  0  0  0  0  0  0  0  0
   -1.1287   -2.1945   -0.0464 C   0  0  0  0  0  0  0  0  0  0  0  0
   -2.1054   -2.4830   -0.1865 H   0  0  0  0  0  0  0  0  0  0  0  0
   -0.7566   -2.7189    0.8337 H   0  0  0  0  0  0  0  0  0  0  0  0
   -0.6075   -2.5385   -0.9398 H   0  0  0  0  0  0  0  0  0  0  0  0
   -1.1050   -0.7269    0.0000 N   0  0  0  0  0  0  0  0  0  0  0  0
   -1.9923   -0.1569    0.0371 H   0  0  0  0  0  0  0  0  0  0  0  0
    0.0000    0.0000    0.0000 C   0  0  0  0  0  0  0  0  0  0  0  0
    1.1050   -0.4915   -0.0000 O   0  0  0  0  0  0  0  0  0  0  0  0
   -0.2069    1.4880    0.0446 C   0  0  0  0  0  0  0  0  0  0  0  0
   -0.5373    1.8079   -0.8537 H   0  0  0  0  0  0  0  0  0  0  0  0
   -0.9510    1.7636    0.7918 H   0  0  0  0  0  0  0  0  0  0  0  0
    0.7383    1.9832    0.2672 H   0  0  0  0  0  0  0  0  0  0  0  0
  1  5  1  0
  5  6  1  0
  5  9  2  0
  1  2  1  0
  1  3  1  0
  1  4  1  0
  6  7  1  0
  6  8  1  0
 10 14  1  0
 14 16  1  0
 16 17  2  0
 16 18  1  0
 10 11  1  0
 10 12  1  0
 10 13  1  0
 14 15  1  0
 18 19  1  0
 18 20  1  0
 18 21  1  0
M  END
>  <PDB_ID>  (313) 
pdb2ybv

>  <RESIDUE_NAME>  (313) 
ASN   ALA

>  <FRAG_NAME>  (313) 
ACEM   NMA

>  <FRAG_ATOM_NUM>  (313) 
fragi: 9  fragj: 12

>  <atom.prop.CHAIN_ID>  (313) 
A A A A A A A A A Z Z Z Z Z Z Z Z Z Z Z Z

>  <atom.prop.IS_HEAVY_ATOM>  (313) 
1 0 0 0 1 1 0 0 1 1 0 0 0 1 0 1 1 1 0 0 0

>  <DIFUSE_FUNC_ATOM>  (313) 
n/a

>  <FINAL_SINGLE_POINT_ENERGY>  (313) 
0

>  <NONCOV_INTER_ENERGY_QM>  (313) 
0

>  <FF_Energy>  (313) 
15.17

>  <QM_Energy>  (313) 
41.61

>  <source>  (313) 
ACEM_nNMA_19

>  <Index>  (313) 
27321

$$$$
ACEM-pdb1sk4-A-GLN-248:NMA-pdb1sk4-A-PRO-286
     RDKit          3D

 21 19  0  0  0  0  0  0  0  0999 V2000
   -4.6872    1.5934   -0.4239 C   0  0  0  0  0  0  0  0  0  0  0  0
   -3.9697    1.1811   -0.9857 H   0  0  0  0  0  0  0  0  0  0  0  0
   -4.8235    2.5440   -0.7039 H   0  0  0  0  0  0  0  0  0  0  0  0
   -5.6152    1.0459   -0.5887 H   0  0  0  0  0  0  0  0  0  0  0  0
   -4.2533    1.5663    1.0150 C   0  0  0  0  0  0  0  0  0  0  0  0
   -3.2180    0.7846    1.3055 N   0  0  0  0  0  0  0  0  0  0  0  0
   -2.8561    0.7234    2.2577 H   0  0  0  0  0  0  0  0  0  0  0  0
   -2.7872    0.2416    0.5593 H   0  0  0  0  0  0  0  0  0  0  0  0
   -4.8462    2.2297    1.8658 O   0  0  0  0  0  0  0  0  0  0  0  0
   -1.0443   -2.1752   -0.0023 C   0  0  0  0  0  0  0  0  0  0  0  0
   -0.3909   -2.4422    0.7186 H   0  0  0  0  0  0  0  0  0  0  0  0
   -0.6504   -2.5574   -0.9440 H   0  0  0  0  0  0  0  0  0  0  0  0
   -2.0185   -2.6190    0.2031 H   0  0  0  0  0  0  0  0  0  0  0  0
   -1.1197   -0.7183   -0.0000 N   0  0  0  0  0  0  0  0  0  0  0  0
   -1.9931   -0.1832    0.0013 H   0  0  0  0  0  0  0  0  0  0  0  0
    0.0000    0.0000    0.0000 C   0  0  0  0  0  0  0  0  0  0  0  0
    1.1197   -0.5171    0.0000 O   0  0  0  0  0  0  0  0  0  0  0  0
   -0.1309    1.5221   -0.0041 C   0  0  0  0  0  0  0  0  0  0  0  0
   -0.8751    1.8164    0.5589 H   0  0  0  0  0  0  0  0  0  0  0  0
    0.8255    1.8807    0.3767 H   0  0  0  0  0  0  0  0  0  0  0  0
   -0.1562    1.9145   -1.0206 H   0  0  0  0  0  0  0  0  0  0  0  0
  1  5  1  0
  5  6  1  0
  5  9  2  0
  1  2  1  0
  1  3  1  0
  1  4  1  0
  6  7  1  0
  6  8  1  0
 10 14  1  0
 14 16  1  0
 16 17  2  0
 16 18  1  0
 10 11  1  0
 10 12  1  0
 10 13  1  0
 14 15  1  0
 18 19  1  0
 18 20  1  0
 18 21  1  0
M  END
>  <PDB_ID>  (314) 
pdb1sk4

>  <RESIDUE_NAME>  (314) 
GLN   PRO

>  <FRAG_NAME>  (314) 
ACEM   NMA

>  <FRAG_ATOM_NUM>  (314) 
fragi: 9  fragj: 12

>  <atom.prop.CHAIN_ID>  (314) 
A A A A A A A A A Z Z Z Z Z Z Z Z Z Z Z Z

>  <atom.prop.IS_HEAVY_ATOM>  (314) 
1 0 0 0 1 1 0 0 1 1 0 0 0 1 0 1 1 1 0 0 0

>  <DIFUSE_FUNC_ATOM>  (314) 
n/a

>  <FINAL_SINGLE_POINT_ENERGY>  (314) 
0

>  <NONCOV_INTER_ENERGY_QM>  (314) 
0

>  <FF_Energy>  (314) 
8.91

>  <QM_Energy>  (314) 
21.35

>  <source>  (314) 
ACEM_nNMA_19

>  <Index>  (314) 
27581

$$$$
ACEM-pdb2yvw-A-ASN-176:NMA-pdb2yvw-A-LEU-106
     RDKit          3D

 21 19  0  0  0  0  0  0  0  0999 V2000
   -5.6118   -1.0526    2.0496 C   0  0  0  0  0  0  0  0  0  0  0  0
   -6.4653   -0.5657    2.2031 H   0  0  0  0  0  0  0  0  0  0  0  0
   -5.2625   -1.4184    2.9062 H   0  0  0  0  0  0  0  0  0  0  0  0
   -5.8080   -1.8862    1.3752 H   0  0  0  0  0  0  0  0  0  0  0  0
   -4.5913   -0.0777    1.4856 C   0  0  0  0  0  0  0  0  0  0  0  0
   -3.7747   -0.5486    0.5470 N   0  0  0  0  0  0  0  0  0  0  0  0
   -3.8610   -1.5006    0.2469 H   0  0  0  0  0  0  0  0  0  0  0  0
   -3.0802    0.0430    0.1421 H   0  0  0  0  0  0  0  0  0  0  0  0
   -4.5462    1.0888    1.8815 O   0  0  0  0  0  0  0  0  0  0  0  0
   -1.0559   -2.1702    0.0053 C   0  0  0  0  0  0  0  0  0  0  0  0
   -0.6590   -2.4857    0.8889 H   0  0  0  0  0  0  0  0  0  0  0  0
   -2.0013   -2.5467   -0.0370 H   0  0  0  0  0  0  0  0  0  0  0  0
   -0.4714   -2.5864   -0.8151 H   0  0  0  0  0  0  0  0  0  0  0  0
   -1.1180   -0.7160   -0.0000 N   0  0  0  0  0  0  0  0  0  0  0  0
   -1.9931   -0.1741   -0.0040 H   0  0  0  0  0  0  0  0  0  0  0  0
    0.0000    0.0000    0.0000 C   0  0  0  0  0  0  0  0  0  0  0  0
    1.1180   -0.5169    0.0000 O   0  0  0  0  0  0  0  0  0  0  0  0
   -0.1517    1.5196   -0.0076 C   0  0  0  0  0  0  0  0  0  0  0  0
    0.7753    1.9298   -0.0998 H   0  0  0  0  0  0  0  0  0  0  0  0
   -0.7754    1.8962   -0.8183 H   0  0  0  0  0  0  0  0  0  0  0  0
   -0.5425    1.8660    0.9491 H   0  0  0  0  0  0  0  0  0  0  0  0
  1  5  1  0
  5  6  1  0
  5  9  2  0
  1  2  1  0
  1  3  1  0
  1  4  1  0
  6  7  1  0
  6  8  1  0
 10 14  1  0
 14 16  1  0
 16 17  2  0
 16 18  1  0
 10 11  1  0
 10 12  1  0
 10 13  1  0
 14 15  1  0
 18 19  1  0
 18 20  1  0
 18 21  1  0
M  END
>  <PDB_ID>  (315) 
pdb2yvw

>  <RESIDUE_NAME>  (315) 
ASN   LEU

>  <FRAG_NAME>  (315) 
ACEM   NMA

>  <FRAG_ATOM_NUM>  (315) 
fragi: 9  fragj: 12

>  <atom.prop.CHAIN_ID>  (315) 
A A A A A A A A A Z Z Z Z Z Z Z Z Z Z Z Z

>  <atom.prop.IS_HEAVY_ATOM>  (315) 
1 0 0 0 1 1 0 0 1 1 0 0 0 1 0 1 1 1 0 0 0

>  <DIFUSE_FUNC_ATOM>  (315) 
n/a

>  <FINAL_SINGLE_POINT_ENERGY>  (315) 
0

>  <NONCOV_INTER_ENERGY_QM>  (315) 
0

>  <FF_Energy>  (315) 
9.65

>  <QM_Energy>  (315) 
21.83

>  <source>  (315) 
ACEM_nNMA_20

>  <Index>  (315) 
4986

$$$$
ACEM-pdb2ywb-A-GLN-44:NMA-pdb2ywb-A-VAL-186
     RDKit          3D

 21 19  0  0  0  0  0  0  0  0999 V2000
   -4.6355    2.3435   -0.9291 C   0  0  0  0  0  0  0  0  0  0  0  0
   -5.2540    2.6291   -0.2004 H   0  0  0  0  0  0  0  0  0  0  0  0
   -5.1608    2.0656   -1.7301 H   0  0  0  0  0  0  0  0  0  0  0  0
   -3.9976    3.1847   -1.2000 H   0  0  0  0  0  0  0  0  0  0  0  0
   -3.8314    1.1569   -0.4417 C   0  0  0  0  0  0  0  0  0  0  0  0
   -3.0218    0.5878   -1.3271 N   0  0  0  0  0  0  0  0  0  0  0  0
   -2.4389   -0.2060   -1.0690 H   0  0  0  0  0  0  0  0  0  0  0  0
   -2.9916    0.9585   -2.2754 H   0  0  0  0  0  0  0  0  0  0  0  0
   -3.9440    0.7497    0.7143 O   0  0  0  0  0  0  0  0  0  0  0  0
   -1.0628   -2.1773   -0.0189 C   0  0  0  0  0  0  0  0  0  0  0  0
   -0.3946   -2.4886    0.6547 H   0  0  0  0  0  0  0  0  0  0  0  0
   -0.7396   -2.5085   -1.0057 H   0  0  0  0  0  0  0  0  0  0  0  0
   -2.0348   -2.5991    0.2366 H   0  0  0  0  0  0  0  0  0  0  0  0
   -1.1200   -0.7175   -0.0000 N   0  0  0  0  0  0  0  0  0  0  0  0
   -1.9944   -0.1752    0.0134 H   0  0  0  0  0  0  0  0  0  0  0  0
    0.0000    0.0000    0.0000 C   0  0  0  0  0  0  0  0  0  0  0  0
    1.1200   -0.5184   -0.0000 O   0  0  0  0  0  0  0  0  0  0  0  0
   -0.1561    1.5301   -0.0085 C   0  0  0  0  0  0  0  0  0  0  0  0
   -1.1405    1.7359   -0.0318 H   0  0  0  0  0  0  0  0  0  0  0  0
    0.2650    1.9740    0.8936 H   0  0  0  0  0  0  0  0  0  0  0  0
    0.3395    1.9226   -0.8963 H   0  0  0  0  0  0  0  0  0  0  0  0
  1  5  1  0
  5  6  1  0
  5  9  2  0
  1  2  1  0
  1  3  1  0
  1  4  1  0
  6  7  1  0
  6  8  1  0
 10 14  1  0
 14 16  1  0
 16 17  2  0
 16 18  1  0
 10 11  1  0
 10 12  1  0
 10 13  1  0
 14 15  1  0
 18 19  1  0
 18 20  1  0
 18 21  1  0
M  END
>  <PDB_ID>  (316) 
pdb2ywb

>  <RESIDUE_NAME>  (316) 
GLN   VAL

>  <FRAG_NAME>  (316) 
ACEM   NMA

>  <FRAG_ATOM_NUM>  (316) 
fragi: 9  fragj: 12

>  <atom.prop.CHAIN_ID>  (316) 
A A A A A A A A A Z Z Z Z Z Z Z Z Z Z Z Z

>  <atom.prop.IS_HEAVY_ATOM>  (316) 
1 0 0 0 1 1 0 0 1 1 0 0 0 1 0 1 1 1 0 0 0

>  <DIFUSE_FUNC_ATOM>  (316) 
n/a

>  <FINAL_SINGLE_POINT_ENERGY>  (316) 
0

>  <NONCOV_INTER_ENERGY_QM>  (316) 
0

>  <FF_Energy>  (316) 
6.49

>  <QM_Energy>  (316) 
17.1

>  <source>  (316) 
ACEM_nNMA_20

>  <Index>  (316) 
6376

$$$$
ACEM-pdb1smk-E-ASN-137:NMA-pdb1smk-E-GLY-121
     RDKit          3D

 21 19  0  0  0  0  0  0  0  0999 V2000
   -4.3952    2.4915    2.1777 C   0  0  0  0  0  0  0  0  0  0  0  0
   -5.3335    2.1970    2.3369 H   0  0  0  0  0  0  0  0  0  0  0  0
   -4.3785    3.4483    1.9015 H   0  0  0  0  0  0  0  0  0  0  0  0
   -3.8411    2.3940    3.1112 H   0  0  0  0  0  0  0  0  0  0  0  0
   -3.8050    1.6554    1.0683 C   0  0  0  0  0  0  0  0  0  0  0  0
   -3.3391    0.4598    1.4139 N   0  0  0  0  0  0  0  0  0  0  0  0
   -3.3973    0.1570    2.3658 H   0  0  0  0  0  0  0  0  0  0  0  0
   -2.9313   -0.1375    0.7237 H   0  0  0  0  0  0  0  0  0  0  0  0
   -3.7622    2.0787   -0.0858 O   0  0  0  0  0  0  0  0  0  0  0  0
   -1.0991   -2.1763   -0.0058 C   0  0  0  0  0  0  0  0  0  0  0  0
   -0.1469   -2.4724   -0.1696 H   0  0  0  0  0  0  0  0  0  0  0  0
   -1.7204   -2.5897   -0.8002 H   0  0  0  0  0  0  0  0  0  0  0  0
   -1.4404   -2.5892    0.9434 H   0  0  0  0  0  0  0  0  0  0  0  0
   -1.1236   -0.7158   -0.0000 N   0  0  0  0  0  0  0  0  0  0  0  0
   -1.9968   -0.1570    0.0040 H   0  0  0  0  0  0  0  0  0  0  0  0
    0.0000    0.0000    0.0000 C   0  0  0  0  0  0  0  0  0  0  0  0
    1.1236   -0.5098   -0.0000 O   0  0  0  0  0  0  0  0  0  0  0  0
   -0.1494    1.5077    0.0026 C   0  0  0  0  0  0  0  0  0  0  0  0
   -0.5046    1.8067    0.8971 H   0  0  0  0  0  0  0  0  0  0  0  0
   -0.8140    1.7788   -0.7048 H   0  0  0  0  0  0  0  0  0  0  0  0
    0.8091    1.9893   -0.1908 H   0  0  0  0  0  0  0  0  0  0  0  0
  1  5  1  0
  5  6  1  0
  5  9  2  0
  1  2  1  0
  1  3  1  0
  1  4  1  0
  6  7  1  0
  6  8  1  0
 10 14  1  0
 14 16  1  0
 16 17  2  0
 16 18  1  0
 10 11  1  0
 10 12  1  0
 10 13  1  0
 14 15  1  0
 18 19  1  0
 18 20  1  0
 18 21  1  0
M  END
>  <PDB_ID>  (317) 
pdb1smk

>  <RESIDUE_NAME>  (317) 
ASN   GLY

>  <FRAG_NAME>  (317) 
ACEM   NMA

>  <FRAG_ATOM_NUM>  (317) 
fragi: 9  fragj: 12

>  <atom.prop.CHAIN_ID>  (317) 
A A A A A A A A A Z Z Z Z Z Z Z Z Z Z Z Z

>  <atom.prop.IS_HEAVY_ATOM>  (317) 
1 0 0 0 1 1 0 0 1 1 0 0 0 1 0 1 1 1 0 0 0

>  <DIFUSE_FUNC_ATOM>  (317) 
n/a

>  <FINAL_SINGLE_POINT_ENERGY>  (317) 
0

>  <NONCOV_INTER_ENERGY_QM>  (317) 
0

>  <FF_Energy>  (317) 
1.42

>  <QM_Energy>  (317) 
13.48

>  <source>  (317) 
ACEM_nNMA_20

>  <Index>  (317) 
8264

$$$$
ACEM-pdb2yy3-B-ASN-5:NMA-pdb2yy3-B-ARG-60
     RDKit          3D

 21 19  0  0  0  0  0  0  0  0999 V2000
   -4.7436    2.0992    2.4450 C   0  0  0  0  0  0  0  0  0  0  0  0
   -5.1100    1.3950    3.0478 H   0  0  0  0  0  0  0  0  0  0  0  0
   -5.4846    2.6592    2.0830 H   0  0  0  0  0  0  0  0  0  0  0  0
   -4.0831    2.7405    3.0285 H   0  0  0  0  0  0  0  0  0  0  0  0
   -4.0388    1.4166    1.2782 C   0  0  0  0  0  0  0  0  0  0  0  0
   -3.1285    0.5005    1.5982 N   0  0  0  0  0  0  0  0  0  0  0  0
   -2.9456    0.2920    2.5593 H   0  0  0  0  0  0  0  0  0  0  0  0
   -2.6267    0.0208    0.8782 H   0  0  0  0  0  0  0  0  0  0  0  0
   -4.3054    1.7101    0.1077 O   0  0  0  0  0  0  0  0  0  0  0  0
   -1.0779   -2.1619   -0.0160 C   0  0  0  0  0  0  0  0  0  0  0  0
   -0.1695   -2.4442    0.2867 H   0  0  0  0  0  0  0  0  0  0  0  0
   -1.1877   -2.4973   -1.0473 H   0  0  0  0  0  0  0  0  0  0  0  0
   -1.8794   -2.5536    0.6103 H   0  0  0  0  0  0  0  0  0  0  0  0
   -1.1152   -0.7121    0.0000 N   0  0  0  0  0  0  0  0  0  0  0  0
   -1.9912   -0.1582    0.0116 H   0  0  0  0  0  0  0  0  0  0  0  0
    0.0000    0.0000    0.0000 C   0  0  0  0  0  0  0  0  0  0  0  0
    1.1152   -0.5138    0.0000 O   0  0  0  0  0  0  0  0  0  0  0  0
   -0.1731    1.5077    0.0115 C   0  0  0  0  0  0  0  0  0  0  0  0
   -0.9254    1.7429    0.6485 H   0  0  0  0  0  0  0  0  0  0  0  0
    0.7309    2.0245    0.3337 H   0  0  0  0  0  0  0  0  0  0  0  0
   -0.4682    1.8455   -0.9819 H   0  0  0  0  0  0  0  0  0  0  0  0
  1  5  1  0
  5  6  1  0
  5  9  2  0
  1  2  1  0
  1  3  1  0
  1  4  1  0
  6  7  1  0
  6  8  1  0
 10 14  1  0
 14 16  1  0
 16 17  2  0
 16 18  1  0
 10 11  1  0
 10 12  1  0
 10 13  1  0
 14 15  1  0
 18 19  1  0
 18 20  1  0
 18 21  1  0
M  END
>  <PDB_ID>  (318) 
pdb2yy3

>  <RESIDUE_NAME>  (318) 
ASN   ARG

>  <FRAG_NAME>  (318) 
ACEM   NMA

>  <FRAG_ATOM_NUM>  (318) 
fragi: 9  fragj: 12

>  <atom.prop.CHAIN_ID>  (318) 
A A A A A A A A A Z Z Z Z Z Z Z Z Z Z Z Z

>  <atom.prop.IS_HEAVY_ATOM>  (318) 
1 0 0 0 1 1 0 0 1 1 0 0 0 1 0 1 1 1 0 0 0

>  <DIFUSE_FUNC_ATOM>  (318) 
n/a

>  <FINAL_SINGLE_POINT_ENERGY>  (318) 
0

>  <NONCOV_INTER_ENERGY_QM>  (318) 
0

>  <FF_Energy>  (318) 
4.83

>  <QM_Energy>  (318) 
18.07

>  <source>  (318) 
ACEM_nNMA_20

>  <Index>  (318) 
8991

$$$$
ACEM-pdb2ybv-M-ASN-352:NMA-pdb2ybv-M-ALA-369
     RDKit          3D

 21 19  0  0  0  0  0  0  0  0999 V2000
   -6.2567   -0.2436    0.0201 C   0  0  0  0  0  0  0  0  0  0  0  0
   -6.2792   -1.2364    0.0135 H   0  0  0  0  0  0  0  0  0  0  0  0
   -6.9348    0.1258   -0.6041 H   0  0  0  0  0  0  0  0  0  0  0  0
   -6.4659    0.1135    1.0285 H   0  0  0  0  0  0  0  0  0  0  0  0
   -4.8535    0.1959   -0.4997 C   0  0  0  0  0  0  0  0  0  0  0  0
   -3.7604   -0.2710    0.1843 N   0  0  0  0  0  0  0  0  0  0  0  0
   -3.9329   -0.8673    0.9676 H   0  0  0  0  0  0  0  0  0  0  0  0
   -2.8609   -0.0171   -0.1021 H   0  0  0  0  0  0  0  0  0  0  0  0
   -4.7567    0.9318   -1.4798 O   0  0  0  0  0  0  0  0  0  0  0  0
   -1.2037   -2.1444   -0.1913 C   0  0  0  0  0  0  0  0  0  0  0  0
   -2.1774   -2.3725   -0.3823 H   0  0  0  0  0  0  0  0  0  0  0  0
   -0.8848   -2.7159    0.6804 H   0  0  0  0  0  0  0  0  0  0  0  0
   -0.6531   -2.4714   -1.0733 H   0  0  0  0  0  0  0  0  0  0  0  0
   -1.1198   -0.6986    0.0000 N   0  0  0  0  0  0  0  0  0  0  0  0
   -1.9879   -0.1058    0.1554 H   0  0  0  0  0  0  0  0  0  0  0  0
    0.0000    0.0000    0.0000 C   0  0  0  0  0  0  0  0  0  0  0  0
    1.1198   -0.4937   -0.0000 O   0  0  0  0  0  0  0  0  0  0  0  0
   -0.1851    1.5086    0.0635 C   0  0  0  0  0  0  0  0  0  0  0  0
   -0.4663    1.8427   -0.8354 H   0  0  0  0  0  0  0  0  0  0  0  0
   -0.9713    1.7524    0.7780 H   0  0  0  0  0  0  0  0  0  0  0  0
    0.7535    1.9831    0.3500 H   0  0  0  0  0  0  0  0  0  0  0  0
  1  5  1  0
  5  6  1  0
  5  9  2  0
  1  2  1  0
  1  3  1  0
  1  4  1  0
  6  7  1  0
  6  8  1  0
 10 14  1  0
 14 16  1  0
 16 17  2  0
 16 18  1  0
 10 11  1  0
 10 12  1  0
 10 13  1  0
 14 15  1  0
 18 19  1  0
 18 20  1  0
 18 21  1  0
M  END
>  <PDB_ID>  (319) 
pdb2ybv

>  <RESIDUE_NAME>  (319) 
ASN   ALA

>  <FRAG_NAME>  (319) 
ACEM   NMA

>  <FRAG_ATOM_NUM>  (319) 
fragi: 9  fragj: 12

>  <atom.prop.CHAIN_ID>  (319) 
A A A A A A A A A Z Z Z Z Z Z Z Z Z Z Z Z

>  <atom.prop.IS_HEAVY_ATOM>  (319) 
1 0 0 0 1 1 0 0 1 1 0 0 0 1 0 1 1 1 0 0 0

>  <DIFUSE_FUNC_ATOM>  (319) 
n/a

>  <FINAL_SINGLE_POINT_ENERGY>  (319) 
0

>  <NONCOV_INTER_ENERGY_QM>  (319) 
0

>  <FF_Energy>  (319) 
14.74

>  <QM_Energy>  (319) 
36.29

>  <source>  (319) 
ACEM_nNMA_20

>  <Index>  (319) 
10891

$$$$
ACEM-pdb1t3l-A-GLN-329:NMA-pdb1t3l-A-ILE-324
     RDKit          3D

 21 19  0  0  0  0  0  0  0  0999 V2000
   -4.8373    1.7856   -2.4140 C   0  0  0  0  0  0  0  0  0  0  0  0
   -5.7867    2.0282   -2.2314 H   0  0  0  0  0  0  0  0  0  0  0  0
   -4.7980    0.9980   -3.0231 H   0  0  0  0  0  0  0  0  0  0  0  0
   -4.3294    2.6301   -2.8795 H   0  0  0  0  0  0  0  0  0  0  0  0
   -4.1865    1.3944   -1.0892 C   0  0  0  0  0  0  0  0  0  0  0  0
   -3.4951    0.3096   -1.0898 N   0  0  0  0  0  0  0  0  0  0  0  0
   -3.0094   -0.0209   -0.2397 H   0  0  0  0  0  0  0  0  0  0  0  0
   -3.4152   -0.2504   -1.9450 H   0  0  0  0  0  0  0  0  0  0  0  0
   -4.3286    2.0783   -0.0899 O   0  0  0  0  0  0  0  0  0  0  0  0
   -1.1760   -2.1782   -0.0934 C   0  0  0  0  0  0  0  0  0  0  0  0
   -0.2238   -2.5181    0.0331 H   0  0  0  0  0  0  0  0  0  0  0  0
   -1.5233   -2.5631   -1.0522 H   0  0  0  0  0  0  0  0  0  0  0  0
   -1.8069   -2.5465    0.7157 H   0  0  0  0  0  0  0  0  0  0  0  0
   -1.1200   -0.7132   -0.0000 N   0  0  0  0  0  0  0  0  0  0  0  0
   -1.9963   -0.1256    0.0752 H   0  0  0  0  0  0  0  0  0  0  0  0
    0.0000    0.0000    0.0000 C   0  0  0  0  0  0  0  0  0  0  0  0
    1.1200   -0.4828   -0.0000 O   0  0  0  0  0  0  0  0  0  0  0  0
   -0.1924    1.5119   -0.0344 C   0  0  0  0  0  0  0  0  0  0  0  0
   -1.1679    1.6765   -0.2116 H   0  0  0  0  0  0  0  0  0  0  0  0
    0.0163    1.9617    0.9363 H   0  0  0  0  0  0  0  0  0  0  0  0
    0.3953    1.9458   -0.8434 H   0  0  0  0  0  0  0  0  0  0  0  0
  1  5  1  0
  5  6  1  0
  5  9  2  0
  1  2  1  0
  1  3  1  0
  1  4  1  0
  6  7  1  0
  6  8  1  0
 10 14  1  0
 14 16  1  0
 16 17  2  0
 16 18  1  0
 10 11  1  0
 10 12  1  0
 10 13  1  0
 14 15  1  0
 18 19  1  0
 18 20  1  0
 18 21  1  0
M  END
>  <PDB_ID>  (320) 
pdb1t3l

>  <RESIDUE_NAME>  (320) 
GLN   ILE

>  <FRAG_NAME>  (320) 
ACEM   NMA

>  <FRAG_ATOM_NUM>  (320) 
fragi: 9  fragj: 12

>  <atom.prop.CHAIN_ID>  (320) 
A A A A A A A A A Z Z Z Z Z Z Z Z Z Z Z Z

>  <atom.prop.IS_HEAVY_ATOM>  (320) 
1 0 0 0 1 1 0 0 1 1 0 0 0 1 0 1 1 1 0 0 0

>  <DIFUSE_FUNC_ATOM>  (320) 
n/a

>  <FINAL_SINGLE_POINT_ENERGY>  (320) 
0

>  <NONCOV_INTER_ENERGY_QM>  (320) 
0

>  <FF_Energy>  (320) 
6.83

>  <QM_Energy>  (320) 
21.47

>  <source>  (320) 
ACEM_nNMA_20

>  <Index>  (320) 
13333

$$$$
ACEM-pdb2yzh-C-ASN-69:NMA-pdb2yzh-C-GLN-101
     RDKit          3D

 21 19  0  0  0  0  0  0  0  0999 V2000
   -6.1656   -0.6895   -0.3264 C   0  0  0  0  0  0  0  0  0  0  0  0
   -6.1409   -0.3798   -1.2713 H   0  0  0  0  0  0  0  0  0  0  0  0
   -6.9875   -0.3560    0.1252 H   0  0  0  0  0  0  0  0  0  0  0  0
   -6.1865   -1.7793   -0.3204 H   0  0  0  0  0  0  0  0  0  0  0  0
   -4.9527   -0.1264    0.3991 C   0  0  0  0  0  0  0  0  0  0  0  0
   -3.7654   -0.3904   -0.1370 N   0  0  0  0  0  0  0  0  0  0  0  0
   -3.7090   -0.9297   -0.9791 H   0  0  0  0  0  0  0  0  0  0  0  0
   -2.9320   -0.0525    0.2969 H   0  0  0  0  0  0  0  0  0  0  0  0
   -5.0839    0.5422    1.4252 O   0  0  0  0  0  0  0  0  0  0  0  0
   -1.0494   -2.1761    0.0024 C   0  0  0  0  0  0  0  0  0  0  0  0
   -0.1287   -2.4320    0.3332 H   0  0  0  0  0  0  0  0  0  0  0  0
   -1.1562   -2.5980   -0.9969 H   0  0  0  0  0  0  0  0  0  0  0  0
   -1.8064   -2.5855    0.6713 H   0  0  0  0  0  0  0  0  0  0  0  0
   -1.1165   -0.7195   -0.0000 N   0  0  0  0  0  0  0  0  0  0  0  0
   -1.9923   -0.1813   -0.0017 H   0  0  0  0  0  0  0  0  0  0  0  0
    0.0000    0.0000    0.0000 C   0  0  0  0  0  0  0  0  0  0  0  0
    1.1165   -0.5188   -0.0000 O   0  0  0  0  0  0  0  0  0  0  0  0
   -0.1405    1.5201   -0.0070 C   0  0  0  0  0  0  0  0  0  0  0  0
    0.3248    1.8666   -0.8526 H   0  0  0  0  0  0  0  0  0  0  0  0
   -1.1616    1.9013   -0.0115 H   0  0  0  0  0  0  0  0  0  0  0  0
    0.4012    1.9411    0.8400 H   0  0  0  0  0  0  0  0  0  0  0  0
  1  5  1  0
  5  6  1  0
  5  9  2  0
  1  2  1  0
  1  3  1  0
  1  4  1  0
  6  7  1  0
  6  8  1  0
 10 14  1  0
 14 16  1  0
 16 17  2  0
 16 18  1  0
 10 11  1  0
 10 12  1  0
 10 13  1  0
 14 15  1  0
 18 19  1  0
 18 20  1  0
 18 21  1  0
M  END
>  <PDB_ID>  (321) 
pdb2yzh

>  <RESIDUE_NAME>  (321) 
ASN   GLN

>  <FRAG_NAME>  (321) 
ACEM   NMA

>  <FRAG_ATOM_NUM>  (321) 
fragi: 9  fragj: 12

>  <atom.prop.CHAIN_ID>  (321) 
A A A A A A A A A Z Z Z Z Z Z Z Z Z Z Z Z

>  <atom.prop.IS_HEAVY_ATOM>  (321) 
1 0 0 0 1 1 0 0 1 1 0 0 0 1 0 1 1 1 0 0 0

>  <DIFUSE_FUNC_ATOM>  (321) 
n/a

>  <FINAL_SINGLE_POINT_ENERGY>  (321) 
0

>  <NONCOV_INTER_ENERGY_QM>  (321) 
0

>  <FF_Energy>  (321) 
13.16

>  <QM_Energy>  (321) 
29.45

>  <source>  (321) 
ACEM_nNMA_20

>  <Index>  (321) 
13487

$$$$
ACEM-pdb2z04-A-ASN-273:NMA-pdb2z04-A-LEU-283
     RDKit          3D

 21 19  0  0  0  0  0  0  0  0999 V2000
   -6.0064    0.7073   -0.0547 C   0  0  0  0  0  0  0  0  0  0  0  0
   -6.8683    0.2281   -0.1815 H   0  0  0  0  0  0  0  0  0  0  0  0
   -5.9812    1.5317   -0.6112 H   0  0  0  0  0  0  0  0  0  0  0  0
   -5.9183    0.9930    0.9935 H   0  0  0  0  0  0  0  0  0  0  0  0
   -4.8756   -0.2102   -0.5003 C   0  0  0  0  0  0  0  0  0  0  0  0
   -3.7223   -0.0680    0.1444 N   0  0  0  0  0  0  0  0  0  0  0  0
   -3.6358    0.6042    0.8784 H   0  0  0  0  0  0  0  0  0  0  0  0
   -2.9367   -0.6375   -0.1035 H   0  0  0  0  0  0  0  0  0  0  0  0
   -5.0319   -1.0307   -1.4155 O   0  0  0  0  0  0  0  0  0  0  0  0
   -1.0491   -2.1551   -0.0300 C   0  0  0  0  0  0  0  0  0  0  0  0
   -0.1282   -2.4547    0.2226 H   0  0  0  0  0  0  0  0  0  0  0  0
   -1.7102   -2.5386    0.6150 H   0  0  0  0  0  0  0  0  0  0  0  0
   -1.2821   -2.4916   -1.0403 H   0  0  0  0  0  0  0  0  0  0  0  0
   -1.1182   -0.7118    0.0000 N   0  0  0  0  0  0  0  0  0  0  0  0
   -1.9908   -0.1691    0.0222 H   0  0  0  0  0  0  0  0  0  0  0  0
    0.0000    0.0000    0.0000 C   0  0  0  0  0  0  0  0  0  0  0  0
    1.1182   -0.5177   -0.0000 O   0  0  0  0  0  0  0  0  0  0  0  0
   -0.1619    1.5094    0.0277 C   0  0  0  0  0  0  0  0  0  0  0  0
   -0.9034    1.7348    0.6446 H   0  0  0  0  0  0  0  0  0  0  0  0
    0.7705    1.9101    0.4254 H   0  0  0  0  0  0  0  0  0  0  0  0
   -0.3541    1.8795   -0.9794 H   0  0  0  0  0  0  0  0  0  0  0  0
  1  5  1  0
  5  6  1  0
  5  9  2  0
  1  2  1  0
  1  3  1  0
  1  4  1  0
  6  7  1  0
  6  8  1  0
 10 14  1  0
 14 16  1  0
 16 17  2  0
 16 18  1  0
 10 11  1  0
 10 12  1  0
 10 13  1  0
 14 15  1  0
 18 19  1  0
 18 20  1  0
 18 21  1  0
M  END
>  <PDB_ID>  (322) 
pdb2z04

>  <RESIDUE_NAME>  (322) 
ASN   LEU

>  <FRAG_NAME>  (322) 
ACEM   NMA

>  <FRAG_ATOM_NUM>  (322) 
fragi: 9  fragj: 12

>  <atom.prop.CHAIN_ID>  (322) 
A A A A A A A A A Z Z Z Z Z Z Z Z Z Z Z Z

>  <atom.prop.IS_HEAVY_ATOM>  (322) 
1 0 0 0 1 1 0 0 1 1 0 0 0 1 0 1 1 1 0 0 0

>  <DIFUSE_FUNC_ATOM>  (322) 
n/a

>  <FINAL_SINGLE_POINT_ENERGY>  (322) 
0

>  <NONCOV_INTER_ENERGY_QM>  (322) 
0

>  <FF_Energy>  (322) 
11.06

>  <QM_Energy>  (322) 
26.74

>  <source>  (322) 
ACEM_nNMA_20

>  <Index>  (322) 
13621

$$$$
ACEM-pdb1t6l-A-ASN-82:NMA-pdb1t6l-A-PHE-90
     RDKit          3D

 21 19  0  0  0  0  0  0  0  0999 V2000
   -5.6923    1.6740    0.6843 C   0  0  0  0  0  0  0  0  0  0  0  0
   -6.1735    1.1344    1.3689 H   0  0  0  0  0  0  0  0  0  0  0  0
   -6.3313    2.0042   -0.0043 H   0  0  0  0  0  0  0  0  0  0  0  0
   -5.2505    2.5381    1.1806 H   0  0  0  0  0  0  0  0  0  0  0  0
   -4.6568    0.8405    0.0375 C   0  0  0  0  0  0  0  0  0  0  0  0
   -3.7550    0.2553    0.8232 N   0  0  0  0  0  0  0  0  0  0  0  0
   -3.8121    0.3938    1.8163 H   0  0  0  0  0  0  0  0  0  0  0  0
   -3.0379   -0.3097    0.4333 H   0  0  0  0  0  0  0  0  0  0  0  0
   -4.6943    0.6859   -1.1730 O   0  0  0  0  0  0  0  0  0  0  0  0
   -1.0253   -2.1795    0.0864 C   0  0  0  0  0  0  0  0  0  0  0  0
   -0.5427   -2.4200    0.9390 H   0  0  0  0  0  0  0  0  0  0  0  0
   -0.4584   -2.6044   -0.7419 H   0  0  0  0  0  0  0  0  0  0  0  0
   -2.0264   -2.5995    0.1828 H   0  0  0  0  0  0  0  0  0  0  0  0
   -1.1114   -0.7266    0.0000 N   0  0  0  0  0  0  0  0  0  0  0  0
   -1.9894   -0.2020   -0.0630 H   0  0  0  0  0  0  0  0  0  0  0  0
    0.0000    0.0000    0.0000 C   0  0  0  0  0  0  0  0  0  0  0  0
    1.1114   -0.5112   -0.0000 O   0  0  0  0  0  0  0  0  0  0  0  0
   -0.1572    1.5208   -0.0136 C   0  0  0  0  0  0  0  0  0  0  0  0
    0.7623    1.9047   -0.1890 H   0  0  0  0  0  0  0  0  0  0  0  0
   -0.8062    1.8681   -0.8175 H   0  0  0  0  0  0  0  0  0  0  0  0
   -0.5095    1.9112    0.9411 H   0  0  0  0  0  0  0  0  0  0  0  0
  1  5  1  0
  5  6  1  0
  5  9  2  0
  1  2  1  0
  1  3  1  0
  1  4  1  0
  6  7  1  0
  6  8  1  0
 10 14  1  0
 14 16  1  0
 16 17  2  0
 16 18  1  0
 10 11  1  0
 10 12  1  0
 10 13  1  0
 14 15  1  0
 18 19  1  0
 18 20  1  0
 18 21  1  0
M  END
>  <PDB_ID>  (323) 
pdb1t6l

>  <RESIDUE_NAME>  (323) 
ASN   PHE

>  <FRAG_NAME>  (323) 
ACEM   NMA

>  <FRAG_ATOM_NUM>  (323) 
fragi: 9  fragj: 12

>  <atom.prop.CHAIN_ID>  (323) 
A A A A A A A A A Z Z Z Z Z Z Z Z Z Z Z Z

>  <atom.prop.IS_HEAVY_ATOM>  (323) 
1 0 0 0 1 1 0 0 1 1 0 0 0 1 0 1 1 1 0 0 0

>  <DIFUSE_FUNC_ATOM>  (323) 
n/a

>  <FINAL_SINGLE_POINT_ENERGY>  (323) 
0

>  <NONCOV_INTER_ENERGY_QM>  (323) 
0

>  <FF_Energy>  (323) 
3.43

>  <QM_Energy>  (323) 
13.97

>  <source>  (323) 
ACEM_nNMA_20

>  <Index>  (323) 
15091

$$$$
ACEM-pdb2z1z-A-ASN-187:NMA-pdb2z1z-A-CYS-183
     RDKit          3D

 21 19  0  0  0  0  0  0  0  0999 V2000
   -5.8664    0.2509   -1.0878 C   0  0  0  0  0  0  0  0  0  0  0  0
   -6.2574    1.0559   -1.5212 H   0  0  0  0  0  0  0  0  0  0  0  0
   -6.3669    0.0275   -0.2577 H   0  0  0  0  0  0  0  0  0  0  0  0
   -5.9631   -0.5872   -1.7779 H   0  0  0  0  0  0  0  0  0  0  0  0
   -4.4141    0.5582   -0.7118 C   0  0  0  0  0  0  0  0  0  0  0  0
   -3.4680   -0.0301   -1.4354 N   0  0  0  0  0  0  0  0  0  0  0  0
   -3.7329   -0.6370   -2.1901 H   0  0  0  0  0  0  0  0  0  0  0  0
   -2.5067    0.1277   -1.2341 H   0  0  0  0  0  0  0  0  0  0  0  0
   -4.1532    1.3168    0.2151 O   0  0  0  0  0  0  0  0  0  0  0  0
   -1.2039   -2.1426    0.2999 C   0  0  0  0  0  0  0  0  0  0  0  0
   -0.2629   -2.4509    0.5496 H   0  0  0  0  0  0  0  0  0  0  0  0
   -1.5638   -2.7574   -0.5251 H   0  0  0  0  0  0  0  0  0  0  0  0
   -1.8616   -2.3151    1.1519 H   0  0  0  0  0  0  0  0  0  0  0  0
   -1.1392   -0.7071   -0.0000 N   0  0  0  0  0  0  0  0  0  0  0  0
   -1.9898   -0.1398   -0.2352 H   0  0  0  0  0  0  0  0  0  0  0  0
    0.0000    0.0000    0.0000 C   0  0  0  0  0  0  0  0  0  0  0  0
    1.1392   -0.5060    0.0000 O   0  0  0  0  0  0  0  0  0  0  0  0
   -0.1465    1.5158   -0.0829 C   0  0  0  0  0  0  0  0  0  0  0  0
   -1.0870    1.7158   -0.3673 H   0  0  0  0  0  0  0  0  0  0  0  0
    0.0298    1.9446    0.9036 H   0  0  0  0  0  0  0  0  0  0  0  0
    0.5756    1.9144   -0.7954 H   0  0  0  0  0  0  0  0  0  0  0  0
  1  5  1  0
  5  6  1  0
  5  9  2  0
  1  2  1  0
  1  3  1  0
  1  4  1  0
  6  7  1  0
  6  8  1  0
 10 14  1  0
 14 16  1  0
 16 17  2  0
 16 18  1  0
 10 11  1  0
 10 12  1  0
 10 13  1  0
 14 15  1  0
 18 19  1  0
 18 20  1  0
 18 21  1  0
M  END
>  <PDB_ID>  (324) 
pdb2z1z

>  <RESIDUE_NAME>  (324) 
ASN   CYS

>  <FRAG_NAME>  (324) 
ACEM   NMA

>  <FRAG_ATOM_NUM>  (324) 
fragi: 9  fragj: 12

>  <atom.prop.CHAIN_ID>  (324) 
A A A A A A A A A Z Z Z Z Z Z Z Z Z Z Z Z

>  <atom.prop.IS_HEAVY_ATOM>  (324) 
1 0 0 0 1 1 0 0 1 1 0 0 0 1 0 1 1 1 0 0 0

>  <DIFUSE_FUNC_ATOM>  (324) 
n/a

>  <FINAL_SINGLE_POINT_ENERGY>  (324) 
0

>  <NONCOV_INTER_ENERGY_QM>  (324) 
0

>  <FF_Energy>  (324) 
3.35

>  <QM_Energy>  (324) 
14.97

>  <source>  (324) 
ACEM_nNMA_20

>  <Index>  (324) 
16291

$$$$
ACEM-pdb1t8t-A-GLN-154:NMA-pdb1t8t-A-ILE-211
     RDKit          3D

 21 19  0  0  0  0  0  0  0  0999 V2000
   -5.5860    1.3981   -1.0864 C   0  0  0  0  0  0  0  0  0  0  0  0
   -5.7468    2.3598   -0.8616 H   0  0  0  0  0  0  0  0  0  0  0  0
   -6.4412    0.8870   -0.9931 H   0  0  0  0  0  0  0  0  0  0  0  0
   -5.2502    1.3326   -2.1213 H   0  0  0  0  0  0  0  0  0  0  0  0
   -4.5769    0.8348   -0.1033 C   0  0  0  0  0  0  0  0  0  0  0  0
   -3.6860   -0.0167   -0.5991 N   0  0  0  0  0  0  0  0  0  0  0  0
   -2.9689   -0.4258   -0.0038 H   0  0  0  0  0  0  0  0  0  0  0  0
   -3.7315   -0.2569   -1.5873 H   0  0  0  0  0  0  0  0  0  0  0  0
   -4.5866    1.1707    1.0859 O   0  0  0  0  0  0  0  0  0  0  0  0
   -1.1223   -2.1615   -0.0138 C   0  0  0  0  0  0  0  0  0  0  0  0
   -0.2456   -2.4857    0.3285 H   0  0  0  0  0  0  0  0  0  0  0  0
   -1.2281   -2.4890   -1.0480 H   0  0  0  0  0  0  0  0  0  0  0  0
   -1.9384   -2.5591    0.5894 H   0  0  0  0  0  0  0  0  0  0  0  0
   -1.1244   -0.7053   -0.0000 N   0  0  0  0  0  0  0  0  0  0  0  0
   -1.9955   -0.1351    0.0112 H   0  0  0  0  0  0  0  0  0  0  0  0
    0.0000    0.0000    0.0000 C   0  0  0  0  0  0  0  0  0  0  0  0
    1.1244   -0.5162    0.0000 O   0  0  0  0  0  0  0  0  0  0  0  0
   -0.1687    1.5168    0.0110 C   0  0  0  0  0  0  0  0  0  0  0  0
   -1.0984    1.6978    0.3355 H   0  0  0  0  0  0  0  0  0  0  0  0
    0.5061    1.9596    0.7437 H   0  0  0  0  0  0  0  0  0  0  0  0
    0.0290    1.8918   -0.9932 H   0  0  0  0  0  0  0  0  0  0  0  0
  1  5  1  0
  5  6  1  0
  5  9  2  0
  1  2  1  0
  1  3  1  0
  1  4  1  0
  6  7  1  0
  6  8  1  0
 10 14  1  0
 14 16  1  0
 16 17  2  0
 16 18  1  0
 10 11  1  0
 10 12  1  0
 10 13  1  0
 14 15  1  0
 18 19  1  0
 18 20  1  0
 18 21  1  0
M  END
>  <PDB_ID>  (325) 
pdb1t8t

>  <RESIDUE_NAME>  (325) 
GLN   ILE

>  <FRAG_NAME>  (325) 
ACEM   NMA

>  <FRAG_ATOM_NUM>  (325) 
fragi: 9  fragj: 12

>  <atom.prop.CHAIN_ID>  (325) 
A A A A A A A A A Z Z Z Z Z Z Z Z Z Z Z Z

>  <atom.prop.IS_HEAVY_ATOM>  (325) 
1 0 0 0 1 1 0 0 1 1 0 0 0 1 0 1 1 1 0 0 0

>  <DIFUSE_FUNC_ATOM>  (325) 
n/a

>  <FINAL_SINGLE_POINT_ENERGY>  (325) 
0

>  <NONCOV_INTER_ENERGY_QM>  (325) 
0

>  <FF_Energy>  (325) 
8.62

>  <QM_Energy>  (325) 
26.35

>  <source>  (325) 
ACEM_nNMA_20

>  <Index>  (325) 
17638

$$$$
ACEM-pdb2z43-A-GLN-126:NMA-pdb2z43-A-GLY-318
     RDKit          3D

 21 19  0  0  0  0  0  0  0  0999 V2000
   -5.2608    0.0747   -0.5923 C   0  0  0  0  0  0  0  0  0  0  0  0
   -4.7203   -0.7374   -0.7183 H   0  0  0  0  0  0  0  0  0  0  0  0
   -6.1229    0.0258   -1.0630 H   0  0  0  0  0  0  0  0  0  0  0  0
   -5.4480    0.2120    0.4727 H   0  0  0  0  0  0  0  0  0  0  0  0
   -4.4690    1.2776   -1.1439 C   0  0  0  0  0  0  0  0  0  0  0  0
   -3.1551    1.2591   -0.9440 N   0  0  0  0  0  0  0  0  0  0  0  0
   -2.5725    2.0087   -1.2915 H   0  0  0  0  0  0  0  0  0  0  0  0
   -2.7481    0.4777   -0.4349 H   0  0  0  0  0  0  0  0  0  0  0  0
   -5.0339    2.1896   -1.7651 O   0  0  0  0  0  0  0  0  0  0  0  0
   -1.0724   -2.1590   -0.0452 C   0  0  0  0  0  0  0  0  0  0  0  0
   -0.3511   -2.4270    0.5786 H   0  0  0  0  0  0  0  0  0  0  0  0
   -0.7392   -2.4323   -1.0464 H   0  0  0  0  0  0  0  0  0  0  0  0
   -2.0463   -2.6183    0.1245 H   0  0  0  0  0  0  0  0  0  0  0  0
   -1.1322   -0.6959    0.0000 N   0  0  0  0  0  0  0  0  0  0  0  0
   -1.9957   -0.1539    0.0326 H   0  0  0  0  0  0  0  0  0  0  0  0
    0.0000    0.0000    0.0000 C   0  0  0  0  0  0  0  0  0  0  0  0
    1.1322   -0.5347   -0.0000 O   0  0  0  0  0  0  0  0  0  0  0  0
   -0.1384    1.4911    0.0227 C   0  0  0  0  0  0  0  0  0  0  0  0
   -0.4049    1.7970    0.9594 H   0  0  0  0  0  0  0  0  0  0  0  0
   -0.8992    1.7740   -0.5955 H   0  0  0  0  0  0  0  0  0  0  0  0
    0.7699    2.0158   -0.2737 H   0  0  0  0  0  0  0  0  0  0  0  0
  1  5  1  0
  5  6  1  0
  5  9  2  0
  1  2  1  0
  1  3  1  0
  1  4  1  0
  6  7  1  0
  6  8  1  0
 10 14  1  0
 14 16  1  0
 16 17  2  0
 16 18  1  0
 10 11  1  0
 10 12  1  0
 10 13  1  0
 14 15  1  0
 18 19  1  0
 18 20  1  0
 18 21  1  0
M  END
>  <PDB_ID>  (326) 
pdb2z43

>  <RESIDUE_NAME>  (326) 
GLN   GLY

>  <FRAG_NAME>  (326) 
ACEM   NMA

>  <FRAG_ATOM_NUM>  (326) 
fragi: 9  fragj: 12

>  <atom.prop.CHAIN_ID>  (326) 
A A A A A A A A A Z Z Z Z Z Z Z Z Z Z Z Z

>  <atom.prop.IS_HEAVY_ATOM>  (326) 
1 0 0 0 1 1 0 0 1 1 0 0 0 1 0 1 1 1 0 0 0

>  <DIFUSE_FUNC_ATOM>  (326) 
n/a

>  <FINAL_SINGLE_POINT_ENERGY>  (326) 
0

>  <NONCOV_INTER_ENERGY_QM>  (326) 
0

>  <FF_Energy>  (326) 
11.73

>  <QM_Energy>  (326) 
21.87

>  <source>  (326) 
ACEM_nNMA_20

>  <Index>  (326) 
19258

$$$$
ACEM-pdb1tc5-A-ASN-27:NMA-pdb1tc5-A-ASN-176
     RDKit          3D

 21 19  0  0  0  0  0  0  0  0999 V2000
   -5.9033    1.2204   -0.7637 C   0  0  0  0  0  0  0  0  0  0  0  0
   -6.2041    2.1663   -0.8569 H   0  0  0  0  0  0  0  0  0  0  0  0
   -6.5349    0.7182   -0.1778 H   0  0  0  0  0  0  0  0  0  0  0  0
   -5.9358    0.7638   -1.7530 H   0  0  0  0  0  0  0  0  0  0  0  0
   -4.5377    1.1894   -0.1642 C   0  0  0  0  0  0  0  0  0  0  0  0
   -3.6894    0.3339   -0.6976 N   0  0  0  0  0  0  0  0  0  0  0  0
   -3.9629   -0.2488   -1.4649 H   0  0  0  0  0  0  0  0  0  0  0  0
   -2.7537    0.2586   -0.3357 H   0  0  0  0  0  0  0  0  0  0  0  0
   -4.2305    1.9532    0.7596 O   0  0  0  0  0  0  0  0  0  0  0  0
   -1.1470   -2.1607   -0.2286 C   0  0  0  0  0  0  0  0  0  0  0  0
   -0.3976   -2.5837    0.2695 H   0  0  0  0  0  0  0  0  0  0  0  0
   -1.0007   -2.3321   -1.2951 H   0  0  0  0  0  0  0  0  0  0  0  0
   -2.1047   -2.5656    0.0983 H   0  0  0  0  0  0  0  0  0  0  0  0
   -1.1186   -0.7181    0.0000 N   0  0  0  0  0  0  0  0  0  0  0  0
   -1.9870   -0.1571    0.1795 H   0  0  0  0  0  0  0  0  0  0  0  0
    0.0000    0.0000    0.0000 C   0  0  0  0  0  0  0  0  0  0  0  0
    1.1186   -0.5016   -0.0000 O   0  0  0  0  0  0  0  0  0  0  0  0
   -0.2014    1.5143    0.0216 C   0  0  0  0  0  0  0  0  0  0  0  0
   -0.8646    1.7123    0.7527 H   0  0  0  0  0  0  0  0  0  0  0  0
    0.7217    2.0351    0.2761 H   0  0  0  0  0  0  0  0  0  0  0  0
   -0.6164    1.8447   -0.9305 H   0  0  0  0  0  0  0  0  0  0  0  0
  1  5  1  0
  5  6  1  0
  5  9  2  0
  1  2  1  0
  1  3  1  0
  1  4  1  0
  6  7  1  0
  6  8  1  0
 10 14  1  0
 14 16  1  0
 16 17  2  0
 16 18  1  0
 10 11  1  0
 10 12  1  0
 10 13  1  0
 14 15  1  0
 18 19  1  0
 18 20  1  0
 18 21  1  0
M  END
>  <PDB_ID>  (327) 
pdb1tc5

>  <RESIDUE_NAME>  (327) 
ASN   ASN

>  <FRAG_NAME>  (327) 
ACEM   NMA

>  <FRAG_ATOM_NUM>  (327) 
fragi: 9  fragj: 12

>  <atom.prop.CHAIN_ID>  (327) 
A A A A A A A A A Z Z Z Z Z Z Z Z Z Z Z Z

>  <atom.prop.IS_HEAVY_ATOM>  (327) 
1 0 0 0 1 1 0 0 1 1 0 0 0 1 0 1 1 1 0 0 0

>  <DIFUSE_FUNC_ATOM>  (327) 
n/a

>  <FINAL_SINGLE_POINT_ENERGY>  (327) 
0

>  <NONCOV_INTER_ENERGY_QM>  (327) 
0

>  <FF_Energy>  (327) 
6.44

>  <QM_Energy>  (327) 
23.09

>  <source>  (327) 
ACEM_nNMA_20

>  <Index>  (327) 
21246

$$$$
ACEM-pdb1tb6-H-ASN-147:NMA-pdb1tb6-I-PRO-397
     RDKit          3D

 21 19  0  0  0  0  0  0  0  0999 V2000
   -5.1875    0.9356   -2.4485 C   0  0  0  0  0  0  0  0  0  0  0  0
   -5.2461    1.9178   -2.5943 H   0  0  0  0  0  0  0  0  0  0  0  0
   -6.0976    0.5345   -2.4187 H   0  0  0  0  0  0  0  0  0  0  0  0
   -4.6405    0.4931   -3.2810 H   0  0  0  0  0  0  0  0  0  0  0  0
   -4.5078    0.6881   -1.1044 C   0  0  0  0  0  0  0  0  0  0  0  0
   -3.1969    0.4823   -1.1303 N   0  0  0  0  0  0  0  0  0  0  0  0
   -2.7085    0.5013   -2.0059 H   0  0  0  0  0  0  0  0  0  0  0  0
   -2.6970    0.3095   -0.2840 H   0  0  0  0  0  0  0  0  0  0  0  0
   -5.1560    0.6732   -0.0616 O   0  0  0  0  0  0  0  0  0  0  0  0
   -1.0986   -2.1658   -0.0527 C   0  0  0  0  0  0  0  0  0  0  0  0
   -0.3577   -2.4736    0.5260 H   0  0  0  0  0  0  0  0  0  0  0  0
   -0.8337   -2.4278   -1.0770 H   0  0  0  0  0  0  0  0  0  0  0  0
   -2.0768   -2.5823    0.1878 H   0  0  0  0  0  0  0  0  0  0  0  0
   -1.1225   -0.7144    0.0000 N   0  0  0  0  0  0  0  0  0  0  0  0
   -1.9947   -0.1532    0.0400 H   0  0  0  0  0  0  0  0  0  0  0  0
    0.0000    0.0000    0.0000 C   0  0  0  0  0  0  0  0  0  0  0  0
    1.1225   -0.5022    0.0000 O   0  0  0  0  0  0  0  0  0  0  0  0
   -0.1833    1.5067    0.0074 C   0  0  0  0  0  0  0  0  0  0  0  0
   -1.1172    1.7505    0.3731 H   0  0  0  0  0  0  0  0  0  0  0  0
    0.5812    2.0818    0.5299 H   0  0  0  0  0  0  0  0  0  0  0  0
   -0.1585    1.9315   -0.9960 H   0  0  0  0  0  0  0  0  0  0  0  0
  1  5  1  0
  5  6  1  0
  5  9  2  0
  1  2  1  0
  1  3  1  0
  1  4  1  0
  6  7  1  0
  6  8  1  0
 10 14  1  0
 14 16  1  0
 16 17  2  0
 16 18  1  0
 10 11  1  0
 10 12  1  0
 10 13  1  0
 14 15  1  0
 18 19  1  0
 18 20  1  0
 18 21  1  0
M  END
>  <PDB_ID>  (328) 
pdb1tb6

>  <RESIDUE_NAME>  (328) 
ASN   PRO

>  <FRAG_NAME>  (328) 
ACEM   NMA

>  <FRAG_ATOM_NUM>  (328) 
fragi: 9  fragj: 12

>  <atom.prop.CHAIN_ID>  (328) 
A A A A A A A A A Z Z Z Z Z Z Z Z Z Z Z Z

>  <atom.prop.IS_HEAVY_ATOM>  (328) 
1 0 0 0 1 1 0 0 1 1 0 0 0 1 0 1 1 1 0 0 0

>  <DIFUSE_FUNC_ATOM>  (328) 
n/a

>  <FINAL_SINGLE_POINT_ENERGY>  (328) 
0

>  <NONCOV_INTER_ENERGY_QM>  (328) 
0

>  <FF_Energy>  (328) 
17.34

>  <QM_Energy>  (328) 
39.14

>  <source>  (328) 
ACEM_nNMA_20

>  <Index>  (328) 
23755

$$$$
ACEM-pdb2zba-A-GLN-21:NMA-pdb2zba-A-THR-81
     RDKit          3D

 21 19  0  0  0  0  0  0  0  0999 V2000
   -5.8156    1.2558    0.0075 C   0  0  0  0  0  0  0  0  0  0  0  0
   -6.5712    0.6005   -0.1460 H   0  0  0  0  0  0  0  0  0  0  0  0
   -5.9516    2.0346   -0.6232 H   0  0  0  0  0  0  0  0  0  0  0  0
   -5.8718    1.6213    1.0329 H   0  0  0  0  0  0  0  0  0  0  0  0
   -4.5231    0.5815   -0.3397 C   0  0  0  0  0  0  0  0  0  0  0  0
   -3.7442    0.2929    0.6706 N   0  0  0  0  0  0  0  0  0  0  0  0
   -2.8378   -0.1856    0.5266 H   0  0  0  0  0  0  0  0  0  0  0  0
   -4.0287    0.5416    1.6182 H   0  0  0  0  0  0  0  0  0  0  0  0
   -4.2134    0.3462   -1.4973 O   0  0  0  0  0  0  0  0  0  0  0  0
   -1.1120   -2.1498    0.1462 C   0  0  0  0  0  0  0  0  0  0  0  0
   -0.1718   -2.4425    0.3564 H   0  0  0  0  0  0  0  0  0  0  0  0
   -1.4104   -2.6334   -0.7839 H   0  0  0  0  0  0  0  0  0  0  0  0
   -1.7527   -2.4584    0.9723 H   0  0  0  0  0  0  0  0  0  0  0  0
   -1.1189   -0.7084   -0.0000 N   0  0  0  0  0  0  0  0  0  0  0  0
   -1.9894   -0.1457   -0.1129 H   0  0  0  0  0  0  0  0  0  0  0  0
    0.0000    0.0000    0.0000 C   0  0  0  0  0  0  0  0  0  0  0  0
    1.1189   -0.5107    0.0000 O   0  0  0  0  0  0  0  0  0  0  0  0
   -0.1858    1.5077    0.0433 C   0  0  0  0  0  0  0  0  0  0  0  0
   -1.1170    1.7022    0.3297 H   0  0  0  0  0  0  0  0  0  0  0  0
    0.5031    1.8940    0.7944 H   0  0  0  0  0  0  0  0  0  0  0  0
   -0.0250    1.9595   -0.9356 H   0  0  0  0  0  0  0  0  0  0  0  0
  1  5  1  0
  5  6  1  0
  5  9  2  0
  1  2  1  0
  1  3  1  0
  1  4  1  0
  6  7  1  0
  6  8  1  0
 10 14  1  0
 14 16  1  0
 16 17  2  0
 16 18  1  0
 10 11  1  0
 10 12  1  0
 10 13  1  0
 14 15  1  0
 18 19  1  0
 18 20  1  0
 18 21  1  0
M  END
>  <PDB_ID>  (329) 
pdb2zba

>  <RESIDUE_NAME>  (329) 
GLN   THR

>  <FRAG_NAME>  (329) 
ACEM   NMA

>  <FRAG_ATOM_NUM>  (329) 
fragi: 9  fragj: 12

>  <atom.prop.CHAIN_ID>  (329) 
A A A A A A A A A Z Z Z Z Z Z Z Z Z Z Z Z

>  <atom.prop.IS_HEAVY_ATOM>  (329) 
1 0 0 0 1 1 0 0 1 1 0 0 0 1 0 1 1 1 0 0 0

>  <DIFUSE_FUNC_ATOM>  (329) 
n/a

>  <FINAL_SINGLE_POINT_ENERGY>  (329) 
0

>  <NONCOV_INTER_ENERGY_QM>  (329) 
0

>  <FF_Energy>  (329) 
4.99

>  <QM_Energy>  (329) 
18.53

>  <source>  (329) 
ACEM_nNMA_20

>  <Index>  (329) 
23821

$$$$
ACEM-pdb1ta9-B-GLN-409:NMA-pdb1ta9-B-PHE-405
     RDKit          3D

 21 19  0  0  0  0  0  0  0  0999 V2000
   -5.2361    0.6516    0.2053 C   0  0  0  0  0  0  0  0  0  0  0  0
   -6.1547    1.0306    0.3028 H   0  0  0  0  0  0  0  0  0  0  0  0
   -5.2325   -0.3033    0.4985 H   0  0  0  0  0  0  0  0  0  0  0  0
   -4.9506    0.6950   -0.8457 H   0  0  0  0  0  0  0  0  0  0  0  0
   -4.2917    1.4350    1.0891 C   0  0  0  0  0  0  0  0  0  0  0  0
   -3.0166    1.0582    1.0783 N   0  0  0  0  0  0  0  0  0  0  0  0
   -2.3211    1.5464    1.6364 H   0  0  0  0  0  0  0  0  0  0  0  0
   -2.7447    0.2653    0.4980 H   0  0  0  0  0  0  0  0  0  0  0  0
   -4.7012    2.3691    1.7737 O   0  0  0  0  0  0  0  0  0  0  0  0
   -1.1028   -2.1701   -0.0677 C   0  0  0  0  0  0  0  0  0  0  0  0
   -0.1623   -2.4507   -0.1730 H   0  0  0  0  0  0  0  0  0  0  0  0
   -1.6170   -2.4296   -0.9931 H   0  0  0  0  0  0  0  0  0  0  0  0
   -1.5774   -2.6280    0.8002 H   0  0  0  0  0  0  0  0  0  0  0  0
   -1.1230   -0.7155    0.0000 N   0  0  0  0  0  0  0  0  0  0  0  0
   -1.9955   -0.1544    0.0511 H   0  0  0  0  0  0  0  0  0  0  0  0
    0.0000    0.0000    0.0000 C   0  0  0  0  0  0  0  0  0  0  0  0
    1.1230   -0.5061    0.0000 O   0  0  0  0  0  0  0  0  0  0  0  0
   -0.1828    1.5117   -0.0045 C   0  0  0  0  0  0  0  0  0  0  0  0
   -0.9179    1.7190    0.6816 H   0  0  0  0  0  0  0  0  0  0  0  0
    0.6861    2.1049    0.2805 H   0  0  0  0  0  0  0  0  0  0  0  0
   -0.5036    1.8031   -1.0047 H   0  0  0  0  0  0  0  0  0  0  0  0
  1  5  1  0
  5  6  1  0
  5  9  2  0
  1  2  1  0
  1  3  1  0
  1  4  1  0
  6  7  1  0
  6  8  1  0
 10 14  1  0
 14 16  1  0
 16 17  2  0
 16 18  1  0
 10 11  1  0
 10 12  1  0
 10 13  1  0
 14 15  1  0
 18 19  1  0
 18 20  1  0
 18 21  1  0
M  END
>  <PDB_ID>  (330) 
pdb1ta9

>  <RESIDUE_NAME>  (330) 
GLN   PHE

>  <FRAG_NAME>  (330) 
ACEM   NMA

>  <FRAG_ATOM_NUM>  (330) 
fragi: 9  fragj: 12

>  <atom.prop.CHAIN_ID>  (330) 
A A A A A A A A A Z Z Z Z Z Z Z Z Z Z Z Z

>  <atom.prop.IS_HEAVY_ATOM>  (330) 
1 0 0 0 1 1 0 0 1 1 0 0 0 1 0 1 1 1 0 0 0

>  <DIFUSE_FUNC_ATOM>  (330) 
n/a

>  <FINAL_SINGLE_POINT_ENERGY>  (330) 
0

>  <NONCOV_INTER_ENERGY_QM>  (330) 
0

>  <FF_Energy>  (330) 
17.36

>  <QM_Energy>  (330) 
33.51

>  <source>  (330) 
ACEM_nNMA_20

>  <Index>  (330) 
23938

$$$$
ACEM-pdb1ted-B-ASN-216:NMA-pdb1ted-B-GLU-276
     RDKit          3D

 21 19  0  0  0  0  0  0  0  0999 V2000
   -4.4237    1.6818   -2.9621 C   0  0  0  0  0  0  0  0  0  0  0  0
   -4.1603    1.0082   -3.6428 H   0  0  0  0  0  0  0  0  0  0  0  0
   -4.1396    2.5921   -3.2436 H   0  0  0  0  0  0  0  0  0  0  0  0
   -5.5095    1.6724   -2.8681 H   0  0  0  0  0  0  0  0  0  0  0  0
   -3.7166    1.3402   -1.6471 C   0  0  0  0  0  0  0  0  0  0  0  0
   -3.1772    0.1246   -1.5568 N   0  0  0  0  0  0  0  0  0  0  0  0
   -3.2469   -0.5028   -2.3348 H   0  0  0  0  0  0  0  0  0  0  0  0
   -2.7085   -0.1558   -0.7245 H   0  0  0  0  0  0  0  0  0  0  0  0
   -3.6692    2.1590   -0.7259 O   0  0  0  0  0  0  0  0  0  0  0  0
   -1.0900   -2.1580    0.0029 C   0  0  0  0  0  0  0  0  0  0  0  0
   -0.2839   -2.4676    0.5199 H   0  0  0  0  0  0  0  0  0  0  0  0
   -1.0108   -2.5448   -1.0131 H   0  0  0  0  0  0  0  0  0  0  0  0
   -1.9841   -2.5347    0.4998 H   0  0  0  0  0  0  0  0  0  0  0  0
   -1.1192   -0.7096    0.0000 N   0  0  0  0  0  0  0  0  0  0  0  0
   -1.9928   -0.1497   -0.0027 H   0  0  0  0  0  0  0  0  0  0  0  0
    0.0000    0.0000    0.0000 C   0  0  0  0  0  0  0  0  0  0  0  0
    1.1192   -0.5064   -0.0000 O   0  0  0  0  0  0  0  0  0  0  0  0
   -0.1770    1.5041    0.0133 C   0  0  0  0  0  0  0  0  0  0  0  0
   -1.1095    1.7392   -0.2656 H   0  0  0  0  0  0  0  0  0  0  0  0
    0.0098    1.8820    1.0185 H   0  0  0  0  0  0  0  0  0  0  0  0
    0.5033    1.9670   -0.7016 H   0  0  0  0  0  0  0  0  0  0  0  0
  1  5  1  0
  5  6  1  0
  5  9  2  0
  1  2  1  0
  1  3  1  0
  1  4  1  0
  6  7  1  0
  6  8  1  0
 10 14  1  0
 14 16  1  0
 16 17  2  0
 16 18  1  0
 10 11  1  0
 10 12  1  0
 10 13  1  0
 14 15  1  0
 18 19  1  0
 18 20  1  0
 18 21  1  0
M  END
>  <PDB_ID>  (331) 
pdb1ted

>  <RESIDUE_NAME>  (331) 
ASN   GLU

>  <FRAG_NAME>  (331) 
ACEM   NMA

>  <FRAG_ATOM_NUM>  (331) 
fragi: 9  fragj: 12

>  <atom.prop.CHAIN_ID>  (331) 
A A A A A A A A A Z Z Z Z Z Z Z Z Z Z Z Z

>  <atom.prop.IS_HEAVY_ATOM>  (331) 
1 0 0 0 1 1 0 0 1 1 0 0 0 1 0 1 1 1 0 0 0

>  <DIFUSE_FUNC_ATOM>  (331) 
n/a

>  <FINAL_SINGLE_POINT_ENERGY>  (331) 
0

>  <NONCOV_INTER_ENERGY_QM>  (331) 
0

>  <FF_Energy>  (331) 
7.13

>  <QM_Energy>  (331) 
25.9

>  <source>  (331) 
ACEM_nNMA_20

>  <Index>  (331) 
24835

$$$$
ACEM-pdb1tc5-D-ASN-27:NMA-pdb1tc5-D-ASN-176
     RDKit          3D

 21 19  0  0  0  0  0  0  0  0999 V2000
   -5.8569    1.4023   -0.8669 C   0  0  0  0  0  0  0  0  0  0  0  0
   -6.1716    2.3413   -0.9620 H   0  0  0  0  0  0  0  0  0  0  0  0
   -6.4435    0.9048   -0.2352 H   0  0  0  0  0  0  0  0  0  0  0  0
   -5.9183    0.9200   -1.8425 H   0  0  0  0  0  0  0  0  0  0  0  0
   -4.4448    1.4177   -0.3094 C   0  0  0  0  0  0  0  0  0  0  0  0
   -3.6152    0.4989   -0.7904 N   0  0  0  0  0  0  0  0  0  0  0  0
   -3.9313   -0.1488   -1.4851 H   0  0  0  0  0  0  0  0  0  0  0  0
   -2.6721    0.4525   -0.4597 H   0  0  0  0  0  0  0  0  0  0  0  0
   -4.1041    2.2426    0.5505 O   0  0  0  0  0  0  0  0  0  0  0  0
   -1.1698   -2.1419   -0.2749 C   0  0  0  0  0  0  0  0  0  0  0  0
   -0.4379   -2.5955    0.2291 H   0  0  0  0  0  0  0  0  0  0  0  0
   -1.0047   -2.3020   -1.3404 H   0  0  0  0  0  0  0  0  0  0  0  0
   -2.1322   -2.5417    0.0448 H   0  0  0  0  0  0  0  0  0  0  0  0
   -1.1269   -0.7118    0.0000 N   0  0  0  0  0  0  0  0  0  0  0  0
   -1.9858   -0.1484    0.2171 H   0  0  0  0  0  0  0  0  0  0  0  0
    0.0000    0.0000    0.0000 C   0  0  0  0  0  0  0  0  0  0  0  0
    1.1269   -0.4890    0.0000 O   0  0  0  0  0  0  0  0  0  0  0  0
   -0.1834    1.4992    0.0204 C   0  0  0  0  0  0  0  0  0  0  0  0
   -0.8770    1.7088    0.7223 H   0  0  0  0  0  0  0  0  0  0  0  0
    0.7322    2.0098    0.3186 H   0  0  0  0  0  0  0  0  0  0  0  0
   -0.5154    1.8409   -0.9599 H   0  0  0  0  0  0  0  0  0  0  0  0
  1  5  1  0
  5  6  1  0
  5  9  2  0
  1  2  1  0
  1  3  1  0
  1  4  1  0
  6  7  1  0
  6  8  1  0
 10 14  1  0
 14 16  1  0
 16 17  2  0
 16 18  1  0
 10 11  1  0
 10 12  1  0
 10 13  1  0
 14 15  1  0
 18 19  1  0
 18 20  1  0
 18 21  1  0
M  END
>  <PDB_ID>  (332) 
pdb1tc5

>  <RESIDUE_NAME>  (332) 
ASN   ASN

>  <FRAG_NAME>  (332) 
ACEM   NMA

>  <FRAG_ATOM_NUM>  (332) 
fragi: 9  fragj: 12

>  <atom.prop.CHAIN_ID>  (332) 
A A A A A A A A A Z Z Z Z Z Z Z Z Z Z Z Z

>  <atom.prop.IS_HEAVY_ATOM>  (332) 
1 0 0 0 1 1 0 0 1 1 0 0 0 1 0 1 1 1 0 0 0

>  <DIFUSE_FUNC_ATOM>  (332) 
n/a

>  <FINAL_SINGLE_POINT_ENERGY>  (332) 
0

>  <NONCOV_INTER_ENERGY_QM>  (332) 
0

>  <FF_Energy>  (332) 
4.12

>  <QM_Energy>  (332) 
15.58

>  <source>  (332) 
ACEM_nNMA_20

>  <Index>  (332) 
25591

$$$$
ACEM-pdb2zc7-C-GLN-136:NMA-pdb2zc7-C-THR-97
     RDKit          3D

 21 19  0  0  0  0  0  0  0  0999 V2000
   -4.9999    0.7555    2.3664 C   0  0  0  0  0  0  0  0  0  0  0  0
   -5.2897    1.4363    1.7035 H   0  0  0  0  0  0  0  0  0  0  0  0
   -4.9332    1.1566    3.2728 H   0  0  0  0  0  0  0  0  0  0  0  0
   -5.7379   -0.0464    2.3912 H   0  0  0  0  0  0  0  0  0  0  0  0
   -3.6293    0.2348    1.9612 C   0  0  0  0  0  0  0  0  0  0  0  0
   -3.5262   -0.3084    0.7495 N   0  0  0  0  0  0  0  0  0  0  0  0
   -2.6426   -0.6621    0.4108 H   0  0  0  0  0  0  0  0  0  0  0  0
   -4.3623   -0.3621    0.1677 H   0  0  0  0  0  0  0  0  0  0  0  0
   -2.6695    0.3343    2.7277 O   0  0  0  0  0  0  0  0  0  0  0  0
   -1.0897   -2.1815   -0.0205 C   0  0  0  0  0  0  0  0  0  0  0  0
   -0.5915   -2.5155    0.7758 H   0  0  0  0  0  0  0  0  0  0  0  0
   -2.0203   -2.5382   -0.0126 H   0  0  0  0  0  0  0  0  0  0  0  0
   -0.5828   -2.5054   -0.9295 H   0  0  0  0  0  0  0  0  0  0  0  0
   -1.1240   -0.7200   -0.0000 N   0  0  0  0  0  0  0  0  0  0  0  0
   -1.9976   -0.1665    0.0159 H   0  0  0  0  0  0  0  0  0  0  0  0
    0.0000    0.0000    0.0000 C   0  0  0  0  0  0  0  0  0  0  0  0
    1.1240   -0.5141   -0.0000 O   0  0  0  0  0  0  0  0  0  0  0  0
   -0.1417    1.5337   -0.0032 C   0  0  0  0  0  0  0  0  0  0  0  0
    0.4393    1.8941   -0.7996 H   0  0  0  0  0  0  0  0  0  0  0  0
   -1.1192    2.0115   -0.0684 H   0  0  0  0  0  0  0  0  0  0  0  0
    0.3753    1.9472    0.8628 H   0  0  0  0  0  0  0  0  0  0  0  0
  1  5  1  0
  5  6  1  0
  5  9  2  0
  1  2  1  0
  1  3  1  0
  1  4  1  0
  6  7  1  0
  6  8  1  0
 10 14  1  0
 14 16  1  0
 16 17  2  0
 16 18  1  0
 10 11  1  0
 10 12  1  0
 10 13  1  0
 14 15  1  0
 18 19  1  0
 18 20  1  0
 18 21  1  0
M  END
>  <PDB_ID>  (333) 
pdb2zc7

>  <RESIDUE_NAME>  (333) 
GLN   THR

>  <FRAG_NAME>  (333) 
ACEM   NMA

>  <FRAG_ATOM_NUM>  (333) 
fragi: 9  fragj: 12

>  <atom.prop.CHAIN_ID>  (333) 
A A A A A A A A A Z Z Z Z Z Z Z Z Z Z Z Z

>  <atom.prop.IS_HEAVY_ATOM>  (333) 
1 0 0 0 1 1 0 0 1 1 0 0 0 1 0 1 1 1 0 0 0

>  <DIFUSE_FUNC_ATOM>  (333) 
n/a

>  <FINAL_SINGLE_POINT_ENERGY>  (333) 
0

>  <NONCOV_INTER_ENERGY_QM>  (333) 
0

>  <FF_Energy>  (333) 
20.11

>  <QM_Energy>  (333) 
44.5

>  <source>  (333) 
ACEM_nNMA_21

>  <Index>  (333) 
700

$$$$
ACEM-pdb2zpo-A-ASN-27:NMA-pdb2zpo-A-ASN-93
     RDKit          3D

 21 19  0  0  0  0  0  0  0  0999 V2000
   -5.5835    1.2298    1.4718 C   0  0  0  0  0  0  0  0  0  0  0  0
   -6.4619    1.0062    1.0698 H   0  0  0  0  0  0  0  0  0  0  0  0
   -5.5402    2.1905    1.7141 H   0  0  0  0  0  0  0  0  0  0  0  0
   -5.4501    0.6347    2.3752 H   0  0  0  0  0  0  0  0  0  0  0  0
   -4.4938    0.9477    0.4316 C   0  0  0  0  0  0  0  0  0  0  0  0
   -3.3464    0.4355    0.8855 N   0  0  0  0  0  0  0  0  0  0  0  0
   -3.2470    0.2540    1.8658 H   0  0  0  0  0  0  0  0  0  0  0  0
   -2.6028    0.2376    0.2572 H   0  0  0  0  0  0  0  0  0  0  0  0
   -4.7015    1.1574   -0.7810 O   0  0  0  0  0  0  0  0  0  0  0  0
   -1.1161   -2.1607    0.1040 C   0  0  0  0  0  0  0  0  0  0  0  0
   -0.1501   -2.4590    0.1732 H   0  0  0  0  0  0  0  0  0  0  0  0
   -1.5644   -2.6392   -0.7667 H   0  0  0  0  0  0  0  0  0  0  0  0
   -1.6413   -2.4813    1.0038 H   0  0  0  0  0  0  0  0  0  0  0  0
   -1.1290   -0.7038   -0.0000 N   0  0  0  0  0  0  0  0  0  0  0  0
   -1.9957   -0.1428   -0.0785 H   0  0  0  0  0  0  0  0  0  0  0  0
    0.0000    0.0000    0.0000 C   0  0  0  0  0  0  0  0  0  0  0  0
    1.1290   -0.5242    0.0000 O   0  0  0  0  0  0  0  0  0  0  0  0
   -0.1469    1.5010    0.0300 C   0  0  0  0  0  0  0  0  0  0  0  0
   -1.0817    1.7084    0.3438 H   0  0  0  0  0  0  0  0  0  0  0  0
    0.5335    1.9476    0.7551 H   0  0  0  0  0  0  0  0  0  0  0  0
    0.0337    1.9047   -0.9662 H   0  0  0  0  0  0  0  0  0  0  0  0
  1  5  1  0
  5  6  1  0
  5  9  2  0
  1  2  1  0
  1  3  1  0
  1  4  1  0
  6  7  1  0
  6  8  1  0
 10 14  1  0
 14 16  1  0
 16 17  2  0
 16 18  1  0
 10 11  1  0
 10 12  1  0
 10 13  1  0
 14 15  1  0
 18 19  1  0
 18 20  1  0
 18 21  1  0
M  END
>  <PDB_ID>  (334) 
pdb2zpo

>  <RESIDUE_NAME>  (334) 
ASN   ASN

>  <FRAG_NAME>  (334) 
ACEM   NMA

>  <FRAG_ATOM_NUM>  (334) 
fragi: 9  fragj: 12

>  <atom.prop.CHAIN_ID>  (334) 
A A A A A A A A A Z Z Z Z Z Z Z Z Z Z Z Z

>  <atom.prop.IS_HEAVY_ATOM>  (334) 
1 0 0 0 1 1 0 0 1 1 0 0 0 1 0 1 1 1 0 0 0

>  <DIFUSE_FUNC_ATOM>  (334) 
n/a

>  <FINAL_SINGLE_POINT_ENERGY>  (334) 
0

>  <NONCOV_INTER_ENERGY_QM>  (334) 
0

>  <FF_Energy>  (334) 
19.83

>  <QM_Energy>  (334) 
54.49

>  <source>  (334) 
ACEM_nNMA_21

>  <Index>  (334) 
5169

$$$$
ACEM-pdb1txg-A-GLN-98:NMA-pdb1txg-A-LEU-95
     RDKit          3D

 21 19  0  0  0  0  0  0  0  0999 V2000
   -5.7602    0.6078   -0.9373 C   0  0  0  0  0  0  0  0  0  0  0  0
   -6.2476    1.4337   -0.5972 H   0  0  0  0  0  0  0  0  0  0  0  0
   -6.2252   -0.1983   -0.5256 H   0  0  0  0  0  0  0  0  0  0  0  0
   -5.8675    0.5587   -2.0209 H   0  0  0  0  0  0  0  0  0  0  0  0
   -4.3304    0.6528   -0.3824 C   0  0  0  0  0  0  0  0  0  0  0  0
   -3.3591    0.2342   -1.1727 N   0  0  0  0  0  0  0  0  0  0  0  0
   -2.3954    0.2509   -0.8749 H   0  0  0  0  0  0  0  0  0  0  0  0
   -3.6011   -0.1130   -2.1056 H   0  0  0  0  0  0  0  0  0  0  0  0
   -4.1166    1.0847    0.7924 O   0  0  0  0  0  0  0  0  0  0  0  0
   -1.1722   -2.1586   -0.1054 C   0  0  0  0  0  0  0  0  0  0  0  0
   -0.2457   -2.5175   -0.0787 H   0  0  0  0  0  0  0  0  0  0  0  0
   -1.6170   -2.4041   -1.0698 H   0  0  0  0  0  0  0  0  0  0  0  0
   -1.6875   -2.5790    0.7583 H   0  0  0  0  0  0  0  0  0  0  0  0
   -1.1269   -0.7045    0.0000 N   0  0  0  0  0  0  0  0  0  0  0  0
   -1.9962   -0.1163    0.0842 H   0  0  0  0  0  0  0  0  0  0  0  0
    0.0000    0.0000    0.0000 C   0  0  0  0  0  0  0  0  0  0  0  0
    1.1269   -0.5175    0.0000 O   0  0  0  0  0  0  0  0  0  0  0  0
   -0.1411    1.5180   -0.0072 C   0  0  0  0  0  0  0  0  0  0  0  0
   -1.0812    1.7512    0.2659 H   0  0  0  0  0  0  0  0  0  0  0  0
    0.5487    1.9801    0.6990 H   0  0  0  0  0  0  0  0  0  0  0  0
    0.0459    1.8956   -1.0124 H   0  0  0  0  0  0  0  0  0  0  0  0
  1  5  1  0
  5  6  1  0
  5  9  2  0
  1  2  1  0
  1  3  1  0
  1  4  1  0
  6  7  1  0
  6  8  1  0
 10 14  1  0
 14 16  1  0
 16 17  2  0
 16 18  1  0
 10 11  1  0
 10 12  1  0
 10 13  1  0
 14 15  1  0
 18 19  1  0
 18 20  1  0
 18 21  1  0
M  END
>  <PDB_ID>  (335) 
pdb1txg

>  <RESIDUE_NAME>  (335) 
GLN   LEU

>  <FRAG_NAME>  (335) 
ACEM   NMA

>  <FRAG_ATOM_NUM>  (335) 
fragi: 9  fragj: 12

>  <atom.prop.CHAIN_ID>  (335) 
A A A A A A A A A Z Z Z Z Z Z Z Z Z Z Z Z

>  <atom.prop.IS_HEAVY_ATOM>  (335) 
1 0 0 0 1 1 0 0 1 1 0 0 0 1 0 1 1 1 0 0 0

>  <DIFUSE_FUNC_ATOM>  (335) 
n/a

>  <FINAL_SINGLE_POINT_ENERGY>  (335) 
0

>  <NONCOV_INTER_ENERGY_QM>  (335) 
0

>  <FF_Energy>  (335) 
7.3

>  <QM_Energy>  (335) 
19.54

>  <source>  (335) 
ACEM_nNMA_21

>  <Index>  (335) 
5368

$$$$
ACEM-pdb1txk-A-GLN-260:NMA-pdb1txk-A-ASN-292
     RDKit          3D

 21 19  0  0  0  0  0  0  0  0999 V2000
   -4.4941    1.5323    2.3784 C   0  0  0  0  0  0  0  0  0  0  0  0
   -3.7690    2.1575    2.6590 H   0  0  0  0  0  0  0  0  0  0  0  0
   -4.6767    0.8752    3.1064 H   0  0  0  0  0  0  0  0  0  0  0  0
   -5.4005    2.1005    2.1694 H   0  0  0  0  0  0  0  0  0  0  0  0
   -4.0102    0.7632    1.1535 C   0  0  0  0  0  0  0  0  0  0  0  0
   -2.7547    0.3343    1.1712 N   0  0  0  0  0  0  0  0  0  0  0  0
   -2.3720   -0.1949    0.3984 H   0  0  0  0  0  0  0  0  0  0  0  0
   -2.1753    0.5479    1.9842 H   0  0  0  0  0  0  0  0  0  0  0  0
   -4.7583    0.5708    0.2020 O   0  0  0  0  0  0  0  0  0  0  0  0
   -1.1627   -2.1516   -0.0519 C   0  0  0  0  0  0  0  0  0  0  0  0
   -0.2955   -2.4617   -0.3468 H   0  0  0  0  0  0  0  0  0  0  0  0
   -1.8438   -2.2711   -0.8944 H   0  0  0  0  0  0  0  0  0  0  0  0
   -1.6112   -2.5488    0.8587 H   0  0  0  0  0  0  0  0  0  0  0  0
   -1.1197   -0.7035   -0.0000 N   0  0  0  0  0  0  0  0  0  0  0  0
   -1.9937   -0.1113    0.0412 H   0  0  0  0  0  0  0  0  0  0  0  0
    0.0000    0.0000    0.0000 C   0  0  0  0  0  0  0  0  0  0  0  0
    1.1197   -0.5071   -0.0000 O   0  0  0  0  0  0  0  0  0  0  0  0
   -0.1904    1.5106   -0.0109 C   0  0  0  0  0  0  0  0  0  0  0  0
   -0.7873    1.7370    0.7589 H   0  0  0  0  0  0  0  0  0  0  0  0
    0.7704    1.9923    0.1706 H   0  0  0  0  0  0  0  0  0  0  0  0
   -0.5950    1.7829   -0.9857 H   0  0  0  0  0  0  0  0  0  0  0  0
  1  5  1  0
  5  6  1  0
  5  9  2  0
  1  2  1  0
  1  3  1  0
  1  4  1  0
  6  7  1  0
  6  8  1  0
 10 14  1  0
 14 16  1  0
 16 17  2  0
 16 18  1  0
 10 11  1  0
 10 12  1  0
 10 13  1  0
 14 15  1  0
 18 19  1  0
 18 20  1  0
 18 21  1  0
M  END
>  <PDB_ID>  (336) 
pdb1txk

>  <RESIDUE_NAME>  (336) 
GLN   ASN

>  <FRAG_NAME>  (336) 
ACEM   NMA

>  <FRAG_ATOM_NUM>  (336) 
fragi: 9  fragj: 12

>  <atom.prop.CHAIN_ID>  (336) 
A A A A A A A A A Z Z Z Z Z Z Z Z Z Z Z Z

>  <atom.prop.IS_HEAVY_ATOM>  (336) 
1 0 0 0 1 1 0 0 1 1 0 0 0 1 0 1 1 1 0 0 0

>  <DIFUSE_FUNC_ATOM>  (336) 
n/a

>  <FINAL_SINGLE_POINT_ENERGY>  (336) 
0

>  <NONCOV_INTER_ENERGY_QM>  (336) 
0

>  <FF_Energy>  (336) 
107.38

>  <QM_Energy>  (336) 
171.23

>  <source>  (336) 
ACEM_nNMA_21

>  <Index>  (336) 
6821

$$$$
ACEM-pdb1tqj-F-ASN-196:NMA-pdb1tqj-F-TRP-175
     RDKit          3D

 21 19  0  0  0  0  0  0  0  0999 V2000
   -5.8621    0.9932   -0.0228 C   0  0  0  0  0  0  0  0  0  0  0  0
   -6.2076    1.9146   -0.1874 H   0  0  0  0  0  0  0  0  0  0  0  0
   -6.3926    0.5560    0.7001 H   0  0  0  0  0  0  0  0  0  0  0  0
   -6.0041    0.4154   -0.9361 H   0  0  0  0  0  0  0  0  0  0  0  0
   -4.4187    1.0782    0.4071 C   0  0  0  0  0  0  0  0  0  0  0  0
   -3.5024    0.6848   -0.4740 N   0  0  0  0  0  0  0  0  0  0  0  0
   -3.7956    0.3591   -1.3754 H   0  0  0  0  0  0  0  0  0  0  0  0
   -2.5352    0.7148   -0.2415 H   0  0  0  0  0  0  0  0  0  0  0  0
   -4.1195    1.4697    1.5288 O   0  0  0  0  0  0  0  0  0  0  0  0
   -1.1514   -2.1199   -0.3922 C   0  0  0  0  0  0  0  0  0  0  0  0
   -0.1977   -2.4035   -0.4499 H   0  0  0  0  0  0  0  0  0  0  0  0
   -1.5714   -2.1816   -1.3961 H   0  0  0  0  0  0  0  0  0  0  0  0
   -1.6888   -2.7375    0.3274 H   0  0  0  0  0  0  0  0  0  0  0  0
   -1.1294   -0.7139    0.0000 N   0  0  0  0  0  0  0  0  0  0  0  0
   -1.9738   -0.1884    0.2983 H   0  0  0  0  0  0  0  0  0  0  0  0
    0.0000    0.0000    0.0000 C   0  0  0  0  0  0  0  0  0  0  0  0
    1.1294   -0.5482   -0.0000 O   0  0  0  0  0  0  0  0  0  0  0  0
   -0.1247    1.5325    0.1130 C   0  0  0  0  0  0  0  0  0  0  0  0
   -1.0693    1.7321    0.3781 H   0  0  0  0  0  0  0  0  0  0  0  0
    0.5341    1.9037    0.8980 H   0  0  0  0  0  0  0  0  0  0  0  0
    0.1402    1.9873   -0.8415 H   0  0  0  0  0  0  0  0  0  0  0  0
  1  5  1  0
  5  6  1  0
  5  9  2  0
  1  2  1  0
  1  3  1  0
  1  4  1  0
  6  7  1  0
  6  8  1  0
 10 14  1  0
 14 16  1  0
 16 17  2  0
 16 18  1  0
 10 11  1  0
 10 12  1  0
 10 13  1  0
 14 15  1  0
 18 19  1  0
 18 20  1  0
 18 21  1  0
M  END
>  <PDB_ID>  (337) 
pdb1tqj

>  <RESIDUE_NAME>  (337) 
ASN   TRP

>  <FRAG_NAME>  (337) 
ACEM   NMA

>  <FRAG_ATOM_NUM>  (337) 
fragi: 9  fragj: 12

>  <atom.prop.CHAIN_ID>  (337) 
A A A A A A A A A Z Z Z Z Z Z Z Z Z Z Z Z

>  <atom.prop.IS_HEAVY_ATOM>  (337) 
1 0 0 0 1 1 0 0 1 1 0 0 0 1 0 1 1 1 0 0 0

>  <DIFUSE_FUNC_ATOM>  (337) 
n/a

>  <FINAL_SINGLE_POINT_ENERGY>  (337) 
0

>  <NONCOV_INTER_ENERGY_QM>  (337) 
0

>  <FF_Energy>  (337) 
5.48

>  <QM_Energy>  (337) 
15.54

>  <source>  (337) 
ACEM_nNMA_21

>  <Index>  (337) 
7079

$$$$
ACEM-pdb1u05-B-ASN-50:NMA-pdb1u05-B-GLY-25
     RDKit          3D

 21 19  0  0  0  0  0  0  0  0999 V2000
   -4.7141    2.1315    2.2488 C   0  0  0  0  0  0  0  0  0  0  0  0
   -5.6975    2.0141    2.3696 H   0  0  0  0  0  0  0  0  0  0  0  0
   -4.5237    3.0425    1.8892 H   0  0  0  0  0  0  0  0  0  0  0  0
   -4.2345    2.0397    3.2233 H   0  0  0  0  0  0  0  0  0  0  0  0
   -4.2240    1.1047    1.2494 C   0  0  0  0  0  0  0  0  0  0  0  0
   -2.9410    0.7585    1.3388 N   0  0  0  0  0  0  0  0  0  0  0  0
   -2.3631    1.1692    2.0437 H   0  0  0  0  0  0  0  0  0  0  0  0
   -2.5577    0.0899    0.7034 H   0  0  0  0  0  0  0  0  0  0  0  0
   -4.9878    0.6119    0.4210 O   0  0  0  0  0  0  0  0  0  0  0  0
   -1.1154   -2.1636    0.0371 C   0  0  0  0  0  0  0  0  0  0  0  0
   -0.1911   -2.4839   -0.2159 H   0  0  0  0  0  0  0  0  0  0  0  0
   -1.8198   -2.5903   -0.6769 H   0  0  0  0  0  0  0  0  0  0  0  0
   -1.3531   -2.5051    1.0445 H   0  0  0  0  0  0  0  0  0  0  0  0
   -1.1218   -0.7102    0.0000 N   0  0  0  0  0  0  0  0  0  0  0  0
   -1.9949   -0.1416   -0.0283 H   0  0  0  0  0  0  0  0  0  0  0  0
    0.0000    0.0000    0.0000 C   0  0  0  0  0  0  0  0  0  0  0  0
    1.1218   -0.5126    0.0000 O   0  0  0  0  0  0  0  0  0  0  0  0
   -0.1912    1.5033   -0.0082 C   0  0  0  0  0  0  0  0  0  0  0  0
   -0.3604    1.8223    0.9639 H   0  0  0  0  0  0  0  0  0  0  0  0
   -1.0775    1.7233   -0.4990 H   0  0  0  0  0  0  0  0  0  0  0  0
    0.6054    2.1094   -0.4398 H   0  0  0  0  0  0  0  0  0  0  0  0
  1  5  1  0
  5  6  1  0
  5  9  2  0
  1  2  1  0
  1  3  1  0
  1  4  1  0
  6  7  1  0
  6  8  1  0
 10 14  1  0
 14 16  1  0
 16 17  2  0
 16 18  1  0
 10 11  1  0
 10 12  1  0
 10 13  1  0
 14 15  1  0
 18 19  1  0
 18 20  1  0
 18 21  1  0
M  END
>  <PDB_ID>  (338) 
pdb1u05

>  <RESIDUE_NAME>  (338) 
ASN   GLY

>  <FRAG_NAME>  (338) 
ACEM   NMA

>  <FRAG_ATOM_NUM>  (338) 
fragi: 9  fragj: 12

>  <atom.prop.CHAIN_ID>  (338) 
A A A A A A A A A Z Z Z Z Z Z Z Z Z Z Z Z

>  <atom.prop.IS_HEAVY_ATOM>  (338) 
1 0 0 0 1 1 0 0 1 1 0 0 0 1 0 1 1 1 0 0 0

>  <DIFUSE_FUNC_ATOM>  (338) 
n/a

>  <FINAL_SINGLE_POINT_ENERGY>  (338) 
0

>  <NONCOV_INTER_ENERGY_QM>  (338) 
0

>  <FF_Energy>  (338) 
14.15

>  <QM_Energy>  (338) 
32.57

>  <source>  (338) 
ACEM_nNMA_21

>  <Index>  (338) 
9299

$$$$
ACEM-pdb1twf-A-ASN-1330:NMA-pdb1twf-A-PRO-1114
     RDKit          3D

 21 19  0  0  0  0  0  0  0  0999 V2000
   -6.1422    0.1274   -0.1101 C   0  0  0  0  0  0  0  0  0  0  0  0
   -6.7158    0.8247    0.3033 H   0  0  0  0  0  0  0  0  0  0  0  0
   -6.3260   -0.7612    0.2946 H   0  0  0  0  0  0  0  0  0  0  0  0
   -6.3711    0.0764   -1.1746 H   0  0  0  0  0  0  0  0  0  0  0  0
   -4.6840    0.4855    0.1495 C   0  0  0  0  0  0  0  0  0  0  0  0
   -3.7693   -0.2507   -0.4752 N   0  0  0  0  0  0  0  0  0  0  0  0
   -4.0612   -0.9910   -1.0836 H   0  0  0  0  0  0  0  0  0  0  0  0
   -2.7985   -0.0672   -0.3402 H   0  0  0  0  0  0  0  0  0  0  0  0
   -4.3848    1.4184    0.9012 O   0  0  0  0  0  0  0  0  0  0  0  0
   -1.0809   -2.1637    0.0176 C   0  0  0  0  0  0  0  0  0  0  0  0
   -0.1363   -2.4612    0.2018 H   0  0  0  0  0  0  0  0  0  0  0  0
   -1.3689   -2.5733   -0.9506 H   0  0  0  0  0  0  0  0  0  0  0  0
   -1.7416   -2.5228    0.8067 H   0  0  0  0  0  0  0  0  0  0  0  0
   -1.1129   -0.7159    0.0000 N   0  0  0  0  0  0  0  0  0  0  0  0
   -1.9905   -0.1588   -0.0137 H   0  0  0  0  0  0  0  0  0  0  0  0
    0.0000    0.0000    0.0000 C   0  0  0  0  0  0  0  0  0  0  0  0
    1.1129   -0.4998    0.0000 O   0  0  0  0  0  0  0  0  0  0  0  0
   -0.1602    1.5018   -0.0061 C   0  0  0  0  0  0  0  0  0  0  0  0
   -1.0598    1.7694   -0.3822 H   0  0  0  0  0  0  0  0  0  0  0  0
   -0.0225    1.9239    0.9895 H   0  0  0  0  0  0  0  0  0  0  0  0
    0.6246    1.9824   -0.5901 H   0  0  0  0  0  0  0  0  0  0  0  0
  1  5  1  0
  5  6  1  0
  5  9  2  0
  1  2  1  0
  1  3  1  0
  1  4  1  0
  6  7  1  0
  6  8  1  0
 10 14  1  0
 14 16  1  0
 16 17  2  0
 16 18  1  0
 10 11  1  0
 10 12  1  0
 10 13  1  0
 14 15  1  0
 18 19  1  0
 18 20  1  0
 18 21  1  0
M  END
>  <PDB_ID>  (339) 
pdb1twf

>  <RESIDUE_NAME>  (339) 
ASN   PRO

>  <FRAG_NAME>  (339) 
ACEM   NMA

>  <FRAG_ATOM_NUM>  (339) 
fragi: 9  fragj: 12

>  <atom.prop.CHAIN_ID>  (339) 
A A A A A A A A A Z Z Z Z Z Z Z Z Z Z Z Z

>  <atom.prop.IS_HEAVY_ATOM>  (339) 
1 0 0 0 1 1 0 0 1 1 0 0 0 1 0 1 1 1 0 0 0

>  <DIFUSE_FUNC_ATOM>  (339) 
n/a

>  <FINAL_SINGLE_POINT_ENERGY>  (339) 
0

>  <NONCOV_INTER_ENERGY_QM>  (339) 
0

>  <FF_Energy>  (339) 
11.97

>  <QM_Energy>  (339) 
38.75

>  <source>  (339) 
ACEM_nNMA_21

>  <Index>  (339) 
11413

$$$$
ACEM-pdb2zws-A-GLN-477:NMA-pdb2zws-A-ILE-309
     RDKit          3D

 21 19  0  0  0  0  0  0  0  0999 V2000
   -5.3226    0.8670   -1.1347 C   0  0  0  0  0  0  0  0  0  0  0  0
   -6.0417    0.9187   -0.4496 H   0  0  0  0  0  0  0  0  0  0  0  0
   -5.4098    0.0293   -1.6649 H   0  0  0  0  0  0  0  0  0  0  0  0
   -5.4222    1.7175   -1.8090 H   0  0  0  0  0  0  0  0  0  0  0  0
   -3.9925    0.8832   -0.4534 C   0  0  0  0  0  0  0  0  0  0  0  0
   -2.9471    0.6577   -1.2252 N   0  0  0  0  0  0  0  0  0  0  0  0
   -1.9911    0.6648   -0.8399 H   0  0  0  0  0  0  0  0  0  0  0  0
   -3.0877    0.4740   -2.2171 H   0  0  0  0  0  0  0  0  0  0  0  0
   -3.8955    1.1481    0.7505 O   0  0  0  0  0  0  0  0  0  0  0  0
   -1.1176   -2.1623    0.0927 C   0  0  0  0  0  0  0  0  0  0  0  0
   -0.5013   -2.4335    0.8389 H   0  0  0  0  0  0  0  0  0  0  0  0
   -0.7572   -2.6092   -0.8339 H   0  0  0  0  0  0  0  0  0  0  0  0
   -2.1062   -2.5369    0.3578 H   0  0  0  0  0  0  0  0  0  0  0  0
   -1.1291   -0.6969    0.0000 N   0  0  0  0  0  0  0  0  0  0  0  0
   -1.9951   -0.1382   -0.0690 H   0  0  0  0  0  0  0  0  0  0  0  0
    0.0000    0.0000    0.0000 C   0  0  0  0  0  0  0  0  0  0  0  0
    1.1291   -0.5232    0.0000 O   0  0  0  0  0  0  0  0  0  0  0  0
   -0.1595    1.5130   -0.0269 C   0  0  0  0  0  0  0  0  0  0  0  0
   -1.1265    1.7020    0.1603 H   0  0  0  0  0  0  0  0  0  0  0  0
    0.4074    1.9641    0.7875 H   0  0  0  0  0  0  0  0  0  0  0  0
    0.1489    1.8848   -1.0041 H   0  0  0  0  0  0  0  0  0  0  0  0
  1  5  1  0
  5  6  1  0
  5  9  2  0
  1  2  1  0
  1  3  1  0
  1  4  1  0
  6  7  1  0
  6  8  1  0
 10 14  1  0
 14 16  1  0
 16 17  2  0
 16 18  1  0
 10 11  1  0
 10 12  1  0
 10 13  1  0
 14 15  1  0
 18 19  1  0
 18 20  1  0
 18 21  1  0
M  END
>  <PDB_ID>  (340) 
pdb2zws

>  <RESIDUE_NAME>  (340) 
GLN   ILE

>  <FRAG_NAME>  (340) 
ACEM   NMA

>  <FRAG_ATOM_NUM>  (340) 
fragi: 9  fragj: 12

>  <atom.prop.CHAIN_ID>  (340) 
A A A A A A A A A Z Z Z Z Z Z Z Z Z Z Z Z

>  <atom.prop.IS_HEAVY_ATOM>  (340) 
1 0 0 0 1 1 0 0 1 1 0 0 0 1 0 1 1 1 0 0 0

>  <DIFUSE_FUNC_ATOM>  (340) 
n/a

>  <FINAL_SINGLE_POINT_ENERGY>  (340) 
0

>  <NONCOV_INTER_ENERGY_QM>  (340) 
0

>  <FF_Energy>  (340) 
15.51

>  <QM_Energy>  (340) 
28.41

>  <source>  (340) 
ACEM_nNMA_21

>  <Index>  (340) 
12961

$$$$
ACEM-pdb2zza-A-ASN-60:NMA-pdb2zza-A-PRO-54
     RDKit          3D

 21 19  0  0  0  0  0  0  0  0999 V2000
   -4.3832    2.3795   -1.7179 C   0  0  0  0  0  0  0  0  0  0  0  0
   -3.9508    3.1859   -2.1136 H   0  0  0  0  0  0  0  0  0  0  0  0
   -4.4912    2.4971   -0.7340 H   0  0  0  0  0  0  0  0  0  0  0  0
   -5.3732    2.2688   -2.1603 H   0  0  0  0  0  0  0  0  0  0  0  0
   -3.4880    1.1780   -1.9664 C   0  0  0  0  0  0  0  0  0  0  0  0
   -3.0065    0.5749   -0.8917 N   0  0  0  0  0  0  0  0  0  0  0  0
   -3.2414    0.9099    0.0228 H   0  0  0  0  0  0  0  0  0  0  0  0
   -2.4044   -0.2206   -0.9873 H   0  0  0  0  0  0  0  0  0  0  0  0
   -3.2272    0.8010   -3.1151 O   0  0  0  0  0  0  0  0  0  0  0  0
   -1.0482   -2.1698   -0.0484 C   0  0  0  0  0  0  0  0  0  0  0  0
   -0.2118   -2.4690    0.3964 H   0  0  0  0  0  0  0  0  0  0  0  0
   -1.0048   -2.4608   -1.0979 H   0  0  0  0  0  0  0  0  0  0  0  0
   -1.9120   -2.6090    0.4506 H   0  0  0  0  0  0  0  0  0  0  0  0
   -1.1161   -0.7175    0.0000 N   0  0  0  0  0  0  0  0  0  0  0  0
   -1.9914   -0.1795    0.0355 H   0  0  0  0  0  0  0  0  0  0  0  0
    0.0000    0.0000    0.0000 C   0  0  0  0  0  0  0  0  0  0  0  0
    1.1161   -0.5167    0.0000 O   0  0  0  0  0  0  0  0  0  0  0  0
   -0.1547    1.5143    0.0369 C   0  0  0  0  0  0  0  0  0  0  0  0
   -1.0265    1.7751    0.4473 H   0  0  0  0  0  0  0  0  0  0  0  0
    0.6818    1.9422    0.5893 H   0  0  0  0  0  0  0  0  0  0  0  0
   -0.0599    1.9750   -0.9464 H   0  0  0  0  0  0  0  0  0  0  0  0
  1  5  1  0
  5  6  1  0
  5  9  2  0
  1  2  1  0
  1  3  1  0
  1  4  1  0
  6  7  1  0
  6  8  1  0
 10 14  1  0
 14 16  1  0
 16 17  2  0
 16 18  1  0
 10 11  1  0
 10 12  1  0
 10 13  1  0
 14 15  1  0
 18 19  1  0
 18 20  1  0
 18 21  1  0
M  END
>  <PDB_ID>  (341) 
pdb2zza

>  <RESIDUE_NAME>  (341) 
ASN   PRO

>  <FRAG_NAME>  (341) 
ACEM   NMA

>  <FRAG_ATOM_NUM>  (341) 
fragi: 9  fragj: 12

>  <atom.prop.CHAIN_ID>  (341) 
A A A A A A A A A Z Z Z Z Z Z Z Z Z Z Z Z

>  <atom.prop.IS_HEAVY_ATOM>  (341) 
1 0 0 0 1 1 0 0 1 1 0 0 0 1 0 1 1 1 0 0 0

>  <DIFUSE_FUNC_ATOM>  (341) 
n/a

>  <FINAL_SINGLE_POINT_ENERGY>  (341) 
0

>  <NONCOV_INTER_ENERGY_QM>  (341) 
0

>  <FF_Energy>  (341) 
28.25

>  <QM_Energy>  (341) 
38.32

>  <source>  (341) 
ACEM_nNMA_21

>  <Index>  (341) 
13997

$$$$
ACEM-pdb2zy3-A-ASN-29:NMA-pdb2zy3-A-ILE-481
     RDKit          3D

 21 19  0  0  0  0  0  0  0  0999 V2000
   -5.3264    0.0785    2.3626 C   0  0  0  0  0  0  0  0  0  0  0  0
   -5.4933    0.7879    3.0429 H   0  0  0  0  0  0  0  0  0  0  0  0
   -5.2677   -0.8133    2.8051 H   0  0  0  0  0  0  0  0  0  0  0  0
   -6.1648    0.0637    1.6663 H   0  0  0  0  0  0  0  0  0  0  0  0
   -3.9821    0.3685    1.6867 C   0  0  0  0  0  0  0  0  0  0  0  0
   -3.7441   -0.2745    0.5458 N   0  0  0  0  0  0  0  0  0  0  0  0
   -4.4320   -0.9011    0.1764 H   0  0  0  0  0  0  0  0  0  0  0  0
   -2.8842   -0.1329    0.0597 H   0  0  0  0  0  0  0  0  0  0  0  0
   -3.1868    1.1781    2.1690 O   0  0  0  0  0  0  0  0  0  0  0  0
   -1.1048   -2.1789   -0.0098 C   0  0  0  0  0  0  0  0  0  0  0  0
   -0.1436   -2.4768   -0.0100 H   0  0  0  0  0  0  0  0  0  0  0  0
   -1.5833   -2.5601   -0.9118 H   0  0  0  0  0  0  0  0  0  0  0  0
   -1.6298   -2.5869    0.8540 H   0  0  0  0  0  0  0  0  0  0  0  0
   -1.1216   -0.7187   -0.0000 N   0  0  0  0  0  0  0  0  0  0  0  0
   -1.9967   -0.1573    0.0075 H   0  0  0  0  0  0  0  0  0  0  0  0
    0.0000    0.0000    0.0000 C   0  0  0  0  0  0  0  0  0  0  0  0
    1.1216   -0.5072    0.0000 O   0  0  0  0  0  0  0  0  0  0  0  0
   -0.1615    1.5200    0.0256 C   0  0  0  0  0  0  0  0  0  0  0  0
   -1.0386    1.7036    0.4741 H   0  0  0  0  0  0  0  0  0  0  0  0
    0.6087    1.9698    0.6521 H   0  0  0  0  0  0  0  0  0  0  0  0
   -0.1125    1.9390   -0.9795 H   0  0  0  0  0  0  0  0  0  0  0  0
  1  5  1  0
  5  6  1  0
  5  9  2  0
  1  2  1  0
  1  3  1  0
  1  4  1  0
  6  7  1  0
  6  8  1  0
 10 14  1  0
 14 16  1  0
 16 17  2  0
 16 18  1  0
 10 11  1  0
 10 12  1  0
 10 13  1  0
 14 15  1  0
 18 19  1  0
 18 20  1  0
 18 21  1  0
M  END
>  <PDB_ID>  (342) 
pdb2zy3

>  <RESIDUE_NAME>  (342) 
ASN   ILE

>  <FRAG_NAME>  (342) 
ACEM   NMA

>  <FRAG_ATOM_NUM>  (342) 
fragi: 9  fragj: 12

>  <atom.prop.CHAIN_ID>  (342) 
A A A A A A A A A Z Z Z Z Z Z Z Z Z Z Z Z

>  <atom.prop.IS_HEAVY_ATOM>  (342) 
1 0 0 0 1 1 0 0 1 1 0 0 0 1 0 1 1 1 0 0 0

>  <DIFUSE_FUNC_ATOM>  (342) 
n/a

>  <FINAL_SINGLE_POINT_ENERGY>  (342) 
0

>  <NONCOV_INTER_ENERGY_QM>  (342) 
0

>  <FF_Energy>  (342) 
11.74

>  <QM_Energy>  (342) 
37.77

>  <source>  (342) 
ACEM_nNMA_21

>  <Index>  (342) 
15564

$$$$
ACEM-pdb1twf-B-GLN-800:NMA-pdb1twf-B-GLN-821
     RDKit          3D

 21 19  0  0  0  0  0  0  0  0999 V2000
   -4.4527    2.3908   -0.0708 C   0  0  0  0  0  0  0  0  0  0  0  0
   -5.4101    2.6479    0.0294 H   0  0  0  0  0  0  0  0  0  0  0  0
   -3.9648    3.0847   -0.5934 H   0  0  0  0  0  0  0  0  0  0  0  0
   -4.0013    2.3070    0.9178 H   0  0  0  0  0  0  0  0  0  0  0  0
   -4.4002    1.0642   -0.8770 C   0  0  0  0  0  0  0  0  0  0  0  0
   -3.4211    0.2040   -0.5504 N   0  0  0  0  0  0  0  0  0  0  0  0
   -3.3438   -0.6744   -1.0239 H   0  0  0  0  0  0  0  0  0  0  0  0
   -2.7720    0.4710    0.1836 H   0  0  0  0  0  0  0  0  0  0  0  0
   -5.2425    0.8200   -1.7712 O   0  0  0  0  0  0  0  0  0  0  0  0
   -1.1259   -2.1435   -0.0404 C   0  0  0  0  0  0  0  0  0  0  0  0
   -0.3045   -2.4590    0.4062 H   0  0  0  0  0  0  0  0  0  0  0  0
   -1.0326   -2.3966   -1.0965 H   0  0  0  0  0  0  0  0  0  0  0  0
   -2.0759   -2.5164    0.3426 H   0  0  0  0  0  0  0  0  0  0  0  0
   -1.1207   -0.6983   -0.0000 N   0  0  0  0  0  0  0  0  0  0  0  0
   -1.9913   -0.1211    0.0317 H   0  0  0  0  0  0  0  0  0  0  0  0
    0.0000    0.0000    0.0000 C   0  0  0  0  0  0  0  0  0  0  0  0
    1.1207   -0.5069   -0.0000 O   0  0  0  0  0  0  0  0  0  0  0  0
   -0.1856    1.4899    0.0180 C   0  0  0  0  0  0  0  0  0  0  0  0
   -1.0269    1.6974    0.5278 H   0  0  0  0  0  0  0  0  0  0  0  0
    0.6465    1.9606    0.5414 H   0  0  0  0  0  0  0  0  0  0  0  0
   -0.2704    1.8377   -1.0115 H   0  0  0  0  0  0  0  0  0  0  0  0
  1  5  1  0
  5  6  1  0
  5  9  2  0
  1  2  1  0
  1  3  1  0
  1  4  1  0
  6  7  1  0
  6  8  1  0
 10 14  1  0
 14 16  1  0
 16 17  2  0
 16 18  1  0
 10 11  1  0
 10 12  1  0
 10 13  1  0
 14 15  1  0
 18 19  1  0
 18 20  1  0
 18 21  1  0
M  END
>  <PDB_ID>  (343) 
pdb1twf

>  <RESIDUE_NAME>  (343) 
GLN   GLN

>  <FRAG_NAME>  (343) 
ACEM   NMA

>  <FRAG_ATOM_NUM>  (343) 
fragi: 9  fragj: 12

>  <atom.prop.CHAIN_ID>  (343) 
A A A A A A A A A Z Z Z Z Z Z Z Z Z Z Z Z

>  <atom.prop.IS_HEAVY_ATOM>  (343) 
1 0 0 0 1 1 0 0 1 1 0 0 0 1 0 1 1 1 0 0 0

>  <DIFUSE_FUNC_ATOM>  (343) 
n/a

>  <FINAL_SINGLE_POINT_ENERGY>  (343) 
0

>  <NONCOV_INTER_ENERGY_QM>  (343) 
0

>  <FF_Energy>  (343) 
23.54

>  <QM_Energy>  (343) 
37.39

>  <source>  (343) 
ACEM_nNMA_21

>  <Index>  (343) 
16978

$$$$
ACEM-pdb2zzs-C-ASN-51:NMA-pdb2zzs-C-ASN-43
     RDKit          3D

 21 19  0  0  0  0  0  0  0  0999 V2000
   -5.0268    1.1544   -0.6450 C   0  0  0  0  0  0  0  0  0  0  0  0
   -5.9566    1.3033   -0.9760 H   0  0  0  0  0  0  0  0  0  0  0  0
   -4.5825    2.0328   -0.4793 H   0  0  0  0  0  0  0  0  0  0  0  0
   -5.0660    0.5927    0.2883 H   0  0  0  0  0  0  0  0  0  0  0  0
   -4.2474    0.4301   -1.7371 C   0  0  0  0  0  0  0  0  0  0  0  0
   -3.1350   -0.1591   -1.3649 N   0  0  0  0  0  0  0  0  0  0  0  0
   -2.8350   -0.1267   -0.4075 H   0  0  0  0  0  0  0  0  0  0  0  0
   -2.5695   -0.6497   -2.0363 H   0  0  0  0  0  0  0  0  0  0  0  0
   -4.6787    0.3598   -2.8827 O   0  0  0  0  0  0  0  0  0  0  0  0
   -1.0352   -2.1759    0.1903 C   0  0  0  0  0  0  0  0  0  0  0  0
   -0.3914   -2.3780    0.9324 H   0  0  0  0  0  0  0  0  0  0  0  0
   -0.6648   -2.6495   -0.7189 H   0  0  0  0  0  0  0  0  0  0  0  0
   -1.9986   -2.5973    0.4774 H   0  0  0  0  0  0  0  0  0  0  0  0
   -1.1137   -0.7405    0.0000 N   0  0  0  0  0  0  0  0  0  0  0  0
   -1.9879   -0.2167   -0.1411 H   0  0  0  0  0  0  0  0  0  0  0  0
    0.0000    0.0000    0.0000 C   0  0  0  0  0  0  0  0  0  0  0  0
    1.1137   -0.5123   -0.0000 O   0  0  0  0  0  0  0  0  0  0  0  0
   -0.1022    1.5461   -0.0133 C   0  0  0  0  0  0  0  0  0  0  0  0
   -1.0096    1.7650   -0.3639 H   0  0  0  0  0  0  0  0  0  0  0  0
   -0.0435    1.9153    1.0105 H   0  0  0  0  0  0  0  0  0  0  0  0
    0.7400    1.9425   -0.5803 H   0  0  0  0  0  0  0  0  0  0  0  0
  1  5  1  0
  5  6  1  0
  5  9  2  0
  1  2  1  0
  1  3  1  0
  1  4  1  0
  6  7  1  0
  6  8  1  0
 10 14  1  0
 14 16  1  0
 16 17  2  0
 16 18  1  0
 10 11  1  0
 10 12  1  0
 10 13  1  0
 14 15  1  0
 18 19  1  0
 18 20  1  0
 18 21  1  0
M  END
>  <PDB_ID>  (344) 
pdb2zzs

>  <RESIDUE_NAME>  (344) 
ASN   ASN

>  <FRAG_NAME>  (344) 
ACEM   NMA

>  <FRAG_ATOM_NUM>  (344) 
fragi: 9  fragj: 12

>  <atom.prop.CHAIN_ID>  (344) 
A A A A A A A A A Z Z Z Z Z Z Z Z Z Z Z Z

>  <atom.prop.IS_HEAVY_ATOM>  (344) 
1 0 0 0 1 1 0 0 1 1 0 0 0 1 0 1 1 1 0 0 0

>  <DIFUSE_FUNC_ATOM>  (344) 
n/a

>  <FINAL_SINGLE_POINT_ENERGY>  (344) 
0

>  <NONCOV_INTER_ENERGY_QM>  (344) 
0

>  <FF_Energy>  (344) 
27.45

>  <QM_Energy>  (344) 
44.89

>  <source>  (344) 
ACEM_nNMA_21

>  <Index>  (344) 
18030

$$$$
ACEM-pdb2zy3-C-ASN-29:NMA-pdb2zy3-C-ILE-481
     RDKit          3D

 21 19  0  0  0  0  0  0  0  0999 V2000
   -5.6902   -0.1868    1.4689 C   0  0  0  0  0  0  0  0  0  0  0  0
   -6.0908    0.4621    2.1097 H   0  0  0  0  0  0  0  0  0  0  0  0
   -5.5478   -1.0658    1.9151 H   0  0  0  0  0  0  0  0  0  0  0  0
   -6.3899   -0.3311    0.6456 H   0  0  0  0  0  0  0  0  0  0  0  0
   -4.3552    0.3469    1.0065 C   0  0  0  0  0  0  0  0  0  0  0  0
   -3.7313   -0.3479    0.0816 N   0  0  0  0  0  0  0  0  0  0  0  0
   -4.1441   -1.1861   -0.2886 H   0  0  0  0  0  0  0  0  0  0  0  0
   -2.8374   -0.0482   -0.2637 H   0  0  0  0  0  0  0  0  0  0  0  0
   -3.8915    1.3787    1.4788 O   0  0  0  0  0  0  0  0  0  0  0  0
   -1.0888   -2.1658    0.0078 C   0  0  0  0  0  0  0  0  0  0  0  0
   -0.1718   -2.4590    0.2794 H   0  0  0  0  0  0  0  0  0  0  0  0
   -1.2748   -2.5309   -1.0022 H   0  0  0  0  0  0  0  0  0  0  0  0
   -1.8450   -2.5803    0.6745 H   0  0  0  0  0  0  0  0  0  0  0  0
   -1.1222   -0.7149   -0.0000 N   0  0  0  0  0  0  0  0  0  0  0  0
   -1.9951   -0.1564   -0.0054 H   0  0  0  0  0  0  0  0  0  0  0  0
    0.0000    0.0000    0.0000 C   0  0  0  0  0  0  0  0  0  0  0  0
    1.1222   -0.5158   -0.0000 O   0  0  0  0  0  0  0  0  0  0  0  0
   -0.1604    1.5231   -0.0354 C   0  0  0  0  0  0  0  0  0  0  0  0
   -1.1440    1.7078    0.0971 H   0  0  0  0  0  0  0  0  0  0  0  0
    0.3593    2.0130    0.7880 H   0  0  0  0  0  0  0  0  0  0  0  0
    0.2240    1.8359   -1.0062 H   0  0  0  0  0  0  0  0  0  0  0  0
  1  5  1  0
  5  6  1  0
  5  9  2  0
  1  2  1  0
  1  3  1  0
  1  4  1  0
  6  7  1  0
  6  8  1  0
 10 14  1  0
 14 16  1  0
 16 17  2  0
 16 18  1  0
 10 11  1  0
 10 12  1  0
 10 13  1  0
 14 15  1  0
 18 19  1  0
 18 20  1  0
 18 21  1  0
M  END
>  <PDB_ID>  (345) 
pdb2zy3

>  <RESIDUE_NAME>  (345) 
ASN   ILE

>  <FRAG_NAME>  (345) 
ACEM   NMA

>  <FRAG_ATOM_NUM>  (345) 
fragi: 9  fragj: 12

>  <atom.prop.CHAIN_ID>  (345) 
A A A A A A A A A Z Z Z Z Z Z Z Z Z Z Z Z

>  <atom.prop.IS_HEAVY_ATOM>  (345) 
1 0 0 0 1 1 0 0 1 1 0 0 0 1 0 1 1 1 0 0 0

>  <DIFUSE_FUNC_ATOM>  (345) 
n/a

>  <FINAL_SINGLE_POINT_ENERGY>  (345) 
0

>  <NONCOV_INTER_ENERGY_QM>  (345) 
0

>  <FF_Energy>  (345) 
14.83

>  <QM_Energy>  (345) 
40.46

>  <source>  (345) 
ACEM_nNMA_21

>  <Index>  (345) 
19214

$$$$
ACEM-pdb1u8w-F-GLN-14:NMA-pdb1u8w-B-SER-140
     RDKit          3D

 21 19  0  0  0  0  0  0  0  0999 V2000
   -5.0463    1.2883    2.4223 C   0  0  0  0  0  0  0  0  0  0  0  0
   -5.0486    2.1594    2.9175 H   0  0  0  0  0  0  0  0  0  0  0  0
   -5.2655    0.5471    3.0602 H   0  0  0  0  0  0  0  0  0  0  0  0
   -5.8045    1.3208    1.6398 H   0  0  0  0  0  0  0  0  0  0  0  0
   -3.6524    1.0536    1.8778 C   0  0  0  0  0  0  0  0  0  0  0  0
   -3.5594    0.2638    0.8150 N   0  0  0  0  0  0  0  0  0  0  0  0
   -2.6573    0.0709    0.3845 H   0  0  0  0  0  0  0  0  0  0  0  0
   -4.4085   -0.1499    0.4338 H   0  0  0  0  0  0  0  0  0  0  0  0
   -2.6724    1.5890    2.3956 O   0  0  0  0  0  0  0  0  0  0  0  0
   -1.0294   -2.1595   -0.0047 C   0  0  0  0  0  0  0  0  0  0  0  0
   -0.2733   -2.4375    0.6033 H   0  0  0  0  0  0  0  0  0  0  0  0
   -0.8061   -2.5453   -0.9994 H   0  0  0  0  0  0  0  0  0  0  0  0
   -1.9529   -2.5921    0.3804 H   0  0  0  0  0  0  0  0  0  0  0  0
   -1.1153   -0.7149   -0.0000 N   0  0  0  0  0  0  0  0  0  0  0  0
   -1.9899   -0.1811    0.0035 H   0  0  0  0  0  0  0  0  0  0  0  0
    0.0000    0.0000    0.0000 C   0  0  0  0  0  0  0  0  0  0  0  0
    1.1153   -0.5213    0.0000 O   0  0  0  0  0  0  0  0  0  0  0  0
   -0.1429    1.5143   -0.0047 C   0  0  0  0  0  0  0  0  0  0  0  0
   -1.0483    1.7395    0.3572 H   0  0  0  0  0  0  0  0  0  0  0  0
    0.6083    1.9458    0.6569 H   0  0  0  0  0  0  0  0  0  0  0  0
    0.0028    1.8856   -1.0191 H   0  0  0  0  0  0  0  0  0  0  0  0
  1  5  1  0
  5  6  1  0
  5  9  2  0
  1  2  1  0
  1  3  1  0
  1  4  1  0
  6  7  1  0
  6  8  1  0
 10 14  1  0
 14 16  1  0
 16 17  2  0
 16 18  1  0
 10 11  1  0
 10 12  1  0
 10 13  1  0
 14 15  1  0
 18 19  1  0
 18 20  1  0
 18 21  1  0
M  END
>  <PDB_ID>  (346) 
pdb1u8w

>  <RESIDUE_NAME>  (346) 
GLN   SER

>  <FRAG_NAME>  (346) 
ACEM   NMA

>  <FRAG_ATOM_NUM>  (346) 
fragi: 9  fragj: 12

>  <atom.prop.CHAIN_ID>  (346) 
A A A A A A A A A Z Z Z Z Z Z Z Z Z Z Z Z

>  <atom.prop.IS_HEAVY_ATOM>  (346) 
1 0 0 0 1 1 0 0 1 1 0 0 0 1 0 1 1 1 0 0 0

>  <DIFUSE_FUNC_ATOM>  (346) 
n/a

>  <FINAL_SINGLE_POINT_ENERGY>  (346) 
0

>  <NONCOV_INTER_ENERGY_QM>  (346) 
0

>  <FF_Energy>  (346) 
14.97

>  <QM_Energy>  (346) 
47.88

>  <source>  (346) 
ACEM_nNMA_21

>  <Index>  (346) 
19223

$$$$
ACEM-pdb2zzs-N-ASN-51:NMA-pdb2zzs-N-ASN-43
     RDKit          3D

 21 19  0  0  0  0  0  0  0  0999 V2000
   -4.3567    1.9722    0.3115 C   0  0  0  0  0  0  0  0  0  0  0  0
   -5.2098    2.4753    0.2032 H   0  0  0  0  0  0  0  0  0  0  0  0
   -3.6094    2.6019    0.5035 H   0  0  0  0  0  0  0  0  0  0  0  0
   -4.4541    1.2637    1.1341 H   0  0  0  0  0  0  0  0  0  0  0  0
   -4.0525    1.2774   -1.0193 C   0  0  0  0  0  0  0  0  0  0  0  0
   -3.3893    0.1357   -0.9433 N   0  0  0  0  0  0  0  0  0  0  0  0
   -3.1191   -0.2329   -0.0514 H   0  0  0  0  0  0  0  0  0  0  0  0
   -3.1529   -0.3669   -1.7776 H   0  0  0  0  0  0  0  0  0  0  0  0
   -4.4132    1.7699   -2.0885 O   0  0  0  0  0  0  0  0  0  0  0  0
   -1.0642   -2.2013    0.0526 C   0  0  0  0  0  0  0  0  0  0  0  0
   -0.3620   -2.4752    0.7352 H   0  0  0  0  0  0  0  0  0  0  0  0
   -0.8138   -2.6696   -0.8993 H   0  0  0  0  0  0  0  0  0  0  0  0
   -1.9969   -2.6208    0.4295 H   0  0  0  0  0  0  0  0  0  0  0  0
   -1.1145   -0.7350   -0.0000 N   0  0  0  0  0  0  0  0  0  0  0  0
   -1.9954   -0.1946   -0.0387 H   0  0  0  0  0  0  0  0  0  0  0  0
    0.0000    0.0000    0.0000 C   0  0  0  0  0  0  0  0  0  0  0  0
    1.1145   -0.5065    0.0000 O   0  0  0  0  0  0  0  0  0  0  0  0
   -0.1379    1.5310    0.0110 C   0  0  0  0  0  0  0  0  0  0  0  0
   -1.1219    1.7368    0.0632 H   0  0  0  0  0  0  0  0  0  0  0  0
    0.3255    1.9738    0.8927 H   0  0  0  0  0  0  0  0  0  0  0  0
    0.2798    1.9669   -0.8965 H   0  0  0  0  0  0  0  0  0  0  0  0
  1  5  1  0
  5  6  1  0
  5  9  2  0
  1  2  1  0
  1  3  1  0
  1  4  1  0
  6  7  1  0
  6  8  1  0
 10 14  1  0
 14 16  1  0
 16 17  2  0
 16 18  1  0
 10 11  1  0
 10 12  1  0
 10 13  1  0
 14 15  1  0
 18 19  1  0
 18 20  1  0
 18 21  1  0
M  END
>  <PDB_ID>  (347) 
pdb2zzs

>  <RESIDUE_NAME>  (347) 
ASN   ASN

>  <FRAG_NAME>  (347) 
ACEM   NMA

>  <FRAG_ATOM_NUM>  (347) 
fragi: 9  fragj: 12

>  <atom.prop.CHAIN_ID>  (347) 
A A A A A A A A A Z Z Z Z Z Z Z Z Z Z Z Z

>  <atom.prop.IS_HEAVY_ATOM>  (347) 
1 0 0 0 1 1 0 0 1 1 0 0 0 1 0 1 1 1 0 0 0

>  <DIFUSE_FUNC_ATOM>  (347) 
n/a

>  <FINAL_SINGLE_POINT_ENERGY>  (347) 
0

>  <NONCOV_INTER_ENERGY_QM>  (347) 
0

>  <FF_Energy>  (347) 
13.18

>  <QM_Energy>  (347) 
23.51

>  <source>  (347) 
ACEM_nNMA_21

>  <Index>  (347) 
20664

$$$$
ACEM-pdb2zy3-E-ASN-29:NMA-pdb2zy3-E-ILE-481
     RDKit          3D

 21 19  0  0  0  0  0  0  0  0999 V2000
   -5.6558   -0.3106    1.7756 C   0  0  0  0  0  0  0  0  0  0  0  0
   -6.0216    0.2577    2.5069 H   0  0  0  0  0  0  0  0  0  0  0  0
   -5.4806   -1.2316    2.1111 H   0  0  0  0  0  0  0  0  0  0  0  0
   -6.4004   -0.3705    0.9818 H   0  0  0  0  0  0  0  0  0  0  0  0
   -4.3366    0.2931    1.3079 C   0  0  0  0  0  0  0  0  0  0  0  0
   -3.8211   -0.2138    0.1946 N   0  0  0  0  0  0  0  0  0  0  0  0
   -4.2999   -0.9462   -0.2906 H   0  0  0  0  0  0  0  0  0  0  0  0
   -2.9545    0.1360   -0.1613 H   0  0  0  0  0  0  0  0  0  0  0  0
   -3.7986    1.2093    1.9334 O   0  0  0  0  0  0  0  0  0  0  0  0
   -1.1063   -2.1569   -0.0137 C   0  0  0  0  0  0  0  0  0  0  0  0
   -0.1842   -2.4653    0.2336 H   0  0  0  0  0  0  0  0  0  0  0  0
   -1.3245   -2.5155   -1.0196 H   0  0  0  0  0  0  0  0  0  0  0  0
   -1.8666   -2.5513    0.6605 H   0  0  0  0  0  0  0  0  0  0  0  0
   -1.1216   -0.7049   -0.0000 N   0  0  0  0  0  0  0  0  0  0  0  0
   -1.9938   -0.1396    0.0105 H   0  0  0  0  0  0  0  0  0  0  0  0
    0.0000    0.0000    0.0000 C   0  0  0  0  0  0  0  0  0  0  0  0
    1.1216   -0.5140   -0.0000 O   0  0  0  0  0  0  0  0  0  0  0  0
   -0.1697    1.5117    0.0131 C   0  0  0  0  0  0  0  0  0  0  0  0
   -1.1371    1.6898    0.2251 H   0  0  0  0  0  0  0  0  0  0  0  0
    0.4116    1.9633    0.8170 H   0  0  0  0  0  0  0  0  0  0  0  0
    0.1327    1.9069   -0.9568 H   0  0  0  0  0  0  0  0  0  0  0  0
  1  5  1  0
  5  6  1  0
  5  9  2  0
  1  2  1  0
  1  3  1  0
  1  4  1  0
  6  7  1  0
  6  8  1  0
 10 14  1  0
 14 16  1  0
 16 17  2  0
 16 18  1  0
 10 11  1  0
 10 12  1  0
 10 13  1  0
 14 15  1  0
 18 19  1  0
 18 20  1  0
 18 21  1  0
M  END
>  <PDB_ID>  (348) 
pdb2zy3

>  <RESIDUE_NAME>  (348) 
ASN   ILE

>  <FRAG_NAME>  (348) 
ACEM   NMA

>  <FRAG_ATOM_NUM>  (348) 
fragi: 9  fragj: 12

>  <atom.prop.CHAIN_ID>  (348) 
A A A A A A A A A Z Z Z Z Z Z Z Z Z Z Z Z

>  <atom.prop.IS_HEAVY_ATOM>  (348) 
1 0 0 0 1 1 0 0 1 1 0 0 0 1 0 1 1 1 0 0 0

>  <DIFUSE_FUNC_ATOM>  (348) 
n/a

>  <FINAL_SINGLE_POINT_ENERGY>  (348) 
0

>  <NONCOV_INTER_ENERGY_QM>  (348) 
0

>  <FF_Energy>  (348) 
8.92

>  <QM_Energy>  (348) 
26.11

>  <source>  (348) 
ACEM_nNMA_21

>  <Index>  (348) 
21262

$$$$
ACEM-pdb2zzs-S-ASN-51:NMA-pdb2zzs-S-ASN-43
     RDKit          3D

 21 19  0  0  0  0  0  0  0  0999 V2000
   -4.3349    2.4420    0.1892 C   0  0  0  0  0  0  0  0  0  0  0  0
   -5.1161    3.0694    0.1471 H   0  0  0  0  0  0  0  0  0  0  0  0
   -3.5070    2.9644    0.4099 H   0  0  0  0  0  0  0  0  0  0  0  0
   -4.5131    1.7299    0.9949 H   0  0  0  0  0  0  0  0  0  0  0  0
   -4.1580    1.7973   -1.1529 C   0  0  0  0  0  0  0  0  0  0  0  0
   -3.3077    0.7530   -1.2444 N   0  0  0  0  0  0  0  0  0  0  0  0
   -2.8404    0.4556   -0.4081 H   0  0  0  0  0  0  0  0  0  0  0  0
   -3.1595    0.3056   -2.1073 H   0  0  0  0  0  0  0  0  0  0  0  0
   -4.7447    2.2535   -2.1194 O   0  0  0  0  0  0  0  0  0  0  0  0
   -1.1722   -2.1290   -0.0409 C   0  0  0  0  0  0  0  0  0  0  0  0
   -0.4733   -2.4895    0.5851 H   0  0  0  0  0  0  0  0  0  0  0  0
   -0.9509   -2.4714   -1.0518 H   0  0  0  0  0  0  0  0  0  0  0  0
   -2.1552   -2.4942    0.2569 H   0  0  0  0  0  0  0  0  0  0  0  0
   -1.1389   -0.6833   -0.0000 N   0  0  0  0  0  0  0  0  0  0  0  0
   -1.9974   -0.0882    0.0312 H   0  0  0  0  0  0  0  0  0  0  0  0
    0.0000    0.0000    0.0000 C   0  0  0  0  0  0  0  0  0  0  0  0
    1.1389   -0.5212    0.0000 O   0  0  0  0  0  0  0  0  0  0  0  0
   -0.1582    1.4919    0.0087 C   0  0  0  0  0  0  0  0  0  0  0  0
   -1.1388    1.6900    0.0752 H   0  0  0  0  0  0  0  0  0  0  0  0
    0.3155    1.8931    0.9046 H   0  0  0  0  0  0  0  0  0  0  0  0
    0.2713    1.9008   -0.9059 H   0  0  0  0  0  0  0  0  0  0  0  0
  1  5  1  0
  5  6  1  0
  5  9  2  0
  1  2  1  0
  1  3  1  0
  1  4  1  0
  6  7  1  0
  6  8  1  0
 10 14  1  0
 14 16  1  0
 16 17  2  0
 16 18  1  0
 10 11  1  0
 10 12  1  0
 10 13  1  0
 14 15  1  0
 18 19  1  0
 18 20  1  0
 18 21  1  0
M  END
>  <PDB_ID>  (349) 
pdb2zzs

>  <RESIDUE_NAME>  (349) 
ASN   ASN

>  <FRAG_NAME>  (349) 
ACEM   NMA

>  <FRAG_ATOM_NUM>  (349) 
fragi: 9  fragj: 12

>  <atom.prop.CHAIN_ID>  (349) 
A A A A A A A A A Z Z Z Z Z Z Z Z Z Z Z Z

>  <atom.prop.IS_HEAVY_ATOM>  (349) 
1 0 0 0 1 1 0 0 1 1 0 0 0 1 0 1 1 1 0 0 0

>  <DIFUSE_FUNC_ATOM>  (349) 
n/a

>  <FINAL_SINGLE_POINT_ENERGY>  (349) 
0

>  <NONCOV_INTER_ENERGY_QM>  (349) 
0

>  <FF_Energy>  (349) 
9.86

>  <QM_Energy>  (349) 
20.06

>  <source>  (349) 
ACEM_nNMA_21

>  <Index>  (349) 
21505

$$$$
ACEM-pdb2zzs-Y-ASN-51:NMA-pdb2zzs-Y-ASN-43
     RDKit          3D

 21 19  0  0  0  0  0  0  0  0999 V2000
   -4.1835    2.4199    0.1197 C   0  0  0  0  0  0  0  0  0  0  0  0
   -5.0512    2.8922    0.0167 H   0  0  0  0  0  0  0  0  0  0  0  0
   -3.4502    3.0682    0.2865 H   0  0  0  0  0  0  0  0  0  0  0  0
   -4.2461    1.7178    0.9511 H   0  0  0  0  0  0  0  0  0  0  0  0
   -3.8797    1.7068   -1.2151 C   0  0  0  0  0  0  0  0  0  0  0  0
   -3.0435    0.6559   -1.1783 N   0  0  0  0  0  0  0  0  0  0  0  0
   -2.6644    0.3837   -0.2887 H   0  0  0  0  0  0  0  0  0  0  0  0
   -2.8131    0.1697   -2.0047 H   0  0  0  0  0  0  0  0  0  0  0  0
   -4.4028    2.0910   -2.2415 O   0  0  0  0  0  0  0  0  0  0  0  0
   -1.0790   -2.1620    0.0259 C   0  0  0  0  0  0  0  0  0  0  0  0
   -0.4286   -2.4653    0.7224 H   0  0  0  0  0  0  0  0  0  0  0  0
   -0.7308   -2.5291   -0.9395 H   0  0  0  0  0  0  0  0  0  0  0  0
   -2.0476   -2.5917    0.2811 H   0  0  0  0  0  0  0  0  0  0  0  0
   -1.1237   -0.7152    0.0000 N   0  0  0  0  0  0  0  0  0  0  0  0
   -1.9950   -0.1599   -0.0195 H   0  0  0  0  0  0  0  0  0  0  0  0
    0.0000    0.0000    0.0000 C   0  0  0  0  0  0  0  0  0  0  0  0
    1.1237   -0.5026   -0.0000 O   0  0  0  0  0  0  0  0  0  0  0  0
   -0.1517    1.5032    0.0402 C   0  0  0  0  0  0  0  0  0  0  0  0
   -1.1304    1.7002    0.1563 H   0  0  0  0  0  0  0  0  0  0  0  0
    0.3661    1.9087    0.9094 H   0  0  0  0  0  0  0  0  0  0  0  0
    0.1642    1.9548   -0.9002 H   0  0  0  0  0  0  0  0  0  0  0  0
  1  5  1  0
  5  6  1  0
  5  9  2  0
  1  2  1  0
  1  3  1  0
  1  4  1  0
  6  7  1  0
  6  8  1  0
 10 14  1  0
 14 16  1  0
 16 17  2  0
 16 18  1  0
 10 11  1  0
 10 12  1  0
 10 13  1  0
 14 15  1  0
 18 19  1  0
 18 20  1  0
 18 21  1  0
M  END
>  <PDB_ID>  (350) 
pdb2zzs

>  <RESIDUE_NAME>  (350) 
ASN   ASN

>  <FRAG_NAME>  (350) 
ACEM   NMA

>  <FRAG_ATOM_NUM>  (350) 
fragi: 9  fragj: 12

>  <atom.prop.CHAIN_ID>  (350) 
A A A A A A A A A Z Z Z Z Z Z Z Z Z Z Z Z

>  <atom.prop.IS_HEAVY_ATOM>  (350) 
1 0 0 0 1 1 0 0 1 1 0 0 0 1 0 1 1 1 0 0 0

>  <DIFUSE_FUNC_ATOM>  (350) 
n/a

>  <FINAL_SINGLE_POINT_ENERGY>  (350) 
0

>  <NONCOV_INTER_ENERGY_QM>  (350) 
0

>  <FF_Energy>  (350) 
20.45

>  <QM_Energy>  (350) 
40.24

>  <source>  (350) 
ACEM_nNMA_21

>  <Index>  (350) 
22487

$$$$
ACEM-pdb1uc3-F-GLN-63:NMA-pdb1uc3-F-MET-58
     RDKit          3D

 21 19  0  0  0  0  0  0  0  0999 V2000
   -4.7866    1.5242   -2.5133 C   0  0  0  0  0  0  0  0  0  0  0  0
   -5.4759    2.2380   -2.4187 H   0  0  0  0  0  0  0  0  0  0  0  0
   -5.1899    0.7134   -2.9309 H   0  0  0  0  0  0  0  0  0  0  0  0
   -3.9863    1.8902   -3.1564 H   0  0  0  0  0  0  0  0  0  0  0  0
   -4.2792    1.1573   -1.1339 C   0  0  0  0  0  0  0  0  0  0  0  0
   -3.4156    0.1581   -1.0670 N   0  0  0  0  0  0  0  0  0  0  0  0
   -3.0195   -0.1366   -0.1763 H   0  0  0  0  0  0  0  0  0  0  0  0
   -3.1460   -0.3206   -1.9278 H   0  0  0  0  0  0  0  0  0  0  0  0
   -4.6667    1.7647   -0.1386 O   0  0  0  0  0  0  0  0  0  0  0  0
   -1.1197   -2.1634    0.0616 C   0  0  0  0  0  0  0  0  0  0  0  0
   -0.1390   -2.4775    0.1314 H   0  0  0  0  0  0  0  0  0  0  0  0
   -1.5790   -2.6948   -0.7719 H   0  0  0  0  0  0  0  0  0  0  0  0
   -1.6073   -2.4906    0.9799 H   0  0  0  0  0  0  0  0  0  0  0  0
   -1.1248   -0.7115    0.0000 N   0  0  0  0  0  0  0  0  0  0  0  0
   -1.9963   -0.1418   -0.0472 H   0  0  0  0  0  0  0  0  0  0  0  0
    0.0000    0.0000    0.0000 C   0  0  0  0  0  0  0  0  0  0  0  0
    1.1248   -0.5125   -0.0000 O   0  0  0  0  0  0  0  0  0  0  0  0
   -0.1705    1.5193   -0.0062 C   0  0  0  0  0  0  0  0  0  0  0  0
   -1.1142    1.7248    0.2609 H   0  0  0  0  0  0  0  0  0  0  0  0
    0.4994    1.9699    0.7262 H   0  0  0  0  0  0  0  0  0  0  0  0
    0.0187    1.9317   -0.9973 H   0  0  0  0  0  0  0  0  0  0  0  0
  1  5  1  0
  5  6  1  0
  5  9  2  0
  1  2  1  0
  1  3  1  0
  1  4  1  0
  6  7  1  0
  6  8  1  0
 10 14  1  0
 14 16  1  0
 16 17  2  0
 16 18  1  0
 10 11  1  0
 10 12  1  0
 10 13  1  0
 14 15  1  0
 18 19  1  0
 18 20  1  0
 18 21  1  0
M  END
>  <PDB_ID>  (351) 
pdb1uc3

>  <RESIDUE_NAME>  (351) 
GLN   MET

>  <FRAG_NAME>  (351) 
ACEM   NMA

>  <FRAG_ATOM_NUM>  (351) 
fragi: 9  fragj: 12

>  <atom.prop.CHAIN_ID>  (351) 
A A A A A A A A A Z Z Z Z Z Z Z Z Z Z Z Z

>  <atom.prop.IS_HEAVY_ATOM>  (351) 
1 0 0 0 1 1 0 0 1 1 0 0 0 1 0 1 1 1 0 0 0

>  <DIFUSE_FUNC_ATOM>  (351) 
n/a

>  <FINAL_SINGLE_POINT_ENERGY>  (351) 
0

>  <NONCOV_INTER_ENERGY_QM>  (351) 
0

>  <FF_Energy>  (351) 
10.75

>  <QM_Energy>  (351) 
26.4

>  <source>  (351) 
ACEM_nNMA_21

>  <Index>  (351) 
22997

$$$$
ACEM-pdb1uf3-B-ASN-41:NMA-pdb1uf3-B-PRO-72
     RDKit          3D

 21 19  0  0  0  0  0  0  0  0999 V2000
   -5.7896   -0.9422   -1.1131 C   0  0  0  0  0  0  0  0  0  0  0  0
   -6.6268   -1.0749   -0.5887 H   0  0  0  0  0  0  0  0  0  0  0  0
   -5.4471   -1.8211   -1.4360 H   0  0  0  0  0  0  0  0  0  0  0  0
   -6.0263   -0.3292   -1.9828 H   0  0  0  0  0  0  0  0  0  0  0  0
   -4.7404   -0.3163   -0.2028 C   0  0  0  0  0  0  0  0  0  0  0  0
   -3.5704   -0.0435   -0.7573 N   0  0  0  0  0  0  0  0  0  0  0  0
   -3.4138   -0.2425   -1.7270 H   0  0  0  0  0  0  0  0  0  0  0  0
   -2.8364    0.3646   -0.2116 H   0  0  0  0  0  0  0  0  0  0  0  0
   -4.9834   -0.0651    0.9754 O   0  0  0  0  0  0  0  0  0  0  0  0
   -1.1036   -2.1894    0.0235 C   0  0  0  0  0  0  0  0  0  0  0  0
   -0.2990   -2.4791    0.6075 H   0  0  0  0  0  0  0  0  0  0  0  0
   -1.0200   -2.7226   -0.9235 H   0  0  0  0  0  0  0  0  0  0  0  0
   -1.9965   -2.5667    0.5219 H   0  0  0  0  0  0  0  0  0  0  0  0
   -1.1182   -0.7228    0.0000 N   0  0  0  0  0  0  0  0  0  0  0  0
   -1.9960   -0.1643   -0.0177 H   0  0  0  0  0  0  0  0  0  0  0  0
    0.0000    0.0000    0.0000 C   0  0  0  0  0  0  0  0  0  0  0  0
    1.1182   -0.5049   -0.0000 O   0  0  0  0  0  0  0  0  0  0  0  0
   -0.1573    1.5322   -0.0056 C   0  0  0  0  0  0  0  0  0  0  0  0
    0.6767    1.9683   -0.3818 H   0  0  0  0  0  0  0  0  0  0  0  0
   -1.0443    1.8642   -0.5451 H   0  0  0  0  0  0  0  0  0  0  0  0
   -0.3228    1.9204    0.9995 H   0  0  0  0  0  0  0  0  0  0  0  0
  1  5  1  0
  5  6  1  0
  5  9  2  0
  1  2  1  0
  1  3  1  0
  1  4  1  0
  6  7  1  0
  6  8  1  0
 10 14  1  0
 14 16  1  0
 16 17  2  0
 16 18  1  0
 10 11  1  0
 10 12  1  0
 10 13  1  0
 14 15  1  0
 18 19  1  0
 18 20  1  0
 18 21  1  0
M  END
>  <PDB_ID>  (352) 
pdb1uf3

>  <RESIDUE_NAME>  (352) 
ASN   PRO

>  <FRAG_NAME>  (352) 
ACEM   NMA

>  <FRAG_ATOM_NUM>  (352) 
fragi: 9  fragj: 12

>  <atom.prop.CHAIN_ID>  (352) 
A A A A A A A A A Z Z Z Z Z Z Z Z Z Z Z Z

>  <atom.prop.IS_HEAVY_ATOM>  (352) 
1 0 0 0 1 1 0 0 1 1 0 0 0 1 0 1 1 1 0 0 0

>  <DIFUSE_FUNC_ATOM>  (352) 
n/a

>  <FINAL_SINGLE_POINT_ENERGY>  (352) 
0

>  <NONCOV_INTER_ENERGY_QM>  (352) 
0

>  <FF_Energy>  (352) 
14.19

>  <QM_Energy>  (352) 
29.19

>  <source>  (352) 
ACEM_nNMA_21

>  <Index>  (352) 
23170

$$$$
ACEM-pdb1ufq-C-GLN-61:NMA-pdb1ufq-C-ILE-137
     RDKit          3D

 21 19  0  0  0  0  0  0  0  0999 V2000
   -6.3349   -0.5506    0.3412 C   0  0  0  0  0  0  0  0  0  0  0  0
   -6.6096   -0.4688    1.3001 H   0  0  0  0  0  0  0  0  0  0  0  0
   -6.9788   -1.1491   -0.1371 H   0  0  0  0  0  0  0  0  0  0  0  0
   -6.3745    0.4377   -0.1166 H   0  0  0  0  0  0  0  0  0  0  0  0
   -4.9563   -1.1747    0.2834 C   0  0  0  0  0  0  0  0  0  0  0  0
   -3.9514   -0.3693   -0.0513 N   0  0  0  0  0  0  0  0  0  0  0  0
   -2.9974   -0.7149   -0.0971 H   0  0  0  0  0  0  0  0  0  0  0  0
   -4.1563    0.6065   -0.2632 H   0  0  0  0  0  0  0  0  0  0  0  0
   -4.7930   -2.3713    0.5430 O   0  0  0  0  0  0  0  0  0  0  0  0
   -1.0529   -2.1785   -0.0293 C   0  0  0  0  0  0  0  0  0  0  0  0
   -0.0962   -2.4534   -0.1878 H   0  0  0  0  0  0  0  0  0  0  0  0
   -1.6671   -2.5867   -0.8319 H   0  0  0  0  0  0  0  0  0  0  0  0
   -1.3674   -2.6000    0.9254 H   0  0  0  0  0  0  0  0  0  0  0  0
   -1.1165   -0.7194   -0.0000 N   0  0  0  0  0  0  0  0  0  0  0  0
   -1.9932   -0.1817    0.0212 H   0  0  0  0  0  0  0  0  0  0  0  0
    0.0000    0.0000    0.0000 C   0  0  0  0  0  0  0  0  0  0  0  0
    1.1165   -0.5216    0.0000 O   0  0  0  0  0  0  0  0  0  0  0  0
   -0.1368    1.5215    0.0127 C   0  0  0  0  0  0  0  0  0  0  0  0
    0.5492    1.8764   -0.6535 H   0  0  0  0  0  0  0  0  0  0  0  0
   -1.1041    1.9029   -0.3142 H   0  0  0  0  0  0  0  0  0  0  0  0
    0.0978    1.8675    1.0194 H   0  0  0  0  0  0  0  0  0  0  0  0
  1  5  1  0
  5  6  1  0
  5  9  2  0
  1  2  1  0
  1  3  1  0
  1  4  1  0
  6  7  1  0
  6  8  1  0
 10 14  1  0
 14 16  1  0
 16 17  2  0
 16 18  1  0
 10 11  1  0
 10 12  1  0
 10 13  1  0
 14 15  1  0
 18 19  1  0
 18 20  1  0
 18 21  1  0
M  END
>  <PDB_ID>  (353) 
pdb1ufq

>  <RESIDUE_NAME>  (353) 
GLN   ILE

>  <FRAG_NAME>  (353) 
ACEM   NMA

>  <FRAG_ATOM_NUM>  (353) 
fragi: 9  fragj: 12

>  <atom.prop.CHAIN_ID>  (353) 
A A A A A A A A A Z Z Z Z Z Z Z Z Z Z Z Z

>  <atom.prop.IS_HEAVY_ATOM>  (353) 
1 0 0 0 1 1 0 0 1 1 0 0 0 1 0 1 1 1 0 0 0

>  <DIFUSE_FUNC_ATOM>  (353) 
n/a

>  <FINAL_SINGLE_POINT_ENERGY>  (353) 
0

>  <NONCOV_INTER_ENERGY_QM>  (353) 
0

>  <FF_Energy>  (353) 
7.39

>  <QM_Energy>  (353) 
17.89

>  <source>  (353) 
ACEM_nNMA_21

>  <Index>  (353) 
23819

$$$$
ACEM-pdb2zy3-C-ASN-253:NMA-pdb2zy3-C-LYS-261
     RDKit          3D

 21 19  0  0  0  0  0  0  0  0999 V2000
   -5.0460    0.9966    2.3791 C   0  0  0  0  0  0  0  0  0  0  0  0
   -4.8279    0.3178    3.0773 H   0  0  0  0  0  0  0  0  0  0  0  0
   -6.0159    0.9488    2.1497 H   0  0  0  0  0  0  0  0  0  0  0  0
   -4.8484    1.9837    2.7969 H   0  0  0  0  0  0  0  0  0  0  0  0
   -4.2330    0.6986    1.1351 C   0  0  0  0  0  0  0  0  0  0  0  0
   -2.9258    0.8778    1.2358 N   0  0  0  0  0  0  0  0  0  0  0  0
   -2.5222    1.1863    2.0986 H   0  0  0  0  0  0  0  0  0  0  0  0
   -2.3314    0.7032    0.4475 H   0  0  0  0  0  0  0  0  0  0  0  0
   -4.7698    0.3277    0.0925 O   0  0  0  0  0  0  0  0  0  0  0  0
   -1.0531   -2.1567   -0.0234 C   0  0  0  0  0  0  0  0  0  0  0  0
   -0.3687   -2.4584    0.6416 H   0  0  0  0  0  0  0  0  0  0  0  0
   -0.7280   -2.4785   -1.0128 H   0  0  0  0  0  0  0  0  0  0  0  0
   -2.0338   -2.5699    0.2125 H   0  0  0  0  0  0  0  0  0  0  0  0
   -1.1130   -0.7125    0.0000 N   0  0  0  0  0  0  0  0  0  0  0  0
   -1.9893   -0.1672    0.0171 H   0  0  0  0  0  0  0  0  0  0  0  0
    0.0000    0.0000    0.0000 C   0  0  0  0  0  0  0  0  0  0  0  0
    1.1130   -0.5057    0.0000 O   0  0  0  0  0  0  0  0  0  0  0  0
   -0.1597    1.4982   -0.0090 C   0  0  0  0  0  0  0  0  0  0  0  0
   -0.9249    1.7534    0.5824 H   0  0  0  0  0  0  0  0  0  0  0  0
    0.7505    1.9513    0.3839 H   0  0  0  0  0  0  0  0  0  0  0  0
   -0.3400    1.8176   -1.0354 H   0  0  0  0  0  0  0  0  0  0  0  0
  1  5  1  0
  5  6  1  0
  5  9  2  0
  1  2  1  0
  1  3  1  0
  1  4  1  0
  6  7  1  0
  6  8  1  0
 10 14  1  0
 14 16  1  0
 16 17  2  0
 16 18  1  0
 10 11  1  0
 10 12  1  0
 10 13  1  0
 14 15  1  0
 18 19  1  0
 18 20  1  0
 18 21  1  0
M  END
>  <PDB_ID>  (354) 
pdb2zy3

>  <RESIDUE_NAME>  (354) 
ASN   LYS

>  <FRAG_NAME>  (354) 
ACEM   NMA

>  <FRAG_ATOM_NUM>  (354) 
fragi: 9  fragj: 12

>  <atom.prop.CHAIN_ID>  (354) 
A A A A A A A A A Z Z Z Z Z Z Z Z Z Z Z Z

>  <atom.prop.IS_HEAVY_ATOM>  (354) 
1 0 0 0 1 1 0 0 1 1 0 0 0 1 0 1 1 1 0 0 0

>  <DIFUSE_FUNC_ATOM>  (354) 
n/a

>  <FINAL_SINGLE_POINT_ENERGY>  (354) 
0

>  <NONCOV_INTER_ENERGY_QM>  (354) 
0

>  <FF_Energy>  (354) 
16.24

>  <QM_Energy>  (354) 
29.28

>  <source>  (354) 
ACEM_nNMA_21

>  <Index>  (354) 
26765

$$$$
ACEM-pdb1umr-B-ASN-76:NMA-pdb1umr-D-CYX-277
     RDKit          3D

 21 19  0  0  0  0  0  0  0  0999 V2000
   -5.6709    1.7445   -0.5600 C   0  0  0  0  0  0  0  0  0  0  0  0
   -5.3885    2.3482   -1.3039 H   0  0  0  0  0  0  0  0  0  0  0  0
   -6.1515    2.2718    0.1383 H   0  0  0  0  0  0  0  0  0  0  0  0
   -6.3530    0.9945   -0.9603 H   0  0  0  0  0  0  0  0  0  0  0  0
   -4.4453    1.1327    0.0565 C   0  0  0  0  0  0  0  0  0  0  0  0
   -3.6913    0.3768   -0.7295 N   0  0  0  0  0  0  0  0  0  0  0  0
   -3.9522    0.2446   -1.6889 H   0  0  0  0  0  0  0  0  0  0  0  0
   -2.8677   -0.0589   -0.3722 H   0  0  0  0  0  0  0  0  0  0  0  0
   -4.1428    1.3869    1.2093 O   0  0  0  0  0  0  0  0  0  0  0  0
   -1.0345   -2.1496   -0.2272 C   0  0  0  0  0  0  0  0  0  0  0  0
   -0.1457   -2.5009    0.0912 H   0  0  0  0  0  0  0  0  0  0  0  0
   -1.0720   -2.3600   -1.2960 H   0  0  0  0  0  0  0  0  0  0  0  0
   -1.9031   -2.5941    0.2588 H   0  0  0  0  0  0  0  0  0  0  0  0
   -1.0804   -0.7577    0.0000 N   0  0  0  0  0  0  0  0  0  0  0  0
   -1.9697   -0.2203    0.1855 H   0  0  0  0  0  0  0  0  0  0  0  0
    0.0000    0.0000    0.0000 C   0  0  0  0  0  0  0  0  0  0  0  0
    1.0804   -0.4574    0.0000 O   0  0  0  0  0  0  0  0  0  0  0  0
   -0.2407    1.4700   -0.0766 C   0  0  0  0  0  0  0  0  0  0  0  0
   -1.1142    1.6828    0.4372 H   0  0  0  0  0  0  0  0  0  0  0  0
    0.5367    2.1221    0.3217 H   0  0  0  0  0  0  0  0  0  0  0  0
   -0.4491    1.7204   -1.1167 H   0  0  0  0  0  0  0  0  0  0  0  0
  1  5  1  0
  5  6  1  0
  5  9  2  0
  1  2  1  0
  1  3  1  0
  1  4  1  0
  6  7  1  0
  6  8  1  0
 10 14  1  0
 14 16  1  0
 16 17  2  0
 16 18  1  0
 10 11  1  0
 10 12  1  0
 10 13  1  0
 14 15  1  0
 18 19  1  0
 18 20  1  0
 18 21  1  0
M  END
>  <PDB_ID>  (355) 
pdb1umr

>  <RESIDUE_NAME>  (355) 
ASN   CYX

>  <FRAG_NAME>  (355) 
ACEM   NMA

>  <FRAG_ATOM_NUM>  (355) 
fragi: 9  fragj: 12

>  <atom.prop.CHAIN_ID>  (355) 
A A A A A A A A A Z Z Z Z Z Z Z Z Z Z Z Z

>  <atom.prop.IS_HEAVY_ATOM>  (355) 
1 0 0 0 1 1 0 0 1 1 0 0 0 1 0 1 1 1 0 0 0

>  <DIFUSE_FUNC_ATOM>  (355) 
n/a

>  <FINAL_SINGLE_POINT_ENERGY>  (355) 
0

>  <NONCOV_INTER_ENERGY_QM>  (355) 
0

>  <FF_Energy>  (355) 
3.81

>  <QM_Energy>  (355) 
17.76

>  <source>  (355) 
ACEM_nNMA_21

>  <Index>  (355) 
26886

$$$$
ACEM-pdb1utc-B-ASN-240:NMA-pdb1utc-B-ALA-210
     RDKit          3D

 21 19  0  0  0  0  0  0  0  0999 V2000
   -6.1825    0.8212   -0.7921 C   0  0  0  0  0  0  0  0  0  0  0  0
   -6.6723    0.6723    0.0635 H   0  0  0  0  0  0  0  0  0  0  0  0
   -6.7499    0.5389   -1.5629 H   0  0  0  0  0  0  0  0  0  0  0  0
   -5.9897    1.8896   -0.8894 H   0  0  0  0  0  0  0  0  0  0  0  0
   -4.9206   -0.0072   -0.7835 C   0  0  0  0  0  0  0  0  0  0  0  0
   -3.8153    0.6355   -0.4240 N   0  0  0  0  0  0  0  0  0  0  0  0
   -3.8448    1.6014   -0.1749 H   0  0  0  0  0  0  0  0  0  0  0  0
   -2.9380    0.1458   -0.4017 H   0  0  0  0  0  0  0  0  0  0  0  0
   -4.9324   -1.2193   -1.0867 O   0  0  0  0  0  0  0  0  0  0  0  0
   -1.1770   -2.1752    0.1614 C   0  0  0  0  0  0  0  0  0  0  0  0
   -0.2281   -2.5123    0.3201 H   0  0  0  0  0  0  0  0  0  0  0  0
   -1.6128   -2.7083   -0.6835 H   0  0  0  0  0  0  0  0  0  0  0  0
   -1.7547   -2.4226    1.0520 H   0  0  0  0  0  0  0  0  0  0  0  0
   -1.1426   -0.7100   -0.0000 N   0  0  0  0  0  0  0  0  0  0  0  0
   -2.0027   -0.1334   -0.1239 H   0  0  0  0  0  0  0  0  0  0  0  0
    0.0000    0.0000    0.0000 C   0  0  0  0  0  0  0  0  0  0  0  0
    1.1426   -0.5048    0.0000 O   0  0  0  0  0  0  0  0  0  0  0  0
   -0.1703    1.5130   -0.0251 C   0  0  0  0  0  0  0  0  0  0  0  0
    0.7407    1.9361   -0.1035 H   0  0  0  0  0  0  0  0  0  0  0  0
   -0.7774    1.8161   -0.8780 H   0  0  0  0  0  0  0  0  0  0  0  0
   -0.6373    1.8470    0.9015 H   0  0  0  0  0  0  0  0  0  0  0  0
  1  5  1  0
  5  6  1  0
  5  9  2  0
  1  2  1  0
  1  3  1  0
  1  4  1  0
  6  7  1  0
  6  8  1  0
 10 14  1  0
 14 16  1  0
 16 17  2  0
 16 18  1  0
 10 11  1  0
 10 12  1  0
 10 13  1  0
 14 15  1  0
 18 19  1  0
 18 20  1  0
 18 21  1  0
M  END
>  <PDB_ID>  (356) 
pdb1utc

>  <RESIDUE_NAME>  (356) 
ASN   ALA

>  <FRAG_NAME>  (356) 
ACEM   NMA

>  <FRAG_ATOM_NUM>  (356) 
fragi: 9  fragj: 12

>  <atom.prop.CHAIN_ID>  (356) 
A A A A A A A A A Z Z Z Z Z Z Z Z Z Z Z Z

>  <atom.prop.IS_HEAVY_ATOM>  (356) 
1 0 0 0 1 1 0 0 1 1 0 0 0 1 0 1 1 1 0 0 0

>  <DIFUSE_FUNC_ATOM>  (356) 
n/a

>  <FINAL_SINGLE_POINT_ENERGY>  (356) 
0

>  <NONCOV_INTER_ENERGY_QM>  (356) 
0

>  <FF_Energy>  (356) 
9.64

>  <QM_Energy>  (356) 
22.17

>  <source>  (356) 
ACEM_nNMA_22

>  <Index>  (356) 
750

$$$$
ACEM-pdb1v8g-A-ASN-263:NMA-pdb1v8g-A-GLY-257
     RDKit          3D

 21 19  0  0  0  0  0  0  0  0999 V2000
   -5.5328    0.6544    2.0262 C   0  0  0  0  0  0  0  0  0  0  0  0
   -6.0386   -0.1809    1.8324 H   0  0  0  0  0  0  0  0  0  0  0  0
   -6.1244    1.4487    1.9203 H   0  0  0  0  0  0  0  0  0  0  0  0
   -5.1900    0.6168    3.0602 H   0  0  0  0  0  0  0  0  0  0  0  0
   -4.3864    0.7677    1.0350 C   0  0  0  0  0  0  0  0  0  0  0  0
   -3.2504    0.1662    1.3754 N   0  0  0  0  0  0  0  0  0  0  0  0
   -3.1893   -0.3310    2.2419 H   0  0  0  0  0  0  0  0  0  0  0  0
   -2.4587    0.2095    0.7679 H   0  0  0  0  0  0  0  0  0  0  0  0
   -4.5161    1.3921   -0.0186 O   0  0  0  0  0  0  0  0  0  0  0  0
   -1.0843   -2.1657   -0.0045 C   0  0  0  0  0  0  0  0  0  0  0  0
   -0.4811   -2.4853   -0.7432 H   0  0  0  0  0  0  0  0  0  0  0  0
   -0.7177   -2.4967    0.8722 H   0  0  0  0  0  0  0  0  0  0  0  0
   -2.0857   -2.5692   -0.1540 H   0  0  0  0  0  0  0  0  0  0  0  0
   -1.1204   -0.7139    0.0000 N   0  0  0  0  0  0  0  0  0  0  0  0
   -1.9942   -0.1578    0.0035 H   0  0  0  0  0  0  0  0  0  0  0  0
    0.0000    0.0000    0.0000 C   0  0  0  0  0  0  0  0  0  0  0  0
    1.1204   -0.5094   -0.0000 O   0  0  0  0  0  0  0  0  0  0  0  0
   -0.1648    1.5089    0.0012 C   0  0  0  0  0  0  0  0  0  0  0  0
   -0.1947    1.8395    0.9549 H   0  0  0  0  0  0  0  0  0  0  0  0
   -1.0421    1.7480   -0.4365 H   0  0  0  0  0  0  0  0  0  0  0  0
    0.6533    1.9958   -0.5296 H   0  0  0  0  0  0  0  0  0  0  0  0
  1  5  1  0
  5  6  1  0
  5  9  2  0
  1  2  1  0
  1  3  1  0
  1  4  1  0
  6  7  1  0
  6  8  1  0
 10 14  1  0
 14 16  1  0
 16 17  2  0
 16 18  1  0
 10 11  1  0
 10 12  1  0
 10 13  1  0
 14 15  1  0
 18 19  1  0
 18 20  1  0
 18 21  1  0
M  END
>  <PDB_ID>  (357) 
pdb1v8g

>  <RESIDUE_NAME>  (357) 
ASN   GLY

>  <FRAG_NAME>  (357) 
ACEM   NMA

>  <FRAG_ATOM_NUM>  (357) 
fragi: 9  fragj: 12

>  <atom.prop.CHAIN_ID>  (357) 
A A A A A A A A A Z Z Z Z Z Z Z Z Z Z Z Z

>  <atom.prop.IS_HEAVY_ATOM>  (357) 
1 0 0 0 1 1 0 0 1 1 0 0 0 1 0 1 1 1 0 0 0

>  <DIFUSE_FUNC_ATOM>  (357) 
n/a

>  <FINAL_SINGLE_POINT_ENERGY>  (357) 
0

>  <NONCOV_INTER_ENERGY_QM>  (357) 
0

>  <FF_Energy>  (357) 
11.14

>  <QM_Energy>  (357) 
30.42

>  <source>  (357) 
ACEM_nNMA_22

>  <Index>  (357) 
6221

$$$$
ACEM-pdb1ve0-A-ASN-78:NMA-pdb1ve0-A-ASN-83
     RDKit          3D

 21 19  0  0  0  0  0  0  0  0999 V2000
   -6.3028    0.0747    0.8314 C   0  0  0  0  0  0  0  0  0  0  0  0
   -6.8918   -0.6759    0.5611 H   0  0  0  0  0  0  0  0  0  0  0  0
   -6.7512    0.9472    0.6857 H   0  0  0  0  0  0  0  0  0  0  0  0
   -6.0742   -0.0260    1.8924 H   0  0  0  0  0  0  0  0  0  0  0  0
   -5.0395    0.0320   -0.0369 C   0  0  0  0  0  0  0  0  0  0  0  0
   -3.9262   -0.3911    0.5410 N   0  0  0  0  0  0  0  0  0  0  0  0
   -3.9473   -0.6714    1.5067 H   0  0  0  0  0  0  0  0  0  0  0  0
   -3.0735   -0.4354    0.0282 H   0  0  0  0  0  0  0  0  0  0  0  0
   -5.0798    0.3819   -1.2130 O   0  0  0  0  0  0  0  0  0  0  0  0
   -1.0680   -2.1720   -0.0179 C   0  0  0  0  0  0  0  0  0  0  0  0
   -0.6387   -2.5055    0.8397 H   0  0  0  0  0  0  0  0  0  0  0  0
   -2.0135   -2.5437   -0.0386 H   0  0  0  0  0  0  0  0  0  0  0  0
   -0.5127   -2.5638   -0.8700 H   0  0  0  0  0  0  0  0  0  0  0  0
   -1.1192   -0.7235    0.0000 N   0  0  0  0  0  0  0  0  0  0  0  0
   -1.9941   -0.1737    0.0137 H   0  0  0  0  0  0  0  0  0  0  0  0
    0.0000    0.0000    0.0000 C   0  0  0  0  0  0  0  0  0  0  0  0
    1.1192   -0.4980    0.0000 O   0  0  0  0  0  0  0  0  0  0  0  0
   -0.1691    1.5191    0.0052 C   0  0  0  0  0  0  0  0  0  0  0  0
   -0.2294    1.8099   -0.9590 H   0  0  0  0  0  0  0  0  0  0  0  0
   -1.0966    1.8192    0.4928 H   0  0  0  0  0  0  0  0  0  0  0  0
    0.6845    1.9880    0.4948 H   0  0  0  0  0  0  0  0  0  0  0  0
  1  5  1  0
  5  6  1  0
  5  9  2  0
  1  2  1  0
  1  3  1  0
  1  4  1  0
  6  7  1  0
  6  8  1  0
 10 14  1  0
 14 16  1  0
 16 17  2  0
 16 18  1  0
 10 11  1  0
 10 12  1  0
 10 13  1  0
 14 15  1  0
 18 19  1  0
 18 20  1  0
 18 21  1  0
M  END
>  <PDB_ID>  (358) 
pdb1ve0

>  <RESIDUE_NAME>  (358) 
ASN   ASN

>  <FRAG_NAME>  (358) 
ACEM   NMA

>  <FRAG_ATOM_NUM>  (358) 
fragi: 9  fragj: 12

>  <atom.prop.CHAIN_ID>  (358) 
A A A A A A A A A Z Z Z Z Z Z Z Z Z Z Z Z

>  <atom.prop.IS_HEAVY_ATOM>  (358) 
1 0 0 0 1 1 0 0 1 1 0 0 0 1 0 1 1 1 0 0 0

>  <DIFUSE_FUNC_ATOM>  (358) 
n/a

>  <FINAL_SINGLE_POINT_ENERGY>  (358) 
0

>  <NONCOV_INTER_ENERGY_QM>  (358) 
0

>  <FF_Energy>  (358) 
5.68

>  <QM_Energy>  (358) 
17.64

>  <source>  (358) 
ACEM_nNMA_22

>  <Index>  (358) 
8093

$$$$
ACEM-pdb1vdw-A-ASN-235:NMA-pdb1vdw-A-ARG-194
     RDKit          3D

 21 19  0  0  0  0  0  0  0  0999 V2000
   -6.0017   -0.6448   -1.1465 C   0  0  0  0  0  0  0  0  0  0  0  0
   -6.6028   -1.2338   -1.6828 H   0  0  0  0  0  0  0  0  0  0  0  0
   -6.1015    0.3025   -1.4425 H   0  0  0  0  0  0  0  0  0  0  0  0
   -6.3023   -0.7101   -0.1008 H   0  0  0  0  0  0  0  0  0  0  0  0
   -4.5780   -1.0750   -1.3632 C   0  0  0  0  0  0  0  0  0  0  0  0
   -3.6467   -0.3806   -0.7185 N   0  0  0  0  0  0  0  0  0  0  0  0
   -3.9109    0.3778   -0.1226 H   0  0  0  0  0  0  0  0  0  0  0  0
   -2.6810   -0.6160   -0.8270 H   0  0  0  0  0  0  0  0  0  0  0  0
   -4.3096   -2.0182   -2.1040 O   0  0  0  0  0  0  0  0  0  0  0  0
   -1.0941   -2.1799    0.0501 C   0  0  0  0  0  0  0  0  0  0  0  0
   -2.0231   -2.4883    0.1618 H   0  0  0  0  0  0  0  0  0  0  0  0
   -0.5636   -2.4270    0.9697 H   0  0  0  0  0  0  0  0  0  0  0  0
   -0.5643   -2.5856   -0.8119 H   0  0  0  0  0  0  0  0  0  0  0  0
   -1.1218   -0.7171    0.0000 N   0  0  0  0  0  0  0  0  0  0  0  0
   -1.9963   -0.1628   -0.0374 H   0  0  0  0  0  0  0  0  0  0  0  0
    0.0000    0.0000    0.0000 C   0  0  0  0  0  0  0  0  0  0  0  0
    1.1218   -0.5097   -0.0000 O   0  0  0  0  0  0  0  0  0  0  0  0
   -0.1381    1.5214    0.0217 C   0  0  0  0  0  0  0  0  0  0  0  0
    0.4629    1.9079   -0.7079 H   0  0  0  0  0  0  0  0  0  0  0  0
   -1.1526    1.8868   -0.1372 H   0  0  0  0  0  0  0  0  0  0  0  0
    0.2375    1.8614    0.9868 H   0  0  0  0  0  0  0  0  0  0  0  0
  1  5  1  0
  5  6  1  0
  5  9  2  0
  1  2  1  0
  1  3  1  0
  1  4  1  0
  6  7  1  0
  6  8  1  0
 10 14  1  0
 14 16  1  0
 16 17  2  0
 16 18  1  0
 10 11  1  0
 10 12  1  0
 10 13  1  0
 14 15  1  0
 18 19  1  0
 18 20  1  0
 18 21  1  0
M  END
>  <PDB_ID>  (359) 
pdb1vdw

>  <RESIDUE_NAME>  (359) 
ASN   ARG

>  <FRAG_NAME>  (359) 
ACEM   NMA

>  <FRAG_ATOM_NUM>  (359) 
fragi: 9  fragj: 12

>  <atom.prop.CHAIN_ID>  (359) 
A A A A A A A A A Z Z Z Z Z Z Z Z Z Z Z Z

>  <atom.prop.IS_HEAVY_ATOM>  (359) 
1 0 0 0 1 1 0 0 1 1 0 0 0 1 0 1 1 1 0 0 0

>  <DIFUSE_FUNC_ATOM>  (359) 
n/a

>  <FINAL_SINGLE_POINT_ENERGY>  (359) 
0

>  <NONCOV_INTER_ENERGY_QM>  (359) 
0

>  <FF_Energy>  (359) 
12.73

>  <QM_Energy>  (359) 
23.04

>  <source>  (359) 
ACEM_nNMA_22

>  <Index>  (359) 
8442

$$$$
ACEM-pdb1vcv-B-GLN-198:NMA-pdb1vcv-B-ARG-194
     RDKit          3D

 21 19  0  0  0  0  0  0  0  0999 V2000
   -5.0998   -0.6552    1.6700 C   0  0  0  0  0  0  0  0  0  0  0  0
   -5.9625   -0.5588    2.1642 H   0  0  0  0  0  0  0  0  0  0  0  0
   -4.6434   -1.4981    1.9524 H   0  0  0  0  0  0  0  0  0  0  0  0
   -5.3102   -0.7091    0.6019 H   0  0  0  0  0  0  0  0  0  0  0  0
   -4.2056    0.5211    2.0293 C   0  0  0  0  0  0  0  0  0  0  0  0
   -3.1456    0.7167    1.2513 N   0  0  0  0  0  0  0  0  0  0  0  0
   -2.5110    1.4918    1.4223 H   0  0  0  0  0  0  0  0  0  0  0  0
   -2.9786    0.0747    0.4787 H   0  0  0  0  0  0  0  0  0  0  0  0
   -4.4713    1.2514    2.9887 O   0  0  0  0  0  0  0  0  0  0  0  0
   -1.0289   -2.1784    0.0108 C   0  0  0  0  0  0  0  0  0  0  0  0
   -0.0385   -2.4365   -0.1063 H   0  0  0  0  0  0  0  0  0  0  0  0
   -1.6062   -2.7035   -0.7502 H   0  0  0  0  0  0  0  0  0  0  0  0
   -1.3306   -2.5871    0.9752 H   0  0  0  0  0  0  0  0  0  0  0  0
   -1.1154   -0.7213    0.0000 N   0  0  0  0  0  0  0  0  0  0  0  0
   -1.9913   -0.1936   -0.0079 H   0  0  0  0  0  0  0  0  0  0  0  0
    0.0000    0.0000    0.0000 C   0  0  0  0  0  0  0  0  0  0  0  0
    1.1154   -0.5199    0.0000 O   0  0  0  0  0  0  0  0  0  0  0  0
   -0.1266    1.5197    0.0192 C   0  0  0  0  0  0  0  0  0  0  0  0
    0.6101    1.9103   -0.5973 H   0  0  0  0  0  0  0  0  0  0  0  0
   -1.0796    1.9578   -0.2775 H   0  0  0  0  0  0  0  0  0  0  0  0
    0.1433    1.8612    1.0184 H   0  0  0  0  0  0  0  0  0  0  0  0
  1  5  1  0
  5  6  1  0
  5  9  2  0
  1  2  1  0
  1  3  1  0
  1  4  1  0
  6  7  1  0
  6  8  1  0
 10 14  1  0
 14 16  1  0
 16 17  2  0
 16 18  1  0
 10 11  1  0
 10 12  1  0
 10 13  1  0
 14 15  1  0
 18 19  1  0
 18 20  1  0
 18 21  1  0
M  END
>  <PDB_ID>  (360) 
pdb1vcv

>  <RESIDUE_NAME>  (360) 
GLN   ARG

>  <FRAG_NAME>  (360) 
ACEM   NMA

>  <FRAG_ATOM_NUM>  (360) 
fragi: 9  fragj: 12

>  <atom.prop.CHAIN_ID>  (360) 
A A A A A A A A A Z Z Z Z Z Z Z Z Z Z Z Z

>  <atom.prop.IS_HEAVY_ATOM>  (360) 
1 0 0 0 1 1 0 0 1 1 0 0 0 1 0 1 1 1 0 0 0

>  <DIFUSE_FUNC_ATOM>  (360) 
n/a

>  <FINAL_SINGLE_POINT_ENERGY>  (360) 
0

>  <NONCOV_INTER_ENERGY_QM>  (360) 
0

>  <FF_Energy>  (360) 
10.14

>  <QM_Energy>  (360) 
20.52

>  <source>  (360) 
ACEM_nNMA_22

>  <Index>  (360) 
8449

$$$$
ACEM-pdb1vh0-B-ASN-122:NMA-pdb1vh0-B-THR-72
     RDKit          3D

 21 19  0  0  0  0  0  0  0  0999 V2000
   -4.0972    0.3975   -0.7387 C   0  0  0  0  0  0  0  0  0  0  0  0
   -3.2572   -0.0389   -0.9886 H   0  0  0  0  0  0  0  0  0  0  0  0
   -4.2138    1.2740   -1.1604 H   0  0  0  0  0  0  0  0  0  0  0  0
   -4.9301   -0.2456   -1.0227 H   0  0  0  0  0  0  0  0  0  0  0  0
   -4.1119    0.5844    0.7822 C   0  0  0  0  0  0  0  0  0  0  0  0
   -2.9048    0.4555    1.3529 N   0  0  0  0  0  0  0  0  0  0  0  0
   -2.0943    0.2635    0.8197 H   0  0  0  0  0  0  0  0  0  0  0  0
   -2.8273    0.5584    2.3556 H   0  0  0  0  0  0  0  0  0  0  0  0
   -5.1656    0.8793    1.3878 O   0  0  0  0  0  0  0  0  0  0  0  0
   -0.9747   -2.1577   -0.3359 C   0  0  0  0  0  0  0  0  0  0  0  0
    0.0018   -2.3767   -0.2762 H   0  0  0  0  0  0  0  0  0  0  0  0
   -1.3191   -2.3382   -1.3542 H   0  0  0  0  0  0  0  0  0  0  0  0
   -1.4359   -2.8316    0.3861 H   0  0  0  0  0  0  0  0  0  0  0  0
   -1.1213   -0.7183   -0.0000 N   0  0  0  0  0  0  0  0  0  0  0  0
   -1.9753   -0.2605    0.2204 H   0  0  0  0  0  0  0  0  0  0  0  0
    0.0000    0.0000    0.0000 C   0  0  0  0  0  0  0  0  0  0  0  0
    1.1213   -0.4799    0.0000 O   0  0  0  0  0  0  0  0  0  0  0  0
   -0.2072    1.4638    0.4390 C   0  0  0  0  0  0  0  0  0  0  0  0
   -1.1205    1.5598    0.7747 H   0  0  0  0  0  0  0  0  0  0  0  0
    0.4847    1.5983    1.2705 H   0  0  0  0  0  0  0  0  0  0  0  0
    0.0139    2.1008   -0.4173 H   0  0  0  0  0  0  0  0  0  0  0  0
  1  5  1  0
  5  6  1  0
  5  9  2  0
  1  2  1  0
  1  3  1  0
  1  4  1  0
  6  7  1  0
  6  8  1  0
 10 14  1  0
 14 16  1  0
 16 17  2  0
 16 18  1  0
 10 11  1  0
 10 12  1  0
 10 13  1  0
 14 15  1  0
 18 19  1  0
 18 20  1  0
 18 21  1  0
M  END
>  <PDB_ID>  (361) 
pdb1vh0

>  <RESIDUE_NAME>  (361) 
ASN   THR

>  <FRAG_NAME>  (361) 
ACEM   NMA

>  <FRAG_ATOM_NUM>  (361) 
fragi: 9  fragj: 12

>  <atom.prop.CHAIN_ID>  (361) 
A A A A A A A A A Z Z Z Z Z Z Z Z Z Z Z Z

>  <atom.prop.IS_HEAVY_ATOM>  (361) 
1 0 0 0 1 1 0 0 1 1 0 0 0 1 0 1 1 1 0 0 0

>  <DIFUSE_FUNC_ATOM>  (361) 
n/a

>  <FINAL_SINGLE_POINT_ENERGY>  (361) 
0

>  <NONCOV_INTER_ENERGY_QM>  (361) 
0

>  <FF_Energy>  (361) 
37.76

>  <QM_Energy>  (361) 
65.29

>  <source>  (361) 
ACEM_nNMA_22

>  <Index>  (361) 
10314

$$$$
ACEM-pdb1viu-D-ASN-46:NMA-pdb1viu-D-GLU-127
     RDKit          3D

 21 19  0  0  0  0  0  0  0  0999 V2000
   -5.1827   -0.5828   -0.5742 C   0  0  0  0  0  0  0  0  0  0  0  0
   -6.1617   -0.7571   -0.5494 H   0  0  0  0  0  0  0  0  0  0  0  0
   -4.7017   -1.3668   -0.9553 H   0  0  0  0  0  0  0  0  0  0  0  0
   -5.0005    0.2806   -1.2141 H   0  0  0  0  0  0  0  0  0  0  0  0
   -4.6954   -0.3587    0.8428 C   0  0  0  0  0  0  0  0  0  0  0  0
   -3.4210   -0.0280    0.9857 N   0  0  0  0  0  0  0  0  0  0  0  0
   -2.8356    0.0682    0.1777 H   0  0  0  0  0  0  0  0  0  0  0  0
   -3.0397    0.1279    1.8965 H   0  0  0  0  0  0  0  0  0  0  0  0
   -5.4607   -0.4842    1.8010 O   0  0  0  0  0  0  0  0  0  0  0  0
   -1.1003   -2.1512   -0.0665 C   0  0  0  0  0  0  0  0  0  0  0  0
   -0.1726   -2.4641   -0.0703 H   0  0  0  0  0  0  0  0  0  0  0  0
   -1.5392   -2.3641   -1.0413 H   0  0  0  0  0  0  0  0  0  0  0  0
   -1.7295   -2.5936    0.7058 H   0  0  0  0  0  0  0  0  0  0  0  0
   -1.1220   -0.7067   -0.0000 N   0  0  0  0  0  0  0  0  0  0  0  0
   -1.9926   -0.1428    0.0508 H   0  0  0  0  0  0  0  0  0  0  0  0
    0.0000    0.0000    0.0000 C   0  0  0  0  0  0  0  0  0  0  0  0
    1.1220   -0.5146    0.0000 O   0  0  0  0  0  0  0  0  0  0  0  0
   -0.1946    1.5110   -0.0185 C   0  0  0  0  0  0  0  0  0  0  0  0
   -1.2084    1.7100   -0.2043 H   0  0  0  0  0  0  0  0  0  0  0  0
    0.1256    2.1181    0.8283 H   0  0  0  0  0  0  0  0  0  0  0  0
    0.2327    1.8962   -0.9444 H   0  0  0  0  0  0  0  0  0  0  0  0
  1  5  1  0
  5  6  1  0
  5  9  2  0
  1  2  1  0
  1  3  1  0
  1  4  1  0
  6  7  1  0
  6  8  1  0
 10 14  1  0
 14 16  1  0
 16 17  2  0
 16 18  1  0
 10 11  1  0
 10 12  1  0
 10 13  1  0
 14 15  1  0
 18 19  1  0
 18 20  1  0
 18 21  1  0
M  END
>  <PDB_ID>  (362) 
pdb1viu

>  <RESIDUE_NAME>  (362) 
ASN   GLU

>  <FRAG_NAME>  (362) 
ACEM   NMA

>  <FRAG_ATOM_NUM>  (362) 
fragi: 9  fragj: 12

>  <atom.prop.CHAIN_ID>  (362) 
A A A A A A A A A Z Z Z Z Z Z Z Z Z Z Z Z

>  <atom.prop.IS_HEAVY_ATOM>  (362) 
1 0 0 0 1 1 0 0 1 1 0 0 0 1 0 1 1 1 0 0 0

>  <DIFUSE_FUNC_ATOM>  (362) 
n/a

>  <FINAL_SINGLE_POINT_ENERGY>  (362) 
0

>  <NONCOV_INTER_ENERGY_QM>  (362) 
0

>  <FF_Energy>  (362) 
23.01

>  <QM_Energy>  (362) 
44.43

>  <source>  (362) 
ACEM_nNMA_22

>  <Index>  (362) 
13095

$$$$
ACEM-pdb1vj0-B-GLN-291:NMA-pdb1vj0-B-ASP-265
     RDKit          3D

 21 19  0  0  0  0  0  0  0  0999 V2000
   -5.9452    0.8819    1.0114 C   0  0  0  0  0  0  0  0  0  0  0  0
   -6.4268    1.6419    0.5571 H   0  0  0  0  0  0  0  0  0  0  0  0
   -6.2137    0.8732    1.9825 H   0  0  0  0  0  0  0  0  0  0  0  0
   -6.2708   -0.0530    0.5554 H   0  0  0  0  0  0  0  0  0  0  0  0
   -4.4628    1.1276    0.9217 C   0  0  0  0  0  0  0  0  0  0  0  0
   -3.7389    0.0672    0.7210 N   0  0  0  0  0  0  0  0  0  0  0  0
   -2.7030    0.1383    0.6308 H   0  0  0  0  0  0  0  0  0  0  0  0
   -4.1761   -0.8493    0.6501 H   0  0  0  0  0  0  0  0  0  0  0  0
   -3.9869    2.2495    1.0082 O   0  0  0  0  0  0  0  0  0  0  0  0
   -1.1638   -2.2099    0.0175 C   0  0  0  0  0  0  0  0  0  0  0  0
   -0.7578   -2.5076    0.8950 H   0  0  0  0  0  0  0  0  0  0  0  0
   -0.5907   -2.6553   -0.7958 H   0  0  0  0  0  0  0  0  0  0  0  0
   -2.1931   -2.5539   -0.0828 H   0  0  0  0  0  0  0  0  0  0  0  0
   -1.1273   -0.7243   -0.0000 N   0  0  0  0  0  0  0  0  0  0  0  0
   -2.0043   -0.1475   -0.0139 H   0  0  0  0  0  0  0  0  0  0  0  0
    0.0000    0.0000    0.0000 C   0  0  0  0  0  0  0  0  0  0  0  0
    1.1273   -0.4909    0.0000 O   0  0  0  0  0  0  0  0  0  0  0  0
   -0.1647    1.5144   -0.0542 C   0  0  0  0  0  0  0  0  0  0  0  0
   -1.1445    1.7027    0.0002 H   0  0  0  0  0  0  0  0  0  0  0  0
    0.3038    1.9465    0.8300 H   0  0  0  0  0  0  0  0  0  0  0  0
    0.3296    1.9272   -0.9337 H   0  0  0  0  0  0  0  0  0  0  0  0
  1  5  1  0
  5  6  1  0
  5  9  2  0
  1  2  1  0
  1  3  1  0
  1  4  1  0
  6  7  1  0
  6  8  1  0
 10 14  1  0
 14 16  1  0
 16 17  2  0
 16 18  1  0
 10 11  1  0
 10 12  1  0
 10 13  1  0
 14 15  1  0
 18 19  1  0
 18 20  1  0
 18 21  1  0
M  END
>  <PDB_ID>  (363) 
pdb1vj0

>  <RESIDUE_NAME>  (363) 
GLN   ASP

>  <FRAG_NAME>  (363) 
ACEM   NMA

>  <FRAG_ATOM_NUM>  (363) 
fragi: 9  fragj: 12

>  <atom.prop.CHAIN_ID>  (363) 
A A A A A A A A A Z Z Z Z Z Z Z Z Z Z Z Z

>  <atom.prop.IS_HEAVY_ATOM>  (363) 
1 0 0 0 1 1 0 0 1 1 0 0 0 1 0 1 1 1 0 0 0

>  <DIFUSE_FUNC_ATOM>  (363) 
n/a

>  <FINAL_SINGLE_POINT_ENERGY>  (363) 
0

>  <NONCOV_INTER_ENERGY_QM>  (363) 
0

>  <FF_Energy>  (363) 
7.94

>  <QM_Energy>  (363) 
25.43

>  <source>  (363) 
ACEM_nNMA_22

>  <Index>  (363) 
13388

$$$$
ACEM-pdb1vlu-A-GLN-430:NMA-pdb1vlu-A-GLY-427
     RDKit          3D

 21 19  0  0  0  0  0  0  0  0999 V2000
   -5.5689    0.8709   -1.0950 C   0  0  0  0  0  0  0  0  0  0  0  0
   -6.1268    1.5426   -0.6130 H   0  0  0  0  0  0  0  0  0  0  0  0
   -6.0865    0.0285   -1.2249 H   0  0  0  0  0  0  0  0  0  0  0  0
   -5.3098    1.2734   -2.0742 H   0  0  0  0  0  0  0  0  0  0  0  0
   -4.3421    0.5666   -0.2599 C   0  0  0  0  0  0  0  0  0  0  0  0
   -3.1667    0.6772   -0.8701 N   0  0  0  0  0  0  0  0  0  0  0  0
   -2.2994    0.5025   -0.3690 H   0  0  0  0  0  0  0  0  0  0  0  0
   -3.1474    0.9406   -1.8538 H   0  0  0  0  0  0  0  0  0  0  0  0
   -4.4518    0.2301    0.9244 O   0  0  0  0  0  0  0  0  0  0  0  0
   -1.1004   -2.1767   -0.1093 C   0  0  0  0  0  0  0  0  0  0  0  0
   -0.1633   -2.4446   -0.3723 H   0  0  0  0  0  0  0  0  0  0  0  0
   -1.7649   -2.5348   -0.8955 H   0  0  0  0  0  0  0  0  0  0  0  0
   -1.3388   -2.6491    0.8437 H   0  0  0  0  0  0  0  0  0  0  0  0
   -1.1188   -0.7190   -0.0000 N   0  0  0  0  0  0  0  0  0  0  0  0
   -1.9936   -0.1644    0.0833 H   0  0  0  0  0  0  0  0  0  0  0  0
    0.0000    0.0000    0.0000 C   0  0  0  0  0  0  0  0  0  0  0  0
    1.1188   -0.4990    0.0000 O   0  0  0  0  0  0  0  0  0  0  0  0
   -0.1694    1.5038    0.0111 C   0  0  0  0  0  0  0  0  0  0  0  0
   -0.5366    1.7941    0.9067 H   0  0  0  0  0  0  0  0  0  0  0  0
   -0.8388    1.7715   -0.6965 H   0  0  0  0  0  0  0  0  0  0  0  0
    0.7768    2.0123   -0.1742 H   0  0  0  0  0  0  0  0  0  0  0  0
  1  5  1  0
  5  6  1  0
  5  9  2  0
  1  2  1  0
  1  3  1  0
  1  4  1  0
  6  7  1  0
  6  8  1  0
 10 14  1  0
 14 16  1  0
 16 17  2  0
 16 18  1  0
 10 11  1  0
 10 12  1  0
 10 13  1  0
 14 15  1  0
 18 19  1  0
 18 20  1  0
 18 21  1  0
M  END
>  <PDB_ID>  (364) 
pdb1vlu

>  <RESIDUE_NAME>  (364) 
GLN   GLY

>  <FRAG_NAME>  (364) 
ACEM   NMA

>  <FRAG_ATOM_NUM>  (364) 
fragi: 9  fragj: 12

>  <atom.prop.CHAIN_ID>  (364) 
A A A A A A A A A Z Z Z Z Z Z Z Z Z Z Z Z

>  <atom.prop.IS_HEAVY_ATOM>  (364) 
1 0 0 0 1 1 0 0 1 1 0 0 0 1 0 1 1 1 0 0 0

>  <DIFUSE_FUNC_ATOM>  (364) 
n/a

>  <FINAL_SINGLE_POINT_ENERGY>  (364) 
0

>  <NONCOV_INTER_ENERGY_QM>  (364) 
0

>  <FF_Energy>  (364) 
20.3

>  <QM_Energy>  (364) 
46.21

>  <source>  (364) 
ACEM_nNMA_22

>  <Index>  (364) 
15302

$$$$
ACEM-pdb1vr0-B-ASN-104:NMA-pdb1vr0-B-THR-147
     RDKit          3D

 21 19  0  0  0  0  0  0  0  0999 V2000
   -4.2235    2.8376    1.8338 C   0  0  0  0  0  0  0  0  0  0  0  0
   -4.5490    3.6956    1.4503 H   0  0  0  0  0  0  0  0  0  0  0  0
   -3.4784    3.0017    2.4711 H   0  0  0  0  0  0  0  0  0  0  0  0
   -5.0442    2.3710    2.3786 H   0  0  0  0  0  0  0  0  0  0  0  0
   -3.7213    1.9618    0.7103 C   0  0  0  0  0  0  0  0  0  0  0  0
   -3.3889    0.7063    1.0079 N   0  0  0  0  0  0  0  0  0  0  0  0
   -3.4898    0.3924    1.9582 H   0  0  0  0  0  0  0  0  0  0  0  0
   -3.0486    0.0939    0.3068 H   0  0  0  0  0  0  0  0  0  0  0  0
   -3.6301    2.4240   -0.4238 O   0  0  0  0  0  0  0  0  0  0  0  0
   -1.1321   -2.1665    0.0508 C   0  0  0  0  0  0  0  0  0  0  0  0
   -2.0506   -2.4703    0.3207 H   0  0  0  0  0  0  0  0  0  0  0  0
   -0.4252   -2.5237    0.7997 H   0  0  0  0  0  0  0  0  0  0  0  0
   -0.9424   -2.6000   -0.9311 H   0  0  0  0  0  0  0  0  0  0  0  0
   -1.1233   -0.7097    0.0000 N   0  0  0  0  0  0  0  0  0  0  0  0
   -1.9961   -0.1358   -0.0397 H   0  0  0  0  0  0  0  0  0  0  0  0
    0.0000    0.0000    0.0000 C   0  0  0  0  0  0  0  0  0  0  0  0
    1.1233   -0.5008   -0.0000 O   0  0  0  0  0  0  0  0  0  0  0  0
   -0.1658    1.4915   -0.0907 C   0  0  0  0  0  0  0  0  0  0  0  0
   -1.1181    1.7250    0.1012 H   0  0  0  0  0  0  0  0  0  0  0  0
    0.4625    1.9517    0.6719 H   0  0  0  0  0  0  0  0  0  0  0  0
    0.1332    1.6781   -1.1222 H   0  0  0  0  0  0  0  0  0  0  0  0
  1  5  1  0
  5  6  1  0
  5  9  2  0
  1  2  1  0
  1  3  1  0
  1  4  1  0
  6  7  1  0
  6  8  1  0
 10 14  1  0
 14 16  1  0
 16 17  2  0
 16 18  1  0
 10 11  1  0
 10 12  1  0
 10 13  1  0
 14 15  1  0
 18 19  1  0
 18 20  1  0
 18 21  1  0
M  END
>  <PDB_ID>  (365) 
pdb1vr0

>  <RESIDUE_NAME>  (365) 
ASN   THR

>  <FRAG_NAME>  (365) 
ACEM   NMA

>  <FRAG_ATOM_NUM>  (365) 
fragi: 9  fragj: 12

>  <atom.prop.CHAIN_ID>  (365) 
A A A A A A A A A Z Z Z Z Z Z Z Z Z Z Z Z

>  <atom.prop.IS_HEAVY_ATOM>  (365) 
1 0 0 0 1 1 0 0 1 1 0 0 0 1 0 1 1 1 0 0 0

>  <DIFUSE_FUNC_ATOM>  (365) 
n/a

>  <FINAL_SINGLE_POINT_ENERGY>  (365) 
0

>  <NONCOV_INTER_ENERGY_QM>  (365) 
0

>  <FF_Energy>  (365) 
4.21

>  <QM_Energy>  (365) 
17.39

>  <source>  (365) 
ACEM_nNMA_22

>  <Index>  (365) 
17059

$$$$
ACEM-pdb3a6s-A-GLN-100:NMA-pdb3a6s-A-LYS-97
     RDKit          3D

 21 19  0  0  0  0  0  0  0  0999 V2000
   -5.9479   -0.0570   -0.7095 C   0  0  0  0  0  0  0  0  0  0  0  0
   -6.0970    0.8794   -1.0438 H   0  0  0  0  0  0  0  0  0  0  0  0
   -6.5772   -0.2283    0.0560 H   0  0  0  0  0  0  0  0  0  0  0  0
   -6.1848   -0.7534   -1.5139 H   0  0  0  0  0  0  0  0  0  0  0  0
   -4.5226   -0.1632   -0.1951 C   0  0  0  0  0  0  0  0  0  0  0  0
   -3.5784    0.3836   -0.9447 N   0  0  0  0  0  0  0  0  0  0  0  0
   -2.6031    0.3641   -0.6579 H   0  0  0  0  0  0  0  0  0  0  0  0
   -3.8441    0.8294   -1.8238 H   0  0  0  0  0  0  0  0  0  0  0  0
   -4.2803   -0.7275    0.8711 O   0  0  0  0  0  0  0  0  0  0  0  0
   -1.0405   -2.1667   -0.0372 C   0  0  0  0  0  0  0  0  0  0  0  0
   -0.0757   -2.4586   -0.0170 H   0  0  0  0  0  0  0  0  0  0  0  0
   -1.5188   -2.5597   -0.9343 H   0  0  0  0  0  0  0  0  0  0  0  0
   -1.4927   -2.5998    0.8551 H   0  0  0  0  0  0  0  0  0  0  0  0
   -1.1155   -0.7153   -0.0000 N   0  0  0  0  0  0  0  0  0  0  0  0
   -1.9906   -0.1804    0.0272 H   0  0  0  0  0  0  0  0  0  0  0  0
    0.0000    0.0000    0.0000 C   0  0  0  0  0  0  0  0  0  0  0  0
    1.1155   -0.5230    0.0000 O   0  0  0  0  0  0  0  0  0  0  0  0
   -0.1372    1.5177    0.0148 C   0  0  0  0  0  0  0  0  0  0  0  0
    0.7280    1.9221   -0.3653 H   0  0  0  0  0  0  0  0  0  0  0  0
   -0.9812    1.9240   -0.5427 H   0  0  0  0  0  0  0  0  0  0  0  0
   -0.1720    1.8803    1.0421 H   0  0  0  0  0  0  0  0  0  0  0  0
  1  5  1  0
  5  6  1  0
  5  9  2  0
  1  2  1  0
  1  3  1  0
  1  4  1  0
  6  7  1  0
  6  8  1  0
 10 14  1  0
 14 16  1  0
 16 17  2  0
 16 18  1  0
 10 11  1  0
 10 12  1  0
 10 13  1  0
 14 15  1  0
 18 19  1  0
 18 20  1  0
 18 21  1  0
M  END
>  <PDB_ID>  (366) 
pdb3a6s

>  <RESIDUE_NAME>  (366) 
GLN   LYS

>  <FRAG_NAME>  (366) 
ACEM   NMA

>  <FRAG_ATOM_NUM>  (366) 
fragi: 9  fragj: 12

>  <atom.prop.CHAIN_ID>  (366) 
A A A A A A A A A Z Z Z Z Z Z Z Z Z Z Z Z

>  <atom.prop.IS_HEAVY_ATOM>  (366) 
1 0 0 0 1 1 0 0 1 1 0 0 0 1 0 1 1 1 0 0 0

>  <DIFUSE_FUNC_ATOM>  (366) 
n/a

>  <FINAL_SINGLE_POINT_ENERGY>  (366) 
0

>  <NONCOV_INTER_ENERGY_QM>  (366) 
0

>  <FF_Energy>  (366) 
8.43

>  <QM_Energy>  (366) 
19.48

>  <source>  (366) 
ACEM_nNMA_22

>  <Index>  (366) 
19847

$$$$
ACEM-pdb3a3d-A-ASN-232:NMA-pdb3a3d-A-GLN-254
     RDKit          3D

 21 19  0  0  0  0  0  0  0  0999 V2000
   -5.9040    0.8652    0.8023 C   0  0  0  0  0  0  0  0  0  0  0  0
   -6.8140    0.4925    0.8666 H   0  0  0  0  0  0  0  0  0  0  0  0
   -5.8711    1.6554    0.2139 H   0  0  0  0  0  0  0  0  0  0  0  0
   -5.6064    1.1853    1.8008 H   0  0  0  0  0  0  0  0  0  0  0  0
   -4.9623   -0.2010    0.2638 C   0  0  0  0  0  0  0  0  0  0  0  0
   -3.6766    0.0465    0.4163 N   0  0  0  0  0  0  0  0  0  0  0  0
   -3.3615    0.8829    0.8636 H   0  0  0  0  0  0  0  0  0  0  0  0
   -2.9943   -0.6142    0.0785 H   0  0  0  0  0  0  0  0  0  0  0  0
   -5.4176   -1.2633   -0.3431 O   0  0  0  0  0  0  0  0  0  0  0  0
   -1.1330   -2.1215    0.0661 C   0  0  0  0  0  0  0  0  0  0  0  0
   -0.1980   -2.4200    0.1480 H   0  0  0  0  0  0  0  0  0  0  0  0
   -1.4744   -2.4552   -0.9137 H   0  0  0  0  0  0  0  0  0  0  0  0
   -1.7940   -2.4763    0.8570 H   0  0  0  0  0  0  0  0  0  0  0  0
   -1.1421   -0.6802    0.0000 N   0  0  0  0  0  0  0  0  0  0  0  0
   -1.9966   -0.1026   -0.0499 H   0  0  0  0  0  0  0  0  0  0  0  0
    0.0000    0.0000    0.0000 C   0  0  0  0  0  0  0  0  0  0  0  0
    1.1421   -0.5476   -0.0000 O   0  0  0  0  0  0  0  0  0  0  0  0
   -0.0686    1.5434   -0.0589 C   0  0  0  0  0  0  0  0  0  0  0  0
    0.8236    1.8688   -0.4083 H   0  0  0  0  0  0  0  0  0  0  0  0
   -0.8482    1.9078   -0.7280 H   0  0  0  0  0  0  0  0  0  0  0  0
   -0.3222    1.8578    0.9535 H   0  0  0  0  0  0  0  0  0  0  0  0
  1  5  1  0
  5  6  1  0
  5  9  2  0
  1  2  1  0
  1  3  1  0
  1  4  1  0
  6  7  1  0
  6  8  1  0
 10 14  1  0
 14 16  1  0
 16 17  2  0
 16 18  1  0
 10 11  1  0
 10 12  1  0
 10 13  1  0
 14 15  1  0
 18 19  1  0
 18 20  1  0
 18 21  1  0
M  END
>  <PDB_ID>  (367) 
pdb3a3d

>  <RESIDUE_NAME>  (367) 
ASN   GLN

>  <FRAG_NAME>  (367) 
ACEM   NMA

>  <FRAG_ATOM_NUM>  (367) 
fragi: 9  fragj: 12

>  <atom.prop.CHAIN_ID>  (367) 
A A A A A A A A A Z Z Z Z Z Z Z Z Z Z Z Z

>  <atom.prop.IS_HEAVY_ATOM>  (367) 
1 0 0 0 1 1 0 0 1 1 0 0 0 1 0 1 1 1 0 0 0

>  <DIFUSE_FUNC_ATOM>  (367) 
n/a

>  <FINAL_SINGLE_POINT_ENERGY>  (367) 
0

>  <NONCOV_INTER_ENERGY_QM>  (367) 
0

>  <FF_Energy>  (367) 
11.41

>  <QM_Energy>  (367) 
24.4

>  <source>  (367) 
ACEM_nNMA_22

>  <Index>  (367) 
20988

$$$$
ACEM-pdb1vsu-C-GLN-92:NMA-pdb1vsu-C-ALA-3
     RDKit          3D

 21 19  0  0  0  0  0  0  0  0999 V2000
   -5.0749    0.1462    1.3074 C   0  0  0  0  0  0  0  0  0  0  0  0
   -5.9294    0.3777    1.7689 H   0  0  0  0  0  0  0  0  0  0  0  0
   -4.7384   -0.7325    1.6420 H   0  0  0  0  0  0  0  0  0  0  0  0
   -5.2629    0.0671    0.2367 H   0  0  0  0  0  0  0  0  0  0  0  0
   -4.0490    1.2111    1.6296 C   0  0  0  0  0  0  0  0  0  0  0  0
   -2.8772    1.1109    1.0146 N   0  0  0  0  0  0  0  0  0  0  0  0
   -2.1429    1.7982    1.1709 H   0  0  0  0  0  0  0  0  0  0  0  0
   -2.7204    0.3300    0.3785 H   0  0  0  0  0  0  0  0  0  0  0  0
   -4.3074    2.1169    2.4214 O   0  0  0  0  0  0  0  0  0  0  0  0
   -1.0761   -2.1712   -0.0196 C   0  0  0  0  0  0  0  0  0  0  0  0
   -0.1177   -2.4650   -0.0442 H   0  0  0  0  0  0  0  0  0  0  0  0
   -1.5722   -2.5419   -0.9167 H   0  0  0  0  0  0  0  0  0  0  0  0
   -1.5571   -2.5921    0.8634 H   0  0  0  0  0  0  0  0  0  0  0  0
   -1.1166   -0.7152   -0.0000 N   0  0  0  0  0  0  0  0  0  0  0  0
   -1.9928   -0.1643    0.0145 H   0  0  0  0  0  0  0  0  0  0  0  0
    0.0000    0.0000    0.0000 C   0  0  0  0  0  0  0  0  0  0  0  0
    1.1166   -0.5115    0.0000 O   0  0  0  0  0  0  0  0  0  0  0  0
   -0.1577    1.5157    0.0145 C   0  0  0  0  0  0  0  0  0  0  0  0
   -0.9544    1.7486    0.5691 H   0  0  0  0  0  0  0  0  0  0  0  0
    0.7329    1.9497    0.4690 H   0  0  0  0  0  0  0  0  0  0  0  0
   -0.2790    1.8928   -1.0009 H   0  0  0  0  0  0  0  0  0  0  0  0
  1  5  1  0
  5  6  1  0
  5  9  2  0
  1  2  1  0
  1  3  1  0
  1  4  1  0
  6  7  1  0
  6  8  1  0
 10 14  1  0
 14 16  1  0
 16 17  2  0
 16 18  1  0
 10 11  1  0
 10 12  1  0
 10 13  1  0
 14 15  1  0
 18 19  1  0
 18 20  1  0
 18 21  1  0
M  END
>  <PDB_ID>  (368) 
pdb1vsu

>  <RESIDUE_NAME>  (368) 
GLN   ALA

>  <FRAG_NAME>  (368) 
ACEM   NMA

>  <FRAG_ATOM_NUM>  (368) 
fragi: 9  fragj: 12

>  <atom.prop.CHAIN_ID>  (368) 
A A A A A A A A A Z Z Z Z Z Z Z Z Z Z Z Z

>  <atom.prop.IS_HEAVY_ATOM>  (368) 
1 0 0 0 1 1 0 0 1 1 0 0 0 1 0 1 1 1 0 0 0

>  <DIFUSE_FUNC_ATOM>  (368) 
n/a

>  <FINAL_SINGLE_POINT_ENERGY>  (368) 
0

>  <NONCOV_INTER_ENERGY_QM>  (368) 
0

>  <FF_Energy>  (368) 
28.96

>  <QM_Energy>  (368) 
43.58

>  <source>  (368) 
ACEM_nNMA_22

>  <Index>  (368) 
21733

$$$$
ACEM-pdb1w6j-A-ASN-301:NMA-pdb1w6j-A-ASN-209
     RDKit          3D

 21 19  0  0  0  0  0  0  0  0999 V2000
   -5.9306    1.1958    0.8208 C   0  0  0  0  0  0  0  0  0  0  0  0
   -6.4828    1.7912    0.2488 H   0  0  0  0  0  0  0  0  0  0  0  0
   -6.0160    1.4529    1.7771 H   0  0  0  0  0  0  0  0  0  0  0  0
   -6.2900    0.1734    0.7040 H   0  0  0  0  0  0  0  0  0  0  0  0
   -4.4634    1.3555    0.4078 C   0  0  0  0  0  0  0  0  0  0  0  0
   -3.6389    0.3970    0.7840 N   0  0  0  0  0  0  0  0  0  0  0  0
   -3.9836   -0.3873    1.3078 H   0  0  0  0  0  0  0  0  0  0  0  0
   -2.6661    0.4447    0.5505 H   0  0  0  0  0  0  0  0  0  0  0  0
   -4.0911    2.3294   -0.2547 O   0  0  0  0  0  0  0  0  0  0  0  0
   -1.0875   -2.1506    0.1427 C   0  0  0  0  0  0  0  0  0  0  0  0
   -0.6398   -2.3814    1.0213 H   0  0  0  0  0  0  0  0  0  0  0  0
   -0.5224   -2.6326   -0.6550 H   0  0  0  0  0  0  0  0  0  0  0  0
   -2.0965   -2.5558    0.2199 H   0  0  0  0  0  0  0  0  0  0  0  0
   -1.1228   -0.7076   -0.0000 N   0  0  0  0  0  0  0  0  0  0  0  0
   -1.9902   -0.1570   -0.1072 H   0  0  0  0  0  0  0  0  0  0  0  0
    0.0000    0.0000    0.0000 C   0  0  0  0  0  0  0  0  0  0  0  0
    1.1228   -0.5075   -0.0000 O   0  0  0  0  0  0  0  0  0  0  0  0
   -0.1698    1.5007    0.0266 C   0  0  0  0  0  0  0  0  0  0  0  0
   -1.0405    1.6963    0.4920 H   0  0  0  0  0  0  0  0  0  0  0  0
    0.6185    1.9675    0.6173 H   0  0  0  0  0  0  0  0  0  0  0  0
   -0.1652    1.8868   -0.9927 H   0  0  0  0  0  0  0  0  0  0  0  0
  1  5  1  0
  5  6  1  0
  5  9  2  0
  1  2  1  0
  1  3  1  0
  1  4  1  0
  6  7  1  0
  6  8  1  0
 10 14  1  0
 14 16  1  0
 16 17  2  0
 16 18  1  0
 10 11  1  0
 10 12  1  0
 10 13  1  0
 14 15  1  0
 18 19  1  0
 18 20  1  0
 18 21  1  0
M  END
>  <PDB_ID>  (369) 
pdb1w6j

>  <RESIDUE_NAME>  (369) 
ASN   ASN

>  <FRAG_NAME>  (369) 
ACEM   NMA

>  <FRAG_ATOM_NUM>  (369) 
fragi: 9  fragj: 12

>  <atom.prop.CHAIN_ID>  (369) 
A A A A A A A A A Z Z Z Z Z Z Z Z Z Z Z Z

>  <atom.prop.IS_HEAVY_ATOM>  (369) 
1 0 0 0 1 1 0 0 1 1 0 0 0 1 0 1 1 1 0 0 0

>  <DIFUSE_FUNC_ATOM>  (369) 
n/a

>  <FINAL_SINGLE_POINT_ENERGY>  (369) 
0

>  <NONCOV_INTER_ENERGY_QM>  (369) 
0

>  <FF_Energy>  (369) 
4.92

>  <QM_Energy>  (369) 
17.49

>  <source>  (369) 
ACEM_nNMA_22

>  <Index>  (369) 
23005

$$$$
ACEM-pdb3a3e-B-ASN-232:NMA-pdb3a3e-B-GLN-254
     RDKit          3D

 21 19  0  0  0  0  0  0  0  0999 V2000
   -5.8004   -0.0539   -1.0271 C   0  0  0  0  0  0  0  0  0  0  0  0
   -6.5608   -0.5958   -1.3555 H   0  0  0  0  0  0  0  0  0  0  0  0
   -5.6750    0.7583   -1.5799 H   0  0  0  0  0  0  0  0  0  0  0  0
   -6.0204    0.2595   -0.0066 H   0  0  0  0  0  0  0  0  0  0  0  0
   -4.5480   -0.8820   -1.0761 C   0  0  0  0  0  0  0  0  0  0  0  0
   -3.5654   -0.4373   -0.3149 N   0  0  0  0  0  0  0  0  0  0  0  0
   -3.6598    0.3776    0.2472 H   0  0  0  0  0  0  0  0  0  0  0  0
   -2.6839   -0.9385   -0.2968 H   0  0  0  0  0  0  0  0  0  0  0  0
   -4.4608   -1.9420   -1.7149 O   0  0  0  0  0  0  0  0  0  0  0  0
   -0.8500   -2.1359    0.0167 C   0  0  0  0  0  0  0  0  0  0  0  0
    0.0298   -2.2982    0.4509 H   0  0  0  0  0  0  0  0  0  0  0  0
   -0.7418   -2.4609   -1.0181 H   0  0  0  0  0  0  0  0  0  0  0  0
   -1.6217   -2.6466    0.5928 H   0  0  0  0  0  0  0  0  0  0  0  0
   -1.0930   -0.7246   -0.0000 N   0  0  0  0  0  0  0  0  0  0  0  0
   -1.9715   -0.2641   -0.0108 H   0  0  0  0  0  0  0  0  0  0  0  0
    0.0000    0.0000    0.0000 C   0  0  0  0  0  0  0  0  0  0  0  0
    1.0930   -0.5569    0.0000 O   0  0  0  0  0  0  0  0  0  0  0  0
   -0.1212    1.5027   -0.0366 C   0  0  0  0  0  0  0  0  0  0  0  0
    0.8016    1.8857   -0.1776 H   0  0  0  0  0  0  0  0  0  0  0  0
   -0.7497    1.8165   -0.8700 H   0  0  0  0  0  0  0  0  0  0  0  0
   -0.4727    1.9400    0.8978 H   0  0  0  0  0  0  0  0  0  0  0  0
  1  5  1  0
  5  6  1  0
  5  9  2  0
  1  2  1  0
  1  3  1  0
  1  4  1  0
  6  7  1  0
  6  8  1  0
 10 14  1  0
 14 16  1  0
 16 17  2  0
 16 18  1  0
 10 11  1  0
 10 12  1  0
 10 13  1  0
 14 15  1  0
 18 19  1  0
 18 20  1  0
 18 21  1  0
M  END
>  <PDB_ID>  (370) 
pdb3a3e

>  <RESIDUE_NAME>  (370) 
ASN   GLN

>  <FRAG_NAME>  (370) 
ACEM   NMA

>  <FRAG_ATOM_NUM>  (370) 
fragi: 9  fragj: 12

>  <atom.prop.CHAIN_ID>  (370) 
A A A A A A A A A Z Z Z Z Z Z Z Z Z Z Z Z

>  <atom.prop.IS_HEAVY_ATOM>  (370) 
1 0 0 0 1 1 0 0 1 1 0 0 0 1 0 1 1 1 0 0 0

>  <DIFUSE_FUNC_ATOM>  (370) 
n/a

>  <FINAL_SINGLE_POINT_ENERGY>  (370) 
0

>  <NONCOV_INTER_ENERGY_QM>  (370) 
0

>  <FF_Energy>  (370) 
22.52

>  <QM_Energy>  (370) 
39.73

>  <source>  (370) 
ACEM_nNMA_22

>  <Index>  (370) 
25002

$$$$
ACEM-pdb3acp-A-GLN-278:NMA-pdb3acp-A-ARG-218
     RDKit          3D

 21 19  0  0  0  0  0  0  0  0999 V2000
   -5.8211    0.7387    1.2681 C   0  0  0  0  0  0  0  0  0  0  0  0
   -6.6727    0.5723    0.7745 H   0  0  0  0  0  0  0  0  0  0  0  0
   -5.7906    1.6859    1.5808 H   0  0  0  0  0  0  0  0  0  0  0  0
   -5.8183    0.0977    2.1497 H   0  0  0  0  0  0  0  0  0  0  0  0
   -4.6529    0.4765    0.3508 C   0  0  0  0  0  0  0  0  0  0  0  0
   -3.4490    0.5745    0.8846 N   0  0  0  0  0  0  0  0  0  0  0  0
   -2.6091    0.3983    0.3316 H   0  0  0  0  0  0  0  0  0  0  0  0
   -3.3626    0.8320    1.8684 H   0  0  0  0  0  0  0  0  0  0  0  0
   -4.8292    0.1851   -0.8257 O   0  0  0  0  0  0  0  0  0  0  0  0
   -0.9876   -2.1210    0.1762 C   0  0  0  0  0  0  0  0  0  0  0  0
   -0.4696   -2.3270    1.0234 H   0  0  0  0  0  0  0  0  0  0  0  0
   -0.4723   -2.5995   -0.6567 H   0  0  0  0  0  0  0  0  0  0  0  0
   -1.9615   -2.5378    0.4327 H   0  0  0  0  0  0  0  0  0  0  0  0
   -1.0804   -0.7081    0.0000 N   0  0  0  0  0  0  0  0  0  0  0  0
   -1.9665   -0.1933   -0.1305 H   0  0  0  0  0  0  0  0  0  0  0  0
    0.0000    0.0000    0.0000 C   0  0  0  0  0  0  0  0  0  0  0  0
    1.0804   -0.5117   -0.0000 O   0  0  0  0  0  0  0  0  0  0  0  0
   -0.1623    1.5103   -0.0166 C   0  0  0  0  0  0  0  0  0  0  0  0
   -1.1440    1.7267    0.0350 H   0  0  0  0  0  0  0  0  0  0  0  0
    0.3482    1.9541    0.8381 H   0  0  0  0  0  0  0  0  0  0  0  0
    0.2042    1.9344   -0.9514 H   0  0  0  0  0  0  0  0  0  0  0  0
  1  5  1  0
  5  6  1  0
  5  9  2  0
  1  2  1  0
  1  3  1  0
  1  4  1  0
  6  7  1  0
  6  8  1  0
 10 14  1  0
 14 16  1  0
 16 17  2  0
 16 18  1  0
 10 11  1  0
 10 12  1  0
 10 13  1  0
 14 15  1  0
 18 19  1  0
 18 20  1  0
 18 21  1  0
M  END
>  <PDB_ID>  (371) 
pdb3acp

>  <RESIDUE_NAME>  (371) 
GLN   ARG

>  <FRAG_NAME>  (371) 
ACEM   NMA

>  <FRAG_ATOM_NUM>  (371) 
fragi: 9  fragj: 12

>  <atom.prop.CHAIN_ID>  (371) 
A A A A A A A A A Z Z Z Z Z Z Z Z Z Z Z Z

>  <atom.prop.IS_HEAVY_ATOM>  (371) 
1 0 0 0 1 1 0 0 1 1 0 0 0 1 0 1 1 1 0 0 0

>  <DIFUSE_FUNC_ATOM>  (371) 
n/a

>  <FINAL_SINGLE_POINT_ENERGY>  (371) 
0

>  <NONCOV_INTER_ENERGY_QM>  (371) 
0

>  <FF_Energy>  (371) 
10.92

>  <QM_Energy>  (371) 
26.71

>  <source>  (371) 
ACEM_nNMA_22

>  <Index>  (371) 
29175

$$$$
ACEM-pdb3acp-A-ASN-192:NMA-pdb3acp-A-GLU-251
     RDKit          3D

 21 19  0  0  0  0  0  0  0  0999 V2000
   -5.7176    1.0803    0.4736 C   0  0  0  0  0  0  0  0  0  0  0  0
   -6.1489    0.5958   -0.2869 H   0  0  0  0  0  0  0  0  0  0  0  0
   -5.7087    2.0618    0.2831 H   0  0  0  0  0  0  0  0  0  0  0  0
   -6.3136    0.9107    1.3703 H   0  0  0  0  0  0  0  0  0  0  0  0
   -4.2942    0.5999    0.6087 C   0  0  0  0  0  0  0  0  0  0  0  0
   -3.8669   -0.1892   -0.3593 N   0  0  0  0  0  0  0  0  0  0  0  0
   -4.4592   -0.4363   -1.1249 H   0  0  0  0  0  0  0  0  0  0  0  0
   -2.9270   -0.5526   -0.3325 H   0  0  0  0  0  0  0  0  0  0  0  0
   -3.5705    0.9584    1.5463 O   0  0  0  0  0  0  0  0  0  0  0  0
   -1.2210   -2.1490    0.1925 C   0  0  0  0  0  0  0  0  0  0  0  0
   -0.3052   -2.5177    0.0444 H   0  0  0  0  0  0  0  0  0  0  0  0
   -1.8609   -2.5723   -0.5818 H   0  0  0  0  0  0  0  0  0  0  0  0
   -1.6103   -2.3693    1.1865 H   0  0  0  0  0  0  0  0  0  0  0  0
   -1.1345   -0.7002    0.0000 N   0  0  0  0  0  0  0  0  0  0  0  0
   -1.9954   -0.1029   -0.1555 H   0  0  0  0  0  0  0  0  0  0  0  0
    0.0000    0.0000    0.0000 C   0  0  0  0  0  0  0  0  0  0  0  0
    1.1345   -0.5044   -0.0000 O   0  0  0  0  0  0  0  0  0  0  0  0
   -0.1876    1.5162   -0.0491 C   0  0  0  0  0  0  0  0  0  0  0  0
   -1.1602    1.7393    0.1193 H   0  0  0  0  0  0  0  0  0  0  0  0
    0.4337    2.0350    0.6809 H   0  0  0  0  0  0  0  0  0  0  0  0
   -0.0102    1.8906   -1.0574 H   0  0  0  0  0  0  0  0  0  0  0  0
  1  5  1  0
  5  6  1  0
  5  9  2  0
  1  2  1  0
  1  3  1  0
  1  4  1  0
  6  7  1  0
  6  8  1  0
 10 14  1  0
 14 16  1  0
 16 17  2  0
 16 18  1  0
 10 11  1  0
 10 12  1  0
 10 13  1  0
 14 15  1  0
 18 19  1  0
 18 20  1  0
 18 21  1  0
M  END
>  <PDB_ID>  (372) 
pdb3acp

>  <RESIDUE_NAME>  (372) 
ASN   GLU

>  <FRAG_NAME>  (372) 
ACEM   NMA

>  <FRAG_ATOM_NUM>  (372) 
fragi: 9  fragj: 12

>  <atom.prop.CHAIN_ID>  (372) 
A A A A A A A A A Z Z Z Z Z Z Z Z Z Z Z Z

>  <atom.prop.IS_HEAVY_ATOM>  (372) 
1 0 0 0 1 1 0 0 1 1 0 0 0 1 0 1 1 1 0 0 0

>  <DIFUSE_FUNC_ATOM>  (372) 
n/a

>  <FINAL_SINGLE_POINT_ENERGY>  (372) 
0

>  <NONCOV_INTER_ENERGY_QM>  (372) 
0

>  <FF_Energy>  (372) 
3.89

>  <QM_Energy>  (372) 
21.85

>  <source>  (372) 
ACEM_nNMA_23

>  <Index>  (372) 
120

$$$$
ACEM-pdb1wde-A-GLN-181:NMA-pdb1wde-A-VAL-244
     RDKit          3D

 21 19  0  0  0  0  0  0  0  0999 V2000
   -4.6854    2.1068   -2.5178 C   0  0  0  0  0  0  0  0  0  0  0  0
   -5.4920    1.5514   -2.3369 H   0  0  0  0  0  0  0  0  0  0  0  0
   -4.6946    2.4284   -3.4602 H   0  0  0  0  0  0  0  0  0  0  0  0
   -4.7222    2.9782   -1.8641 H   0  0  0  0  0  0  0  0  0  0  0  0
   -3.4461    1.2711   -2.2905 C   0  0  0  0  0  0  0  0  0  0  0  0
   -3.3103    0.7395   -1.0819 N   0  0  0  0  0  0  0  0  0  0  0  0
   -2.5081    0.1512   -0.8558 H   0  0  0  0  0  0  0  0  0  0  0  0
   -4.0226    0.9267   -0.3781 H   0  0  0  0  0  0  0  0  0  0  0  0
   -2.6143    1.1029   -3.1943 O   0  0  0  0  0  0  0  0  0  0  0  0
   -1.0844   -2.1703    0.0189 C   0  0  0  0  0  0  0  0  0  0  0  0
   -0.1156   -2.4612    0.1977 H   0  0  0  0  0  0  0  0  0  0  0  0
   -1.4191   -2.6588   -0.8962 H   0  0  0  0  0  0  0  0  0  0  0  0
   -1.7506   -2.5647    0.7861 H   0  0  0  0  0  0  0  0  0  0  0  0
   -1.1153   -0.7155    0.0000 N   0  0  0  0  0  0  0  0  0  0  0  0
   -1.9925   -0.1609   -0.0139 H   0  0  0  0  0  0  0  0  0  0  0  0
    0.0000    0.0000    0.0000 C   0  0  0  0  0  0  0  0  0  0  0  0
    1.1153   -0.5057    0.0000 O   0  0  0  0  0  0  0  0  0  0  0  0
   -0.1820    1.5116    0.0547 C   0  0  0  0  0  0  0  0  0  0  0  0
   -1.1142    1.7139   -0.1462 H   0  0  0  0  0  0  0  0  0  0  0  0
    0.0007    1.7298    1.1069 H   0  0  0  0  0  0  0  0  0  0  0  0
    0.5555    2.0070   -0.5770 H   0  0  0  0  0  0  0  0  0  0  0  0
  1  5  1  0
  5  6  1  0
  5  9  2  0
  1  2  1  0
  1  3  1  0
  1  4  1  0
  6  7  1  0
  6  8  1  0
 10 14  1  0
 14 16  1  0
 16 17  2  0
 16 18  1  0
 10 11  1  0
 10 12  1  0
 10 13  1  0
 14 15  1  0
 18 19  1  0
 18 20  1  0
 18 21  1  0
M  END
>  <PDB_ID>  (373) 
pdb1wde

>  <RESIDUE_NAME>  (373) 
GLN   VAL

>  <FRAG_NAME>  (373) 
ACEM   NMA

>  <FRAG_ATOM_NUM>  (373) 
fragi: 9  fragj: 12

>  <atom.prop.CHAIN_ID>  (373) 
A A A A A A A A A Z Z Z Z Z Z Z Z Z Z Z Z

>  <atom.prop.IS_HEAVY_ATOM>  (373) 
1 0 0 0 1 1 0 0 1 1 0 0 0 1 0 1 1 1 0 0 0

>  <DIFUSE_FUNC_ATOM>  (373) 
n/a

>  <FINAL_SINGLE_POINT_ENERGY>  (373) 
0

>  <NONCOV_INTER_ENERGY_QM>  (373) 
0

>  <FF_Energy>  (373) 
9.46

>  <QM_Energy>  (373) 
23.59

>  <source>  (373) 
ACEM_nNMA_23

>  <Index>  (373) 
282

$$$$
ACEM-pdb1wkm-C-GLN-241:NMA-pdb1wkm-C-TYR-66
     RDKit          3D

 21 19  0  0  0  0  0  0  0  0999 V2000
   -5.4819    0.0597   -1.9564 C   0  0  0  0  0  0  0  0  0  0  0  0
   -5.8265   -0.1263   -2.8776 H   0  0  0  0  0  0  0  0  0  0  0  0
   -5.6165    1.0285   -1.7424 H   0  0  0  0  0  0  0  0  0  0  0  0
   -6.0528   -0.5365   -1.2446 H   0  0  0  0  0  0  0  0  0  0  0  0
   -3.9846   -0.2359   -1.9342 C   0  0  0  0  0  0  0  0  0  0  0  0
   -3.2598    0.1156   -0.8906 N   0  0  0  0  0  0  0  0  0  0  0  0
   -2.2866   -0.0664   -0.8220 H   0  0  0  0  0  0  0  0  0  0  0  0
   -3.7414    0.6049   -0.1131 H   0  0  0  0  0  0  0  0  0  0  0  0
   -3.4587   -0.8060   -2.8881 O   0  0  0  0  0  0  0  0  0  0  0  0
   -1.1346   -2.1465   -0.0169 C   0  0  0  0  0  0  0  0  0  0  0  0
   -0.6728   -2.4841    0.8043 H   0  0  0  0  0  0  0  0  0  0  0  0
   -0.5969   -2.5041   -0.8950 H   0  0  0  0  0  0  0  0  0  0  0  0
   -2.1581   -2.5186   -0.0622 H   0  0  0  0  0  0  0  0  0  0  0  0
   -1.1233   -0.6812    0.0000 N   0  0  0  0  0  0  0  0  0  0  0  0
   -1.9919   -0.1104    0.0124 H   0  0  0  0  0  0  0  0  0  0  0  0
    0.0000    0.0000    0.0000 C   0  0  0  0  0  0  0  0  0  0  0  0
    1.1233   -0.5218   -0.0000 O   0  0  0  0  0  0  0  0  0  0  0  0
   -0.1637    1.5157    0.0074 C   0  0  0  0  0  0  0  0  0  0  0  0
   -0.8853    1.7508    0.6540 H   0  0  0  0  0  0  0  0  0  0  0  0
    0.7669    1.9636    0.3563 H   0  0  0  0  0  0  0  0  0  0  0  0
   -0.3904    1.8549   -1.0034 H   0  0  0  0  0  0  0  0  0  0  0  0
  1  5  1  0
  5  6  1  0
  5  9  2  0
  1  2  1  0
  1  3  1  0
  1  4  1  0
  6  7  1  0
  6  8  1  0
 10 14  1  0
 14 16  1  0
 16 17  2  0
 16 18  1  0
 10 11  1  0
 10 12  1  0
 10 13  1  0
 14 15  1  0
 18 19  1  0
 18 20  1  0
 18 21  1  0
M  END
>  <PDB_ID>  (374) 
pdb1wkm

>  <RESIDUE_NAME>  (374) 
GLN   TYR

>  <FRAG_NAME>  (374) 
ACEM   NMA

>  <FRAG_ATOM_NUM>  (374) 
fragi: 9  fragj: 12

>  <atom.prop.CHAIN_ID>  (374) 
A A A A A A A A A Z Z Z Z Z Z Z Z Z Z Z Z

>  <atom.prop.IS_HEAVY_ATOM>  (374) 
1 0 0 0 1 1 0 0 1 1 0 0 0 1 0 1 1 1 0 0 0

>  <DIFUSE_FUNC_ATOM>  (374) 
n/a

>  <FINAL_SINGLE_POINT_ENERGY>  (374) 
0

>  <NONCOV_INTER_ENERGY_QM>  (374) 
0

>  <FF_Energy>  (374) 
35.41

>  <QM_Energy>  (374) 
53.45

>  <source>  (374) 
ACEM_nNMA_23

>  <Index>  (374) 
2923

$$$$
ACEM-pdb1wmd-A-GLN-408:NMA-pdb1wmd-A-PRO-375
     RDKit          3D

 21 19  0  0  0  0  0  0  0  0999 V2000
   -5.3425    0.8757    2.5653 C   0  0  0  0  0  0  0  0  0  0  0  0
   -5.3669    0.2168    3.3276 H   0  0  0  0  0  0  0  0  0  0  0  0
   -6.2914    1.0779    2.2927 H   0  0  0  0  0  0  0  0  0  0  0  0
   -4.8730    1.7963    2.9119 H   0  0  0  0  0  0  0  0  0  0  0  0
   -4.6387    0.2230    1.3953 C   0  0  0  0  0  0  0  0  0  0  0  0
   -3.2976    0.2534    1.3598 N   0  0  0  0  0  0  0  0  0  0  0  0
   -2.7812   -0.1724    0.6211 H   0  0  0  0  0  0  0  0  0  0  0  0
   -2.8128    0.7340    2.1256 H   0  0  0  0  0  0  0  0  0  0  0  0
   -5.2695   -0.3115    0.4896 O   0  0  0  0  0  0  0  0  0  0  0  0
   -0.9917   -2.1960    0.0394 C   0  0  0  0  0  0  0  0  0  0  0  0
   -0.0843   -2.3908    0.4363 H   0  0  0  0  0  0  0  0  0  0  0  0
   -1.0080   -2.6354   -0.9580 H   0  0  0  0  0  0  0  0  0  0  0  0
   -1.7659   -2.6344    0.6690 H   0  0  0  0  0  0  0  0  0  0  0  0
   -1.1339   -0.7340    0.0000 N   0  0  0  0  0  0  0  0  0  0  0  0
   -1.9994   -0.2284   -0.0265 H   0  0  0  0  0  0  0  0  0  0  0  0
    0.0000    0.0000    0.0000 C   0  0  0  0  0  0  0  0  0  0  0  0
    1.1339   -0.5465    0.0000 O   0  0  0  0  0  0  0  0  0  0  0  0
   -0.1143    1.5155    0.0110 C   0  0  0  0  0  0  0  0  0  0  0  0
    0.7375    1.9448   -0.3312 H   0  0  0  0  0  0  0  0  0  0  0  0
   -0.9711    1.8767   -0.5579 H   0  0  0  0  0  0  0  0  0  0  0  0
   -0.3299    1.8991    1.0082 H   0  0  0  0  0  0  0  0  0  0  0  0
  1  5  1  0
  5  6  1  0
  5  9  2  0
  1  2  1  0
  1  3  1  0
  1  4  1  0
  6  7  1  0
  6  8  1  0
 10 14  1  0
 14 16  1  0
 16 17  2  0
 16 18  1  0
 10 11  1  0
 10 12  1  0
 10 13  1  0
 14 15  1  0
 18 19  1  0
 18 20  1  0
 18 21  1  0
M  END
>  <PDB_ID>  (375) 
pdb1wmd

>  <RESIDUE_NAME>  (375) 
GLN   PRO

>  <FRAG_NAME>  (375) 
ACEM   NMA

>  <FRAG_ATOM_NUM>  (375) 
fragi: 9  fragj: 12

>  <atom.prop.CHAIN_ID>  (375) 
A A A A A A A A A Z Z Z Z Z Z Z Z Z Z Z Z

>  <atom.prop.IS_HEAVY_ATOM>  (375) 
1 0 0 0 1 1 0 0 1 1 0 0 0 1 0 1 1 1 0 0 0

>  <DIFUSE_FUNC_ATOM>  (375) 
n/a

>  <FINAL_SINGLE_POINT_ENERGY>  (375) 
0

>  <NONCOV_INTER_ENERGY_QM>  (375) 
0

>  <FF_Energy>  (375) 
11.39

>  <QM_Energy>  (375) 
25.66

>  <source>  (375) 
ACEM_nNMA_23

>  <Index>  (375) 
7476

$$$$
ACEM-pdb1woo-A-GLN-156:NMA-pdb1woo-A-GLY-162
     RDKit          3D

 21 19  0  0  0  0  0  0  0  0999 V2000
   -5.7489    0.8758    0.3645 C   0  0  0  0  0  0  0  0  0  0  0  0
   -5.8780    1.0725   -0.6083 H   0  0  0  0  0  0  0  0  0  0  0  0
   -5.8443    1.7229    0.8904 H   0  0  0  0  0  0  0  0  0  0  0  0
   -6.5205    0.1761    0.6858 H   0  0  0  0  0  0  0  0  0  0  0  0
   -4.3435    0.3389    0.5644 C   0  0  0  0  0  0  0  0  0  0  0  0
   -3.8120   -0.3286   -0.4586 N   0  0  0  0  0  0  0  0  0  0  0  0
   -2.8711   -0.7049   -0.4025 H   0  0  0  0  0  0  0  0  0  0  0  0
   -4.3694   -0.4565   -1.3010 H   0  0  0  0  0  0  0  0  0  0  0  0
   -3.7428    0.5144    1.6280 O   0  0  0  0  0  0  0  0  0  0  0  0
   -1.0918   -2.1782   -0.0379 C   0  0  0  0  0  0  0  0  0  0  0  0
   -0.4751   -2.5036    0.6811 H   0  0  0  0  0  0  0  0  0  0  0  0
   -0.7096   -2.5125   -1.0024 H   0  0  0  0  0  0  0  0  0  0  0  0
   -2.0890   -2.5951    0.1034 H   0  0  0  0  0  0  0  0  0  0  0  0
   -1.1217   -0.7190    0.0000 N   0  0  0  0  0  0  0  0  0  0  0  0
   -1.9963   -0.1637    0.0291 H   0  0  0  0  0  0  0  0  0  0  0  0
    0.0000    0.0000    0.0000 C   0  0  0  0  0  0  0  0  0  0  0  0
    1.1217   -0.5117   -0.0000 O   0  0  0  0  0  0  0  0  0  0  0  0
   -0.1537    1.5149    0.0214 C   0  0  0  0  0  0  0  0  0  0  0  0
   -1.1376    1.7479    0.0040 H   0  0  0  0  0  0  0  0  0  0  0  0
    0.2662    1.9016   -0.8135 H   0  0  0  0  0  0  0  0  0  0  0  0
    0.3103    1.9591    0.9021 H   0  0  0  0  0  0  0  0  0  0  0  0
  1  5  1  0
  5  6  1  0
  5  9  2  0
  1  2  1  0
  1  3  1  0
  1  4  1  0
  6  7  1  0
  6  8  1  0
 10 14  1  0
 14 16  1  0
 16 17  2  0
 16 18  1  0
 10 11  1  0
 10 12  1  0
 10 13  1  0
 14 15  1  0
 18 19  1  0
 18 20  1  0
 18 21  1  0
M  END
>  <PDB_ID>  (376) 
pdb1woo

>  <RESIDUE_NAME>  (376) 
GLN   GLY

>  <FRAG_NAME>  (376) 
ACEM   NMA

>  <FRAG_ATOM_NUM>  (376) 
fragi: 9  fragj: 12

>  <atom.prop.CHAIN_ID>  (376) 
A A A A A A A A A Z Z Z Z Z Z Z Z Z Z Z Z

>  <atom.prop.IS_HEAVY_ATOM>  (376) 
1 0 0 0 1 1 0 0 1 1 0 0 0 1 0 1 1 1 0 0 0

>  <DIFUSE_FUNC_ATOM>  (376) 
n/a

>  <FINAL_SINGLE_POINT_ENERGY>  (376) 
0

>  <NONCOV_INTER_ENERGY_QM>  (376) 
0

>  <FF_Energy>  (376) 
3.75

>  <QM_Energy>  (376) 
19.03

>  <source>  (376) 
ACEM_nNMA_23

>  <Index>  (376) 
8546

$$$$
ACEM-pdb3apu-A-GLN-45:NMA-pdb3apu-A-GLN-69
     RDKit          3D

 21 19  0  0  0  0  0  0  0  0999 V2000
   -5.7404    1.2739    0.0059 C   0  0  0  0  0  0  0  0  0  0  0  0
   -6.3291    1.6082   -0.7328 H   0  0  0  0  0  0  0  0  0  0  0  0
   -5.3340    2.0579    0.4809 H   0  0  0  0  0  0  0  0  0  0  0  0
   -6.3700    0.7418    0.7190 H   0  0  0  0  0  0  0  0  0  0  0  0
   -4.6281    0.4290   -0.5946 C   0  0  0  0  0  0  0  0  0  0  0  0
   -3.7723   -0.1300    0.2718 N   0  0  0  0  0  0  0  0  0  0  0  0
   -3.0156   -0.7163   -0.0575 H   0  0  0  0  0  0  0  0  0  0  0  0
   -3.8996    0.0493    1.2635 H   0  0  0  0  0  0  0  0  0  0  0  0
   -4.5575    0.2475   -1.8134 O   0  0  0  0  0  0  0  0  0  0  0  0
   -1.1768   -2.1926   -0.0678 C   0  0  0  0  0  0  0  0  0  0  0  0
   -2.1635   -2.4529    0.0216 H   0  0  0  0  0  0  0  0  0  0  0  0
   -0.6345   -2.7313    0.7093 H   0  0  0  0  0  0  0  0  0  0  0  0
   -0.8787   -2.5454   -1.0552 H   0  0  0  0  0  0  0  0  0  0  0  0
   -1.1268   -0.7171    0.0000 N   0  0  0  0  0  0  0  0  0  0  0  0
   -2.0017   -0.1326    0.0530 H   0  0  0  0  0  0  0  0  0  0  0  0
    0.0000    0.0000    0.0000 C   0  0  0  0  0  0  0  0  0  0  0  0
    1.1268   -0.5030    0.0000 O   0  0  0  0  0  0  0  0  0  0  0  0
   -0.1970    1.5176    0.0283 C   0  0  0  0  0  0  0  0  0  0  0  0
   -0.5456    1.8003   -0.8681 H   0  0  0  0  0  0  0  0  0  0  0  0
   -0.9415    1.7936    0.7749 H   0  0  0  0  0  0  0  0  0  0  0  0
    0.7359    2.0582    0.1890 H   0  0  0  0  0  0  0  0  0  0  0  0
  1  5  1  0
  5  6  1  0
  5  9  2  0
  1  2  1  0
  1  3  1  0
  1  4  1  0
  6  7  1  0
  6  8  1  0
 10 14  1  0
 14 16  1  0
 16 17  2  0
 16 18  1  0
 10 11  1  0
 10 12  1  0
 10 13  1  0
 14 15  1  0
 18 19  1  0
 18 20  1  0
 18 21  1  0
M  END
>  <PDB_ID>  (377) 
pdb3apu

>  <RESIDUE_NAME>  (377) 
GLN   GLN

>  <FRAG_NAME>  (377) 
ACEM   NMA

>  <FRAG_ATOM_NUM>  (377) 
fragi: 9  fragj: 12

>  <atom.prop.CHAIN_ID>  (377) 
A A A A A A A A A Z Z Z Z Z Z Z Z Z Z Z Z

>  <atom.prop.IS_HEAVY_ATOM>  (377) 
1 0 0 0 1 1 0 0 1 1 0 0 0 1 0 1 1 1 0 0 0

>  <DIFUSE_FUNC_ATOM>  (377) 
n/a

>  <FINAL_SINGLE_POINT_ENERGY>  (377) 
0

>  <NONCOV_INTER_ENERGY_QM>  (377) 
0

>  <FF_Energy>  (377) 
6.25

>  <QM_Energy>  (377) 
18.09

>  <source>  (377) 
ACEM_nNMA_23

>  <Index>  (377) 
9530

$$$$
ACEM-pdb1wn1-B-ASN-312:NMA-pdb1wn1-B-GLU-340
     RDKit          3D

 21 19  0  0  0  0  0  0  0  0999 V2000
   -5.7465    0.8058   -1.1276 C   0  0  0  0  0  0  0  0  0  0  0  0
   -6.1112    0.6963   -2.0465 H   0  0  0  0  0  0  0  0  0  0  0  0
   -5.7987    1.7577   -0.8445 H   0  0  0  0  0  0  0  0  0  0  0  0
   -6.3539    0.2117   -0.4447 H   0  0  0  0  0  0  0  0  0  0  0  0
   -4.2757    0.3827   -1.1369 C   0  0  0  0  0  0  0  0  0  0  0  0
   -3.8384   -0.2624   -0.0569 N   0  0  0  0  0  0  0  0  0  0  0  0
   -4.4694   -0.4476    0.6988 H   0  0  0  0  0  0  0  0  0  0  0  0
   -2.8881   -0.5592   -0.0001 H   0  0  0  0  0  0  0  0  0  0  0  0
   -3.5498    0.6127   -2.1112 O   0  0  0  0  0  0  0  0  0  0  0  0
   -1.0833   -2.1767   -0.0526 C   0  0  0  0  0  0  0  0  0  0  0  0
   -2.0188   -2.5224   -0.3194 H   0  0  0  0  0  0  0  0  0  0  0  0
   -0.4698   -2.4659   -0.8313 H   0  0  0  0  0  0  0  0  0  0  0  0
   -0.7650   -2.6903    0.8546 H   0  0  0  0  0  0  0  0  0  0  0  0
   -1.1187   -0.7233    0.0000 N   0  0  0  0  0  0  0  0  0  0  0  0
   -1.9951   -0.1692    0.0405 H   0  0  0  0  0  0  0  0  0  0  0  0
    0.0000    0.0000    0.0000 C   0  0  0  0  0  0  0  0  0  0  0  0
    1.1187   -0.5045   -0.0000 O   0  0  0  0  0  0  0  0  0  0  0  0
   -0.1674    1.5180    0.0458 C   0  0  0  0  0  0  0  0  0  0  0  0
   -0.3381    1.8628   -0.8727 H   0  0  0  0  0  0  0  0  0  0  0  0
   -1.0124    1.7517    0.6935 H   0  0  0  0  0  0  0  0  0  0  0  0
    0.7444    1.9712    0.4347 H   0  0  0  0  0  0  0  0  0  0  0  0
  1  5  1  0
  5  6  1  0
  5  9  2  0
  1  2  1  0
  1  3  1  0
  1  4  1  0
  6  7  1  0
  6  8  1  0
 10 14  1  0
 14 16  1  0
 16 17  2  0
 16 18  1  0
 10 11  1  0
 10 12  1  0
 10 13  1  0
 14 15  1  0
 18 19  1  0
 18 20  1  0
 18 21  1  0
M  END
>  <PDB_ID>  (378) 
pdb1wn1

>  <RESIDUE_NAME>  (378) 
ASN   GLU

>  <FRAG_NAME>  (378) 
ACEM   NMA

>  <FRAG_ATOM_NUM>  (378) 
fragi: 9  fragj: 12

>  <atom.prop.CHAIN_ID>  (378) 
A A A A A A A A A Z Z Z Z Z Z Z Z Z Z Z Z

>  <atom.prop.IS_HEAVY_ATOM>  (378) 
1 0 0 0 1 1 0 0 1 1 0 0 0 1 0 1 1 1 0 0 0

>  <DIFUSE_FUNC_ATOM>  (378) 
n/a

>  <FINAL_SINGLE_POINT_ENERGY>  (378) 
0

>  <NONCOV_INTER_ENERGY_QM>  (378) 
0

>  <FF_Energy>  (378) 
7.78

>  <QM_Energy>  (378) 
28.49

>  <source>  (378) 
ACEM_nNMA_23

>  <Index>  (378) 
11045

$$$$
ACEM-pdb1wvr-A-ASN-35:NMA-pdb1wvr-A-TYR-161
     RDKit          3D

 21 19  0  0  0  0  0  0  0  0999 V2000
   -6.2358   -0.6058    0.0833 C   0  0  0  0  0  0  0  0  0  0  0  0
   -6.8663   -0.1406    0.6959 H   0  0  0  0  0  0  0  0  0  0  0  0
   -6.3710   -1.5903    0.1291 H   0  0  0  0  0  0  0  0  0  0  0  0
   -6.4418   -0.2781   -0.9356 H   0  0  0  0  0  0  0  0  0  0  0  0
   -4.8226   -0.2881    0.5068 C   0  0  0  0  0  0  0  0  0  0  0  0
   -3.9193   -0.1616   -0.4611 N   0  0  0  0  0  0  0  0  0  0  0  0
   -4.2012   -0.2736   -1.4172 H   0  0  0  0  0  0  0  0  0  0  0  0
   -2.9689    0.0427   -0.2398 H   0  0  0  0  0  0  0  0  0  0  0  0
   -4.5456   -0.1483    1.6996 O   0  0  0  0  0  0  0  0  0  0  0  0
   -1.0807   -2.1668   -0.0116 C   0  0  0  0  0  0  0  0  0  0  0  0
   -0.2848   -2.4799    0.5131 H   0  0  0  0  0  0  0  0  0  0  0  0
   -0.9845   -2.5236   -1.0370 H   0  0  0  0  0  0  0  0  0  0  0  0
   -1.9873   -2.5687    0.4408 H   0  0  0  0  0  0  0  0  0  0  0  0
   -1.1185   -0.7144    0.0000 N   0  0  0  0  0  0  0  0  0  0  0  0
   -1.9931   -0.1598    0.0087 H   0  0  0  0  0  0  0  0  0  0  0  0
    0.0000    0.0000    0.0000 C   0  0  0  0  0  0  0  0  0  0  0  0
    1.1185   -0.5120   -0.0000 O   0  0  0  0  0  0  0  0  0  0  0  0
   -0.1587    1.5110    0.0024 C   0  0  0  0  0  0  0  0  0  0  0  0
   -0.8352    1.7564    0.6986 H   0  0  0  0  0  0  0  0  0  0  0  0
    0.7904    1.9753    0.2700 H   0  0  0  0  0  0  0  0  0  0  0  0
   -0.4854    1.8508   -0.9804 H   0  0  0  0  0  0  0  0  0  0  0  0
  1  5  1  0
  5  6  1  0
  5  9  2  0
  1  2  1  0
  1  3  1  0
  1  4  1  0
  6  7  1  0
  6  8  1  0
 10 14  1  0
 14 16  1  0
 16 17  2  0
 16 18  1  0
 10 11  1  0
 10 12  1  0
 10 13  1  0
 14 15  1  0
 18 19  1  0
 18 20  1  0
 18 21  1  0
M  END
>  <PDB_ID>  (379) 
pdb1wvr

>  <RESIDUE_NAME>  (379) 
ASN   TYR

>  <FRAG_NAME>  (379) 
ACEM   NMA

>  <FRAG_ATOM_NUM>  (379) 
fragi: 9  fragj: 12

>  <atom.prop.CHAIN_ID>  (379) 
A A A A A A A A A Z Z Z Z Z Z Z Z Z Z Z Z

>  <atom.prop.IS_HEAVY_ATOM>  (379) 
1 0 0 0 1 1 0 0 1 1 0 0 0 1 0 1 1 1 0 0 0

>  <DIFUSE_FUNC_ATOM>  (379) 
n/a

>  <FINAL_SINGLE_POINT_ENERGY>  (379) 
0

>  <NONCOV_INTER_ENERGY_QM>  (379) 
0

>  <FF_Energy>  (379) 
8.25

>  <QM_Energy>  (379) 
22.71

>  <source>  (379) 
ACEM_nNMA_23

>  <Index>  (379) 
15665

$$$$
ACEM-pdb3ax6-B-GLN-137:NMA-pdb3ax6-B-ALA-161
     RDKit          3D

 21 19  0  0  0  0  0  0  0  0999 V2000
   -5.5321   -0.4037   -1.8401 C   0  0  0  0  0  0  0  0  0  0  0  0
   -5.7263   -1.2071   -1.2721 H   0  0  0  0  0  0  0  0  0  0  0  0
   -5.8332   -0.5874   -2.7793 H   0  0  0  0  0  0  0  0  0  0  0  0
   -6.0994    0.4424   -1.4521 H   0  0  0  0  0  0  0  0  0  0  0  0
   -4.0420   -0.1664   -1.8471 C   0  0  0  0  0  0  0  0  0  0  0  0
   -3.5177    0.3011   -0.7238 N   0  0  0  0  0  0  0  0  0  0  0  0
   -2.5137    0.4748   -0.6446 H   0  0  0  0  0  0  0  0  0  0  0  0
   -4.1313    0.4891    0.0681 H   0  0  0  0  0  0  0  0  0  0  0  0
   -3.3670   -0.3933   -2.8529 O   0  0  0  0  0  0  0  0  0  0  0  0
   -1.1095   -2.1699   -0.0227 C   0  0  0  0  0  0  0  0  0  0  0  0
   -0.5191   -2.4605    0.7280 H   0  0  0  0  0  0  0  0  0  0  0  0
   -0.6308   -2.5029   -0.9435 H   0  0  0  0  0  0  0  0  0  0  0  0
   -2.1212   -2.5740    0.0121 H   0  0  0  0  0  0  0  0  0  0  0  0
   -1.1209   -0.7156    0.0000 N   0  0  0  0  0  0  0  0  0  0  0  0
   -1.9950   -0.1491    0.0176 H   0  0  0  0  0  0  0  0  0  0  0  0
    0.0000    0.0000    0.0000 C   0  0  0  0  0  0  0  0  0  0  0  0
    1.1209   -0.5037    0.0000 O   0  0  0  0  0  0  0  0  0  0  0  0
   -0.1791    1.5110    0.0044 C   0  0  0  0  0  0  0  0  0  0  0  0
   -0.8252    1.7568    0.7445 H   0  0  0  0  0  0  0  0  0  0  0  0
    0.7604    2.0369    0.1743 H   0  0  0  0  0  0  0  0  0  0  0  0
   -0.6204    1.8330   -0.9388 H   0  0  0  0  0  0  0  0  0  0  0  0
  1  5  1  0
  5  6  1  0
  5  9  2  0
  1  2  1  0
  1  3  1  0
  1  4  1  0
  6  7  1  0
  6  8  1  0
 10 14  1  0
 14 16  1  0
 16 17  2  0
 16 18  1  0
 10 11  1  0
 10 12  1  0
 10 13  1  0
 14 15  1  0
 18 19  1  0
 18 20  1  0
 18 21  1  0
M  END
>  <PDB_ID>  (380) 
pdb3ax6

>  <RESIDUE_NAME>  (380) 
GLN   ALA

>  <FRAG_NAME>  (380) 
ACEM   NMA

>  <FRAG_ATOM_NUM>  (380) 
fragi: 9  fragj: 12

>  <atom.prop.CHAIN_ID>  (380) 
A A A A A A A A A Z Z Z Z Z Z Z Z Z Z Z Z

>  <atom.prop.IS_HEAVY_ATOM>  (380) 
1 0 0 0 1 1 0 0 1 1 0 0 0 1 0 1 1 1 0 0 0

>  <DIFUSE_FUNC_ATOM>  (380) 
n/a

>  <FINAL_SINGLE_POINT_ENERGY>  (380) 
0

>  <NONCOV_INTER_ENERGY_QM>  (380) 
0

>  <FF_Energy>  (380) 
13.69

>  <QM_Energy>  (380) 
26.49

>  <source>  (380) 
ACEM_nNMA_23

>  <Index>  (380) 
18730

$$$$
ACEM-pdb1x6v-A-ASN-516:NMA-pdb1x6v-A-ALA-414
     RDKit          3D

 21 19  0  0  0  0  0  0  0  0999 V2000
   -4.8487    0.9742   -0.3990 C   0  0  0  0  0  0  0  0  0  0  0  0
   -4.1164    0.7091   -1.0150 H   0  0  0  0  0  0  0  0  0  0  0  0
   -5.2257    1.8543   -0.6631 H   0  0  0  0  0  0  0  0  0  0  0  0
   -5.6442    0.2365   -0.5044 H   0  0  0  0  0  0  0  0  0  0  0  0
   -4.3214    1.0523    1.0067 C   0  0  0  0  0  0  0  0  0  0  0  0
   -3.0622    0.5880    1.2126 N   0  0  0  0  0  0  0  0  0  0  0  0
   -2.5540    0.2295    0.4334 H   0  0  0  0  0  0  0  0  0  0  0  0
   -2.6728    0.6132    2.1201 H   0  0  0  0  0  0  0  0  0  0  0  0
   -4.9773    1.6037    1.8692 O   0  0  0  0  0  0  0  0  0  0  0  0
   -1.1363   -2.1838   -0.0206 C   0  0  0  0  0  0  0  0  0  0  0  0
   -0.2107   -2.4965   -0.1920 H   0  0  0  0  0  0  0  0  0  0  0  0
   -1.7574   -2.4964   -0.8600 H   0  0  0  0  0  0  0  0  0  0  0  0
   -1.4930   -2.6020    0.9206 H   0  0  0  0  0  0  0  0  0  0  0  0
   -1.1325   -0.7197    0.0000 N   0  0  0  0  0  0  0  0  0  0  0  0
   -2.0027   -0.1472    0.0163 H   0  0  0  0  0  0  0  0  0  0  0  0
    0.0000    0.0000    0.0000 C   0  0  0  0  0  0  0  0  0  0  0  0
    1.1325   -0.5099    0.0000 O   0  0  0  0  0  0  0  0  0  0  0  0
   -0.1590    1.5094   -0.0556 C   0  0  0  0  0  0  0  0  0  0  0  0
   -1.0361    1.7587    0.3303 H   0  0  0  0  0  0  0  0  0  0  0  0
    0.6290    1.9337    0.5665 H   0  0  0  0  0  0  0  0  0  0  0  0
   -0.0664    1.8298   -1.0934 H   0  0  0  0  0  0  0  0  0  0  0  0
  1  5  1  0
  5  6  1  0
  5  9  2  0
  1  2  1  0
  1  3  1  0
  1  4  1  0
  6  7  1  0
  6  8  1  0
 10 14  1  0
 14 16  1  0
 16 17  2  0
 16 18  1  0
 10 11  1  0
 10 12  1  0
 10 13  1  0
 14 15  1  0
 18 19  1  0
 18 20  1  0
 18 21  1  0
M  END
>  <PDB_ID>  (381) 
pdb1x6v

>  <RESIDUE_NAME>  (381) 
ASN   ALA

>  <FRAG_NAME>  (381) 
ACEM   NMA

>  <FRAG_ATOM_NUM>  (381) 
fragi: 9  fragj: 12

>  <atom.prop.CHAIN_ID>  (381) 
A A A A A A A A A Z Z Z Z Z Z Z Z Z Z Z Z

>  <atom.prop.IS_HEAVY_ATOM>  (381) 
1 0 0 0 1 1 0 0 1 1 0 0 0 1 0 1 1 1 0 0 0

>  <DIFUSE_FUNC_ATOM>  (381) 
n/a

>  <FINAL_SINGLE_POINT_ENERGY>  (381) 
0

>  <NONCOV_INTER_ENERGY_QM>  (381) 
0

>  <FF_Energy>  (381) 
24.67

>  <QM_Energy>  (381) 
56.63

>  <source>  (381) 
ACEM_nNMA_23

>  <Index>  (381) 
26746

$$$$
ACEM-pdb1xag-A-ASN-11:NMA-pdb1xag-A-THR-6
     RDKit          3D

 21 19  0  0  0  0  0  0  0  0999 V2000
   -4.6413    1.3886   -2.5871 C   0  0  0  0  0  0  0  0  0  0  0  0
   -4.5331    1.4367   -3.5762 H   0  0  0  0  0  0  0  0  0  0  0  0
   -4.6191    2.3038   -2.1947 H   0  0  0  0  0  0  0  0  0  0  0  0
   -5.6148    0.9484   -2.3714 H   0  0  0  0  0  0  0  0  0  0  0  0
   -3.5042    0.5828   -2.0098 C   0  0  0  0  0  0  0  0  0  0  0  0
   -3.7483   -0.0238   -0.8562 N   0  0  0  0  0  0  0  0  0  0  0  0
   -4.6438    0.0593   -0.4196 H   0  0  0  0  0  0  0  0  0  0  0  0
   -3.0323   -0.5714   -0.4163 H   0  0  0  0  0  0  0  0  0  0  0  0
   -2.4144    0.5092   -2.5835 O   0  0  0  0  0  0  0  0  0  0  0  0
   -1.0872   -2.1737   -0.0324 C   0  0  0  0  0  0  0  0  0  0  0  0
   -0.3788   -2.4881    0.5945 H   0  0  0  0  0  0  0  0  0  0  0  0
   -0.8141   -2.4905   -1.0391 H   0  0  0  0  0  0  0  0  0  0  0  0
   -2.0670   -2.5964    0.1900 H   0  0  0  0  0  0  0  0  0  0  0  0
   -1.1212   -0.7142   -0.0000 N   0  0  0  0  0  0  0  0  0  0  0  0
   -1.9950   -0.1615    0.0244 H   0  0  0  0  0  0  0  0  0  0  0  0
    0.0000    0.0000    0.0000 C   0  0  0  0  0  0  0  0  0  0  0  0
    1.1212   -0.5147    0.0000 O   0  0  0  0  0  0  0  0  0  0  0  0
   -0.1582    1.5179    0.0034 C   0  0  0  0  0  0  0  0  0  0  0  0
   -0.3953    1.8108   -0.9400 H   0  0  0  0  0  0  0  0  0  0  0  0
   -0.9401    1.8626    0.6801 H   0  0  0  0  0  0  0  0  0  0  0  0
    0.7985    1.9767    0.2531 H   0  0  0  0  0  0  0  0  0  0  0  0
  1  5  1  0
  5  6  1  0
  5  9  2  0
  1  2  1  0
  1  3  1  0
  1  4  1  0
  6  7  1  0
  6  8  1  0
 10 14  1  0
 14 16  1  0
 16 17  2  0
 16 18  1  0
 10 11  1  0
 10 12  1  0
 10 13  1  0
 14 15  1  0
 18 19  1  0
 18 20  1  0
 18 21  1  0
M  END
>  <PDB_ID>  (382) 
pdb1xag

>  <RESIDUE_NAME>  (382) 
ASN   THR

>  <FRAG_NAME>  (382) 
ACEM   NMA

>  <FRAG_ATOM_NUM>  (382) 
fragi: 9  fragj: 12

>  <atom.prop.CHAIN_ID>  (382) 
A A A A A A A A A Z Z Z Z Z Z Z Z Z Z Z Z

>  <atom.prop.IS_HEAVY_ATOM>  (382) 
1 0 0 0 1 1 0 0 1 1 0 0 0 1 0 1 1 1 0 0 0

>  <DIFUSE_FUNC_ATOM>  (382) 
n/a

>  <FINAL_SINGLE_POINT_ENERGY>  (382) 
0

>  <NONCOV_INTER_ENERGY_QM>  (382) 
0

>  <FF_Energy>  (382) 
3.34

>  <QM_Energy>  (382) 
14.58

>  <source>  (382) 
ACEM_nNMA_23

>  <Index>  (382) 
27289

$$$$
ACEM-pdb1xa9-A-ASN-144:NMA-pdb1xa9-A-LEU-205
     RDKit          3D

 21 19  0  0  0  0  0  0  0  0999 V2000
   -4.6829    1.7901    2.4106 C   0  0  0  0  0  0  0  0  0  0  0  0
   -5.5459    2.2932    2.2307 H   0  0  0  0  0  0  0  0  0  0  0  0
   -3.9620    2.4839    2.5839 H   0  0  0  0  0  0  0  0  0  0  0  0
   -4.8203    1.2260    3.3331 H   0  0  0  0  0  0  0  0  0  0  0  0
   -4.3098    1.0116    1.1579 C   0  0  0  0  0  0  0  0  0  0  0  0
   -3.1145    0.4519    1.1935 N   0  0  0  0  0  0  0  0  0  0  0  0
   -2.5181    0.5355    1.9867 H   0  0  0  0  0  0  0  0  0  0  0  0
   -2.7891   -0.0799    0.3952 H   0  0  0  0  0  0  0  0  0  0  0  0
   -5.1004    0.8362    0.2195 O   0  0  0  0  0  0  0  0  0  0  0  0
   -1.0376   -2.1476    0.0169 C   0  0  0  0  0  0  0  0  0  0  0  0
   -0.0845   -2.4308   -0.1815 H   0  0  0  0  0  0  0  0  0  0  0  0
   -1.6935   -2.5971   -0.7286 H   0  0  0  0  0  0  0  0  0  0  0  0
   -1.2445   -2.5552    1.0065 H   0  0  0  0  0  0  0  0  0  0  0  0
   -1.1144   -0.7104   -0.0000 N   0  0  0  0  0  0  0  0  0  0  0  0
   -1.9877   -0.1694   -0.0125 H   0  0  0  0  0  0  0  0  0  0  0  0
    0.0000    0.0000    0.0000 C   0  0  0  0  0  0  0  0  0  0  0  0
    1.1144   -0.5143   -0.0000 O   0  0  0  0  0  0  0  0  0  0  0  0
   -0.1672    1.5086   -0.0051 C   0  0  0  0  0  0  0  0  0  0  0  0
   -0.9838    1.7408    0.5319 H   0  0  0  0  0  0  0  0  0  0  0  0
    0.7003    1.9821    0.4545 H   0  0  0  0  0  0  0  0  0  0  0  0
   -0.3303    1.8514   -1.0269 H   0  0  0  0  0  0  0  0  0  0  0  0
  1  5  1  0
  5  6  1  0
  5  9  2  0
  1  2  1  0
  1  3  1  0
  1  4  1  0
  6  7  1  0
  6  8  1  0
 10 14  1  0
 14 16  1  0
 16 17  2  0
 16 18  1  0
 10 11  1  0
 10 12  1  0
 10 13  1  0
 14 15  1  0
 18 19  1  0
 18 20  1  0
 18 21  1  0
M  END
>  <PDB_ID>  (383) 
pdb1xa9

>  <RESIDUE_NAME>  (383) 
ASN   LEU

>  <FRAG_NAME>  (383) 
ACEM   NMA

>  <FRAG_ATOM_NUM>  (383) 
fragi: 9  fragj: 12

>  <atom.prop.CHAIN_ID>  (383) 
A A A A A A A A A Z Z Z Z Z Z Z Z Z Z Z Z

>  <atom.prop.IS_HEAVY_ATOM>  (383) 
1 0 0 0 1 1 0 0 1 1 0 0 0 1 0 1 1 1 0 0 0

>  <DIFUSE_FUNC_ATOM>  (383) 
n/a

>  <FINAL_SINGLE_POINT_ENERGY>  (383) 
0

>  <NONCOV_INTER_ENERGY_QM>  (383) 
0

>  <FF_Energy>  (383) 
18.62

>  <QM_Energy>  (383) 
40.4

>  <source>  (383) 
ACEM_nNMA_23

>  <Index>  (383) 
27830

$$$$
ACEM-pdb3b8o-C-GLN-76:NMA-pdb3b8o-C-PRO-297
     RDKit          3D

 21 19  0  0  0  0  0  0  0  0999 V2000
   -4.7199    1.1323   -2.9211 C   0  0  0  0  0  0  0  0  0  0  0  0
   -5.7041    1.0034   -2.7702 H   0  0  0  0  0  0  0  0  0  0  0  0
   -4.3854    0.4000   -3.5210 H   0  0  0  0  0  0  0  0  0  0  0  0
   -4.5594    2.0925   -3.4114 H   0  0  0  0  0  0  0  0  0  0  0  0
   -4.0153    1.0312   -1.5995 C   0  0  0  0  0  0  0  0  0  0  0  0
   -2.7905    0.5040   -1.6353 N   0  0  0  0  0  0  0  0  0  0  0  0
   -2.2371    0.4131   -0.7786 H   0  0  0  0  0  0  0  0  0  0  0  0
   -2.4139    0.1928   -2.5250 H   0  0  0  0  0  0  0  0  0  0  0  0
   -4.5571    1.4036   -0.5495 O   0  0  0  0  0  0  0  0  0  0  0  0
   -1.1494   -2.1714   -0.1710 C   0  0  0  0  0  0  0  0  0  0  0  0
   -0.3193   -2.5567    0.2245 H   0  0  0  0  0  0  0  0  0  0  0  0
   -1.1591   -2.3984   -1.2371 H   0  0  0  0  0  0  0  0  0  0  0  0
   -2.0724   -2.5894    0.2309 H   0  0  0  0  0  0  0  0  0  0  0  0
   -1.1194   -0.7184   -0.0000 N   0  0  0  0  0  0  0  0  0  0  0  0
   -1.9927   -0.1484    0.1349 H   0  0  0  0  0  0  0  0  0  0  0  0
    0.0000    0.0000    0.0000 C   0  0  0  0  0  0  0  0  0  0  0  0
    1.1194   -0.4891   -0.0000 O   0  0  0  0  0  0  0  0  0  0  0  0
   -0.1668    1.5215    0.0340 C   0  0  0  0  0  0  0  0  0  0  0  0
   -1.0697    1.7686    0.4147 H   0  0  0  0  0  0  0  0  0  0  0  0
    0.6367    2.0036    0.5909 H   0  0  0  0  0  0  0  0  0  0  0  0
   -0.0619    1.9443   -0.9651 H   0  0  0  0  0  0  0  0  0  0  0  0
  1  5  1  0
  5  6  1  0
  5  9  2  0
  1  2  1  0
  1  3  1  0
  1  4  1  0
  6  7  1  0
  6  8  1  0
 10 14  1  0
 14 16  1  0
 16 17  2  0
 16 18  1  0
 10 11  1  0
 10 12  1  0
 10 13  1  0
 14 15  1  0
 18 19  1  0
 18 20  1  0
 18 21  1  0
M  END
>  <PDB_ID>  (384) 
pdb3b8o

>  <RESIDUE_NAME>  (384) 
GLN   PRO

>  <FRAG_NAME>  (384) 
ACEM   NMA

>  <FRAG_ATOM_NUM>  (384) 
fragi: 9  fragj: 12

>  <atom.prop.CHAIN_ID>  (384) 
A A A A A A A A A Z Z Z Z Z Z Z Z Z Z Z Z

>  <atom.prop.IS_HEAVY_ATOM>  (384) 
1 0 0 0 1 1 0 0 1 1 0 0 0 1 0 1 1 1 0 0 0

>  <DIFUSE_FUNC_ATOM>  (384) 
n/a

>  <FINAL_SINGLE_POINT_ENERGY>  (384) 
0

>  <NONCOV_INTER_ENERGY_QM>  (384) 
0

>  <FF_Energy>  (384) 
12.51

>  <QM_Energy>  (384) 
23.11

>  <source>  (384) 
ACEM_nNMA_24

>  <Index>  (384) 
1770

$$$$
ACEM-pdb3bfm-A-GLN-20:NMA-pdb3bfm-A-ALA-16
     RDKit          3D

 21 19  0  0  0  0  0  0  0  0999 V2000
   -4.7585   -0.1748   -2.0020 C   0  0  0  0  0  0  0  0  0  0  0  0
   -5.6364    0.1878   -2.3269 H   0  0  0  0  0  0  0  0  0  0  0  0
   -4.6769   -1.1328   -2.2894 H   0  0  0  0  0  0  0  0  0  0  0  0
   -3.9570    0.3942   -2.4730 H   0  0  0  0  0  0  0  0  0  0  0  0
   -4.7675   -0.1363   -0.4550 C   0  0  0  0  0  0  0  0  0  0  0  0
   -3.5635   -0.0757    0.1265 N   0  0  0  0  0  0  0  0  0  0  0  0
   -3.4937   -0.0341    1.1354 H   0  0  0  0  0  0  0  0  0  0  0  0
   -2.7379   -0.0738   -0.4594 H   0  0  0  0  0  0  0  0  0  0  0  0
   -5.8165   -0.1394    0.2090 O   0  0  0  0  0  0  0  0  0  0  0  0
   -1.1837   -2.1418   -0.1259 C   0  0  0  0  0  0  0  0  0  0  0  0
   -0.3125   -2.5377    0.2253 H   0  0  0  0  0  0  0  0  0  0  0  0
   -1.9244   -2.4989    0.4753 H   0  0  0  0  0  0  0  0  0  0  0  0
   -1.3507   -2.4819   -1.1479 H   0  0  0  0  0  0  0  0  0  0  0  0
   -1.1290   -0.6906    0.0000 N   0  0  0  0  0  0  0  0  0  0  0  0
   -1.9939   -0.0988    0.0994 H   0  0  0  0  0  0  0  0  0  0  0  0
    0.0000    0.0000    0.0000 C   0  0  0  0  0  0  0  0  0  0  0  0
    1.1290   -0.5166   -0.0000 O   0  0  0  0  0  0  0  0  0  0  0  0
   -0.1757    1.5185    0.0657 C   0  0  0  0  0  0  0  0  0  0  0  0
   -1.1143    1.7220    0.3536 H   0  0  0  0  0  0  0  0  0  0  0  0
    0.5116    1.9497    0.7935 H   0  0  0  0  0  0  0  0  0  0  0  0
   -0.0030    1.9546   -0.9182 H   0  0  0  0  0  0  0  0  0  0  0  0
  1  5  1  0
  5  6  1  0
  5  9  2  0
  1  2  1  0
  1  3  1  0
  1  4  1  0
  6  7  1  0
  6  8  1  0
 10 14  1  0
 14 16  1  0
 16 17  2  0
 16 18  1  0
 10 11  1  0
 10 12  1  0
 10 13  1  0
 14 15  1  0
 18 19  1  0
 18 20  1  0
 18 21  1  0
M  END
>  <PDB_ID>  (385) 
pdb3bfm

>  <RESIDUE_NAME>  (385) 
GLN   ALA

>  <FRAG_NAME>  (385) 
ACEM   NMA

>  <FRAG_ATOM_NUM>  (385) 
fragi: 9  fragj: 12

>  <atom.prop.CHAIN_ID>  (385) 
A A A A A A A A A Z Z Z Z Z Z Z Z Z Z Z Z

>  <atom.prop.IS_HEAVY_ATOM>  (385) 
1 0 0 0 1 1 0 0 1 1 0 0 0 1 0 1 1 1 0 0 0

>  <DIFUSE_FUNC_ATOM>  (385) 
n/a

>  <FINAL_SINGLE_POINT_ENERGY>  (385) 
0

>  <NONCOV_INTER_ENERGY_QM>  (385) 
0

>  <FF_Energy>  (385) 
25.23

>  <QM_Energy>  (385) 
43.55

>  <source>  (385) 
ACEM_nNMA_24

>  <Index>  (385) 
5302

$$$$
ACEM-pdb1xdp-B-GLN-114:NMA-pdb1xdp-B-ILE-110
     RDKit          3D

 21 19  0  0  0  0  0  0  0  0999 V2000
   -4.7332    0.3511   -0.7686 C   0  0  0  0  0  0  0  0  0  0  0  0
   -5.7109    0.2523   -0.6056 H   0  0  0  0  0  0  0  0  0  0  0  0
   -4.2813   -0.5327   -0.6791 H   0  0  0  0  0  0  0  0  0  0  0  0
   -4.5755    0.7335   -1.7770 H   0  0  0  0  0  0  0  0  0  0  0  0
   -4.1651    1.2902    0.2695 C   0  0  0  0  0  0  0  0  0  0  0  0
   -3.1652    0.8258    1.0052 N   0  0  0  0  0  0  0  0  0  0  0  0
   -2.7215    1.4050    1.7158 H   0  0  0  0  0  0  0  0  0  0  0  0
   -2.8420   -0.1288    0.8505 H   0  0  0  0  0  0  0  0  0  0  0  0
   -4.6128    2.4287    0.3985 O   0  0  0  0  0  0  0  0  0  0  0  0
   -1.1017   -2.1716    0.0092 C   0  0  0  0  0  0  0  0  0  0  0  0
   -0.1377   -2.4557   -0.0068 H   0  0  0  0  0  0  0  0  0  0  0  0
   -1.5674   -2.5635   -0.8950 H   0  0  0  0  0  0  0  0  0  0  0  0
   -1.6495   -2.5452    0.8743 H   0  0  0  0  0  0  0  0  0  0  0  0
   -1.1209   -0.7140    0.0000 N   0  0  0  0  0  0  0  0  0  0  0  0
   -1.9954   -0.1528   -0.0074 H   0  0  0  0  0  0  0  0  0  0  0  0
    0.0000    0.0000    0.0000 C   0  0  0  0  0  0  0  0  0  0  0  0
    1.1209   -0.5072   -0.0000 O   0  0  0  0  0  0  0  0  0  0  0  0
   -0.1663    1.5117    0.0014 C   0  0  0  0  0  0  0  0  0  0  0  0
   -0.7465    1.7359    0.7964 H   0  0  0  0  0  0  0  0  0  0  0  0
    0.7827    2.0248    0.1574 H   0  0  0  0  0  0  0  0  0  0  0  0
   -0.6101    1.8380   -0.9391 H   0  0  0  0  0  0  0  0  0  0  0  0
  1  5  1  0
  5  6  1  0
  5  9  2  0
  1  2  1  0
  1  3  1  0
  1  4  1  0
  6  7  1  0
  6  8  1  0
 10 14  1  0
 14 16  1  0
 16 17  2  0
 16 18  1  0
 10 11  1  0
 10 12  1  0
 10 13  1  0
 14 15  1  0
 18 19  1  0
 18 20  1  0
 18 21  1  0
M  END
>  <PDB_ID>  (386) 
pdb1xdp

>  <RESIDUE_NAME>  (386) 
GLN   ILE

>  <FRAG_NAME>  (386) 
ACEM   NMA

>  <FRAG_ATOM_NUM>  (386) 
fragi: 9  fragj: 12

>  <atom.prop.CHAIN_ID>  (386) 
A A A A A A A A A Z Z Z Z Z Z Z Z Z Z Z Z

>  <atom.prop.IS_HEAVY_ATOM>  (386) 
1 0 0 0 1 1 0 0 1 1 0 0 0 1 0 1 1 1 0 0 0

>  <DIFUSE_FUNC_ATOM>  (386) 
n/a

>  <FINAL_SINGLE_POINT_ENERGY>  (386) 
0

>  <NONCOV_INTER_ENERGY_QM>  (386) 
0

>  <FF_Energy>  (386) 
6.62

>  <QM_Energy>  (386) 
16.97

>  <source>  (386) 
ACEM_nNMA_24

>  <Index>  (386) 
5570

$$$$
ACEM-pdb3bfv-A-ASN-1093:NMA-pdb3bfv-A-SER-1124
     RDKit          3D

 21 19  0  0  0  0  0  0  0  0999 V2000
   -5.8961   -0.7230    1.6414 C   0  0  0  0  0  0  0  0  0  0  0  0
   -6.5168    0.0535    1.5977 H   0  0  0  0  0  0  0  0  0  0  0  0
   -5.9801   -1.1822    2.5206 H   0  0  0  0  0  0  0  0  0  0  0  0
   -6.1737   -1.4288    0.8585 H   0  0  0  0  0  0  0  0  0  0  0  0
   -4.4706   -0.2125    1.4953 C   0  0  0  0  0  0  0  0  0  0  0  0
   -3.8933   -0.4134    0.3158 N   0  0  0  0  0  0  0  0  0  0  0  0
   -4.3966   -0.8718   -0.4167 H   0  0  0  0  0  0  0  0  0  0  0  0
   -2.9549   -0.1058    0.1584 H   0  0  0  0  0  0  0  0  0  0  0  0
   -3.8989    0.3593    2.4253 O   0  0  0  0  0  0  0  0  0  0  0  0
   -1.1162   -2.1538    0.2336 C   0  0  0  0  0  0  0  0  0  0  0  0
   -1.9824   -2.5513   -0.0837 H   0  0  0  0  0  0  0  0  0  0  0  0
   -0.3618   -2.5749   -0.2773 H   0  0  0  0  0  0  0  0  0  0  0  0
   -0.9921   -2.3627    1.2962 H   0  0  0  0  0  0  0  0  0  0  0  0
   -1.1233   -0.7164    0.0000 N   0  0  0  0  0  0  0  0  0  0  0  0
   -1.9872   -0.1677   -0.1782 H   0  0  0  0  0  0  0  0  0  0  0  0
    0.0000    0.0000    0.0000 C   0  0  0  0  0  0  0  0  0  0  0  0
    1.1233   -0.5021   -0.0000 O   0  0  0  0  0  0  0  0  0  0  0  0
   -0.1622    1.5144    0.0370 C   0  0  0  0  0  0  0  0  0  0  0  0
    0.6190    1.9238   -0.4676 H   0  0  0  0  0  0  0  0  0  0  0  0
   -1.0812    1.8648   -0.4327 H   0  0  0  0  0  0  0  0  0  0  0  0
   -0.1080    1.8495    1.0728 H   0  0  0  0  0  0  0  0  0  0  0  0
  1  5  1  0
  5  6  1  0
  5  9  2  0
  1  2  1  0
  1  3  1  0
  1  4  1  0
  6  7  1  0
  6  8  1  0
 10 14  1  0
 14 16  1  0
 16 17  2  0
 16 18  1  0
 10 11  1  0
 10 12  1  0
 10 13  1  0
 14 15  1  0
 18 19  1  0
 18 20  1  0
 18 21  1  0
M  END
>  <PDB_ID>  (387) 
pdb3bfv

>  <RESIDUE_NAME>  (387) 
ASN   SER

>  <FRAG_NAME>  (387) 
ACEM   NMA

>  <FRAG_ATOM_NUM>  (387) 
fragi: 9  fragj: 12

>  <atom.prop.CHAIN_ID>  (387) 
A A A A A A A A A Z Z Z Z Z Z Z Z Z Z Z Z

>  <atom.prop.IS_HEAVY_ATOM>  (387) 
1 0 0 0 1 1 0 0 1 1 0 0 0 1 0 1 1 1 0 0 0

>  <DIFUSE_FUNC_ATOM>  (387) 
n/a

>  <FINAL_SINGLE_POINT_ENERGY>  (387) 
0

>  <NONCOV_INTER_ENERGY_QM>  (387) 
0

>  <FF_Energy>  (387) 
9.65

>  <QM_Energy>  (387) 
24.6

>  <source>  (387) 
ACEM_nNMA_24

>  <Index>  (387) 
6366

$$$$
ACEM-pdb3bga-A-GLN-422:NMA-pdb3bga-A-PRO-59
     RDKit          3D

 21 19  0  0  0  0  0  0  0  0999 V2000
   -4.2370    2.7080   -1.3918 C   0  0  0  0  0  0  0  0  0  0  0  0
   -4.6183    3.4043   -0.7841 H   0  0  0  0  0  0  0  0  0  0  0  0
   -4.9369    2.4103   -2.0412 H   0  0  0  0  0  0  0  0  0  0  0  0
   -3.4098    3.1479   -1.9488 H   0  0  0  0  0  0  0  0  0  0  0  0
   -3.8165    1.5105   -0.5500 C   0  0  0  0  0  0  0  0  0  0  0  0
   -3.2740    0.4837   -1.2072 N   0  0  0  0  0  0  0  0  0  0  0  0
   -2.9584   -0.3406   -0.7098 H   0  0  0  0  0  0  0  0  0  0  0  0
   -3.1840    0.5451   -2.2188 H   0  0  0  0  0  0  0  0  0  0  0  0
   -3.9743    1.5069    0.6733 O   0  0  0  0  0  0  0  0  0  0  0  0
   -1.0767   -2.1655   -0.0209 C   0  0  0  0  0  0  0  0  0  0  0  0
   -1.9873   -2.5264   -0.3209 H   0  0  0  0  0  0  0  0  0  0  0  0
   -0.4096   -2.4716   -0.7350 H   0  0  0  0  0  0  0  0  0  0  0  0
   -0.8113   -2.6311    0.9283 H   0  0  0  0  0  0  0  0  0  0  0  0
   -1.1210   -0.7136   -0.0000 N   0  0  0  0  0  0  0  0  0  0  0  0
   -1.9943   -0.1613    0.0156 H   0  0  0  0  0  0  0  0  0  0  0  0
    0.0000    0.0000    0.0000 C   0  0  0  0  0  0  0  0  0  0  0  0
    1.1210   -0.5136    0.0000 O   0  0  0  0  0  0  0  0  0  0  0  0
   -0.1605    1.5203    0.0279 C   0  0  0  0  0  0  0  0  0  0  0  0
   -1.1229    1.7758    0.0820 H   0  0  0  0  0  0  0  0  0  0  0  0
    0.3993    1.9194    0.8738 H   0  0  0  0  0  0  0  0  0  0  0  0
    0.3124    2.0031   -0.8273 H   0  0  0  0  0  0  0  0  0  0  0  0
  1  5  1  0
  5  6  1  0
  5  9  2  0
  1  2  1  0
  1  3  1  0
  1  4  1  0
  6  7  1  0
  6  8  1  0
 10 14  1  0
 14 16  1  0
 16 17  2  0
 16 18  1  0
 10 11  1  0
 10 12  1  0
 10 13  1  0
 14 15  1  0
 18 19  1  0
 18 20  1  0
 18 21  1  0
M  END
>  <PDB_ID>  (388) 
pdb3bga

>  <RESIDUE_NAME>  (388) 
GLN   PRO

>  <FRAG_NAME>  (388) 
ACEM   NMA

>  <FRAG_ATOM_NUM>  (388) 
fragi: 9  fragj: 12

>  <atom.prop.CHAIN_ID>  (388) 
A A A A A A A A A Z Z Z Z Z Z Z Z Z Z Z Z

>  <atom.prop.IS_HEAVY_ATOM>  (388) 
1 0 0 0 1 1 0 0 1 1 0 0 0 1 0 1 1 1 0 0 0

>  <DIFUSE_FUNC_ATOM>  (388) 
n/a

>  <FINAL_SINGLE_POINT_ENERGY>  (388) 
0

>  <NONCOV_INTER_ENERGY_QM>  (388) 
0

>  <FF_Energy>  (388) 
3.74

>  <QM_Energy>  (388) 
14.62

>  <source>  (388) 
ACEM_nNMA_24

>  <Index>  (388) 
7265

$$$$
ACEM-pdb3bfv-B-ASN-1093:NMA-pdb3bfv-B-SER-1124
     RDKit          3D

 21 19  0  0  0  0  0  0  0  0999 V2000
   -5.9054   -0.6528    1.4662 C   0  0  0  0  0  0  0  0  0  0  0  0
   -6.4995    0.1389    1.3654 H   0  0  0  0  0  0  0  0  0  0  0  0
   -6.0332   -1.0685    2.3614 H   0  0  0  0  0  0  0  0  0  0  0  0
   -6.1787   -1.3849    0.7064 H   0  0  0  0  0  0  0  0  0  0  0  0
   -4.4596   -0.1934    1.3460 C   0  0  0  0  0  0  0  0  0  0  0  0
   -3.8580   -0.4142    0.1792 N   0  0  0  0  0  0  0  0  0  0  0  0
   -4.3653   -0.8591   -0.5616 H   0  0  0  0  0  0  0  0  0  0  0  0
   -2.9091   -0.1409    0.0437 H   0  0  0  0  0  0  0  0  0  0  0  0
   -3.8962    0.3563    2.2871 O   0  0  0  0  0  0  0  0  0  0  0  0
   -1.1363   -2.1465    0.2456 C   0  0  0  0  0  0  0  0  0  0  0  0
   -2.0015   -2.5377   -0.0778 H   0  0  0  0  0  0  0  0  0  0  0  0
   -0.3796   -2.5767   -0.2524 H   0  0  0  0  0  0  0  0  0  0  0  0
   -1.0263   -2.3422    1.3122 H   0  0  0  0  0  0  0  0  0  0  0  0
   -1.1281   -0.7106   -0.0000 N   0  0  0  0  0  0  0  0  0  0  0  0
   -1.9880   -0.1554   -0.1885 H   0  0  0  0  0  0  0  0  0  0  0  0
    0.0000    0.0000    0.0000 C   0  0  0  0  0  0  0  0  0  0  0  0
    1.1281   -0.5114    0.0000 O   0  0  0  0  0  0  0  0  0  0  0  0
   -0.1676    1.5203    0.0323 C   0  0  0  0  0  0  0  0  0  0  0  0
    0.6319    1.9294   -0.4394 H   0  0  0  0  0  0  0  0  0  0  0  0
   -1.0674    1.8638   -0.4780 H   0  0  0  0  0  0  0  0  0  0  0  0
   -0.1723    1.8532    1.0701 H   0  0  0  0  0  0  0  0  0  0  0  0
  1  5  1  0
  5  6  1  0
  5  9  2  0
  1  2  1  0
  1  3  1  0
  1  4  1  0
  6  7  1  0
  6  8  1  0
 10 14  1  0
 14 16  1  0
 16 17  2  0
 16 18  1  0
 10 11  1  0
 10 12  1  0
 10 13  1  0
 14 15  1  0
 18 19  1  0
 18 20  1  0
 18 21  1  0
M  END
>  <PDB_ID>  (389) 
pdb3bfv

>  <RESIDUE_NAME>  (389) 
ASN   SER

>  <FRAG_NAME>  (389) 
ACEM   NMA

>  <FRAG_ATOM_NUM>  (389) 
fragi: 9  fragj: 12

>  <atom.prop.CHAIN_ID>  (389) 
A A A A A A A A A Z Z Z Z Z Z Z Z Z Z Z Z

>  <atom.prop.IS_HEAVY_ATOM>  (389) 
1 0 0 0 1 1 0 0 1 1 0 0 0 1 0 1 1 1 0 0 0

>  <DIFUSE_FUNC_ATOM>  (389) 
n/a

>  <FINAL_SINGLE_POINT_ENERGY>  (389) 
0

>  <NONCOV_INTER_ENERGY_QM>  (389) 
0

>  <FF_Energy>  (389) 
12.16

>  <QM_Energy>  (389) 
31.46

>  <source>  (389) 
ACEM_nNMA_24

>  <Index>  (389) 
7719

$$$$
ACEM-pdb3bga-A-ASN-407:NMA-pdb3bga-A-VAL-374
     RDKit          3D

 21 19  0  0  0  0  0  0  0  0999 V2000
   -6.2373   -0.5383   -0.3869 C   0  0  0  0  0  0  0  0  0  0  0  0
   -6.9176    0.1863   -0.4381 H   0  0  0  0  0  0  0  0  0  0  0  0
   -6.4599   -1.1694    0.3505 H   0  0  0  0  0  0  0  0  0  0  0  0
   -6.2580   -1.0915   -1.3259 H   0  0  0  0  0  0  0  0  0  0  0  0
   -4.8777    0.0899   -0.0966 C   0  0  0  0  0  0  0  0  0  0  0  0
   -3.8290   -0.4801   -0.6790 N   0  0  0  0  0  0  0  0  0  0  0  0
   -3.9592   -1.2750   -1.2754 H   0  0  0  0  0  0  0  0  0  0  0  0
   -2.9107   -0.1193   -0.5238 H   0  0  0  0  0  0  0  0  0  0  0  0
   -4.7764    1.0801    0.6246 O   0  0  0  0  0  0  0  0  0  0  0  0
   -1.0960   -2.1638   -0.0442 C   0  0  0  0  0  0  0  0  0  0  0  0
   -0.1669   -2.4796    0.0535 H   0  0  0  0  0  0  0  0  0  0  0  0
   -1.4558   -2.4296   -1.0381 H   0  0  0  0  0  0  0  0  0  0  0  0
   -1.7344   -2.5609    0.7451 H   0  0  0  0  0  0  0  0  0  0  0  0
   -1.1194   -0.7082    0.0000 N   0  0  0  0  0  0  0  0  0  0  0  0
   -1.9933   -0.1497    0.0330 H   0  0  0  0  0  0  0  0  0  0  0  0
    0.0000    0.0000    0.0000 C   0  0  0  0  0  0  0  0  0  0  0  0
    1.1194   -0.5135    0.0000 O   0  0  0  0  0  0  0  0  0  0  0  0
   -0.1730    1.5056    0.0261 C   0  0  0  0  0  0  0  0  0  0  0  0
   -1.1461    1.7094   -0.1314 H   0  0  0  0  0  0  0  0  0  0  0  0
    0.1070    1.9028    1.0016 H   0  0  0  0  0  0  0  0  0  0  0  0
    0.4279    1.9478   -0.7685 H   0  0  0  0  0  0  0  0  0  0  0  0
  1  5  1  0
  5  6  1  0
  5  9  2  0
  1  2  1  0
  1  3  1  0
  1  4  1  0
  6  7  1  0
  6  8  1  0
 10 14  1  0
 14 16  1  0
 16 17  2  0
 16 18  1  0
 10 11  1  0
 10 12  1  0
 10 13  1  0
 14 15  1  0
 18 19  1  0
 18 20  1  0
 18 21  1  0
M  END
>  <PDB_ID>  (390) 
pdb3bga

>  <RESIDUE_NAME>  (390) 
ASN   VAL

>  <FRAG_NAME>  (390) 
ACEM   NMA

>  <FRAG_ATOM_NUM>  (390) 
fragi: 9  fragj: 12

>  <atom.prop.CHAIN_ID>  (390) 
A A A A A A A A A Z Z Z Z Z Z Z Z Z Z Z Z

>  <atom.prop.IS_HEAVY_ATOM>  (390) 
1 0 0 0 1 1 0 0 1 1 0 0 0 1 0 1 1 1 0 0 0

>  <DIFUSE_FUNC_ATOM>  (390) 
n/a

>  <FINAL_SINGLE_POINT_ENERGY>  (390) 
0

>  <NONCOV_INTER_ENERGY_QM>  (390) 
0

>  <FF_Energy>  (390) 
6.74

>  <QM_Energy>  (390) 
20.38

>  <source>  (390) 
ACEM_nNMA_24

>  <Index>  (390) 
9106

$$$$
ACEM-pdb1xhx-D-ASN-545:NMA-pdb1xhx-D-VAL-541
     RDKit          3D

 21 19  0  0  0  0  0  0  0  0999 V2000
   -4.8783    0.2071    2.6322 C   0  0  0  0  0  0  0  0  0  0  0  0
   -5.2312    1.1276    2.7793 H   0  0  0  0  0  0  0  0  0  0  0  0
   -4.8772   -0.3002    3.4901 H   0  0  0  0  0  0  0  0  0  0  0  0
   -5.5386   -0.3050    1.9322 H   0  0  0  0  0  0  0  0  0  0  0  0
   -3.4544    0.3083    2.1258 C   0  0  0  0  0  0  0  0  0  0  0  0
   -3.2930    0.2687    0.8090 N   0  0  0  0  0  0  0  0  0  0  0  0
   -4.0902    0.1817    0.2091 H   0  0  0  0  0  0  0  0  0  0  0  0
   -2.3769    0.3255    0.4132 H   0  0  0  0  0  0  0  0  0  0  0  0
   -2.5057    0.4037    2.9080 O   0  0  0  0  0  0  0  0  0  0  0  0
   -1.1177   -2.1760   -0.0485 C   0  0  0  0  0  0  0  0  0  0  0  0
   -0.3290   -2.4775   -0.5737 H   0  0  0  0  0  0  0  0  0  0  0  0
   -2.0212   -2.4913   -0.5703 H   0  0  0  0  0  0  0  0  0  0  0  0
   -1.1292   -2.6214    0.9463 H   0  0  0  0  0  0  0  0  0  0  0  0
   -1.1192   -0.7161   -0.0000 N   0  0  0  0  0  0  0  0  0  0  0  0
   -1.9957   -0.1493    0.0374 H   0  0  0  0  0  0  0  0  0  0  0  0
    0.0000    0.0000    0.0000 C   0  0  0  0  0  0  0  0  0  0  0  0
    1.1192   -0.5059    0.0000 O   0  0  0  0  0  0  0  0  0  0  0  0
   -0.1686    1.5195    0.0224 C   0  0  0  0  0  0  0  0  0  0  0  0
   -1.0151    1.7254    0.5165 H   0  0  0  0  0  0  0  0  0  0  0  0
    0.6652    1.9712    0.5598 H   0  0  0  0  0  0  0  0  0  0  0  0
   -0.2103    1.8865   -1.0031 H   0  0  0  0  0  0  0  0  0  0  0  0
  1  5  1  0
  5  6  1  0
  5  9  2  0
  1  2  1  0
  1  3  1  0
  1  4  1  0
  6  7  1  0
  6  8  1  0
 10 14  1  0
 14 16  1  0
 16 17  2  0
 16 18  1  0
 10 11  1  0
 10 12  1  0
 10 13  1  0
 14 15  1  0
 18 19  1  0
 18 20  1  0
 18 21  1  0
M  END
>  <PDB_ID>  (391) 
pdb1xhx

>  <RESIDUE_NAME>  (391) 
ASN   VAL

>  <FRAG_NAME>  (391) 
ACEM   NMA

>  <FRAG_ATOM_NUM>  (391) 
fragi: 9  fragj: 12

>  <atom.prop.CHAIN_ID>  (391) 
A A A A A A A A A Z Z Z Z Z Z Z Z Z Z Z Z

>  <atom.prop.IS_HEAVY_ATOM>  (391) 
1 0 0 0 1 1 0 0 1 1 0 0 0 1 0 1 1 1 0 0 0

>  <DIFUSE_FUNC_ATOM>  (391) 
n/a

>  <FINAL_SINGLE_POINT_ENERGY>  (391) 
0

>  <NONCOV_INTER_ENERGY_QM>  (391) 
0

>  <FF_Energy>  (391) 
33.32

>  <QM_Energy>  (391) 
78.06

>  <source>  (391) 
ACEM_nNMA_24

>  <Index>  (391) 
15027

$$$$
ACEM-pdb1xta-B-ASN-187:NMA-pdb1xta-B-ALA-212
     RDKit          3D

 21 19  0  0  0  0  0  0  0  0999 V2000
   -5.3554    1.3914    1.9576 C   0  0  0  0  0  0  0  0  0  0  0  0
   -5.5092    1.4999    2.9352 H   0  0  0  0  0  0  0  0  0  0  0  0
   -6.1295    0.9269    1.5364 H   0  0  0  0  0  0  0  0  0  0  0  0
   -5.2648    2.3820    1.5118 H   0  0  0  0  0  0  0  0  0  0  0  0
   -4.1124    0.5444    1.7530 C   0  0  0  0  0  0  0  0  0  0  0  0
   -3.2072    1.0184    0.9048 N   0  0  0  0  0  0  0  0  0  0  0  0
   -3.3639    1.8941    0.4453 H   0  0  0  0  0  0  0  0  0  0  0  0
   -2.3701    0.5040    0.7245 H   0  0  0  0  0  0  0  0  0  0  0  0
   -3.9719   -0.5254    2.3454 O   0  0  0  0  0  0  0  0  0  0  0  0
   -1.1047   -2.1648    0.0098 C   0  0  0  0  0  0  0  0  0  0  0  0
   -0.4960   -2.4687    0.7588 H   0  0  0  0  0  0  0  0  0  0  0  0
   -0.7164   -2.5788   -0.9208 H   0  0  0  0  0  0  0  0  0  0  0  0
   -2.1142   -2.5374    0.1832 H   0  0  0  0  0  0  0  0  0  0  0  0
   -1.1195   -0.7114    0.0000 N   0  0  0  0  0  0  0  0  0  0  0  0
   -1.9940   -0.1465   -0.0072 H   0  0  0  0  0  0  0  0  0  0  0  0
    0.0000    0.0000    0.0000 C   0  0  0  0  0  0  0  0  0  0  0  0
    1.1195   -0.5129   -0.0000 O   0  0  0  0  0  0  0  0  0  0  0  0
   -0.1738    1.5134   -0.0033 C   0  0  0  0  0  0  0  0  0  0  0  0
    0.7257    1.9404   -0.1621 H   0  0  0  0  0  0  0  0  0  0  0  0
   -0.8559    1.8311   -0.7919 H   0  0  0  0  0  0  0  0  0  0  0  0
   -0.5436    1.8469    0.9663 H   0  0  0  0  0  0  0  0  0  0  0  0
  1  5  1  0
  5  6  1  0
  5  9  2  0
  1  2  1  0
  1  3  1  0
  1  4  1  0
  6  7  1  0
  6  8  1  0
 10 14  1  0
 14 16  1  0
 16 17  2  0
 16 18  1  0
 10 11  1  0
 10 12  1  0
 10 13  1  0
 14 15  1  0
 18 19  1  0
 18 20  1  0
 18 21  1  0
M  END
>  <PDB_ID>  (392) 
pdb1xta

>  <RESIDUE_NAME>  (392) 
ASN   ALA

>  <FRAG_NAME>  (392) 
ACEM   NMA

>  <FRAG_ATOM_NUM>  (392) 
fragi: 9  fragj: 12

>  <atom.prop.CHAIN_ID>  (392) 
A A A A A A A A A Z Z Z Z Z Z Z Z Z Z Z Z

>  <atom.prop.IS_HEAVY_ATOM>  (392) 
1 0 0 0 1 1 0 0 1 1 0 0 0 1 0 1 1 1 0 0 0

>  <DIFUSE_FUNC_ATOM>  (392) 
n/a

>  <FINAL_SINGLE_POINT_ENERGY>  (392) 
0

>  <NONCOV_INTER_ENERGY_QM>  (392) 
0

>  <FF_Energy>  (392) 
10.65

>  <QM_Energy>  (392) 
21.23

>  <source>  (392) 
ACEM_nNMA_24

>  <Index>  (392) 
16530

$$$$
ACEM-pdb3bqx-A-GLN-57:NMA-pdb3bqx-A-ALA-63
     RDKit          3D

 21 19  0  0  0  0  0  0  0  0999 V2000
   -3.5974    0.7518    1.4076 C   0  0  0  0  0  0  0  0  0  0  0  0
   -3.3814    1.5467    1.9737 H   0  0  0  0  0  0  0  0  0  0  0  0
   -2.8016    0.1502    1.3555 H   0  0  0  0  0  0  0  0  0  0  0  0
   -4.4225    0.2067    1.8662 H   0  0  0  0  0  0  0  0  0  0  0  0
   -3.9339    1.2314    0.0126 C   0  0  0  0  0  0  0  0  0  0  0  0
   -3.2805    0.6485   -0.9865 N   0  0  0  0  0  0  0  0  0  0  0  0
   -3.4624    0.9079   -1.9535 H   0  0  0  0  0  0  0  0  0  0  0  0
   -2.5872   -0.0670   -0.7694 H   0  0  0  0  0  0  0  0  0  0  0  0
   -4.7802    2.1074   -0.1688 O   0  0  0  0  0  0  0  0  0  0  0  0
   -1.1366   -2.1577   -0.0492 C   0  0  0  0  0  0  0  0  0  0  0  0
   -0.2065   -2.4780   -0.1673 H   0  0  0  0  0  0  0  0  0  0  0  0
   -1.7046   -2.4331   -0.9378 H   0  0  0  0  0  0  0  0  0  0  0  0
   -1.6157   -2.5844    0.8320 H   0  0  0  0  0  0  0  0  0  0  0  0
   -1.1240   -0.7057    0.0000 N   0  0  0  0  0  0  0  0  0  0  0  0
   -1.9949   -0.1281    0.0382 H   0  0  0  0  0  0  0  0  0  0  0  0
    0.0000    0.0000    0.0000 C   0  0  0  0  0  0  0  0  0  0  0  0
    1.1240   -0.5090   -0.0000 O   0  0  0  0  0  0  0  0  0  0  0  0
   -0.1759    1.5079    0.0303 C   0  0  0  0  0  0  0  0  0  0  0  0
   -1.1500    1.7159    0.1460 H   0  0  0  0  0  0  0  0  0  0  0  0
    0.3780    1.9199    0.8738 H   0  0  0  0  0  0  0  0  0  0  0  0
    0.1728    1.9453   -0.9052 H   0  0  0  0  0  0  0  0  0  0  0  0
  1  5  1  0
  5  6  1  0
  5  9  2  0
  1  2  1  0
  1  3  1  0
  1  4  1  0
  6  7  1  0
  6  8  1  0
 10 14  1  0
 14 16  1  0
 16 17  2  0
 16 18  1  0
 10 11  1  0
 10 12  1  0
 10 13  1  0
 14 15  1  0
 18 19  1  0
 18 20  1  0
 18 21  1  0
M  END
>  <PDB_ID>  (393) 
pdb3bqx

>  <RESIDUE_NAME>  (393) 
GLN   ALA

>  <FRAG_NAME>  (393) 
ACEM   NMA

>  <FRAG_ATOM_NUM>  (393) 
fragi: 9  fragj: 12

>  <atom.prop.CHAIN_ID>  (393) 
A A A A A A A A A Z Z Z Z Z Z Z Z Z Z Z Z

>  <atom.prop.IS_HEAVY_ATOM>  (393) 
1 0 0 0 1 1 0 0 1 1 0 0 0 1 0 1 1 1 0 0 0

>  <DIFUSE_FUNC_ATOM>  (393) 
n/a

>  <FINAL_SINGLE_POINT_ENERGY>  (393) 
0

>  <NONCOV_INTER_ENERGY_QM>  (393) 
0

>  <FF_Energy>  (393) 
13.18

>  <QM_Energy>  (393) 
31.86

>  <source>  (393) 
ACEM_nNMA_24

>  <Index>  (393) 
16774

$$$$
ACEM-pdb1xvx-A-ASN-186:NMA-pdb1xvx-A-GLY-212
     RDKit          3D

 21 19  0  0  0  0  0  0  0  0999 V2000
   -6.0673   -0.6485   -0.9619 C   0  0  0  0  0  0  0  0  0  0  0  0
   -6.0609   -0.2553   -1.8776 H   0  0  0  0  0  0  0  0  0  0  0  0
   -6.9104   -0.4049   -0.4897 H   0  0  0  0  0  0  0  0  0  0  0  0
   -6.0238   -1.7339   -1.0520 H   0  0  0  0  0  0  0  0  0  0  0  0
   -4.8968   -0.0834   -0.1847 C   0  0  0  0  0  0  0  0  0  0  0  0
   -3.6817   -0.2939   -0.6860 N   0  0  0  0  0  0  0  0  0  0  0  0
   -3.5862   -0.8034   -1.5445 H   0  0  0  0  0  0  0  0  0  0  0  0
   -2.8762    0.0503   -0.2131 H   0  0  0  0  0  0  0  0  0  0  0  0
   -5.0863    0.5225    0.8677 O   0  0  0  0  0  0  0  0  0  0  0  0
   -1.1294   -2.1747   -0.0356 C   0  0  0  0  0  0  0  0  0  0  0  0
   -0.2270   -2.5083    0.2762 H   0  0  0  0  0  0  0  0  0  0  0  0
   -1.3149   -2.5666   -1.0357 H   0  0  0  0  0  0  0  0  0  0  0  0
   -1.8633   -2.5782    0.6620 H   0  0  0  0  0  0  0  0  0  0  0  0
   -1.1265   -0.7071    0.0000 N   0  0  0  0  0  0  0  0  0  0  0  0
   -1.9979   -0.1390    0.0275 H   0  0  0  0  0  0  0  0  0  0  0  0
    0.0000    0.0000    0.0000 C   0  0  0  0  0  0  0  0  0  0  0  0
    1.1265   -0.5177   -0.0000 O   0  0  0  0  0  0  0  0  0  0  0  0
   -0.1580    1.5148    0.0287 C   0  0  0  0  0  0  0  0  0  0  0  0
    0.6099    1.9418   -0.5012 H   0  0  0  0  0  0  0  0  0  0  0  0
   -0.0413    1.8463    0.9929 H   0  0  0  0  0  0  0  0  0  0  0  0
   -1.1013    1.9005   -0.3580 H   0  0  0  0  0  0  0  0  0  0  0  0
  1  5  1  0
  5  6  1  0
  5  9  2  0
  1  2  1  0
  1  3  1  0
  1  4  1  0
  6  7  1  0
  6  8  1  0
 10 14  1  0
 14 16  1  0
 16 17  2  0
 16 18  1  0
 10 11  1  0
 10 12  1  0
 10 13  1  0
 14 15  1  0
 18 19  1  0
 18 20  1  0
 18 21  1  0
M  END
>  <PDB_ID>  (394) 
pdb1xvx

>  <RESIDUE_NAME>  (394) 
ASN   GLY

>  <FRAG_NAME>  (394) 
ACEM   NMA

>  <FRAG_ATOM_NUM>  (394) 
fragi: 9  fragj: 12

>  <atom.prop.CHAIN_ID>  (394) 
A A A A A A A A A Z Z Z Z Z Z Z Z Z Z Z Z

>  <atom.prop.IS_HEAVY_ATOM>  (394) 
1 0 0 0 1 1 0 0 1 1 0 0 0 1 0 1 1 1 0 0 0

>  <DIFUSE_FUNC_ATOM>  (394) 
n/a

>  <FINAL_SINGLE_POINT_ENERGY>  (394) 
0

>  <NONCOV_INTER_ENERGY_QM>  (394) 
0

>  <FF_Energy>  (394) 
14.48

>  <QM_Energy>  (394) 
34.77

>  <source>  (394) 
ACEM_nNMA_24

>  <Index>  (394) 
17923

$$$$
ACEM-pdb3byv-A-GLN-329:NMA-pdb3byv-A-ILE-324
     RDKit          3D

 21 19  0  0  0  0  0  0  0  0999 V2000
   -5.5187    0.6751   -1.8087 C   0  0  0  0  0  0  0  0  0  0  0  0
   -6.3488    1.1130   -1.5289 H   0  0  0  0  0  0  0  0  0  0  0  0
   -5.6737   -0.1567   -2.3022 H   0  0  0  0  0  0  0  0  0  0  0  0
   -4.9149    1.3594   -2.4049 H   0  0  0  0  0  0  0  0  0  0  0  0
   -4.7263    0.3025   -0.5030 C   0  0  0  0  0  0  0  0  0  0  0  0
   -3.3967    0.1597   -0.5947 N   0  0  0  0  0  0  0  0  0  0  0  0
   -2.8548   -0.0606    0.1995 H   0  0  0  0  0  0  0  0  0  0  0  0
   -2.9677    0.2856   -1.5147 H   0  0  0  0  0  0  0  0  0  0  0  0
   -5.3586    0.2621    0.5755 O   0  0  0  0  0  0  0  0  0  0  0  0
   -1.1445   -2.1645   -0.1318 C   0  0  0  0  0  0  0  0  0  0  0  0
   -0.3156   -2.5283    0.3176 H   0  0  0  0  0  0  0  0  0  0  0  0
   -1.1385   -2.4808   -1.1749 H   0  0  0  0  0  0  0  0  0  0  0  0
   -2.0112   -2.5678    0.3919 H   0  0  0  0  0  0  0  0  0  0  0  0
   -1.1536   -0.7105    0.0000 N   0  0  0  0  0  0  0  0  0  0  0  0
   -2.0061   -0.1406    0.0990 H   0  0  0  0  0  0  0  0  0  0  0  0
    0.0000    0.0000    0.0000 C   0  0  0  0  0  0  0  0  0  0  0  0
    1.1536   -0.5441    0.0000 O   0  0  0  0  0  0  0  0  0  0  0  0
   -0.1168    1.5080    0.1090 C   0  0  0  0  0  0  0  0  0  0  0  0
   -1.0524    1.7142    0.3330 H   0  0  0  0  0  0  0  0  0  0  0  0
    0.4610    1.7836    0.9912 H   0  0  0  0  0  0  0  0  0  0  0  0
    0.2713    1.9898   -0.7885 H   0  0  0  0  0  0  0  0  0  0  0  0
  1  5  1  0
  5  6  1  0
  5  9  2  0
  1  2  1  0
  1  3  1  0
  1  4  1  0
  6  7  1  0
  6  8  1  0
 10 14  1  0
 14 16  1  0
 16 17  2  0
 16 18  1  0
 10 11  1  0
 10 12  1  0
 10 13  1  0
 14 15  1  0
 18 19  1  0
 18 20  1  0
 18 21  1  0
M  END
>  <PDB_ID>  (395) 
pdb3byv

>  <RESIDUE_NAME>  (395) 
GLN   ILE

>  <FRAG_NAME>  (395) 
ACEM   NMA

>  <FRAG_ATOM_NUM>  (395) 
fragi: 9  fragj: 12

>  <atom.prop.CHAIN_ID>  (395) 
A A A A A A A A A Z Z Z Z Z Z Z Z Z Z Z Z

>  <atom.prop.IS_HEAVY_ATOM>  (395) 
1 0 0 0 1 1 0 0 1 1 0 0 0 1 0 1 1 1 0 0 0

>  <DIFUSE_FUNC_ATOM>  (395) 
n/a

>  <FINAL_SINGLE_POINT_ENERGY>  (395) 
0

>  <NONCOV_INTER_ENERGY_QM>  (395) 
0

>  <FF_Energy>  (395) 
31.1

>  <QM_Energy>  (395) 
52.0

>  <source>  (395) 
ACEM_nNMA_24

>  <Index>  (395) 
24649

$$$$
ACEM-pdb3c0k-A-ASN-262:NMA-pdb3c0k-A-LEU-192
     RDKit          3D

 21 19  0  0  0  0  0  0  0  0999 V2000
   -4.8133    2.3219    1.5812 C   0  0  0  0  0  0  0  0  0  0  0  0
   -5.7552    2.4469    1.2812 H   0  0  0  0  0  0  0  0  0  0  0  0
   -4.3031    3.1710    1.4721 H   0  0  0  0  0  0  0  0  0  0  0  0
   -4.8233    2.0636    2.6402 H   0  0  0  0  0  0  0  0  0  0  0  0
   -4.1684    1.2532    0.7236 C   0  0  0  0  0  0  0  0  0  0  0  0
   -3.2043    0.5360    1.2892 N   0  0  0  0  0  0  0  0  0  0  0  0
   -2.9451    0.7155    2.2405 H   0  0  0  0  0  0  0  0  0  0  0  0
   -2.7393   -0.1793    0.7706 H   0  0  0  0  0  0  0  0  0  0  0  0
   -4.5474    1.0615   -0.4267 O   0  0  0  0  0  0  0  0  0  0  0  0
   -1.0988   -2.1836    0.0172 C   0  0  0  0  0  0  0  0  0  0  0  0
   -0.2248   -2.4865    0.4216 H   0  0  0  0  0  0  0  0  0  0  0  0
   -1.1774   -2.6056   -0.9847 H   0  0  0  0  0  0  0  0  0  0  0  0
   -1.9145   -2.5532    0.6387 H   0  0  0  0  0  0  0  0  0  0  0  0
   -1.1176   -0.7198    0.0000 N   0  0  0  0  0  0  0  0  0  0  0  0
   -1.9953   -0.1619   -0.0129 H   0  0  0  0  0  0  0  0  0  0  0  0
    0.0000    0.0000    0.0000 C   0  0  0  0  0  0  0  0  0  0  0  0
    1.1176   -0.5022    0.0000 O   0  0  0  0  0  0  0  0  0  0  0  0
   -0.1635    1.5157   -0.0042 C   0  0  0  0  0  0  0  0  0  0  0  0
   -1.0405    1.7412    0.4197 H   0  0  0  0  0  0  0  0  0  0  0  0
    0.6351    1.9683    0.5836 H   0  0  0  0  0  0  0  0  0  0  0  0
   -0.1257    1.8865   -1.0284 H   0  0  0  0  0  0  0  0  0  0  0  0
  1  5  1  0
  5  6  1  0
  5  9  2  0
  1  2  1  0
  1  3  1  0
  1  4  1  0
  6  7  1  0
  6  8  1  0
 10 14  1  0
 14 16  1  0
 16 17  2  0
 16 18  1  0
 10 11  1  0
 10 12  1  0
 10 13  1  0
 14 15  1  0
 18 19  1  0
 18 20  1  0
 18 21  1  0
M  END
>  <PDB_ID>  (396) 
pdb3c0k

>  <RESIDUE_NAME>  (396) 
ASN   LEU

>  <FRAG_NAME>  (396) 
ACEM   NMA

>  <FRAG_ATOM_NUM>  (396) 
fragi: 9  fragj: 12

>  <atom.prop.CHAIN_ID>  (396) 
A A A A A A A A A Z Z Z Z Z Z Z Z Z Z Z Z

>  <atom.prop.IS_HEAVY_ATOM>  (396) 
1 0 0 0 1 1 0 0 1 1 0 0 0 1 0 1 1 1 0 0 0

>  <DIFUSE_FUNC_ATOM>  (396) 
n/a

>  <FINAL_SINGLE_POINT_ENERGY>  (396) 
0

>  <NONCOV_INTER_ENERGY_QM>  (396) 
0

>  <FF_Energy>  (396) 
6.66

>  <QM_Energy>  (396) 
20.7

>  <source>  (396) 
ACEM_nNMA_24

>  <Index>  (396) 
26860

$$$$
ACEM-pdb3c2q-B-ASN-80:NMA-pdb3c2q-B-ASN-109
     RDKit          3D

 21 19  0  0  0  0  0  0  0  0999 V2000
   -5.7135    1.3623    0.3202 C   0  0  0  0  0  0  0  0  0  0  0  0
   -6.1906    1.7280   -0.4752 H   0  0  0  0  0  0  0  0  0  0  0  0
   -5.4008    2.1101    0.9022 H   0  0  0  0  0  0  0  0  0  0  0  0
   -6.4122    0.7506    0.8909 H   0  0  0  0  0  0  0  0  0  0  0  0
   -4.5034    0.5843   -0.1586 C   0  0  0  0  0  0  0  0  0  0  0  0
   -3.8057   -0.0525    0.7741 N   0  0  0  0  0  0  0  0  0  0  0  0
   -4.0925   -0.0062    1.7325 H   0  0  0  0  0  0  0  0  0  0  0  0
   -2.9933   -0.5789    0.5223 H   0  0  0  0  0  0  0  0  0  0  0  0
   -4.2081    0.5380   -1.3484 O   0  0  0  0  0  0  0  0  0  0  0  0
   -1.2243   -2.1753   -0.0810 C   0  0  0  0  0  0  0  0  0  0  0  0
   -2.2202   -2.4147    0.0389 H   0  0  0  0  0  0  0  0  0  0  0  0
   -0.6721   -2.7622    0.6529 H   0  0  0  0  0  0  0  0  0  0  0  0
   -1.0045   -2.5147   -1.0933 H   0  0  0  0  0  0  0  0  0  0  0  0
   -1.1348   -0.7057   -0.0000 N   0  0  0  0  0  0  0  0  0  0  0  0
   -2.0027   -0.1005    0.0659 H   0  0  0  0  0  0  0  0  0  0  0  0
    0.0000    0.0000    0.0000 C   0  0  0  0  0  0  0  0  0  0  0  0
    1.1348   -0.4921   -0.0000 O   0  0  0  0  0  0  0  0  0  0  0  0
   -0.2007    1.4983    0.0998 C   0  0  0  0  0  0  0  0  0  0  0  0
   -0.6981    1.7919   -0.7166 H   0  0  0  0  0  0  0  0  0  0  0  0
   -0.8391    1.7271    0.9531 H   0  0  0  0  0  0  0  0  0  0  0  0
    0.7437    2.0386    0.1646 H   0  0  0  0  0  0  0  0  0  0  0  0
  1  5  1  0
  5  6  1  0
  5  9  2  0
  1  2  1  0
  1  3  1  0
  1  4  1  0
  6  7  1  0
  6  8  1  0
 10 14  1  0
 14 16  1  0
 16 17  2  0
 16 18  1  0
 10 11  1  0
 10 12  1  0
 10 13  1  0
 14 15  1  0
 18 19  1  0
 18 20  1  0
 18 21  1  0
M  END
>  <PDB_ID>  (397) 
pdb3c2q

>  <RESIDUE_NAME>  (397) 
ASN   ASN

>  <FRAG_NAME>  (397) 
ACEM   NMA

>  <FRAG_ATOM_NUM>  (397) 
fragi: 9  fragj: 12

>  <atom.prop.CHAIN_ID>  (397) 
A A A A A A A A A Z Z Z Z Z Z Z Z Z Z Z Z

>  <atom.prop.IS_HEAVY_ATOM>  (397) 
1 0 0 0 1 1 0 0 1 1 0 0 0 1 0 1 1 1 0 0 0

>  <DIFUSE_FUNC_ATOM>  (397) 
n/a

>  <FINAL_SINGLE_POINT_ENERGY>  (397) 
0

>  <NONCOV_INTER_ENERGY_QM>  (397) 
0

>  <FF_Energy>  (397) 
2.08

>  <QM_Energy>  (397) 
13.54

>  <source>  (397) 
ACEM_nNMA_25

>  <Index>  (397) 
2373

$$$$
ACEM-pdb1ycd-A-GLN-132:NMA-pdb1ycd-A-MET-171
     RDKit          3D

 21 19  0  0  0  0  0  0  0  0999 V2000
   -5.9426    0.4726   -1.0876 C   0  0  0  0  0  0  0  0  0  0  0  0
   -5.9393    1.3134   -1.6247 H   0  0  0  0  0  0  0  0  0  0  0  0
   -6.7535    0.4470   -0.5058 H   0  0  0  0  0  0  0  0  0  0  0  0
   -5.9601   -0.3827   -1.7631 H   0  0  0  0  0  0  0  0  0  0  0  0
   -4.7192    0.4575   -0.2110 C   0  0  0  0  0  0  0  0  0  0  0  0
   -3.5746    0.0628   -0.7785 N   0  0  0  0  0  0  0  0  0  0  0  0
   -2.7094    0.0418   -0.2524 H   0  0  0  0  0  0  0  0  0  0  0  0
   -3.5902   -0.2185   -1.7581 H   0  0  0  0  0  0  0  0  0  0  0  0
   -4.7936    0.8080    0.9551 O   0  0  0  0  0  0  0  0  0  0  0  0
   -1.0495   -2.1632   -0.0590 C   0  0  0  0  0  0  0  0  0  0  0  0
   -0.3483   -2.4868    0.5697 H   0  0  0  0  0  0  0  0  0  0  0  0
   -0.7653   -2.4477   -1.0721 H   0  0  0  0  0  0  0  0  0  0  0  0
   -2.0108   -2.6119    0.1907 H   0  0  0  0  0  0  0  0  0  0  0  0
   -1.1172   -0.7103   -0.0000 N   0  0  0  0  0  0  0  0  0  0  0  0
   -1.9911   -0.1731    0.0432 H   0  0  0  0  0  0  0  0  0  0  0  0
    0.0000    0.0000    0.0000 C   0  0  0  0  0  0  0  0  0  0  0  0
    1.1172   -0.5249   -0.0000 O   0  0  0  0  0  0  0  0  0  0  0  0
   -0.1525    1.5038    0.0384 C   0  0  0  0  0  0  0  0  0  0  0  0
   -1.0667    1.7193    0.3985 H   0  0  0  0  0  0  0  0  0  0  0  0
    0.5864    1.9450    0.7073 H   0  0  0  0  0  0  0  0  0  0  0  0
   -0.0653    1.9264   -0.9625 H   0  0  0  0  0  0  0  0  0  0  0  0
  1  5  1  0
  5  6  1  0
  5  9  2  0
  1  2  1  0
  1  3  1  0
  1  4  1  0
  6  7  1  0
  6  8  1  0
 10 14  1  0
 14 16  1  0
 16 17  2  0
 16 18  1  0
 10 11  1  0
 10 12  1  0
 10 13  1  0
 14 15  1  0
 18 19  1  0
 18 20  1  0
 18 21  1  0
M  END
>  <PDB_ID>  (398) 
pdb1ycd

>  <RESIDUE_NAME>  (398) 
GLN   MET

>  <FRAG_NAME>  (398) 
ACEM   NMA

>  <FRAG_ATOM_NUM>  (398) 
fragi: 9  fragj: 12

>  <atom.prop.CHAIN_ID>  (398) 
A A A A A A A A A Z Z Z Z Z Z Z Z Z Z Z Z

>  <atom.prop.IS_HEAVY_ATOM>  (398) 
1 0 0 0 1 1 0 0 1 1 0 0 0 1 0 1 1 1 0 0 0

>  <DIFUSE_FUNC_ATOM>  (398) 
n/a

>  <FINAL_SINGLE_POINT_ENERGY>  (398) 
0

>  <NONCOV_INTER_ENERGY_QM>  (398) 
0

>  <FF_Energy>  (398) 
18.08

>  <QM_Energy>  (398) 
49.8

>  <source>  (398) 
ACEM_nNMA_25

>  <Index>  (398) 
4132

$$$$
ACEM-pdb1yi8-A-ASN-187:NMA-pdb1yi8-A-VAL-193
     RDKit          3D

 21 19  0  0  0  0  0  0  0  0999 V2000
   -5.8033    0.4710   -1.9839 C   0  0  0  0  0  0  0  0  0  0  0  0
   -6.5120   -0.1138   -2.3659 H   0  0  0  0  0  0  0  0  0  0  0  0
   -5.5219    1.1536   -2.6514 H   0  0  0  0  0  0  0  0  0  0  0  0
   -6.2153    0.9883   -1.1175 H   0  0  0  0  0  0  0  0  0  0  0  0
   -4.6108   -0.3802   -1.6249 C   0  0  0  0  0  0  0  0  0  0  0  0
   -3.6820    0.1858   -0.8666 N   0  0  0  0  0  0  0  0  0  0  0  0
   -3.7994    1.1328   -0.5583 H   0  0  0  0  0  0  0  0  0  0  0  0
   -2.8666   -0.3270   -0.6012 H   0  0  0  0  0  0  0  0  0  0  0  0
   -4.5246   -1.5403   -2.0267 O   0  0  0  0  0  0  0  0  0  0  0  0
   -1.0469   -2.1843    0.0169 C   0  0  0  0  0  0  0  0  0  0  0  0
   -0.1643   -2.4616    0.4266 H   0  0  0  0  0  0  0  0  0  0  0  0
   -1.1083   -2.6198   -0.9804 H   0  0  0  0  0  0  0  0  0  0  0  0
   -1.8464   -2.5779    0.6446 H   0  0  0  0  0  0  0  0  0  0  0  0
   -1.1117   -0.7220   -0.0000 N   0  0  0  0  0  0  0  0  0  0  0  0
   -1.9916   -0.1873   -0.0124 H   0  0  0  0  0  0  0  0  0  0  0  0
    0.0000    0.0000    0.0000 C   0  0  0  0  0  0  0  0  0  0  0  0
    1.1117   -0.5185    0.0000 O   0  0  0  0  0  0  0  0  0  0  0  0
   -0.1413    1.5251   -0.0181 C   0  0  0  0  0  0  0  0  0  0  0  0
    0.4920    1.8833   -0.7368 H   0  0  0  0  0  0  0  0  0  0  0  0
   -1.1423    1.8956   -0.2387 H   0  0  0  0  0  0  0  0  0  0  0  0
    0.2256    1.9170    0.9305 H   0  0  0  0  0  0  0  0  0  0  0  0
  1  5  1  0
  5  6  1  0
  5  9  2  0
  1  2  1  0
  1  3  1  0
  1  4  1  0
  6  7  1  0
  6  8  1  0
 10 14  1  0
 14 16  1  0
 16 17  2  0
 16 18  1  0
 10 11  1  0
 10 12  1  0
 10 13  1  0
 14 15  1  0
 18 19  1  0
 18 20  1  0
 18 21  1  0
M  END
>  <PDB_ID>  (399) 
pdb1yi8

>  <RESIDUE_NAME>  (399) 
ASN   VAL

>  <FRAG_NAME>  (399) 
ACEM   NMA

>  <FRAG_ATOM_NUM>  (399) 
fragi: 9  fragj: 12

>  <atom.prop.CHAIN_ID>  (399) 
A A A A A A A A A Z Z Z Z Z Z Z Z Z Z Z Z

>  <atom.prop.IS_HEAVY_ATOM>  (399) 
1 0 0 0 1 1 0 0 1 1 0 0 0 1 0 1 1 1 0 0 0

>  <DIFUSE_FUNC_ATOM>  (399) 
n/a

>  <FINAL_SINGLE_POINT_ENERGY>  (399) 
0

>  <NONCOV_INTER_ENERGY_QM>  (399) 
0

>  <FF_Energy>  (399) 
9.1

>  <QM_Energy>  (399) 
21.86

>  <source>  (399) 
ACEM_nNMA_25

>  <Index>  (399) 
8088

$$$$
ACEM-pdb1yir-A-GLN-149:NMA-pdb1yir-A-ALA-145
     RDKit          3D

 21 19  0  0  0  0  0  0  0  0999 V2000
   -5.0647   -0.5474    1.2170 C   0  0  0  0  0  0  0  0  0  0  0  0
   -5.6811   -0.6997    1.9873 H   0  0  0  0  0  0  0  0  0  0  0  0
   -4.3531   -1.2476    1.2117 H   0  0  0  0  0  0  0  0  0  0  0  0
   -5.6350   -0.6179    0.2908 H   0  0  0  0  0  0  0  0  0  0  0  0
   -4.4122    0.8052    1.3800 C   0  0  0  0  0  0  0  0  0  0  0  0
   -3.1092    0.8669    1.1308 N   0  0  0  0  0  0  0  0  0  0  0  0
   -2.6027    1.7468    1.2058 H   0  0  0  0  0  0  0  0  0  0  0  0
   -2.6187    0.0148    0.8626 H   0  0  0  0  0  0  0  0  0  0  0  0
   -5.0735    1.7893    1.7107 O   0  0  0  0  0  0  0  0  0  0  0  0
   -1.0767   -2.1751    0.0376 C   0  0  0  0  0  0  0  0  0  0  0  0
   -0.1256   -2.4723   -0.1469 H   0  0  0  0  0  0  0  0  0  0  0  0
   -1.7270   -2.6314   -0.7087 H   0  0  0  0  0  0  0  0  0  0  0  0
   -1.3874   -2.5474    1.0138 H   0  0  0  0  0  0  0  0  0  0  0  0
   -1.1191   -0.7175   -0.0000 N   0  0  0  0  0  0  0  0  0  0  0  0
   -1.9943   -0.1684   -0.0282 H   0  0  0  0  0  0  0  0  0  0  0  0
    0.0000    0.0000    0.0000 C   0  0  0  0  0  0  0  0  0  0  0  0
    1.1191   -0.5141   -0.0000 O   0  0  0  0  0  0  0  0  0  0  0  0
   -0.1573    1.5171   -0.0141 C   0  0  0  0  0  0  0  0  0  0  0  0
   -1.0484    1.7513    0.3871 H   0  0  0  0  0  0  0  0  0  0  0  0
    0.6276    1.9886    0.5773 H   0  0  0  0  0  0  0  0  0  0  0  0
   -0.1254    1.8885   -1.0384 H   0  0  0  0  0  0  0  0  0  0  0  0
  1  5  1  0
  5  6  1  0
  5  9  2  0
  1  2  1  0
  1  3  1  0
  1  4  1  0
  6  7  1  0
  6  8  1  0
 10 14  1  0
 14 16  1  0
 16 17  2  0
 16 18  1  0
 10 11  1  0
 10 12  1  0
 10 13  1  0
 14 15  1  0
 18 19  1  0
 18 20  1  0
 18 21  1  0
M  END
>  <PDB_ID>  (400) 
pdb1yir

>  <RESIDUE_NAME>  (400) 
GLN   ALA

>  <FRAG_NAME>  (400) 
ACEM   NMA

>  <FRAG_ATOM_NUM>  (400) 
fragi: 9  fragj: 12

>  <atom.prop.CHAIN_ID>  (400) 
A A A A A A A A A Z Z Z Z Z Z Z Z Z Z Z Z

>  <atom.prop.IS_HEAVY_ATOM>  (400) 
1 0 0 0 1 1 0 0 1 1 0 0 0 1 0 1 1 1 0 0 0

>  <DIFUSE_FUNC_ATOM>  (400) 
n/a

>  <FINAL_SINGLE_POINT_ENERGY>  (400) 
0

>  <NONCOV_INTER_ENERGY_QM>  (400) 
0

>  <FF_Energy>  (400) 
10.83

>  <QM_Energy>  (400) 
22.16

>  <source>  (400) 
ACEM_nNMA_25

>  <Index>  (400) 
8784

$$$$
ACEM-pdb1yi8-B-GLN-51:NMA-pdb1yi8-B-LEU-92
     RDKit          3D

 21 19  0  0  0  0  0  0  0  0999 V2000
   -5.2721    1.6342   -1.2915 C   0  0  0  0  0  0  0  0  0  0  0  0
   -5.8266    0.8575   -1.5922 H   0  0  0  0  0  0  0  0  0  0  0  0
   -4.9659    2.1519   -2.0913 H   0  0  0  0  0  0  0  0  0  0  0  0
   -5.8753    2.2812   -0.6546 H   0  0  0  0  0  0  0  0  0  0  0  0
   -4.0682    1.1104   -0.5687 C   0  0  0  0  0  0  0  0  0  0  0  0
   -2.9783    0.9040   -1.2922 N   0  0  0  0  0  0  0  0  0  0  0  0
   -2.1156    0.5630   -0.8682 H   0  0  0  0  0  0  0  0  0  0  0  0
   -3.0103    1.0938   -2.2957 H   0  0  0  0  0  0  0  0  0  0  0  0
   -4.1149    0.8841    0.6366 O   0  0  0  0  0  0  0  0  0  0  0  0
   -1.1459   -2.1703    0.0009 C   0  0  0  0  0  0  0  0  0  0  0  0
   -0.2453   -2.4851    0.3269 H   0  0  0  0  0  0  0  0  0  0  0  0
   -1.2736   -2.5679   -1.0059 H   0  0  0  0  0  0  0  0  0  0  0  0
   -1.9652   -2.5203    0.6288 H   0  0  0  0  0  0  0  0  0  0  0  0
   -1.1230   -0.7150   -0.0000 N   0  0  0  0  0  0  0  0  0  0  0  0
   -1.9976   -0.1320   -0.0002 H   0  0  0  0  0  0  0  0  0  0  0  0
    0.0000    0.0000    0.0000 C   0  0  0  0  0  0  0  0  0  0  0  0
    1.1230   -0.5024   -0.0000 O   0  0  0  0  0  0  0  0  0  0  0  0
   -0.1912    1.5133    0.0268 C   0  0  0  0  0  0  0  0  0  0  0  0
   -1.1566    1.7078    0.2146 H   0  0  0  0  0  0  0  0  0  0  0  0
    0.4139    1.9501    0.8212 H   0  0  0  0  0  0  0  0  0  0  0  0
    0.0639    1.9641   -0.9322 H   0  0  0  0  0  0  0  0  0  0  0  0
  1  5  1  0
  5  6  1  0
  5  9  2  0
  1  2  1  0
  1  3  1  0
  1  4  1  0
  6  7  1  0
  6  8  1  0
 10 14  1  0
 14 16  1  0
 16 17  2  0
 16 18  1  0
 10 11  1  0
 10 12  1  0
 10 13  1  0
 14 15  1  0
 18 19  1  0
 18 20  1  0
 18 21  1  0
M  END
>  <PDB_ID>  (401) 
pdb1yi8

>  <RESIDUE_NAME>  (401) 
GLN   LEU

>  <FRAG_NAME>  (401) 
ACEM   NMA

>  <FRAG_ATOM_NUM>  (401) 
fragi: 9  fragj: 12

>  <atom.prop.CHAIN_ID>  (401) 
A A A A A A A A A Z Z Z Z Z Z Z Z Z Z Z Z

>  <atom.prop.IS_HEAVY_ATOM>  (401) 
1 0 0 0 1 1 0 0 1 1 0 0 0 1 0 1 1 1 0 0 0

>  <DIFUSE_FUNC_ATOM>  (401) 
n/a

>  <FINAL_SINGLE_POINT_ENERGY>  (401) 
0

>  <NONCOV_INTER_ENERGY_QM>  (401) 
0

>  <FF_Energy>  (401) 
7.61

>  <QM_Energy>  (401) 
18.87

>  <source>  (401) 
ACEM_nNMA_25

>  <Index>  (401) 
9383

$$$$
ACEM-pdb1yiq-A-GLN-431:NMA-pdb1yiq-A-ARG-423
     RDKit          3D

 21 19  0  0  0  0  0  0  0  0999 V2000
   -6.1736    0.0533    1.2151 C   0  0  0  0  0  0  0  0  0  0  0  0
   -6.0255   -0.4796    2.0525 H   0  0  0  0  0  0  0  0  0  0  0  0
   -7.0266   -0.2478    0.7827 H   0  0  0  0  0  0  0  0  0  0  0  0
   -6.2858    1.1007    1.4953 H   0  0  0  0  0  0  0  0  0  0  0  0
   -5.0212   -0.2087    0.2602 C   0  0  0  0  0  0  0  0  0  0  0  0
   -3.8331   -0.4046    0.8126 N   0  0  0  0  0  0  0  0  0  0  0  0
   -3.0156   -0.6000    0.2375 H   0  0  0  0  0  0  0  0  0  0  0  0
   -3.7452   -0.3564    1.8261 H   0  0  0  0  0  0  0  0  0  0  0  0
   -5.1953   -0.2326   -0.9576 O   0  0  0  0  0  0  0  0  0  0  0  0
   -1.0990   -2.1699   -0.0143 C   0  0  0  0  0  0  0  0  0  0  0  0
   -0.1469   -2.4575    0.0703 H   0  0  0  0  0  0  0  0  0  0  0  0
   -1.4492   -2.5172   -0.9863 H   0  0  0  0  0  0  0  0  0  0  0  0
   -1.7443   -2.5582    0.7737 H   0  0  0  0  0  0  0  0  0  0  0  0
   -1.1199   -0.7135    0.0000 N   0  0  0  0  0  0  0  0  0  0  0  0
   -1.9942   -0.1532    0.0104 H   0  0  0  0  0  0  0  0  0  0  0  0
    0.0000    0.0000    0.0000 C   0  0  0  0  0  0  0  0  0  0  0  0
    1.1199   -0.5168    0.0000 O   0  0  0  0  0  0  0  0  0  0  0  0
   -0.1725    1.5209    0.0030 C   0  0  0  0  0  0  0  0  0  0  0  0
   -1.1047    1.7352    0.3296 H   0  0  0  0  0  0  0  0  0  0  0  0
    0.5501    2.0138    0.6534 H   0  0  0  0  0  0  0  0  0  0  0  0
   -0.0835    1.9013   -1.0146 H   0  0  0  0  0  0  0  0  0  0  0  0
  1  5  1  0
  5  6  1  0
  5  9  2  0
  1  2  1  0
  1  3  1  0
  1  4  1  0
  6  7  1  0
  6  8  1  0
 10 14  1  0
 14 16  1  0
 16 17  2  0
 16 18  1  0
 10 11  1  0
 10 12  1  0
 10 13  1  0
 14 15  1  0
 18 19  1  0
 18 20  1  0
 18 21  1  0
M  END
>  <PDB_ID>  (402) 
pdb1yiq

>  <RESIDUE_NAME>  (402) 
GLN   ARG

>  <FRAG_NAME>  (402) 
ACEM   NMA

>  <FRAG_ATOM_NUM>  (402) 
fragi: 9  fragj: 12

>  <atom.prop.CHAIN_ID>  (402) 
A A A A A A A A A Z Z Z Z Z Z Z Z Z Z Z Z

>  <atom.prop.IS_HEAVY_ATOM>  (402) 
1 0 0 0 1 1 0 0 1 1 0 0 0 1 0 1 1 1 0 0 0

>  <DIFUSE_FUNC_ATOM>  (402) 
n/a

>  <FINAL_SINGLE_POINT_ENERGY>  (402) 
0

>  <NONCOV_INTER_ENERGY_QM>  (402) 
0

>  <FF_Energy>  (402) 
5.75

>  <QM_Energy>  (402) 
16.79

>  <source>  (402) 
ACEM_nNMA_25

>  <Index>  (402) 
10128

$$$$
ACEM-pdb3cji-C-GLN-81:NMA-pdb3cji-C-LEU-68
     RDKit          3D

 21 19  0  0  0  0  0  0  0  0999 V2000
   -5.5825    0.1152   -2.3769 C   0  0  0  0  0  0  0  0  0  0  0  0
   -6.0897   -0.2564   -1.6006 H   0  0  0  0  0  0  0  0  0  0  0  0
   -5.9034   -0.3090   -3.2223 H   0  0  0  0  0  0  0  0  0  0  0  0
   -5.7592    1.1894   -2.4319 H   0  0  0  0  0  0  0  0  0  0  0  0
   -4.1183   -0.2116   -2.1978 C   0  0  0  0  0  0  0  0  0  0  0  0
   -3.6858   -0.3278   -0.9461 N   0  0  0  0  0  0  0  0  0  0  0  0
   -2.7159   -0.5595   -0.7466 H   0  0  0  0  0  0  0  0  0  0  0  0
   -4.3451   -0.1788   -0.1828 H   0  0  0  0  0  0  0  0  0  0  0  0
   -3.3750   -0.3405   -3.1742 O   0  0  0  0  0  0  0  0  0  0  0  0
   -1.0378   -2.1685   -0.0015 C   0  0  0  0  0  0  0  0  0  0  0  0
   -0.3447   -2.4317    0.6832 H   0  0  0  0  0  0  0  0  0  0  0  0
   -0.6959   -2.5517   -0.9629 H   0  0  0  0  0  0  0  0  0  0  0  0
   -2.0042   -2.5928    0.2707 H   0  0  0  0  0  0  0  0  0  0  0  0
   -1.1164   -0.7146    0.0000 N   0  0  0  0  0  0  0  0  0  0  0  0
   -1.9912   -0.1812    0.0016 H   0  0  0  0  0  0  0  0  0  0  0  0
    0.0000    0.0000    0.0000 C   0  0  0  0  0  0  0  0  0  0  0  0
    1.1164   -0.5316    0.0000 O   0  0  0  0  0  0  0  0  0  0  0  0
   -0.1275    1.5275    0.0089 C   0  0  0  0  0  0  0  0  0  0  0  0
   -0.7507    1.7804    0.7199 H   0  0  0  0  0  0  0  0  0  0  0  0
    0.8747    1.8689    0.2682 H   0  0  0  0  0  0  0  0  0  0  0  0
   -0.3967    1.8990   -0.9799 H   0  0  0  0  0  0  0  0  0  0  0  0
  1  5  1  0
  5  6  1  0
  5  9  2  0
  1  2  1  0
  1  3  1  0
  1  4  1  0
  6  7  1  0
  6  8  1  0
 10 14  1  0
 14 16  1  0
 16 17  2  0
 16 18  1  0
 10 11  1  0
 10 12  1  0
 10 13  1  0
 14 15  1  0
 18 19  1  0
 18 20  1  0
 18 21  1  0
M  END
>  <PDB_ID>  (403) 
pdb3cji

>  <RESIDUE_NAME>  (403) 
GLN   LEU

>  <FRAG_NAME>  (403) 
ACEM   NMA

>  <FRAG_ATOM_NUM>  (403) 
fragi: 9  fragj: 12

>  <atom.prop.CHAIN_ID>  (403) 
A A A A A A A A A Z Z Z Z Z Z Z Z Z Z Z Z

>  <atom.prop.IS_HEAVY_ATOM>  (403) 
1 0 0 0 1 1 0 0 1 1 0 0 0 1 0 1 1 1 0 0 0

>  <DIFUSE_FUNC_ATOM>  (403) 
n/a

>  <FINAL_SINGLE_POINT_ENERGY>  (403) 
0

>  <NONCOV_INTER_ENERGY_QM>  (403) 
0

>  <FF_Energy>  (403) 
7.9

>  <QM_Energy>  (403) 
20.54

>  <source>  (403) 
ACEM_nNMA_25

>  <Index>  (403) 
20907

$$$$
ACEM-pdb1yxm-A-ASN-102:NMA-pdb1yxm-A-GLN-19
     RDKit          3D

 21 19  0  0  0  0  0  0  0  0999 V2000
   -4.7603    0.9606   -0.5980 C   0  0  0  0  0  0  0  0  0  0  0  0
   -4.0597    0.4450   -1.0850 H   0  0  0  0  0  0  0  0  0  0  0  0
   -5.0529    1.7396   -1.1479 H   0  0  0  0  0  0  0  0  0  0  0  0
   -5.6175    0.3117   -0.4186 H   0  0  0  0  0  0  0  0  0  0  0  0
   -4.1538    1.4881    0.6900 C   0  0  0  0  0  0  0  0  0  0  0  0
   -3.0291    0.8961    1.1078 N   0  0  0  0  0  0  0  0  0  0  0  0
   -2.6371    0.1511    0.5669 H   0  0  0  0  0  0  0  0  0  0  0  0
   -2.5897    1.1961    1.9481 H   0  0  0  0  0  0  0  0  0  0  0  0
   -4.6747    2.4401    1.2759 O   0  0  0  0  0  0  0  0  0  0  0  0
   -1.1202   -2.1543    0.0165 C   0  0  0  0  0  0  0  0  0  0  0  0
   -0.2312   -2.4712   -0.2855 H   0  0  0  0  0  0  0  0  0  0  0  0
   -1.8598   -2.4782   -0.7157 H   0  0  0  0  0  0  0  0  0  0  0  0
   -1.3924   -2.5578    0.9918 H   0  0  0  0  0  0  0  0  0  0  0  0
   -1.1257   -0.7032    0.0000 N   0  0  0  0  0  0  0  0  0  0  0  0
   -1.9950   -0.1313   -0.0125 H   0  0  0  0  0  0  0  0  0  0  0  0
    0.0000    0.0000    0.0000 C   0  0  0  0  0  0  0  0  0  0  0  0
    1.1257   -0.5244   -0.0000 O   0  0  0  0  0  0  0  0  0  0  0  0
   -0.1345    1.5062    0.0296 C   0  0  0  0  0  0  0  0  0  0  0  0
   -0.6416    1.7599    0.8468 H   0  0  0  0  0  0  0  0  0  0  0  0
    0.8671    1.9273    0.1167 H   0  0  0  0  0  0  0  0  0  0  0  0
   -0.6034    1.8799   -0.8807 H   0  0  0  0  0  0  0  0  0  0  0  0
  1  5  1  0
  5  6  1  0
  5  9  2  0
  1  2  1  0
  1  3  1  0
  1  4  1  0
  6  7  1  0
  6  8  1  0
 10 14  1  0
 14 16  1  0
 16 17  2  0
 16 18  1  0
 10 11  1  0
 10 12  1  0
 10 13  1  0
 14 15  1  0
 18 19  1  0
 18 20  1  0
 18 21  1  0
M  END
>  <PDB_ID>  (404) 
pdb1yxm

>  <RESIDUE_NAME>  (404) 
ASN   GLN

>  <FRAG_NAME>  (404) 
ACEM   NMA

>  <FRAG_ATOM_NUM>  (404) 
fragi: 9  fragj: 12

>  <atom.prop.CHAIN_ID>  (404) 
A A A A A A A A A Z Z Z Z Z Z Z Z Z Z Z Z

>  <atom.prop.IS_HEAVY_ATOM>  (404) 
1 0 0 0 1 1 0 0 1 1 0 0 0 1 0 1 1 1 0 0 0

>  <DIFUSE_FUNC_ATOM>  (404) 
n/a

>  <FINAL_SINGLE_POINT_ENERGY>  (404) 
0

>  <NONCOV_INTER_ENERGY_QM>  (404) 
0

>  <FF_Energy>  (404) 
15.99

>  <QM_Energy>  (404) 
37.42

>  <source>  (404) 
ACEM_nNMA_25

>  <Index>  (404) 
24895

$$$$
ACEM-pdb1yxy-A-ASN-56:NMA-pdb1yxy-A-ILE-76
     RDKit          3D

 21 19  0  0  0  0  0  0  0  0999 V2000
   -4.9868    1.4414    2.5392 C   0  0  0  0  0  0  0  0  0  0  0  0
   -4.6187    1.0200    3.3623 H   0  0  0  0  0  0  0  0  0  0  0  0
   -5.9792    1.3677    2.5264 H   0  0  0  0  0  0  0  0  0  0  0  0
   -4.7206    2.4984    2.5453 H   0  0  0  0  0  0  0  0  0  0  0  0
   -4.4301    0.7137    1.3312 C   0  0  0  0  0  0  0  0  0  0  0  0
   -3.1072    0.5909    1.2689 N   0  0  0  0  0  0  0  0  0  0  0  0
   -2.5389    0.9668    2.0029 H   0  0  0  0  0  0  0  0  0  0  0  0
   -2.6831    0.1260    0.4948 H   0  0  0  0  0  0  0  0  0  0  0  0
   -5.1810    0.2465    0.4757 O   0  0  0  0  0  0  0  0  0  0  0  0
   -1.1530   -2.1535   -0.0504 C   0  0  0  0  0  0  0  0  0  0  0  0
   -0.3621   -2.5112    0.4457 H   0  0  0  0  0  0  0  0  0  0  0  0
   -1.0887   -2.4716   -1.0909 H   0  0  0  0  0  0  0  0  0  0  0  0
   -2.0481   -2.5391    0.4375 H   0  0  0  0  0  0  0  0  0  0  0  0
   -1.1294   -0.6995    0.0000 N   0  0  0  0  0  0  0  0  0  0  0  0
   -1.9967   -0.1161    0.0389 H   0  0  0  0  0  0  0  0  0  0  0  0
    0.0000    0.0000    0.0000 C   0  0  0  0  0  0  0  0  0  0  0  0
    1.1294   -0.5074   -0.0000 O   0  0  0  0  0  0  0  0  0  0  0  0
   -0.1768    1.5085    0.0361 C   0  0  0  0  0  0  0  0  0  0  0  0
   -1.1549    1.6837    0.0471 H   0  0  0  0  0  0  0  0  0  0  0  0
    0.2072    1.8635    0.9925 H   0  0  0  0  0  0  0  0  0  0  0  0
    0.3026    1.9697   -0.8274 H   0  0  0  0  0  0  0  0  0  0  0  0
  1  5  1  0
  5  6  1  0
  5  9  2  0
  1  2  1  0
  1  3  1  0
  1  4  1  0
  6  7  1  0
  6  8  1  0
 10 14  1  0
 14 16  1  0
 16 17  2  0
 16 18  1  0
 10 11  1  0
 10 12  1  0
 10 13  1  0
 14 15  1  0
 18 19  1  0
 18 20  1  0
 18 21  1  0
M  END
>  <PDB_ID>  (405) 
pdb1yxy

>  <RESIDUE_NAME>  (405) 
ASN   ILE

>  <FRAG_NAME>  (405) 
ACEM   NMA

>  <FRAG_ATOM_NUM>  (405) 
fragi: 9  fragj: 12

>  <atom.prop.CHAIN_ID>  (405) 
A A A A A A A A A Z Z Z Z Z Z Z Z Z Z Z Z

>  <atom.prop.IS_HEAVY_ATOM>  (405) 
1 0 0 0 1 1 0 0 1 1 0 0 0 1 0 1 1 1 0 0 0

>  <DIFUSE_FUNC_ATOM>  (405) 
n/a

>  <FINAL_SINGLE_POINT_ENERGY>  (405) 
0

>  <NONCOV_INTER_ENERGY_QM>  (405) 
0

>  <FF_Energy>  (405) 
18.09

>  <QM_Energy>  (405) 
43.28

>  <source>  (405) 
ACEM_nNMA_25

>  <Index>  (405) 
25406

$$$$
ACEM-pdb1yvp-A-ASN-473:NMA-pdb1yvp-A-SER-444
     RDKit          3D

 21 19  0  0  0  0  0  0  0  0999 V2000
   -6.2905   -0.3204   -0.2931 C   0  0  0  0  0  0  0  0  0  0  0  0
   -6.8283    0.4520   -0.6127 H   0  0  0  0  0  0  0  0  0  0  0  0
   -6.7108   -0.7303    0.5090 H   0  0  0  0  0  0  0  0  0  0  0  0
   -6.2553   -1.0686   -1.0849 H   0  0  0  0  0  0  0  0  0  0  0  0
   -4.9074    0.1758    0.0847 C   0  0  0  0  0  0  0  0  0  0  0  0
   -3.8803   -0.4094   -0.5151 N   0  0  0  0  0  0  0  0  0  0  0  0
   -4.0444   -1.1376   -1.1856 H   0  0  0  0  0  0  0  0  0  0  0  0
   -2.9460   -0.1291   -0.3023 H   0  0  0  0  0  0  0  0  0  0  0  0
   -4.7667    1.0822    0.9107 O   0  0  0  0  0  0  0  0  0  0  0  0
   -1.1618   -2.1632    0.0425 C   0  0  0  0  0  0  0  0  0  0  0  0
   -0.2011   -2.4894    0.1431 H   0  0  0  0  0  0  0  0  0  0  0  0
   -1.5832   -2.6439   -0.8404 H   0  0  0  0  0  0  0  0  0  0  0  0
   -1.7571   -2.5320    0.8777 H   0  0  0  0  0  0  0  0  0  0  0  0
   -1.1456   -0.6905   -0.0000 N   0  0  0  0  0  0  0  0  0  0  0  0
   -2.0040   -0.1131   -0.0317 H   0  0  0  0  0  0  0  0  0  0  0  0
    0.0000    0.0000    0.0000 C   0  0  0  0  0  0  0  0  0  0  0  0
    1.1456   -0.4999    0.0000 O   0  0  0  0  0  0  0  0  0  0  0  0
   -0.1861    1.5082   -0.0101 C   0  0  0  0  0  0  0  0  0  0  0  0
   -0.7251    1.7638    0.7971 H   0  0  0  0  0  0  0  0  0  0  0  0
    0.7786    2.0103    0.0628 H   0  0  0  0  0  0  0  0  0  0  0  0
   -0.6902    1.7896   -0.9346 H   0  0  0  0  0  0  0  0  0  0  0  0
  1  5  1  0
  5  6  1  0
  5  9  2  0
  1  2  1  0
  1  3  1  0
  1  4  1  0
  6  7  1  0
  6  8  1  0
 10 14  1  0
 14 16  1  0
 16 17  2  0
 16 18  1  0
 10 11  1  0
 10 12  1  0
 10 13  1  0
 14 15  1  0
 18 19  1  0
 18 20  1  0
 18 21  1  0
M  END
>  <PDB_ID>  (406) 
pdb1yvp

>  <RESIDUE_NAME>  (406) 
ASN   SER

>  <FRAG_NAME>  (406) 
ACEM   NMA

>  <FRAG_ATOM_NUM>  (406) 
fragi: 9  fragj: 12

>  <atom.prop.CHAIN_ID>  (406) 
A A A A A A A A A Z Z Z Z Z Z Z Z Z Z Z Z

>  <atom.prop.IS_HEAVY_ATOM>  (406) 
1 0 0 0 1 1 0 0 1 1 0 0 0 1 0 1 1 1 0 0 0

>  <DIFUSE_FUNC_ATOM>  (406) 
n/a

>  <FINAL_SINGLE_POINT_ENERGY>  (406) 
0

>  <NONCOV_INTER_ENERGY_QM>  (406) 
0

>  <FF_Energy>  (406) 
9.01

>  <QM_Energy>  (406) 
27.37

>  <source>  (406) 
ACEM_nNMA_25

>  <Index>  (406) 
25421

$$$$
ACEM-pdb1yxy-B-ASN-56:NMA-pdb1yxy-B-ILE-76
     RDKit          3D

 21 19  0  0  0  0  0  0  0  0999 V2000
   -5.0709    1.4706    2.3730 C   0  0  0  0  0  0  0  0  0  0  0  0
   -4.9218    1.1047    3.2858 H   0  0  0  0  0  0  0  0  0  0  0  0
   -6.0316    1.4056    2.1243 H   0  0  0  0  0  0  0  0  0  0  0  0
   -4.7875    2.5231    2.3748 H   0  0  0  0  0  0  0  0  0  0  0  0
   -4.2563    0.6553    1.3832 C   0  0  0  0  0  0  0  0  0  0  0  0
   -2.9694    0.5366    1.6569 N   0  0  0  0  0  0  0  0  0  0  0  0
   -2.5796    0.9616    2.4751 H   0  0  0  0  0  0  0  0  0  0  0  0
   -2.3701    0.0155    1.0412 H   0  0  0  0  0  0  0  0  0  0  0  0
   -4.7746    0.1620    0.3644 O   0  0  0  0  0  0  0  0  0  0  0  0
   -1.1360   -2.1566   -0.0760 C   0  0  0  0  0  0  0  0  0  0  0  0
   -0.3474   -2.5175    0.4284 H   0  0  0  0  0  0  0  0  0  0  0  0
   -1.0580   -2.4707   -1.1168 H   0  0  0  0  0  0  0  0  0  0  0  0
   -2.0235   -2.5660    0.4064 H   0  0  0  0  0  0  0  0  0  0  0  0
   -1.1267   -0.7048    0.0000 N   0  0  0  0  0  0  0  0  0  0  0  0
   -1.9957   -0.1292    0.0591 H   0  0  0  0  0  0  0  0  0  0  0  0
    0.0000    0.0000    0.0000 C   0  0  0  0  0  0  0  0  0  0  0  0
    1.1267   -0.5020    0.0000 O   0  0  0  0  0  0  0  0  0  0  0  0
   -0.1759    1.5107    0.0445 C   0  0  0  0  0  0  0  0  0  0  0  0
   -1.1546    1.6867    0.0298 H   0  0  0  0  0  0  0  0  0  0  0  0
    0.1831    1.8683    1.0096 H   0  0  0  0  0  0  0  0  0  0  0  0
    0.3290    1.9740   -0.8031 H   0  0  0  0  0  0  0  0  0  0  0  0
  1  5  1  0
  5  6  1  0
  5  9  2  0
  1  2  1  0
  1  3  1  0
  1  4  1  0
  6  7  1  0
  6  8  1  0
 10 14  1  0
 14 16  1  0
 16 17  2  0
 16 18  1  0
 10 11  1  0
 10 12  1  0
 10 13  1  0
 14 15  1  0
 18 19  1  0
 18 20  1  0
 18 21  1  0
M  END
>  <PDB_ID>  (407) 
pdb1yxy

>  <RESIDUE_NAME>  (407) 
ASN   ILE

>  <FRAG_NAME>  (407) 
ACEM   NMA

>  <FRAG_ATOM_NUM>  (407) 
fragi: 9  fragj: 12

>  <atom.prop.CHAIN_ID>  (407) 
A A A A A A A A A Z Z Z Z Z Z Z Z Z Z Z Z

>  <atom.prop.IS_HEAVY_ATOM>  (407) 
1 0 0 0 1 1 0 0 1 1 0 0 0 1 0 1 1 1 0 0 0

>  <DIFUSE_FUNC_ATOM>  (407) 
n/a

>  <FINAL_SINGLE_POINT_ENERGY>  (407) 
0

>  <NONCOV_INTER_ENERGY_QM>  (407) 
0

>  <FF_Energy>  (407) 
7.83

>  <QM_Energy>  (407) 
20.13

>  <source>  (407) 
ACEM_nNMA_25

>  <Index>  (407) 
27310

$$$$
ACEM-pdb3cra-A-GLN-146:NMA-pdb3cra-A-LYS-211
     RDKit          3D

 21 19  0  0  0  0  0  0  0  0999 V2000
   -5.4450    1.5128   -0.9868 C   0  0  0  0  0  0  0  0  0  0  0  0
   -5.2619    2.4993   -1.1071 H   0  0  0  0  0  0  0  0  0  0  0  0
   -6.2015    1.4169   -0.3245 H   0  0  0  0  0  0  0  0  0  0  0  0
   -5.7730    1.1060   -1.9433 H   0  0  0  0  0  0  0  0  0  0  0  0
   -4.1972    0.8662   -0.3833 C   0  0  0  0  0  0  0  0  0  0  0  0
   -3.5483   -0.0164   -1.1179 N   0  0  0  0  0  0  0  0  0  0  0  0
   -2.7104   -0.4692   -0.7845 H   0  0  0  0  0  0  0  0  0  0  0  0
   -3.9135   -0.2428   -2.0498 H   0  0  0  0  0  0  0  0  0  0  0  0
   -3.8061    1.2261    0.7179 O   0  0  0  0  0  0  0  0  0  0  0  0
   -1.1715   -2.1443    0.1081 C   0  0  0  0  0  0  0  0  0  0  0  0
   -0.8025   -2.4164    1.0143 H   0  0  0  0  0  0  0  0  0  0  0  0
   -0.5908   -2.6497   -0.6636 H   0  0  0  0  0  0  0  0  0  0  0  0
   -2.2073   -2.4824    0.1375 H   0  0  0  0  0  0  0  0  0  0  0  0
   -1.1199   -0.6913   -0.0000 N   0  0  0  0  0  0  0  0  0  0  0  0
   -1.9903   -0.1024   -0.0857 H   0  0  0  0  0  0  0  0  0  0  0  0
    0.0000    0.0000    0.0000 C   0  0  0  0  0  0  0  0  0  0  0  0
    1.1199   -0.4942   -0.0000 O   0  0  0  0  0  0  0  0  0  0  0  0
   -0.1718    1.4818    0.0372 C   0  0  0  0  0  0  0  0  0  0  0  0
   -1.1428    1.7070   -0.0042 H   0  0  0  0  0  0  0  0  0  0  0  0
    0.2310    1.8316    0.9877 H   0  0  0  0  0  0  0  0  0  0  0  0
    0.2942    1.9793   -0.8134 H   0  0  0  0  0  0  0  0  0  0  0  0
  1  5  1  0
  5  6  1  0
  5  9  2  0
  1  2  1  0
  1  3  1  0
  1  4  1  0
  6  7  1  0
  6  8  1  0
 10 14  1  0
 14 16  1  0
 16 17  2  0
 16 18  1  0
 10 11  1  0
 10 12  1  0
 10 13  1  0
 14 15  1  0
 18 19  1  0
 18 20  1  0
 18 21  1  0
M  END
>  <PDB_ID>  (408) 
pdb3cra

>  <RESIDUE_NAME>  (408) 
GLN   LYS

>  <FRAG_NAME>  (408) 
ACEM   NMA

>  <FRAG_ATOM_NUM>  (408) 
fragi: 9  fragj: 12

>  <atom.prop.CHAIN_ID>  (408) 
A A A A A A A A A Z Z Z Z Z Z Z Z Z Z Z Z

>  <atom.prop.IS_HEAVY_ATOM>  (408) 
1 0 0 0 1 1 0 0 1 1 0 0 0 1 0 1 1 1 0 0 0

>  <DIFUSE_FUNC_ATOM>  (408) 
n/a

>  <FINAL_SINGLE_POINT_ENERGY>  (408) 
0

>  <NONCOV_INTER_ENERGY_QM>  (408) 
0

>  <FF_Energy>  (408) 
3.01

>  <QM_Energy>  (408) 
20.05

>  <source>  (408) 
ACEM_nNMA_26

>  <Index>  (408) 
60

$$$$
ACEM-pdb1yzy-A-GLN-158:NMA-pdb1yzy-A-ILE-92
     RDKit          3D

 21 19  0  0  0  0  0  0  0  0999 V2000
   -5.2144   -1.1436    1.0924 C   0  0  0  0  0  0  0  0  0  0  0  0
   -5.9723   -1.2303    1.7452 H   0  0  0  0  0  0  0  0  0  0  0  0
   -4.4942   -1.7965    1.3418 H   0  0  0  0  0  0  0  0  0  0  0  0
   -5.5841   -1.4013    0.1000 H   0  0  0  0  0  0  0  0  0  0  0  0
   -4.6589    0.2499    1.1743 C   0  0  0  0  0  0  0  0  0  0  0  0
   -3.4054    0.4149    0.7791 N   0  0  0  0  0  0  0  0  0  0  0  0
   -2.9622    1.3336    0.7920 H   0  0  0  0  0  0  0  0  0  0  0  0
   -2.8791   -0.3983    0.4582 H   0  0  0  0  0  0  0  0  0  0  0  0
   -5.3571    1.1732    1.5691 O   0  0  0  0  0  0  0  0  0  0  0  0
   -1.0986   -2.1721    0.0468 C   0  0  0  0  0  0  0  0  0  0  0  0
   -0.5835   -2.4707    0.8756 H   0  0  0  0  0  0  0  0  0  0  0  0
   -2.0519   -2.5168    0.1656 H   0  0  0  0  0  0  0  0  0  0  0  0
   -0.6570   -2.6366   -0.8348 H   0  0  0  0  0  0  0  0  0  0  0  0
   -1.1226   -0.7163    0.0000 N   0  0  0  0  0  0  0  0  0  0  0  0
   -1.9957   -0.1566   -0.0357 H   0  0  0  0  0  0  0  0  0  0  0  0
    0.0000    0.0000    0.0000 C   0  0  0  0  0  0  0  0  0  0  0  0
    1.1226   -0.5087   -0.0000 O   0  0  0  0  0  0  0  0  0  0  0  0
   -0.1707    1.5220   -0.0629 C   0  0  0  0  0  0  0  0  0  0  0  0
    0.7242    1.8993   -0.2886 H   0  0  0  0  0  0  0  0  0  0  0  0
   -0.8280    1.7788   -0.8937 H   0  0  0  0  0  0  0  0  0  0  0  0
   -0.5423    1.9067    0.8868 H   0  0  0  0  0  0  0  0  0  0  0  0
  1  5  1  0
  5  6  1  0
  5  9  2  0
  1  2  1  0
  1  3  1  0
  1  4  1  0
  6  7  1  0
  6  8  1  0
 10 14  1  0
 14 16  1  0
 16 17  2  0
 16 18  1  0
 10 11  1  0
 10 12  1  0
 10 13  1  0
 14 15  1  0
 18 19  1  0
 18 20  1  0
 18 21  1  0
M  END
>  <PDB_ID>  (409) 
pdb1yzy

>  <RESIDUE_NAME>  (409) 
GLN   ILE

>  <FRAG_NAME>  (409) 
ACEM   NMA

>  <FRAG_ATOM_NUM>  (409) 
fragi: 9  fragj: 12

>  <atom.prop.CHAIN_ID>  (409) 
A A A A A A A A A Z Z Z Z Z Z Z Z Z Z Z Z

>  <atom.prop.IS_HEAVY_ATOM>  (409) 
1 0 0 0 1 1 0 0 1 1 0 0 0 1 0 1 1 1 0 0 0

>  <DIFUSE_FUNC_ATOM>  (409) 
n/a

>  <FINAL_SINGLE_POINT_ENERGY>  (409) 
0

>  <NONCOV_INTER_ENERGY_QM>  (409) 
0

>  <FF_Energy>  (409) 
12.32

>  <QM_Energy>  (409) 
29.14

>  <source>  (409) 
ACEM_nNMA_26

>  <Index>  (409) 
350

$$$$
ACEM-pdb3crv-A-ASN-395:NMA-pdb3crv-A-LYS-438
     RDKit          3D

 21 19  0  0  0  0  0  0  0  0999 V2000
   -5.3278    0.4602   -0.2365 C   0  0  0  0  0  0  0  0  0  0  0  0
   -6.2692    0.7771   -0.1820 H   0  0  0  0  0  0  0  0  0  0  0  0
   -5.3001   -0.5299   -0.3305 H   0  0  0  0  0  0  0  0  0  0  0  0
   -4.8640    0.9039   -1.1175 H   0  0  0  0  0  0  0  0  0  0  0  0
   -4.6116    0.8460    1.0397 C   0  0  0  0  0  0  0  0  0  0  0  0
   -3.3640    0.4187    1.1698 N   0  0  0  0  0  0  0  0  0  0  0  0
   -2.9425   -0.1248    0.4419 H   0  0  0  0  0  0  0  0  0  0  0  0
   -2.8406    0.6367    1.9939 H   0  0  0  0  0  0  0  0  0  0  0  0
   -5.1802    1.5083    1.9025 O   0  0  0  0  0  0  0  0  0  0  0  0
   -1.1086   -2.1681   -0.0058 C   0  0  0  0  0  0  0  0  0  0  0  0
   -0.1520   -2.4762   -0.1215 H   0  0  0  0  0  0  0  0  0  0  0  0
   -1.6923   -2.5796   -0.8294 H   0  0  0  0  0  0  0  0  0  0  0  0
   -1.5035   -2.5681    0.9281 H   0  0  0  0  0  0  0  0  0  0  0  0
   -1.1215   -0.7160   -0.0000 N   0  0  0  0  0  0  0  0  0  0  0  0
   -1.9958   -0.1485    0.0041 H   0  0  0  0  0  0  0  0  0  0  0  0
    0.0000    0.0000    0.0000 C   0  0  0  0  0  0  0  0  0  0  0  0
    1.1215   -0.5016   -0.0000 O   0  0  0  0  0  0  0  0  0  0  0  0
   -0.1813    1.5093    0.0021 C   0  0  0  0  0  0  0  0  0  0  0  0
   -1.1707    1.7184    0.0172 H   0  0  0  0  0  0  0  0  0  0  0  0
    0.2863    1.9766    0.8688 H   0  0  0  0  0  0  0  0  0  0  0  0
    0.2032    1.9168   -0.9329 H   0  0  0  0  0  0  0  0  0  0  0  0
  1  5  1  0
  5  6  1  0
  5  9  2  0
  1  2  1  0
  1  3  1  0
  1  4  1  0
  6  7  1  0
  6  8  1  0
 10 14  1  0
 14 16  1  0
 16 17  2  0
 16 18  1  0
 10 11  1  0
 10 12  1  0
 10 13  1  0
 14 15  1  0
 18 19  1  0
 18 20  1  0
 18 21  1  0
M  END
>  <PDB_ID>  (410) 
pdb3crv

>  <RESIDUE_NAME>  (410) 
ASN   LYS

>  <FRAG_NAME>  (410) 
ACEM   NMA

>  <FRAG_ATOM_NUM>  (410) 
fragi: 9  fragj: 12

>  <atom.prop.CHAIN_ID>  (410) 
A A A A A A A A A Z Z Z Z Z Z Z Z Z Z Z Z

>  <atom.prop.IS_HEAVY_ATOM>  (410) 
1 0 0 0 1 1 0 0 1 1 0 0 0 1 0 1 1 1 0 0 0

>  <DIFUSE_FUNC_ATOM>  (410) 
n/a

>  <FINAL_SINGLE_POINT_ENERGY>  (410) 
0

>  <NONCOV_INTER_ENERGY_QM>  (410) 
0

>  <FF_Energy>  (410) 
10.46

>  <QM_Energy>  (410) 
23.98

>  <source>  (410) 
ACEM_nNMA_26

>  <Index>  (410) 
1812

$$$$
ACEM-pdb1z15-A-GLN-285:NMA-pdb1z15-A-THR-311
     RDKit          3D

 21 19  0  0  0  0  0  0  0  0999 V2000
   -4.3074    2.7362    2.1781 C   0  0  0  0  0  0  0  0  0  0  0  0
   -4.4611    2.9739    3.1395 H   0  0  0  0  0  0  0  0  0  0  0  0
   -5.1562    2.3702    1.7915 H   0  0  0  0  0  0  0  0  0  0  0  0
   -4.0255    3.6353    1.6301 H   0  0  0  0  0  0  0  0  0  0  0  0
   -3.2469    1.6338    2.1263 C   0  0  0  0  0  0  0  0  0  0  0  0
   -3.1263    0.9830    0.9791 N   0  0  0  0  0  0  0  0  0  0  0  0
   -2.4349    0.2490    0.8674 H   0  0  0  0  0  0  0  0  0  0  0  0
   -3.7420    1.2305    0.2052 H   0  0  0  0  0  0  0  0  0  0  0  0
   -2.5309    1.3892    3.1068 O   0  0  0  0  0  0  0  0  0  0  0  0
   -1.1178   -2.1870   -0.0114 C   0  0  0  0  0  0  0  0  0  0  0  0
   -0.4787   -2.5133    0.6943 H   0  0  0  0  0  0  0  0  0  0  0  0
   -0.7719   -2.5797   -0.9675 H   0  0  0  0  0  0  0  0  0  0  0  0
   -2.1070   -2.5900    0.2059 H   0  0  0  0  0  0  0  0  0  0  0  0
   -1.1171   -0.7287   -0.0000 N   0  0  0  0  0  0  0  0  0  0  0  0
   -1.9973   -0.1593    0.0091 H   0  0  0  0  0  0  0  0  0  0  0  0
    0.0000    0.0000    0.0000 C   0  0  0  0  0  0  0  0  0  0  0  0
    1.1171   -0.4935   -0.0000 O   0  0  0  0  0  0  0  0  0  0  0  0
   -0.1583    1.5084   -0.0150 C   0  0  0  0  0  0  0  0  0  0  0  0
   -0.6222    1.7883    0.8283 H   0  0  0  0  0  0  0  0  0  0  0  0
    0.8267    1.9743   -0.0422 H   0  0  0  0  0  0  0  0  0  0  0  0
   -0.7229    1.7763   -0.9081 H   0  0  0  0  0  0  0  0  0  0  0  0
  1  5  1  0
  5  6  1  0
  5  9  2  0
  1  2  1  0
  1  3  1  0
  1  4  1  0
  6  7  1  0
  6  8  1  0
 10 14  1  0
 14 16  1  0
 16 17  2  0
 16 18  1  0
 10 11  1  0
 10 12  1  0
 10 13  1  0
 14 15  1  0
 18 19  1  0
 18 20  1  0
 18 21  1  0
M  END
>  <PDB_ID>  (411) 
pdb1z15

>  <RESIDUE_NAME>  (411) 
GLN   THR

>  <FRAG_NAME>  (411) 
ACEM   NMA

>  <FRAG_ATOM_NUM>  (411) 
fragi: 9  fragj: 12

>  <atom.prop.CHAIN_ID>  (411) 
A A A A A A A A A Z Z Z Z Z Z Z Z Z Z Z Z

>  <atom.prop.IS_HEAVY_ATOM>  (411) 
1 0 0 0 1 1 0 0 1 1 0 0 0 1 0 1 1 1 0 0 0

>  <DIFUSE_FUNC_ATOM>  (411) 
n/a

>  <FINAL_SINGLE_POINT_ENERGY>  (411) 
0

>  <NONCOV_INTER_ENERGY_QM>  (411) 
0

>  <FF_Energy>  (411) 
9.93

>  <QM_Energy>  (411) 
23.34

>  <source>  (411) 
ACEM_nNMA_26

>  <Index>  (411) 
2761

$$$$
ACEM-pdb3cse-A-GLN-160:NMA-pdb3cse-B-HID-221
     RDKit          3D

 21 19  0  0  0  0  0  0  0  0999 V2000
   -6.1979    0.4337   -0.5037 C   0  0  0  0  0  0  0  0  0  0  0  0
   -6.3332    1.3346   -0.8968 H   0  0  0  0  0  0  0  0  0  0  0  0
   -6.8543    0.2654    0.2214 H   0  0  0  0  0  0  0  0  0  0  0  0
   -6.3247   -0.3189   -1.2820 H   0  0  0  0  0  0  0  0  0  0  0  0
   -4.7696    0.4031    0.1305 C   0  0  0  0  0  0  0  0  0  0  0  0
   -3.7383   -0.0308   -0.6856 N   0  0  0  0  0  0  0  0  0  0  0  0
   -2.8235   -0.0529   -0.3346 H   0  0  0  0  0  0  0  0  0  0  0  0
   -3.9868   -0.3094   -1.6243 H   0  0  0  0  0  0  0  0  0  0  0  0
   -4.5591    0.8043    1.2902 O   0  0  0  0  0  0  0  0  0  0  0  0
   -1.1520   -2.0966   -0.3462 C   0  0  0  0  0  0  0  0  0  0  0  0
   -0.2666   -2.4889   -0.1015 H   0  0  0  0  0  0  0  0  0  0  0  0
   -1.2873   -2.2204   -1.4207 H   0  0  0  0  0  0  0  0  0  0  0  0
   -1.9728   -2.6012    0.1635 H   0  0  0  0  0  0  0  0  0  0  0  0
   -1.1425   -0.6638    0.0000 N   0  0  0  0  0  0  0  0  0  0  0  0
   -1.9798   -0.1320    0.2465 H   0  0  0  0  0  0  0  0  0  0  0  0
    0.0000    0.0000    0.0000 C   0  0  0  0  0  0  0  0  0  0  0  0
    1.1425   -0.5942    0.0000 O   0  0  0  0  0  0  0  0  0  0  0  0
   -0.1356    1.5063    0.4001 C   0  0  0  0  0  0  0  0  0  0  0  0
   -1.0662    1.7827    0.2185 H   0  0  0  0  0  0  0  0  0  0  0  0
    0.0497    1.5817    1.4716 H   0  0  0  0  0  0  0  0  0  0  0  0
    0.6467    2.0602   -0.1187 H   0  0  0  0  0  0  0  0  0  0  0  0
  1  5  1  0
  5  6  1  0
  5  9  2  0
  1  2  1  0
  1  3  1  0
  1  4  1  0
  6  7  1  0
  6  8  1  0
 10 14  1  0
 14 16  1  0
 16 17  2  0
 16 18  1  0
 10 11  1  0
 10 12  1  0
 10 13  1  0
 14 15  1  0
 18 19  1  0
 18 20  1  0
 18 21  1  0
M  END
>  <PDB_ID>  (412) 
pdb3cse

>  <RESIDUE_NAME>  (412) 
GLN   HID

>  <FRAG_NAME>  (412) 
ACEM   NMA

>  <FRAG_ATOM_NUM>  (412) 
fragi: 9  fragj: 12

>  <atom.prop.CHAIN_ID>  (412) 
A A A A A A A A A Z Z Z Z Z Z Z Z Z Z Z Z

>  <atom.prop.IS_HEAVY_ATOM>  (412) 
1 0 0 0 1 1 0 0 1 1 0 0 0 1 0 1 1 1 0 0 0

>  <DIFUSE_FUNC_ATOM>  (412) 
n/a

>  <FINAL_SINGLE_POINT_ENERGY>  (412) 
0

>  <NONCOV_INTER_ENERGY_QM>  (412) 
0

>  <FF_Energy>  (412) 
8.28

>  <QM_Energy>  (412) 
23.72

>  <source>  (412) 
ACEM_nNMA_26

>  <Index>  (412) 
2976

$$$$
ACEM-pdb3csq-B-GLN-54:NMA-pdb3csq-B-LEU-63
     RDKit          3D

 21 19  0  0  0  0  0  0  0  0999 V2000
   -5.1674   -0.3218   -0.7660 C   0  0  0  0  0  0  0  0  0  0  0  0
   -5.5544    0.5643   -1.0450 H   0  0  0  0  0  0  0  0  0  0  0  0
   -5.8804   -1.0246   -0.8552 H   0  0  0  0  0  0  0  0  0  0  0  0
   -4.3453   -0.5700   -1.4373 H   0  0  0  0  0  0  0  0  0  0  0  0
   -4.7593   -0.2311    0.6820 C   0  0  0  0  0  0  0  0  0  0  0  0
   -3.5000    0.1634    0.9609 N   0  0  0  0  0  0  0  0  0  0  0  0
   -3.1771    0.2548    1.9014 H   0  0  0  0  0  0  0  0  0  0  0  0
   -2.8820    0.3661    0.1711 H   0  0  0  0  0  0  0  0  0  0  0  0
   -5.5805   -0.4904    1.5539 O   0  0  0  0  0  0  0  0  0  0  0  0
   -1.1632   -2.1861    0.0422 C   0  0  0  0  0  0  0  0  0  0  0  0
   -0.5779   -2.4928    0.8129 H   0  0  0  0  0  0  0  0  0  0  0  0
   -2.1111   -2.4808    0.2544 H   0  0  0  0  0  0  0  0  0  0  0  0
   -0.8302   -2.6574   -0.8825 H   0  0  0  0  0  0  0  0  0  0  0  0
   -1.1363   -0.6929   -0.0000 N   0  0  0  0  0  0  0  0  0  0  0  0
   -2.0022   -0.1234   -0.0312 H   0  0  0  0  0  0  0  0  0  0  0  0
    0.0000    0.0000    0.0000 C   0  0  0  0  0  0  0  0  0  0  0  0
    1.1363   -0.5263   -0.0000 O   0  0  0  0  0  0  0  0  0  0  0  0
   -0.1428    1.5352   -0.0143 C   0  0  0  0  0  0  0  0  0  0  0  0
   -0.5473    1.8156    0.8571 H   0  0  0  0  0  0  0  0  0  0  0  0
    0.8384    1.9986   -0.1174 H   0  0  0  0  0  0  0  0  0  0  0  0
   -0.7855    1.8699   -0.8286 H   0  0  0  0  0  0  0  0  0  0  0  0
  1  5  1  0
  5  6  1  0
  5  9  2  0
  1  2  1  0
  1  3  1  0
  1  4  1  0
  6  7  1  0
  6  8  1  0
 10 14  1  0
 14 16  1  0
 16 17  2  0
 16 18  1  0
 10 11  1  0
 10 12  1  0
 10 13  1  0
 14 15  1  0
 18 19  1  0
 18 20  1  0
 18 21  1  0
M  END
>  <PDB_ID>  (413) 
pdb3csq

>  <RESIDUE_NAME>  (413) 
GLN   LEU

>  <FRAG_NAME>  (413) 
ACEM   NMA

>  <FRAG_ATOM_NUM>  (413) 
fragi: 9  fragj: 12

>  <atom.prop.CHAIN_ID>  (413) 
A A A A A A A A A Z Z Z Z Z Z Z Z Z Z Z Z

>  <atom.prop.IS_HEAVY_ATOM>  (413) 
1 0 0 0 1 1 0 0 1 1 0 0 0 1 0 1 1 1 0 0 0

>  <DIFUSE_FUNC_ATOM>  (413) 
n/a

>  <FINAL_SINGLE_POINT_ENERGY>  (413) 
0

>  <NONCOV_INTER_ENERGY_QM>  (413) 
0

>  <FF_Energy>  (413) 
14.42

>  <QM_Energy>  (413) 
27.29

>  <source>  (413) 
ACEM_nNMA_26

>  <Index>  (413) 
3253

$$$$
ACEM-pdb1z7d-A-ASN-276:NMA-pdb1z7d-A-TYR-102
     RDKit          3D

 21 19  0  0  0  0  0  0  0  0999 V2000
   -5.4942    0.3073    0.4748 C   0  0  0  0  0  0  0  0  0  0  0  0
   -6.3124    0.8426    0.3032 H   0  0  0  0  0  0  0  0  0  0  0  0
   -5.6969   -0.4608    1.0712 H   0  0  0  0  0  0  0  0  0  0  0  0
   -5.1284   -0.0805   -0.4760 H   0  0  0  0  0  0  0  0  0  0  0  0
   -4.4688    1.2087    1.1829 C   0  0  0  0  0  0  0  0  0  0  0  0
   -3.1871    0.9449    0.9220 N   0  0  0  0  0  0  0  0  0  0  0  0
   -2.9455    0.2057    0.2956 H   0  0  0  0  0  0  0  0  0  0  0  0
   -2.4690    1.4899    1.3529 H   0  0  0  0  0  0  0  0  0  0  0  0
   -4.8189    2.1330    1.9470 O   0  0  0  0  0  0  0  0  0  0  0  0
   -1.0744   -2.1795    0.0346 C   0  0  0  0  0  0  0  0  0  0  0  0
   -0.4592   -2.4473    0.7974 H   0  0  0  0  0  0  0  0  0  0  0  0
   -0.6625   -2.6112   -0.8776 H   0  0  0  0  0  0  0  0  0  0  0  0
   -2.0762   -2.5804    0.1887 H   0  0  0  0  0  0  0  0  0  0  0  0
   -1.1068   -0.7322   -0.0000 N   0  0  0  0  0  0  0  0  0  0  0  0
   -1.9908   -0.1773   -0.0263 H   0  0  0  0  0  0  0  0  0  0  0  0
    0.0000    0.0000    0.0000 C   0  0  0  0  0  0  0  0  0  0  0  0
    1.1068   -0.4820    0.0000 O   0  0  0  0  0  0  0  0  0  0  0  0
   -0.1532    1.4955   -0.0222 C   0  0  0  0  0  0  0  0  0  0  0  0
   -0.9181    1.7494    0.5605 H   0  0  0  0  0  0  0  0  0  0  0  0
    0.7546    1.9220    0.4046 H   0  0  0  0  0  0  0  0  0  0  0  0
   -0.2978    1.8659   -1.0371 H   0  0  0  0  0  0  0  0  0  0  0  0
  1  5  1  0
  5  6  1  0
  5  9  2  0
  1  2  1  0
  1  3  1  0
  1  4  1  0
  6  7  1  0
  6  8  1  0
 10 14  1  0
 14 16  1  0
 16 17  2  0
 16 18  1  0
 10 11  1  0
 10 12  1  0
 10 13  1  0
 14 15  1  0
 18 19  1  0
 18 20  1  0
 18 21  1  0
M  END
>  <PDB_ID>  (414) 
pdb1z7d

>  <RESIDUE_NAME>  (414) 
ASN   TYR

>  <FRAG_NAME>  (414) 
ACEM   NMA

>  <FRAG_ATOM_NUM>  (414) 
fragi: 9  fragj: 12

>  <atom.prop.CHAIN_ID>  (414) 
A A A A A A A A A Z Z Z Z Z Z Z Z Z Z Z Z

>  <atom.prop.IS_HEAVY_ATOM>  (414) 
1 0 0 0 1 1 0 0 1 1 0 0 0 1 0 1 1 1 0 0 0

>  <DIFUSE_FUNC_ATOM>  (414) 
n/a

>  <FINAL_SINGLE_POINT_ENERGY>  (414) 
0

>  <NONCOV_INTER_ENERGY_QM>  (414) 
0

>  <FF_Energy>  (414) 
12.38

>  <QM_Energy>  (414) 
24.23

>  <source>  (414) 
ACEM_nNMA_26

>  <Index>  (414) 
8231

$$$$
ACEM-pdb3cyn-C-ASN-109:NMA-pdb3cyn-C-SER-114
     RDKit          3D

 21 19  0  0  0  0  0  0  0  0999 V2000
   -5.2754   -1.2757    1.0792 C   0  0  0  0  0  0  0  0  0  0  0  0
   -4.9727   -2.2212    1.0531 H   0  0  0  0  0  0  0  0  0  0  0  0
   -6.2517   -1.2246    1.2561 H   0  0  0  0  0  0  0  0  0  0  0  0
   -4.7515   -0.7679    1.8890 H   0  0  0  0  0  0  0  0  0  0  0  0
   -4.9988   -0.6419   -0.2917 C   0  0  0  0  0  0  0  0  0  0  0  0
   -3.7914   -0.1605   -0.4889 N   0  0  0  0  0  0  0  0  0  0  0  0
   -3.0995   -0.2246    0.2391 H   0  0  0  0  0  0  0  0  0  0  0  0
   -3.5501    0.2698   -1.3601 H   0  0  0  0  0  0  0  0  0  0  0  0
   -5.8750   -0.5805   -1.1468 O   0  0  0  0  0  0  0  0  0  0  0  0
   -1.1481   -2.1812   -0.0686 C   0  0  0  0  0  0  0  0  0  0  0  0
   -0.2477   -2.5270   -0.3573 H   0  0  0  0  0  0  0  0  0  0  0  0
   -1.9037   -2.5309   -0.7721 H   0  0  0  0  0  0  0  0  0  0  0  0
   -1.3299   -2.5896    0.9254 H   0  0  0  0  0  0  0  0  0  0  0  0
   -1.1229   -0.7241   -0.0000 N   0  0  0  0  0  0  0  0  0  0  0  0
   -1.9992   -0.1439    0.0545 H   0  0  0  0  0  0  0  0  0  0  0  0
    0.0000    0.0000    0.0000 C   0  0  0  0  0  0  0  0  0  0  0  0
    1.1229   -0.4803   -0.0000 O   0  0  0  0  0  0  0  0  0  0  0  0
   -0.1666    1.5095   -0.0342 C   0  0  0  0  0  0  0  0  0  0  0  0
    0.2449    1.8506   -0.9027 H   0  0  0  0  0  0  0  0  0  0  0  0
   -1.2019    1.8495   -0.0061 H   0  0  0  0  0  0  0  0  0  0  0  0
    0.3908    1.9557    0.7893 H   0  0  0  0  0  0  0  0  0  0  0  0
  1  5  1  0
  5  6  1  0
  5  9  2  0
  1  2  1  0
  1  3  1  0
  1  4  1  0
  6  7  1  0
  6  8  1  0
 10 14  1  0
 14 16  1  0
 16 17  2  0
 16 18  1  0
 10 11  1  0
 10 12  1  0
 10 13  1  0
 14 15  1  0
 18 19  1  0
 18 20  1  0
 18 21  1  0
M  END
>  <PDB_ID>  (415) 
pdb3cyn

>  <RESIDUE_NAME>  (415) 
ASN   SER

>  <FRAG_NAME>  (415) 
ACEM   NMA

>  <FRAG_ATOM_NUM>  (415) 
fragi: 9  fragj: 12

>  <atom.prop.CHAIN_ID>  (415) 
A A A A A A A A A Z Z Z Z Z Z Z Z Z Z Z Z

>  <atom.prop.IS_HEAVY_ATOM>  (415) 
1 0 0 0 1 1 0 0 1 1 0 0 0 1 0 1 1 1 0 0 0

>  <DIFUSE_FUNC_ATOM>  (415) 
n/a

>  <FINAL_SINGLE_POINT_ENERGY>  (415) 
0

>  <NONCOV_INTER_ENERGY_QM>  (415) 
0

>  <FF_Energy>  (415) 
10.18

>  <QM_Energy>  (415) 
20.2

>  <source>  (415) 
ACEM_nNMA_26

>  <Index>  (415) 
8311

$$$$
ACEM-pdb1zcj-A-ASN-408:NMA-pdb1zcj-A-HID-431
     RDKit          3D

 21 19  0  0  0  0  0  0  0  0999 V2000
   -5.1284    2.2756   -0.0654 C   0  0  0  0  0  0  0  0  0  0  0  0
   -5.4339    1.9721    0.8356 H   0  0  0  0  0  0  0  0  0  0  0  0
   -5.9178    2.5420   -0.6165 H   0  0  0  0  0  0  0  0  0  0  0  0
   -4.5016    3.1568    0.0710 H   0  0  0  0  0  0  0  0  0  0  0  0
   -4.3962    1.2034   -0.7296 C   0  0  0  0  0  0  0  0  0  0  0  0
   -3.3256    0.7599   -0.1248 N   0  0  0  0  0  0  0  0  0  0  0  0
   -3.0349    1.1421    0.7571 H   0  0  0  0  0  0  0  0  0  0  0  0
   -2.7745    0.0238   -0.5372 H   0  0  0  0  0  0  0  0  0  0  0  0
   -4.8146    0.7391   -1.7893 O   0  0  0  0  0  0  0  0  0  0  0  0
   -1.1747   -2.1228    0.0348 C   0  0  0  0  0  0  0  0  0  0  0  0
   -0.4306   -2.4247    0.6403 H   0  0  0  0  0  0  0  0  0  0  0  0
   -0.9654   -2.5179   -0.9592 H   0  0  0  0  0  0  0  0  0  0  0  0
   -2.1694   -2.4595    0.3269 H   0  0  0  0  0  0  0  0  0  0  0  0
   -1.1309   -0.6814    0.0000 N   0  0  0  0  0  0  0  0  0  0  0  0
   -1.9933   -0.0824   -0.0277 H   0  0  0  0  0  0  0  0  0  0  0  0
    0.0000    0.0000    0.0000 C   0  0  0  0  0  0  0  0  0  0  0  0
    1.1309   -0.5298   -0.0000 O   0  0  0  0  0  0  0  0  0  0  0  0
   -0.1798    1.5090   -0.0056 C   0  0  0  0  0  0  0  0  0  0  0  0
   -1.0809    1.7228   -0.3980 H   0  0  0  0  0  0  0  0  0  0  0  0
   -0.1491    1.9106    1.0072 H   0  0  0  0  0  0  0  0  0  0  0  0
    0.5900    1.9664   -0.6271 H   0  0  0  0  0  0  0  0  0  0  0  0
  1  5  1  0
  5  6  1  0
  5  9  2  0
  1  2  1  0
  1  3  1  0
  1  4  1  0
  6  7  1  0
  6  8  1  0
 10 14  1  0
 14 16  1  0
 16 17  2  0
 16 18  1  0
 10 11  1  0
 10 12  1  0
 10 13  1  0
 14 15  1  0
 18 19  1  0
 18 20  1  0
 18 21  1  0
M  END
>  <PDB_ID>  (416) 
pdb1zcj

>  <RESIDUE_NAME>  (416) 
ASN   HID

>  <FRAG_NAME>  (416) 
ACEM   NMA

>  <FRAG_ATOM_NUM>  (416) 
fragi: 9  fragj: 12

>  <atom.prop.CHAIN_ID>  (416) 
A A A A A A A A A Z Z Z Z Z Z Z Z Z Z Z Z

>  <atom.prop.IS_HEAVY_ATOM>  (416) 
1 0 0 0 1 1 0 0 1 1 0 0 0 1 0 1 1 1 0 0 0

>  <DIFUSE_FUNC_ATOM>  (416) 
n/a

>  <FINAL_SINGLE_POINT_ENERGY>  (416) 
0

>  <NONCOV_INTER_ENERGY_QM>  (416) 
0

>  <FF_Energy>  (416) 
18.97

>  <QM_Energy>  (416) 
39.61

>  <source>  (416) 
ACEM_nNMA_26

>  <Index>  (416) 
14105

$$$$
ACEM-pdb1ze3-C-ASN-101:NMA-pdb1ze3-H-ASN-267
     RDKit          3D

 21 19  0  0  0  0  0  0  0  0999 V2000
   -5.2352    0.3105    0.7459 C   0  0  0  0  0  0  0  0  0  0  0  0
   -6.1374    0.6718    0.9636 H   0  0  0  0  0  0  0  0  0  0  0  0
   -5.1004   -0.5696    1.1921 H   0  0  0  0  0  0  0  0  0  0  0  0
   -5.1746    0.1623   -0.3323 H   0  0  0  0  0  0  0  0  0  0  0  0
   -4.1897    1.2778    1.2538 C   0  0  0  0  0  0  0  0  0  0  0  0
   -2.9270    1.0071    0.9410 N   0  0  0  0  0  0  0  0  0  0  0  0
   -2.7139    0.1983    0.3907 H   0  0  0  0  0  0  0  0  0  0  0  0
   -2.1922    1.6072    1.2538 H   0  0  0  0  0  0  0  0  0  0  0  0
   -4.5134    2.2572    1.9219 O   0  0  0  0  0  0  0  0  0  0  0  0
   -1.1269   -2.1601    0.0086 C   0  0  0  0  0  0  0  0  0  0  0  0
   -0.1966   -2.4794   -0.1807 H   0  0  0  0  0  0  0  0  0  0  0  0
   -1.7763   -2.5298   -0.7850 H   0  0  0  0  0  0  0  0  0  0  0  0
   -1.4851   -2.5401    0.9654 H   0  0  0  0  0  0  0  0  0  0  0  0
   -1.1241   -0.7069    0.0000 N   0  0  0  0  0  0  0  0  0  0  0  0
   -1.9955   -0.1328   -0.0065 H   0  0  0  0  0  0  0  0  0  0  0  0
    0.0000    0.0000    0.0000 C   0  0  0  0  0  0  0  0  0  0  0  0
    1.1241   -0.5096    0.0000 O   0  0  0  0  0  0  0  0  0  0  0  0
   -0.1814    1.5126   -0.0029 C   0  0  0  0  0  0  0  0  0  0  0  0
   -0.7324    1.7443    0.8105 H   0  0  0  0  0  0  0  0  0  0  0  0
    0.7705    2.0350    0.0923 H   0  0  0  0  0  0  0  0  0  0  0  0
   -0.6880    1.8186   -0.9182 H   0  0  0  0  0  0  0  0  0  0  0  0
  1  5  1  0
  5  6  1  0
  5  9  2  0
  1  2  1  0
  1  3  1  0
  1  4  1  0
  6  7  1  0
  6  8  1  0
 10 14  1  0
 14 16  1  0
 16 17  2  0
 16 18  1  0
 10 11  1  0
 10 12  1  0
 10 13  1  0
 14 15  1  0
 18 19  1  0
 18 20  1  0
 18 21  1  0
M  END
>  <PDB_ID>  (417) 
pdb1ze3

>  <RESIDUE_NAME>  (417) 
ASN   ASN

>  <FRAG_NAME>  (417) 
ACEM   NMA

>  <FRAG_ATOM_NUM>  (417) 
fragi: 9  fragj: 12

>  <atom.prop.CHAIN_ID>  (417) 
A A A A A A A A A Z Z Z Z Z Z Z Z Z Z Z Z

>  <atom.prop.IS_HEAVY_ATOM>  (417) 
1 0 0 0 1 1 0 0 1 1 0 0 0 1 0 1 1 1 0 0 0

>  <DIFUSE_FUNC_ATOM>  (417) 
n/a

>  <FINAL_SINGLE_POINT_ENERGY>  (417) 
0

>  <NONCOV_INTER_ENERGY_QM>  (417) 
0

>  <FF_Energy>  (417) 
24.17

>  <QM_Energy>  (417) 
47.21

>  <source>  (417) 
ACEM_nNMA_26

>  <Index>  (417) 
17391

$$$$
ACEM-pdb1zlj-B-GLN-199:NMA-pdb1zlj-B-GLU-195
     RDKit          3D

 21 19  0  0  0  0  0  0  0  0999 V2000
   -5.3306   -0.7631    1.2831 C   0  0  0  0  0  0  0  0  0  0  0  0
   -6.1847   -0.6417    1.7953 H   0  0  0  0  0  0  0  0  0  0  0  0
   -4.8524   -1.5715    1.6349 H   0  0  0  0  0  0  0  0  0  0  0  0
   -5.5784   -0.9378    0.2360 H   0  0  0  0  0  0  0  0  0  0  0  0
   -4.4595    0.4488    1.4968 C   0  0  0  0  0  0  0  0  0  0  0  0
   -3.3416    0.4898    0.7932 N   0  0  0  0  0  0  0  0  0  0  0  0
   -2.7006    1.2863    0.8693 H   0  0  0  0  0  0  0  0  0  0  0  0
   -3.1182   -0.2829    0.1679 H   0  0  0  0  0  0  0  0  0  0  0  0
   -4.8107    1.3623    2.2422 O   0  0  0  0  0  0  0  0  0  0  0  0
   -0.9867   -2.1562    0.1561 C   0  0  0  0  0  0  0  0  0  0  0  0
    0.0009   -2.4149   -0.0070 H   0  0  0  0  0  0  0  0  0  0  0  0
   -1.6147   -2.7717   -0.4879 H   0  0  0  0  0  0  0  0  0  0  0  0
   -1.1394   -2.4244    1.2016 H   0  0  0  0  0  0  0  0  0  0  0  0
   -1.1072   -0.7172    0.0000 N   0  0  0  0  0  0  0  0  0  0  0  0
   -1.9816   -0.2131   -0.1103 H   0  0  0  0  0  0  0  0  0  0  0  0
    0.0000    0.0000    0.0000 C   0  0  0  0  0  0  0  0  0  0  0  0
    1.1072   -0.5168   -0.0000 O   0  0  0  0  0  0  0  0  0  0  0  0
   -0.1314    1.4905    0.0167 C   0  0  0  0  0  0  0  0  0  0  0  0
    0.6355    1.9104   -0.5184 H   0  0  0  0  0  0  0  0  0  0  0  0
   -1.0801    1.8577   -0.3745 H   0  0  0  0  0  0  0  0  0  0  0  0
    0.0167    1.8440    1.0371 H   0  0  0  0  0  0  0  0  0  0  0  0
  1  5  1  0
  5  6  1  0
  5  9  2  0
  1  2  1  0
  1  3  1  0
  1  4  1  0
  6  7  1  0
  6  8  1  0
 10 14  1  0
 14 16  1  0
 16 17  2  0
 16 18  1  0
 10 11  1  0
 10 12  1  0
 10 13  1  0
 14 15  1  0
 18 19  1  0
 18 20  1  0
 18 21  1  0
M  END
>  <PDB_ID>  (418) 
pdb1zlj

>  <RESIDUE_NAME>  (418) 
GLN   GLU

>  <FRAG_NAME>  (418) 
ACEM   NMA

>  <FRAG_ATOM_NUM>  (418) 
fragi: 9  fragj: 12

>  <atom.prop.CHAIN_ID>  (418) 
A A A A A A A A A Z Z Z Z Z Z Z Z Z Z Z Z

>  <atom.prop.IS_HEAVY_ATOM>  (418) 
1 0 0 0 1 1 0 0 1 1 0 0 0 1 0 1 1 1 0 0 0

>  <DIFUSE_FUNC_ATOM>  (418) 
n/a

>  <FINAL_SINGLE_POINT_ENERGY>  (418) 
0

>  <NONCOV_INTER_ENERGY_QM>  (418) 
0

>  <FF_Energy>  (418) 
12.17

>  <QM_Energy>  (418) 
22.46

>  <source>  (418) 
ACEM_nNMA_26

>  <Index>  (418) 
20823

$$$$
ACEM-pdb1zoy-A-ASN-278:NMA-pdb1zoy-A-GLY-281
     RDKit          3D

 21 19  0  0  0  0  0  0  0  0999 V2000
   -3.9964    0.2272   -3.6409 C   0  0  0  0  0  0  0  0  0  0  0  0
   -4.7366    0.8296   -3.3582 H   0  0  0  0  0  0  0  0  0  0  0  0
   -4.3121   -0.3962   -4.3501 H   0  0  0  0  0  0  0  0  0  0  0  0
   -3.1972    0.8405   -4.0571 H   0  0  0  0  0  0  0  0  0  0  0  0
   -3.5467   -0.5860   -2.4423 C   0  0  0  0  0  0  0  0  0  0  0  0
   -2.8026    0.0451   -1.5396 N   0  0  0  0  0  0  0  0  0  0  0  0
   -2.5746    1.0126   -1.6726 H   0  0  0  0  0  0  0  0  0  0  0  0
   -2.4728   -0.4392   -0.7320 H   0  0  0  0  0  0  0  0  0  0  0  0
   -3.8556   -1.7661   -2.3329 O   0  0  0  0  0  0  0  0  0  0  0  0
   -1.0895   -2.1776    0.0106 C   0  0  0  0  0  0  0  0  0  0  0  0
   -0.4659   -2.4969    0.7498 H   0  0  0  0  0  0  0  0  0  0  0  0
   -0.7747   -2.6163   -0.9362 H   0  0  0  0  0  0  0  0  0  0  0  0
   -2.0733   -2.5773    0.2566 H   0  0  0  0  0  0  0  0  0  0  0  0
   -1.1190   -0.7180    0.0000 N   0  0  0  0  0  0  0  0  0  0  0  0
   -1.9954   -0.1626   -0.0080 H   0  0  0  0  0  0  0  0  0  0  0  0
    0.0000    0.0000    0.0000 C   0  0  0  0  0  0  0  0  0  0  0  0
    1.1190   -0.5088    0.0000 O   0  0  0  0  0  0  0  0  0  0  0  0
   -0.1578    1.5107   -0.0021 C   0  0  0  0  0  0  0  0  0  0  0  0
    0.3362    1.8952   -0.8173 H   0  0  0  0  0  0  0  0  0  0  0  0
    0.3316    1.8967    0.8145 H   0  0  0  0  0  0  0  0  0  0  0  0
   -1.1849    1.8755   -0.0051 H   0  0  0  0  0  0  0  0  0  0  0  0
  1  5  1  0
  5  6  1  0
  5  9  2  0
  1  2  1  0
  1  3  1  0
  1  4  1  0
  6  7  1  0
  6  8  1  0
 10 14  1  0
 14 16  1  0
 16 17  2  0
 16 18  1  0
 10 11  1  0
 10 12  1  0
 10 13  1  0
 14 15  1  0
 18 19  1  0
 18 20  1  0
 18 21  1  0
M  END
>  <PDB_ID>  (419) 
pdb1zoy

>  <RESIDUE_NAME>  (419) 
ASN   GLY

>  <FRAG_NAME>  (419) 
ACEM   NMA

>  <FRAG_ATOM_NUM>  (419) 
fragi: 9  fragj: 12

>  <atom.prop.CHAIN_ID>  (419) 
A A A A A A A A A Z Z Z Z Z Z Z Z Z Z Z Z

>  <atom.prop.IS_HEAVY_ATOM>  (419) 
1 0 0 0 1 1 0 0 1 1 0 0 0 1 0 1 1 1 0 0 0

>  <DIFUSE_FUNC_ATOM>  (419) 
n/a

>  <FINAL_SINGLE_POINT_ENERGY>  (419) 
0

>  <NONCOV_INTER_ENERGY_QM>  (419) 
0

>  <FF_Energy>  (419) 
40.73

>  <QM_Energy>  (419) 
53.21

>  <source>  (419) 
ACEM_nNMA_26

>  <Index>  (419) 
23542

$$$$
ACEM-pdb1zpd-A-GLN-124:NMA-pdb1zpd-A-TYR-73
     RDKit          3D

 21 19  0  0  0  0  0  0  0  0999 V2000
   -5.9513   -0.0594   -0.8849 C   0  0  0  0  0  0  0  0  0  0  0  0
   -6.6564    0.5950   -0.6219 H   0  0  0  0  0  0  0  0  0  0  0  0
   -6.1248   -0.9403   -0.4510 H   0  0  0  0  0  0  0  0  0  0  0  0
   -5.9995   -0.1962   -1.9652 H   0  0  0  0  0  0  0  0  0  0  0  0
   -4.6064    0.4576   -0.4337 C   0  0  0  0  0  0  0  0  0  0  0  0
   -3.5611   -0.3733   -0.5052 N   0  0  0  0  0  0  0  0  0  0  0  0
   -2.6394   -0.0850   -0.2332 H   0  0  0  0  0  0  0  0  0  0  0  0
   -3.7269   -1.3243   -0.8470 H   0  0  0  0  0  0  0  0  0  0  0  0
   -4.4854    1.6229   -0.0213 O   0  0  0  0  0  0  0  0  0  0  0  0
   -1.1861   -2.1284   -0.2829 C   0  0  0  0  0  0  0  0  0  0  0  0
   -2.1782   -2.3749   -0.3943 H   0  0  0  0  0  0  0  0  0  0  0  0
   -0.7669   -2.7913    0.4740 H   0  0  0  0  0  0  0  0  0  0  0  0
   -0.7721   -2.3304   -1.2708 H   0  0  0  0  0  0  0  0  0  0  0  0
   -1.1140   -0.7035    0.0000 N   0  0  0  0  0  0  0  0  0  0  0  0
   -1.9770   -0.1327    0.2285 H   0  0  0  0  0  0  0  0  0  0  0  0
    0.0000    0.0000    0.0000 C   0  0  0  0  0  0  0  0  0  0  0  0
    1.1140   -0.5349    0.0000 O   0  0  0  0  0  0  0  0  0  0  0  0
   -0.0768    1.5258    0.0549 C   0  0  0  0  0  0  0  0  0  0  0  0
   -1.0315    1.7811    0.2921 H   0  0  0  0  0  0  0  0  0  0  0  0
    0.5884    1.9645    0.7986 H   0  0  0  0  0  0  0  0  0  0  0  0
    0.1735    1.9216   -0.9294 H   0  0  0  0  0  0  0  0  0  0  0  0
  1  5  1  0
  5  6  1  0
  5  9  2  0
  1  2  1  0
  1  3  1  0
  1  4  1  0
  6  7  1  0
  6  8  1  0
 10 14  1  0
 14 16  1  0
 16 17  2  0
 16 18  1  0
 10 11  1  0
 10 12  1  0
 10 13  1  0
 14 15  1  0
 18 19  1  0
 18 20  1  0
 18 21  1  0
M  END
>  <PDB_ID>  (420) 
pdb1zpd

>  <RESIDUE_NAME>  (420) 
GLN   TYR

>  <FRAG_NAME>  (420) 
ACEM   NMA

>  <FRAG_ATOM_NUM>  (420) 
fragi: 9  fragj: 12

>  <atom.prop.CHAIN_ID>  (420) 
A A A A A A A A A Z Z Z Z Z Z Z Z Z Z Z Z

>  <atom.prop.IS_HEAVY_ATOM>  (420) 
1 0 0 0 1 1 0 0 1 1 0 0 0 1 0 1 1 1 0 0 0

>  <DIFUSE_FUNC_ATOM>  (420) 
n/a

>  <FINAL_SINGLE_POINT_ENERGY>  (420) 
0

>  <NONCOV_INTER_ENERGY_QM>  (420) 
0

>  <FF_Energy>  (420) 
28.44

>  <QM_Energy>  (420) 
56.72

>  <source>  (420) 
ACEM_nNMA_26

>  <Index>  (420) 
23568

$$$$
ACEM-pdb3dfh-A-GLN-43:NMA-pdb3dfh-A-HID-21
     RDKit          3D

 21 19  0  0  0  0  0  0  0  0999 V2000
   -5.5157    1.6918   -0.9988 C   0  0  0  0  0  0  0  0  0  0  0  0
   -5.3557    2.6529   -1.2161 H   0  0  0  0  0  0  0  0  0  0  0  0
   -6.2610    1.6136   -0.3392 H   0  0  0  0  0  0  0  0  0  0  0  0
   -5.8051    1.1731   -1.9128 H   0  0  0  0  0  0  0  0  0  0  0  0
   -4.2346    1.1253   -0.3497 C   0  0  0  0  0  0  0  0  0  0  0  0
   -3.4423    0.3719   -1.1336 N   0  0  0  0  0  0  0  0  0  0  0  0
   -2.5910   -0.0122   -0.7739 H   0  0  0  0  0  0  0  0  0  0  0  0
   -3.7348    0.2072   -2.0926 H   0  0  0  0  0  0  0  0  0  0  0  0
   -3.9657    1.3658    0.8363 O   0  0  0  0  0  0  0  0  0  0  0  0
   -1.0817   -2.1656   -0.1149 C   0  0  0  0  0  0  0  0  0  0  0  0
   -0.3303   -2.4879    0.4685 H   0  0  0  0  0  0  0  0  0  0  0  0
   -0.8462   -2.4548   -1.1392 H   0  0  0  0  0  0  0  0  0  0  0  0
   -2.0557   -2.5732    0.1559 H   0  0  0  0  0  0  0  0  0  0  0  0
   -1.1169   -0.7089    0.0000 N   0  0  0  0  0  0  0  0  0  0  0  0
   -1.9908   -0.1629    0.0855 H   0  0  0  0  0  0  0  0  0  0  0  0
    0.0000    0.0000    0.0000 C   0  0  0  0  0  0  0  0  0  0  0  0
    1.1169   -0.5251   -0.0000 O   0  0  0  0  0  0  0  0  0  0  0  0
   -0.1920    1.5124    0.0698 C   0  0  0  0  0  0  0  0  0  0  0  0
   -1.0374    1.6990    0.6062 H   0  0  0  0  0  0  0  0  0  0  0  0
    0.6339    2.0420    0.5448 H   0  0  0  0  0  0  0  0  0  0  0  0
   -0.3584    1.9216   -0.9267 H   0  0  0  0  0  0  0  0  0  0  0  0
  1  5  1  0
  5  6  1  0
  5  9  2  0
  1  2  1  0
  1  3  1  0
  1  4  1  0
  6  7  1  0
  6  8  1  0
 10 14  1  0
 14 16  1  0
 16 17  2  0
 16 18  1  0
 10 11  1  0
 10 12  1  0
 10 13  1  0
 14 15  1  0
 18 19  1  0
 18 20  1  0
 18 21  1  0
M  END
>  <PDB_ID>  (421) 
pdb3dfh

>  <RESIDUE_NAME>  (421) 
GLN   HID

>  <FRAG_NAME>  (421) 
ACEM   NMA

>  <FRAG_ATOM_NUM>  (421) 
fragi: 9  fragj: 12

>  <atom.prop.CHAIN_ID>  (421) 
A A A A A A A A A Z Z Z Z Z Z Z Z Z Z Z Z

>  <atom.prop.IS_HEAVY_ATOM>  (421) 
1 0 0 0 1 1 0 0 1 1 0 0 0 1 0 1 1 1 0 0 0

>  <DIFUSE_FUNC_ATOM>  (421) 
n/a

>  <FINAL_SINGLE_POINT_ENERGY>  (421) 
0

>  <NONCOV_INTER_ENERGY_QM>  (421) 
0

>  <FF_Energy>  (421) 
4.29

>  <QM_Energy>  (421) 
18.84

>  <source>  (421) 
ACEM_nNMA_26

>  <Index>  (421) 
24188

$$$$
ACEM-pdb3dhx-B-GLN-31:NMA-pdb3dhx-B-PHE-28
     RDKit          3D

 21 19  0  0  0  0  0  0  0  0999 V2000
   -5.1557    1.7675   -2.0842 C   0  0  0  0  0  0  0  0  0  0  0  0
   -5.2758    2.7607   -1.9539 H   0  0  0  0  0  0  0  0  0  0  0  0
   -6.0640    1.3322   -2.0204 H   0  0  0  0  0  0  0  0  0  0  0  0
   -4.7797    1.6073   -3.0946 H   0  0  0  0  0  0  0  0  0  0  0  0
   -4.2783    1.2321   -0.9689 C   0  0  0  0  0  0  0  0  0  0  0  0
   -3.0244    0.9310   -1.3385 N   0  0  0  0  0  0  0  0  0  0  0  0
   -2.3620    0.5762   -0.6418 H   0  0  0  0  0  0  0  0  0  0  0  0
   -2.7512    1.0582   -2.3003 H   0  0  0  0  0  0  0  0  0  0  0  0
   -4.6722    1.1381    0.2283 O   0  0  0  0  0  0  0  0  0  0  0  0
   -1.1109   -2.1498    0.1209 C   0  0  0  0  0  0  0  0  0  0  0  0
   -0.1760   -2.4862   -0.0615 H   0  0  0  0  0  0  0  0  0  0  0  0
   -1.7791   -2.6293   -0.5944 H   0  0  0  0  0  0  0  0  0  0  0  0
   -1.3499   -2.4546    1.1398 H   0  0  0  0  0  0  0  0  0  0  0  0
   -1.1191   -0.6964    0.0000 N   0  0  0  0  0  0  0  0  0  0  0  0
   -1.9894   -0.1373   -0.0911 H   0  0  0  0  0  0  0  0  0  0  0  0
    0.0000    0.0000    0.0000 C   0  0  0  0  0  0  0  0  0  0  0  0
    1.1191   -0.4947   -0.0000 O   0  0  0  0  0  0  0  0  0  0  0  0
   -0.1719    1.5052   -0.0199 C   0  0  0  0  0  0  0  0  0  0  0  0
   -1.1180    1.6919    0.2353 H   0  0  0  0  0  0  0  0  0  0  0  0
    0.4638    1.9243    0.7601 H   0  0  0  0  0  0  0  0  0  0  0  0
    0.0584    1.9202   -1.0011 H   0  0  0  0  0  0  0  0  0  0  0  0
  1  5  1  0
  5  6  1  0
  5  9  2  0
  1  2  1  0
  1  3  1  0
  1  4  1  0
  6  7  1  0
  6  8  1  0
 10 14  1  0
 14 16  1  0
 16 17  2  0
 16 18  1  0
 10 11  1  0
 10 12  1  0
 10 13  1  0
 14 15  1  0
 18 19  1  0
 18 20  1  0
 18 21  1  0
M  END
>  <PDB_ID>  (422) 
pdb3dhx

>  <RESIDUE_NAME>  (422) 
GLN   PHE

>  <FRAG_NAME>  (422) 
ACEM   NMA

>  <FRAG_ATOM_NUM>  (422) 
fragi: 9  fragj: 12

>  <atom.prop.CHAIN_ID>  (422) 
A A A A A A A A A Z Z Z Z Z Z Z Z Z Z Z Z

>  <atom.prop.IS_HEAVY_ATOM>  (422) 
1 0 0 0 1 1 0 0 1 1 0 0 0 1 0 1 1 1 0 0 0

>  <DIFUSE_FUNC_ATOM>  (422) 
n/a

>  <FINAL_SINGLE_POINT_ENERGY>  (422) 
0

>  <NONCOV_INTER_ENERGY_QM>  (422) 
0

>  <FF_Energy>  (422) 
11.62

>  <QM_Energy>  (422) 
28.3

>  <source>  (422) 
ACEM_nNMA_26

>  <Index>  (422) 
26046

$$$$
ACEM-pdb1zpd-B-GLN-124:NMA-pdb1zpd-B-TYR-73
     RDKit          3D

 21 19  0  0  0  0  0  0  0  0999 V2000
   -6.0353   -0.1350   -0.7115 C   0  0  0  0  0  0  0  0  0  0  0  0
   -6.7306    0.5424   -0.4744 H   0  0  0  0  0  0  0  0  0  0  0  0
   -6.2090   -0.9818   -0.2101 H   0  0  0  0  0  0  0  0  0  0  0  0
   -6.1034   -0.3439   -1.7791 H   0  0  0  0  0  0  0  0  0  0  0  0
   -4.6762    0.4017   -0.3034 C   0  0  0  0  0  0  0  0  0  0  0  0
   -3.6190   -0.4141   -0.3555 N   0  0  0  0  0  0  0  0  0  0  0  0
   -2.7033   -0.1102   -0.1118 H   0  0  0  0  0  0  0  0  0  0  0  0
   -3.7803   -1.3839   -0.6579 H   0  0  0  0  0  0  0  0  0  0  0  0
   -4.5650    1.5913    0.0553 O   0  0  0  0  0  0  0  0  0  0  0  0
   -1.2015   -2.1591   -0.2132 C   0  0  0  0  0  0  0  0  0  0  0  0
   -2.1981   -2.4019   -0.2616 H   0  0  0  0  0  0  0  0  0  0  0  0
   -0.7392   -2.7776    0.5561 H   0  0  0  0  0  0  0  0  0  0  0  0
   -0.8208   -2.3860   -1.2090 H   0  0  0  0  0  0  0  0  0  0  0  0
   -1.1185   -0.7108   -0.0000 N   0  0  0  0  0  0  0  0  0  0  0  0
   -1.9883   -0.1245    0.1738 H   0  0  0  0  0  0  0  0  0  0  0  0
    0.0000    0.0000    0.0000 C   0  0  0  0  0  0  0  0  0  0  0  0
    1.1185   -0.5386    0.0000 O   0  0  0  0  0  0  0  0  0  0  0  0
   -0.1161    1.5115   -0.0002 C   0  0  0  0  0  0  0  0  0  0  0  0
   -1.0780    1.7595    0.2483 H   0  0  0  0  0  0  0  0  0  0  0  0
    0.5434    2.0319    0.6944 H   0  0  0  0  0  0  0  0  0  0  0  0
    0.1045    1.8743   -1.0041 H   0  0  0  0  0  0  0  0  0  0  0  0
  1  5  1  0
  5  6  1  0
  5  9  2  0
  1  2  1  0
  1  3  1  0
  1  4  1  0
  6  7  1  0
  6  8  1  0
 10 14  1  0
 14 16  1  0
 16 17  2  0
 16 18  1  0
 10 11  1  0
 10 12  1  0
 10 13  1  0
 14 15  1  0
 18 19  1  0
 18 20  1  0
 18 21  1  0
M  END
>  <PDB_ID>  (423) 
pdb1zpd

>  <RESIDUE_NAME>  (423) 
GLN   TYR

>  <FRAG_NAME>  (423) 
ACEM   NMA

>  <FRAG_ATOM_NUM>  (423) 
fragi: 9  fragj: 12

>  <atom.prop.CHAIN_ID>  (423) 
A A A A A A A A A Z Z Z Z Z Z Z Z Z Z Z Z

>  <atom.prop.IS_HEAVY_ATOM>  (423) 
1 0 0 0 1 1 0 0 1 1 0 0 0 1 0 1 1 1 0 0 0

>  <DIFUSE_FUNC_ATOM>  (423) 
n/a

>  <FINAL_SINGLE_POINT_ENERGY>  (423) 
0

>  <NONCOV_INTER_ENERGY_QM>  (423) 
0

>  <FF_Energy>  (423) 
28.33

>  <QM_Energy>  (423) 
62.58

>  <source>  (423) 
ACEM_nNMA_26

>  <Index>  (423) 
26176

$$$$
ACEM-pdb1zvw-A-GLN-288:NMA-pdb1zvw-A-ALA-284
     RDKit          3D

 21 19  0  0  0  0  0  0  0  0999 V2000
   -5.1967   -0.3993    0.5160 C   0  0  0  0  0  0  0  0  0  0  0  0
   -6.0376   -0.6289    1.0072 H   0  0  0  0  0  0  0  0  0  0  0  0
   -4.6472   -1.2270    0.3944 H   0  0  0  0  0  0  0  0  0  0  0  0
   -5.4648   -0.0147   -0.4681 H   0  0  0  0  0  0  0  0  0  0  0  0
   -4.4022    0.5926    1.3526 C   0  0  0  0  0  0  0  0  0  0  0  0
   -3.0966    0.5988    1.1256 N   0  0  0  0  0  0  0  0  0  0  0  0
   -2.4872    1.2487    1.6374 H   0  0  0  0  0  0  0  0  0  0  0  0
   -2.7047   -0.0411    0.4448 H   0  0  0  0  0  0  0  0  0  0  0  0
   -4.9442    1.3526    2.1764 O   0  0  0  0  0  0  0  0  0  0  0  0
   -1.1910   -2.1734   -0.1121 C   0  0  0  0  0  0  0  0  0  0  0  0
   -0.2657   -2.5089   -0.1694 H   0  0  0  0  0  0  0  0  0  0  0  0
   -1.6947   -2.3556   -1.0615 H   0  0  0  0  0  0  0  0  0  0  0  0
   -1.9061   -2.5730    0.6070 H   0  0  0  0  0  0  0  0  0  0  0  0
   -1.1240   -0.7081   -0.0000 N   0  0  0  0  0  0  0  0  0  0  0  0
   -1.9965   -0.1168    0.0897 H   0  0  0  0  0  0  0  0  0  0  0  0
    0.0000    0.0000    0.0000 C   0  0  0  0  0  0  0  0  0  0  0  0
    1.1240   -0.5174   -0.0000 O   0  0  0  0  0  0  0  0  0  0  0  0
   -0.1656    1.5289   -0.0003 C   0  0  0  0  0  0  0  0  0  0  0  0
   -0.6328    1.7904    0.8349 H   0  0  0  0  0  0  0  0  0  0  0  0
    0.8356    1.9595   -0.0115 H   0  0  0  0  0  0  0  0  0  0  0  0
   -0.7236    1.8704   -0.8721 H   0  0  0  0  0  0  0  0  0  0  0  0
  1  5  1  0
  5  6  1  0
  5  9  2  0
  1  2  1  0
  1  3  1  0
  1  4  1  0
  6  7  1  0
  6  8  1  0
 10 14  1  0
 14 16  1  0
 16 17  2  0
 16 18  1  0
 10 11  1  0
 10 12  1  0
 10 13  1  0
 14 15  1  0
 18 19  1  0
 18 20  1  0
 18 21  1  0
M  END
>  <PDB_ID>  (424) 
pdb1zvw

>  <RESIDUE_NAME>  (424) 
GLN   ALA

>  <FRAG_NAME>  (424) 
ACEM   NMA

>  <FRAG_ATOM_NUM>  (424) 
fragi: 9  fragj: 12

>  <atom.prop.CHAIN_ID>  (424) 
A A A A A A A A A Z Z Z Z Z Z Z Z Z Z Z Z

>  <atom.prop.IS_HEAVY_ATOM>  (424) 
1 0 0 0 1 1 0 0 1 1 0 0 0 1 0 1 1 1 0 0 0

>  <DIFUSE_FUNC_ATOM>  (424) 
n/a

>  <FINAL_SINGLE_POINT_ENERGY>  (424) 
0

>  <NONCOV_INTER_ENERGY_QM>  (424) 
0

>  <FF_Energy>  (424) 
22.6

>  <QM_Energy>  (424) 
56.41

>  <source>  (424) 
ACEM_nNMA_27

>  <Index>  (424) 
10

$$$$
ACEM-pdb1zx3-A-GLN-82:NMA-pdb1zx3-A-PRO-14
     RDKit          3D

 21 19  0  0  0  0  0  0  0  0999 V2000
   -5.5666    0.9576   -1.6103 C   0  0  0  0  0  0  0  0  0  0  0  0
   -6.4796    0.9108   -1.1937 H   0  0  0  0  0  0  0  0  0  0  0  0
   -5.4712    0.1988   -2.2623 H   0  0  0  0  0  0  0  0  0  0  0  0
   -5.4590    1.9042   -2.1399 H   0  0  0  0  0  0  0  0  0  0  0  0
   -4.5340    0.7513   -0.4972 C   0  0  0  0  0  0  0  0  0  0  0  0
   -3.2669    0.5292   -0.8951 N   0  0  0  0  0  0  0  0  0  0  0  0
   -2.5364    0.3996   -0.2145 H   0  0  0  0  0  0  0  0  0  0  0  0
   -3.0741    0.4961   -1.8905 H   0  0  0  0  0  0  0  0  0  0  0  0
   -4.8670    0.7994    0.7027 O   0  0  0  0  0  0  0  0  0  0  0  0
   -1.1039   -2.1767   -0.1331 C   0  0  0  0  0  0  0  0  0  0  0  0
   -0.6176   -2.5370    0.6818 H   0  0  0  0  0  0  0  0  0  0  0  0
   -0.5628   -2.5211   -1.0144 H   0  0  0  0  0  0  0  0  0  0  0  0
   -2.1119   -2.5821   -0.2208 H   0  0  0  0  0  0  0  0  0  0  0  0
   -1.1211   -0.7138   -0.0000 N   0  0  0  0  0  0  0  0  0  0  0  0
   -1.9935   -0.1632    0.1001 H   0  0  0  0  0  0  0  0  0  0  0  0
    0.0000    0.0000    0.0000 C   0  0  0  0  0  0  0  0  0  0  0  0
    1.1211   -0.5179    0.0000 O   0  0  0  0  0  0  0  0  0  0  0  0
   -0.1288    1.5408    0.0014 C   0  0  0  0  0  0  0  0  0  0  0  0
   -0.9738    1.8156    0.4571 H   0  0  0  0  0  0  0  0  0  0  0  0
    0.7468    1.9780    0.4814 H   0  0  0  0  0  0  0  0  0  0  0  0
   -0.0753    1.9401   -1.0114 H   0  0  0  0  0  0  0  0  0  0  0  0
  1  5  1  0
  5  6  1  0
  5  9  2  0
  1  2  1  0
  1  3  1  0
  1  4  1  0
  6  7  1  0
  6  8  1  0
 10 14  1  0
 14 16  1  0
 16 17  2  0
 16 18  1  0
 10 11  1  0
 10 12  1  0
 10 13  1  0
 14 15  1  0
 18 19  1  0
 18 20  1  0
 18 21  1  0
M  END
>  <PDB_ID>  (425) 
pdb1zx3

>  <RESIDUE_NAME>  (425) 
GLN   PRO

>  <FRAG_NAME>  (425) 
ACEM   NMA

>  <FRAG_ATOM_NUM>  (425) 
fragi: 9  fragj: 12

>  <atom.prop.CHAIN_ID>  (425) 
A A A A A A A A A Z Z Z Z Z Z Z Z Z Z Z Z

>  <atom.prop.IS_HEAVY_ATOM>  (425) 
1 0 0 0 1 1 0 0 1 1 0 0 0 1 0 1 1 1 0 0 0

>  <DIFUSE_FUNC_ATOM>  (425) 
n/a

>  <FINAL_SINGLE_POINT_ENERGY>  (425) 
0

>  <NONCOV_INTER_ENERGY_QM>  (425) 
0

>  <FF_Energy>  (425) 
19.96

>  <QM_Energy>  (425) 
46.94

>  <source>  (425) 
ACEM_nNMA_27

>  <Index>  (425) 
512

$$$$
ACEM-pdb1zpd-E-GLN-124:NMA-pdb1zpd-E-TYR-73
     RDKit          3D

 21 19  0  0  0  0  0  0  0  0999 V2000
   -5.9854   -0.3297   -0.6678 C   0  0  0  0  0  0  0  0  0  0  0  0
   -6.6861    0.3003   -0.3451 H   0  0  0  0  0  0  0  0  0  0  0  0
   -6.0920   -1.2162   -0.2259 H   0  0  0  0  0  0  0  0  0  0  0  0
   -6.1074   -0.4620   -1.7428 H   0  0  0  0  0  0  0  0  0  0  0  0
   -4.6193    0.2351   -0.3083 C   0  0  0  0  0  0  0  0  0  0  0  0
   -3.5411   -0.5490   -0.4794 N   0  0  0  0  0  0  0  0  0  0  0  0
   -2.6231   -0.2256   -0.2737 H   0  0  0  0  0  0  0  0  0  0  0  0
   -3.6980   -1.4994   -0.8305 H   0  0  0  0  0  0  0  0  0  0  0  0
   -4.5163    1.3901    0.1285 O   0  0  0  0  0  0  0  0  0  0  0  0
   -1.2048   -2.1704   -0.1510 C   0  0  0  0  0  0  0  0  0  0  0  0
   -2.2111   -2.4128   -0.1871 H   0  0  0  0  0  0  0  0  0  0  0  0
   -0.7423   -2.7929    0.6149 H   0  0  0  0  0  0  0  0  0  0  0  0
   -0.8208   -2.4157   -1.1412 H   0  0  0  0  0  0  0  0  0  0  0  0
   -1.1164   -0.7178   -0.0000 N   0  0  0  0  0  0  0  0  0  0  0  0
   -1.9926   -0.1194    0.1262 H   0  0  0  0  0  0  0  0  0  0  0  0
    0.0000    0.0000    0.0000 C   0  0  0  0  0  0  0  0  0  0  0  0
    1.1164   -0.5364    0.0000 O   0  0  0  0  0  0  0  0  0  0  0  0
   -0.1479    1.5232    0.0298 C   0  0  0  0  0  0  0  0  0  0  0  0
   -1.1043    1.7400    0.3150 H   0  0  0  0  0  0  0  0  0  0  0  0
    0.5271    2.0360    0.7151 H   0  0  0  0  0  0  0  0  0  0  0  0
    0.0473    1.8932   -0.9768 H   0  0  0  0  0  0  0  0  0  0  0  0
  1  5  1  0
  5  6  1  0
  5  9  2  0
  1  2  1  0
  1  3  1  0
  1  4  1  0
  6  7  1  0
  6  8  1  0
 10 14  1  0
 14 16  1  0
 16 17  2  0
 16 18  1  0
 10 11  1  0
 10 12  1  0
 10 13  1  0
 14 15  1  0
 18 19  1  0
 18 20  1  0
 18 21  1  0
M  END
>  <PDB_ID>  (426) 
pdb1zpd

>  <RESIDUE_NAME>  (426) 
GLN   TYR

>  <FRAG_NAME>  (426) 
ACEM   NMA

>  <FRAG_ATOM_NUM>  (426) 
fragi: 9  fragj: 12

>  <atom.prop.CHAIN_ID>  (426) 
A A A A A A A A A Z Z Z Z Z Z Z Z Z Z Z Z

>  <atom.prop.IS_HEAVY_ATOM>  (426) 
1 0 0 0 1 1 0 0 1 1 0 0 0 1 0 1 1 1 0 0 0

>  <DIFUSE_FUNC_ATOM>  (426) 
n/a

>  <FINAL_SINGLE_POINT_ENERGY>  (426) 
0

>  <NONCOV_INTER_ENERGY_QM>  (426) 
0

>  <FF_Energy>  (426) 
37.2

>  <QM_Energy>  (426) 
69.43

>  <source>  (426) 
ACEM_nNMA_27

>  <Index>  (426) 
1046

$$$$
ACEM-pdb3dme-A-GLN-267:NMA-pdb3dme-A-GLY-239
     RDKit          3D

 21 19  0  0  0  0  0  0  0  0999 V2000
   -6.1686   -0.9779    0.6553 C   0  0  0  0  0  0  0  0  0  0  0  0
   -6.4173   -1.7094    0.0151 H   0  0  0  0  0  0  0  0  0  0  0  0
   -6.9155   -0.3103    0.6956 H   0  0  0  0  0  0  0  0  0  0  0  0
   -6.0441   -1.4152    1.6459 H   0  0  0  0  0  0  0  0  0  0  0  0
   -4.9199   -0.2766    0.1258 C   0  0  0  0  0  0  0  0  0  0  0  0
   -3.7931   -0.9857    0.1642 N   0  0  0  0  0  0  0  0  0  0  0  0
   -2.9232   -0.5905   -0.1839 H   0  0  0  0  0  0  0  0  0  0  0  0
   -3.8170   -1.9264    0.5470 H   0  0  0  0  0  0  0  0  0  0  0  0
   -4.9559    0.8856   -0.2860 O   0  0  0  0  0  0  0  0  0  0  0  0
   -1.0583   -2.1558   -0.2919 C   0  0  0  0  0  0  0  0  0  0  0  0
   -1.9949   -2.5319   -0.2466 H   0  0  0  0  0  0  0  0  0  0  0  0
   -0.4345   -2.6968    0.4197 H   0  0  0  0  0  0  0  0  0  0  0  0
   -0.7025   -2.3319   -1.3070 H   0  0  0  0  0  0  0  0  0  0  0  0
   -1.1166   -0.7178    0.0000 N   0  0  0  0  0  0  0  0  0  0  0  0
   -1.9793   -0.2098    0.2105 H   0  0  0  0  0  0  0  0  0  0  0  0
    0.0000    0.0000    0.0000 C   0  0  0  0  0  0  0  0  0  0  0  0
    1.1166   -0.5197    0.0000 O   0  0  0  0  0  0  0  0  0  0  0  0
   -0.1509    1.5098   -0.0130 C   0  0  0  0  0  0  0  0  0  0  0  0
   -0.3867    1.8129   -0.9704 H   0  0  0  0  0  0  0  0  0  0  0  0
    0.7679    1.9379    0.1758 H   0  0  0  0  0  0  0  0  0  0  0  0
   -0.8819    1.9301    0.6778 H   0  0  0  0  0  0  0  0  0  0  0  0
  1  5  1  0
  5  6  1  0
  5  9  2  0
  1  2  1  0
  1  3  1  0
  1  4  1  0
  6  7  1  0
  6  8  1  0
 10 14  1  0
 14 16  1  0
 16 17  2  0
 16 18  1  0
 10 11  1  0
 10 12  1  0
 10 13  1  0
 14 15  1  0
 18 19  1  0
 18 20  1  0
 18 21  1  0
M  END
>  <PDB_ID>  (427) 
pdb3dme

>  <RESIDUE_NAME>  (427) 
GLN   GLY

>  <FRAG_NAME>  (427) 
ACEM   NMA

>  <FRAG_ATOM_NUM>  (427) 
fragi: 9  fragj: 12

>  <atom.prop.CHAIN_ID>  (427) 
A A A A A A A A A Z Z Z Z Z Z Z Z Z Z Z Z

>  <atom.prop.IS_HEAVY_ATOM>  (427) 
1 0 0 0 1 1 0 0 1 1 0 0 0 1 0 1 1 1 0 0 0

>  <DIFUSE_FUNC_ATOM>  (427) 
n/a

>  <FINAL_SINGLE_POINT_ENERGY>  (427) 
0

>  <NONCOV_INTER_ENERGY_QM>  (427) 
0

>  <FF_Energy>  (427) 
10.88

>  <QM_Energy>  (427) 
22.36

>  <source>  (427) 
ACEM_nNMA_27

>  <Index>  (427) 
1789

$$$$
ACEM-pdb3dkb-C-GLN-2074:NMA-pdb3dkb-C-VAL-2093
     RDKit          3D

 21 19  0  0  0  0  0  0  0  0999 V2000
   -5.0581   -0.1960    0.5304 C   0  0  0  0  0  0  0  0  0  0  0  0
   -4.6416   -1.0973    0.6390 H   0  0  0  0  0  0  0  0  0  0  0  0
   -5.1465    0.0193   -0.4408 H   0  0  0  0  0  0  0  0  0  0  0  0
   -6.0422   -0.1883    0.9989 H   0  0  0  0  0  0  0  0  0  0  0  0
   -4.1611    0.8210    1.1643 C   0  0  0  0  0  0  0  0  0  0  0  0
   -2.8660    0.6906    0.9340 N   0  0  0  0  0  0  0  0  0  0  0  0
   -2.1876    1.3546    1.3200 H   0  0  0  0  0  0  0  0  0  0  0  0
   -2.5401   -0.0870    0.3592 H   0  0  0  0  0  0  0  0  0  0  0  0
   -4.6198    1.7074    1.8629 O   0  0  0  0  0  0  0  0  0  0  0  0
   -1.0879   -2.1797    0.0279 C   0  0  0  0  0  0  0  0  0  0  0  0
   -0.2209   -2.4785    0.4637 H   0  0  0  0  0  0  0  0  0  0  0  0
   -1.1473   -2.6235   -0.9659 H   0  0  0  0  0  0  0  0  0  0  0  0
   -1.9097   -2.5542    0.6384 H   0  0  0  0  0  0  0  0  0  0  0  0
   -1.1145   -0.7218    0.0000 N   0  0  0  0  0  0  0  0  0  0  0  0
   -1.9937   -0.1665   -0.0214 H   0  0  0  0  0  0  0  0  0  0  0  0
    0.0000    0.0000    0.0000 C   0  0  0  0  0  0  0  0  0  0  0  0
    1.1145   -0.5031    0.0000 O   0  0  0  0  0  0  0  0  0  0  0  0
   -0.1631    1.5154   -0.0130 C   0  0  0  0  0  0  0  0  0  0  0  0
   -1.0660    1.7350    0.3818 H   0  0  0  0  0  0  0  0  0  0  0  0
    0.5975    2.0091    0.5919 H   0  0  0  0  0  0  0  0  0  0  0  0
   -0.1337    1.8608   -1.0463 H   0  0  0  0  0  0  0  0  0  0  0  0
  1  5  1  0
  5  6  1  0
  5  9  2  0
  1  2  1  0
  1  3  1  0
  1  4  1  0
  6  7  1  0
  6  8  1  0
 10 14  1  0
 14 16  1  0
 16 17  2  0
 16 18  1  0
 10 11  1  0
 10 12  1  0
 10 13  1  0
 14 15  1  0
 18 19  1  0
 18 20  1  0
 18 21  1  0
M  END
>  <PDB_ID>  (428) 
pdb3dkb

>  <RESIDUE_NAME>  (428) 
GLN   VAL

>  <FRAG_NAME>  (428) 
ACEM   NMA

>  <FRAG_ATOM_NUM>  (428) 
fragi: 9  fragj: 12

>  <atom.prop.CHAIN_ID>  (428) 
A A A A A A A A A Z Z Z Z Z Z Z Z Z Z Z Z

>  <atom.prop.IS_HEAVY_ATOM>  (428) 
1 0 0 0 1 1 0 0 1 1 0 0 0 1 0 1 1 1 0 0 0

>  <DIFUSE_FUNC_ATOM>  (428) 
n/a

>  <FINAL_SINGLE_POINT_ENERGY>  (428) 
0

>  <NONCOV_INTER_ENERGY_QM>  (428) 
0

>  <FF_Energy>  (428) 
53.91

>  <QM_Energy>  (428) 
99.83

>  <source>  (428) 
ACEM_nNMA_27

>  <Index>  (428) 
3133

$$$$
ACEM-pdb1zpd-F-GLN-124:NMA-pdb1zpd-F-TYR-73
     RDKit          3D

 21 19  0  0  0  0  0  0  0  0999 V2000
   -5.9605   -0.1584   -0.9766 C   0  0  0  0  0  0  0  0  0  0  0  0
   -6.6829    0.4927   -0.7583 H   0  0  0  0  0  0  0  0  0  0  0  0
   -6.1236   -1.0195   -0.5012 H   0  0  0  0  0  0  0  0  0  0  0  0
   -5.9889   -0.3512   -2.0491 H   0  0  0  0  0  0  0  0  0  0  0  0
   -4.6337    0.4087   -0.5320 C   0  0  0  0  0  0  0  0  0  0  0  0
   -3.5591   -0.4030   -0.5508 N   0  0  0  0  0  0  0  0  0  0  0  0
   -2.6549   -0.0789   -0.2816 H   0  0  0  0  0  0  0  0  0  0  0  0
   -3.7018   -1.3703   -0.8527 H   0  0  0  0  0  0  0  0  0  0  0  0
   -4.5653    1.6002   -0.1709 O   0  0  0  0  0  0  0  0  0  0  0  0
   -1.1853   -2.1499   -0.2663 C   0  0  0  0  0  0  0  0  0  0  0  0
   -2.1743   -2.3930   -0.3871 H   0  0  0  0  0  0  0  0  0  0  0  0
   -0.7800   -2.7990    0.5099 H   0  0  0  0  0  0  0  0  0  0  0  0
   -0.7545   -2.3823   -1.2401 H   0  0  0  0  0  0  0  0  0  0  0  0
   -1.1121   -0.7161   -0.0000 N   0  0  0  0  0  0  0  0  0  0  0  0
   -1.9809   -0.1437    0.2168 H   0  0  0  0  0  0  0  0  0  0  0  0
    0.0000    0.0000    0.0000 C   0  0  0  0  0  0  0  0  0  0  0  0
    1.1121   -0.5519   -0.0000 O   0  0  0  0  0  0  0  0  0  0  0  0
   -0.1106    1.5327   -0.0079 C   0  0  0  0  0  0  0  0  0  0  0  0
   -1.0895    1.7704    0.1609 H   0  0  0  0  0  0  0  0  0  0  0  0
    0.4984    2.0372    0.7424 H   0  0  0  0  0  0  0  0  0  0  0  0
    0.1360    1.9078   -1.0012 H   0  0  0  0  0  0  0  0  0  0  0  0
  1  5  1  0
  5  6  1  0
  5  9  2  0
  1  2  1  0
  1  3  1  0
  1  4  1  0
  6  7  1  0
  6  8  1  0
 10 14  1  0
 14 16  1  0
 16 17  2  0
 16 18  1  0
 10 11  1  0
 10 12  1  0
 10 13  1  0
 14 15  1  0
 18 19  1  0
 18 20  1  0
 18 21  1  0
M  END
>  <PDB_ID>  (429) 
pdb1zpd

>  <RESIDUE_NAME>  (429) 
GLN   TYR

>  <FRAG_NAME>  (429) 
ACEM   NMA

>  <FRAG_ATOM_NUM>  (429) 
fragi: 9  fragj: 12

>  <atom.prop.CHAIN_ID>  (429) 
A A A A A A A A A Z Z Z Z Z Z Z Z Z Z Z Z

>  <atom.prop.IS_HEAVY_ATOM>  (429) 
1 0 0 0 1 1 0 0 1 1 0 0 0 1 0 1 1 1 0 0 0

>  <DIFUSE_FUNC_ATOM>  (429) 
n/a

>  <FINAL_SINGLE_POINT_ENERGY>  (429) 
0

>  <NONCOV_INTER_ENERGY_QM>  (429) 
0

>  <FF_Energy>  (429) 
26.83

>  <QM_Energy>  (429) 
51.72

>  <source>  (429) 
ACEM_nNMA_27

>  <Index>  (429) 
3356

$$$$
ACEM-pdb3dp7-B-GLN-9:NMA-pdb3dp7-A-ALA-90
     RDKit          3D

 21 19  0  0  0  0  0  0  0  0999 V2000
   -6.0050    0.5991    0.6688 C   0  0  0  0  0  0  0  0  0  0  0  0
   -6.1179    0.0205    1.4743 H   0  0  0  0  0  0  0  0  0  0  0  0
   -6.6963    0.3676   -0.0124 H   0  0  0  0  0  0  0  0  0  0  0  0
   -6.1389    1.6398    0.9642 H   0  0  0  0  0  0  0  0  0  0  0  0
   -4.6292    0.3344    0.0724 C   0  0  0  0  0  0  0  0  0  0  0  0
   -3.5925    0.5969    0.8531 N   0  0  0  0  0  0  0  0  0  0  0  0
   -2.6407    0.4327    0.5288 H   0  0  0  0  0  0  0  0  0  0  0  0
   -3.7584    0.9689    1.7866 H   0  0  0  0  0  0  0  0  0  0  0  0
   -4.5015   -0.0825   -1.0762 O   0  0  0  0  0  0  0  0  0  0  0  0
   -1.0545   -2.1532    0.1366 C   0  0  0  0  0  0  0  0  0  0  0  0
   -0.5986   -2.3855    1.0155 H   0  0  0  0  0  0  0  0  0  0  0  0
   -0.5058   -2.6377   -0.6710 H   0  0  0  0  0  0  0  0  0  0  0  0
   -2.0671   -2.5504    0.2064 H   0  0  0  0  0  0  0  0  0  0  0  0
   -1.1098   -0.7148    0.0000 N   0  0  0  0  0  0  0  0  0  0  0  0
   -1.9852   -0.1754   -0.1028 H   0  0  0  0  0  0  0  0  0  0  0  0
    0.0000    0.0000    0.0000 C   0  0  0  0  0  0  0  0  0  0  0  0
    1.1098   -0.5239   -0.0000 O   0  0  0  0  0  0  0  0  0  0  0  0
   -0.1651    1.5202   -0.0136 C   0  0  0  0  0  0  0  0  0  0  0  0
   -0.7380    1.7837    0.7587 H   0  0  0  0  0  0  0  0  0  0  0  0
    0.8198    1.9735    0.0988 H   0  0  0  0  0  0  0  0  0  0  0  0
   -0.6443    1.8623   -0.9308 H   0  0  0  0  0  0  0  0  0  0  0  0
  1  5  1  0
  5  6  1  0
  5  9  2  0
  1  2  1  0
  1  3  1  0
  1  4  1  0
  6  7  1  0
  6  8  1  0
 10 14  1  0
 14 16  1  0
 16 17  2  0
 16 18  1  0
 10 11  1  0
 10 12  1  0
 10 13  1  0
 14 15  1  0
 18 19  1  0
 18 20  1  0
 18 21  1  0
M  END
>  <PDB_ID>  (430) 
pdb3dp7

>  <RESIDUE_NAME>  (430) 
GLN   ALA

>  <FRAG_NAME>  (430) 
ACEM   NMA

>  <FRAG_ATOM_NUM>  (430) 
fragi: 9  fragj: 12

>  <atom.prop.CHAIN_ID>  (430) 
A A A A A A A A A Z Z Z Z Z Z Z Z Z Z Z Z

>  <atom.prop.IS_HEAVY_ATOM>  (430) 
1 0 0 0 1 1 0 0 1 1 0 0 0 1 0 1 1 1 0 0 0

>  <DIFUSE_FUNC_ATOM>  (430) 
n/a

>  <FINAL_SINGLE_POINT_ENERGY>  (430) 
0

>  <NONCOV_INTER_ENERGY_QM>  (430) 
0

>  <FF_Energy>  (430) 
6.77

>  <QM_Energy>  (430) 
16.98

>  <source>  (430) 
ACEM_nNMA_27

>  <Index>  (430) 
3691

$$$$
ACEM-pdb1zz0-B-GLN-259:NMA-pdb1zz0-B-MET-171
     RDKit          3D

 21 19  0  0  0  0  0  0  0  0999 V2000
   -4.8803    0.9647   -2.6522 C   0  0  0  0  0  0  0  0  0  0  0  0
   -5.7503    1.3904   -2.4243 H   0  0  0  0  0  0  0  0  0  0  0  0
   -5.0295    0.1402   -3.1896 H   0  0  0  0  0  0  0  0  0  0  0  0
   -4.2982    1.6662   -3.2498 H   0  0  0  0  0  0  0  0  0  0  0  0
   -4.1612    0.6067   -1.3881 C   0  0  0  0  0  0  0  0  0  0  0  0
   -3.3936   -0.4426   -1.4432 N   0  0  0  0  0  0  0  0  0  0  0  0
   -2.8477   -0.7551   -0.6208 H   0  0  0  0  0  0  0  0  0  0  0  0
   -3.3215   -0.9767   -2.3118 H   0  0  0  0  0  0  0  0  0  0  0  0
   -4.2855    1.2823   -0.3640 O   0  0  0  0  0  0  0  0  0  0  0  0
   -1.1110   -2.1747   -0.0131 C   0  0  0  0  0  0  0  0  0  0  0  0
   -0.4243   -2.5192    0.6581 H   0  0  0  0  0  0  0  0  0  0  0  0
   -0.8940   -2.5955   -0.9949 H   0  0  0  0  0  0  0  0  0  0  0  0
   -2.0794   -2.5563    0.3103 H   0  0  0  0  0  0  0  0  0  0  0  0
   -1.1192   -0.7300   -0.0000 N   0  0  0  0  0  0  0  0  0  0  0  0
   -1.9966   -0.1575    0.0105 H   0  0  0  0  0  0  0  0  0  0  0  0
    0.0000    0.0000    0.0000 C   0  0  0  0  0  0  0  0  0  0  0  0
    1.1192   -0.4929    0.0000 O   0  0  0  0  0  0  0  0  0  0  0  0
   -0.1846    1.5054    0.0373 C   0  0  0  0  0  0  0  0  0  0  0  0
   -1.1280    1.6981    0.3284 H   0  0  0  0  0  0  0  0  0  0  0  0
    0.4930    1.9585    0.7609 H   0  0  0  0  0  0  0  0  0  0  0  0
   -0.0225    1.9340   -0.9518 H   0  0  0  0  0  0  0  0  0  0  0  0
  1  5  1  0
  5  6  1  0
  5  9  2  0
  1  2  1  0
  1  3  1  0
  1  4  1  0
  6  7  1  0
  6  8  1  0
 10 14  1  0
 14 16  1  0
 16 17  2  0
 16 18  1  0
 10 11  1  0
 10 12  1  0
 10 13  1  0
 14 15  1  0
 18 19  1  0
 18 20  1  0
 18 21  1  0
M  END
>  <PDB_ID>  (431) 
pdb1zz0

>  <RESIDUE_NAME>  (431) 
GLN   MET

>  <FRAG_NAME>  (431) 
ACEM   NMA

>  <FRAG_ATOM_NUM>  (431) 
fragi: 9  fragj: 12

>  <atom.prop.CHAIN_ID>  (431) 
A A A A A A A A A Z Z Z Z Z Z Z Z Z Z Z Z

>  <atom.prop.IS_HEAVY_ATOM>  (431) 
1 0 0 0 1 1 0 0 1 1 0 0 0 1 0 1 1 1 0 0 0

>  <DIFUSE_FUNC_ATOM>  (431) 
n/a

>  <FINAL_SINGLE_POINT_ENERGY>  (431) 
0

>  <NONCOV_INTER_ENERGY_QM>  (431) 
0

>  <FF_Energy>  (431) 
3.29

>  <QM_Energy>  (431) 
15.42

>  <source>  (431) 
ACEM_nNMA_27

>  <Index>  (431) 
4171

$$$$
ACEM-pdb3dkb-D-GLN-3074:NMA-pdb3dkb-D-VAL-3093
     RDKit          3D

 21 19  0  0  0  0  0  0  0  0999 V2000
   -4.9838   -0.1282    0.4521 C   0  0  0  0  0  0  0  0  0  0  0  0
   -4.5580   -1.0287    0.5070 H   0  0  0  0  0  0  0  0  0  0  0  0
   -5.0311    0.1666   -0.4999 H   0  0  0  0  0  0  0  0  0  0  0  0
   -5.9934   -0.1846    0.8592 H   0  0  0  0  0  0  0  0  0  0  0  0
   -4.1376    0.8506    1.2189 C   0  0  0  0  0  0  0  0  0  0  0  0
   -2.8328    0.7562    1.0385 N   0  0  0  0  0  0  0  0  0  0  0  0
   -2.1866    1.3964    1.5134 H   0  0  0  0  0  0  0  0  0  0  0  0
   -2.4665    0.0364    0.4173 H   0  0  0  0  0  0  0  0  0  0  0  0
   -4.6445    1.6796    1.9684 O   0  0  0  0  0  0  0  0  0  0  0  0
   -1.1052   -2.1792    0.0275 C   0  0  0  0  0  0  0  0  0  0  0  0
   -0.2633   -2.4882    0.5060 H   0  0  0  0  0  0  0  0  0  0  0  0
   -1.1210   -2.6253   -0.9669 H   0  0  0  0  0  0  0  0  0  0  0  0
   -1.9701   -2.5336    0.5883 H   0  0  0  0  0  0  0  0  0  0  0  0
   -1.1145   -0.7205    0.0000 N   0  0  0  0  0  0  0  0  0  0  0  0
   -1.9944   -0.1576   -0.0214 H   0  0  0  0  0  0  0  0  0  0  0  0
    0.0000    0.0000    0.0000 C   0  0  0  0  0  0  0  0  0  0  0  0
    1.1145   -0.5117   -0.0000 O   0  0  0  0  0  0  0  0  0  0  0  0
   -0.1720    1.5209   -0.0147 C   0  0  0  0  0  0  0  0  0  0  0  0
   -1.0899    1.7308    0.3515 H   0  0  0  0  0  0  0  0  0  0  0  0
    0.5652    2.0235    0.6115 H   0  0  0  0  0  0  0  0  0  0  0  0
   -0.1182    1.8661   -1.0472 H   0  0  0  0  0  0  0  0  0  0  0  0
  1  5  1  0
  5  6  1  0
  5  9  2  0
  1  2  1  0
  1  3  1  0
  1  4  1  0
  6  7  1  0
  6  8  1  0
 10 14  1  0
 14 16  1  0
 16 17  2  0
 16 18  1  0
 10 11  1  0
 10 12  1  0
 10 13  1  0
 14 15  1  0
 18 19  1  0
 18 20  1  0
 18 21  1  0
M  END
>  <PDB_ID>  (432) 
pdb3dkb

>  <RESIDUE_NAME>  (432) 
GLN   VAL

>  <FRAG_NAME>  (432) 
ACEM   NMA

>  <FRAG_ATOM_NUM>  (432) 
fragi: 9  fragj: 12

>  <atom.prop.CHAIN_ID>  (432) 
A A A A A A A A A Z Z Z Z Z Z Z Z Z Z Z Z

>  <atom.prop.IS_HEAVY_ATOM>  (432) 
1 0 0 0 1 1 0 0 1 1 0 0 0 1 0 1 1 1 0 0 0

>  <DIFUSE_FUNC_ATOM>  (432) 
n/a

>  <FINAL_SINGLE_POINT_ENERGY>  (432) 
0

>  <NONCOV_INTER_ENERGY_QM>  (432) 
0

>  <FF_Energy>  (432) 
48.67

>  <QM_Energy>  (432) 
93.87

>  <source>  (432) 
ACEM_nNMA_27

>  <Index>  (432) 
4679

$$$$
ACEM-pdb3e6i-A-ASN-416:NMA-pdb3e6i-A-GLY-419
     RDKit          3D

 21 19  0  0  0  0  0  0  0  0999 V2000
   -4.6361    0.0003   -3.0313 C   0  0  0  0  0  0  0  0  0  0  0  0
   -5.4905    0.5128   -3.0005 H   0  0  0  0  0  0  0  0  0  0  0  0
   -4.7768   -0.8688   -3.4996 H   0  0  0  0  0  0  0  0  0  0  0  0
   -3.9096    0.5807   -3.5998 H   0  0  0  0  0  0  0  0  0  0  0  0
   -4.2018   -0.2991   -1.5800 C   0  0  0  0  0  0  0  0  0  0  0  0
   -3.1943    0.4483   -1.1062 N   0  0  0  0  0  0  0  0  0  0  0  0
   -2.7831    1.1483   -1.6855 H   0  0  0  0  0  0  0  0  0  0  0  0
   -2.8630    0.3010   -0.1775 H   0  0  0  0  0  0  0  0  0  0  0  0
   -4.7347   -1.1932   -0.9067 O   0  0  0  0  0  0  0  0  0  0  0  0
   -1.0956   -2.1622   -0.1078 C   0  0  0  0  0  0  0  0  0  0  0  0
   -0.3344   -2.5232    0.4365 H   0  0  0  0  0  0  0  0  0  0  0  0
   -0.9474   -2.4597   -1.1459 H   0  0  0  0  0  0  0  0  0  0  0  0
   -2.0193   -2.5901    0.2817 H   0  0  0  0  0  0  0  0  0  0  0  0
   -1.1154   -0.7087    0.0000 N   0  0  0  0  0  0  0  0  0  0  0  0
   -1.9900   -0.1539    0.0817 H   0  0  0  0  0  0  0  0  0  0  0  0
    0.0000    0.0000    0.0000 C   0  0  0  0  0  0  0  0  0  0  0  0
    1.1154   -0.5239    0.0000 O   0  0  0  0  0  0  0  0  0  0  0  0
   -0.1420    1.5185    0.0232 C   0  0  0  0  0  0  0  0  0  0  0  0
    0.3618    1.9121   -0.7951 H   0  0  0  0  0  0  0  0  0  0  0  0
    0.3863    1.8893    0.8368 H   0  0  0  0  0  0  0  0  0  0  0  0
   -1.1443    1.9465    0.0444 H   0  0  0  0  0  0  0  0  0  0  0  0
  1  5  1  0
  5  6  1  0
  5  9  2  0
  1  2  1  0
  1  3  1  0
  1  4  1  0
  6  7  1  0
  6  8  1  0
 10 14  1  0
 14 16  1  0
 16 17  2  0
 16 18  1  0
 10 11  1  0
 10 12  1  0
 10 13  1  0
 14 15  1  0
 18 19  1  0
 18 20  1  0
 18 21  1  0
M  END
>  <PDB_ID>  (433) 
pdb3e6i

>  <RESIDUE_NAME>  (433) 
ASN   GLY

>  <FRAG_NAME>  (433) 
ACEM   NMA

>  <FRAG_ATOM_NUM>  (433) 
fragi: 9  fragj: 12

>  <atom.prop.CHAIN_ID>  (433) 
A A A A A A A A A Z Z Z Z Z Z Z Z Z Z Z Z

>  <atom.prop.IS_HEAVY_ATOM>  (433) 
1 0 0 0 1 1 0 0 1 1 0 0 0 1 0 1 1 1 0 0 0

>  <DIFUSE_FUNC_ATOM>  (433) 
n/a

>  <FINAL_SINGLE_POINT_ENERGY>  (433) 
0

>  <NONCOV_INTER_ENERGY_QM>  (433) 
0

>  <FF_Energy>  (433) 
17.56

>  <QM_Energy>  (433) 
30.42

>  <source>  (433) 
ACEM_nNMA_27

>  <Index>  (433) 
14406

$$$$
ACEM-pdb3e6m-F-ASN-40:NMA-pdb3e6m-F-PRO-49
     RDKit          3D

 21 19  0  0  0  0  0  0  0  0999 V2000
   -5.0600    0.8855    2.5238 C   0  0  0  0  0  0  0  0  0  0  0  0
   -5.7691    0.2334    2.7793 H   0  0  0  0  0  0  0  0  0  0  0  0
   -5.4621    1.7838    2.3660 H   0  0  0  0  0  0  0  0  0  0  0  0
   -4.3521    0.9656    3.3487 H   0  0  0  0  0  0  0  0  0  0  0  0
   -4.4065    0.4151    1.2478 C   0  0  0  0  0  0  0  0  0  0  0  0
   -3.2596   -0.2241    1.3804 N   0  0  0  0  0  0  0  0  0  0  0  0
   -2.8680   -0.3814    2.2899 H   0  0  0  0  0  0  0  0  0  0  0  0
   -2.7711   -0.5581    0.5700 H   0  0  0  0  0  0  0  0  0  0  0  0
   -4.9280    0.6230    0.1529 O   0  0  0  0  0  0  0  0  0  0  0  0
   -1.0763   -2.1705    0.0658 C   0  0  0  0  0  0  0  0  0  0  0  0
   -0.6870   -2.4373    0.9648 H   0  0  0  0  0  0  0  0  0  0  0  0
   -0.4580   -2.6167   -0.7131 H   0  0  0  0  0  0  0  0  0  0  0  0
   -2.0606   -2.6338    0.1342 H   0  0  0  0  0  0  0  0  0  0  0  0
   -1.1269   -0.7100    0.0000 N   0  0  0  0  0  0  0  0  0  0  0  0
   -1.9956   -0.1644   -0.0481 H   0  0  0  0  0  0  0  0  0  0  0  0
    0.0000    0.0000    0.0000 C   0  0  0  0  0  0  0  0  0  0  0  0
    1.1269   -0.5098    0.0000 O   0  0  0  0  0  0  0  0  0  0  0  0
   -0.0889    1.5158   -0.0099 C   0  0  0  0  0  0  0  0  0  0  0  0
   -0.8522    1.8353    0.5303 H   0  0  0  0  0  0  0  0  0  0  0  0
    0.8570    1.8852    0.3864 H   0  0  0  0  0  0  0  0  0  0  0  0
   -0.0908    1.8648   -1.0425 H   0  0  0  0  0  0  0  0  0  0  0  0
  1  5  1  0
  5  6  1  0
  5  9  2  0
  1  2  1  0
  1  3  1  0
  1  4  1  0
  6  7  1  0
  6  8  1  0
 10 14  1  0
 14 16  1  0
 16 17  2  0
 16 18  1  0
 10 11  1  0
 10 12  1  0
 10 13  1  0
 14 15  1  0
 18 19  1  0
 18 20  1  0
 18 21  1  0
M  END
>  <PDB_ID>  (434) 
pdb3e6m

>  <RESIDUE_NAME>  (434) 
ASN   PRO

>  <FRAG_NAME>  (434) 
ACEM   NMA

>  <FRAG_ATOM_NUM>  (434) 
fragi: 9  fragj: 12

>  <atom.prop.CHAIN_ID>  (434) 
A A A A A A A A A Z Z Z Z Z Z Z Z Z Z Z Z

>  <atom.prop.IS_HEAVY_ATOM>  (434) 
1 0 0 0 1 1 0 0 1 1 0 0 0 1 0 1 1 1 0 0 0

>  <DIFUSE_FUNC_ATOM>  (434) 
n/a

>  <FINAL_SINGLE_POINT_ENERGY>  (434) 
0

>  <NONCOV_INTER_ENERGY_QM>  (434) 
0

>  <FF_Energy>  (434) 
12.77

>  <QM_Energy>  (434) 
27.0

>  <source>  (434) 
ACEM_nNMA_27

>  <Index>  (434) 
15139

$$$$
ACEM-pdb3ejj-A-GLN-42:NMA-pdb3ejj-A-CYX-146
     RDKit          3D

 21 19  0  0  0  0  0  0  0  0999 V2000
   -3.5984    1.4502   -0.9082 C   0  0  0  0  0  0  0  0  0  0  0  0
   -3.4455    0.9267   -1.7482 H   0  0  0  0  0  0  0  0  0  0  0  0
   -2.7166    1.7584   -0.5462 H   0  0  0  0  0  0  0  0  0  0  0  0
   -4.2175    2.3182   -1.1343 H   0  0  0  0  0  0  0  0  0  0  0  0
   -4.2419    0.5453    0.1070 C   0  0  0  0  0  0  0  0  0  0  0  0
   -3.4658   -0.4008    0.6293 N   0  0  0  0  0  0  0  0  0  0  0  0
   -3.8263   -1.0441    1.3337 H   0  0  0  0  0  0  0  0  0  0  0  0
   -2.5012   -0.4749    0.3132 H   0  0  0  0  0  0  0  0  0  0  0  0
   -5.4256    0.6932    0.4301 O   0  0  0  0  0  0  0  0  0  0  0  0
   -1.0605   -2.1498    0.0548 C   0  0  0  0  0  0  0  0  0  0  0  0
   -0.0861   -2.4356   -0.0754 H   0  0  0  0  0  0  0  0  0  0  0  0
   -1.6556   -2.6543   -0.7064 H   0  0  0  0  0  0  0  0  0  0  0  0
   -1.3770   -2.4884    1.0414 H   0  0  0  0  0  0  0  0  0  0  0  0
   -1.1164   -0.7133   -0.0000 N   0  0  0  0  0  0  0  0  0  0  0  0
   -1.9896   -0.1626   -0.0415 H   0  0  0  0  0  0  0  0  0  0  0  0
    0.0000    0.0000    0.0000 C   0  0  0  0  0  0  0  0  0  0  0  0
    1.1164   -0.5010    0.0000 O   0  0  0  0  0  0  0  0  0  0  0  0
   -0.1702    1.5038   -0.0171 C   0  0  0  0  0  0  0  0  0  0  0  0
   -1.1132    1.7198    0.2702 H   0  0  0  0  0  0  0  0  0  0  0  0
    0.5152    1.9897    0.6773 H   0  0  0  0  0  0  0  0  0  0  0  0
   -0.0248    1.8861   -1.0275 H   0  0  0  0  0  0  0  0  0  0  0  0
  1  5  1  0
  5  6  1  0
  5  9  2  0
  1  2  1  0
  1  3  1  0
  1  4  1  0
  6  7  1  0
  6  8  1  0
 10 14  1  0
 14 16  1  0
 16 17  2  0
 16 18  1  0
 10 11  1  0
 10 12  1  0
 10 13  1  0
 14 15  1  0
 18 19  1  0
 18 20  1  0
 18 21  1  0
M  END
>  <PDB_ID>  (435) 
pdb3ejj

>  <RESIDUE_NAME>  (435) 
GLN   CYX

>  <FRAG_NAME>  (435) 
ACEM   NMA

>  <FRAG_ATOM_NUM>  (435) 
fragi: 9  fragj: 12

>  <atom.prop.CHAIN_ID>  (435) 
A A A A A A A A A Z Z Z Z Z Z Z Z Z Z Z Z

>  <atom.prop.IS_HEAVY_ATOM>  (435) 
1 0 0 0 1 1 0 0 1 1 0 0 0 1 0 1 1 1 0 0 0

>  <DIFUSE_FUNC_ATOM>  (435) 
n/a

>  <FINAL_SINGLE_POINT_ENERGY>  (435) 
0

>  <NONCOV_INTER_ENERGY_QM>  (435) 
0

>  <FF_Energy>  (435) 
46.57

>  <QM_Energy>  (435) 
89.19

>  <source>  (435) 
ACEM_nNMA_27

>  <Index>  (435) 
22186

$$$$
ACEM-pdb3ei3-A-GLN-1055:NMA-pdb3ei3-A-ILE-1089
     RDKit          3D

 21 19  0  0  0  0  0  0  0  0999 V2000
   -5.2630    1.6515   -1.8926 C   0  0  0  0  0  0  0  0  0  0  0  0
   -5.1197    0.9397   -2.5863 H   0  0  0  0  0  0  0  0  0  0  0  0
   -4.9696    2.5345   -2.2701 H   0  0  0  0  0  0  0  0  0  0  0  0
   -6.3249    1.7035   -1.6521 H   0  0  0  0  0  0  0  0  0  0  0  0
   -4.3927    1.3302   -0.6950 C   0  0  0  0  0  0  0  0  0  0  0  0
   -3.1485    0.9886   -0.9684 N   0  0  0  0  0  0  0  0  0  0  0  0
   -2.4870    0.7688   -0.2127 H   0  0  0  0  0  0  0  0  0  0  0  0
   -2.8428    0.9421   -1.9372 H   0  0  0  0  0  0  0  0  0  0  0  0
   -4.8260    1.3884    0.4613 O   0  0  0  0  0  0  0  0  0  0  0  0
   -1.1536   -2.1591   -0.0975 C   0  0  0  0  0  0  0  0  0  0  0  0
   -0.3186   -2.5043    0.3142 H   0  0  0  0  0  0  0  0  0  0  0  0
   -1.1135   -2.4051   -1.1587 H   0  0  0  0  0  0  0  0  0  0  0  0
   -2.0560   -2.5538    0.3695 H   0  0  0  0  0  0  0  0  0  0  0  0
   -1.1243   -0.7121    0.0000 N   0  0  0  0  0  0  0  0  0  0  0  0
   -1.9959   -0.1275    0.0775 H   0  0  0  0  0  0  0  0  0  0  0  0
    0.0000    0.0000    0.0000 C   0  0  0  0  0  0  0  0  0  0  0  0
    1.1243   -0.5050   -0.0000 O   0  0  0  0  0  0  0  0  0  0  0  0
   -0.1827    1.5231    0.0724 C   0  0  0  0  0  0  0  0  0  0  0  0
   -1.1057    1.6792    0.4273 H   0  0  0  0  0  0  0  0  0  0  0  0
    0.5068    1.9494    0.8010 H   0  0  0  0  0  0  0  0  0  0  0  0
   -0.1256    2.0190   -0.8965 H   0  0  0  0  0  0  0  0  0  0  0  0
  1  5  1  0
  5  6  1  0
  5  9  2  0
  1  2  1  0
  1  3  1  0
  1  4  1  0
  6  7  1  0
  6  8  1  0
 10 14  1  0
 14 16  1  0
 16 17  2  0
 16 18  1  0
 10 11  1  0
 10 12  1  0
 10 13  1  0
 14 15  1  0
 18 19  1  0
 18 20  1  0
 18 21  1  0
M  END
>  <PDB_ID>  (436) 
pdb3ei3

>  <RESIDUE_NAME>  (436) 
GLN   ILE

>  <FRAG_NAME>  (436) 
ACEM   NMA

>  <FRAG_ATOM_NUM>  (436) 
fragi: 9  fragj: 12

>  <atom.prop.CHAIN_ID>  (436) 
A A A A A A A A A Z Z Z Z Z Z Z Z Z Z Z Z

>  <atom.prop.IS_HEAVY_ATOM>  (436) 
1 0 0 0 1 1 0 0 1 1 0 0 0 1 0 1 1 1 0 0 0

>  <DIFUSE_FUNC_ATOM>  (436) 
n/a

>  <FINAL_SINGLE_POINT_ENERGY>  (436) 
0

>  <NONCOV_INTER_ENERGY_QM>  (436) 
0

>  <FF_Energy>  (436) 
11.2

>  <QM_Energy>  (436) 
23.61

>  <source>  (436) 
ACEM_nNMA_27

>  <Index>  (436) 
24259

$$$$
ACEM-pdb3eoq-A-GLN-248:NMA-pdb3eoq-A-ASP-291
     RDKit          3D

 21 19  0  0  0  0  0  0  0  0999 V2000
   -5.6397   -0.2262   -2.1461 C   0  0  0  0  0  0  0  0  0  0  0  0
   -5.4887   -0.7725   -2.9786 H   0  0  0  0  0  0  0  0  0  0  0  0
   -6.2361    0.5510   -2.3817 H   0  0  0  0  0  0  0  0  0  0  0  0
   -6.1577   -0.8486   -1.4165 H   0  0  0  0  0  0  0  0  0  0  0  0
   -4.2892    0.3280   -1.6859 C   0  0  0  0  0  0  0  0  0  0  0  0
   -3.8835    0.0318   -0.4483 N   0  0  0  0  0  0  0  0  0  0  0  0
   -3.0039    0.3539   -0.0973 H   0  0  0  0  0  0  0  0  0  0  0  0
   -4.5017   -0.5381    0.1359 H   0  0  0  0  0  0  0  0  0  0  0  0
   -3.6060    1.0019   -2.4621 O   0  0  0  0  0  0  0  0  0  0  0  0
   -1.1657   -2.1948    0.0027 C   0  0  0  0  0  0  0  0  0  0  0  0
   -2.1378   -2.4918   -0.0005 H   0  0  0  0  0  0  0  0  0  0  0  0
   -0.6757   -2.6529    0.8619 H   0  0  0  0  0  0  0  0  0  0  0  0
   -0.8272   -2.5873   -0.9562 H   0  0  0  0  0  0  0  0  0  0  0  0
   -1.1268   -0.7212   -0.0000 N   0  0  0  0  0  0  0  0  0  0  0  0
   -2.0029   -0.1383   -0.0025 H   0  0  0  0  0  0  0  0  0  0  0  0
    0.0000    0.0000    0.0000 C   0  0  0  0  0  0  0  0  0  0  0  0
    1.1268   -0.4889   -0.0000 O   0  0  0  0  0  0  0  0  0  0  0  0
   -0.1768    1.5116    0.0451 C   0  0  0  0  0  0  0  0  0  0  0  0
   -1.1449    1.6979   -0.1110 H   0  0  0  0  0  0  0  0  0  0  0  0
    0.0658    1.8566    1.0502 H   0  0  0  0  0  0  0  0  0  0  0  0
    0.4804    2.0095   -0.6679 H   0  0  0  0  0  0  0  0  0  0  0  0
  1  5  1  0
  5  6  1  0
  5  9  2  0
  1  2  1  0
  1  3  1  0
  1  4  1  0
  6  7  1  0
  6  8  1  0
 10 14  1  0
 14 16  1  0
 16 17  2  0
 16 18  1  0
 10 11  1  0
 10 12  1  0
 10 13  1  0
 14 15  1  0
 18 19  1  0
 18 20  1  0
 18 21  1  0
M  END
>  <PDB_ID>  (437) 
pdb3eoq

>  <RESIDUE_NAME>  (437) 
GLN   ASP

>  <FRAG_NAME>  (437) 
ACEM   NMA

>  <FRAG_ATOM_NUM>  (437) 
fragi: 9  fragj: 12

>  <atom.prop.CHAIN_ID>  (437) 
A A A A A A A A A Z Z Z Z Z Z Z Z Z Z Z Z

>  <atom.prop.IS_HEAVY_ATOM>  (437) 
1 0 0 0 1 1 0 0 1 1 0 0 0 1 0 1 1 1 0 0 0

>  <DIFUSE_FUNC_ATOM>  (437) 
n/a

>  <FINAL_SINGLE_POINT_ENERGY>  (437) 
0

>  <NONCOV_INTER_ENERGY_QM>  (437) 
0

>  <FF_Energy>  (437) 
7.04

>  <QM_Energy>  (437) 
18.35

>  <source>  (437) 
ACEM_nNMA_27

>  <Index>  (437) 
25920

$$$$
ACEM-pdb4a7k-A-GLN-338:NMA-pdb4a7k-A-ARG-394
     RDKit          3D

 21 19  0  0  0  0  0  0  0  0999 V2000
   -5.1983    2.1213    1.4985 C   0  0  0  0  0  0  0  0  0  0  0  0
   -5.9210    1.6100    1.9377 H   0  0  0  0  0  0  0  0  0  0  0  0
   -5.5611    2.8282    0.9115 H   0  0  0  0  0  0  0  0  0  0  0  0
   -4.5566    2.5706    2.2564 H   0  0  0  0  0  0  0  0  0  0  0  0
   -4.3904    1.1392    0.6175 C   0  0  0  0  0  0  0  0  0  0  0  0
   -3.1410    0.7923    1.0337 N   0  0  0  0  0  0  0  0  0  0  0  0
   -2.5949    0.1603    0.5135 H   0  0  0  0  0  0  0  0  0  0  0  0
   -2.8060    1.2152    1.8981 H   0  0  0  0  0  0  0  0  0  0  0  0
   -4.8815    0.7233   -0.4464 O   0  0  0  0  0  0  0  0  0  0  0  0
   -1.2402   -2.1365    0.0612 C   0  0  0  0  0  0  0  0  0  0  0  0
   -0.3127   -2.4852   -0.0345 H   0  0  0  0  0  0  0  0  0  0  0  0
   -1.7906   -2.4811   -0.8143 H   0  0  0  0  0  0  0  0  0  0  0  0
   -1.7792   -2.4244    0.9639 H   0  0  0  0  0  0  0  0  0  0  0  0
   -1.1482   -0.6868    0.0000 N   0  0  0  0  0  0  0  0  0  0  0  0
   -2.0032   -0.0653   -0.0501 H   0  0  0  0  0  0  0  0  0  0  0  0
    0.0000    0.0000    0.0000 C   0  0  0  0  0  0  0  0  0  0  0  0
    1.1482   -0.5086    0.0000 O   0  0  0  0  0  0  0  0  0  0  0  0
   -0.1630    1.4851   -0.0041 C   0  0  0  0  0  0  0  0  0  0  0  0
   -0.9765    1.7343    0.5282 H   0  0  0  0  0  0  0  0  0  0  0  0
    0.7093    1.9414    0.4639 H   0  0  0  0  0  0  0  0  0  0  0  0
   -0.3089    1.8164   -1.0323 H   0  0  0  0  0  0  0  0  0  0  0  0
  1  5  1  0
  5  6  1  0
  5  9  2  0
  1  2  1  0
  1  3  1  0
  1  4  1  0
  6  7  1  0
  6  8  1  0
 10 14  1  0
 14 16  1  0
 16 17  2  0
 16 18  1  0
 10 11  1  0
 10 12  1  0
 10 13  1  0
 14 15  1  0
 18 19  1  0
 18 20  1  0
 18 21  1  0
M  END
>  <PDB_ID>  (438) 
pdb4a7k

>  <RESIDUE_NAME>  (438) 
GLN   ARG

>  <FRAG_NAME>  (438) 
ACEM   NMA

>  <FRAG_ATOM_NUM>  (438) 
fragi: 9  fragj: 12

>  <atom.prop.CHAIN_ID>  (438) 
A A A A A A A A A Z Z Z Z Z Z Z Z Z Z Z Z

>  <atom.prop.IS_HEAVY_ATOM>  (438) 
1 0 0 0 1 1 0 0 1 1 0 0 0 1 0 1 1 1 0 0 0

>  <DIFUSE_FUNC_ATOM>  (438) 
n/a

>  <FINAL_SINGLE_POINT_ENERGY>  (438) 
0

>  <NONCOV_INTER_ENERGY_QM>  (438) 
0

>  <FF_Energy>  (438) 
18.37

>  <QM_Energy>  (438) 
44.48

>  <source>  (438) 
ACEM_nNMA_28

>  <Index>  (438) 
3844

$$$$
ACEM-pdb3exr-B-GLN-142:NMA-pdb3exr-B-THR-152
     RDKit          3D

 21 19  0  0  0  0  0  0  0  0999 V2000
   -5.4071   -0.0997   -0.4061 C   0  0  0  0  0  0  0  0  0  0  0  0
   -5.7022    0.1763    0.5114 H   0  0  0  0  0  0  0  0  0  0  0  0
   -4.8101   -0.9016   -0.3307 H   0  0  0  0  0  0  0  0  0  0  0  0
   -6.2877   -0.3755   -0.9863 H   0  0  0  0  0  0  0  0  0  0  0  0
   -4.6111    1.0402   -1.0188 C   0  0  0  0  0  0  0  0  0  0  0  0
   -3.3173    0.9913   -0.8432 N   0  0  0  0  0  0  0  0  0  0  0  0
   -2.7016    1.7173   -1.2377 H   0  0  0  0  0  0  0  0  0  0  0  0
   -2.9071    0.2257   -0.3087 H   0  0  0  0  0  0  0  0  0  0  0  0
   -5.1640    1.9641   -1.6160 O   0  0  0  0  0  0  0  0  0  0  0  0
   -1.1016   -2.1677   -0.1270 C   0  0  0  0  0  0  0  0  0  0  0  0
   -2.0339   -2.5024    0.1086 H   0  0  0  0  0  0  0  0  0  0  0  0
   -0.3971   -2.6618    0.5420 H   0  0  0  0  0  0  0  0  0  0  0  0
   -0.9796   -2.4951   -1.1595 H   0  0  0  0  0  0  0  0  0  0  0  0
   -1.1105   -0.7218   -0.0000 N   0  0  0  0  0  0  0  0  0  0  0  0
   -1.9889   -0.1618    0.0990 H   0  0  0  0  0  0  0  0  0  0  0  0
    0.0000    0.0000    0.0000 C   0  0  0  0  0  0  0  0  0  0  0  0
    1.1105   -0.4959    0.0000 O   0  0  0  0  0  0  0  0  0  0  0  0
   -0.1789    1.5114    0.0106 C   0  0  0  0  0  0  0  0  0  0  0  0
   -1.1673    1.7123   -0.0582 H   0  0  0  0  0  0  0  0  0  0  0  0
    0.2043    1.9522    0.9308 H   0  0  0  0  0  0  0  0  0  0  0  0
    0.3180    1.9612   -0.8489 H   0  0  0  0  0  0  0  0  0  0  0  0
  1  5  1  0
  5  6  1  0
  5  9  2  0
  1  2  1  0
  1  3  1  0
  1  4  1  0
  6  7  1  0
  6  8  1  0
 10 14  1  0
 14 16  1  0
 16 17  2  0
 16 18  1  0
 10 11  1  0
 10 12  1  0
 10 13  1  0
 14 15  1  0
 18 19  1  0
 18 20  1  0
 18 21  1  0
M  END
>  <PDB_ID>  (439) 
pdb3exr

>  <RESIDUE_NAME>  (439) 
GLN   THR

>  <FRAG_NAME>  (439) 
ACEM   NMA

>  <FRAG_ATOM_NUM>  (439) 
fragi: 9  fragj: 12

>  <atom.prop.CHAIN_ID>  (439) 
A A A A A A A A A Z Z Z Z Z Z Z Z Z Z Z Z

>  <atom.prop.IS_HEAVY_ATOM>  (439) 
1 0 0 0 1 1 0 0 1 1 0 0 0 1 0 1 1 1 0 0 0

>  <DIFUSE_FUNC_ATOM>  (439) 
n/a

>  <FINAL_SINGLE_POINT_ENERGY>  (439) 
0

>  <NONCOV_INTER_ENERGY_QM>  (439) 
0

>  <FF_Energy>  (439) 
10.81

>  <QM_Energy>  (439) 
22.06

>  <source>  (439) 
ACEM_nNMA_28

>  <Index>  (439) 
6589

$$$$
ACEM-pdb4a3u-B-ASN-321:NMA-pdb4a3u-B-LEU-334
     RDKit          3D

 21 19  0  0  0  0  0  0  0  0999 V2000
   -4.6823    1.7606   -2.6341 C   0  0  0  0  0  0  0  0  0  0  0  0
   -4.6056    2.0648   -3.5803 H   0  0  0  0  0  0  0  0  0  0  0  0
   -4.8149    2.5442   -2.0330 H   0  0  0  0  0  0  0  0  0  0  0  0
   -5.5495    1.1058   -2.5483 H   0  0  0  0  0  0  0  0  0  0  0  0
   -3.4152    1.0613   -2.2460 C   0  0  0  0  0  0  0  0  0  0  0  0
   -3.2628    0.8106   -0.9634 N   0  0  0  0  0  0  0  0  0  0  0  0
   -3.9666    1.0731   -0.3012 H   0  0  0  0  0  0  0  0  0  0  0  0
   -2.4313    0.3476   -0.6337 H   0  0  0  0  0  0  0  0  0  0  0  0
   -2.6087    0.6771   -3.1104 O   0  0  0  0  0  0  0  0  0  0  0  0
   -1.1043   -2.1543   -0.2024 C   0  0  0  0  0  0  0  0  0  0  0  0
   -0.4308   -2.5752    0.4263 H   0  0  0  0  0  0  0  0  0  0  0  0
   -0.8192   -2.4326   -1.2169 H   0  0  0  0  0  0  0  0  0  0  0  0
   -2.0776   -2.5772    0.0469 H   0  0  0  0  0  0  0  0  0  0  0  0
   -1.1137   -0.7261    0.0000 N   0  0  0  0  0  0  0  0  0  0  0  0
   -1.9856   -0.1703    0.1585 H   0  0  0  0  0  0  0  0  0  0  0  0
    0.0000    0.0000    0.0000 C   0  0  0  0  0  0  0  0  0  0  0  0
    1.1137   -0.5109    0.0000 O   0  0  0  0  0  0  0  0  0  0  0  0
   -0.1456    1.5257    0.0217 C   0  0  0  0  0  0  0  0  0  0  0  0
   -1.1090    1.7462    0.1760 H   0  0  0  0  0  0  0  0  0  0  0  0
    0.4460    1.9400    0.8380 H   0  0  0  0  0  0  0  0  0  0  0  0
    0.1882    1.9535   -0.9236 H   0  0  0  0  0  0  0  0  0  0  0  0
  1  5  1  0
  5  6  1  0
  5  9  2  0
  1  2  1  0
  1  3  1  0
  1  4  1  0
  6  7  1  0
  6  8  1  0
 10 14  1  0
 14 16  1  0
 16 17  2  0
 16 18  1  0
 10 11  1  0
 10 12  1  0
 10 13  1  0
 14 15  1  0
 18 19  1  0
 18 20  1  0
 18 21  1  0
M  END
>  <PDB_ID>  (440) 
pdb4a3u

>  <RESIDUE_NAME>  (440) 
ASN   LEU

>  <FRAG_NAME>  (440) 
ACEM   NMA

>  <FRAG_ATOM_NUM>  (440) 
fragi: 9  fragj: 12

>  <atom.prop.CHAIN_ID>  (440) 
A A A A A A A A A Z Z Z Z Z Z Z Z Z Z Z Z

>  <atom.prop.IS_HEAVY_ATOM>  (440) 
1 0 0 0 1 1 0 0 1 1 0 0 0 1 0 1 1 1 0 0 0

>  <DIFUSE_FUNC_ATOM>  (440) 
n/a

>  <FINAL_SINGLE_POINT_ENERGY>  (440) 
0

>  <NONCOV_INTER_ENERGY_QM>  (440) 
0

>  <FF_Energy>  (440) 
10.48

>  <QM_Energy>  (440) 
24.17

>  <source>  (440) 
ACEM_nNMA_28

>  <Index>  (440) 
7612

$$$$
ACEM-pdb3ezo-A-ASN-228:NMA-pdb3ezo-A-HIE-88
     RDKit          3D

 21 19  0  0  0  0  0  0  0  0999 V2000
   -6.2015    0.2757    0.2672 C   0  0  0  0  0  0  0  0  0  0  0  0
   -6.4080   -0.6052    0.7041 H   0  0  0  0  0  0  0  0  0  0  0  0
   -6.2564    0.1628   -0.7302 H   0  0  0  0  0  0  0  0  0  0  0  0
   -6.9562    0.9994    0.5749 H   0  0  0  0  0  0  0  0  0  0  0  0
   -4.7792    0.6629    0.6251 C   0  0  0  0  0  0  0  0  0  0  0  0
   -3.8585   -0.2706    0.5885 N   0  0  0  0  0  0  0  0  0  0  0  0
   -4.1202   -1.2096    0.3186 H   0  0  0  0  0  0  0  0  0  0  0  0
   -2.9112   -0.0694    0.8186 H   0  0  0  0  0  0  0  0  0  0  0  0
   -4.5389    1.8116    0.9905 O   0  0  0  0  0  0  0  0  0  0  0  0
   -1.2568   -2.1664   -0.0686 C   0  0  0  0  0  0  0  0  0  0  0  0
   -2.2201   -2.4156   -0.0261 H   0  0  0  0  0  0  0  0  0  0  0  0
   -0.7644   -2.5871    0.8082 H   0  0  0  0  0  0  0  0  0  0  0  0
   -0.9212   -2.5406   -1.0358 H   0  0  0  0  0  0  0  0  0  0  0  0
   -1.1539   -0.7125    0.0000 N   0  0  0  0  0  0  0  0  0  0  0  0
   -2.0112   -0.0861    0.0568 H   0  0  0  0  0  0  0  0  0  0  0  0
    0.0000    0.0000    0.0000 C   0  0  0  0  0  0  0  0  0  0  0  0
    1.1539   -0.4928    0.0000 O   0  0  0  0  0  0  0  0  0  0  0  0
   -0.2036    1.5233    0.0349 C   0  0  0  0  0  0  0  0  0  0  0  0
   -1.1668    1.7078   -0.1609 H   0  0  0  0  0  0  0  0  0  0  0  0
    0.0359    1.8956    1.0309 H   0  0  0  0  0  0  0  0  0  0  0  0
    0.4157    2.0402   -0.6982 H   0  0  0  0  0  0  0  0  0  0  0  0
  1  5  1  0
  5  6  1  0
  5  9  2  0
  1  2  1  0
  1  3  1  0
  1  4  1  0
  6  7  1  0
  6  8  1  0
 10 14  1  0
 14 16  1  0
 16 17  2  0
 16 18  1  0
 10 11  1  0
 10 12  1  0
 10 13  1  0
 14 15  1  0
 18 19  1  0
 18 20  1  0
 18 21  1  0
M  END
>  <PDB_ID>  (441) 
pdb3ezo

>  <RESIDUE_NAME>  (441) 
ASN   HIE

>  <FRAG_NAME>  (441) 
ACEM   NMA

>  <FRAG_ATOM_NUM>  (441) 
fragi: 9  fragj: 12

>  <atom.prop.CHAIN_ID>  (441) 
A A A A A A A A A Z Z Z Z Z Z Z Z Z Z Z Z

>  <atom.prop.IS_HEAVY_ATOM>  (441) 
1 0 0 0 1 1 0 0 1 1 0 0 0 1 0 1 1 1 0 0 0

>  <DIFUSE_FUNC_ATOM>  (441) 
n/a

>  <FINAL_SINGLE_POINT_ENERGY>  (441) 
0

>  <NONCOV_INTER_ENERGY_QM>  (441) 
0

>  <FF_Energy>  (441) 
4.72

>  <QM_Energy>  (441) 
15.2

>  <source>  (441) 
ACEM_nNMA_28

>  <Index>  (441) 
7896

$$$$
ACEM-pdb4agr-A-GLN-131:NMA-pdb4agr-A-TRP-50
     RDKit          3D

 21 19  0  0  0  0  0  0  0  0999 V2000
   -5.4468    1.8422   -0.6187 C   0  0  0  0  0  0  0  0  0  0  0  0
   -6.2121    1.6431   -0.0071 H   0  0  0  0  0  0  0  0  0  0  0  0
   -5.6626    1.5204   -1.5407 H   0  0  0  0  0  0  0  0  0  0  0  0
   -5.2972    2.9213   -0.6513 H   0  0  0  0  0  0  0  0  0  0  0  0
   -4.2173    1.0687   -0.1152 C   0  0  0  0  0  0  0  0  0  0  0  0
   -3.3762    0.6648   -1.0370 N   0  0  0  0  0  0  0  0  0  0  0  0
   -2.5265    0.1560   -0.7810 H   0  0  0  0  0  0  0  0  0  0  0  0
   -3.5731    0.8608   -2.0177 H   0  0  0  0  0  0  0  0  0  0  0  0
   -4.0477    0.8205    1.0929 O   0  0  0  0  0  0  0  0  0  0  0  0
   -1.2145   -2.1547   -0.0707 C   0  0  0  0  0  0  0  0  0  0  0  0
   -2.1816   -2.4359    0.0215 H   0  0  0  0  0  0  0  0  0  0  0  0
   -0.6338   -2.6308    0.7193 H   0  0  0  0  0  0  0  0  0  0  0  0
   -0.8348   -2.5173   -1.0259 H   0  0  0  0  0  0  0  0  0  0  0  0
   -1.1475   -0.6911    0.0000 N   0  0  0  0  0  0  0  0  0  0  0  0
   -2.0041   -0.0880    0.0558 H   0  0  0  0  0  0  0  0  0  0  0  0
    0.0000    0.0000    0.0000 C   0  0  0  0  0  0  0  0  0  0  0  0
    1.1475   -0.5262    0.0000 O   0  0  0  0  0  0  0  0  0  0  0  0
   -0.1613    1.5019   -0.0006 C   0  0  0  0  0  0  0  0  0  0  0  0
   -1.0892    1.7098   -0.3534 H   0  0  0  0  0  0  0  0  0  0  0  0
   -0.0810    1.9271    0.9998 H   0  0  0  0  0  0  0  0  0  0  0  0
    0.5862    1.9485   -0.6563 H   0  0  0  0  0  0  0  0  0  0  0  0
  1  5  1  0
  5  6  1  0
  5  9  2  0
  1  2  1  0
  1  3  1  0
  1  4  1  0
  6  7  1  0
  6  8  1  0
 10 14  1  0
 14 16  1  0
 16 17  2  0
 16 18  1  0
 10 11  1  0
 10 12  1  0
 10 13  1  0
 14 15  1  0
 18 19  1  0
 18 20  1  0
 18 21  1  0
M  END
>  <PDB_ID>  (442) 
pdb4agr

>  <RESIDUE_NAME>  (442) 
GLN   TRP

>  <FRAG_NAME>  (442) 
ACEM   NMA

>  <FRAG_ATOM_NUM>  (442) 
fragi: 9  fragj: 12

>  <atom.prop.CHAIN_ID>  (442) 
A A A A A A A A A Z Z Z Z Z Z Z Z Z Z Z Z

>  <atom.prop.IS_HEAVY_ATOM>  (442) 
1 0 0 0 1 1 0 0 1 1 0 0 0 1 0 1 1 1 0 0 0

>  <DIFUSE_FUNC_ATOM>  (442) 
n/a

>  <FINAL_SINGLE_POINT_ENERGY>  (442) 
0

>  <NONCOV_INTER_ENERGY_QM>  (442) 
0

>  <FF_Energy>  (442) 
6.82

>  <QM_Energy>  (442) 
22.05

>  <source>  (442) 
ACEM_nNMA_28

>  <Index>  (442) 
8717

$$$$
ACEM-pdb4agr-B-GLN-131:NMA-pdb4agr-B-TRP-50
     RDKit          3D

 21 19  0  0  0  0  0  0  0  0999 V2000
   -5.1364    2.1321   -1.4800 C   0  0  0  0  0  0  0  0  0  0  0  0
   -6.0582    1.7755   -1.3287 H   0  0  0  0  0  0  0  0  0  0  0  0
   -4.8803    2.0004   -2.4375 H   0  0  0  0  0  0  0  0  0  0  0  0
   -5.1315    3.1993   -1.2583 H   0  0  0  0  0  0  0  0  0  0  0  0
   -4.1639    1.3317   -0.6088 C   0  0  0  0  0  0  0  0  0  0  0  0
   -3.2596    0.5880   -1.2478 N   0  0  0  0  0  0  0  0  0  0  0  0
   -2.5804    0.0470   -0.7349 H   0  0  0  0  0  0  0  0  0  0  0  0
   -3.2706    0.5778   -2.2669 H   0  0  0  0  0  0  0  0  0  0  0  0
   -4.2318    1.3801    0.6272 O   0  0  0  0  0  0  0  0  0  0  0  0
   -1.2067   -2.1314   -0.0957 C   0  0  0  0  0  0  0  0  0  0  0  0
   -2.1698   -2.4179   -0.0455 H   0  0  0  0  0  0  0  0  0  0  0  0
   -0.6597   -2.5940    0.7259 H   0  0  0  0  0  0  0  0  0  0  0  0
   -0.8348   -2.4591   -1.0664 H   0  0  0  0  0  0  0  0  0  0  0  0
   -1.1444   -0.6760    0.0000 N   0  0  0  0  0  0  0  0  0  0  0  0
   -1.9985   -0.0750    0.0749 H   0  0  0  0  0  0  0  0  0  0  0  0
    0.0000    0.0000    0.0000 C   0  0  0  0  0  0  0  0  0  0  0  0
    1.1444   -0.5286   -0.0000 O   0  0  0  0  0  0  0  0  0  0  0  0
   -0.1601    1.4828   -0.1021 C   0  0  0  0  0  0  0  0  0  0  0  0
   -1.1103    1.6708   -0.4646 H   0  0  0  0  0  0  0  0  0  0  0  0
   -0.0500    2.0531    0.8203 H   0  0  0  0  0  0  0  0  0  0  0  0
    0.5723    1.8275   -0.8321 H   0  0  0  0  0  0  0  0  0  0  0  0
  1  5  1  0
  5  6  1  0
  5  9  2  0
  1  2  1  0
  1  3  1  0
  1  4  1  0
  6  7  1  0
  6  8  1  0
 10 14  1  0
 14 16  1  0
 16 17  2  0
 16 18  1  0
 10 11  1  0
 10 12  1  0
 10 13  1  0
 14 15  1  0
 18 19  1  0
 18 20  1  0
 18 21  1  0
M  END
>  <PDB_ID>  (443) 
pdb4agr

>  <RESIDUE_NAME>  (443) 
GLN   TRP

>  <FRAG_NAME>  (443) 
ACEM   NMA

>  <FRAG_ATOM_NUM>  (443) 
fragi: 9  fragj: 12

>  <atom.prop.CHAIN_ID>  (443) 
A A A A A A A A A Z Z Z Z Z Z Z Z Z Z Z Z

>  <atom.prop.IS_HEAVY_ATOM>  (443) 
1 0 0 0 1 1 0 0 1 1 0 0 0 1 0 1 1 1 0 0 0

>  <DIFUSE_FUNC_ATOM>  (443) 
n/a

>  <FINAL_SINGLE_POINT_ENERGY>  (443) 
0

>  <NONCOV_INTER_ENERGY_QM>  (443) 
0

>  <FF_Energy>  (443) 
8.17

>  <QM_Energy>  (443) 
24.72

>  <source>  (443) 
ACEM_nNMA_28

>  <Index>  (443) 
9703

$$$$
ACEM-pdb3eyf-D-ASN-209:NMA-pdb3eyf-D-ASN-167
     RDKit          3D

 21 19  0  0  0  0  0  0  0  0999 V2000
   -6.0459   -0.6921    0.4078 C   0  0  0  0  0  0  0  0  0  0  0  0
   -6.1072   -1.3173    1.1824 H   0  0  0  0  0  0  0  0  0  0  0  0
   -6.3751   -1.1430   -0.4191 H   0  0  0  0  0  0  0  0  0  0  0  0
   -6.6905    0.1635    0.6087 H   0  0  0  0  0  0  0  0  0  0  0  0
   -4.6021   -0.3035    0.2085 C   0  0  0  0  0  0  0  0  0  0  0  0
   -3.6996   -0.9237    0.9517 N   0  0  0  0  0  0  0  0  0  0  0  0
   -3.9973   -1.6240    1.6078 H   0  0  0  0  0  0  0  0  0  0  0  0
   -2.7319   -0.7019    0.8644 H   0  0  0  0  0  0  0  0  0  0  0  0
   -4.3022    0.5158   -0.6345 O   0  0  0  0  0  0  0  0  0  0  0  0
   -1.1625   -2.1166   -0.3579 C   0  0  0  0  0  0  0  0  0  0  0  0
   -2.1610   -2.4100   -0.3488 H   0  0  0  0  0  0  0  0  0  0  0  0
   -0.6071   -2.8265    0.2550 H   0  0  0  0  0  0  0  0  0  0  0  0
   -0.9330   -2.1893   -1.4210 H   0  0  0  0  0  0  0  0  0  0  0  0
   -1.1246   -0.7093    0.0000 N   0  0  0  0  0  0  0  0  0  0  0  0
   -1.9743   -0.1671    0.2787 H   0  0  0  0  0  0  0  0  0  0  0  0
    0.0000    0.0000    0.0000 C   0  0  0  0  0  0  0  0  0  0  0  0
    1.1246   -0.5051    0.0000 O   0  0  0  0  0  0  0  0  0  0  0  0
   -0.1925    1.4762    0.2596 C   0  0  0  0  0  0  0  0  0  0  0  0
   -0.6864    1.8632   -0.5494 H   0  0  0  0  0  0  0  0  0  0  0  0
   -0.7925    1.7189    1.1367 H   0  0  0  0  0  0  0  0  0  0  0  0
    0.7673    1.9902    0.2090 H   0  0  0  0  0  0  0  0  0  0  0  0
  1  5  1  0
  5  6  1  0
  5  9  2  0
  1  2  1  0
  1  3  1  0
  1  4  1  0
  6  7  1  0
  6  8  1  0
 10 14  1  0
 14 16  1  0
 16 17  2  0
 16 18  1  0
 10 11  1  0
 10 12  1  0
 10 13  1  0
 14 15  1  0
 18 19  1  0
 18 20  1  0
 18 21  1  0
M  END
>  <PDB_ID>  (444) 
pdb3eyf

>  <RESIDUE_NAME>  (444) 
ASN   ASN

>  <FRAG_NAME>  (444) 
ACEM   NMA

>  <FRAG_ATOM_NUM>  (444) 
fragi: 9  fragj: 12

>  <atom.prop.CHAIN_ID>  (444) 
A A A A A A A A A Z Z Z Z Z Z Z Z Z Z Z Z

>  <atom.prop.IS_HEAVY_ATOM>  (444) 
1 0 0 0 1 1 0 0 1 1 0 0 0 1 0 1 1 1 0 0 0

>  <DIFUSE_FUNC_ATOM>  (444) 
n/a

>  <FINAL_SINGLE_POINT_ENERGY>  (444) 
0

>  <NONCOV_INTER_ENERGY_QM>  (444) 
0

>  <FF_Energy>  (444) 
6.28

>  <QM_Energy>  (444) 
18.89

>  <source>  (444) 
ACEM_nNMA_28

>  <Index>  (444) 
10660

$$$$
ACEM-pdb3f1y-A-ASN-52:NMA-pdb3f1y-A-SER-84
     RDKit          3D

 21 19  0  0  0  0  0  0  0  0999 V2000
   -4.9953    2.3120   -1.6575 C   0  0  0  0  0  0  0  0  0  0  0  0
   -5.5463    3.0424   -1.2669 H   0  0  0  0  0  0  0  0  0  0  0  0
   -5.5713    1.6768   -2.1632 H   0  0  0  0  0  0  0  0  0  0  0  0
   -4.2838    2.7556   -2.3540 H   0  0  0  0  0  0  0  0  0  0  0  0
   -4.3102    1.5655   -0.5378 C   0  0  0  0  0  0  0  0  0  0  0  0
   -3.3033    0.7877   -0.8892 N   0  0  0  0  0  0  0  0  0  0  0  0
   -3.0236    0.7177   -1.8478 H   0  0  0  0  0  0  0  0  0  0  0  0
   -2.8079    0.2589   -0.1931 H   0  0  0  0  0  0  0  0  0  0  0  0
   -4.6807    1.6867    0.6323 O   0  0  0  0  0  0  0  0  0  0  0  0
   -1.0433   -2.1666   -0.1058 C   0  0  0  0  0  0  0  0  0  0  0  0
   -0.0940   -2.4798    0.0771 H   0  0  0  0  0  0  0  0  0  0  0  0
   -1.3566   -2.5400   -1.0808 H   0  0  0  0  0  0  0  0  0  0  0  0
   -1.5925   -2.6277    0.7151 H   0  0  0  0  0  0  0  0  0  0  0  0
   -1.1108   -0.7198    0.0000 N   0  0  0  0  0  0  0  0  0  0  0  0
   -1.9875   -0.1855    0.0782 H   0  0  0  0  0  0  0  0  0  0  0  0
    0.0000    0.0000    0.0000 C   0  0  0  0  0  0  0  0  0  0  0  0
    1.1108   -0.5090   -0.0000 O   0  0  0  0  0  0  0  0  0  0  0  0
   -0.1661    1.5124   -0.0538 C   0  0  0  0  0  0  0  0  0  0  0  0
   -1.0334    1.7503    0.4107 H   0  0  0  0  0  0  0  0  0  0  0  0
    0.6352    2.0439    0.4595 H   0  0  0  0  0  0  0  0  0  0  0  0
   -0.2505    1.8256   -1.0944 H   0  0  0  0  0  0  0  0  0  0  0  0
  1  5  1  0
  5  6  1  0
  5  9  2  0
  1  2  1  0
  1  3  1  0
  1  4  1  0
  6  7  1  0
  6  8  1  0
 10 14  1  0
 14 16  1  0
 16 17  2  0
 16 18  1  0
 10 11  1  0
 10 12  1  0
 10 13  1  0
 14 15  1  0
 18 19  1  0
 18 20  1  0
 18 21  1  0
M  END
>  <PDB_ID>  (445) 
pdb3f1y

>  <RESIDUE_NAME>  (445) 
ASN   SER

>  <FRAG_NAME>  (445) 
ACEM   NMA

>  <FRAG_ATOM_NUM>  (445) 
fragi: 9  fragj: 12

>  <atom.prop.CHAIN_ID>  (445) 
A A A A A A A A A Z Z Z Z Z Z Z Z Z Z Z Z

>  <atom.prop.IS_HEAVY_ATOM>  (445) 
1 0 0 0 1 1 0 0 1 1 0 0 0 1 0 1 1 1 0 0 0

>  <DIFUSE_FUNC_ATOM>  (445) 
n/a

>  <FINAL_SINGLE_POINT_ENERGY>  (445) 
0

>  <NONCOV_INTER_ENERGY_QM>  (445) 
0

>  <FF_Energy>  (445) 
10.34

>  <QM_Energy>  (445) 
28.63

>  <source>  (445) 
ACEM_nNMA_28

>  <Index>  (445) 
11373

$$$$
ACEM-pdb3f4c-A-GLN-132:NMA-pdb3f4c-A-PRO-129
     RDKit          3D

 21 19  0  0  0  0  0  0  0  0999 V2000
   -6.3273   -0.3618    0.7264 C   0  0  0  0  0  0  0  0  0  0  0  0
   -7.0634   -0.0293    0.1315 H   0  0  0  0  0  0  0  0  0  0  0  0
   -6.4500    0.0261    1.6439 H   0  0  0  0  0  0  0  0  0  0  0  0
   -6.4308   -1.4438    0.8083 H   0  0  0  0  0  0  0  0  0  0  0  0
   -4.9707    0.1516    0.1558 C   0  0  0  0  0  0  0  0  0  0  0  0
   -3.8893   -0.6184    0.4006 N   0  0  0  0  0  0  0  0  0  0  0  0
   -2.9952   -0.3481    0.0478 H   0  0  0  0  0  0  0  0  0  0  0  0
   -4.0183   -1.4638    0.9453 H   0  0  0  0  0  0  0  0  0  0  0  0
   -4.9011    1.1892   -0.5133 O   0  0  0  0  0  0  0  0  0  0  0  0
   -1.1424   -2.1522    0.0630 C   0  0  0  0  0  0  0  0  0  0  0  0
   -1.6815   -2.5264   -0.6947 H   0  0  0  0  0  0  0  0  0  0  0  0
   -0.2055   -2.5029    0.0037 H   0  0  0  0  0  0  0  0  0  0  0  0
   -1.5831   -2.4784    1.0051 H   0  0  0  0  0  0  0  0  0  0  0  0
   -1.1351   -0.7051    0.0000 N   0  0  0  0  0  0  0  0  0  0  0  0
   -1.9994   -0.1241   -0.0483 H   0  0  0  0  0  0  0  0  0  0  0  0
    0.0000    0.0000    0.0000 C   0  0  0  0  0  0  0  0  0  0  0  0
    1.1351   -0.5093    0.0000 O   0  0  0  0  0  0  0  0  0  0  0  0
   -0.1766    1.5099   -0.0188 C   0  0  0  0  0  0  0  0  0  0  0  0
   -1.1533    1.7612    0.0881 H   0  0  0  0  0  0  0  0  0  0  0  0
    0.4249    2.0174    0.7354 H   0  0  0  0  0  0  0  0  0  0  0  0
    0.1546    1.9606   -0.9542 H   0  0  0  0  0  0  0  0  0  0  0  0
  1  5  1  0
  5  6  1  0
  5  9  2  0
  1  2  1  0
  1  3  1  0
  1  4  1  0
  6  7  1  0
  6  8  1  0
 10 14  1  0
 14 16  1  0
 16 17  2  0
 16 18  1  0
 10 11  1  0
 10 12  1  0
 10 13  1  0
 14 15  1  0
 18 19  1  0
 18 20  1  0
 18 21  1  0
M  END
>  <PDB_ID>  (446) 
pdb3f4c

>  <RESIDUE_NAME>  (446) 
GLN   PRO

>  <FRAG_NAME>  (446) 
ACEM   NMA

>  <FRAG_ATOM_NUM>  (446) 
fragi: 9  fragj: 12

>  <atom.prop.CHAIN_ID>  (446) 
A A A A A A A A A Z Z Z Z Z Z Z Z Z Z Z Z

>  <atom.prop.IS_HEAVY_ATOM>  (446) 
1 0 0 0 1 1 0 0 1 1 0 0 0 1 0 1 1 1 0 0 0

>  <DIFUSE_FUNC_ATOM>  (446) 
n/a

>  <FINAL_SINGLE_POINT_ENERGY>  (446) 
0

>  <NONCOV_INTER_ENERGY_QM>  (446) 
0

>  <FF_Energy>  (446) 
8.72

>  <QM_Energy>  (446) 
24.18

>  <source>  (446) 
ACEM_nNMA_28

>  <Index>  (446) 
13515

$$$$
ACEM-pdb3f4c-B-GLN-132:NMA-pdb3f4c-B-PRO-129
     RDKit          3D

 21 19  0  0  0  0  0  0  0  0999 V2000
   -6.0104   -0.1602    1.1559 C   0  0  0  0  0  0  0  0  0  0  0  0
   -6.8249    0.3316    0.8503 H   0  0  0  0  0  0  0  0  0  0  0  0
   -5.8156    0.0750    2.1072 H   0  0  0  0  0  0  0  0  0  0  0  0
   -6.2151   -1.2294    1.1014 H   0  0  0  0  0  0  0  0  0  0  0  0
   -4.8124    0.3031    0.2876 C   0  0  0  0  0  0  0  0  0  0  0  0
   -3.8250   -0.5981    0.0937 N   0  0  0  0  0  0  0  0  0  0  0  0
   -3.0347   -0.3628   -0.4684 H   0  0  0  0  0  0  0  0  0  0  0  0
   -3.9183   -1.5079    0.5344 H   0  0  0  0  0  0  0  0  0  0  0  0
   -4.7891    1.4309   -0.2209 O   0  0  0  0  0  0  0  0  0  0  0  0
   -1.1041   -2.1478    0.0740 C   0  0  0  0  0  0  0  0  0  0  0  0
   -1.6394   -2.5391   -0.6817 H   0  0  0  0  0  0  0  0  0  0  0  0
   -0.1590   -2.4852    0.0042 H   0  0  0  0  0  0  0  0  0  0  0  0
   -1.5299   -2.4854    1.0189 H   0  0  0  0  0  0  0  0  0  0  0  0
   -1.1227   -0.7068   -0.0000 N   0  0  0  0  0  0  0  0  0  0  0  0
   -1.9919   -0.1402   -0.0569 H   0  0  0  0  0  0  0  0  0  0  0  0
    0.0000    0.0000    0.0000 C   0  0  0  0  0  0  0  0  0  0  0  0
    1.1227   -0.5017   -0.0000 O   0  0  0  0  0  0  0  0  0  0  0  0
   -0.1734    1.5109   -0.0270 C   0  0  0  0  0  0  0  0  0  0  0  0
   -1.1367    1.7667    0.0813 H   0  0  0  0  0  0  0  0  0  0  0  0
    0.4350    1.9720    0.7510 H   0  0  0  0  0  0  0  0  0  0  0  0
    0.2199    1.9411   -0.9481 H   0  0  0  0  0  0  0  0  0  0  0  0
  1  5  1  0
  5  6  1  0
  5  9  2  0
  1  2  1  0
  1  3  1  0
  1  4  1  0
  6  7  1  0
  6  8  1  0
 10 14  1  0
 14 16  1  0
 16 17  2  0
 16 18  1  0
 10 11  1  0
 10 12  1  0
 10 13  1  0
 14 15  1  0
 18 19  1  0
 18 20  1  0
 18 21  1  0
M  END
>  <PDB_ID>  (447) 
pdb3f4c

>  <RESIDUE_NAME>  (447) 
GLN   PRO

>  <FRAG_NAME>  (447) 
ACEM   NMA

>  <FRAG_ATOM_NUM>  (447) 
fragi: 9  fragj: 12

>  <atom.prop.CHAIN_ID>  (447) 
A A A A A A A A A Z Z Z Z Z Z Z Z Z Z Z Z

>  <atom.prop.IS_HEAVY_ATOM>  (447) 
1 0 0 0 1 1 0 0 1 1 0 0 0 1 0 1 1 1 0 0 0

>  <DIFUSE_FUNC_ATOM>  (447) 
n/a

>  <FINAL_SINGLE_POINT_ENERGY>  (447) 
0

>  <NONCOV_INTER_ENERGY_QM>  (447) 
0

>  <FF_Energy>  (447) 
7.93

>  <QM_Energy>  (447) 
18.58

>  <source>  (447) 
ACEM_nNMA_28

>  <Index>  (447) 
16541

$$$$
ACEM-pdb3f7b-A-ASN-32:NMA-pdb3f7b-A-ASP-110
     RDKit          3D

 21 19  0  0  0  0  0  0  0  0999 V2000
   -5.8866   -0.4750   -1.2784 C   0  0  0  0  0  0  0  0  0  0  0  0
   -5.9336   -1.4403   -1.0535 H   0  0  0  0  0  0  0  0  0  0  0  0
   -6.2707   -0.3024   -2.1766 H   0  0  0  0  0  0  0  0  0  0  0  0
   -6.5104    0.0527   -0.5569 H   0  0  0  0  0  0  0  0  0  0  0  0
   -4.4427   -0.0179   -1.2489 C   0  0  0  0  0  0  0  0  0  0  0  0
   -3.7292   -0.2827   -0.1296 N   0  0  0  0  0  0  0  0  0  0  0  0
   -4.1880   -0.7693    0.6158 H   0  0  0  0  0  0  0  0  0  0  0  0
   -2.7888    0.0008   -0.0636 H   0  0  0  0  0  0  0  0  0  0  0  0
   -3.9492    0.5516   -2.2284 O   0  0  0  0  0  0  0  0  0  0  0  0
   -1.0357   -2.1683   -0.0230 C   0  0  0  0  0  0  0  0  0  0  0  0
   -1.9801   -2.5410   -0.3441 H   0  0  0  0  0  0  0  0  0  0  0  0
   -0.4332   -2.4457   -0.8562 H   0  0  0  0  0  0  0  0  0  0  0  0
   -0.7144   -2.7528    0.8390 H   0  0  0  0  0  0  0  0  0  0  0  0
   -1.1170   -0.7325    0.0000 N   0  0  0  0  0  0  0  0  0  0  0  0
   -1.9930   -0.1915    0.0179 H   0  0  0  0  0  0  0  0  0  0  0  0
    0.0000    0.0000    0.0000 C   0  0  0  0  0  0  0  0  0  0  0  0
    1.1170   -0.5101   -0.0000 O   0  0  0  0  0  0  0  0  0  0  0  0
   -0.1768    1.5163    0.1613 C   0  0  0  0  0  0  0  0  0  0  0  0
   -0.5470    1.8650   -0.6927 H   0  0  0  0  0  0  0  0  0  0  0  0
   -0.9316    1.7011    0.9256 H   0  0  0  0  0  0  0  0  0  0  0  0
    0.7600    2.0056    0.4278 H   0  0  0  0  0  0  0  0  0  0  0  0
  1  5  1  0
  5  6  1  0
  5  9  2  0
  1  2  1  0
  1  3  1  0
  1  4  1  0
  6  7  1  0
  6  8  1  0
 10 14  1  0
 14 16  1  0
 16 17  2  0
 16 18  1  0
 10 11  1  0
 10 12  1  0
 10 13  1  0
 14 15  1  0
 18 19  1  0
 18 20  1  0
 18 21  1  0
M  END
>  <PDB_ID>  (448) 
pdb3f7b

>  <RESIDUE_NAME>  (448) 
ASN   ASP

>  <FRAG_NAME>  (448) 
ACEM   NMA

>  <FRAG_ATOM_NUM>  (448) 
fragi: 9  fragj: 12

>  <atom.prop.CHAIN_ID>  (448) 
A A A A A A A A A Z Z Z Z Z Z Z Z Z Z Z Z

>  <atom.prop.IS_HEAVY_ATOM>  (448) 
1 0 0 0 1 1 0 0 1 1 0 0 0 1 0 1 1 1 0 0 0

>  <DIFUSE_FUNC_ATOM>  (448) 
n/a

>  <FINAL_SINGLE_POINT_ENERGY>  (448) 
0

>  <NONCOV_INTER_ENERGY_QM>  (448) 
0

>  <FF_Energy>  (448) 
18.38

>  <QM_Energy>  (448) 
49.24

>  <source>  (448) 
ACEM_nNMA_28

>  <Index>  (448) 
17281

$$$$
ACEM-pdb3f7o-A-GLN-65:NMA-pdb3f7o-A-ASP-100
     RDKit          3D

 21 19  0  0  0  0  0  0  0  0999 V2000
   -5.2637    1.8599    1.5449 C   0  0  0  0  0  0  0  0  0  0  0  0
   -6.1031    1.3303    1.6337 H   0  0  0  0  0  0  0  0  0  0  0  0
   -5.4589    2.7431    1.1271 H   0  0  0  0  0  0  0  0  0  0  0  0
   -4.8362    2.0197    2.5348 H   0  0  0  0  0  0  0  0  0  0  0  0
   -4.3100    1.1039    0.6527 C   0  0  0  0  0  0  0  0  0  0  0  0
   -3.1361    0.7791    1.1775 N   0  0  0  0  0  0  0  0  0  0  0  0
   -2.4462    0.2567    0.6413 H   0  0  0  0  0  0  0  0  0  0  0  0
   -2.9298    1.0622    2.1362 H   0  0  0  0  0  0  0  0  0  0  0  0
   -4.6215    0.8229   -0.5007 O   0  0  0  0  0  0  0  0  0  0  0  0
   -1.0042   -2.1669    0.1237 C   0  0  0  0  0  0  0  0  0  0  0  0
   -0.3029   -2.3423    0.8631 H   0  0  0  0  0  0  0  0  0  0  0  0
   -0.6867   -2.7253   -0.7570 H   0  0  0  0  0  0  0  0  0  0  0  0
   -1.9100   -2.6025    0.5455 H   0  0  0  0  0  0  0  0  0  0  0  0
   -1.1185   -0.7186   -0.0000 N   0  0  0  0  0  0  0  0  0  0  0  0
   -1.9888   -0.2071   -0.0870 H   0  0  0  0  0  0  0  0  0  0  0  0
    0.0000    0.0000    0.0000 C   0  0  0  0  0  0  0  0  0  0  0  0
    1.1185   -0.5239    0.0000 O   0  0  0  0  0  0  0  0  0  0  0  0
   -0.1534    1.5184   -0.0174 C   0  0  0  0  0  0  0  0  0  0  0  0
   -0.5896    1.7821    0.8483 H   0  0  0  0  0  0  0  0  0  0  0  0
    0.8226    2.0030   -0.0441 H   0  0  0  0  0  0  0  0  0  0  0  0
   -0.7964    1.8346   -0.8388 H   0  0  0  0  0  0  0  0  0  0  0  0
  1  5  1  0
  5  6  1  0
  5  9  2  0
  1  2  1  0
  1  3  1  0
  1  4  1  0
  6  7  1  0
  6  8  1  0
 10 14  1  0
 14 16  1  0
 16 17  2  0
 16 18  1  0
 10 11  1  0
 10 12  1  0
 10 13  1  0
 14 15  1  0
 18 19  1  0
 18 20  1  0
 18 21  1  0
M  END
>  <PDB_ID>  (449) 
pdb3f7o

>  <RESIDUE_NAME>  (449) 
GLN   ASP

>  <FRAG_NAME>  (449) 
ACEM   NMA

>  <FRAG_ATOM_NUM>  (449) 
fragi: 9  fragj: 12

>  <atom.prop.CHAIN_ID>  (449) 
A A A A A A A A A Z Z Z Z Z Z Z Z Z Z Z Z

>  <atom.prop.IS_HEAVY_ATOM>  (449) 
1 0 0 0 1 1 0 0 1 1 0 0 0 1 0 1 1 1 0 0 0

>  <DIFUSE_FUNC_ATOM>  (449) 
n/a

>  <FINAL_SINGLE_POINT_ENERGY>  (449) 
0

>  <NONCOV_INTER_ENERGY_QM>  (449) 
0

>  <FF_Energy>  (449) 
10.54

>  <QM_Energy>  (449) 
27.36

>  <source>  (449) 
ACEM_nNMA_28

>  <Index>  (449) 
17840

$$$$
ACEM-pdb4as2-B-GLN-305:NMA-pdb4as2-B-THR-313
     RDKit          3D

 21 19  0  0  0  0  0  0  0  0999 V2000
   -5.5715    0.5528    2.0941 C   0  0  0  0  0  0  0  0  0  0  0  0
   -5.7350    1.0761    2.9231 H   0  0  0  0  0  0  0  0  0  0  0  0
   -5.9709   -0.3545    2.1706 H   0  0  0  0  0  0  0  0  0  0  0  0
   -6.0606    1.0683    1.2677 H   0  0  0  0  0  0  0  0  0  0  0  0
   -4.1031    0.4365    1.8566 C   0  0  0  0  0  0  0  0  0  0  0  0
   -3.6928    0.4231    0.5902 N   0  0  0  0  0  0  0  0  0  0  0  0
   -2.7064    0.3600    0.3518 H   0  0  0  0  0  0  0  0  0  0  0  0
   -4.3943    0.4774   -0.1509 H   0  0  0  0  0  0  0  0  0  0  0  0
   -3.3235    0.3457    2.8110 O   0  0  0  0  0  0  0  0  0  0  0  0
   -1.1273   -2.2219    0.1798 C   0  0  0  0  0  0  0  0  0  0  0  0
   -0.7170   -2.4278    1.0702 H   0  0  0  0  0  0  0  0  0  0  0  0
   -0.5410   -2.6898   -0.6112 H   0  0  0  0  0  0  0  0  0  0  0  0
   -2.1436   -2.6153    0.1593 H   0  0  0  0  0  0  0  0  0  0  0  0
   -1.1130   -0.7520    0.0000 N   0  0  0  0  0  0  0  0  0  0  0  0
   -1.9954   -0.1993   -0.1415 H   0  0  0  0  0  0  0  0  0  0  0  0
    0.0000    0.0000    0.0000 C   0  0  0  0  0  0  0  0  0  0  0  0
    1.1130   -0.4587    0.0000 O   0  0  0  0  0  0  0  0  0  0  0  0
   -0.1744    1.5033    0.0187 C   0  0  0  0  0  0  0  0  0  0  0  0
    0.4096    1.9059   -0.7115 H   0  0  0  0  0  0  0  0  0  0  0  0
   -1.2006    1.8253   -0.1580 H   0  0  0  0  0  0  0  0  0  0  0  0
    0.1971    1.8293    0.9902 H   0  0  0  0  0  0  0  0  0  0  0  0
  1  5  1  0
  5  6  1  0
  5  9  2  0
  1  2  1  0
  1  3  1  0
  1  4  1  0
  6  7  1  0
  6  8  1  0
 10 14  1  0
 14 16  1  0
 16 17  2  0
 16 18  1  0
 10 11  1  0
 10 12  1  0
 10 13  1  0
 14 15  1  0
 18 19  1  0
 18 20  1  0
 18 21  1  0
M  END
>  <PDB_ID>  (450) 
pdb4as2

>  <RESIDUE_NAME>  (450) 
GLN   THR

>  <FRAG_NAME>  (450) 
ACEM   NMA

>  <FRAG_ATOM_NUM>  (450) 
fragi: 9  fragj: 12

>  <atom.prop.CHAIN_ID>  (450) 
A A A A A A A A A Z Z Z Z Z Z Z Z Z Z Z Z

>  <atom.prop.IS_HEAVY_ATOM>  (450) 
1 0 0 0 1 1 0 0 1 1 0 0 0 1 0 1 1 1 0 0 0

>  <DIFUSE_FUNC_ATOM>  (450) 
n/a

>  <FINAL_SINGLE_POINT_ENERGY>  (450) 
0

>  <NONCOV_INTER_ENERGY_QM>  (450) 
0

>  <FF_Energy>  (450) 
10.14

>  <QM_Energy>  (450) 
23.15

>  <source>  (450) 
ACEM_nNMA_28

>  <Index>  (450) 
20865

$$$$
ACEM-pdb4arv-B-ASN-201:NMA-pdb4arv-B-GLY-204
     RDKit          3D

 21 19  0  0  0  0  0  0  0  0999 V2000
   -5.0684    1.0265   -2.8433 C   0  0  0  0  0  0  0  0  0  0  0  0
   -5.9474    1.3001   -2.4618 H   0  0  0  0  0  0  0  0  0  0  0  0
   -5.2076    0.4490   -3.6442 H   0  0  0  0  0  0  0  0  0  0  0  0
   -4.5538    1.9295   -3.1718 H   0  0  0  0  0  0  0  0  0  0  0  0
   -4.3009    0.2351   -1.7925 C   0  0  0  0  0  0  0  0  0  0  0  0
   -3.0632    0.7077   -1.4637 N   0  0  0  0  0  0  0  0  0  0  0  0
   -2.7361    1.5329   -1.9147 H   0  0  0  0  0  0  0  0  0  0  0  0
   -2.5222    0.2292   -0.7924 H   0  0  0  0  0  0  0  0  0  0  0  0
   -4.7759   -0.8056   -1.3009 O   0  0  0  0  0  0  0  0  0  0  0  0
   -1.1211   -2.1657    0.1332 C   0  0  0  0  0  0  0  0  0  0  0  0
   -0.1928   -2.4632    0.4161 H   0  0  0  0  0  0  0  0  0  0  0  0
   -1.3701   -2.6757   -0.7974 H   0  0  0  0  0  0  0  0  0  0  0  0
   -1.8283   -2.4747    0.9029 H   0  0  0  0  0  0  0  0  0  0  0  0
   -1.1217   -0.7176    0.0000 N   0  0  0  0  0  0  0  0  0  0  0  0
   -1.9935   -0.1527   -0.1032 H   0  0  0  0  0  0  0  0  0  0  0  0
    0.0000    0.0000    0.0000 C   0  0  0  0  0  0  0  0  0  0  0  0
    1.1217   -0.5059    0.0000 O   0  0  0  0  0  0  0  0  0  0  0  0
   -0.1551    1.4855   -0.1438 C   0  0  0  0  0  0  0  0  0  0  0  0
   -0.0583    1.7483   -1.1169 H   0  0  0  0  0  0  0  0  0  0  0  0
    0.5764    1.9587    0.3721 H   0  0  0  0  0  0  0  0  0  0  0  0
   -1.1234    1.8281    0.2210 H   0  0  0  0  0  0  0  0  0  0  0  0
  1  5  1  0
  5  6  1  0
  5  9  2  0
  1  2  1  0
  1  3  1  0
  1  4  1  0
  6  7  1  0
  6  8  1  0
 10 14  1  0
 14 16  1  0
 16 17  2  0
 16 18  1  0
 10 11  1  0
 10 12  1  0
 10 13  1  0
 14 15  1  0
 18 19  1  0
 18 20  1  0
 18 21  1  0
M  END
>  <PDB_ID>  (451) 
pdb4arv

>  <RESIDUE_NAME>  (451) 
ASN   GLY

>  <FRAG_NAME>  (451) 
ACEM   NMA

>  <FRAG_ATOM_NUM>  (451) 
fragi: 9  fragj: 12

>  <atom.prop.CHAIN_ID>  (451) 
A A A A A A A A A Z Z Z Z Z Z Z Z Z Z Z Z

>  <atom.prop.IS_HEAVY_ATOM>  (451) 
1 0 0 0 1 1 0 0 1 1 0 0 0 1 0 1 1 1 0 0 0

>  <DIFUSE_FUNC_ATOM>  (451) 
n/a

>  <FINAL_SINGLE_POINT_ENERGY>  (451) 
0

>  <NONCOV_INTER_ENERGY_QM>  (451) 
0

>  <FF_Energy>  (451) 
12.85

>  <QM_Energy>  (451) 
29.88

>  <source>  (451) 
ACEM_nNMA_28

>  <Index>  (451) 
20990

$$$$
ACEM-pdb4as2-B-GLN-325:NMA-pdb4as2-B-VAL-321
     RDKit          3D

 21 19  0  0  0  0  0  0  0  0999 V2000
   -5.3097    0.3738    0.3699 C   0  0  0  0  0  0  0  0  0  0  0  0
   -6.2475    0.7101    0.4497 H   0  0  0  0  0  0  0  0  0  0  0  0
   -5.2882   -0.6064    0.5641 H   0  0  0  0  0  0  0  0  0  0  0  0
   -4.9641    0.5372   -0.6508 H   0  0  0  0  0  0  0  0  0  0  0  0
   -4.4509    1.0880    1.3820 C   0  0  0  0  0  0  0  0  0  0  0  0
   -3.1337    0.8694    1.2846 N   0  0  0  0  0  0  0  0  0  0  0  0
   -2.4851    1.3277    1.9243 H   0  0  0  0  0  0  0  0  0  0  0  0
   -2.7943    0.2402    0.5652 H   0  0  0  0  0  0  0  0  0  0  0  0
   -4.9491    1.8336    2.2460 O   0  0  0  0  0  0  0  0  0  0  0  0
   -1.1192   -2.1144   -0.0890 C   0  0  0  0  0  0  0  0  0  0  0  0
   -0.1978   -2.4333   -0.0395 H   0  0  0  0  0  0  0  0  0  0  0  0
   -1.4861   -2.2949   -1.0994 H   0  0  0  0  0  0  0  0  0  0  0  0
   -1.7903   -2.5514    0.6504 H   0  0  0  0  0  0  0  0  0  0  0  0
   -1.1374   -0.6721    0.0000 N   0  0  0  0  0  0  0  0  0  0  0  0
   -1.9923   -0.1035    0.0660 H   0  0  0  0  0  0  0  0  0  0  0  0
    0.0000    0.0000    0.0000 C   0  0  0  0  0  0  0  0  0  0  0  0
    1.1374   -0.5704   -0.0000 O   0  0  0  0  0  0  0  0  0  0  0  0
   -0.1582    1.5120    0.0690 C   0  0  0  0  0  0  0  0  0  0  0  0
   -0.8422    1.7212    0.7755 H   0  0  0  0  0  0  0  0  0  0  0  0
    0.7816    1.9835    0.3566 H   0  0  0  0  0  0  0  0  0  0  0  0
   -0.5161    1.8763   -0.8939 H   0  0  0  0  0  0  0  0  0  0  0  0
  1  5  1  0
  5  6  1  0
  5  9  2  0
  1  2  1  0
  1  3  1  0
  1  4  1  0
  6  7  1  0
  6  8  1  0
 10 14  1  0
 14 16  1  0
 16 17  2  0
 16 18  1  0
 10 11  1  0
 10 12  1  0
 10 13  1  0
 14 15  1  0
 18 19  1  0
 18 20  1  0
 18 21  1  0
M  END
>  <PDB_ID>  (452) 
pdb4as2

>  <RESIDUE_NAME>  (452) 
GLN   VAL

>  <FRAG_NAME>  (452) 
ACEM   NMA

>  <FRAG_ATOM_NUM>  (452) 
fragi: 9  fragj: 12

>  <atom.prop.CHAIN_ID>  (452) 
A A A A A A A A A Z Z Z Z Z Z Z Z Z Z Z Z

>  <atom.prop.IS_HEAVY_ATOM>  (452) 
1 0 0 0 1 1 0 0 1 1 0 0 0 1 0 1 1 1 0 0 0

>  <DIFUSE_FUNC_ATOM>  (452) 
n/a

>  <FINAL_SINGLE_POINT_ENERGY>  (452) 
0

>  <NONCOV_INTER_ENERGY_QM>  (452) 
0

>  <FF_Energy>  (452) 
12.2

>  <QM_Energy>  (452) 
27.52

>  <source>  (452) 
ACEM_nNMA_28

>  <Index>  (452) 
21022

$$$$
ACEM-pdb4b2n-A-GLN-606:NMA-pdb4b2n-A-ASN-236
     RDKit          3D

 21 19  0  0  0  0  0  0  0  0999 V2000
   -4.9778    2.4099   -0.9092 C   0  0  0  0  0  0  0  0  0  0  0  0
   -4.5025    3.0638   -1.4876 H   0  0  0  0  0  0  0  0  0  0  0  0
   -5.5969    2.8791   -0.2890 H   0  0  0  0  0  0  0  0  0  0  0  0
   -5.5616    1.7441   -1.5449 H   0  0  0  0  0  0  0  0  0  0  0  0
   -3.9580    1.6423   -0.0975 C   0  0  0  0  0  0  0  0  0  0  0  0
   -3.3168    0.6326   -0.7192 N   0  0  0  0  0  0  0  0  0  0  0  0
   -2.6176    0.0918   -0.2397 H   0  0  0  0  0  0  0  0  0  0  0  0
   -3.5635    0.4344   -1.6877 H   0  0  0  0  0  0  0  0  0  0  0  0
   -3.6959    1.9973    1.0551 O   0  0  0  0  0  0  0  0  0  0  0  0
   -1.1631   -2.1555   -0.3717 C   0  0  0  0  0  0  0  0  0  0  0  0
   -0.7910   -2.6860    0.3974 H   0  0  0  0  0  0  0  0  0  0  0  0
   -0.5598   -2.3701   -1.2538 H   0  0  0  0  0  0  0  0  0  0  0  0
   -2.1920   -2.4394   -0.5928 H   0  0  0  0  0  0  0  0  0  0  0  0
   -1.1298   -0.7121   -0.0000 N   0  0  0  0  0  0  0  0  0  0  0  0
   -1.9798   -0.1877    0.2771 H   0  0  0  0  0  0  0  0  0  0  0  0
    0.0000    0.0000    0.0000 C   0  0  0  0  0  0  0  0  0  0  0  0
    1.1298   -0.5362    0.0000 O   0  0  0  0  0  0  0  0  0  0  0  0
   -0.1558    1.5377   -0.0781 C   0  0  0  0  0  0  0  0  0  0  0  0
   -0.9082    1.7721    0.5528 H   0  0  0  0  0  0  0  0  0  0  0  0
    0.7466    2.0476    0.2593 H   0  0  0  0  0  0  0  0  0  0  0  0
   -0.3579    1.8467   -1.1037 H   0  0  0  0  0  0  0  0  0  0  0  0
  1  5  1  0
  5  6  1  0
  5  9  2  0
  1  2  1  0
  1  3  1  0
  1  4  1  0
  6  7  1  0
  6  8  1  0
 10 14  1  0
 14 16  1  0
 16 17  2  0
 16 18  1  0
 10 11  1  0
 10 12  1  0
 10 13  1  0
 14 15  1  0
 18 19  1  0
 18 20  1  0
 18 21  1  0
M  END
>  <PDB_ID>  (453) 
pdb4b2n

>  <RESIDUE_NAME>  (453) 
GLN   ASN

>  <FRAG_NAME>  (453) 
ACEM   NMA

>  <FRAG_ATOM_NUM>  (453) 
fragi: 9  fragj: 12

>  <atom.prop.CHAIN_ID>  (453) 
A A A A A A A A A Z Z Z Z Z Z Z Z Z Z Z Z

>  <atom.prop.IS_HEAVY_ATOM>  (453) 
1 0 0 0 1 1 0 0 1 1 0 0 0 1 0 1 1 1 0 0 0

>  <DIFUSE_FUNC_ATOM>  (453) 
n/a

>  <FINAL_SINGLE_POINT_ENERGY>  (453) 
0

>  <NONCOV_INTER_ENERGY_QM>  (453) 
0

>  <FF_Energy>  (453) 
14.14

>  <QM_Energy>  (453) 
41.11

>  <source>  (453) 
ACEM_nNMA_28

>  <Index>  (453) 
26617

$$$$
ACEM-pdb4b5q-B-ASN-199:NMA-pdb4b5q-A-ASP-120
     RDKit          3D

 21 19  0  0  0  0  0  0  0  0999 V2000
   -5.9153    0.7815    0.3839 C   0  0  0  0  0  0  0  0  0  0  0  0
   -6.0454   -0.1993    0.2849 H   0  0  0  0  0  0  0  0  0  0  0  0
   -6.2212    1.2569   -0.4351 H   0  0  0  0  0  0  0  0  0  0  0  0
   -6.5137    1.1263    1.2272 H   0  0  0  0  0  0  0  0  0  0  0  0
   -4.4288    1.0543    0.5744 C   0  0  0  0  0  0  0  0  0  0  0  0
   -3.6231   -0.0088    0.6389 N   0  0  0  0  0  0  0  0  0  0  0  0
   -4.0188   -0.9264    0.5551 H   0  0  0  0  0  0  0  0  0  0  0  0
   -2.6451    0.1101    0.7678 H   0  0  0  0  0  0  0  0  0  0  0  0
   -4.0075    2.2054    0.6365 O   0  0  0  0  0  0  0  0  0  0  0  0
   -1.1067   -2.1769    0.0464 C   0  0  0  0  0  0  0  0  0  0  0  0
   -0.1553   -2.4834    0.2198 H   0  0  0  0  0  0  0  0  0  0  0  0
   -1.4442   -2.6371   -0.8822 H   0  0  0  0  0  0  0  0  0  0  0  0
   -1.6788   -2.5596    0.8917 H   0  0  0  0  0  0  0  0  0  0  0  0
   -1.1198   -0.7154   -0.0000 N   0  0  0  0  0  0  0  0  0  0  0  0
   -1.9957   -0.1551   -0.0355 H   0  0  0  0  0  0  0  0  0  0  0  0
    0.0000    0.0000    0.0000 C   0  0  0  0  0  0  0  0  0  0  0  0
    1.1198   -0.5024   -0.0000 O   0  0  0  0  0  0  0  0  0  0  0  0
   -0.1648    1.5165    0.0085 C   0  0  0  0  0  0  0  0  0  0  0  0
   -1.1438    1.7037   -0.0046 H   0  0  0  0  0  0  0  0  0  0  0  0
    0.2291    1.8978    0.9507 H   0  0  0  0  0  0  0  0  0  0  0  0
    0.3451    1.9613   -0.8461 H   0  0  0  0  0  0  0  0  0  0  0  0
  1  5  1  0
  5  6  1  0
  5  9  2  0
  1  2  1  0
  1  3  1  0
  1  4  1  0
  6  7  1  0
  6  8  1  0
 10 14  1  0
 14 16  1  0
 16 17  2  0
 16 18  1  0
 10 11  1  0
 10 12  1  0
 10 13  1  0
 14 15  1  0
 18 19  1  0
 18 20  1  0
 18 21  1  0
M  END
>  <PDB_ID>  (454) 
pdb4b5q

>  <RESIDUE_NAME>  (454) 
ASN   ASP

>  <FRAG_NAME>  (454) 
ACEM   NMA

>  <FRAG_ATOM_NUM>  (454) 
fragi: 9  fragj: 12

>  <atom.prop.CHAIN_ID>  (454) 
A A A A A A A A A Z Z Z Z Z Z Z Z Z Z Z Z

>  <atom.prop.IS_HEAVY_ATOM>  (454) 
1 0 0 0 1 1 0 0 1 1 0 0 0 1 0 1 1 1 0 0 0

>  <DIFUSE_FUNC_ATOM>  (454) 
n/a

>  <FINAL_SINGLE_POINT_ENERGY>  (454) 
0

>  <NONCOV_INTER_ENERGY_QM>  (454) 
0

>  <FF_Energy>  (454) 
7.97

>  <QM_Energy>  (454) 
22.95

>  <source>  (454) 
ACEM_nNMA_28

>  <Index>  (454) 
27487

$$$$
ACEM-pdb3fie-A-GLN-404:NMA-pdb3fie-A-VAL-362
     RDKit          3D

 21 19  0  0  0  0  0  0  0  0999 V2000
   -5.7322    0.0630   -0.8477 C   0  0  0  0  0  0  0  0  0  0  0  0
   -5.8989    0.9378   -1.3011 H   0  0  0  0  0  0  0  0  0  0  0  0
   -5.9794    0.1338    0.1179 H   0  0  0  0  0  0  0  0  0  0  0  0
   -6.3596   -0.6967   -1.3139 H   0  0  0  0  0  0  0  0  0  0  0  0
   -4.2651   -0.2654   -0.9523 C   0  0  0  0  0  0  0  0  0  0  0  0
   -3.6964   -0.7490    0.1482 N   0  0  0  0  0  0  0  0  0  0  0  0
   -2.7085   -1.0092    0.1555 H   0  0  0  0  0  0  0  0  0  0  0  0
   -4.2597   -0.8575    0.9876 H   0  0  0  0  0  0  0  0  0  0  0  0
   -3.6452   -0.1091   -2.0155 O   0  0  0  0  0  0  0  0  0  0  0  0
   -1.0911   -2.1747   -0.0215 C   0  0  0  0  0  0  0  0  0  0  0  0
   -0.4403   -2.5029    0.6516 H   0  0  0  0  0  0  0  0  0  0  0  0
   -0.7503   -2.4760   -1.0120 H   0  0  0  0  0  0  0  0  0  0  0  0
   -2.0932   -2.5601    0.1666 H   0  0  0  0  0  0  0  0  0  0  0  0
   -1.1157   -0.7169   -0.0000 N   0  0  0  0  0  0  0  0  0  0  0  0
   -1.9934   -0.1607    0.0162 H   0  0  0  0  0  0  0  0  0  0  0  0
    0.0000    0.0000    0.0000 C   0  0  0  0  0  0  0  0  0  0  0  0
    1.1157   -0.5178    0.0000 O   0  0  0  0  0  0  0  0  0  0  0  0
   -0.1770    1.5242    0.0069 C   0  0  0  0  0  0  0  0  0  0  0  0
   -1.1532    1.7163    0.1580 H   0  0  0  0  0  0  0  0  0  0  0  0
    0.3938    1.9771    0.8175 H   0  0  0  0  0  0  0  0  0  0  0  0
    0.1421    1.9355   -0.9508 H   0  0  0  0  0  0  0  0  0  0  0  0
  1  5  1  0
  5  6  1  0
  5  9  2  0
  1  2  1  0
  1  3  1  0
  1  4  1  0
  6  7  1  0
  6  8  1  0
 10 14  1  0
 14 16  1  0
 16 17  2  0
 16 18  1  0
 10 11  1  0
 10 12  1  0
 10 13  1  0
 14 15  1  0
 18 19  1  0
 18 20  1  0
 18 21  1  0
M  END
>  <PDB_ID>  (455) 
pdb3fie

>  <RESIDUE_NAME>  (455) 
GLN   VAL

>  <FRAG_NAME>  (455) 
ACEM   NMA

>  <FRAG_ATOM_NUM>  (455) 
fragi: 9  fragj: 12

>  <atom.prop.CHAIN_ID>  (455) 
A A A A A A A A A Z Z Z Z Z Z Z Z Z Z Z Z

>  <atom.prop.IS_HEAVY_ATOM>  (455) 
1 0 0 0 1 1 0 0 1 1 0 0 0 1 0 1 1 1 0 0 0

>  <DIFUSE_FUNC_ATOM>  (455) 
n/a

>  <FINAL_SINGLE_POINT_ENERGY>  (455) 
0

>  <NONCOV_INTER_ENERGY_QM>  (455) 
0

>  <FF_Energy>  (455) 
13.46

>  <QM_Energy>  (455) 
28.96

>  <source>  (455) 
ACEM_nNMA_29

>  <Index>  (455) 
3408

$$$$
ACEM-pdb4b2n-B-GLN-606:NMA-pdb4b2n-B-ASN-236
     RDKit          3D

 21 19  0  0  0  0  0  0  0  0999 V2000
   -4.8890    2.6790   -0.2476 C   0  0  0  0  0  0  0  0  0  0  0  0
   -4.3861    3.3240   -0.8129 H   0  0  0  0  0  0  0  0  0  0  0  0
   -5.4426    3.1620    0.4227 H   0  0  0  0  0  0  0  0  0  0  0  0
   -5.5465    2.0904   -0.8874 H   0  0  0  0  0  0  0  0  0  0  0  0
   -3.9295    1.7892    0.4553 C   0  0  0  0  0  0  0  0  0  0  0  0
   -3.3090    0.8674   -0.2937 N   0  0  0  0  0  0  0  0  0  0  0  0
   -2.6274    0.2296    0.1138 H   0  0  0  0  0  0  0  0  0  0  0  0
   -3.5343    0.8149   -1.2851 H   0  0  0  0  0  0  0  0  0  0  0  0
   -3.7026    1.9493    1.6680 O   0  0  0  0  0  0  0  0  0  0  0  0
   -1.2501   -2.0886   -0.4412 C   0  0  0  0  0  0  0  0  0  0  0  0
   -0.8153   -2.6807    0.2303 H   0  0  0  0  0  0  0  0  0  0  0  0
   -0.7094   -2.1822   -1.3829 H   0  0  0  0  0  0  0  0  0  0  0  0
   -2.2975   -2.3295   -0.6230 H   0  0  0  0  0  0  0  0  0  0  0  0
   -1.1425   -0.7112   -0.0000 N   0  0  0  0  0  0  0  0  0  0  0  0
   -1.9691   -0.1593    0.3586 H   0  0  0  0  0  0  0  0  0  0  0  0
    0.0000    0.0000    0.0000 C   0  0  0  0  0  0  0  0  0  0  0  0
    1.1425   -0.5315   -0.0000 O   0  0  0  0  0  0  0  0  0  0  0  0
   -0.1717    1.5422    0.0229 C   0  0  0  0  0  0  0  0  0  0  0  0
   -0.8109    1.7376    0.7786 H   0  0  0  0  0  0  0  0  0  0  0  0
    0.7707    2.0486    0.2317 H   0  0  0  0  0  0  0  0  0  0  0  0
   -0.5748    1.9199   -0.9167 H   0  0  0  0  0  0  0  0  0  0  0  0
  1  5  1  0
  5  6  1  0
  5  9  2  0
  1  2  1  0
  1  3  1  0
  1  4  1  0
  6  7  1  0
  6  8  1  0
 10 14  1  0
 14 16  1  0
 16 17  2  0
 16 18  1  0
 10 11  1  0
 10 12  1  0
 10 13  1  0
 14 15  1  0
 18 19  1  0
 18 20  1  0
 18 21  1  0
M  END
>  <PDB_ID>  (456) 
pdb4b2n

>  <RESIDUE_NAME>  (456) 
GLN   ASN

>  <FRAG_NAME>  (456) 
ACEM   NMA

>  <FRAG_ATOM_NUM>  (456) 
fragi: 9  fragj: 12

>  <atom.prop.CHAIN_ID>  (456) 
A A A A A A A A A Z Z Z Z Z Z Z Z Z Z Z Z

>  <atom.prop.IS_HEAVY_ATOM>  (456) 
1 0 0 0 1 1 0 0 1 1 0 0 0 1 0 1 1 1 0 0 0

>  <DIFUSE_FUNC_ATOM>  (456) 
n/a

>  <FINAL_SINGLE_POINT_ENERGY>  (456) 
0

>  <NONCOV_INTER_ENERGY_QM>  (456) 
0

>  <FF_Energy>  (456) 
17.31

>  <QM_Energy>  (456) 
49.93

>  <source>  (456) 
ACEM_nNMA_29

>  <Index>  (456) 
3659

$$$$
ACEM-pdb3fle-B-ASN-183:NMA-pdb3fle-B-GLY-178
     RDKit          3D

 21 19  0  0  0  0  0  0  0  0999 V2000
   -4.8896    1.9179   -2.0878 C   0  0  0  0  0  0  0  0  0  0  0  0
   -4.6761    2.7280   -2.6253 H   0  0  0  0  0  0  0  0  0  0  0  0
   -5.7139    2.0671   -1.5499 H   0  0  0  0  0  0  0  0  0  0  0  0
   -5.0679    1.0870   -2.7705 H   0  0  0  0  0  0  0  0  0  0  0  0
   -3.7416    1.6426   -1.1496 C   0  0  0  0  0  0  0  0  0  0  0  0
   -2.8321    0.7575   -1.5637 N   0  0  0  0  0  0  0  0  0  0  0  0
   -2.9361    0.3239   -2.4594 H   0  0  0  0  0  0  0  0  0  0  0  0
   -2.0539    0.5319   -0.9839 H   0  0  0  0  0  0  0  0  0  0  0  0
   -3.6610    2.2310   -0.0634 O   0  0  0  0  0  0  0  0  0  0  0  0
   -1.1653   -2.1732    0.0831 C   0  0  0  0  0  0  0  0  0  0  0  0
   -0.1965   -2.4754    0.1205 H   0  0  0  0  0  0  0  0  0  0  0  0
   -1.6074   -2.6656   -0.7830 H   0  0  0  0  0  0  0  0  0  0  0  0
   -1.6173   -2.5216    1.0118 H   0  0  0  0  0  0  0  0  0  0  0  0
   -1.1297   -0.7049   -0.0000 N   0  0  0  0  0  0  0  0  0  0  0  0
   -1.9993   -0.1241   -0.0644 H   0  0  0  0  0  0  0  0  0  0  0  0
    0.0000    0.0000    0.0000 C   0  0  0  0  0  0  0  0  0  0  0  0
    1.1297   -0.5073    0.0000 O   0  0  0  0  0  0  0  0  0  0  0  0
   -0.1918    1.4934   -0.0104 C   0  0  0  0  0  0  0  0  0  0  0  0
   -0.8806    1.7476    0.7240 H   0  0  0  0  0  0  0  0  0  0  0  0
   -0.6656    1.7649   -0.8937 H   0  0  0  0  0  0  0  0  0  0  0  0
    0.6948    2.1152    0.1140 H   0  0  0  0  0  0  0  0  0  0  0  0
  1  5  1  0
  5  6  1  0
  5  9  2  0
  1  2  1  0
  1  3  1  0
  1  4  1  0
  6  7  1  0
  6  8  1  0
 10 14  1  0
 14 16  1  0
 16 17  2  0
 16 18  1  0
 10 11  1  0
 10 12  1  0
 10 13  1  0
 14 15  1  0
 18 19  1  0
 18 20  1  0
 18 21  1  0
M  END
>  <PDB_ID>  (457) 
pdb3fle

>  <RESIDUE_NAME>  (457) 
ASN   GLY

>  <FRAG_NAME>  (457) 
ACEM   NMA

>  <FRAG_ATOM_NUM>  (457) 
fragi: 9  fragj: 12

>  <atom.prop.CHAIN_ID>  (457) 
A A A A A A A A A Z Z Z Z Z Z Z Z Z Z Z Z

>  <atom.prop.IS_HEAVY_ATOM>  (457) 
1 0 0 0 1 1 0 0 1 1 0 0 0 1 0 1 1 1 0 0 0

>  <DIFUSE_FUNC_ATOM>  (457) 
n/a

>  <FINAL_SINGLE_POINT_ENERGY>  (457) 
0

>  <NONCOV_INTER_ENERGY_QM>  (457) 
0

>  <FF_Energy>  (457) 
7.18

>  <QM_Energy>  (457) 
19.89

>  <source>  (457) 
ACEM_nNMA_29

>  <Index>  (457) 
7551

$$$$
ACEM-pdb4bj4-A-GLN-205:NMA-pdb4bj4-A-THR-218
     RDKit          3D

 21 19  0  0  0  0  0  0  0  0999 V2000
   -5.9935   -0.0496    0.6589 C   0  0  0  0  0  0  0  0  0  0  0  0
   -6.4152    0.6447    1.2452 H   0  0  0  0  0  0  0  0  0  0  0  0
   -6.2757   -0.9595    0.9677 H   0  0  0  0  0  0  0  0  0  0  0  0
   -6.3483    0.0956   -0.3615 H   0  0  0  0  0  0  0  0  0  0  0  0
   -4.4907    0.0604    0.7813 C   0  0  0  0  0  0  0  0  0  0  0  0
   -3.7797   -0.1995   -0.3158 N   0  0  0  0  0  0  0  0  0  0  0  0
   -2.7684   -0.1319   -0.3111 H   0  0  0  0  0  0  0  0  0  0  0  0
   -4.2748   -0.4700   -1.1650 H   0  0  0  0  0  0  0  0  0  0  0  0
   -3.9704    0.3932    1.8511 O   0  0  0  0  0  0  0  0  0  0  0  0
   -1.1121   -2.1625    0.0578 C   0  0  0  0  0  0  0  0  0  0  0  0
   -1.9949   -2.5191   -0.2948 H   0  0  0  0  0  0  0  0  0  0  0  0
   -0.3831   -2.5165   -0.5541 H   0  0  0  0  0  0  0  0  0  0  0  0
   -0.9497   -2.5436    1.0660 H   0  0  0  0  0  0  0  0  0  0  0  0
   -1.1230   -0.7074    0.0000 N   0  0  0  0  0  0  0  0  0  0  0  0
   -1.9950   -0.1425   -0.0438 H   0  0  0  0  0  0  0  0  0  0  0  0
    0.0000    0.0000    0.0000 C   0  0  0  0  0  0  0  0  0  0  0  0
    1.1230   -0.5269    0.0000 O   0  0  0  0  0  0  0  0  0  0  0  0
   -0.1450    1.5230    0.0571 C   0  0  0  0  0  0  0  0  0  0  0  0
    0.5225    1.9277   -0.6002 H   0  0  0  0  0  0  0  0  0  0  0  0
   -1.1387    1.8912   -0.1975 H   0  0  0  0  0  0  0  0  0  0  0  0
    0.0932    1.8129    1.0804 H   0  0  0  0  0  0  0  0  0  0  0  0
  1  5  1  0
  5  6  1  0
  5  9  2  0
  1  2  1  0
  1  3  1  0
  1  4  1  0
  6  7  1  0
  6  8  1  0
 10 14  1  0
 14 16  1  0
 16 17  2  0
 16 18  1  0
 10 11  1  0
 10 12  1  0
 10 13  1  0
 14 15  1  0
 18 19  1  0
 18 20  1  0
 18 21  1  0
M  END
>  <PDB_ID>  (458) 
pdb4bj4

>  <RESIDUE_NAME>  (458) 
GLN   THR

>  <FRAG_NAME>  (458) 
ACEM   NMA

>  <FRAG_ATOM_NUM>  (458) 
fragi: 9  fragj: 12

>  <atom.prop.CHAIN_ID>  (458) 
A A A A A A A A A Z Z Z Z Z Z Z Z Z Z Z Z

>  <atom.prop.IS_HEAVY_ATOM>  (458) 
1 0 0 0 1 1 0 0 1 1 0 0 0 1 0 1 1 1 0 0 0

>  <DIFUSE_FUNC_ATOM>  (458) 
n/a

>  <FINAL_SINGLE_POINT_ENERGY>  (458) 
0

>  <NONCOV_INTER_ENERGY_QM>  (458) 
0

>  <FF_Energy>  (458) 
16.19

>  <QM_Energy>  (458) 
46.59

>  <source>  (458) 
ACEM_nNMA_29

>  <Index>  (458) 
13006

$$$$
ACEM-pdb4bl7-A-GLN-83:NMA-pdb4bl7-B-LEU-41
     RDKit          3D

 21 19  0  0  0  0  0  0  0  0999 V2000
   -5.2881   -0.2283    0.4531 C   0  0  0  0  0  0  0  0  0  0  0  0
   -6.0184   -0.6441    0.9880 H   0  0  0  0  0  0  0  0  0  0  0  0
   -4.7244   -0.9353    0.0362 H   0  0  0  0  0  0  0  0  0  0  0  0
   -5.7375    0.3686   -0.3406 H   0  0  0  0  0  0  0  0  0  0  0  0
   -4.4292    0.6113    1.3649 C   0  0  0  0  0  0  0  0  0  0  0  0
   -3.1498    0.7001    1.0538 N   0  0  0  0  0  0  0  0  0  0  0  0
   -2.5052    1.2606    1.6140 H   0  0  0  0  0  0  0  0  0  0  0  0
   -2.8010    0.1955    0.2368 H   0  0  0  0  0  0  0  0  0  0  0  0
   -4.9065    1.1575    2.3494 O   0  0  0  0  0  0  0  0  0  0  0  0
   -1.1532   -2.1542    0.1282 C   0  0  0  0  0  0  0  0  0  0  0  0
   -0.2003   -2.4936    0.1075 H   0  0  0  0  0  0  0  0  0  0  0  0
   -1.7015   -2.6245   -0.6882 H   0  0  0  0  0  0  0  0  0  0  0  0
   -1.6779   -2.4284    1.0433 H   0  0  0  0  0  0  0  0  0  0  0  0
   -1.1302   -0.7053    0.0000 N   0  0  0  0  0  0  0  0  0  0  0  0
   -1.9956   -0.1265   -0.1002 H   0  0  0  0  0  0  0  0  0  0  0  0
    0.0000    0.0000    0.0000 C   0  0  0  0  0  0  0  0  0  0  0  0
    1.1302   -0.5132    0.0000 O   0  0  0  0  0  0  0  0  0  0  0  0
   -0.1661    1.5162   -0.0219 C   0  0  0  0  0  0  0  0  0  0  0  0
   -1.0839    1.7404    0.3222 H   0  0  0  0  0  0  0  0  0  0  0  0
    0.5728    1.9932    0.6221 H   0  0  0  0  0  0  0  0  0  0  0  0
   -0.0925    1.8927   -1.0422 H   0  0  0  0  0  0  0  0  0  0  0  0
  1  5  1  0
  5  6  1  0
  5  9  2  0
  1  2  1  0
  1  3  1  0
  1  4  1  0
  6  7  1  0
  6  8  1  0
 10 14  1  0
 14 16  1  0
 16 17  2  0
 16 18  1  0
 10 11  1  0
 10 12  1  0
 10 13  1  0
 14 15  1  0
 18 19  1  0
 18 20  1  0
 18 21  1  0
M  END
>  <PDB_ID>  (459) 
pdb4bl7

>  <RESIDUE_NAME>  (459) 
GLN   LEU

>  <FRAG_NAME>  (459) 
ACEM   NMA

>  <FRAG_ATOM_NUM>  (459) 
fragi: 9  fragj: 12

>  <atom.prop.CHAIN_ID>  (459) 
A A A A A A A A A Z Z Z Z Z Z Z Z Z Z Z Z

>  <atom.prop.IS_HEAVY_ATOM>  (459) 
1 0 0 0 1 1 0 0 1 1 0 0 0 1 0 1 1 1 0 0 0

>  <DIFUSE_FUNC_ATOM>  (459) 
n/a

>  <FINAL_SINGLE_POINT_ENERGY>  (459) 
0

>  <NONCOV_INTER_ENERGY_QM>  (459) 
0

>  <FF_Energy>  (459) 
18.49

>  <QM_Energy>  (459) 
37.9

>  <source>  (459) 
ACEM_nNMA_29

>  <Index>  (459) 
14883

$$$$
ACEM-pdb4bj4-B-GLN-205:NMA-pdb4bj4-B-THR-218
     RDKit          3D

 21 19  0  0  0  0  0  0  0  0999 V2000
   -6.1710   -0.2795    0.3092 C   0  0  0  0  0  0  0  0  0  0  0  0
   -6.6548    0.3505    0.9117 H   0  0  0  0  0  0  0  0  0  0  0  0
   -6.4257   -1.2193    0.5217 H   0  0  0  0  0  0  0  0  0  0  0  0
   -6.4606   -0.0661   -0.7197 H   0  0  0  0  0  0  0  0  0  0  0  0
   -4.6818   -0.1143    0.5246 C   0  0  0  0  0  0  0  0  0  0  0  0
   -3.8936   -0.4510   -0.4851 N   0  0  0  0  0  0  0  0  0  0  0  0
   -2.8833   -0.3539   -0.4194 H   0  0  0  0  0  0  0  0  0  0  0  0
   -4.3168   -0.8128   -1.3406 H   0  0  0  0  0  0  0  0  0  0  0  0
   -4.2432    0.2959    1.6028 O   0  0  0  0  0  0  0  0  0  0  0  0
   -1.0954   -2.1672    0.0891 C   0  0  0  0  0  0  0  0  0  0  0  0
   -1.9574   -2.5442   -0.2875 H   0  0  0  0  0  0  0  0  0  0  0  0
   -0.3369   -2.5276   -0.4794 H   0  0  0  0  0  0  0  0  0  0  0  0
   -0.9707   -2.5166    1.1140 H   0  0  0  0  0  0  0  0  0  0  0  0
   -1.1210   -0.7195    0.0000 N   0  0  0  0  0  0  0  0  0  0  0  0
   -1.9941   -0.1601   -0.0678 H   0  0  0  0  0  0  0  0  0  0  0  0
    0.0000    0.0000    0.0000 C   0  0  0  0  0  0  0  0  0  0  0  0
    1.1210   -0.5028   -0.0000 O   0  0  0  0  0  0  0  0  0  0  0  0
   -0.1537    1.5049    0.0468 C   0  0  0  0  0  0  0  0  0  0  0  0
    0.5581    1.9200   -0.5554 H   0  0  0  0  0  0  0  0  0  0  0  0
   -1.1278    1.8630   -0.2861 H   0  0  0  0  0  0  0  0  0  0  0  0
    0.0231    1.7959    1.0823 H   0  0  0  0  0  0  0  0  0  0  0  0
  1  5  1  0
  5  6  1  0
  5  9  2  0
  1  2  1  0
  1  3  1  0
  1  4  1  0
  6  7  1  0
  6  8  1  0
 10 14  1  0
 14 16  1  0
 16 17  2  0
 16 18  1  0
 10 11  1  0
 10 12  1  0
 10 13  1  0
 14 15  1  0
 18 19  1  0
 18 20  1  0
 18 21  1  0
M  END
>  <PDB_ID>  (460) 
pdb4bj4

>  <RESIDUE_NAME>  (460) 
GLN   THR

>  <FRAG_NAME>  (460) 
ACEM   NMA

>  <FRAG_ATOM_NUM>  (460) 
fragi: 9  fragj: 12

>  <atom.prop.CHAIN_ID>  (460) 
A A A A A A A A A Z Z Z Z Z Z Z Z Z Z Z Z

>  <atom.prop.IS_HEAVY_ATOM>  (460) 
1 0 0 0 1 1 0 0 1 1 0 0 0 1 0 1 1 1 0 0 0

>  <DIFUSE_FUNC_ATOM>  (460) 
n/a

>  <FINAL_SINGLE_POINT_ENERGY>  (460) 
0

>  <NONCOV_INTER_ENERGY_QM>  (460) 
0

>  <FF_Energy>  (460) 
8.87

>  <QM_Energy>  (460) 
26.48

>  <source>  (460) 
ACEM_nNMA_29

>  <Index>  (460) 
15377

$$$$
ACEM-pdb4bh0-D-GLN-30:NMA-pdb4bh0-D-ASP-145
     RDKit          3D

 21 19  0  0  0  0  0  0  0  0999 V2000
   -5.5175    1.0530    1.8546 C   0  0  0  0  0  0  0  0  0  0  0  0
   -6.4438    0.9588    1.4809 H   0  0  0  0  0  0  0  0  0  0  0  0
   -5.3189    2.0270    1.9921 H   0  0  0  0  0  0  0  0  0  0  0  0
   -5.4778    0.5489    2.8202 H   0  0  0  0  0  0  0  0  0  0  0  0
   -4.5324    0.4983    0.8432 C   0  0  0  0  0  0  0  0  0  0  0  0
   -3.2403    0.6120    1.1411 N   0  0  0  0  0  0  0  0  0  0  0  0
   -2.5266    0.2521    0.5181 H   0  0  0  0  0  0  0  0  0  0  0  0
   -2.9787    1.0730    2.0130 H   0  0  0  0  0  0  0  0  0  0  0  0
   -4.9293   -0.0446   -0.1862 O   0  0  0  0  0  0  0  0  0  0  0  0
   -1.1036   -2.1908    0.0486 C   0  0  0  0  0  0  0  0  0  0  0  0
   -0.5732   -2.4527    0.8749 H   0  0  0  0  0  0  0  0  0  0  0  0
   -0.6119   -2.6595   -0.8038 H   0  0  0  0  0  0  0  0  0  0  0  0
   -2.1138   -2.5863    0.1549 H   0  0  0  0  0  0  0  0  0  0  0  0
   -1.1207   -0.7225   -0.0000 N   0  0  0  0  0  0  0  0  0  0  0  0
   -1.9975   -0.1658   -0.0372 H   0  0  0  0  0  0  0  0  0  0  0  0
    0.0000    0.0000    0.0000 C   0  0  0  0  0  0  0  0  0  0  0  0
    1.1207   -0.5108    0.0000 O   0  0  0  0  0  0  0  0  0  0  0  0
   -0.1562    1.5312    0.0151 C   0  0  0  0  0  0  0  0  0  0  0  0
   -0.5468    1.7744    0.9111 H   0  0  0  0  0  0  0  0  0  0  0  0
    0.8077    2.0339   -0.0644 H   0  0  0  0  0  0  0  0  0  0  0  0
   -0.8235    1.8678   -0.7783 H   0  0  0  0  0  0  0  0  0  0  0  0
  1  5  1  0
  5  6  1  0
  5  9  2  0
  1  2  1  0
  1  3  1  0
  1  4  1  0
  6  7  1  0
  6  8  1  0
 10 14  1  0
 14 16  1  0
 16 17  2  0
 16 18  1  0
 10 11  1  0
 10 12  1  0
 10 13  1  0
 14 15  1  0
 18 19  1  0
 18 20  1  0
 18 21  1  0
M  END
>  <PDB_ID>  (461) 
pdb4bh0

>  <RESIDUE_NAME>  (461) 
GLN   ASP

>  <FRAG_NAME>  (461) 
ACEM   NMA

>  <FRAG_ATOM_NUM>  (461) 
fragi: 9  fragj: 12

>  <atom.prop.CHAIN_ID>  (461) 
A A A A A A A A A Z Z Z Z Z Z Z Z Z Z Z Z

>  <atom.prop.IS_HEAVY_ATOM>  (461) 
1 0 0 0 1 1 0 0 1 1 0 0 0 1 0 1 1 1 0 0 0

>  <DIFUSE_FUNC_ATOM>  (461) 
n/a

>  <FINAL_SINGLE_POINT_ENERGY>  (461) 
0

>  <NONCOV_INTER_ENERGY_QM>  (461) 
0

>  <FF_Energy>  (461) 
15.31

>  <QM_Energy>  (461) 
38.62

>  <source>  (461) 
ACEM_nNMA_29

>  <Index>  (461) 
16096

$$$$
ACEM-pdb3g1q-A-GLN-147:NMA-pdb3g1q-A-GLN-329
     RDKit          3D

 21 19  0  0  0  0  0  0  0  0999 V2000
   -5.8338    1.2417   -1.0194 C   0  0  0  0  0  0  0  0  0  0  0  0
   -5.6872    2.2087   -1.1949 H   0  0  0  0  0  0  0  0  0  0  0  0
   -6.6859    1.1021   -0.5267 H   0  0  0  0  0  0  0  0  0  0  0  0
   -5.8790    0.7088   -1.9692 H   0  0  0  0  0  0  0  0  0  0  0  0
   -4.6975    0.7237   -0.1817 C   0  0  0  0  0  0  0  0  0  0  0  0
   -3.5199    0.6562   -0.7734 N   0  0  0  0  0  0  0  0  0  0  0  0
   -2.6912    0.3278   -0.2683 H   0  0  0  0  0  0  0  0  0  0  0  0
   -3.4370    0.9367   -1.7509 H   0  0  0  0  0  0  0  0  0  0  0  0
   -4.8763    0.4129    0.9773 O   0  0  0  0  0  0  0  0  0  0  0  0
   -1.1329   -2.1309   -0.1783 C   0  0  0  0  0  0  0  0  0  0  0  0
   -0.6239   -2.5619    0.5868 H   0  0  0  0  0  0  0  0  0  0  0  0
   -0.6622   -2.4319   -1.1141 H   0  0  0  0  0  0  0  0  0  0  0  0
   -2.1619   -2.4899   -0.1585 H   0  0  0  0  0  0  0  0  0  0  0  0
   -1.1177   -0.7053    0.0000 N   0  0  0  0  0  0  0  0  0  0  0  0
   -1.9853   -0.1317    0.1410 H   0  0  0  0  0  0  0  0  0  0  0  0
    0.0000    0.0000    0.0000 C   0  0  0  0  0  0  0  0  0  0  0  0
    1.1177   -0.5235    0.0000 O   0  0  0  0  0  0  0  0  0  0  0  0
   -0.1912    1.5239    0.0920 C   0  0  0  0  0  0  0  0  0  0  0  0
   -1.1491    1.7139   -0.1099 H   0  0  0  0  0  0  0  0  0  0  0  0
    0.0224    1.8339    1.1149 H   0  0  0  0  0  0  0  0  0  0  0  0
    0.4277    2.0717   -0.6186 H   0  0  0  0  0  0  0  0  0  0  0  0
  1  5  1  0
  5  6  1  0
  5  9  2  0
  1  2  1  0
  1  3  1  0
  1  4  1  0
  6  7  1  0
  6  8  1  0
 10 14  1  0
 14 16  1  0
 16 17  2  0
 16 18  1  0
 10 11  1  0
 10 12  1  0
 10 13  1  0
 14 15  1  0
 18 19  1  0
 18 20  1  0
 18 21  1  0
M  END
>  <PDB_ID>  (462) 
pdb3g1q

>  <RESIDUE_NAME>  (462) 
GLN   GLN

>  <FRAG_NAME>  (462) 
ACEM   NMA

>  <FRAG_ATOM_NUM>  (462) 
fragi: 9  fragj: 12

>  <atom.prop.CHAIN_ID>  (462) 
A A A A A A A A A Z Z Z Z Z Z Z Z Z Z Z Z

>  <atom.prop.IS_HEAVY_ATOM>  (462) 
1 0 0 0 1 1 0 0 1 1 0 0 0 1 0 1 1 1 0 0 0

>  <DIFUSE_FUNC_ATOM>  (462) 
n/a

>  <FINAL_SINGLE_POINT_ENERGY>  (462) 
0

>  <NONCOV_INTER_ENERGY_QM>  (462) 
0

>  <FF_Energy>  (462) 
11.73

>  <QM_Energy>  (462) 
30.08

>  <source>  (462) 
ACEM_nNMA_29

>  <Index>  (462) 
25005

$$$$
ACEM-pdb3ga1-B-GLN-97:NMA-pdb3ga1-B-VAL-94
     RDKit          3D

 21 19  0  0  0  0  0  0  0  0999 V2000
   -5.8664    1.0357    1.2323 C   0  0  0  0  0  0  0  0  0  0  0  0
   -6.5303    0.3051    1.4080 H   0  0  0  0  0  0  0  0  0  0  0  0
   -6.3210    1.7815    0.7413 H   0  0  0  0  0  0  0  0  0  0  0  0
   -5.5087    1.4168    2.1888 H   0  0  0  0  0  0  0  0  0  0  0  0
   -4.7599    0.4835    0.3575 C   0  0  0  0  0  0  0  0  0  0  0  0
   -3.5074    0.6752    0.8039 N   0  0  0  0  0  0  0  0  0  0  0  0
   -2.7158    0.3211    0.2777 H   0  0  0  0  0  0  0  0  0  0  0  0
   -3.3740    1.1805    1.6725 H   0  0  0  0  0  0  0  0  0  0  0  0
   -5.0193   -0.1176   -0.7049 O   0  0  0  0  0  0  0  0  0  0  0  0
   -1.1050   -2.1445    0.1523 C   0  0  0  0  0  0  0  0  0  0  0  0
   -1.6713   -2.5670   -0.5732 H   0  0  0  0  0  0  0  0  0  0  0  0
   -0.1587   -2.4852    0.0347 H   0  0  0  0  0  0  0  0  0  0  0  0
   -1.4797   -2.4582    1.1265 H   0  0  0  0  0  0  0  0  0  0  0  0
   -1.1215   -0.7007    0.0000 N   0  0  0  0  0  0  0  0  0  0  0  0
   -1.9890   -0.1437   -0.1149 H   0  0  0  0  0  0  0  0  0  0  0  0
    0.0000    0.0000    0.0000 C   0  0  0  0  0  0  0  0  0  0  0  0
    1.1215   -0.5319   -0.0000 O   0  0  0  0  0  0  0  0  0  0  0  0
   -0.1426    1.5238    0.0244 C   0  0  0  0  0  0  0  0  0  0  0  0
   -1.0668    1.7365    0.2959 H   0  0  0  0  0  0  0  0  0  0  0  0
    0.5407    1.8657    0.8017 H   0  0  0  0  0  0  0  0  0  0  0  0
    0.1140    1.9551   -0.9432 H   0  0  0  0  0  0  0  0  0  0  0  0
  1  5  1  0
  5  6  1  0
  5  9  2  0
  1  2  1  0
  1  3  1  0
  1  4  1  0
  6  7  1  0
  6  8  1  0
 10 14  1  0
 14 16  1  0
 16 17  2  0
 16 18  1  0
 10 11  1  0
 10 12  1  0
 10 13  1  0
 14 15  1  0
 18 19  1  0
 18 20  1  0
 18 21  1  0
M  END
>  <PDB_ID>  (463) 
pdb3ga1

>  <RESIDUE_NAME>  (463) 
GLN   VAL

>  <FRAG_NAME>  (463) 
ACEM   NMA

>  <FRAG_ATOM_NUM>  (463) 
fragi: 9  fragj: 12

>  <atom.prop.CHAIN_ID>  (463) 
A A A A A A A A A Z Z Z Z Z Z Z Z Z Z Z Z

>  <atom.prop.IS_HEAVY_ATOM>  (463) 
1 0 0 0 1 1 0 0 1 1 0 0 0 1 0 1 1 1 0 0 0

>  <DIFUSE_FUNC_ATOM>  (463) 
n/a

>  <FINAL_SINGLE_POINT_ENERGY>  (463) 
0

>  <NONCOV_INTER_ENERGY_QM>  (463) 
0

>  <FF_Energy>  (463) 
12.1

>  <QM_Energy>  (463) 
29.57

>  <source>  (463) 
ACEM_nNMA_30

>  <Index>  (463) 
4389

$$$$
ACEM-pdb3gek-A-ASN-65:NMA-pdb3gek-A-PHE-73
     RDKit          3D

 21 19  0  0  0  0  0  0  0  0999 V2000
   -5.4483    1.5885    1.5437 C   0  0  0  0  0  0  0  0  0  0  0  0
   -6.3401    1.1554    1.4537 H   0  0  0  0  0  0  0  0  0  0  0  0
   -5.5265    2.5704    1.3951 H   0  0  0  0  0  0  0  0  0  0  0  0
   -5.0881    1.4235    2.5591 H   0  0  0  0  0  0  0  0  0  0  0  0
   -4.5189    1.0099    0.4916 C   0  0  0  0  0  0  0  0  0  0  0  0
   -3.3094    0.6568    0.9073 N   0  0  0  0  0  0  0  0  0  0  0  0
   -3.0550    0.7719    1.8683 H   0  0  0  0  0  0  0  0  0  0  0  0
   -2.6476    0.2737    0.2609 H   0  0  0  0  0  0  0  0  0  0  0  0
   -4.8836    0.8746   -0.6756 O   0  0  0  0  0  0  0  0  0  0  0  0
   -1.1284   -2.1564    0.1467 C   0  0  0  0  0  0  0  0  0  0  0  0
   -0.2433   -2.4472    0.5475 H   0  0  0  0  0  0  0  0  0  0  0  0
   -1.2599   -2.6712   -0.8050 H   0  0  0  0  0  0  0  0  0  0  0  0
   -1.9046   -2.4560    0.8508 H   0  0  0  0  0  0  0  0  0  0  0  0
   -1.1233   -0.7101    0.0000 N   0  0  0  0  0  0  0  0  0  0  0  0
   -1.9920   -0.1431   -0.1135 H   0  0  0  0  0  0  0  0  0  0  0  0
    0.0000    0.0000    0.0000 C   0  0  0  0  0  0  0  0  0  0  0  0
    1.1233   -0.5101   -0.0000 O   0  0  0  0  0  0  0  0  0  0  0  0
   -0.1736    1.5164   -0.0020 C   0  0  0  0  0  0  0  0  0  0  0  0
   -1.0576    1.7076    0.4336 H   0  0  0  0  0  0  0  0  0  0  0  0
    0.5931    1.9865    0.6138 H   0  0  0  0  0  0  0  0  0  0  0  0
   -0.1660    1.9092   -1.0187 H   0  0  0  0  0  0  0  0  0  0  0  0
  1  5  1  0
  5  6  1  0
  5  9  2  0
  1  2  1  0
  1  3  1  0
  1  4  1  0
  6  7  1  0
  6  8  1  0
 10 14  1  0
 14 16  1  0
 16 17  2  0
 16 18  1  0
 10 11  1  0
 10 12  1  0
 10 13  1  0
 14 15  1  0
 18 19  1  0
 18 20  1  0
 18 21  1  0
M  END
>  <PDB_ID>  (464) 
pdb3gek

>  <RESIDUE_NAME>  (464) 
ASN   PHE

>  <FRAG_NAME>  (464) 
ACEM   NMA

>  <FRAG_ATOM_NUM>  (464) 
fragi: 9  fragj: 12

>  <atom.prop.CHAIN_ID>  (464) 
A A A A A A A A A Z Z Z Z Z Z Z Z Z Z Z Z

>  <atom.prop.IS_HEAVY_ATOM>  (464) 
1 0 0 0 1 1 0 0 1 1 0 0 0 1 0 1 1 1 0 0 0

>  <DIFUSE_FUNC_ATOM>  (464) 
n/a

>  <FINAL_SINGLE_POINT_ENERGY>  (464) 
0

>  <NONCOV_INTER_ENERGY_QM>  (464) 
0

>  <FF_Energy>  (464) 
15.51

>  <QM_Energy>  (464) 
41.49

>  <source>  (464) 
ACEM_nNMA_30

>  <Index>  (464) 
9896

$$$$
ACEM-pdb3ge4-J-GLN-42:NMA-pdb3ge4-D-TYR-85
     RDKit          3D

 21 19  0  0  0  0  0  0  0  0999 V2000
   -6.0677    0.4879    0.3994 C   0  0  0  0  0  0  0  0  0  0  0  0
   -6.4138    0.4392   -0.5379 H   0  0  0  0  0  0  0  0  0  0  0  0
   -6.5972    1.1635    0.9139 H   0  0  0  0  0  0  0  0  0  0  0  0
   -6.2055   -0.4865    0.8681 H   0  0  0  0  0  0  0  0  0  0  0  0
   -4.6250    0.9195    0.3651 C   0  0  0  0  0  0  0  0  0  0  0  0
   -3.7265   -0.0450    0.4003 N   0  0  0  0  0  0  0  0  0  0  0  0
   -2.7235    0.1642    0.3671 H   0  0  0  0  0  0  0  0  0  0  0  0
   -4.0375   -1.0140    0.4631 H   0  0  0  0  0  0  0  0  0  0  0  0
   -4.3290    2.1108    0.2407 O   0  0  0  0  0  0  0  0  0  0  0  0
   -1.0819   -2.1719    0.1137 C   0  0  0  0  0  0  0  0  0  0  0  0
   -0.1175   -2.4939   -0.0644 H   0  0  0  0  0  0  0  0  0  0  0  0
   -1.2645   -2.4336    1.0954 H   0  0  0  0  0  0  0  0  0  0  0  0
   -1.7621   -2.7292   -0.5304 H   0  0  0  0  0  0  0  0  0  0  0  0
   -1.1213   -0.7235   -0.0000 N   0  0  0  0  0  0  0  0  0  0  0  0
   -1.9935   -0.1732   -0.0856 H   0  0  0  0  0  0  0  0  0  0  0  0
    0.0000    0.0000    0.0000 C   0  0  0  0  0  0  0  0  0  0  0  0
    1.1213   -0.5202   -0.0000 O   0  0  0  0  0  0  0  0  0  0  0  0
   -0.1621    1.5169    0.0207 C   0  0  0  0  0  0  0  0  0  0  0  0
   -1.1192    1.7321   -0.1721 H   0  0  0  0  0  0  0  0  0  0  0  0
    0.0800    1.8888    1.0164 H   0  0  0  0  0  0  0  0  0  0  0  0
    0.5226    1.9719   -0.6949 H   0  0  0  0  0  0  0  0  0  0  0  0
  1  5  1  0
  5  6  1  0
  5  9  2  0
  1  2  1  0
  1  3  1  0
  1  4  1  0
  6  7  1  0
  6  8  1  0
 10 14  1  0
 14 16  1  0
 16 17  2  0
 16 18  1  0
 10 11  1  0
 10 12  1  0
 10 13  1  0
 14 15  1  0
 18 19  1  0
 18 20  1  0
 18 21  1  0
M  END
>  <PDB_ID>  (465) 
pdb3ge4

>  <RESIDUE_NAME>  (465) 
GLN   TYR

>  <FRAG_NAME>  (465) 
ACEM   NMA

>  <FRAG_ATOM_NUM>  (465) 
fragi: 9  fragj: 12

>  <atom.prop.CHAIN_ID>  (465) 
A A A A A A A A A Z Z Z Z Z Z Z Z Z Z Z Z

>  <atom.prop.IS_HEAVY_ATOM>  (465) 
1 0 0 0 1 1 0 0 1 1 0 0 0 1 0 1 1 1 0 0 0

>  <DIFUSE_FUNC_ATOM>  (465) 
n/a

>  <FINAL_SINGLE_POINT_ENERGY>  (465) 
0

>  <NONCOV_INTER_ENERGY_QM>  (465) 
0

>  <FF_Energy>  (465) 
12.06

>  <QM_Energy>  (465) 
34.2

>  <source>  (465) 
ACEM_nNMA_30

>  <Index>  (465) 
13074

$$$$
ACEM-pdb3ge4-F-GLN-42:NMA-pdb3ge4-E-TYR-85
     RDKit          3D

 21 19  0  0  0  0  0  0  0  0999 V2000
   -6.0740    0.4079    0.2727 C   0  0  0  0  0  0  0  0  0  0  0  0
   -6.3028    0.3035   -0.6962 H   0  0  0  0  0  0  0  0  0  0  0  0
   -6.6558    1.1159    0.6752 H   0  0  0  0  0  0  0  0  0  0  0  0
   -6.2673   -0.5358    0.7827 H   0  0  0  0  0  0  0  0  0  0  0  0
   -4.6185    0.8663    0.3741 C   0  0  0  0  0  0  0  0  0  0  0  0
   -3.7042   -0.1091    0.4814 N   0  0  0  0  0  0  0  0  0  0  0  0
   -2.7196    0.1205    0.5384 H   0  0  0  0  0  0  0  0  0  0  0  0
   -4.0205   -1.0719    0.5036 H   0  0  0  0  0  0  0  0  0  0  0  0
   -4.3179    2.0655    0.4211 O   0  0  0  0  0  0  0  0  0  0  0  0
   -1.0641   -2.1723    0.1232 C   0  0  0  0  0  0  0  0  0  0  0  0
   -0.1114   -2.4893   -0.0709 H   0  0  0  0  0  0  0  0  0  0  0  0
   -1.2517   -2.4314    1.0952 H   0  0  0  0  0  0  0  0  0  0  0  0
   -1.7553   -2.7092   -0.5264 H   0  0  0  0  0  0  0  0  0  0  0  0
   -1.1167   -0.7211    0.0000 N   0  0  0  0  0  0  0  0  0  0  0  0
   -1.9911   -0.1814   -0.0913 H   0  0  0  0  0  0  0  0  0  0  0  0
    0.0000    0.0000    0.0000 C   0  0  0  0  0  0  0  0  0  0  0  0
    1.1167   -0.5140   -0.0000 O   0  0  0  0  0  0  0  0  0  0  0  0
   -0.1500    1.5183    0.0283 C   0  0  0  0  0  0  0  0  0  0  0  0
   -1.1045    1.7409   -0.1547 H   0  0  0  0  0  0  0  0  0  0  0  0
    0.1010    1.8732    1.0279 H   0  0  0  0  0  0  0  0  0  0  0  0
    0.5103    1.9874   -0.7012 H   0  0  0  0  0  0  0  0  0  0  0  0
  1  5  1  0
  5  6  1  0
  5  9  2  0
  1  2  1  0
  1  3  1  0
  1  4  1  0
  6  7  1  0
  6  8  1  0
 10 14  1  0
 14 16  1  0
 16 17  2  0
 16 18  1  0
 10 11  1  0
 10 12  1  0
 10 13  1  0
 14 15  1  0
 18 19  1  0
 18 20  1  0
 18 21  1  0
M  END
>  <PDB_ID>  (466) 
pdb3ge4

>  <RESIDUE_NAME>  (466) 
GLN   TYR

>  <FRAG_NAME>  (466) 
ACEM   NMA

>  <FRAG_ATOM_NUM>  (466) 
fragi: 9  fragj: 12

>  <atom.prop.CHAIN_ID>  (466) 
A A A A A A A A A Z Z Z Z Z Z Z Z Z Z Z Z

>  <atom.prop.IS_HEAVY_ATOM>  (466) 
1 0 0 0 1 1 0 0 1 1 0 0 0 1 0 1 1 1 0 0 0

>  <DIFUSE_FUNC_ATOM>  (466) 
n/a

>  <FINAL_SINGLE_POINT_ENERGY>  (466) 
0

>  <NONCOV_INTER_ENERGY_QM>  (466) 
0

>  <FF_Energy>  (466) 
10.08

>  <QM_Energy>  (466) 
26.77

>  <source>  (466) 
ACEM_nNMA_30

>  <Index>  (466) 
14235

$$$$
ACEM-pdb3ge4-E-GLN-42:NMA-pdb3ge4-F-TYR-85
     RDKit          3D

 21 19  0  0  0  0  0  0  0  0999 V2000
   -6.0342    0.4363    0.0025 C   0  0  0  0  0  0  0  0  0  0  0  0
   -6.2526    0.3241   -0.9736 H   0  0  0  0  0  0  0  0  0  0  0  0
   -6.6318    1.1507    0.3829 H   0  0  0  0  0  0  0  0  0  0  0  0
   -6.2122   -0.5035    0.5253 H   0  0  0  0  0  0  0  0  0  0  0  0
   -4.6100    0.9057    0.1132 C   0  0  0  0  0  0  0  0  0  0  0  0
   -3.6765   -0.0336    0.3625 N   0  0  0  0  0  0  0  0  0  0  0  0
   -2.7006    0.2099    0.4346 H   0  0  0  0  0  0  0  0  0  0  0  0
   -3.9852   -0.9970    0.4753 H   0  0  0  0  0  0  0  0  0  0  0  0
   -4.3513    2.1214    0.0599 O   0  0  0  0  0  0  0  0  0  0  0  0
   -1.1124   -2.1557    0.2042 C   0  0  0  0  0  0  0  0  0  0  0  0
   -0.1427   -2.4862    0.1246 H   0  0  0  0  0  0  0  0  0  0  0  0
   -1.3850   -2.3543    1.1755 H   0  0  0  0  0  0  0  0  0  0  0  0
   -1.7435   -2.7361   -0.4688 H   0  0  0  0  0  0  0  0  0  0  0  0
   -1.1310   -0.7073   -0.0000 N   0  0  0  0  0  0  0  0  0  0  0  0
   -1.9921   -0.1593   -0.1525 H   0  0  0  0  0  0  0  0  0  0  0  0
    0.0000    0.0000    0.0000 C   0  0  0  0  0  0  0  0  0  0  0  0
    1.1310   -0.5175   -0.0000 O   0  0  0  0  0  0  0  0  0  0  0  0
   -0.1666    1.4966   -0.0422 C   0  0  0  0  0  0  0  0  0  0  0  0
   -1.1156    1.7059   -0.2894 H   0  0  0  0  0  0  0  0  0  0  0  0
    0.0260    1.9049    0.9499 H   0  0  0  0  0  0  0  0  0  0  0  0
    0.5099    1.9305   -0.7784 H   0  0  0  0  0  0  0  0  0  0  0  0
  1  5  1  0
  5  6  1  0
  5  9  2  0
  1  2  1  0
  1  3  1  0
  1  4  1  0
  6  7  1  0
  6  8  1  0
 10 14  1  0
 14 16  1  0
 16 17  2  0
 16 18  1  0
 10 11  1  0
 10 12  1  0
 10 13  1  0
 14 15  1  0
 18 19  1  0
 18 20  1  0
 18 21  1  0
M  END
>  <PDB_ID>  (467) 
pdb3ge4

>  <RESIDUE_NAME>  (467) 
GLN   TYR

>  <FRAG_NAME>  (467) 
ACEM   NMA

>  <FRAG_ATOM_NUM>  (467) 
fragi: 9  fragj: 12

>  <atom.prop.CHAIN_ID>  (467) 
A A A A A A A A A Z Z Z Z Z Z Z Z Z Z Z Z

>  <atom.prop.IS_HEAVY_ATOM>  (467) 
1 0 0 0 1 1 0 0 1 1 0 0 0 1 0 1 1 1 0 0 0

>  <DIFUSE_FUNC_ATOM>  (467) 
n/a

>  <FINAL_SINGLE_POINT_ENERGY>  (467) 
0

>  <NONCOV_INTER_ENERGY_QM>  (467) 
0

>  <FF_Energy>  (467) 
12.12

>  <QM_Energy>  (467) 
29.38

>  <source>  (467) 
ACEM_nNMA_30

>  <Index>  (467) 
15138

$$$$
ACEM-pdb4cuo-A-ASN-135:NMA-pdb4cuo-A-ALA-67
     RDKit          3D

 21 19  0  0  0  0  0  0  0  0999 V2000
   -4.8415    1.6103   -2.4602 C   0  0  0  0  0  0  0  0  0  0  0  0
   -5.1182    2.5613   -2.5539 H   0  0  0  0  0  0  0  0  0  0  0  0
   -5.6421    1.0229   -2.3878 H   0  0  0  0  0  0  0  0  0  0  0  0
   -4.2961    1.3271   -3.3605 H   0  0  0  0  0  0  0  0  0  0  0  0
   -4.0079    1.4624   -1.2086 C   0  0  0  0  0  0  0  0  0  0  0  0
   -3.0091    0.5700   -1.2253 N   0  0  0  0  0  0  0  0  0  0  0  0
   -2.8552    0.0447   -2.0681 H   0  0  0  0  0  0  0  0  0  0  0  0
   -2.4415    0.4363   -0.4287 H   0  0  0  0  0  0  0  0  0  0  0  0
   -4.2835    2.1390   -0.2042 O   0  0  0  0  0  0  0  0  0  0  0  0
   -1.1092   -2.1651    0.0437 C   0  0  0  0  0  0  0  0  0  0  0  0
   -0.8442   -2.4414    1.0042 H   0  0  0  0  0  0  0  0  0  0  0  0
   -0.4559   -2.6834   -0.6583 H   0  0  0  0  0  0  0  0  0  0  0  0
   -2.1304   -2.5454    0.0182 H   0  0  0  0  0  0  0  0  0  0  0  0
   -1.1305   -0.6817    0.0000 N   0  0  0  0  0  0  0  0  0  0  0  0
   -1.9952   -0.1318   -0.0313 H   0  0  0  0  0  0  0  0  0  0  0  0
    0.0000    0.0000    0.0000 C   0  0  0  0  0  0  0  0  0  0  0  0
    1.1305   -0.5905   -0.0000 O   0  0  0  0  0  0  0  0  0  0  0  0
   -0.0685    1.5445   -0.0321 C   0  0  0  0  0  0  0  0  0  0  0  0
   -0.9175    1.8233    0.4036 H   0  0  0  0  0  0  0  0  0  0  0  0
    0.7790    1.9274    0.5364 H   0  0  0  0  0  0  0  0  0  0  0  0
    0.0096    1.8733   -1.0684 H   0  0  0  0  0  0  0  0  0  0  0  0
  1  5  1  0
  5  6  1  0
  5  9  2  0
  1  2  1  0
  1  3  1  0
  1  4  1  0
  6  7  1  0
  6  8  1  0
 10 14  1  0
 14 16  1  0
 16 17  2  0
 16 18  1  0
 10 11  1  0
 10 12  1  0
 10 13  1  0
 14 15  1  0
 18 19  1  0
 18 20  1  0
 18 21  1  0
M  END
>  <PDB_ID>  (468) 
pdb4cuo

>  <RESIDUE_NAME>  (468) 
ASN   ALA

>  <FRAG_NAME>  (468) 
ACEM   NMA

>  <FRAG_ATOM_NUM>  (468) 
fragi: 9  fragj: 12

>  <atom.prop.CHAIN_ID>  (468) 
A A A A A A A A A Z Z Z Z Z Z Z Z Z Z Z Z

>  <atom.prop.IS_HEAVY_ATOM>  (468) 
1 0 0 0 1 1 0 0 1 1 0 0 0 1 0 1 1 1 0 0 0

>  <DIFUSE_FUNC_ATOM>  (468) 
n/a

>  <FINAL_SINGLE_POINT_ENERGY>  (468) 
0

>  <NONCOV_INTER_ENERGY_QM>  (468) 
0

>  <FF_Energy>  (468) 
22.02

>  <QM_Energy>  (468) 
51.72

>  <source>  (468) 
ACEM_nNMA_30

>  <Index>  (468) 
15764

$$$$
ACEM-pdb3gn9-C-ASN-132:NMA-pdb3gn9-C-ILE-128
     RDKit          3D

 21 19  0  0  0  0  0  0  0  0999 V2000
   -6.0574    0.6943    0.3806 C   0  0  0  0  0  0  0  0  0  0  0  0
   -6.3848    1.6214    0.2209 H   0  0  0  0  0  0  0  0  0  0  0  0
   -6.6009    0.2557    1.0915 H   0  0  0  0  0  0  0  0  0  0  0  0
   -6.1786    0.1256   -0.5413 H   0  0  0  0  0  0  0  0  0  0  0  0
   -4.6110    0.7649    0.8502 C   0  0  0  0  0  0  0  0  0  0  0  0
   -3.8116   -0.2005    0.4395 N   0  0  0  0  0  0  0  0  0  0  0  0
   -4.1636   -0.9275   -0.1560 H   0  0  0  0  0  0  0  0  0  0  0  0
   -2.8489   -0.2144    0.7180 H   0  0  0  0  0  0  0  0  0  0  0  0
   -4.2164    1.6880    1.5585 O   0  0  0  0  0  0  0  0  0  0  0  0
   -1.1021   -2.1713   -0.1143 C   0  0  0  0  0  0  0  0  0  0  0  0
   -0.1764   -2.4720   -0.3802 H   0  0  0  0  0  0  0  0  0  0  0  0
   -1.3130   -2.5770    0.7854 H   0  0  0  0  0  0  0  0  0  0  0  0
   -1.8253   -2.5206   -0.8512 H   0  0  0  0  0  0  0  0  0  0  0  0
   -1.1198   -0.7151    0.0000 N   0  0  0  0  0  0  0  0  0  0  0  0
   -1.9928   -0.1596    0.0864 H   0  0  0  0  0  0  0  0  0  0  0  0
    0.0000    0.0000    0.0000 C   0  0  0  0  0  0  0  0  0  0  0  0
    1.1198   -0.5000    0.0000 O   0  0  0  0  0  0  0  0  0  0  0  0
   -0.1617    1.4986    0.0738 C   0  0  0  0  0  0  0  0  0  0  0  0
   -1.1298    1.6801    0.1491 H   0  0  0  0  0  0  0  0  0  0  0  0
    0.2814    1.7899    1.0262 H   0  0  0  0  0  0  0  0  0  0  0  0
    0.3321    1.9892   -0.7649 H   0  0  0  0  0  0  0  0  0  0  0  0
  1  5  1  0
  5  6  1  0
  5  9  2  0
  1  2  1  0
  1  3  1  0
  1  4  1  0
  6  7  1  0
  6  8  1  0
 10 14  1  0
 14 16  1  0
 16 17  2  0
 16 18  1  0
 10 11  1  0
 10 12  1  0
 10 13  1  0
 14 15  1  0
 18 19  1  0
 18 20  1  0
 18 21  1  0
M  END
>  <PDB_ID>  (469) 
pdb3gn9

>  <RESIDUE_NAME>  (469) 
ASN   ILE

>  <FRAG_NAME>  (469) 
ACEM   NMA

>  <FRAG_ATOM_NUM>  (469) 
fragi: 9  fragj: 12

>  <atom.prop.CHAIN_ID>  (469) 
A A A A A A A A A Z Z Z Z Z Z Z Z Z Z Z Z

>  <atom.prop.IS_HEAVY_ATOM>  (469) 
1 0 0 0 1 1 0 0 1 1 0 0 0 1 0 1 1 1 0 0 0

>  <DIFUSE_FUNC_ATOM>  (469) 
n/a

>  <FINAL_SINGLE_POINT_ENERGY>  (469) 
0

>  <NONCOV_INTER_ENERGY_QM>  (469) 
0

>  <FF_Energy>  (469) 
6.2

>  <QM_Energy>  (469) 
21.24

>  <source>  (469) 
ACEM_nNMA_30

>  <Index>  (469) 
24092

$$$$
ACEM-pdb4d72-A-ASN-625:NMA-pdb4d72-A-MET-656
     RDKit          3D

 21 19  0  0  0  0  0  0  0  0999 V2000
   -5.0236    2.4985    1.0170 C   0  0  0  0  0  0  0  0  0  0  0  0
   -5.9045    2.5021    0.5435 H   0  0  0  0  0  0  0  0  0  0  0  0
   -4.7124    3.4395    1.1499 H   0  0  0  0  0  0  0  0  0  0  0  0
   -5.1589    2.0383    1.9958 H   0  0  0  0  0  0  0  0  0  0  0  0
   -4.0028    1.7811    0.1180 C   0  0  0  0  0  0  0  0  0  0  0  0
   -3.6062    0.5820    0.5474 N   0  0  0  0  0  0  0  0  0  0  0  0
   -3.9710    0.2021    1.3944 H   0  0  0  0  0  0  0  0  0  0  0  0
   -2.9376    0.0596    0.0128 H   0  0  0  0  0  0  0  0  0  0  0  0
   -3.5534    2.2908   -0.9048 O   0  0  0  0  0  0  0  0  0  0  0  0
   -1.1200   -2.1103    0.3641 C   0  0  0  0  0  0  0  0  0  0  0  0
   -0.1495   -2.4003    0.4391 H   0  0  0  0  0  0  0  0  0  0  0  0
   -1.5812   -2.7531   -0.3857 H   0  0  0  0  0  0  0  0  0  0  0  0
   -1.6108   -2.2237    1.3307 H   0  0  0  0  0  0  0  0  0  0  0  0
   -1.1233   -0.6984   -0.0000 N   0  0  0  0  0  0  0  0  0  0  0  0
   -1.9719   -0.1763   -0.2701 H   0  0  0  0  0  0  0  0  0  0  0  0
    0.0000    0.0000    0.0000 C   0  0  0  0  0  0  0  0  0  0  0  0
    1.1233   -0.5210    0.0000 O   0  0  0  0  0  0  0  0  0  0  0  0
   -0.1710    1.5166    0.0089 C   0  0  0  0  0  0  0  0  0  0  0  0
   -1.1375    1.7178    0.1853 H   0  0  0  0  0  0  0  0  0  0  0  0
    0.4219    1.9543    0.8119 H   0  0  0  0  0  0  0  0  0  0  0  0
    0.1135    1.9574   -0.9465 H   0  0  0  0  0  0  0  0  0  0  0  0
  1  5  1  0
  5  6  1  0
  5  9  2  0
  1  2  1  0
  1  3  1  0
  1  4  1  0
  6  7  1  0
  6  8  1  0
 10 14  1  0
 14 16  1  0
 16 17  2  0
 16 18  1  0
 10 11  1  0
 10 12  1  0
 10 13  1  0
 14 15  1  0
 18 19  1  0
 18 20  1  0
 18 21  1  0
M  END
>  <PDB_ID>  (470) 
pdb4d72

>  <RESIDUE_NAME>  (470) 
ASN   MET

>  <FRAG_NAME>  (470) 
ACEM   NMA

>  <FRAG_ATOM_NUM>  (470) 
fragi: 9  fragj: 12

>  <atom.prop.CHAIN_ID>  (470) 
A A A A A A A A A Z Z Z Z Z Z Z Z Z Z Z Z

>  <atom.prop.IS_HEAVY_ATOM>  (470) 
1 0 0 0 1 1 0 0 1 1 0 0 0 1 0 1 1 1 0 0 0

>  <DIFUSE_FUNC_ATOM>  (470) 
n/a

>  <FINAL_SINGLE_POINT_ENERGY>  (470) 
0

>  <NONCOV_INTER_ENERGY_QM>  (470) 
0

>  <FF_Energy>  (470) 
5.25

>  <QM_Energy>  (470) 
22.9

>  <source>  (470) 
ACEM_nNMA_30

>  <Index>  (470) 
26344

$$$$
ACEM-pdb4d9s-A-GLN-151:NMA-pdb4d9s-A-GLN-148
     RDKit          3D

 21 19  0  0  0  0  0  0  0  0999 V2000
   -6.3233    0.0063   -0.9018 C   0  0  0  0  0  0  0  0  0  0  0  0
   -6.1964    0.5176   -1.7532 H   0  0  0  0  0  0  0  0  0  0  0  0
   -7.0807    0.4079   -0.3843 H   0  0  0  0  0  0  0  0  0  0  0  0
   -6.5800   -1.0234   -1.1507 H   0  0  0  0  0  0  0  0  0  0  0  0
   -5.0626    0.1114   -0.0793 C   0  0  0  0  0  0  0  0  0  0  0  0
   -3.9760   -0.4731   -0.5778 N   0  0  0  0  0  0  0  0  0  0  0  0
   -3.0868   -0.4328   -0.0870 H   0  0  0  0  0  0  0  0  0  0  0  0
   -4.0497   -0.9674   -1.4668 H   0  0  0  0  0  0  0  0  0  0  0  0
   -5.0608    0.7108    0.9915 O   0  0  0  0  0  0  0  0  0  0  0  0
   -1.1172   -2.1701   -0.0168 C   0  0  0  0  0  0  0  0  0  0  0  0
   -0.1456   -2.4646   -0.0707 H   0  0  0  0  0  0  0  0  0  0  0  0
   -1.6254   -2.6026   -0.8786 H   0  0  0  0  0  0  0  0  0  0  0  0
   -1.5299   -2.5637    0.9121 H   0  0  0  0  0  0  0  0  0  0  0  0
   -1.1230   -0.7118    0.0000 N   0  0  0  0  0  0  0  0  0  0  0  0
   -1.9964   -0.1442    0.0132 H   0  0  0  0  0  0  0  0  0  0  0  0
    0.0000    0.0000    0.0000 C   0  0  0  0  0  0  0  0  0  0  0  0
    1.1230   -0.5053   -0.0000 O   0  0  0  0  0  0  0  0  0  0  0  0
   -0.1641    1.5182   -0.0111 C   0  0  0  0  0  0  0  0  0  0  0  0
    0.5653    1.9022   -0.5981 H   0  0  0  0  0  0  0  0  0  0  0  0
   -1.1231    1.8320   -0.4235 H   0  0  0  0  0  0  0  0  0  0  0  0
   -0.0151    1.9094    0.9953 H   0  0  0  0  0  0  0  0  0  0  0  0
  1  5  1  0
  5  6  1  0
  5  9  2  0
  1  2  1  0
  1  3  1  0
  1  4  1  0
  6  7  1  0
  6  8  1  0
 10 14  1  0
 14 16  1  0
 16 17  2  0
 16 18  1  0
 10 11  1  0
 10 12  1  0
 10 13  1  0
 14 15  1  0
 18 19  1  0
 18 20  1  0
 18 21  1  0
M  END
>  <PDB_ID>  (471) 
pdb4d9s

>  <RESIDUE_NAME>  (471) 
GLN   GLN

>  <FRAG_NAME>  (471) 
ACEM   NMA

>  <FRAG_ATOM_NUM>  (471) 
fragi: 9  fragj: 12

>  <atom.prop.CHAIN_ID>  (471) 
A A A A A A A A A Z Z Z Z Z Z Z Z Z Z Z Z

>  <atom.prop.IS_HEAVY_ATOM>  (471) 
1 0 0 0 1 1 0 0 1 1 0 0 0 1 0 1 1 1 0 0 0

>  <DIFUSE_FUNC_ATOM>  (471) 
n/a

>  <FINAL_SINGLE_POINT_ENERGY>  (471) 
0

>  <NONCOV_INTER_ENERGY_QM>  (471) 
0

>  <FF_Energy>  (471) 
5.03

>  <QM_Energy>  (471) 
16.07

>  <source>  (471) 
ACEM_nNMA_31

>  <Index>  (471) 
5

$$$$
ACEM-pdb4d9s-B-GLN-151:NMA-pdb4d9s-B-GLN-148
     RDKit          3D

 21 19  0  0  0  0  0  0  0  0999 V2000
   -6.3018    0.0318   -0.6863 C   0  0  0  0  0  0  0  0  0  0  0  0
   -6.1798    0.5223   -1.5491 H   0  0  0  0  0  0  0  0  0  0  0  0
   -7.0432    0.4542   -0.1644 H   0  0  0  0  0  0  0  0  0  0  0  0
   -6.5833   -0.9966   -0.9125 H   0  0  0  0  0  0  0  0  0  0  0  0
   -5.0204    0.1298    0.1161 C   0  0  0  0  0  0  0  0  0  0  0  0
   -3.9689   -0.5452   -0.3525 N   0  0  0  0  0  0  0  0  0  0  0  0
   -3.0757   -0.5149    0.1249 H   0  0  0  0  0  0  0  0  0  0  0  0
   -4.0819   -1.0948   -1.2028 H   0  0  0  0  0  0  0  0  0  0  0  0
   -4.9664    0.8174    1.1345 O   0  0  0  0  0  0  0  0  0  0  0  0
   -1.0695   -2.1697    0.0084 C   0  0  0  0  0  0  0  0  0  0  0  0
   -0.0975   -2.4339   -0.0841 H   0  0  0  0  0  0  0  0  0  0  0  0
   -1.6010   -2.6080   -0.8362 H   0  0  0  0  0  0  0  0  0  0  0  0
   -1.4396   -2.5731    0.9510 H   0  0  0  0  0  0  0  0  0  0  0  0
   -1.1207   -0.7133    0.0000 N   0  0  0  0  0  0  0  0  0  0  0  0
   -1.9940   -0.1664   -0.0067 H   0  0  0  0  0  0  0  0  0  0  0  0
    0.0000    0.0000    0.0000 C   0  0  0  0  0  0  0  0  0  0  0  0
    1.1207   -0.5195   -0.0000 O   0  0  0  0  0  0  0  0  0  0  0  0
   -0.1558    1.5178   -0.0150 C   0  0  0  0  0  0  0  0  0  0  0  0
    0.5723    1.8959   -0.6129 H   0  0  0  0  0  0  0  0  0  0  0  0
   -1.1162    1.8478   -0.4113 H   0  0  0  0  0  0  0  0  0  0  0  0
    0.0137    1.9341    0.9780 H   0  0  0  0  0  0  0  0  0  0  0  0
  1  5  1  0
  5  6  1  0
  5  9  2  0
  1  2  1  0
  1  3  1  0
  1  4  1  0
  6  7  1  0
  6  8  1  0
 10 14  1  0
 14 16  1  0
 16 17  2  0
 16 18  1  0
 10 11  1  0
 10 12  1  0
 10 13  1  0
 14 15  1  0
 18 19  1  0
 18 20  1  0
 18 21  1  0
M  END
>  <PDB_ID>  (472) 
pdb4d9s

>  <RESIDUE_NAME>  (472) 
GLN   GLN

>  <FRAG_NAME>  (472) 
ACEM   NMA

>  <FRAG_ATOM_NUM>  (472) 
fragi: 9  fragj: 12

>  <atom.prop.CHAIN_ID>  (472) 
A A A A A A A A A Z Z Z Z Z Z Z Z Z Z Z Z

>  <atom.prop.IS_HEAVY_ATOM>  (472) 
1 0 0 0 1 1 0 0 1 1 0 0 0 1 0 1 1 1 0 0 0

>  <DIFUSE_FUNC_ATOM>  (472) 
n/a

>  <FINAL_SINGLE_POINT_ENERGY>  (472) 
0

>  <NONCOV_INTER_ENERGY_QM>  (472) 
0

>  <FF_Energy>  (472) 
4.86

>  <QM_Energy>  (472) 
15.94

>  <source>  (472) 
ACEM_nNMA_31

>  <Index>  (472) 
3056

$$$$
ACEM-pdb3gtt-B-GLN-22:NMA-pdb3gtt-B-SER-105
     RDKit          3D

 21 19  0  0  0  0  0  0  0  0999 V2000
   -5.3498    0.8409    2.2099 C   0  0  0  0  0  0  0  0  0  0  0  0
   -6.2640    0.8512    1.8145 H   0  0  0  0  0  0  0  0  0  0  0  0
   -5.2145    1.6457    2.7805 H   0  0  0  0  0  0  0  0  0  0  0  0
   -5.2373   -0.0528    2.8237 H   0  0  0  0  0  0  0  0  0  0  0  0
   -4.3393    0.8660    1.0900 C   0  0  0  0  0  0  0  0  0  0  0  0
   -3.7183   -0.2755    0.8134 N   0  0  0  0  0  0  0  0  0  0  0  0
   -3.0361   -0.3371    0.0648 H   0  0  0  0  0  0  0  0  0  0  0  0
   -3.9390   -1.1005    1.3746 H   0  0  0  0  0  0  0  0  0  0  0  0
   -4.1207    1.9066    0.4739 O   0  0  0  0  0  0  0  0  0  0  0  0
   -1.0835   -2.1686   -0.1158 C   0  0  0  0  0  0  0  0  0  0  0  0
   -0.1478   -2.4878    0.0550 H   0  0  0  0  0  0  0  0  0  0  0  0
   -1.3671   -2.4709   -1.1238 H   0  0  0  0  0  0  0  0  0  0  0  0
   -1.7070   -2.6361    0.6463 H   0  0  0  0  0  0  0  0  0  0  0  0
   -1.1152   -0.7193    0.0000 N   0  0  0  0  0  0  0  0  0  0  0  0
   -1.9910   -0.1687    0.0877 H   0  0  0  0  0  0  0  0  0  0  0  0
    0.0000    0.0000    0.0000 C   0  0  0  0  0  0  0  0  0  0  0  0
    1.1152   -0.5084    0.0000 O   0  0  0  0  0  0  0  0  0  0  0  0
   -0.1720    1.5162    0.0109 C   0  0  0  0  0  0  0  0  0  0  0  0
   -0.8923    1.7381    0.6769 H   0  0  0  0  0  0  0  0  0  0  0  0
    0.7503    2.0030    0.3278 H   0  0  0  0  0  0  0  0  0  0  0  0
   -0.4542    1.8676   -0.9815 H   0  0  0  0  0  0  0  0  0  0  0  0
  1  5  1  0
  5  6  1  0
  5  9  2  0
  1  2  1  0
  1  3  1  0
  1  4  1  0
  6  7  1  0
  6  8  1  0
 10 14  1  0
 14 16  1  0
 16 17  2  0
 16 18  1  0
 10 11  1  0
 10 12  1  0
 10 13  1  0
 14 15  1  0
 18 19  1  0
 18 20  1  0
 18 21  1  0
M  END
>  <PDB_ID>  (473) 
pdb3gtt

>  <RESIDUE_NAME>  (473) 
GLN   SER

>  <FRAG_NAME>  (473) 
ACEM   NMA

>  <FRAG_ATOM_NUM>  (473) 
fragi: 9  fragj: 12

>  <atom.prop.CHAIN_ID>  (473) 
A A A A A A A A A Z Z Z Z Z Z Z Z Z Z Z Z

>  <atom.prop.IS_HEAVY_ATOM>  (473) 
1 0 0 0 1 1 0 0 1 1 0 0 0 1 0 1 1 1 0 0 0

>  <DIFUSE_FUNC_ATOM>  (473) 
n/a

>  <FINAL_SINGLE_POINT_ENERGY>  (473) 
0

>  <NONCOV_INTER_ENERGY_QM>  (473) 
0

>  <FF_Energy>  (473) 
6.03

>  <QM_Energy>  (473) 
22.19

>  <source>  (473) 
ACEM_nNMA_31

>  <Index>  (473) 
3255

$$$$
ACEM-pdb3gxw-A-GLN-88:NMA-pdb3gxw-A-TYR-83
     RDKit          3D

 21 19  0  0  0  0  0  0  0  0999 V2000
   -4.8866    0.8474   -2.8084 C   0  0  0  0  0  0  0  0  0  0  0  0
   -5.8456    1.1103   -2.8824 H   0  0  0  0  0  0  0  0  0  0  0  0
   -4.7224    0.0117   -3.3275 H   0  0  0  0  0  0  0  0  0  0  0  0
   -4.2743    1.6442   -3.2305 H   0  0  0  0  0  0  0  0  0  0  0  0
   -4.5684    0.5801   -1.3418 C   0  0  0  0  0  0  0  0  0  0  0  0
   -3.3080    0.2675   -1.0550 N   0  0  0  0  0  0  0  0  0  0  0  0
   -3.0210    0.0903   -0.0991 H   0  0  0  0  0  0  0  0  0  0  0  0
   -2.6326    0.2086   -1.8157 H   0  0  0  0  0  0  0  0  0  0  0  0
   -5.4450    0.6563   -0.4789 O   0  0  0  0  0  0  0  0  0  0  0  0
   -1.0594   -2.1695   -0.0055 C   0  0  0  0  0  0  0  0  0  0  0  0
   -0.1691   -2.4560    0.3818 H   0  0  0  0  0  0  0  0  0  0  0  0
   -1.1391   -2.5816   -1.0114 H   0  0  0  0  0  0  0  0  0  0  0  0
   -1.8411   -2.5825    0.6322 H   0  0  0  0  0  0  0  0  0  0  0  0
   -1.1172   -0.7161    0.0000 N   0  0  0  0  0  0  0  0  0  0  0  0
   -1.9924   -0.1727    0.0038 H   0  0  0  0  0  0  0  0  0  0  0  0
    0.0000    0.0000    0.0000 C   0  0  0  0  0  0  0  0  0  0  0  0
    1.1172   -0.5195   -0.0000 O   0  0  0  0  0  0  0  0  0  0  0  0
   -0.1521    1.5193   -0.0001 C   0  0  0  0  0  0  0  0  0  0  0  0
   -1.0157    1.7456    0.4450 H   0  0  0  0  0  0  0  0  0  0  0  0
    0.6614    1.9495    0.5841 H   0  0  0  0  0  0  0  0  0  0  0  0
   -0.1087    1.8828   -1.0268 H   0  0  0  0  0  0  0  0  0  0  0  0
  1  5  1  0
  5  6  1  0
  5  9  2  0
  1  2  1  0
  1  3  1  0
  1  4  1  0
  6  7  1  0
  6  8  1  0
 10 14  1  0
 14 16  1  0
 16 17  2  0
 16 18  1  0
 10 11  1  0
 10 12  1  0
 10 13  1  0
 14 15  1  0
 18 19  1  0
 18 20  1  0
 18 21  1  0
M  END
>  <PDB_ID>  (474) 
pdb3gxw

>  <RESIDUE_NAME>  (474) 
GLN   TYR

>  <FRAG_NAME>  (474) 
ACEM   NMA

>  <FRAG_ATOM_NUM>  (474) 
fragi: 9  fragj: 12

>  <atom.prop.CHAIN_ID>  (474) 
A A A A A A A A A Z Z Z Z Z Z Z Z Z Z Z Z

>  <atom.prop.IS_HEAVY_ATOM>  (474) 
1 0 0 0 1 1 0 0 1 1 0 0 0 1 0 1 1 1 0 0 0

>  <DIFUSE_FUNC_ATOM>  (474) 
n/a

>  <FINAL_SINGLE_POINT_ENERGY>  (474) 
0

>  <NONCOV_INTER_ENERGY_QM>  (474) 
0

>  <FF_Energy>  (474) 
15.07

>  <QM_Energy>  (474) 
26.21

>  <source>  (474) 
ACEM_nNMA_31

>  <Index>  (474) 
7470

$$$$
ACEM-pdb4d65-E-ASN-169:NMA-pdb4d65-E-THR-162
     RDKit          3D

 21 19  0  0  0  0  0  0  0  0999 V2000
   -6.0055    0.7800    0.8852 C   0  0  0  0  0  0  0  0  0  0  0  0
   -6.8462    0.5692    0.4013 H   0  0  0  0  0  0  0  0  0  0  0  0
   -5.9714    1.7435    1.1247 H   0  0  0  0  0  0  0  0  0  0  0  0
   -5.9788    0.1941    1.8039 H   0  0  0  0  0  0  0  0  0  0  0  0
   -4.8220    0.4736   -0.0485 C   0  0  0  0  0  0  0  0  0  0  0  0
   -3.8095   -0.1924    0.4890 N   0  0  0  0  0  0  0  0  0  0  0  0
   -3.8474   -0.4716    1.4510 H   0  0  0  0  0  0  0  0  0  0  0  0
   -3.0065   -0.4192   -0.0629 H   0  0  0  0  0  0  0  0  0  0  0  0
   -4.8248    0.8340   -1.2320 O   0  0  0  0  0  0  0  0  0  0  0  0
   -1.0800   -2.1678   -0.0505 C   0  0  0  0  0  0  0  0  0  0  0  0
   -0.2409   -2.4985    0.4163 H   0  0  0  0  0  0  0  0  0  0  0  0
   -1.8720   -2.5435    0.4610 H   0  0  0  0  0  0  0  0  0  0  0  0
   -1.0973   -2.5508   -1.0709 H   0  0  0  0  0  0  0  0  0  0  0  0
   -1.1191   -0.7183    0.0000 N   0  0  0  0  0  0  0  0  0  0  0  0
   -1.9939   -0.1645    0.0380 H   0  0  0  0  0  0  0  0  0  0  0  0
    0.0000    0.0000    0.0000 C   0  0  0  0  0  0  0  0  0  0  0  0
    1.1191   -0.5104   -0.0000 O   0  0  0  0  0  0  0  0  0  0  0  0
   -0.1549    1.5160    0.0049 C   0  0  0  0  0  0  0  0  0  0  0  0
   -1.0787    1.7384    0.3307 H   0  0  0  0  0  0  0  0  0  0  0  0
    0.5704    1.9673    0.6818 H   0  0  0  0  0  0  0  0  0  0  0  0
   -0.0060    1.8773   -1.0127 H   0  0  0  0  0  0  0  0  0  0  0  0
  1  5  1  0
  5  6  1  0
  5  9  2  0
  1  2  1  0
  1  3  1  0
  1  4  1  0
  6  7  1  0
  6  8  1  0
 10 14  1  0
 14 16  1  0
 16 17  2  0
 16 18  1  0
 10 11  1  0
 10 12  1  0
 10 13  1  0
 14 15  1  0
 18 19  1  0
 18 20  1  0
 18 21  1  0
M  END
>  <PDB_ID>  (475) 
pdb4d65

>  <RESIDUE_NAME>  (475) 
ASN   THR

>  <FRAG_NAME>  (475) 
ACEM   NMA

>  <FRAG_ATOM_NUM>  (475) 
fragi: 9  fragj: 12

>  <atom.prop.CHAIN_ID>  (475) 
A A A A A A A A A Z Z Z Z Z Z Z Z Z Z Z Z

>  <atom.prop.IS_HEAVY_ATOM>  (475) 
1 0 0 0 1 1 0 0 1 1 0 0 0 1 0 1 1 1 0 0 0

>  <DIFUSE_FUNC_ATOM>  (475) 
n/a

>  <FINAL_SINGLE_POINT_ENERGY>  (475) 
0

>  <NONCOV_INTER_ENERGY_QM>  (475) 
0

>  <FF_Energy>  (475) 
7.12

>  <QM_Energy>  (475) 
22.66

>  <source>  (475) 
ACEM_nNMA_31

>  <Index>  (475) 
9386

$$$$
ACEM-pdb4dpk-A-GLN-321:NMA-pdb4dpk-A-ALA-261
     RDKit          3D

 21 19  0  0  0  0  0  0  0  0999 V2000
   -5.2153    0.7972    0.9043 C   0  0  0  0  0  0  0  0  0  0  0  0
   -5.4466    1.6201    0.3995 H   0  0  0  0  0  0  0  0  0  0  0  0
   -5.2906    0.9537    1.8815 H   0  0  0  0  0  0  0  0  0  0  0  0
   -5.9213    0.0145    0.6267 H   0  0  0  0  0  0  0  0  0  0  0  0
   -3.7315    0.4319    0.5822 C   0  0  0  0  0  0  0  0  0  0  0  0
   -3.5164   -0.1839   -0.5622 N   0  0  0  0  0  0  0  0  0  0  0  0
   -2.5775   -0.4378   -0.8409 H   0  0  0  0  0  0  0  0  0  0  0  0
   -4.3093   -0.4033   -1.1645 H   0  0  0  0  0  0  0  0  0  0  0  0
   -2.8031    0.7079    1.3690 O   0  0  0  0  0  0  0  0  0  0  0  0
   -1.1071   -2.1731   -0.0453 C   0  0  0  0  0  0  0  0  0  0  0  0
   -0.6455   -2.5169    0.7861 H   0  0  0  0  0  0  0  0  0  0  0  0
   -0.5736   -2.5551   -0.9156 H   0  0  0  0  0  0  0  0  0  0  0  0
   -2.1116   -2.5927    0.0091 H   0  0  0  0  0  0  0  0  0  0  0  0
   -1.1253   -0.7091   -0.0000 N   0  0  0  0  0  0  0  0  0  0  0  0
   -1.9966   -0.1499    0.0335 H   0  0  0  0  0  0  0  0  0  0  0  0
    0.0000    0.0000    0.0000 C   0  0  0  0  0  0  0  0  0  0  0  0
    1.1253   -0.5210    0.0000 O   0  0  0  0  0  0  0  0  0  0  0  0
   -0.1526    1.4927    0.0277 C   0  0  0  0  0  0  0  0  0  0  0  0
   -1.1240    1.7247    0.1890 H   0  0  0  0  0  0  0  0  0  0  0  0
    0.4426    1.9385    0.8245 H   0  0  0  0  0  0  0  0  0  0  0  0
    0.1155    1.9309   -0.9337 H   0  0  0  0  0  0  0  0  0  0  0  0
  1  5  1  0
  5  6  1  0
  5  9  2  0
  1  2  1  0
  1  3  1  0
  1  4  1  0
  6  7  1  0
  6  8  1  0
 10 14  1  0
 14 16  1  0
 16 17  2  0
 16 18  1  0
 10 11  1  0
 10 12  1  0
 10 13  1  0
 14 15  1  0
 18 19  1  0
 18 20  1  0
 18 21  1  0
M  END
>  <PDB_ID>  (476) 
pdb4dpk

>  <RESIDUE_NAME>  (476) 
GLN   ALA

>  <FRAG_NAME>  (476) 
ACEM   NMA

>  <FRAG_ATOM_NUM>  (476) 
fragi: 9  fragj: 12

>  <atom.prop.CHAIN_ID>  (476) 
A A A A A A A A A Z Z Z Z Z Z Z Z Z Z Z Z

>  <atom.prop.IS_HEAVY_ATOM>  (476) 
1 0 0 0 1 1 0 0 1 1 0 0 0 1 0 1 1 1 0 0 0

>  <DIFUSE_FUNC_ATOM>  (476) 
n/a

>  <FINAL_SINGLE_POINT_ENERGY>  (476) 
0

>  <NONCOV_INTER_ENERGY_QM>  (476) 
0

>  <FF_Energy>  (476) 
21.59

>  <QM_Energy>  (476) 
35.68

>  <source>  (476) 
ACEM_nNMA_31

>  <Index>  (476) 
14387

$$$$
ACEM-pdb4dry-B-ASN-120:NMA-pdb4dry-B-GLY-97
     RDKit          3D

 21 19  0  0  0  0  0  0  0  0999 V2000
   -4.8519    2.1010    1.8075 C   0  0  0  0  0  0  0  0  0  0  0  0
   -5.4103    1.8350    2.5900 H   0  0  0  0  0  0  0  0  0  0  0  0
   -5.4217    2.5470    1.1199 H   0  0  0  0  0  0  0  0  0  0  0  0
   -4.0994    2.8130    2.1463 H   0  0  0  0  0  0  0  0  0  0  0  0
   -4.2448    0.8589    1.2012 C   0  0  0  0  0  0  0  0  0  0  0  0
   -2.9235    0.7803    1.2247 N   0  0  0  0  0  0  0  0  0  0  0  0
   -2.3819    1.5159    1.6340 H   0  0  0  0  0  0  0  0  0  0  0  0
   -2.4592   -0.0167    0.8336 H   0  0  0  0  0  0  0  0  0  0  0  0
   -4.9517   -0.0221    0.7213 O   0  0  0  0  0  0  0  0  0  0  0  0
   -1.0656   -2.1653   -0.0151 C   0  0  0  0  0  0  0  0  0  0  0  0
   -0.5239   -2.4485   -0.8264 H   0  0  0  0  0  0  0  0  0  0  0  0
   -2.0500   -2.6275   -0.0905 H   0  0  0  0  0  0  0  0  0  0  0  0
   -0.5803   -2.5377    0.8869 H   0  0  0  0  0  0  0  0  0  0  0  0
   -1.1202   -0.7107    0.0000 N   0  0  0  0  0  0  0  0  0  0  0  0
   -1.9929   -0.1656    0.0113 H   0  0  0  0  0  0  0  0  0  0  0  0
    0.0000    0.0000    0.0000 C   0  0  0  0  0  0  0  0  0  0  0  0
    1.1202   -0.5034   -0.0000 O   0  0  0  0  0  0  0  0  0  0  0  0
   -0.1455    1.4908    0.0058 C   0  0  0  0  0  0  0  0  0  0  0  0
   -0.5360    1.7921    0.8797 H   0  0  0  0  0  0  0  0  0  0  0  0
   -0.7562    1.7759   -0.7372 H   0  0  0  0  0  0  0  0  0  0  0  0
    0.8356    1.9455   -0.1318 H   0  0  0  0  0  0  0  0  0  0  0  0
  1  5  1  0
  5  6  1  0
  5  9  2  0
  1  2  1  0
  1  3  1  0
  1  4  1  0
  6  7  1  0
  6  8  1  0
 10 14  1  0
 14 16  1  0
 16 17  2  0
 16 18  1  0
 10 11  1  0
 10 12  1  0
 10 13  1  0
 14 15  1  0
 18 19  1  0
 18 20  1  0
 18 21  1  0
M  END
>  <PDB_ID>  (477) 
pdb4dry

>  <RESIDUE_NAME>  (477) 
ASN   GLY

>  <FRAG_NAME>  (477) 
ACEM   NMA

>  <FRAG_ATOM_NUM>  (477) 
fragi: 9  fragj: 12

>  <atom.prop.CHAIN_ID>  (477) 
A A A A A A A A A Z Z Z Z Z Z Z Z Z Z Z Z

>  <atom.prop.IS_HEAVY_ATOM>  (477) 
1 0 0 0 1 1 0 0 1 1 0 0 0 1 0 1 1 1 0 0 0

>  <DIFUSE_FUNC_ATOM>  (477) 
n/a

>  <FINAL_SINGLE_POINT_ENERGY>  (477) 
0

>  <NONCOV_INTER_ENERGY_QM>  (477) 
0

>  <FF_Energy>  (477) 
16.58

>  <QM_Energy>  (477) 
33.81

>  <source>  (477) 
ACEM_nNMA_31

>  <Index>  (477) 
15855

$$$$
ACEM-pdb3h5l-A-GLN-267:NMA-pdb3h5l-A-ASP-235
     RDKit          3D

 21 19  0  0  0  0  0  0  0  0999 V2000
   -6.3259    0.7393   -0.4471 C   0  0  0  0  0  0  0  0  0  0  0  0
   -6.5770    1.3179   -1.2239 H   0  0  0  0  0  0  0  0  0  0  0  0
   -6.8059    1.0572    0.3721 H   0  0  0  0  0  0  0  0  0  0  0  0
   -6.6242   -0.2878   -0.6575 H   0  0  0  0  0  0  0  0  0  0  0  0
   -4.8201    0.8934   -0.2069 C   0  0  0  0  0  0  0  0  0  0  0  0
   -4.0670   -0.1611   -0.4950 N   0  0  0  0  0  0  0  0  0  0  0  0
   -3.0609   -0.1263   -0.3734 H   0  0  0  0  0  0  0  0  0  0  0  0
   -4.5169   -1.0070   -0.8387 H   0  0  0  0  0  0  0  0  0  0  0  0
   -4.3459    1.9588    0.1604 O   0  0  0  0  0  0  0  0  0  0  0  0
   -1.1347   -2.1639   -0.1150 C   0  0  0  0  0  0  0  0  0  0  0  0
   -0.2608   -2.5135    0.2617 H   0  0  0  0  0  0  0  0  0  0  0  0
   -1.1998   -2.5137   -1.1453 H   0  0  0  0  0  0  0  0  0  0  0  0
   -1.9775   -2.5624    0.4497 H   0  0  0  0  0  0  0  0  0  0  0  0
   -1.1236   -0.7134    0.0000 N   0  0  0  0  0  0  0  0  0  0  0  0
   -1.9952   -0.1409    0.0895 H   0  0  0  0  0  0  0  0  0  0  0  0
    0.0000    0.0000    0.0000 C   0  0  0  0  0  0  0  0  0  0  0  0
    1.1236   -0.4965    0.0000 O   0  0  0  0  0  0  0  0  0  0  0  0
   -0.1703    1.4991    0.0249 C   0  0  0  0  0  0  0  0  0  0  0  0
   -1.1387    1.6840    0.1807 H   0  0  0  0  0  0  0  0  0  0  0  0
    0.3822    1.8794    0.8841 H   0  0  0  0  0  0  0  0  0  0  0  0
    0.2152    1.9610   -0.8841 H   0  0  0  0  0  0  0  0  0  0  0  0
  1  5  1  0
  5  6  1  0
  5  9  2  0
  1  2  1  0
  1  3  1  0
  1  4  1  0
  6  7  1  0
  6  8  1  0
 10 14  1  0
 14 16  1  0
 16 17  2  0
 16 18  1  0
 10 11  1  0
 10 12  1  0
 10 13  1  0
 14 15  1  0
 18 19  1  0
 18 20  1  0
 18 21  1  0
M  END
>  <PDB_ID>  (478) 
pdb3h5l

>  <RESIDUE_NAME>  (478) 
GLN   ASP

>  <FRAG_NAME>  (478) 
ACEM   NMA

>  <FRAG_ATOM_NUM>  (478) 
fragi: 9  fragj: 12

>  <atom.prop.CHAIN_ID>  (478) 
A A A A A A A A A Z Z Z Z Z Z Z Z Z Z Z Z

>  <atom.prop.IS_HEAVY_ATOM>  (478) 
1 0 0 0 1 1 0 0 1 1 0 0 0 1 0 1 1 1 0 0 0

>  <DIFUSE_FUNC_ATOM>  (478) 
n/a

>  <FINAL_SINGLE_POINT_ENERGY>  (478) 
0

>  <NONCOV_INTER_ENERGY_QM>  (478) 
0

>  <FF_Energy>  (478) 
2.7

>  <QM_Energy>  (478) 
12.96

>  <source>  (478) 
ACEM_nNMA_31

>  <Index>  (478) 
20219

$$$$
ACEM-pdb4doy-D-ASN-135:NMA-pdb4doy-F-TRP-284
     RDKit          3D

 21 19  0  0  0  0  0  0  0  0999 V2000
   -5.4328    1.3669   -1.9541 C   0  0  0  0  0  0  0  0  0  0  0  0
   -5.3720    1.9882   -2.7304 H   0  0  0  0  0  0  0  0  0  0  0  0
   -6.1611    1.6571   -1.3384 H   0  0  0  0  0  0  0  0  0  0  0  0
   -5.6789    0.3735   -2.3293 H   0  0  0  0  0  0  0  0  0  0  0  0
   -4.1129    1.4075   -1.1972 C   0  0  0  0  0  0  0  0  0  0  0  0
   -3.2705    0.4166   -1.4283 N   0  0  0  0  0  0  0  0  0  0  0  0
   -3.5124   -0.3076   -2.0786 H   0  0  0  0  0  0  0  0  0  0  0  0
   -2.3876    0.3833   -0.9573 H   0  0  0  0  0  0  0  0  0  0  0  0
   -3.8624    2.3261   -0.4079 O   0  0  0  0  0  0  0  0  0  0  0  0
   -1.0662   -2.1740    0.1124 C   0  0  0  0  0  0  0  0  0  0  0  0
   -0.6048   -2.4081    0.9960 H   0  0  0  0  0  0  0  0  0  0  0  0
   -0.5337   -2.6841   -0.6903 H   0  0  0  0  0  0  0  0  0  0  0  0
   -2.0626   -2.6007    0.2271 H   0  0  0  0  0  0  0  0  0  0  0  0
   -1.1180   -0.7183   -0.0000 N   0  0  0  0  0  0  0  0  0  0  0  0
   -1.9917   -0.1791   -0.0833 H   0  0  0  0  0  0  0  0  0  0  0  0
    0.0000    0.0000    0.0000 C   0  0  0  0  0  0  0  0  0  0  0  0
    1.1180   -0.5118    0.0000 O   0  0  0  0  0  0  0  0  0  0  0  0
   -0.1705    1.5139    0.0120 C   0  0  0  0  0  0  0  0  0  0  0  0
   -1.0873    1.7182   -0.3328 H   0  0  0  0  0  0  0  0  0  0  0  0
   -0.1107    1.8790    1.0373 H   0  0  0  0  0  0  0  0  0  0  0  0
    0.5892    1.9823   -0.6138 H   0  0  0  0  0  0  0  0  0  0  0  0
  1  5  1  0
  5  6  1  0
  5  9  2  0
  1  2  1  0
  1  3  1  0
  1  4  1  0
  6  7  1  0
  6  8  1  0
 10 14  1  0
 14 16  1  0
 16 17  2  0
 16 18  1  0
 10 11  1  0
 10 12  1  0
 10 13  1  0
 14 15  1  0
 18 19  1  0
 18 20  1  0
 18 21  1  0
M  END
>  <PDB_ID>  (479) 
pdb4doy

>  <RESIDUE_NAME>  (479) 
ASN   TRP

>  <FRAG_NAME>  (479) 
ACEM   NMA

>  <FRAG_ATOM_NUM>  (479) 
fragi: 9  fragj: 12

>  <atom.prop.CHAIN_ID>  (479) 
A A A A A A A A A Z Z Z Z Z Z Z Z Z Z Z Z

>  <atom.prop.IS_HEAVY_ATOM>  (479) 
1 0 0 0 1 1 0 0 1 1 0 0 0 1 0 1 1 1 0 0 0

>  <DIFUSE_FUNC_ATOM>  (479) 
n/a

>  <FINAL_SINGLE_POINT_ENERGY>  (479) 
0

>  <NONCOV_INTER_ENERGY_QM>  (479) 
0

>  <FF_Energy>  (479) 
4.75

>  <QM_Energy>  (479) 
17.86

>  <source>  (479) 
ACEM_nNMA_31

>  <Index>  (479) 
26741

$$$$
ACEM-pdb4e94-B-GLN-335:NMA-pdb4e94-B-GLY-191
     RDKit          3D

 21 19  0  0  0  0  0  0  0  0999 V2000
   -5.1564   -0.1729   -1.8623 C   0  0  0  0  0  0  0  0  0  0  0  0
   -4.7840   -1.0930   -1.7493 H   0  0  0  0  0  0  0  0  0  0  0  0
   -5.7829   -0.1569   -2.6399 H   0  0  0  0  0  0  0  0  0  0  0  0
   -5.7128    0.0894   -0.9625 H   0  0  0  0  0  0  0  0  0  0  0  0
   -4.0202    0.7827   -2.1313 C   0  0  0  0  0  0  0  0  0  0  0  0
   -2.9354    0.6492   -1.3709 N   0  0  0  0  0  0  0  0  0  0  0  0
   -2.1256    1.2474   -1.5033 H   0  0  0  0  0  0  0  0  0  0  0  0
   -2.9309   -0.0683   -0.6474 H   0  0  0  0  0  0  0  0  0  0  0  0
   -4.1102    1.6276   -3.0189 O   0  0  0  0  0  0  0  0  0  0  0  0
   -1.1193   -2.1744    0.1115 C   0  0  0  0  0  0  0  0  0  0  0  0
   -0.4637   -2.4121    0.8353 H   0  0  0  0  0  0  0  0  0  0  0  0
   -0.7532   -2.6325   -0.8073 H   0  0  0  0  0  0  0  0  0  0  0  0
   -2.1219   -2.5641    0.2873 H   0  0  0  0  0  0  0  0  0  0  0  0
   -1.1222   -0.7181    0.0000 N   0  0  0  0  0  0  0  0  0  0  0  0
   -1.9950   -0.1547   -0.0858 H   0  0  0  0  0  0  0  0  0  0  0  0
    0.0000    0.0000    0.0000 C   0  0  0  0  0  0  0  0  0  0  0  0
    1.1222   -0.5019   -0.0000 O   0  0  0  0  0  0  0  0  0  0  0  0
   -0.1854    1.5038    0.0105 C   0  0  0  0  0  0  0  0  0  0  0  0
   -0.4975    1.7948    0.9467 H   0  0  0  0  0  0  0  0  0  0  0  0
   -0.9634    1.7480   -0.6161 H   0  0  0  0  0  0  0  0  0  0  0  0
    0.6905    2.0897   -0.2681 H   0  0  0  0  0  0  0  0  0  0  0  0
  1  5  1  0
  5  6  1  0
  5  9  2  0
  1  2  1  0
  1  3  1  0
  1  4  1  0
  6  7  1  0
  6  8  1  0
 10 14  1  0
 14 16  1  0
 16 17  2  0
 16 18  1  0
 10 11  1  0
 10 12  1  0
 10 13  1  0
 14 15  1  0
 18 19  1  0
 18 20  1  0
 18 21  1  0
M  END
>  <PDB_ID>  (480) 
pdb4e94

>  <RESIDUE_NAME>  (480) 
GLN   GLY

>  <FRAG_NAME>  (480) 
ACEM   NMA

>  <FRAG_ATOM_NUM>  (480) 
fragi: 9  fragj: 12

>  <atom.prop.CHAIN_ID>  (480) 
A A A A A A A A A Z Z Z Z Z Z Z Z Z Z Z Z

>  <atom.prop.IS_HEAVY_ATOM>  (480) 
1 0 0 0 1 1 0 0 1 1 0 0 0 1 0 1 1 1 0 0 0

>  <DIFUSE_FUNC_ATOM>  (480) 
n/a

>  <FINAL_SINGLE_POINT_ENERGY>  (480) 
0

>  <NONCOV_INTER_ENERGY_QM>  (480) 
0

>  <FF_Energy>  (480) 
16.88

>  <QM_Energy>  (480) 
29.67

>  <source>  (480) 
ACEM_nNMA_32

>  <Index>  (480) 
4420

$$$$
ACEM-pdb3hhj-B-GLN-127:NMA-pdb3hhj-B-ARG-124
     RDKit          3D

 21 19  0  0  0  0  0  0  0  0999 V2000
   -6.1972   -0.4113   -0.9568 C   0  0  0  0  0  0  0  0  0  0  0  0
   -6.2379    0.3531   -1.6080 H   0  0  0  0  0  0  0  0  0  0  0  0
   -6.9891   -0.3533   -0.3416 H   0  0  0  0  0  0  0  0  0  0  0  0
   -6.2517   -1.3479   -1.5117 H   0  0  0  0  0  0  0  0  0  0  0  0
   -4.9351   -0.2670   -0.1280 C   0  0  0  0  0  0  0  0  0  0  0  0
   -3.7955   -0.5358   -0.7590 N   0  0  0  0  0  0  0  0  0  0  0  0
   -2.9012   -0.4481   -0.2730 H   0  0  0  0  0  0  0  0  0  0  0  0
   -3.8258   -0.8300   -1.7295 H   0  0  0  0  0  0  0  0  0  0  0  0
   -4.9807    0.0231    1.0871 O   0  0  0  0  0  0  0  0  0  0  0  0
   -1.0513   -2.1864   -0.0490 C   0  0  0  0  0  0  0  0  0  0  0  0
   -0.0946   -2.4913   -0.0053 H   0  0  0  0  0  0  0  0  0  0  0  0
   -1.5074   -2.5571   -0.9670 H   0  0  0  0  0  0  0  0  0  0  0  0
   -1.5131   -2.6140    0.8409 H   0  0  0  0  0  0  0  0  0  0  0  0
   -1.1054   -0.7260   -0.0000 N   0  0  0  0  0  0  0  0  0  0  0  0
   -1.9891   -0.1891    0.0363 H   0  0  0  0  0  0  0  0  0  0  0  0
    0.0000    0.0000    0.0000 C   0  0  0  0  0  0  0  0  0  0  0  0
    1.1054   -0.5157    0.0000 O   0  0  0  0  0  0  0  0  0  0  0  0
   -0.1455    1.5083    0.0462 C   0  0  0  0  0  0  0  0  0  0  0  0
    0.4457    1.9198   -0.6630 H   0  0  0  0  0  0  0  0  0  0  0  0
   -1.1702    1.8293   -0.1410 H   0  0  0  0  0  0  0  0  0  0  0  0
    0.2152    1.8911    1.0009 H   0  0  0  0  0  0  0  0  0  0  0  0
  1  5  1  0
  5  6  1  0
  5  9  2  0
  1  2  1  0
  1  3  1  0
  1  4  1  0
  6  7  1  0
  6  8  1  0
 10 14  1  0
 14 16  1  0
 16 17  2  0
 16 18  1  0
 10 11  1  0
 10 12  1  0
 10 13  1  0
 14 15  1  0
 18 19  1  0
 18 20  1  0
 18 21  1  0
M  END
>  <PDB_ID>  (481) 
pdb3hhj

>  <RESIDUE_NAME>  (481) 
GLN   ARG

>  <FRAG_NAME>  (481) 
ACEM   NMA

>  <FRAG_ATOM_NUM>  (481) 
fragi: 9  fragj: 12

>  <atom.prop.CHAIN_ID>  (481) 
A A A A A A A A A Z Z Z Z Z Z Z Z Z Z Z Z

>  <atom.prop.IS_HEAVY_ATOM>  (481) 
1 0 0 0 1 1 0 0 1 1 0 0 0 1 0 1 1 1 0 0 0

>  <DIFUSE_FUNC_ATOM>  (481) 
n/a

>  <FINAL_SINGLE_POINT_ENERGY>  (481) 
0

>  <NONCOV_INTER_ENERGY_QM>  (481) 
0

>  <FF_Energy>  (481) 
9.33

>  <QM_Energy>  (481) 
25.79

>  <source>  (481) 
ACEM_nNMA_32

>  <Index>  (481) 
4709

$$$$
ACEM-pdb4eg9-A-ASN-101:NMA-pdb4eg9-A-ASP-70
     RDKit          3D

 21 19  0  0  0  0  0  0  0  0999 V2000
   -5.8354    1.2025    0.0310 C   0  0  0  0  0  0  0  0  0  0  0  0
   -6.1878    1.3155   -0.8938 H   0  0  0  0  0  0  0  0  0  0  0  0
   -6.0922    1.9845    0.5935 H   0  0  0  0  0  0  0  0  0  0  0  0
   -6.2772    0.3050    0.4638 H   0  0  0  0  0  0  0  0  0  0  0  0
   -4.3161    1.1365   -0.0380 C   0  0  0  0  0  0  0  0  0  0  0  0
   -3.7190    0.2896    0.7933 N   0  0  0  0  0  0  0  0  0  0  0  0
   -4.2725   -0.2675    1.4159 H   0  0  0  0  0  0  0  0  0  0  0  0
   -2.7246    0.2059    0.7983 H   0  0  0  0  0  0  0  0  0  0  0  0
   -3.6932    1.8286   -0.8312 O   0  0  0  0  0  0  0  0  0  0  0  0
   -1.1989   -2.1586    0.0594 C   0  0  0  0  0  0  0  0  0  0  0  0
   -0.3426   -2.5077    0.4717 H   0  0  0  0  0  0  0  0  0  0  0  0
   -1.3145   -2.6128   -0.9246 H   0  0  0  0  0  0  0  0  0  0  0  0
   -2.0307   -2.4630    0.6947 H   0  0  0  0  0  0  0  0  0  0  0  0
   -1.1352   -0.7008    0.0000 N   0  0  0  0  0  0  0  0  0  0  0  0
   -2.0010   -0.0990   -0.0480 H   0  0  0  0  0  0  0  0  0  0  0  0
    0.0000    0.0000    0.0000 C   0  0  0  0  0  0  0  0  0  0  0  0
    1.1352   -0.5200   -0.0000 O   0  0  0  0  0  0  0  0  0  0  0  0
   -0.1755    1.5262    0.0087 C   0  0  0  0  0  0  0  0  0  0  0  0
   -1.1300    1.7146    0.2321 H   0  0  0  0  0  0  0  0  0  0  0  0
    0.4219    1.9667    0.8069 H   0  0  0  0  0  0  0  0  0  0  0  0
    0.1213    1.9813   -0.9362 H   0  0  0  0  0  0  0  0  0  0  0  0
  1  5  1  0
  5  6  1  0
  5  9  2  0
  1  2  1  0
  1  3  1  0
  1  4  1  0
  6  7  1  0
  6  8  1  0
 10 14  1  0
 14 16  1  0
 16 17  2  0
 16 18  1  0
 10 11  1  0
 10 12  1  0
 10 13  1  0
 14 15  1  0
 18 19  1  0
 18 20  1  0
 18 21  1  0
M  END
>  <PDB_ID>  (482) 
pdb4eg9

>  <RESIDUE_NAME>  (482) 
ASN   ASP

>  <FRAG_NAME>  (482) 
ACEM   NMA

>  <FRAG_ATOM_NUM>  (482) 
fragi: 9  fragj: 12

>  <atom.prop.CHAIN_ID>  (482) 
A A A A A A A A A Z Z Z Z Z Z Z Z Z Z Z Z

>  <atom.prop.IS_HEAVY_ATOM>  (482) 
1 0 0 0 1 1 0 0 1 1 0 0 0 1 0 1 1 1 0 0 0

>  <DIFUSE_FUNC_ATOM>  (482) 
n/a

>  <FINAL_SINGLE_POINT_ENERGY>  (482) 
0

>  <NONCOV_INTER_ENERGY_QM>  (482) 
0

>  <FF_Energy>  (482) 
1.63

>  <QM_Energy>  (482) 
13.72

>  <source>  (482) 
ACEM_nNMA_32

>  <Index>  (482) 
6126

$$$$
ACEM-pdb3hjr-A-GLN-70:NMA-pdb3hjr-A-VAL-67
     RDKit          3D

 21 19  0  0  0  0  0  0  0  0999 V2000
   -6.1269   -0.3904    1.0111 C   0  0  0  0  0  0  0  0  0  0  0  0
   -6.6748    0.1884    1.6213 H   0  0  0  0  0  0  0  0  0  0  0  0
   -5.9303   -1.2577    1.4772 H   0  0  0  0  0  0  0  0  0  0  0  0
   -6.6438   -0.5629    0.0671 H   0  0  0  0  0  0  0  0  0  0  0  0
   -4.8228    0.3066    0.7764 C   0  0  0  0  0  0  0  0  0  0  0  0
   -3.9511   -0.4285    0.2740 N   0  0  0  0  0  0  0  0  0  0  0  0
   -2.9699   -0.0405    0.0423 H   0  0  0  0  0  0  0  0  0  0  0  0
   -4.1114   -1.4128    0.0595 H   0  0  0  0  0  0  0  0  0  0  0  0
   -4.6431    1.5182    0.9979 O   0  0  0  0  0  0  0  0  0  0  0  0
   -1.0946   -2.1831    0.2981 C   0  0  0  0  0  0  0  0  0  0  0  0
   -0.1396   -2.5189    0.2071 H   0  0  0  0  0  0  0  0  0  0  0  0
   -1.7285   -2.7727   -0.3642 H   0  0  0  0  0  0  0  0  0  0  0  0
   -1.3955   -2.3642    1.3300 H   0  0  0  0  0  0  0  0  0  0  0  0
   -1.1021   -0.7412    0.0000 N   0  0  0  0  0  0  0  0  0  0  0  0
   -1.9775   -0.2191   -0.2290 H   0  0  0  0  0  0  0  0  0  0  0  0
    0.0000    0.0000    0.0000 C   0  0  0  0  0  0  0  0  0  0  0  0
    1.1021   -0.5081   -0.0000 O   0  0  0  0  0  0  0  0  0  0  0  0
   -0.1696    1.5223   -0.0380 C   0  0  0  0  0  0  0  0  0  0  0  0
   -1.1249    1.7181   -0.2469 H   0  0  0  0  0  0  0  0  0  0  0  0
    0.0571    1.9223    0.9503 H   0  0  0  0  0  0  0  0  0  0  0  0
    0.4417    1.9711   -0.8210 H   0  0  0  0  0  0  0  0  0  0  0  0
  1  5  1  0
  5  6  1  0
  5  9  2  0
  1  2  1  0
  1  3  1  0
  1  4  1  0
  6  7  1  0
  6  8  1  0
 10 14  1  0
 14 16  1  0
 16 17  2  0
 16 18  1  0
 10 11  1  0
 10 12  1  0
 10 13  1  0
 14 15  1  0
 18 19  1  0
 18 20  1  0
 18 21  1  0
M  END
>  <PDB_ID>  (483) 
pdb3hjr

>  <RESIDUE_NAME>  (483) 
GLN   VAL

>  <FRAG_NAME>  (483) 
ACEM   NMA

>  <FRAG_ATOM_NUM>  (483) 
fragi: 9  fragj: 12

>  <atom.prop.CHAIN_ID>  (483) 
A A A A A A A A A Z Z Z Z Z Z Z Z Z Z Z Z

>  <atom.prop.IS_HEAVY_ATOM>  (483) 
1 0 0 0 1 1 0 0 1 1 0 0 0 1 0 1 1 1 0 0 0

>  <DIFUSE_FUNC_ATOM>  (483) 
n/a

>  <FINAL_SINGLE_POINT_ENERGY>  (483) 
0

>  <NONCOV_INTER_ENERGY_QM>  (483) 
0

>  <FF_Energy>  (483) 
8.04

>  <QM_Energy>  (483) 
21.91

>  <source>  (483) 
ACEM_nNMA_32

>  <Index>  (483) 
7336

$$$$
ACEM-pdb3hjv-A-ASN-236:NMA-pdb3hjv-A-HIE-96
     RDKit          3D

 21 19  0  0  0  0  0  0  0  0999 V2000
   -6.2529    0.2660    0.2857 C   0  0  0  0  0  0  0  0  0  0  0  0
   -6.4197   -0.6545    0.6534 H   0  0  0  0  0  0  0  0  0  0  0  0
   -6.3275    0.2311   -0.7160 H   0  0  0  0  0  0  0  0  0  0  0  0
   -7.0248    0.9351    0.6660 H   0  0  0  0  0  0  0  0  0  0  0  0
   -4.8060    0.6592    0.6379 C   0  0  0  0  0  0  0  0  0  0  0  0
   -3.8125   -0.2485    0.5411 N   0  0  0  0  0  0  0  0  0  0  0  0
   -4.0957   -1.1710    0.2220 H   0  0  0  0  0  0  0  0  0  0  0  0
   -2.8972   -0.0256    0.7615 H   0  0  0  0  0  0  0  0  0  0  0  0
   -4.6379    1.7803    1.0854 O   0  0  0  0  0  0  0  0  0  0  0  0
   -1.1682   -2.1741   -0.0789 C   0  0  0  0  0  0  0  0  0  0  0  0
   -2.1250   -2.4651   -0.0462 H   0  0  0  0  0  0  0  0  0  0  0  0
   -0.6684   -2.6129    0.7847 H   0  0  0  0  0  0  0  0  0  0  0  0
   -0.8126   -2.5125   -1.0521 H   0  0  0  0  0  0  0  0  0  0  0  0
   -1.1192   -0.7238   -0.0000 N   0  0  0  0  0  0  0  0  0  0  0  0
   -1.9968   -0.1318    0.0646 H   0  0  0  0  0  0  0  0  0  0  0  0
    0.0000    0.0000    0.0000 C   0  0  0  0  0  0  0  0  0  0  0  0
    1.1192   -0.4892    0.0000 O   0  0  0  0  0  0  0  0  0  0  0  0
   -0.1959    1.5111    0.0490 C   0  0  0  0  0  0  0  0  0  0  0  0
   -1.1690    1.7079   -0.1519 H   0  0  0  0  0  0  0  0  0  0  0  0
    0.0469    1.9287    1.0262 H   0  0  0  0  0  0  0  0  0  0  0  0
    0.4252    1.9978   -0.7031 H   0  0  0  0  0  0  0  0  0  0  0  0
  1  5  1  0
  5  6  1  0
  5  9  2  0
  1  2  1  0
  1  3  1  0
  1  4  1  0
  6  7  1  0
  6  8  1  0
 10 14  1  0
 14 16  1  0
 16 17  2  0
 16 18  1  0
 10 11  1  0
 10 12  1  0
 10 13  1  0
 14 15  1  0
 18 19  1  0
 18 20  1  0
 18 21  1  0
M  END
>  <PDB_ID>  (484) 
pdb3hjv

>  <RESIDUE_NAME>  (484) 
ASN   HIE

>  <FRAG_NAME>  (484) 
ACEM   NMA

>  <FRAG_ATOM_NUM>  (484) 
fragi: 9  fragj: 12

>  <atom.prop.CHAIN_ID>  (484) 
A A A A A A A A A Z Z Z Z Z Z Z Z Z Z Z Z

>  <atom.prop.IS_HEAVY_ATOM>  (484) 
1 0 0 0 1 1 0 0 1 1 0 0 0 1 0 1 1 1 0 0 0

>  <DIFUSE_FUNC_ATOM>  (484) 
n/a

>  <FINAL_SINGLE_POINT_ENERGY>  (484) 
0

>  <NONCOV_INTER_ENERGY_QM>  (484) 
0

>  <FF_Energy>  (484) 
5.83

>  <QM_Energy>  (484) 
17.33

>  <source>  (484) 
ACEM_nNMA_32

>  <Index>  (484) 
7394

$$$$
ACEM-pdb4e8c-B-ASN-454:NMA-pdb4e8c-B-GLY-288
     RDKit          3D

 21 19  0  0  0  0  0  0  0  0999 V2000
   -4.7328    2.1344   -0.1169 C   0  0  0  0  0  0  0  0  0  0  0  0
   -5.1728    2.9781   -0.4108 H   0  0  0  0  0  0  0  0  0  0  0  0
   -3.9322    2.3392    0.4391 H   0  0  0  0  0  0  0  0  0  0  0  0
   -5.4399    1.5756    0.4961 H   0  0  0  0  0  0  0  0  0  0  0  0
   -4.2883    1.3652   -1.3452 C   0  0  0  0  0  0  0  0  0  0  0  0
   -3.2035    0.6213   -1.2098 N   0  0  0  0  0  0  0  0  0  0  0  0
   -2.7246    0.5819   -0.3305 H   0  0  0  0  0  0  0  0  0  0  0  0
   -2.8550    0.0924   -1.9862 H   0  0  0  0  0  0  0  0  0  0  0  0
   -4.9320    1.4192   -2.3987 O   0  0  0  0  0  0  0  0  0  0  0  0
   -1.1102   -2.1582    0.1015 C   0  0  0  0  0  0  0  0  0  0  0  0
   -0.3577   -2.5135   -0.4565 H   0  0  0  0  0  0  0  0  0  0  0  0
   -2.0442   -2.5551   -0.2962 H   0  0  0  0  0  0  0  0  0  0  0  0
   -0.9931   -2.4475    1.1458 H   0  0  0  0  0  0  0  0  0  0  0  0
   -1.1188   -0.7124    0.0000 N   0  0  0  0  0  0  0  0  0  0  0  0
   -1.9922   -0.1472   -0.0788 H   0  0  0  0  0  0  0  0  0  0  0  0
    0.0000    0.0000    0.0000 C   0  0  0  0  0  0  0  0  0  0  0  0
    1.1188   -0.5074    0.0000 O   0  0  0  0  0  0  0  0  0  0  0  0
   -0.1720    1.5035   -0.0070 C   0  0  0  0  0  0  0  0  0  0  0  0
   -0.4611    1.8115    0.9111 H   0  0  0  0  0  0  0  0  0  0  0  0
   -0.9025    1.7533   -0.6587 H   0  0  0  0  0  0  0  0  0  0  0  0
    0.7541    2.0061   -0.2860 H   0  0  0  0  0  0  0  0  0  0  0  0
  1  5  1  0
  5  6  1  0
  5  9  2  0
  1  2  1  0
  1  3  1  0
  1  4  1  0
  6  7  1  0
  6  8  1  0
 10 14  1  0
 14 16  1  0
 16 17  2  0
 16 18  1  0
 10 11  1  0
 10 12  1  0
 10 13  1  0
 14 15  1  0
 18 19  1  0
 18 20  1  0
 18 21  1  0
M  END
>  <PDB_ID>  (485) 
pdb4e8c

>  <RESIDUE_NAME>  (485) 
ASN   GLY

>  <FRAG_NAME>  (485) 
ACEM   NMA

>  <FRAG_ATOM_NUM>  (485) 
fragi: 9  fragj: 12

>  <atom.prop.CHAIN_ID>  (485) 
A A A A A A A A A Z Z Z Z Z Z Z Z Z Z Z Z

>  <atom.prop.IS_HEAVY_ATOM>  (485) 
1 0 0 0 1 1 0 0 1 1 0 0 0 1 0 1 1 1 0 0 0

>  <DIFUSE_FUNC_ATOM>  (485) 
n/a

>  <FINAL_SINGLE_POINT_ENERGY>  (485) 
0

>  <NONCOV_INTER_ENERGY_QM>  (485) 
0

>  <FF_Energy>  (485) 
12.93

>  <QM_Energy>  (485) 
23.64

>  <source>  (485) 
ACEM_nNMA_32

>  <Index>  (485) 
9612

$$$$
ACEM-pdb3hlp-A-ASN-144:NMA-pdb3hlp-A-GLY-253
     RDKit          3D

 21 19  0  0  0  0  0  0  0  0999 V2000
   -5.1609    2.2569    1.2492 C   0  0  0  0  0  0  0  0  0  0  0  0
   -6.0072    1.8146    1.5086 H   0  0  0  0  0  0  0  0  0  0  0  0
   -5.3319    3.1192    0.7937 H   0  0  0  0  0  0  0  0  0  0  0  0
   -4.5829    2.4526    2.1524 H   0  0  0  0  0  0  0  0  0  0  0  0
   -4.4059    1.3428    0.2939 C   0  0  0  0  0  0  0  0  0  0  0  0
   -3.5653    0.4640    0.8292 N   0  0  0  0  0  0  0  0  0  0  0  0
   -3.4637    0.4322    1.8291 H   0  0  0  0  0  0  0  0  0  0  0  0
   -3.0430   -0.1526    0.2514 H   0  0  0  0  0  0  0  0  0  0  0  0
   -4.6034    1.4224   -0.9192 O   0  0  0  0  0  0  0  0  0  0  0  0
   -1.1855   -2.1499    0.2592 C   0  0  0  0  0  0  0  0  0  0  0  0
   -0.7761   -2.3140    1.1713 H   0  0  0  0  0  0  0  0  0  0  0  0
   -0.6253   -2.7329   -0.4717 H   0  0  0  0  0  0  0  0  0  0  0  0
   -2.2203   -2.4895    0.3038 H   0  0  0  0  0  0  0  0  0  0  0  0
   -1.1301   -0.7061   -0.0000 N   0  0  0  0  0  0  0  0  0  0  0  0
   -1.9890   -0.1369   -0.2035 H   0  0  0  0  0  0  0  0  0  0  0  0
    0.0000    0.0000    0.0000 C   0  0  0  0  0  0  0  0  0  0  0  0
    1.1301   -0.5151    0.0000 O   0  0  0  0  0  0  0  0  0  0  0  0
   -0.1879    1.5159   -0.0335 C   0  0  0  0  0  0  0  0  0  0  0  0
   -1.0551    1.7549    0.4697 H   0  0  0  0  0  0  0  0  0  0  0  0
   -0.3599    1.8079   -1.0065 H   0  0  0  0  0  0  0  0  0  0  0  0
    0.6237    2.1208    0.3707 H   0  0  0  0  0  0  0  0  0  0  0  0
  1  5  1  0
  5  6  1  0
  5  9  2  0
  1  2  1  0
  1  3  1  0
  1  4  1  0
  6  7  1  0
  6  8  1  0
 10 14  1  0
 14 16  1  0
 16 17  2  0
 16 18  1  0
 10 11  1  0
 10 12  1  0
 10 13  1  0
 14 15  1  0
 18 19  1  0
 18 20  1  0
 18 21  1  0
M  END
>  <PDB_ID>  (486) 
pdb3hlp

>  <RESIDUE_NAME>  (486) 
ASN   GLY

>  <FRAG_NAME>  (486) 
ACEM   NMA

>  <FRAG_ATOM_NUM>  (486) 
fragi: 9  fragj: 12

>  <atom.prop.CHAIN_ID>  (486) 
A A A A A A A A A Z Z Z Z Z Z Z Z Z Z Z Z

>  <atom.prop.IS_HEAVY_ATOM>  (486) 
1 0 0 0 1 1 0 0 1 1 0 0 0 1 0 1 1 1 0 0 0

>  <DIFUSE_FUNC_ATOM>  (486) 
n/a

>  <FINAL_SINGLE_POINT_ENERGY>  (486) 
0

>  <NONCOV_INTER_ENERGY_QM>  (486) 
0

>  <FF_Energy>  (486) 
4.62

>  <QM_Energy>  (486) 
16.45

>  <source>  (486) 
ACEM_nNMA_32

>  <Index>  (486) 
10070

$$$$
ACEM-pdb3hpv-D-ASN-264:NMA-pdb3hpv-D-ALA-64
     RDKit          3D

 21 19  0  0  0  0  0  0  0  0999 V2000
   -5.4573    0.5601   -2.3327 C   0  0  0  0  0  0  0  0  0  0  0  0
   -6.2953    1.1040   -2.3241 H   0  0  0  0  0  0  0  0  0  0  0  0
   -5.6805   -0.4026   -2.1810 H   0  0  0  0  0  0  0  0  0  0  0  0
   -5.0042    0.6505   -3.3199 H   0  0  0  0  0  0  0  0  0  0  0  0
   -4.5578    1.0336   -1.2166 C   0  0  0  0  0  0  0  0  0  0  0  0
   -3.4347    0.3519   -1.0150 N   0  0  0  0  0  0  0  0  0  0  0  0
   -3.2247   -0.4341   -1.6024 H   0  0  0  0  0  0  0  0  0  0  0  0
   -2.8077    0.6167   -0.2880 H   0  0  0  0  0  0  0  0  0  0  0  0
   -4.8813    1.9943   -0.5270 O   0  0  0  0  0  0  0  0  0  0  0  0
   -1.0737   -2.1572    0.0052 C   0  0  0  0  0  0  0  0  0  0  0  0
   -1.4093   -2.5092   -0.8769 H   0  0  0  0  0  0  0  0  0  0  0  0
   -0.1213   -2.4631    0.1254 H   0  0  0  0  0  0  0  0  0  0  0  0
   -1.6877   -2.5556    0.8129 H   0  0  0  0  0  0  0  0  0  0  0  0
   -1.1215   -0.7085   -0.0000 N   0  0  0  0  0  0  0  0  0  0  0  0
   -1.9932   -0.1565   -0.0036 H   0  0  0  0  0  0  0  0  0  0  0  0
    0.0000    0.0000    0.0000 C   0  0  0  0  0  0  0  0  0  0  0  0
    1.1215   -0.5208    0.0000 O   0  0  0  0  0  0  0  0  0  0  0  0
   -0.1635    1.5196    0.0061 C   0  0  0  0  0  0  0  0  0  0  0  0
   -0.8135    1.7640    0.7151 H   0  0  0  0  0  0  0  0  0  0  0  0
    0.8114    1.9431    0.2473 H   0  0  0  0  0  0  0  0  0  0  0  0
   -0.4956    1.8691   -0.9715 H   0  0  0  0  0  0  0  0  0  0  0  0
  1  5  1  0
  5  6  1  0
  5  9  2  0
  1  2  1  0
  1  3  1  0
  1  4  1  0
  6  7  1  0
  6  8  1  0
 10 14  1  0
 14 16  1  0
 16 17  2  0
 16 18  1  0
 10 11  1  0
 10 12  1  0
 10 13  1  0
 14 15  1  0
 18 19  1  0
 18 20  1  0
 18 21  1  0
M  END
>  <PDB_ID>  (487) 
pdb3hpv

>  <RESIDUE_NAME>  (487) 
ASN   ALA

>  <FRAG_NAME>  (487) 
ACEM   NMA

>  <FRAG_ATOM_NUM>  (487) 
fragi: 9  fragj: 12

>  <atom.prop.CHAIN_ID>  (487) 
A A A A A A A A A Z Z Z Z Z Z Z Z Z Z Z Z

>  <atom.prop.IS_HEAVY_ATOM>  (487) 
1 0 0 0 1 1 0 0 1 1 0 0 0 1 0 1 1 1 0 0 0

>  <DIFUSE_FUNC_ATOM>  (487) 
n/a

>  <FINAL_SINGLE_POINT_ENERGY>  (487) 
0

>  <NONCOV_INTER_ENERGY_QM>  (487) 
0

>  <FF_Energy>  (487) 
8.25

>  <QM_Energy>  (487) 
18.66

>  <source>  (487) 
ACEM_nNMA_32

>  <Index>  (487) 
20059

$$$$
ACEM-pdb4ezi-A-ASN-326:NMA-pdb4ezi-A-GLY-228
     RDKit          3D

 21 19  0  0  0  0  0  0  0  0999 V2000
   -5.2143    2.0546    1.6536 C   0  0  0  0  0  0  0  0  0  0  0  0
   -6.1119    1.6728    1.8483 H   0  0  0  0  0  0  0  0  0  0  0  0
   -5.3036    2.9342    1.1973 H   0  0  0  0  0  0  0  0  0  0  0  0
   -4.6834    2.2004    2.5943 H   0  0  0  0  0  0  0  0  0  0  0  0
   -4.4823    1.0997    0.7129 C   0  0  0  0  0  0  0  0  0  0  0  0
   -3.2116    0.8069    1.0290 N   0  0  0  0  0  0  0  0  0  0  0  0
   -2.8074    1.2115    1.8492 H   0  0  0  0  0  0  0  0  0  0  0  0
   -2.6837    0.1953    0.4504 H   0  0  0  0  0  0  0  0  0  0  0  0
   -5.0552    0.6119   -0.2635 O   0  0  0  0  0  0  0  0  0  0  0  0
   -1.0985   -2.1655    0.0600 C   0  0  0  0  0  0  0  0  0  0  0  0
   -0.5730   -2.4327    0.8755 H   0  0  0  0  0  0  0  0  0  0  0  0
   -0.5877   -2.5825   -0.8080 H   0  0  0  0  0  0  0  0  0  0  0  0
   -2.1200   -2.5402    0.1263 H   0  0  0  0  0  0  0  0  0  0  0  0
   -1.1223   -0.7092    0.0000 N   0  0  0  0  0  0  0  0  0  0  0  0
   -1.9936   -0.1508   -0.0454 H   0  0  0  0  0  0  0  0  0  0  0  0
    0.0000    0.0000    0.0000 C   0  0  0  0  0  0  0  0  0  0  0  0
    1.1223   -0.5265    0.0000 O   0  0  0  0  0  0  0  0  0  0  0  0
   -0.1630    1.5008   -0.0492 C   0  0  0  0  0  0  0  0  0  0  0  0
   -1.1547    1.7333   -0.0068 H   0  0  0  0  0  0  0  0  0  0  0  0
    0.1744    1.8473   -0.9464 H   0  0  0  0  0  0  0  0  0  0  0  0
    0.3597    2.0214    0.7532 H   0  0  0  0  0  0  0  0  0  0  0  0
  1  5  1  0
  5  6  1  0
  5  9  2  0
  1  2  1  0
  1  3  1  0
  1  4  1  0
  6  7  1  0
  6  8  1  0
 10 14  1  0
 14 16  1  0
 16 17  2  0
 16 18  1  0
 10 11  1  0
 10 12  1  0
 10 13  1  0
 14 15  1  0
 18 19  1  0
 18 20  1  0
 18 21  1  0
M  END
>  <PDB_ID>  (488) 
pdb4ezi

>  <RESIDUE_NAME>  (488) 
ASN   GLY

>  <FRAG_NAME>  (488) 
ACEM   NMA

>  <FRAG_ATOM_NUM>  (488) 
fragi: 9  fragj: 12

>  <atom.prop.CHAIN_ID>  (488) 
A A A A A A A A A Z Z Z Z Z Z Z Z Z Z Z Z

>  <atom.prop.IS_HEAVY_ATOM>  (488) 
1 0 0 0 1 1 0 0 1 1 0 0 0 1 0 1 1 1 0 0 0

>  <DIFUSE_FUNC_ATOM>  (488) 
n/a

>  <FINAL_SINGLE_POINT_ENERGY>  (488) 
0

>  <NONCOV_INTER_ENERGY_QM>  (488) 
0

>  <FF_Energy>  (488) 
13.41

>  <QM_Energy>  (488) 
33.99

>  <source>  (488) 
ACEM_nNMA_32

>  <Index>  (488) 
25371

$$$$
ACEM-pdb4ezc-A-ASN-176:NMA-pdb4ezc-A-GLY-333
     RDKit          3D

 21 19  0  0  0  0  0  0  0  0999 V2000
   -5.1565    0.4186   -2.5785 C   0  0  0  0  0  0  0  0  0  0  0  0
   -5.7766   -0.2689   -2.9349 H   0  0  0  0  0  0  0  0  0  0  0  0
   -4.5565    0.7580   -3.2924 H   0  0  0  0  0  0  0  0  0  0  0  0
   -5.7481    1.2531   -2.2021 H   0  0  0  0  0  0  0  0  0  0  0  0
   -4.3129   -0.2043   -1.4865 C   0  0  0  0  0  0  0  0  0  0  0  0
   -3.2951    0.5030   -1.0558 N   0  0  0  0  0  0  0  0  0  0  0  0
   -3.1068    1.4125   -1.4410 H   0  0  0  0  0  0  0  0  0  0  0  0
   -2.6932    0.1438   -0.3369 H   0  0  0  0  0  0  0  0  0  0  0  0
   -4.5791   -1.3331   -1.0422 O   0  0  0  0  0  0  0  0  0  0  0  0
   -1.0697   -2.1878   -0.1257 C   0  0  0  0  0  0  0  0  0  0  0  0
   -0.1010   -2.4746   -0.0294 H   0  0  0  0  0  0  0  0  0  0  0  0
   -1.4341   -2.5618   -1.0826 H   0  0  0  0  0  0  0  0  0  0  0  0
   -1.5392   -2.6897    0.7203 H   0  0  0  0  0  0  0  0  0  0  0  0
   -1.1326   -0.7209   -0.0000 N   0  0  0  0  0  0  0  0  0  0  0  0
   -1.9985   -0.1877    0.0905 H   0  0  0  0  0  0  0  0  0  0  0  0
    0.0000    0.0000    0.0000 C   0  0  0  0  0  0  0  0  0  0  0  0
    1.1326   -0.5154    0.0000 O   0  0  0  0  0  0  0  0  0  0  0  0
   -0.1311    1.5079   -0.0579 C   0  0  0  0  0  0  0  0  0  0  0  0
   -0.0313    1.8888    0.8462 H   0  0  0  0  0  0  0  0  0  0  0  0
   -0.9957    1.7554   -0.4634 H   0  0  0  0  0  0  0  0  0  0  0  0
    0.6839    1.8531   -0.6940 H   0  0  0  0  0  0  0  0  0  0  0  0
  1  5  1  0
  5  6  1  0
  5  9  2  0
  1  2  1  0
  1  3  1  0
  1  4  1  0
  6  7  1  0
  6  8  1  0
 10 14  1  0
 14 16  1  0
 16 17  2  0
 16 18  1  0
 10 11  1  0
 10 12  1  0
 10 13  1  0
 14 15  1  0
 18 19  1  0
 18 20  1  0
 18 21  1  0
M  END
>  <PDB_ID>  (489) 
pdb4ezc

>  <RESIDUE_NAME>  (489) 
ASN   GLY

>  <FRAG_NAME>  (489) 
ACEM   NMA

>  <FRAG_ATOM_NUM>  (489) 
fragi: 9  fragj: 12

>  <atom.prop.CHAIN_ID>  (489) 
A A A A A A A A A Z Z Z Z Z Z Z Z Z Z Z Z

>  <atom.prop.IS_HEAVY_ATOM>  (489) 
1 0 0 0 1 1 0 0 1 1 0 0 0 1 0 1 1 1 0 0 0

>  <DIFUSE_FUNC_ATOM>  (489) 
n/a

>  <FINAL_SINGLE_POINT_ENERGY>  (489) 
0

>  <NONCOV_INTER_ENERGY_QM>  (489) 
0

>  <FF_Energy>  (489) 
18.09

>  <QM_Energy>  (489) 
41.03

>  <source>  (489) 
ACEM_nNMA_32

>  <Index>  (489) 
26277

$$$$
ACEM-pdb4f20-A-GLN-506:NMA-pdb4f20-A-ALA-372
     RDKit          3D

 21 19  0  0  0  0  0  0  0  0999 V2000
   -4.0925    1.5561   -2.9429 C   0  0  0  0  0  0  0  0  0  0  0  0
   -3.7923    2.5082   -2.9827 H   0  0  0  0  0  0  0  0  0  0  0  0
   -5.0857    1.5133   -3.0393 H   0  0  0  0  0  0  0  0  0  0  0  0
   -3.6342    1.0070   -3.7654 H   0  0  0  0  0  0  0  0  0  0  0  0
   -3.7114    0.9855   -1.5993 C   0  0  0  0  0  0  0  0  0  0  0  0
   -2.7392    0.0881   -1.5932 N   0  0  0  0  0  0  0  0  0  0  0  0
   -2.4150   -0.3331   -0.7212 H   0  0  0  0  0  0  0  0  0  0  0  0
   -2.3108   -0.1834   -2.4785 H   0  0  0  0  0  0  0  0  0  0  0  0
   -4.2887    1.3468   -0.5770 O   0  0  0  0  0  0  0  0  0  0  0  0
   -1.1035   -2.1678   -0.0290 C   0  0  0  0  0  0  0  0  0  0  0  0
   -0.2940   -2.4473   -0.5581 H   0  0  0  0  0  0  0  0  0  0  0  0
   -1.9760   -2.5586   -0.5526 H   0  0  0  0  0  0  0  0  0  0  0  0
   -1.0230   -2.5814    0.9763 H   0  0  0  0  0  0  0  0  0  0  0  0
   -1.1203   -0.7121    0.0000 N   0  0  0  0  0  0  0  0  0  0  0  0
   -1.9947   -0.1500    0.0221 H   0  0  0  0  0  0  0  0  0  0  0  0
    0.0000    0.0000    0.0000 C   0  0  0  0  0  0  0  0  0  0  0  0
    1.1203   -0.5089   -0.0000 O   0  0  0  0  0  0  0  0  0  0  0  0
   -0.1689    1.5115    0.0154 C   0  0  0  0  0  0  0  0  0  0  0  0
   -1.1047    1.7275    0.3168 H   0  0  0  0  0  0  0  0  0  0  0  0
    0.5383    1.9701    0.7065 H   0  0  0  0  0  0  0  0  0  0  0  0
   -0.0373    1.9173   -0.9876 H   0  0  0  0  0  0  0  0  0  0  0  0
  1  5  1  0
  5  6  1  0
  5  9  2  0
  1  2  1  0
  1  3  1  0
  1  4  1  0
  6  7  1  0
  6  8  1  0
 10 14  1  0
 14 16  1  0
 16 17  2  0
 16 18  1  0
 10 11  1  0
 10 12  1  0
 10 13  1  0
 14 15  1  0
 18 19  1  0
 18 20  1  0
 18 21  1  0
M  END
>  <PDB_ID>  (490) 
pdb4f20

>  <RESIDUE_NAME>  (490) 
GLN   ALA

>  <FRAG_NAME>  (490) 
ACEM   NMA

>  <FRAG_ATOM_NUM>  (490) 
fragi: 9  fragj: 12

>  <atom.prop.CHAIN_ID>  (490) 
A A A A A A A A A Z Z Z Z Z Z Z Z Z Z Z Z

>  <atom.prop.IS_HEAVY_ATOM>  (490) 
1 0 0 0 1 1 0 0 1 1 0 0 0 1 0 1 1 1 0 0 0

>  <DIFUSE_FUNC_ATOM>  (490) 
n/a

>  <FINAL_SINGLE_POINT_ENERGY>  (490) 
0

>  <NONCOV_INTER_ENERGY_QM>  (490) 
0

>  <FF_Energy>  (490) 
36.52

>  <QM_Energy>  (490) 
53.68

>  <source>  (490) 
ACEM_nNMA_32

>  <Index>  (490) 
27649

$$$$
ACEM-pdb4f3q-A-ASN-236:NMA-pdb4f3q-A-VAL-95
     RDKit          3D

 21 19  0  0  0  0  0  0  0  0999 V2000
   -5.6181   -0.0725   -1.9048 C   0  0  0  0  0  0  0  0  0  0  0  0
   -6.4411    0.4470   -1.6861 H   0  0  0  0  0  0  0  0  0  0  0  0
   -5.8344   -1.0443   -1.9616 H   0  0  0  0  0  0  0  0  0  0  0  0
   -5.2630    0.2522   -2.8828 H   0  0  0  0  0  0  0  0  0  0  0  0
   -4.6012    0.1361   -0.7913 C   0  0  0  0  0  0  0  0  0  0  0  0
   -3.3597    0.3862   -1.1812 N   0  0  0  0  0  0  0  0  0  0  0  0
   -3.1334    0.4361   -2.1541 H   0  0  0  0  0  0  0  0  0  0  0  0
   -2.6385    0.5287   -0.4982 H   0  0  0  0  0  0  0  0  0  0  0  0
   -4.9243    0.0829    0.3970 O   0  0  0  0  0  0  0  0  0  0  0  0
   -1.0636   -2.1860   -0.0425 C   0  0  0  0  0  0  0  0  0  0  0  0
   -0.2830   -2.4973    0.4929 H   0  0  0  0  0  0  0  0  0  0  0  0
   -0.9265   -2.4975   -1.0779 H   0  0  0  0  0  0  0  0  0  0  0  0
   -1.9714   -2.6161    0.3808 H   0  0  0  0  0  0  0  0  0  0  0  0
   -1.1124   -0.7211    0.0000 N   0  0  0  0  0  0  0  0  0  0  0  0
   -1.9921   -0.1810    0.0317 H   0  0  0  0  0  0  0  0  0  0  0  0
    0.0000    0.0000    0.0000 C   0  0  0  0  0  0  0  0  0  0  0  0
    1.1124   -0.5117   -0.0000 O   0  0  0  0  0  0  0  0  0  0  0  0
   -0.1583    1.5252    0.0032 C   0  0  0  0  0  0  0  0  0  0  0  0
   -1.1190    1.7343    0.2134 H   0  0  0  0  0  0  0  0  0  0  0  0
    0.4644    1.9793    0.7740 H   0  0  0  0  0  0  0  0  0  0  0  0
    0.0935    1.9122   -0.9842 H   0  0  0  0  0  0  0  0  0  0  0  0
  1  5  1  0
  5  6  1  0
  5  9  2  0
  1  2  1  0
  1  3  1  0
  1  4  1  0
  6  7  1  0
  6  8  1  0
 10 14  1  0
 14 16  1  0
 16 17  2  0
 16 18  1  0
 10 11  1  0
 10 12  1  0
 10 13  1  0
 14 15  1  0
 18 19  1  0
 18 20  1  0
 18 21  1  0
M  END
>  <PDB_ID>  (491) 
pdb4f3q

>  <RESIDUE_NAME>  (491) 
ASN   VAL

>  <FRAG_NAME>  (491) 
ACEM   NMA

>  <FRAG_ATOM_NUM>  (491) 
fragi: 9  fragj: 12

>  <atom.prop.CHAIN_ID>  (491) 
A A A A A A A A A Z Z Z Z Z Z Z Z Z Z Z Z

>  <atom.prop.IS_HEAVY_ATOM>  (491) 
1 0 0 0 1 1 0 0 1 1 0 0 0 1 0 1 1 1 0 0 0

>  <DIFUSE_FUNC_ATOM>  (491) 
n/a

>  <FINAL_SINGLE_POINT_ENERGY>  (491) 
0

>  <NONCOV_INTER_ENERGY_QM>  (491) 
0

>  <FF_Energy>  (491) 
9.18

>  <QM_Energy>  (491) 
21.0

>  <source>  (491) 
ACEM_nNMA_33

>  <Index>  (491) 
1291

$$$$
ACEM-pdb4f23-B-ASN-277:NMA-pdb4f23-B-ASN-50
     RDKit          3D

 21 19  0  0  0  0  0  0  0  0999 V2000
   -5.8448   -0.1148   -1.4076 C   0  0  0  0  0  0  0  0  0  0  0  0
   -6.1124   -1.0591   -1.2600 H   0  0  0  0  0  0  0  0  0  0  0  0
   -5.9446    0.1326   -2.3636 H   0  0  0  0  0  0  0  0  0  0  0  0
   -6.4413    0.5491   -0.7818 H   0  0  0  0  0  0  0  0  0  0  0  0
   -4.3082   -0.0262   -1.0774 C   0  0  0  0  0  0  0  0  0  0  0  0
   -3.9682   -0.1672    0.1407 N   0  0  0  0  0  0  0  0  0  0  0  0
   -4.6625   -0.3372    0.8635 H   0  0  0  0  0  0  0  0  0  0  0  0
   -2.9995   -0.1180    0.4306 H   0  0  0  0  0  0  0  0  0  0  0  0
   -3.5019    0.2051   -1.9524 O   0  0  0  0  0  0  0  0  0  0  0  0
   -1.0977   -2.2248   -0.1234 C   0  0  0  0  0  0  0  0  0  0  0  0
   -1.9484   -2.4958   -0.6290 H   0  0  0  0  0  0  0  0  0  0  0  0
   -0.3215   -2.4645   -0.7505 H   0  0  0  0  0  0  0  0  0  0  0  0
   -1.0176   -2.7877    0.8066 H   0  0  0  0  0  0  0  0  0  0  0  0
   -1.1181   -0.7084   -0.0000 N   0  0  0  0  0  0  0  0  0  0  0  0
   -1.9956   -0.1835    0.0872 H   0  0  0  0  0  0  0  0  0  0  0  0
    0.0000    0.0000    0.0000 C   0  0  0  0  0  0  0  0  0  0  0  0
    1.1181   -0.4852   -0.0000 O   0  0  0  0  0  0  0  0  0  0  0  0
   -0.2275    1.5263    0.0439 C   0  0  0  0  0  0  0  0  0  0  0  0
   -0.5603    1.7920   -0.8628 H   0  0  0  0  0  0  0  0  0  0  0  0
   -1.0077    1.7730    0.7640 H   0  0  0  0  0  0  0  0  0  0  0  0
    0.6929    2.0713    0.2535 H   0  0  0  0  0  0  0  0  0  0  0  0
  1  5  1  0
  5  6  1  0
  5  9  2  0
  1  2  1  0
  1  3  1  0
  1  4  1  0
  6  7  1  0
  6  8  1  0
 10 14  1  0
 14 16  1  0
 16 17  2  0
 16 18  1  0
 10 11  1  0
 10 12  1  0
 10 13  1  0
 14 15  1  0
 18 19  1  0
 18 20  1  0
 18 21  1  0
M  END
>  <PDB_ID>  (492) 
pdb4f23

>  <RESIDUE_NAME>  (492) 
ASN   ASN

>  <FRAG_NAME>  (492) 
ACEM   NMA

>  <FRAG_ATOM_NUM>  (492) 
fragi: 9  fragj: 12

>  <atom.prop.CHAIN_ID>  (492) 
A A A A A A A A A Z Z Z Z Z Z Z Z Z Z Z Z

>  <atom.prop.IS_HEAVY_ATOM>  (492) 
1 0 0 0 1 1 0 0 1 1 0 0 0 1 0 1 1 1 0 0 0

>  <DIFUSE_FUNC_ATOM>  (492) 
n/a

>  <FINAL_SINGLE_POINT_ENERGY>  (492) 
0

>  <NONCOV_INTER_ENERGY_QM>  (492) 
0

>  <FF_Energy>  (492) 
5.93

>  <QM_Energy>  (492) 
19.84

>  <source>  (492) 
ACEM_nNMA_33

>  <Index>  (492) 
3667

$$$$
ACEM-pdb3i5q-B-GLN-1272:NMA-pdb3i5q-B-ILE-1301
     RDKit          3D

 21 19  0  0  0  0  0  0  0  0999 V2000
   -5.8352    1.3452   -0.9197 C   0  0  0  0  0  0  0  0  0  0  0  0
   -6.2153    0.4311   -1.0899 H   0  0  0  0  0  0  0  0  0  0  0  0
   -5.6804    1.7992   -1.8030 H   0  0  0  0  0  0  0  0  0  0  0  0
   -6.5681    1.9245   -0.3579 H   0  0  0  0  0  0  0  0  0  0  0  0
   -4.4902    1.1848   -0.2178 C   0  0  0  0  0  0  0  0  0  0  0  0
   -3.5257    0.5984   -0.9199 N   0  0  0  0  0  0  0  0  0  0  0  0
   -2.6001    0.4697   -0.5226 H   0  0  0  0  0  0  0  0  0  0  0  0
   -3.7305    0.2789   -1.8641 H   0  0  0  0  0  0  0  0  0  0  0  0
   -4.3224    1.5779    0.9377 O   0  0  0  0  0  0  0  0  0  0  0  0
   -1.0664   -2.1728   -0.1021 C   0  0  0  0  0  0  0  0  0  0  0  0
   -0.2752   -2.5027    0.4061 H   0  0  0  0  0  0  0  0  0  0  0  0
   -0.9401   -2.4337   -1.1528 H   0  0  0  0  0  0  0  0  0  0  0  0
   -1.9844   -2.6227    0.2760 H   0  0  0  0  0  0  0  0  0  0  0  0
   -1.1170   -0.7212   -0.0000 N   0  0  0  0  0  0  0  0  0  0  0  0
   -1.9921   -0.1784    0.0759 H   0  0  0  0  0  0  0  0  0  0  0  0
    0.0000    0.0000    0.0000 C   0  0  0  0  0  0  0  0  0  0  0  0
    1.1170   -0.5074    0.0000 O   0  0  0  0  0  0  0  0  0  0  0  0
   -0.1585    1.5153    0.0275 C   0  0  0  0  0  0  0  0  0  0  0  0
   -1.1427    1.7007   -0.0466 H   0  0  0  0  0  0  0  0  0  0  0  0
    0.1604    1.9163    0.9896 H   0  0  0  0  0  0  0  0  0  0  0  0
    0.4179    1.9576   -0.7850 H   0  0  0  0  0  0  0  0  0  0  0  0
  1  5  1  0
  5  6  1  0
  5  9  2  0
  1  2  1  0
  1  3  1  0
  1  4  1  0
  6  7  1  0
  6  8  1  0
 10 14  1  0
 14 16  1  0
 16 17  2  0
 16 18  1  0
 10 11  1  0
 10 12  1  0
 10 13  1  0
 14 15  1  0
 18 19  1  0
 18 20  1  0
 18 21  1  0
M  END
>  <PDB_ID>  (493) 
pdb3i5q

>  <RESIDUE_NAME>  (493) 
GLN   ILE

>  <FRAG_NAME>  (493) 
ACEM   NMA

>  <FRAG_ATOM_NUM>  (493) 
fragi: 9  fragj: 12

>  <atom.prop.CHAIN_ID>  (493) 
A A A A A A A A A Z Z Z Z Z Z Z Z Z Z Z Z

>  <atom.prop.IS_HEAVY_ATOM>  (493) 
1 0 0 0 1 1 0 0 1 1 0 0 0 1 0 1 1 1 0 0 0

>  <DIFUSE_FUNC_ATOM>  (493) 
n/a

>  <FINAL_SINGLE_POINT_ENERGY>  (493) 
0

>  <NONCOV_INTER_ENERGY_QM>  (493) 
0

>  <FF_Energy>  (493) 
6.79

>  <QM_Energy>  (493) 
19.59

>  <source>  (493) 
ACEM_nNMA_33

>  <Index>  (493) 
4653

$$$$
ACEM-pdb3i12-C-ASN-279:NMA-pdb3i12-C-THR-243
     RDKit          3D

 21 19  0  0  0  0  0  0  0  0999 V2000
   -6.3563    0.9840    0.5953 C   0  0  0  0  0  0  0  0  0  0  0  0
   -6.7979    0.6220   -0.2213 H   0  0  0  0  0  0  0  0  0  0  0  0
   -6.6953    1.9001    0.7912 H   0  0  0  0  0  0  0  0  0  0  0  0
   -6.6102    0.3384    1.4361 H   0  0  0  0  0  0  0  0  0  0  0  0
   -4.8516    1.0717    0.3317 C   0  0  0  0  0  0  0  0  0  0  0  0
   -4.1537   -0.0775    0.4420 N   0  0  0  0  0  0  0  0  0  0  0  0
   -4.6409   -0.9163    0.6790 H   0  0  0  0  0  0  0  0  0  0  0  0
   -3.1757   -0.0779    0.2874 H   0  0  0  0  0  0  0  0  0  0  0  0
   -4.3072    2.1560    0.0567 O   0  0  0  0  0  0  0  0  0  0  0  0
   -1.1813   -2.1423   -0.1405 C   0  0  0  0  0  0  0  0  0  0  0  0
   -0.4765   -2.5455    0.4867 H   0  0  0  0  0  0  0  0  0  0  0  0
   -0.9851   -2.5238   -1.1426 H   0  0  0  0  0  0  0  0  0  0  0  0
   -2.1487   -2.5374    0.1694 H   0  0  0  0  0  0  0  0  0  0  0  0
   -1.1386   -0.7008   -0.0000 N   0  0  0  0  0  0  0  0  0  0  0  0
   -1.9975   -0.1081    0.1113 H   0  0  0  0  0  0  0  0  0  0  0  0
    0.0000    0.0000    0.0000 C   0  0  0  0  0  0  0  0  0  0  0  0
    1.1386   -0.5253   -0.0000 O   0  0  0  0  0  0  0  0  0  0  0  0
   -0.1548    1.5287    0.0077 C   0  0  0  0  0  0  0  0  0  0  0  0
   -0.9446    1.7574    0.5773 H   0  0  0  0  0  0  0  0  0  0  0  0
    0.7364    1.9821    0.4415 H   0  0  0  0  0  0  0  0  0  0  0  0
   -0.3436    1.9080   -0.9966 H   0  0  0  0  0  0  0  0  0  0  0  0
  1  5  1  0
  5  6  1  0
  5  9  2  0
  1  2  1  0
  1  3  1  0
  1  4  1  0
  6  7  1  0
  6  8  1  0
 10 14  1  0
 14 16  1  0
 16 17  2  0
 16 18  1  0
 10 11  1  0
 10 12  1  0
 10 13  1  0
 14 15  1  0
 18 19  1  0
 18 20  1  0
 18 21  1  0
M  END
>  <PDB_ID>  (494) 
pdb3i12

>  <RESIDUE_NAME>  (494) 
ASN   THR

>  <FRAG_NAME>  (494) 
ACEM   NMA

>  <FRAG_ATOM_NUM>  (494) 
fragi: 9  fragj: 12

>  <atom.prop.CHAIN_ID>  (494) 
A A A A A A A A A Z Z Z Z Z Z Z Z Z Z Z Z

>  <atom.prop.IS_HEAVY_ATOM>  (494) 
1 0 0 0 1 1 0 0 1 1 0 0 0 1 0 1 1 1 0 0 0

>  <DIFUSE_FUNC_ATOM>  (494) 
n/a

>  <FINAL_SINGLE_POINT_ENERGY>  (494) 
0

>  <NONCOV_INTER_ENERGY_QM>  (494) 
0

>  <FF_Energy>  (494) 
2.0

>  <QM_Energy>  (494) 
12.08

>  <source>  (494) 
ACEM_nNMA_33

>  <Index>  (494) 
6744

$$$$
ACEM-pdb4f53-B-GLN-56:NMA-pdb4f53-B-ASP-203
     RDKit          3D

 21 19  0  0  0  0  0  0  0  0999 V2000
   -5.3602    1.3443   -2.4011 C   0  0  0  0  0  0  0  0  0  0  0  0
   -5.8663    0.4976   -2.5527 H   0  0  0  0  0  0  0  0  0  0  0  0
   -5.2717    1.8436   -3.2617 H   0  0  0  0  0  0  0  0  0  0  0  0
   -5.9174    1.9614   -1.6963 H   0  0  0  0  0  0  0  0  0  0  0  0
   -3.9881    1.0062   -1.8886 C   0  0  0  0  0  0  0  0  0  0  0  0
   -3.9511    0.1344   -0.9062 N   0  0  0  0  0  0  0  0  0  0  0  0
   -3.0496   -0.1679   -0.5007 H   0  0  0  0  0  0  0  0  0  0  0  0
   -4.8183   -0.2481   -0.5379 H   0  0  0  0  0  0  0  0  0  0  0  0
   -2.9576    1.4961   -2.3751 O   0  0  0  0  0  0  0  0  0  0  0  0
   -1.1024   -2.1870    0.0384 C   0  0  0  0  0  0  0  0  0  0  0  0
   -0.2642   -2.4862    0.5114 H   0  0  0  0  0  0  0  0  0  0  0  0
   -1.1029   -2.6129   -0.9649 H   0  0  0  0  0  0  0  0  0  0  0  0
   -1.9296   -2.5751    0.6326 H   0  0  0  0  0  0  0  0  0  0  0  0
   -1.1259   -0.7227   -0.0000 N   0  0  0  0  0  0  0  0  0  0  0  0
   -1.9993   -0.1653   -0.0290 H   0  0  0  0  0  0  0  0  0  0  0  0
    0.0000    0.0000    0.0000 C   0  0  0  0  0  0  0  0  0  0  0  0
    1.1259   -0.4987   -0.0000 O   0  0  0  0  0  0  0  0  0  0  0  0
   -0.1762    1.5095   -0.0378 C   0  0  0  0  0  0  0  0  0  0  0  0
   -1.1488    1.6909   -0.2312 H   0  0  0  0  0  0  0  0  0  0  0  0
    0.0462    1.9576    0.9306 H   0  0  0  0  0  0  0  0  0  0  0  0
    0.4682    1.9670   -0.7885 H   0  0  0  0  0  0  0  0  0  0  0  0
  1  5  1  0
  5  6  1  0
  5  9  2  0
  1  2  1  0
  1  3  1  0
  1  4  1  0
  6  7  1  0
  6  8  1  0
 10 14  1  0
 14 16  1  0
 16 17  2  0
 16 18  1  0
 10 11  1  0
 10 12  1  0
 10 13  1  0
 14 15  1  0
 18 19  1  0
 18 20  1  0
 18 21  1  0
M  END
>  <PDB_ID>  (495) 
pdb4f53

>  <RESIDUE_NAME>  (495) 
GLN   ASP

>  <FRAG_NAME>  (495) 
ACEM   NMA

>  <FRAG_ATOM_NUM>  (495) 
fragi: 9  fragj: 12

>  <atom.prop.CHAIN_ID>  (495) 
A A A A A A A A A Z Z Z Z Z Z Z Z Z Z Z Z

>  <atom.prop.IS_HEAVY_ATOM>  (495) 
1 0 0 0 1 1 0 0 1 1 0 0 0 1 0 1 1 1 0 0 0

>  <DIFUSE_FUNC_ATOM>  (495) 
n/a

>  <FINAL_SINGLE_POINT_ENERGY>  (495) 
0

>  <NONCOV_INTER_ENERGY_QM>  (495) 
0

>  <FF_Energy>  (495) 
2.75

>  <QM_Energy>  (495) 
13.6

>  <source>  (495) 
ACEM_nNMA_33

>  <Index>  (495) 
7394

$$$$
ACEM-pdb3ian-A-GLN-247:NMA-pdb3ian-A-ASN-230
     RDKit          3D

 21 19  0  0  0  0  0  0  0  0999 V2000
   -6.0965   -0.3172    0.7764 C   0  0  0  0  0  0  0  0  0  0  0  0
   -6.7960    0.3400    0.5340 H   0  0  0  0  0  0  0  0  0  0  0  0
   -5.9927   -0.3823    1.7584 H   0  0  0  0  0  0  0  0  0  0  0  0
   -6.4123   -1.2933    0.4080 H   0  0  0  0  0  0  0  0  0  0  0  0
   -4.7801    0.0984    0.1568 C   0  0  0  0  0  0  0  0  0  0  0  0
   -3.6657   -0.1917    0.8353 N   0  0  0  0  0  0  0  0  0  0  0  0
   -2.7554    0.0448    0.4716 H   0  0  0  0  0  0  0  0  0  0  0  0
   -3.7577   -0.6621    1.7368 H   0  0  0  0  0  0  0  0  0  0  0  0
   -4.7772    0.7262   -0.8898 O   0  0  0  0  0  0  0  0  0  0  0  0
   -1.0914   -2.1746   -0.0054 C   0  0  0  0  0  0  0  0  0  0  0  0
   -0.1179   -2.4632    0.0232 H   0  0  0  0  0  0  0  0  0  0  0  0
   -1.5379   -2.6149   -0.8970 H   0  0  0  0  0  0  0  0  0  0  0  0
   -1.5619   -2.5639    0.8975 H   0  0  0  0  0  0  0  0  0  0  0  0
   -1.1267   -0.7189   -0.0000 N   0  0  0  0  0  0  0  0  0  0  0  0
   -1.9982   -0.1623    0.0036 H   0  0  0  0  0  0  0  0  0  0  0  0
    0.0000    0.0000    0.0000 C   0  0  0  0  0  0  0  0  0  0  0  0
    1.1267   -0.5258   -0.0000 O   0  0  0  0  0  0  0  0  0  0  0  0
   -0.1353    1.5281   -0.0282 C   0  0  0  0  0  0  0  0  0  0  0  0
   -0.0080    1.8138   -1.0062 H   0  0  0  0  0  0  0  0  0  0  0  0
   -1.0899    1.9390    0.3004 H   0  0  0  0  0  0  0  0  0  0  0  0
    0.6839    1.9852    0.5268 H   0  0  0  0  0  0  0  0  0  0  0  0
  1  5  1  0
  5  6  1  0
  5  9  2  0
  1  2  1  0
  1  3  1  0
  1  4  1  0
  6  7  1  0
  6  8  1  0
 10 14  1  0
 14 16  1  0
 16 17  2  0
 16 18  1  0
 10 11  1  0
 10 12  1  0
 10 13  1  0
 14 15  1  0
 18 19  1  0
 18 20  1  0
 18 21  1  0
M  END
>  <PDB_ID>  (496) 
pdb3ian

>  <RESIDUE_NAME>  (496) 
GLN   ASN

>  <FRAG_NAME>  (496) 
ACEM   NMA

>  <FRAG_ATOM_NUM>  (496) 
fragi: 9  fragj: 12

>  <atom.prop.CHAIN_ID>  (496) 
A A A A A A A A A Z Z Z Z Z Z Z Z Z Z Z Z

>  <atom.prop.IS_HEAVY_ATOM>  (496) 
1 0 0 0 1 1 0 0 1 1 0 0 0 1 0 1 1 1 0 0 0

>  <DIFUSE_FUNC_ATOM>  (496) 
n/a

>  <FINAL_SINGLE_POINT_ENERGY>  (496) 
0

>  <NONCOV_INTER_ENERGY_QM>  (496) 
0

>  <FF_Energy>  (496) 
13.41

>  <QM_Energy>  (496) 
34.94

>  <source>  (496) 
ACEM_nNMA_33

>  <Index>  (496) 
8917

$$$$
ACEM-pdb4fdd-A-ASN-770:NMA-pdb4fdd-B-PRO-508
     RDKit          3D

 21 19  0  0  0  0  0  0  0  0999 V2000
   -5.2156    1.7495   -1.3791 C   0  0  0  0  0  0  0  0  0  0  0  0
   -5.7805    2.1100   -0.6447 H   0  0  0  0  0  0  0  0  0  0  0  0
   -5.7554    1.1681   -1.9786 H   0  0  0  0  0  0  0  0  0  0  0  0
   -4.8330    2.5864   -1.9634 H   0  0  0  0  0  0  0  0  0  0  0  0
   -4.1022    0.9173   -0.7707 C   0  0  0  0  0  0  0  0  0  0  0  0
   -3.1198    0.5317   -1.5936 N   0  0  0  0  0  0  0  0  0  0  0  0
   -3.1536    0.8062   -2.5564 H   0  0  0  0  0  0  0  0  0  0  0  0
   -2.3681   -0.0194   -1.2504 H   0  0  0  0  0  0  0  0  0  0  0  0
   -4.1277    0.6043    0.4244 O   0  0  0  0  0  0  0  0  0  0  0  0
   -1.1178   -2.1519    0.2418 C   0  0  0  0  0  0  0  0  0  0  0  0
   -1.1664   -2.6407   -0.6377 H   0  0  0  0  0  0  0  0  0  0  0  0
   -0.2609   -2.4131    0.7016 H   0  0  0  0  0  0  0  0  0  0  0  0
   -1.9651   -2.4400    0.8641 H   0  0  0  0  0  0  0  0  0  0  0  0
   -1.1212   -0.7169    0.0000 N   0  0  0  0  0  0  0  0  0  0  0  0
   -1.9863   -0.1685   -0.1854 H   0  0  0  0  0  0  0  0  0  0  0  0
    0.0000    0.0000    0.0000 C   0  0  0  0  0  0  0  0  0  0  0  0
    1.1212   -0.5086   -0.0000 O   0  0  0  0  0  0  0  0  0  0  0  0
   -0.1559    1.5292   -0.0158 C   0  0  0  0  0  0  0  0  0  0  0  0
   -1.1327    1.7839   -0.1412 H   0  0  0  0  0  0  0  0  0  0  0  0
    0.2522    2.0259    0.8644 H   0  0  0  0  0  0  0  0  0  0  0  0
    0.4186    1.9593   -0.8363 H   0  0  0  0  0  0  0  0  0  0  0  0
  1  5  1  0
  5  6  1  0
  5  9  2  0
  1  2  1  0
  1  3  1  0
  1  4  1  0
  6  7  1  0
  6  8  1  0
 10 14  1  0
 14 16  1  0
 16 17  2  0
 16 18  1  0
 10 11  1  0
 10 12  1  0
 10 13  1  0
 14 15  1  0
 18 19  1  0
 18 20  1  0
 18 21  1  0
M  END
>  <PDB_ID>  (497) 
pdb4fdd

>  <RESIDUE_NAME>  (497) 
ASN   PRO

>  <FRAG_NAME>  (497) 
ACEM   NMA

>  <FRAG_ATOM_NUM>  (497) 
fragi: 9  fragj: 12

>  <atom.prop.CHAIN_ID>  (497) 
A A A A A A A A A Z Z Z Z Z Z Z Z Z Z Z Z

>  <atom.prop.IS_HEAVY_ATOM>  (497) 
1 0 0 0 1 1 0 0 1 1 0 0 0 1 0 1 1 1 0 0 0

>  <DIFUSE_FUNC_ATOM>  (497) 
n/a

>  <FINAL_SINGLE_POINT_ENERGY>  (497) 
0

>  <NONCOV_INTER_ENERGY_QM>  (497) 
0

>  <FF_Energy>  (497) 
2.9

>  <QM_Energy>  (497) 
13.78

>  <source>  (497) 
ACEM_nNMA_33

>  <Index>  (497) 
16208

$$$$
ACEM-pdb3ihx-B-GLN-115:NMA-pdb3ihx-B-VAL-68
     RDKit          3D

 21 19  0  0  0  0  0  0  0  0999 V2000
   -5.4772    1.2536    0.7467 C   0  0  0  0  0  0  0  0  0  0  0  0
   -6.1517    0.5160    0.8139 H   0  0  0  0  0  0  0  0  0  0  0  0
   -5.6500    1.7825   -0.0864 H   0  0  0  0  0  0  0  0  0  0  0  0
   -5.6056    1.9142    1.6041 H   0  0  0  0  0  0  0  0  0  0  0  0
   -4.0915    0.6394    0.6568 C   0  0  0  0  0  0  0  0  0  0  0  0
   -3.6785    0.2723   -0.5400 N   0  0  0  0  0  0  0  0  0  0  0  0
   -2.7561   -0.1342   -0.6805 H   0  0  0  0  0  0  0  0  0  0  0  0
   -4.3032    0.3993   -1.3399 H   0  0  0  0  0  0  0  0  0  0  0  0
   -3.4086    0.4947    1.6512 O   0  0  0  0  0  0  0  0  0  0  0  0
   -1.3476   -2.1833   -0.2741 C   0  0  0  0  0  0  0  0  0  0  0  0
   -2.2772   -2.2711   -0.6306 H   0  0  0  0  0  0  0  0  0  0  0  0
   -1.2570   -2.7403    0.6585 H   0  0  0  0  0  0  0  0  0  0  0  0
   -0.7495   -2.6166   -1.0758 H   0  0  0  0  0  0  0  0  0  0  0  0
   -1.1366   -0.7114   -0.0000 N   0  0  0  0  0  0  0  0  0  0  0  0
   -1.9962   -0.0945    0.2364 H   0  0  0  0  0  0  0  0  0  0  0  0
    0.0000    0.0000    0.0000 C   0  0  0  0  0  0  0  0  0  0  0  0
    1.1366   -0.4954   -0.0000 O   0  0  0  0  0  0  0  0  0  0  0  0
   -0.2061    1.5377    0.0064 C   0  0  0  0  0  0  0  0  0  0  0  0
   -1.1397    1.7166    0.3761 H   0  0  0  0  0  0  0  0  0  0  0  0
    0.5037    2.1035    0.6099 H   0  0  0  0  0  0  0  0  0  0  0  0
   -0.2079    1.8910   -1.0248 H   0  0  0  0  0  0  0  0  0  0  0  0
  1  5  1  0
  5  6  1  0
  5  9  2  0
  1  2  1  0
  1  3  1  0
  1  4  1  0
  6  7  1  0
  6  8  1  0
 10 14  1  0
 14 16  1  0
 16 17  2  0
 16 18  1  0
 10 11  1  0
 10 12  1  0
 10 13  1  0
 14 15  1  0
 18 19  1  0
 18 20  1  0
 18 21  1  0
M  END
>  <PDB_ID>  (498) 
pdb3ihx

>  <RESIDUE_NAME>  (498) 
GLN   VAL

>  <FRAG_NAME>  (498) 
ACEM   NMA

>  <FRAG_ATOM_NUM>  (498) 
fragi: 9  fragj: 12

>  <atom.prop.CHAIN_ID>  (498) 
A A A A A A A A A Z Z Z Z Z Z Z Z Z Z Z Z

>  <atom.prop.IS_HEAVY_ATOM>  (498) 
1 0 0 0 1 1 0 0 1 1 0 0 0 1 0 1 1 1 0 0 0

>  <DIFUSE_FUNC_ATOM>  (498) 
n/a

>  <FINAL_SINGLE_POINT_ENERGY>  (498) 
0

>  <NONCOV_INTER_ENERGY_QM>  (498) 
0

>  <FF_Energy>  (498) 
1.36

>  <QM_Energy>  (498) 
12.8

>  <source>  (498) 
ACEM_nNMA_33

>  <Index>  (498) 
17367

$$$$
ACEM-pdb3ik2-A-GLN-396:NMA-pdb3ik2-A-SER-28
     RDKit          3D

 21 19  0  0  0  0  0  0  0  0999 V2000
   -6.1708    0.1807   -0.3278 C   0  0  0  0  0  0  0  0  0  0  0  0
   -6.1081    0.2870   -1.3213 H   0  0  0  0  0  0  0  0  0  0  0  0
   -6.8124    0.8569    0.0368 H   0  0  0  0  0  0  0  0  0  0  0  0
   -6.5319   -0.8210   -0.0948 H   0  0  0  0  0  0  0  0  0  0  0  0
   -4.8008    0.4586    0.2656 C   0  0  0  0  0  0  0  0  0  0  0  0
   -3.9278   -0.5378    0.2482 N   0  0  0  0  0  0  0  0  0  0  0  0
   -2.9885   -0.4204    0.6148 H   0  0  0  0  0  0  0  0  0  0  0  0
   -4.2156   -1.4369   -0.1431 H   0  0  0  0  0  0  0  0  0  0  0  0
   -4.5567    1.5413    0.7764 O   0  0  0  0  0  0  0  0  0  0  0  0
   -1.0656   -2.2010   -0.0338 C   0  0  0  0  0  0  0  0  0  0  0  0
   -0.2178   -2.4515   -0.5451 H   0  0  0  0  0  0  0  0  0  0  0  0
   -1.8920   -2.6988   -0.5411 H   0  0  0  0  0  0  0  0  0  0  0  0
   -0.9408   -2.6008    0.9726 H   0  0  0  0  0  0  0  0  0  0  0  0
   -1.1210   -0.7239   -0.0000 N   0  0  0  0  0  0  0  0  0  0  0  0
   -1.9971   -0.1882    0.0248 H   0  0  0  0  0  0  0  0  0  0  0  0
    0.0000    0.0000    0.0000 C   0  0  0  0  0  0  0  0  0  0  0  0
    1.1210   -0.5159   -0.0000 O   0  0  0  0  0  0  0  0  0  0  0  0
   -0.1417    1.5205   -0.0051 C   0  0  0  0  0  0  0  0  0  0  0  0
    0.7134    1.9114   -0.3561 H   0  0  0  0  0  0  0  0  0  0  0  0
   -0.9476    1.8272   -0.6719 H   0  0  0  0  0  0  0  0  0  0  0  0
   -0.2812    1.9107    1.0030 H   0  0  0  0  0  0  0  0  0  0  0  0
  1  5  1  0
  5  6  1  0
  5  9  2  0
  1  2  1  0
  1  3  1  0
  1  4  1  0
  6  7  1  0
  6  8  1  0
 10 14  1  0
 14 16  1  0
 16 17  2  0
 16 18  1  0
 10 11  1  0
 10 12  1  0
 10 13  1  0
 14 15  1  0
 18 19  1  0
 18 20  1  0
 18 21  1  0
M  END
>  <PDB_ID>  (499) 
pdb3ik2

>  <RESIDUE_NAME>  (499) 
GLN   SER

>  <FRAG_NAME>  (499) 
ACEM   NMA

>  <FRAG_ATOM_NUM>  (499) 
fragi: 9  fragj: 12

>  <atom.prop.CHAIN_ID>  (499) 
A A A A A A A A A Z Z Z Z Z Z Z Z Z Z Z Z

>  <atom.prop.IS_HEAVY_ATOM>  (499) 
1 0 0 0 1 1 0 0 1 1 0 0 0 1 0 1 1 1 0 0 0

>  <DIFUSE_FUNC_ATOM>  (499) 
n/a

>  <FINAL_SINGLE_POINT_ENERGY>  (499) 
0

>  <NONCOV_INTER_ENERGY_QM>  (499) 
0

>  <FF_Energy>  (499) 
3.89

>  <QM_Energy>  (499) 
14.54

>  <source>  (499) 
ACEM_nNMA_33

>  <Index>  (499) 
18682

$$$$
ACEM-pdb3iiw-A-ASN-326:NMA-pdb3iiw-A-GLN-360
     RDKit          3D

 21 19  0  0  0  0  0  0  0  0999 V2000
   -5.6168    0.4414    1.8698 C   0  0  0  0  0  0  0  0  0  0  0  0
   -6.4746    0.7850    1.5030 H   0  0  0  0  0  0  0  0  0  0  0  0
   -5.2960    1.0236    2.6095 H   0  0  0  0  0  0  0  0  0  0  0  0
   -5.7913   -0.5571    2.2709 H   0  0  0  0  0  0  0  0  0  0  0  0
   -4.5761    0.4478    0.7586 C   0  0  0  0  0  0  0  0  0  0  0  0
   -3.4624   -0.2393    0.9803 N   0  0  0  0  0  0  0  0  0  0  0  0
   -3.3484   -0.7323    1.8460 H   0  0  0  0  0  0  0  0  0  0  0  0
   -2.7421   -0.2683    0.2906 H   0  0  0  0  0  0  0  0  0  0  0  0
   -4.7397    1.1218   -0.2548 O   0  0  0  0  0  0  0  0  0  0  0  0
   -1.1111   -2.1663    0.0526 C   0  0  0  0  0  0  0  0  0  0  0  0
   -0.2505   -2.4888   -0.3339 H   0  0  0  0  0  0  0  0  0  0  0  0
   -1.9224   -2.5500   -0.5661 H   0  0  0  0  0  0  0  0  0  0  0  0
   -1.1653   -2.4938    1.0907 H   0  0  0  0  0  0  0  0  0  0  0  0
   -1.1263   -0.7059   -0.0000 N   0  0  0  0  0  0  0  0  0  0  0  0
   -1.9964   -0.1438   -0.0395 H   0  0  0  0  0  0  0  0  0  0  0  0
    0.0000    0.0000    0.0000 C   0  0  0  0  0  0  0  0  0  0  0  0
    1.1263   -0.5212   -0.0000 O   0  0  0  0  0  0  0  0  0  0  0  0
   -0.1780    1.4891   -0.2823 C   0  0  0  0  0  0  0  0  0  0  0  0
   -0.5829    1.5815   -1.2070 H   0  0  0  0  0  0  0  0  0  0  0  0
   -0.8485    1.9788    0.4239 H   0  0  0  0  0  0  0  0  0  0  0  0
    0.7839    2.0009   -0.3152 H   0  0  0  0  0  0  0  0  0  0  0  0
  1  5  1  0
  5  6  1  0
  5  9  2  0
  1  2  1  0
  1  3  1  0
  1  4  1  0
  6  7  1  0
  6  8  1  0
 10 14  1  0
 14 16  1  0
 16 17  2  0
 16 18  1  0
 10 11  1  0
 10 12  1  0
 10 13  1  0
 14 15  1  0
 18 19  1  0
 18 20  1  0
 18 21  1  0
M  END
>  <PDB_ID>  (500) 
pdb3iiw

>  <RESIDUE_NAME>  (500) 
ASN   GLN

>  <FRAG_NAME>  (500) 
ACEM   NMA

>  <FRAG_ATOM_NUM>  (500) 
fragi: 9  fragj: 12

>  <atom.prop.CHAIN_ID>  (500) 
A A A A A A A A A Z Z Z Z Z Z Z Z Z Z Z Z

>  <atom.prop.IS_HEAVY_ATOM>  (500) 
1 0 0 0 1 1 0 0 1 1 0 0 0 1 0 1 1 1 0 0 0

>  <DIFUSE_FUNC_ATOM>  (500) 
n/a

>  <FINAL_SINGLE_POINT_ENERGY>  (500) 
0

>  <NONCOV_INTER_ENERGY_QM>  (500) 
0

>  <FF_Energy>  (500) 
20.01

>  <QM_Energy>  (500) 
50.72

>  <source>  (500) 
ACEM_nNMA_33

>  <Index>  (500) 
19401

$$$$
ACEM-pdb4fkz-B-ASN-272:NMA-pdb4fkz-B-VAL-184
     RDKit          3D

 21 19  0  0  0  0  0  0  0  0999 V2000
   -5.1926    1.6759    1.9768 C   0  0  0  0  0  0  0  0  0  0  0  0
   -5.5505    1.8239    2.8914 H   0  0  0  0  0  0  0  0  0  0  0  0
   -5.7219    0.9810    1.5025 H   0  0  0  0  0  0  0  0  0  0  0  0
   -5.2672    2.6096    1.4194 H   0  0  0  0  0  0  0  0  0  0  0  0
   -3.7616    1.2059    2.0866 C   0  0  0  0  0  0  0  0  0  0  0  0
   -3.2261    0.7441    0.9820 N   0  0  0  0  0  0  0  0  0  0  0  0
   -3.7443    0.7181    0.1251 H   0  0  0  0  0  0  0  0  0  0  0  0
   -2.2746    0.4074    0.9817 H   0  0  0  0  0  0  0  0  0  0  0  0
   -3.1388    1.2829    3.1484 O   0  0  0  0  0  0  0  0  0  0  0  0
   -1.1454   -2.1662   -0.0060 C   0  0  0  0  0  0  0  0  0  0  0  0
   -0.2080   -2.5017   -0.1225 H   0  0  0  0  0  0  0  0  0  0  0  0
   -1.7562   -2.5203   -0.8364 H   0  0  0  0  0  0  0  0  0  0  0  0
   -1.5448   -2.5484    0.9335 H   0  0  0  0  0  0  0  0  0  0  0  0
   -1.1205   -0.7022    0.0000 N   0  0  0  0  0  0  0  0  0  0  0  0
   -1.9947   -0.1247    0.0047 H   0  0  0  0  0  0  0  0  0  0  0  0
    0.0000    0.0000    0.0000 C   0  0  0  0  0  0  0  0  0  0  0  0
    1.1205   -0.5049    0.0000 O   0  0  0  0  0  0  0  0  0  0  0  0
   -0.1769    1.5256    0.0657 C   0  0  0  0  0  0  0  0  0  0  0  0
   -1.0971    1.7119    0.4148 H   0  0  0  0  0  0  0  0  0  0  0  0
    0.5454    1.9559    0.7594 H   0  0  0  0  0  0  0  0  0  0  0  0
   -0.1609    1.9847   -0.9228 H   0  0  0  0  0  0  0  0  0  0  0  0
  1  5  1  0
  5  6  1  0
  5  9  2  0
  1  2  1  0
  1  3  1  0
  1  4  1  0
  6  7  1  0
  6  8  1  0
 10 14  1  0
 14 16  1  0
 16 17  2  0
 16 18  1  0
 10 11  1  0
 10 12  1  0
 10 13  1  0
 14 15  1  0
 18 19  1  0
 18 20  1  0
 18 21  1  0
M  END
>  <PDB_ID>  (501) 
pdb4fkz

>  <RESIDUE_NAME>  (501) 
ASN   VAL

>  <FRAG_NAME>  (501) 
ACEM   NMA

>  <FRAG_ATOM_NUM>  (501) 
fragi: 9  fragj: 12

>  <atom.prop.CHAIN_ID>  (501) 
A A A A A A A A A Z Z Z Z Z Z Z Z Z Z Z Z

>  <atom.prop.IS_HEAVY_ATOM>  (501) 
1 0 0 0 1 1 0 0 1 1 0 0 0 1 0 1 1 1 0 0 0

>  <DIFUSE_FUNC_ATOM>  (501) 
n/a

>  <FINAL_SINGLE_POINT_ENERGY>  (501) 
0

>  <NONCOV_INTER_ENERGY_QM>  (501) 
0

>  <FF_Energy>  (501) 
11.06

>  <QM_Energy>  (501) 
22.6

>  <source>  (501) 
ACEM_nNMA_33

>  <Index>  (501) 
21658

$$$$
ACEM-pdb3im8-A-ASN-229:NMA-pdb3im8-A-LEU-89
     RDKit          3D

 21 19  0  0  0  0  0  0  0  0999 V2000
   -6.1826    0.1341    0.6331 C   0  0  0  0  0  0  0  0  0  0  0  0
   -6.3346   -0.7117    1.1373 H   0  0  0  0  0  0  0  0  0  0  0  0
   -6.3004   -0.0229   -0.3435 H   0  0  0  0  0  0  0  0  0  0  0  0
   -6.9262    0.8632    0.9551 H   0  0  0  0  0  0  0  0  0  0  0  0
   -4.7322    0.5857    0.8765 C   0  0  0  0  0  0  0  0  0  0  0  0
   -3.8426   -0.3306    0.6441 N   0  0  0  0  0  0  0  0  0  0  0  0
   -4.0760   -1.2489    0.3276 H   0  0  0  0  0  0  0  0  0  0  0  0
   -2.8514   -0.1216    0.7845 H   0  0  0  0  0  0  0  0  0  0  0  0
   -4.4203    1.7597    1.2426 O   0  0  0  0  0  0  0  0  0  0  0  0
   -1.2031   -2.1411   -0.1334 C   0  0  0  0  0  0  0  0  0  0  0  0
   -2.2048   -2.3666   -0.0981 H   0  0  0  0  0  0  0  0  0  0  0  0
   -0.6799   -2.7141    0.6321 H   0  0  0  0  0  0  0  0  0  0  0  0
   -0.9295   -2.4700   -1.1359 H   0  0  0  0  0  0  0  0  0  0  0  0
   -1.1016   -0.6744    0.0000 N   0  0  0  0  0  0  0  0  0  0  0  0
   -1.9803   -0.0811    0.1073 H   0  0  0  0  0  0  0  0  0  0  0  0
    0.0000    0.0000    0.0000 C   0  0  0  0  0  0  0  0  0  0  0  0
    1.1016   -0.5562    0.0000 O   0  0  0  0  0  0  0  0  0  0  0  0
   -0.1064    1.5055    0.0253 C   0  0  0  0  0  0  0  0  0  0  0  0
   -1.0577    1.7674   -0.1593 H   0  0  0  0  0  0  0  0  0  0  0  0
    0.1675    1.8811    1.0112 H   0  0  0  0  0  0  0  0  0  0  0  0
    0.5159    1.9396   -0.7573 H   0  0  0  0  0  0  0  0  0  0  0  0
  1  5  1  0
  5  6  1  0
  5  9  2  0
  1  2  1  0
  1  3  1  0
  1  4  1  0
  6  7  1  0
  6  8  1  0
 10 14  1  0
 14 16  1  0
 16 17  2  0
 16 18  1  0
 10 11  1  0
 10 12  1  0
 10 13  1  0
 14 15  1  0
 18 19  1  0
 18 20  1  0
 18 21  1  0
M  END
>  <PDB_ID>  (502) 
pdb3im8

>  <RESIDUE_NAME>  (502) 
ASN   LEU

>  <FRAG_NAME>  (502) 
ACEM   NMA

>  <FRAG_ATOM_NUM>  (502) 
fragi: 9  fragj: 12

>  <atom.prop.CHAIN_ID>  (502) 
A A A A A A A A A Z Z Z Z Z Z Z Z Z Z Z Z

>  <atom.prop.IS_HEAVY_ATOM>  (502) 
1 0 0 0 1 1 0 0 1 1 0 0 0 1 0 1 1 1 0 0 0

>  <DIFUSE_FUNC_ATOM>  (502) 
n/a

>  <FINAL_SINGLE_POINT_ENERGY>  (502) 
0

>  <NONCOV_INTER_ENERGY_QM>  (502) 
0

>  <FF_Energy>  (502) 
5.54

>  <QM_Energy>  (502) 
18.54

>  <source>  (502) 
ACEM_nNMA_33

>  <Index>  (502) 
21759

$$$$
ACEM-pdb4fu0-A-ASN-164:NMA-pdb4fu0-A-PHE-160
     RDKit          3D

 21 19  0  0  0  0  0  0  0  0999 V2000
   -5.8653    0.8528   -1.0058 C   0  0  0  0  0  0  0  0  0  0  0  0
   -6.0451    1.8054   -1.2367 H   0  0  0  0  0  0  0  0  0  0  0  0
   -6.6140    0.4861   -0.4589 H   0  0  0  0  0  0  0  0  0  0  0  0
   -5.8040    0.2802   -1.9312 H   0  0  0  0  0  0  0  0  0  0  0  0
   -4.5806    0.7971   -0.1627 C   0  0  0  0  0  0  0  0  0  0  0  0
   -3.7940   -0.2301   -0.3788 N   0  0  0  0  0  0  0  0  0  0  0  0
   -4.0324   -0.9246   -1.0636 H   0  0  0  0  0  0  0  0  0  0  0  0
   -2.9384   -0.3341    0.1415 H   0  0  0  0  0  0  0  0  0  0  0  0
   -4.3047    1.6668    0.6466 O   0  0  0  0  0  0  0  0  0  0  0  0
   -1.1743   -2.1871   -0.1372 C   0  0  0  0  0  0  0  0  0  0  0  0
   -0.2435   -2.5464   -0.0948 H   0  0  0  0  0  0  0  0  0  0  0  0
   -1.6078   -2.4520   -1.1015 H   0  0  0  0  0  0  0  0  0  0  0  0
   -1.8175   -2.6025    0.6386 H   0  0  0  0  0  0  0  0  0  0  0  0
   -1.1200   -0.7131   -0.0000 N   0  0  0  0  0  0  0  0  0  0  0  0
   -1.9954   -0.1362    0.1085 H   0  0  0  0  0  0  0  0  0  0  0  0
    0.0000    0.0000    0.0000 C   0  0  0  0  0  0  0  0  0  0  0  0
    1.1200   -0.4986    0.0000 O   0  0  0  0  0  0  0  0  0  0  0  0
   -0.1988    1.5212   -0.0096 C   0  0  0  0  0  0  0  0  0  0  0  0
   -0.9129    1.7243    0.6933 H   0  0  0  0  0  0  0  0  0  0  0  0
    0.6762    2.1150    0.2547 H   0  0  0  0  0  0  0  0  0  0  0  0
   -0.5464    1.8150   -1.0000 H   0  0  0  0  0  0  0  0  0  0  0  0
  1  5  1  0
  5  6  1  0
  5  9  2  0
  1  2  1  0
  1  3  1  0
  1  4  1  0
  6  7  1  0
  6  8  1  0
 10 14  1  0
 14 16  1  0
 16 17  2  0
 16 18  1  0
 10 11  1  0
 10 12  1  0
 10 13  1  0
 14 15  1  0
 18 19  1  0
 18 20  1  0
 18 21  1  0
M  END
>  <PDB_ID>  (503) 
pdb4fu0

>  <RESIDUE_NAME>  (503) 
ASN   PHE

>  <FRAG_NAME>  (503) 
ACEM   NMA

>  <FRAG_ATOM_NUM>  (503) 
fragi: 9  fragj: 12

>  <atom.prop.CHAIN_ID>  (503) 
A A A A A A A A A Z Z Z Z Z Z Z Z Z Z Z Z

>  <atom.prop.IS_HEAVY_ATOM>  (503) 
1 0 0 0 1 1 0 0 1 1 0 0 0 1 0 1 1 1 0 0 0

>  <DIFUSE_FUNC_ATOM>  (503) 
n/a

>  <FINAL_SINGLE_POINT_ENERGY>  (503) 
0

>  <NONCOV_INTER_ENERGY_QM>  (503) 
0

>  <FF_Energy>  (503) 
8.2

>  <QM_Energy>  (503) 
29.65

>  <source>  (503) 
ACEM_nNMA_33

>  <Index>  (503) 
25997

$$$$
ACEM-pdb3itj-A-GLN-44:NMA-pdb3itj-A-SER-121
     RDKit          3D

 21 19  0  0  0  0  0  0  0  0999 V2000
   -4.8338    2.7589   -0.5822 C   0  0  0  0  0  0  0  0  0  0  0  0
   -5.7593    2.6721   -0.2226 H   0  0  0  0  0  0  0  0  0  0  0  0
   -4.8244    2.5519   -1.5565 H   0  0  0  0  0  0  0  0  0  0  0  0
   -4.5177    3.7941   -0.4544 H   0  0  0  0  0  0  0  0  0  0  0  0
   -3.9284    1.7594    0.1437 C   0  0  0  0  0  0  0  0  0  0  0  0
   -3.0044    1.1250   -0.5875 N   0  0  0  0  0  0  0  0  0  0  0  0
   -2.3737    0.4693   -0.1680 H   0  0  0  0  0  0  0  0  0  0  0  0
   -2.9612    1.3271   -1.5877 H   0  0  0  0  0  0  0  0  0  0  0  0
   -4.0604    1.5676    1.3512 O   0  0  0  0  0  0  0  0  0  0  0  0
   -1.1058   -2.1662   -0.2108 C   0  0  0  0  0  0  0  0  0  0  0  0
   -0.5057   -2.5946    0.4685 H   0  0  0  0  0  0  0  0  0  0  0  0
   -0.7244   -2.4086   -1.2027 H   0  0  0  0  0  0  0  0  0  0  0  0
   -2.1185   -2.5531   -0.0974 H   0  0  0  0  0  0  0  0  0  0  0  0
   -1.1053   -0.7144    0.0000 N   0  0  0  0  0  0  0  0  0  0  0  0
   -1.9823   -0.1693    0.1611 H   0  0  0  0  0  0  0  0  0  0  0  0
    0.0000    0.0000    0.0000 C   0  0  0  0  0  0  0  0  0  0  0  0
    1.1053   -0.5148   -0.0000 O   0  0  0  0  0  0  0  0  0  0  0  0
   -0.1846    1.5615    0.1005 C   0  0  0  0  0  0  0  0  0  0  0  0
   -1.0867    1.7052    0.5346 H   0  0  0  0  0  0  0  0  0  0  0  0
    0.5945    2.0322    0.7002 H   0  0  0  0  0  0  0  0  0  0  0  0
   -0.2148    2.0281   -0.8841 H   0  0  0  0  0  0  0  0  0  0  0  0
  1  5  1  0
  5  6  1  0
  5  9  2  0
  1  2  1  0
  1  3  1  0
  1  4  1  0
  6  7  1  0
  6  8  1  0
 10 14  1  0
 14 16  1  0
 16 17  2  0
 16 18  1  0
 10 11  1  0
 10 12  1  0
 10 13  1  0
 14 15  1  0
 18 19  1  0
 18 20  1  0
 18 21  1  0
M  END
>  <PDB_ID>  (504) 
pdb3itj

>  <RESIDUE_NAME>  (504) 
GLN   SER

>  <FRAG_NAME>  (504) 
ACEM   NMA

>  <FRAG_ATOM_NUM>  (504) 
fragi: 9  fragj: 12

>  <atom.prop.CHAIN_ID>  (504) 
A A A A A A A A A Z Z Z Z Z Z Z Z Z Z Z Z

>  <atom.prop.IS_HEAVY_ATOM>  (504) 
1 0 0 0 1 1 0 0 1 1 0 0 0 1 0 1 1 1 0 0 0

>  <DIFUSE_FUNC_ATOM>  (504) 
n/a

>  <FINAL_SINGLE_POINT_ENERGY>  (504) 
0

>  <NONCOV_INTER_ENERGY_QM>  (504) 
0

>  <FF_Energy>  (504) 
22.29

>  <QM_Energy>  (504) 
50.32

>  <source>  (504) 
ACEM_nNMA_34

>  <Index>  (504) 
81

$$$$
ACEM-pdb4g4g-A-GLN-194:NMA-pdb4g4g-A-GLU-90
     RDKit          3D

 21 19  0  0  0  0  0  0  0  0999 V2000
   -4.8124    0.8225    3.1283 C   0  0  0  0  0  0  0  0  0  0  0  0
   -5.6944    0.5752    2.7191 H   0  0  0  0  0  0  0  0  0  0  0  0
   -4.9511    1.5875    3.7628 H   0  0  0  0  0  0  0  0  0  0  0  0
   -4.4427   -0.0327    3.6941 H   0  0  0  0  0  0  0  0  0  0  0  0
   -3.8757    1.2722    2.0247 C   0  0  0  0  0  0  0  0  0  0  0  0
   -3.2961    0.3100    1.3166 N   0  0  0  0  0  0  0  0  0  0  0  0
   -2.6653    0.5336    0.5501 H   0  0  0  0  0  0  0  0  0  0  0  0
   -3.4924   -0.6613    1.5528 H   0  0  0  0  0  0  0  0  0  0  0  0
   -3.6593    2.4681    1.8211 O   0  0  0  0  0  0  0  0  0  0  0  0
   -1.0852   -2.1785    0.0343 C   0  0  0  0  0  0  0  0  0  0  0  0
   -0.1536   -2.4835   -0.2266 H   0  0  0  0  0  0  0  0  0  0  0  0
   -1.8031   -2.6360   -0.6464 H   0  0  0  0  0  0  0  0  0  0  0  0
   -1.2394   -2.5395    1.0511 H   0  0  0  0  0  0  0  0  0  0  0  0
   -1.1209   -0.7159    0.0000 N   0  0  0  0  0  0  0  0  0  0  0  0
   -1.9952   -0.1653   -0.0251 H   0  0  0  0  0  0  0  0  0  0  0  0
    0.0000    0.0000    0.0000 C   0  0  0  0  0  0  0  0  0  0  0  0
    1.1209   -0.5098    0.0000 O   0  0  0  0  0  0  0  0  0  0  0  0
   -0.1564    1.5151    0.0050 C   0  0  0  0  0  0  0  0  0  0  0  0
   -1.0990    1.7555    0.2332 H   0  0  0  0  0  0  0  0  0  0  0  0
    0.5211    1.9405    0.7453 H   0  0  0  0  0  0  0  0  0  0  0  0
    0.0445    1.9156   -0.9887 H   0  0  0  0  0  0  0  0  0  0  0  0
  1  5  1  0
  5  6  1  0
  5  9  2  0
  1  2  1  0
  1  3  1  0
  1  4  1  0
  6  7  1  0
  6  8  1  0
 10 14  1  0
 14 16  1  0
 16 17  2  0
 16 18  1  0
 10 11  1  0
 10 12  1  0
 10 13  1  0
 14 15  1  0
 18 19  1  0
 18 20  1  0
 18 21  1  0
M  END
>  <PDB_ID>  (505) 
pdb4g4g

>  <RESIDUE_NAME>  (505) 
GLN   GLU

>  <FRAG_NAME>  (505) 
ACEM   NMA

>  <FRAG_ATOM_NUM>  (505) 
fragi: 9  fragj: 12

>  <atom.prop.CHAIN_ID>  (505) 
A A A A A A A A A Z Z Z Z Z Z Z Z Z Z Z Z

>  <atom.prop.IS_HEAVY_ATOM>  (505) 
1 0 0 0 1 1 0 0 1 1 0 0 0 1 0 1 1 1 0 0 0

>  <DIFUSE_FUNC_ATOM>  (505) 
n/a

>  <FINAL_SINGLE_POINT_ENERGY>  (505) 
0

>  <NONCOV_INTER_ENERGY_QM>  (505) 
0

>  <FF_Energy>  (505) 
8.9

>  <QM_Energy>  (505) 
20.86

>  <source>  (505) 
ACEM_nNMA_34

>  <Index>  (505) 
2981

$$$$
ACEM-pdb3iwg-A-ASN-158:NMA-pdb3iwg-A-ALA-212
     RDKit          3D

 21 19  0  0  0  0  0  0  0  0999 V2000
   -4.7284    1.2257    2.6374 C   0  0  0  0  0  0  0  0  0  0  0  0
   -4.9075    2.1662    2.9129 H   0  0  0  0  0  0  0  0  0  0  0  0
   -4.1410    0.7774    3.3057 H   0  0  0  0  0  0  0  0  0  0  0  0
   -5.6799    0.6943    2.6170 H   0  0  0  0  0  0  0  0  0  0  0  0
   -4.0666    1.2158    1.3097 C   0  0  0  0  0  0  0  0  0  0  0  0
   -3.5300    0.0710    0.9131 N   0  0  0  0  0  0  0  0  0  0  0  0
   -3.5896   -0.7373    1.5038 H   0  0  0  0  0  0  0  0  0  0  0  0
   -3.0677    0.0084    0.0304 H   0  0  0  0  0  0  0  0  0  0  0  0
   -3.9991    2.2453    0.6434 O   0  0  0  0  0  0  0  0  0  0  0  0
   -1.1290   -2.1594   -0.0162 C   0  0  0  0  0  0  0  0  0  0  0  0
   -0.5888   -2.4776    0.7715 H   0  0  0  0  0  0  0  0  0  0  0  0
   -0.6591   -2.5445   -0.9212 H   0  0  0  0  0  0  0  0  0  0  0  0
   -2.1458   -2.5419    0.0737 H   0  0  0  0  0  0  0  0  0  0  0  0
   -1.1253   -0.6936    0.0000 N   0  0  0  0  0  0  0  0  0  0  0  0
   -1.9949   -0.1249    0.0126 H   0  0  0  0  0  0  0  0  0  0  0  0
    0.0000    0.0000    0.0000 C   0  0  0  0  0  0  0  0  0  0  0  0
    1.1253   -0.5201    0.0000 O   0  0  0  0  0  0  0  0  0  0  0  0
   -0.1760    1.5124    0.0240 C   0  0  0  0  0  0  0  0  0  0  0  0
   -1.1183    1.7245    0.2763 H   0  0  0  0  0  0  0  0  0  0  0  0
    0.4900    1.9340    0.7768 H   0  0  0  0  0  0  0  0  0  0  0  0
    0.0179    1.9143   -0.9705 H   0  0  0  0  0  0  0  0  0  0  0  0
  1  5  1  0
  5  6  1  0
  5  9  2  0
  1  2  1  0
  1  3  1  0
  1  4  1  0
  6  7  1  0
  6  8  1  0
 10 14  1  0
 14 16  1  0
 16 17  2  0
 16 18  1  0
 10 11  1  0
 10 12  1  0
 10 13  1  0
 14 15  1  0
 18 19  1  0
 18 20  1  0
 18 21  1  0
M  END
>  <PDB_ID>  (506) 
pdb3iwg

>  <RESIDUE_NAME>  (506) 
ASN   ALA

>  <FRAG_NAME>  (506) 
ACEM   NMA

>  <FRAG_ATOM_NUM>  (506) 
fragi: 9  fragj: 12

>  <atom.prop.CHAIN_ID>  (506) 
A A A A A A A A A Z Z Z Z Z Z Z Z Z Z Z Z

>  <atom.prop.IS_HEAVY_ATOM>  (506) 
1 0 0 0 1 1 0 0 1 1 0 0 0 1 0 1 1 1 0 0 0

>  <DIFUSE_FUNC_ATOM>  (506) 
n/a

>  <FINAL_SINGLE_POINT_ENERGY>  (506) 
0

>  <NONCOV_INTER_ENERGY_QM>  (506) 
0

>  <FF_Energy>  (506) 
8.03

>  <QM_Energy>  (506) 
23.07

>  <source>  (506) 
ACEM_nNMA_34

>  <Index>  (506) 
3360

$$$$
ACEM-pdb4gbf-A-GLN-711:NMA-pdb4gbf-A-ASP-708
     RDKit          3D

 21 19  0  0  0  0  0  0  0  0999 V2000
   -6.1442   -0.3016   -1.2880 C   0  0  0  0  0  0  0  0  0  0  0  0
   -6.0526    0.0985   -2.1972 H   0  0  0  0  0  0  0  0  0  0  0  0
   -6.9502    0.0708   -0.8336 H   0  0  0  0  0  0  0  0  0  0  0  0
   -6.2676   -1.3796   -1.3918 H   0  0  0  0  0  0  0  0  0  0  0  0
   -4.9105    0.0732   -0.4690 C   0  0  0  0  0  0  0  0  0  0  0  0
   -3.7963   -0.6193   -0.7153 N   0  0  0  0  0  0  0  0  0  0  0  0
   -2.9408   -0.4139   -0.2192 H   0  0  0  0  0  0  0  0  0  0  0  0
   -3.8281   -1.3594   -1.4127 H   0  0  0  0  0  0  0  0  0  0  0  0
   -4.9540    0.9851    0.3512 O   0  0  0  0  0  0  0  0  0  0  0  0
   -1.1180   -2.1715    0.0866 C   0  0  0  0  0  0  0  0  0  0  0  0
   -0.1598   -2.4546    0.2571 H   0  0  0  0  0  0  0  0  0  0  0  0
   -1.4324   -2.6555   -0.8381 H   0  0  0  0  0  0  0  0  0  0  0  0
   -1.7455   -2.5059    0.9127 H   0  0  0  0  0  0  0  0  0  0  0  0
   -1.1246   -0.7133   -0.0000 N   0  0  0  0  0  0  0  0  0  0  0  0
   -1.9959   -0.1493   -0.0657 H   0  0  0  0  0  0  0  0  0  0  0  0
    0.0000    0.0000    0.0000 C   0  0  0  0  0  0  0  0  0  0  0  0
    1.1246   -0.5079   -0.0000 O   0  0  0  0  0  0  0  0  0  0  0  0
   -0.1616    1.5180    0.0058 C   0  0  0  0  0  0  0  0  0  0  0  0
    0.6221    1.9009   -0.5110 H   0  0  0  0  0  0  0  0  0  0  0  0
   -1.0695    1.8496   -0.4982 H   0  0  0  0  0  0  0  0  0  0  0  0
   -0.1368    1.8698    1.0372 H   0  0  0  0  0  0  0  0  0  0  0  0
  1  5  1  0
  5  6  1  0
  5  9  2  0
  1  2  1  0
  1  3  1  0
  1  4  1  0
  6  7  1  0
  6  8  1  0
 10 14  1  0
 14 16  1  0
 16 17  2  0
 16 18  1  0
 10 11  1  0
 10 12  1  0
 10 13  1  0
 14 15  1  0
 18 19  1  0
 18 20  1  0
 18 21  1  0
M  END
>  <PDB_ID>  (507) 
pdb4gbf

>  <RESIDUE_NAME>  (507) 
GLN   ASP

>  <FRAG_NAME>  (507) 
ACEM   NMA

>  <FRAG_ATOM_NUM>  (507) 
fragi: 9  fragj: 12

>  <atom.prop.CHAIN_ID>  (507) 
A A A A A A A A A Z Z Z Z Z Z Z Z Z Z Z Z

>  <atom.prop.IS_HEAVY_ATOM>  (507) 
1 0 0 0 1 1 0 0 1 1 0 0 0 1 0 1 1 1 0 0 0

>  <DIFUSE_FUNC_ATOM>  (507) 
n/a

>  <FINAL_SINGLE_POINT_ENERGY>  (507) 
0

>  <NONCOV_INTER_ENERGY_QM>  (507) 
0

>  <FF_Energy>  (507) 
9.42

>  <QM_Energy>  (507) 
26.62

>  <source>  (507) 
ACEM_nNMA_34

>  <Index>  (507) 
10408

$$$$
ACEM-pdb3k0y-A-ASN-121:NMA-pdb3k0y-A-ASN-116
     RDKit          3D

 21 19  0  0  0  0  0  0  0  0999 V2000
   -6.1390   -0.5376    0.3380 C   0  0  0  0  0  0  0  0  0  0  0  0
   -6.5918   -0.6962   -0.5314 H   0  0  0  0  0  0  0  0  0  0  0  0
   -6.6576    0.1045    0.8908 H   0  0  0  0  0  0  0  0  0  0  0  0
   -6.0948   -1.4855    0.8743 H   0  0  0  0  0  0  0  0  0  0  0  0
   -4.7637    0.0339    0.0788 C   0  0  0  0  0  0  0  0  0  0  0  0
   -3.7697   -0.5367    0.7387 N   0  0  0  0  0  0  0  0  0  0  0  0
   -3.9403   -1.3013    1.3600 H   0  0  0  0  0  0  0  0  0  0  0  0
   -2.8299   -0.2023    0.6173 H   0  0  0  0  0  0  0  0  0  0  0  0
   -4.5914    0.9774   -0.7357 O   0  0  0  0  0  0  0  0  0  0  0  0
   -1.1073   -2.1622   -0.1548 C   0  0  0  0  0  0  0  0  0  0  0  0
   -0.1627   -2.4713   -0.2889 H   0  0  0  0  0  0  0  0  0  0  0  0
   -1.7211   -2.4395   -1.0118 H   0  0  0  0  0  0  0  0  0  0  0  0
   -1.4510   -2.6597    0.7520 H   0  0  0  0  0  0  0  0  0  0  0  0
   -1.1232   -0.7104    0.0000 N   0  0  0  0  0  0  0  0  0  0  0  0
   -1.9917   -0.1563    0.1171 H   0  0  0  0  0  0  0  0  0  0  0  0
    0.0000    0.0000    0.0000 C   0  0  0  0  0  0  0  0  0  0  0  0
    1.1232   -0.5292   -0.0000 O   0  0  0  0  0  0  0  0  0  0  0  0
   -0.1521    1.5295    0.1100 C   0  0  0  0  0  0  0  0  0  0  0  0
   -0.9967    1.6930    0.5916 H   0  0  0  0  0  0  0  0  0  0  0  0
    0.6686    1.8535    0.7500 H   0  0  0  0  0  0  0  0  0  0  0  0
   -0.1328    2.0193   -0.8636 H   0  0  0  0  0  0  0  0  0  0  0  0
  1  5  1  0
  5  6  1  0
  5  9  2  0
  1  2  1  0
  1  3  1  0
  1  4  1  0
  6  7  1  0
  6  8  1  0
 10 14  1  0
 14 16  1  0
 16 17  2  0
 16 18  1  0
 10 11  1  0
 10 12  1  0
 10 13  1  0
 14 15  1  0
 18 19  1  0
 18 20  1  0
 18 21  1  0
M  END
>  <PDB_ID>  (508) 
pdb3k0y

>  <RESIDUE_NAME>  (508) 
ASN   ASN

>  <FRAG_NAME>  (508) 
ACEM   NMA

>  <FRAG_ATOM_NUM>  (508) 
fragi: 9  fragj: 12

>  <atom.prop.CHAIN_ID>  (508) 
A A A A A A A A A Z Z Z Z Z Z Z Z Z Z Z Z

>  <atom.prop.IS_HEAVY_ATOM>  (508) 
1 0 0 0 1 1 0 0 1 1 0 0 0 1 0 1 1 1 0 0 0

>  <DIFUSE_FUNC_ATOM>  (508) 
n/a

>  <FINAL_SINGLE_POINT_ENERGY>  (508) 
0

>  <NONCOV_INTER_ENERGY_QM>  (508) 
0

>  <FF_Energy>  (508) 
9.5

>  <QM_Energy>  (508) 
28.1

>  <source>  (508) 
ACEM_nNMA_34

>  <Index>  (508) 
16299

$$$$
ACEM-pdb3jyh-A-ASN-416:NMA-pdb3jyh-A-GLN-439
     RDKit          3D

 21 19  0  0  0  0  0  0  0  0999 V2000
   -4.3886    2.5996    1.7412 C   0  0  0  0  0  0  0  0  0  0  0  0
   -5.1956    3.0938    1.4312 H   0  0  0  0  0  0  0  0  0  0  0  0
   -3.6172    3.2243    1.8293 H   0  0  0  0  0  0  0  0  0  0  0  0
   -4.6026    2.1880    2.7275 H   0  0  0  0  0  0  0  0  0  0  0  0
   -4.0460    1.5358    0.7282 C   0  0  0  0  0  0  0  0  0  0  0  0
   -3.2012    0.5858    1.1431 N   0  0  0  0  0  0  0  0  0  0  0  0
   -2.8440    0.6059    2.0736 H   0  0  0  0  0  0  0  0  0  0  0  0
   -2.9309   -0.1447    0.5167 H   0  0  0  0  0  0  0  0  0  0  0  0
   -4.5422    1.5391   -0.4093 O   0  0  0  0  0  0  0  0  0  0  0  0
   -1.0556   -2.1626    0.0682 C   0  0  0  0  0  0  0  0  0  0  0  0
   -1.9365   -2.5503   -0.2402 H   0  0  0  0  0  0  0  0  0  0  0  0
   -0.3349   -2.4982   -0.5551 H   0  0  0  0  0  0  0  0  0  0  0  0
   -0.8449   -2.4990    1.0834 H   0  0  0  0  0  0  0  0  0  0  0  0
   -1.1161   -0.7154   -0.0000 N   0  0  0  0  0  0  0  0  0  0  0  0
   -1.9913   -0.1727   -0.0506 H   0  0  0  0  0  0  0  0  0  0  0  0
    0.0000    0.0000    0.0000 C   0  0  0  0  0  0  0  0  0  0  0  0
    1.1161   -0.5163    0.0000 O   0  0  0  0  0  0  0  0  0  0  0  0
   -0.1471    1.5092    0.0418 C   0  0  0  0  0  0  0  0  0  0  0  0
   -1.0913    1.7229    0.2778 H   0  0  0  0  0  0  0  0  0  0  0  0
    0.4924    1.8926    0.8370 H   0  0  0  0  0  0  0  0  0  0  0  0
    0.1437    1.9191   -0.9254 H   0  0  0  0  0  0  0  0  0  0  0  0
  1  5  1  0
  5  6  1  0
  5  9  2  0
  1  2  1  0
  1  3  1  0
  1  4  1  0
  6  7  1  0
  6  8  1  0
 10 14  1  0
 14 16  1  0
 16 17  2  0
 16 18  1  0
 10 11  1  0
 10 12  1  0
 10 13  1  0
 14 15  1  0
 18 19  1  0
 18 20  1  0
 18 21  1  0
M  END
>  <PDB_ID>  (509) 
pdb3jyh

>  <RESIDUE_NAME>  (509) 
ASN   GLN

>  <FRAG_NAME>  (509) 
ACEM   NMA

>  <FRAG_ATOM_NUM>  (509) 
fragi: 9  fragj: 12

>  <atom.prop.CHAIN_ID>  (509) 
A A A A A A A A A Z Z Z Z Z Z Z Z Z Z Z Z

>  <atom.prop.IS_HEAVY_ATOM>  (509) 
1 0 0 0 1 1 0 0 1 1 0 0 0 1 0 1 1 1 0 0 0

>  <DIFUSE_FUNC_ATOM>  (509) 
n/a

>  <FINAL_SINGLE_POINT_ENERGY>  (509) 
0

>  <NONCOV_INTER_ENERGY_QM>  (509) 
0

>  <FF_Energy>  (509) 
8.58

>  <QM_Energy>  (509) 
21.75

>  <source>  (509) 
ACEM_nNMA_34

>  <Index>  (509) 
17075

$$$$
ACEM-pdb3k17-B-ASN-279:NMA-pdb3k17-B-ALA-20
     RDKit          3D

 21 19  0  0  0  0  0  0  0  0999 V2000
   -5.0633    2.6493   -1.3716 C   0  0  0  0  0  0  0  0  0  0  0  0
   -4.6499    2.7312   -2.2728 H   0  0  0  0  0  0  0  0  0  0  0  0
   -4.8912    3.4691   -0.8357 H   0  0  0  0  0  0  0  0  0  0  0  0
   -6.1405    2.5359   -1.4934 H   0  0  0  0  0  0  0  0  0  0  0  0
   -4.4385    1.4640   -0.6584 C   0  0  0  0  0  0  0  0  0  0  0  0
   -3.1721    1.1908   -0.9563 N   0  0  0  0  0  0  0  0  0  0  0  0
   -2.6827    1.7627   -1.6175 H   0  0  0  0  0  0  0  0  0  0  0  0
   -2.7095    0.4204   -0.5238 H   0  0  0  0  0  0  0  0  0  0  0  0
   -5.0897    0.8030    0.1591 O   0  0  0  0  0  0  0  0  0  0  0  0
   -1.0980   -2.1690   -0.0434 C   0  0  0  0  0  0  0  0  0  0  0  0
   -1.8797   -2.4989   -0.6381 H   0  0  0  0  0  0  0  0  0  0  0  0
   -0.2493   -2.4689   -0.5561 H   0  0  0  0  0  0  0  0  0  0  0  0
   -1.1361   -2.7001    0.9078 H   0  0  0  0  0  0  0  0  0  0  0  0
   -1.1269   -0.7151   -0.0000 N   0  0  0  0  0  0  0  0  0  0  0  0
   -1.9971   -0.1553    0.0328 H   0  0  0  0  0  0  0  0  0  0  0  0
    0.0000    0.0000    0.0000 C   0  0  0  0  0  0  0  0  0  0  0  0
    1.1269   -0.5058    0.0000 O   0  0  0  0  0  0  0  0  0  0  0  0
   -0.1603    1.5229    0.0149 C   0  0  0  0  0  0  0  0  0  0  0  0
   -0.9851    1.7513    0.5369 H   0  0  0  0  0  0  0  0  0  0  0  0
    0.7011    1.9851    0.4969 H   0  0  0  0  0  0  0  0  0  0  0  0
   -0.2540    1.8900   -1.0071 H   0  0  0  0  0  0  0  0  0  0  0  0
  1  5  1  0
  5  6  1  0
  5  9  2  0
  1  2  1  0
  1  3  1  0
  1  4  1  0
  6  7  1  0
  6  8  1  0
 10 14  1  0
 14 16  1  0
 16 17  2  0
 16 18  1  0
 10 11  1  0
 10 12  1  0
 10 13  1  0
 14 15  1  0
 18 19  1  0
 18 20  1  0
 18 21  1  0
M  END
>  <PDB_ID>  (510) 
pdb3k17

>  <RESIDUE_NAME>  (510) 
ASN   ALA

>  <FRAG_NAME>  (510) 
ACEM   NMA

>  <FRAG_ATOM_NUM>  (510) 
fragi: 9  fragj: 12

>  <atom.prop.CHAIN_ID>  (510) 
A A A A A A A A A Z Z Z Z Z Z Z Z Z Z Z Z

>  <atom.prop.IS_HEAVY_ATOM>  (510) 
1 0 0 0 1 1 0 0 1 1 0 0 0 1 0 1 1 1 0 0 0

>  <DIFUSE_FUNC_ATOM>  (510) 
n/a

>  <FINAL_SINGLE_POINT_ENERGY>  (510) 
0

>  <NONCOV_INTER_ENERGY_QM>  (510) 
0

>  <FF_Energy>  (510) 
8.67

>  <QM_Energy>  (510) 
19.46

>  <source>  (510) 
ACEM_nNMA_34

>  <Index>  (510) 
21306

$$$$
ACEM-pdb3k7l-A-ASN-262:NMA-pdb3k7l-A-ASP-214
     RDKit          3D

 21 19  0  0  0  0  0  0  0  0999 V2000
   -5.8450    0.9636   -0.4699 C   0  0  0  0  0  0  0  0  0  0  0  0
   -6.7026    0.6979   -0.9041 H   0  0  0  0  0  0  0  0  0  0  0  0
   -5.6573    1.9268   -0.6521 H   0  0  0  0  0  0  0  0  0  0  0  0
   -5.9537    0.8351    0.6070 H   0  0  0  0  0  0  0  0  0  0  0  0
   -4.7317    0.1328   -1.0415 C   0  0  0  0  0  0  0  0  0  0  0  0
   -3.7108   -0.1381   -0.2401 N   0  0  0  0  0  0  0  0  0  0  0  0
   -3.7167    0.2045    0.7028 H   0  0  0  0  0  0  0  0  0  0  0  0
   -2.9414   -0.6817   -0.5683 H   0  0  0  0  0  0  0  0  0  0  0  0
   -4.7663   -0.2585   -2.2179 O   0  0  0  0  0  0  0  0  0  0  0  0
   -1.0927   -2.1471    0.1841 C   0  0  0  0  0  0  0  0  0  0  0  0
   -0.6272   -2.3166    1.0828 H   0  0  0  0  0  0  0  0  0  0  0  0
   -0.5435   -2.7131   -0.5683 H   0  0  0  0  0  0  0  0  0  0  0  0
   -2.0945   -2.5664    0.2781 H   0  0  0  0  0  0  0  0  0  0  0  0
   -1.1340   -0.6959   -0.0000 N   0  0  0  0  0  0  0  0  0  0  0  0
   -1.9917   -0.1545   -0.1329 H   0  0  0  0  0  0  0  0  0  0  0  0
    0.0000    0.0000    0.0000 C   0  0  0  0  0  0  0  0  0  0  0  0
    1.1340   -0.5340    0.0000 O   0  0  0  0  0  0  0  0  0  0  0  0
   -0.1160    1.4819   -0.0529 C   0  0  0  0  0  0  0  0  0  0  0  0
   -0.6629    1.7761    0.7379 H   0  0  0  0  0  0  0  0  0  0  0  0
    0.8735    1.9250    0.0590 H   0  0  0  0  0  0  0  0  0  0  0  0
   -0.5193    1.7969   -1.0153 H   0  0  0  0  0  0  0  0  0  0  0  0
  1  5  1  0
  5  6  1  0
  5  9  2  0
  1  2  1  0
  1  3  1  0
  1  4  1  0
  6  7  1  0
  6  8  1  0
 10 14  1  0
 14 16  1  0
 16 17  2  0
 16 18  1  0
 10 11  1  0
 10 12  1  0
 10 13  1  0
 14 15  1  0
 18 19  1  0
 18 20  1  0
 18 21  1  0
M  END
>  <PDB_ID>  (511) 
pdb3k7l

>  <RESIDUE_NAME>  (511) 
ASN   ASP

>  <FRAG_NAME>  (511) 
ACEM   NMA

>  <FRAG_ATOM_NUM>  (511) 
fragi: 9  fragj: 12

>  <atom.prop.CHAIN_ID>  (511) 
A A A A A A A A A Z Z Z Z Z Z Z Z Z Z Z Z

>  <atom.prop.IS_HEAVY_ATOM>  (511) 
1 0 0 0 1 1 0 0 1 1 0 0 0 1 0 1 1 1 0 0 0

>  <DIFUSE_FUNC_ATOM>  (511) 
n/a

>  <FINAL_SINGLE_POINT_ENERGY>  (511) 
0

>  <NONCOV_INTER_ENERGY_QM>  (511) 
0

>  <FF_Energy>  (511) 
10.06

>  <QM_Energy>  (511) 
20.68

>  <source>  (511) 
ACEM_nNMA_34

>  <Index>  (511) 
23654

$$$$
ACEM-pdb3k89-A-GLN-16:NMA-pdb3k89-A-GLN-13
     RDKit          3D

 21 19  0  0  0  0  0  0  0  0999 V2000
   -6.2400   -0.1578    0.6877 C   0  0  0  0  0  0  0  0  0  0  0  0
   -6.7540   -1.0208    0.7103 H   0  0  0  0  0  0  0  0  0  0  0  0
   -6.7947    0.5361    0.2192 H   0  0  0  0  0  0  0  0  0  0  0  0
   -6.0874    0.1708    1.7157 H   0  0  0  0  0  0  0  0  0  0  0  0
   -4.9593   -0.3718   -0.0959 C   0  0  0  0  0  0  0  0  0  0  0  0
   -3.8313   -0.1888    0.5816 N   0  0  0  0  0  0  0  0  0  0  0  0
   -2.9249   -0.3276    0.1285 H   0  0  0  0  0  0  0  0  0  0  0  0
   -3.8794    0.0904    1.5570 H   0  0  0  0  0  0  0  0  0  0  0  0
   -4.9719   -0.7294   -1.2776 O   0  0  0  0  0  0  0  0  0  0  0  0
   -1.1002   -2.1694    0.0947 C   0  0  0  0  0  0  0  0  0  0  0  0
   -1.6242   -2.5579   -0.6831 H   0  0  0  0  0  0  0  0  0  0  0  0
   -0.1420   -2.4911   -0.0035 H   0  0  0  0  0  0  0  0  0  0  0  0
   -1.5147   -2.5361    1.0338 H   0  0  0  0  0  0  0  0  0  0  0  0
   -1.1227   -0.7095   -0.0000 N   0  0  0  0  0  0  0  0  0  0  0  0
   -1.9942   -0.1549   -0.0711 H   0  0  0  0  0  0  0  0  0  0  0  0
    0.0000    0.0000    0.0000 C   0  0  0  0  0  0  0  0  0  0  0  0
    1.1227   -0.5221   -0.0000 O   0  0  0  0  0  0  0  0  0  0  0  0
   -0.1554    1.5174   -0.0276 C   0  0  0  0  0  0  0  0  0  0  0  0
   -1.1356    1.7281    0.1038 H   0  0  0  0  0  0  0  0  0  0  0  0
    0.4013    2.0039    0.7734 H   0  0  0  0  0  0  0  0  0  0  0  0
    0.1842    1.9062   -0.9876 H   0  0  0  0  0  0  0  0  0  0  0  0
  1  5  1  0
  5  6  1  0
  5  9  2  0
  1  2  1  0
  1  3  1  0
  1  4  1  0
  6  7  1  0
  6  8  1  0
 10 14  1  0
 14 16  1  0
 16 17  2  0
 16 18  1  0
 10 11  1  0
 10 12  1  0
 10 13  1  0
 14 15  1  0
 18 19  1  0
 18 20  1  0
 18 21  1  0
M  END
>  <PDB_ID>  (512) 
pdb3k89

>  <RESIDUE_NAME>  (512) 
GLN   GLN

>  <FRAG_NAME>  (512) 
ACEM   NMA

>  <FRAG_ATOM_NUM>  (512) 
fragi: 9  fragj: 12

>  <atom.prop.CHAIN_ID>  (512) 
A A A A A A A A A Z Z Z Z Z Z Z Z Z Z Z Z

>  <atom.prop.IS_HEAVY_ATOM>  (512) 
1 0 0 0 1 1 0 0 1 1 0 0 0 1 0 1 1 1 0 0 0

>  <DIFUSE_FUNC_ATOM>  (512) 
n/a

>  <FINAL_SINGLE_POINT_ENERGY>  (512) 
0

>  <NONCOV_INTER_ENERGY_QM>  (512) 
0

>  <FF_Energy>  (512) 
10.82

>  <QM_Energy>  (512) 
28.16

>  <source>  (512) 
ACEM_nNMA_34

>  <Index>  (512) 
24680

$$$$
ACEM-pdb3k89-A-ASN-233:NMA-pdb3k89-A-HIE-93
     RDKit          3D

 21 19  0  0  0  0  0  0  0  0999 V2000
   -6.1840    0.3065    0.2896 C   0  0  0  0  0  0  0  0  0  0  0  0
   -6.3172   -0.6210    0.6366 H   0  0  0  0  0  0  0  0  0  0  0  0
   -6.3039    0.3138   -0.7022 H   0  0  0  0  0  0  0  0  0  0  0  0
   -6.9421    0.9524    0.7327 H   0  0  0  0  0  0  0  0  0  0  0  0
   -4.7139    0.7204    0.5934 C   0  0  0  0  0  0  0  0  0  0  0  0
   -3.7402   -0.1723    0.4174 N   0  0  0  0  0  0  0  0  0  0  0  0
   -4.0127   -1.0903    0.0832 H   0  0  0  0  0  0  0  0  0  0  0  0
   -2.8034    0.0478    0.6022 H   0  0  0  0  0  0  0  0  0  0  0  0
   -4.4987    1.8440    1.0413 O   0  0  0  0  0  0  0  0  0  0  0  0
   -1.1746   -2.1912   -0.0980 C   0  0  0  0  0  0  0  0  0  0  0  0
   -2.1322   -2.4744   -0.0490 H   0  0  0  0  0  0  0  0  0  0  0  0
   -0.6510   -2.6383    0.7470 H   0  0  0  0  0  0  0  0  0  0  0  0
   -0.7758   -2.5118   -1.0605 H   0  0  0  0  0  0  0  0  0  0  0  0
   -1.1295   -0.7198    0.0000 N   0  0  0  0  0  0  0  0  0  0  0  0
   -2.0019   -0.1372    0.0769 H   0  0  0  0  0  0  0  0  0  0  0  0
    0.0000    0.0000    0.0000 C   0  0  0  0  0  0  0  0  0  0  0  0
    1.1295   -0.4736   -0.0000 O   0  0  0  0  0  0  0  0  0  0  0  0
   -0.1821    1.5045    0.0635 C   0  0  0  0  0  0  0  0  0  0  0  0
   -1.1546    1.7106   -0.0886 H   0  0  0  0  0  0  0  0  0  0  0  0
    0.1064    1.8769    1.0463 H   0  0  0  0  0  0  0  0  0  0  0  0
    0.4165    2.0054   -0.6974 H   0  0  0  0  0  0  0  0  0  0  0  0
  1  5  1  0
  5  6  1  0
  5  9  2  0
  1  2  1  0
  1  3  1  0
  1  4  1  0
  6  7  1  0
  6  8  1  0
 10 14  1  0
 14 16  1  0
 16 17  2  0
 16 18  1  0
 10 11  1  0
 10 12  1  0
 10 13  1  0
 14 15  1  0
 18 19  1  0
 18 20  1  0
 18 21  1  0
M  END
>  <PDB_ID>  (513) 
pdb3k89

>  <RESIDUE_NAME>  (513) 
ASN   HIE

>  <FRAG_NAME>  (513) 
ACEM   NMA

>  <FRAG_ATOM_NUM>  (513) 
fragi: 9  fragj: 12

>  <atom.prop.CHAIN_ID>  (513) 
A A A A A A A A A Z Z Z Z Z Z Z Z Z Z Z Z

>  <atom.prop.IS_HEAVY_ATOM>  (513) 
1 0 0 0 1 1 0 0 1 1 0 0 0 1 0 1 1 1 0 0 0

>  <DIFUSE_FUNC_ATOM>  (513) 
n/a

>  <FINAL_SINGLE_POINT_ENERGY>  (513) 
0

>  <NONCOV_INTER_ENERGY_QM>  (513) 
0

>  <FF_Energy>  (513) 
11.0

>  <QM_Energy>  (513) 
30.36

>  <source>  (513) 
ACEM_nNMA_34

>  <Index>  (513) 
25216

$$$$
ACEM-pdb3k2w-D-GLN-451:NMA-pdb3k2w-B-SER-133
     RDKit          3D

 21 19  0  0  0  0  0  0  0  0999 V2000
   -5.5418    0.4555    1.2479 C   0  0  0  0  0  0  0  0  0  0  0  0
   -5.8057   -0.5042    1.3247 H   0  0  0  0  0  0  0  0  0  0  0  0
   -6.2078    0.9469    0.6907 H   0  0  0  0  0  0  0  0  0  0  0  0
   -5.5532    0.8892    2.2479 H   0  0  0  0  0  0  0  0  0  0  0  0
   -4.1862    0.5463    0.5979 C   0  0  0  0  0  0  0  0  0  0  0  0
   -3.1260    0.2331    1.3472 N   0  0  0  0  0  0  0  0  0  0  0  0
   -2.1894    0.2589    0.9709 H   0  0  0  0  0  0  0  0  0  0  0  0
   -3.2839   -0.0354    2.3204 H   0  0  0  0  0  0  0  0  0  0  0  0
   -4.0928    0.8768   -0.5674 O   0  0  0  0  0  0  0  0  0  0  0  0
   -1.1287   -2.1849   -0.1450 C   0  0  0  0  0  0  0  0  0  0  0  0
   -0.2887   -2.5289    0.2867 H   0  0  0  0  0  0  0  0  0  0  0  0
   -1.0909   -2.4689   -1.1967 H   0  0  0  0  0  0  0  0  0  0  0  0
   -2.0101   -2.6299    0.3165 H   0  0  0  0  0  0  0  0  0  0  0  0
   -1.1191   -0.7246    0.0000 N   0  0  0  0  0  0  0  0  0  0  0  0
   -1.9949   -0.1621    0.1127 H   0  0  0  0  0  0  0  0  0  0  0  0
    0.0000    0.0000    0.0000 C   0  0  0  0  0  0  0  0  0  0  0  0
    1.1191   -0.5062    0.0000 O   0  0  0  0  0  0  0  0  0  0  0  0
   -0.1739    1.5296    0.0140 C   0  0  0  0  0  0  0  0  0  0  0  0
   -0.9565    1.7383    0.6173 H   0  0  0  0  0  0  0  0  0  0  0  0
    0.7063    2.0406    0.4042 H   0  0  0  0  0  0  0  0  0  0  0  0
   -0.3979    1.9037   -0.9850 H   0  0  0  0  0  0  0  0  0  0  0  0
  1  5  1  0
  5  6  1  0
  5  9  2  0
  1  2  1  0
  1  3  1  0
  1  4  1  0
  6  7  1  0
  6  8  1  0
 10 14  1  0
 14 16  1  0
 16 17  2  0
 16 18  1  0
 10 11  1  0
 10 12  1  0
 10 13  1  0
 14 15  1  0
 18 19  1  0
 18 20  1  0
 18 21  1  0
M  END
>  <PDB_ID>  (514) 
pdb3k2w

>  <RESIDUE_NAME>  (514) 
GLN   SER

>  <FRAG_NAME>  (514) 
ACEM   NMA

>  <FRAG_ATOM_NUM>  (514) 
fragi: 9  fragj: 12

>  <atom.prop.CHAIN_ID>  (514) 
A A A A A A A A A Z Z Z Z Z Z Z Z Z Z Z Z

>  <atom.prop.IS_HEAVY_ATOM>  (514) 
1 0 0 0 1 1 0 0 1 1 0 0 0 1 0 1 1 1 0 0 0

>  <DIFUSE_FUNC_ATOM>  (514) 
n/a

>  <FINAL_SINGLE_POINT_ENERGY>  (514) 
0

>  <NONCOV_INTER_ENERGY_QM>  (514) 
0

>  <FF_Energy>  (514) 
14.62

>  <QM_Energy>  (514) 
33.59

>  <source>  (514) 
ACEM_nNMA_34

>  <Index>  (514) 
25351

$$$$
ACEM-pdb4gwg-A-ASN-22:NMA-pdb4gwg-A-THR-49
     RDKit          3D

 21 19  0  0  0  0  0  0  0  0999 V2000
   -5.6288    0.9463   -1.8600 C   0  0  0  0  0  0  0  0  0  0  0  0
   -5.3325    0.4422   -2.6659 H   0  0  0  0  0  0  0  0  0  0  0  0
   -5.7816    1.9030   -2.0900 H   0  0  0  0  0  0  0  0  0  0  0  0
   -6.5700    0.5207   -1.5121 H   0  0  0  0  0  0  0  0  0  0  0  0
   -4.5332    0.8694   -0.8125 C   0  0  0  0  0  0  0  0  0  0  0  0
   -3.8839   -0.2887   -0.7215 N   0  0  0  0  0  0  0  0  0  0  0  0
   -4.1265   -1.0446   -1.3301 H   0  0  0  0  0  0  0  0  0  0  0  0
   -3.1556   -0.4026   -0.0469 H   0  0  0  0  0  0  0  0  0  0  0  0
   -4.2648    1.8414   -0.0999 O   0  0  0  0  0  0  0  0  0  0  0  0
   -1.1237   -2.1758   -0.0767 C   0  0  0  0  0  0  0  0  0  0  0  0
   -0.2915   -2.5277    0.3796 H   0  0  0  0  0  0  0  0  0  0  0  0
   -1.1316   -2.5360   -1.1055 H   0  0  0  0  0  0  0  0  0  0  0  0
   -1.9865   -2.5881    0.4464 H   0  0  0  0  0  0  0  0  0  0  0  0
   -1.1225   -0.7177   -0.0000 N   0  0  0  0  0  0  0  0  0  0  0  0
   -1.9966   -0.1491    0.0594 H   0  0  0  0  0  0  0  0  0  0  0  0
    0.0000    0.0000    0.0000 C   0  0  0  0  0  0  0  0  0  0  0  0
    1.1225   -0.5076    0.0000 O   0  0  0  0  0  0  0  0  0  0  0  0
   -0.1708    1.5157   -0.0043 C   0  0  0  0  0  0  0  0  0  0  0  0
   -0.6411    1.7845    0.8499 H   0  0  0  0  0  0  0  0  0  0  0  0
    0.7852    2.0375   -0.0481 H   0  0  0  0  0  0  0  0  0  0  0  0
   -0.8055    1.7818   -0.8496 H   0  0  0  0  0  0  0  0  0  0  0  0
  1  5  1  0
  5  6  1  0
  5  9  2  0
  1  2  1  0
  1  3  1  0
  1  4  1  0
  6  7  1  0
  6  8  1  0
 10 14  1  0
 14 16  1  0
 16 17  2  0
 16 18  1  0
 10 11  1  0
 10 12  1  0
 10 13  1  0
 14 15  1  0
 18 19  1  0
 18 20  1  0
 18 21  1  0
M  END
>  <PDB_ID>  (515) 
pdb4gwg

>  <RESIDUE_NAME>  (515) 
ASN   THR

>  <FRAG_NAME>  (515) 
ACEM   NMA

>  <FRAG_ATOM_NUM>  (515) 
fragi: 9  fragj: 12

>  <atom.prop.CHAIN_ID>  (515) 
A A A A A A A A A Z Z Z Z Z Z Z Z Z Z Z Z

>  <atom.prop.IS_HEAVY_ATOM>  (515) 
1 0 0 0 1 1 0 0 1 1 0 0 0 1 0 1 1 1 0 0 0

>  <DIFUSE_FUNC_ATOM>  (515) 
n/a

>  <FINAL_SINGLE_POINT_ENERGY>  (515) 
0

>  <NONCOV_INTER_ENERGY_QM>  (515) 
0

>  <FF_Energy>  (515) 
1.9

>  <QM_Energy>  (515) 
13.62

>  <source>  (515) 
ACEM_nNMA_34

>  <Index>  (515) 
25392

$$$$
ACEM-pdb4gys-A-GLN-22:NMA-pdb4gys-A-GLY-18
     RDKit          3D

 21 19  0  0  0  0  0  0  0  0999 V2000
   -5.5251   -0.1847    0.8888 C   0  0  0  0  0  0  0  0  0  0  0  0
   -6.4001    0.2744    1.0413 H   0  0  0  0  0  0  0  0  0  0  0  0
   -5.5614   -1.1079    1.2728 H   0  0  0  0  0  0  0  0  0  0  0  0
   -5.3647   -0.2673   -0.1862 H   0  0  0  0  0  0  0  0  0  0  0  0
   -4.4338    0.5980    1.5993 C   0  0  0  0  0  0  0  0  0  0  0  0
   -3.2278    0.5293    1.0577 N   0  0  0  0  0  0  0  0  0  0  0  0
   -2.4429    1.0394    1.4681 H   0  0  0  0  0  0  0  0  0  0  0  0
   -3.0884   -0.0387    0.2261 H   0  0  0  0  0  0  0  0  0  0  0  0
   -4.6693    1.2562    2.6173 O   0  0  0  0  0  0  0  0  0  0  0  0
   -1.1526   -2.1874   -0.0472 C   0  0  0  0  0  0  0  0  0  0  0  0
   -0.1962   -2.5188   -0.0293 H   0  0  0  0  0  0  0  0  0  0  0  0
   -1.6301   -2.5778   -0.9459 H   0  0  0  0  0  0  0  0  0  0  0  0
   -1.6648   -2.6165    0.8140 H   0  0  0  0  0  0  0  0  0  0  0  0
   -1.1290   -0.7128    0.0000 N   0  0  0  0  0  0  0  0  0  0  0  0
   -2.0010   -0.1379    0.0360 H   0  0  0  0  0  0  0  0  0  0  0  0
    0.0000    0.0000    0.0000 C   0  0  0  0  0  0  0  0  0  0  0  0
    1.1290   -0.5032    0.0000 O   0  0  0  0  0  0  0  0  0  0  0  0
   -0.1469    1.5073    0.0051 C   0  0  0  0  0  0  0  0  0  0  0  0
   -0.8747    1.7711    0.6511 H   0  0  0  0  0  0  0  0  0  0  0  0
   -0.4175    1.8207   -0.9144 H   0  0  0  0  0  0  0  0  0  0  0  0
    0.7876    1.9887    0.2933 H   0  0  0  0  0  0  0  0  0  0  0  0
  1  5  1  0
  5  6  1  0
  5  9  2  0
  1  2  1  0
  1  3  1  0
  1  4  1  0
  6  7  1  0
  6  8  1  0
 10 14  1  0
 14 16  1  0
 16 17  2  0
 16 18  1  0
 10 11  1  0
 10 12  1  0
 10 13  1  0
 14 15  1  0
 18 19  1  0
 18 20  1  0
 18 21  1  0
M  END
>  <PDB_ID>  (516) 
pdb4gys

>  <RESIDUE_NAME>  (516) 
GLN   GLY

>  <FRAG_NAME>  (516) 
ACEM   NMA

>  <FRAG_ATOM_NUM>  (516) 
fragi: 9  fragj: 12

>  <atom.prop.CHAIN_ID>  (516) 
A A A A A A A A A Z Z Z Z Z Z Z Z Z Z Z Z

>  <atom.prop.IS_HEAVY_ATOM>  (516) 
1 0 0 0 1 1 0 0 1 1 0 0 0 1 0 1 1 1 0 0 0

>  <DIFUSE_FUNC_ATOM>  (516) 
n/a

>  <FINAL_SINGLE_POINT_ENERGY>  (516) 
0

>  <NONCOV_INTER_ENERGY_QM>  (516) 
0

>  <FF_Energy>  (516) 
14.04

>  <QM_Energy>  (516) 
26.06

>  <source>  (516) 
ACEM_nNMA_34

>  <Index>  (516) 
26498

$$$$
ACEM-pdb4gvp-B-GLN-197:NMA-pdb4gvp-B-VAL-192
     RDKit          3D

 21 19  0  0  0  0  0  0  0  0999 V2000
   -4.5549    1.1294   -2.9965 C   0  0  0  0  0  0  0  0  0  0  0  0
   -5.2075    1.8821   -3.0226 H   0  0  0  0  0  0  0  0  0  0  0  0
   -4.9243    0.3387   -3.4756 H   0  0  0  0  0  0  0  0  0  0  0  0
   -3.6318    1.4418   -3.4850 H   0  0  0  0  0  0  0  0  0  0  0  0
   -4.3079    0.7541   -1.5596 C   0  0  0  0  0  0  0  0  0  0  0  0
   -3.2682   -0.0246   -1.3249 N   0  0  0  0  0  0  0  0  0  0  0  0
   -3.0255   -0.3123   -0.3734 H   0  0  0  0  0  0  0  0  0  0  0  0
   -2.6989   -0.3442   -2.1098 H   0  0  0  0  0  0  0  0  0  0  0  0
   -5.0558    1.1607   -0.6641 O   0  0  0  0  0  0  0  0  0  0  0  0
   -1.0387   -2.1807    0.1765 C   0  0  0  0  0  0  0  0  0  0  0  0
   -0.1986   -2.3822    0.7130 H   0  0  0  0  0  0  0  0  0  0  0  0
   -0.9751   -2.7297   -0.7630 H   0  0  0  0  0  0  0  0  0  0  0  0
   -1.8813   -2.5608    0.7541 H   0  0  0  0  0  0  0  0  0  0  0  0
   -1.1132   -0.7316    0.0000 N   0  0  0  0  0  0  0  0  0  0  0  0
   -1.9876   -0.2097   -0.1290 H   0  0  0  0  0  0  0  0  0  0  0  0
    0.0000    0.0000    0.0000 C   0  0  0  0  0  0  0  0  0  0  0  0
    1.1132   -0.5046   -0.0000 O   0  0  0  0  0  0  0  0  0  0  0  0
   -0.1458    1.5192   -0.0019 C   0  0  0  0  0  0  0  0  0  0  0  0
   -0.8754    1.7626    0.6492 H   0  0  0  0  0  0  0  0  0  0  0  0
    0.7732    2.0057    0.3250 H   0  0  0  0  0  0  0  0  0  0  0  0
   -0.4412    1.8631   -0.9931 H   0  0  0  0  0  0  0  0  0  0  0  0
  1  5  1  0
  5  6  1  0
  5  9  2  0
  1  2  1  0
  1  3  1  0
  1  4  1  0
  6  7  1  0
  6  8  1  0
 10 14  1  0
 14 16  1  0
 16 17  2  0
 16 18  1  0
 10 11  1  0
 10 12  1  0
 10 13  1  0
 14 15  1  0
 18 19  1  0
 18 20  1  0
 18 21  1  0
M  END
>  <PDB_ID>  (517) 
pdb4gvp

>  <RESIDUE_NAME>  (517) 
GLN   VAL

>  <FRAG_NAME>  (517) 
ACEM   NMA

>  <FRAG_ATOM_NUM>  (517) 
fragi: 9  fragj: 12

>  <atom.prop.CHAIN_ID>  (517) 
A A A A A A A A A Z Z Z Z Z Z Z Z Z Z Z Z

>  <atom.prop.IS_HEAVY_ATOM>  (517) 
1 0 0 0 1 1 0 0 1 1 0 0 0 1 0 1 1 1 0 0 0

>  <DIFUSE_FUNC_ATOM>  (517) 
n/a

>  <FINAL_SINGLE_POINT_ENERGY>  (517) 
0

>  <NONCOV_INTER_ENERGY_QM>  (517) 
0

>  <FF_Energy>  (517) 
12.41

>  <QM_Energy>  (517) 
24.87

>  <source>  (517) 
ACEM_nNMA_34

>  <Index>  (517) 
27533

$$$$
ACEM-pdb4h0a-A-GLN-131:NMA-pdb4h0a-A-LEU-127
     RDKit          3D

 21 19  0  0  0  0  0  0  0  0999 V2000
   -5.0576   -0.2536    1.5521 C   0  0  0  0  0  0  0  0  0  0  0  0
   -4.8516   -0.4767    0.6073 H   0  0  0  0  0  0  0  0  0  0  0  0
   -5.9439    0.1873    1.6231 H   0  0  0  0  0  0  0  0  0  0  0  0
   -5.0861   -1.1792    2.1271 H   0  0  0  0  0  0  0  0  0  0  0  0
   -4.0012    0.6661    2.0845 C   0  0  0  0  0  0  0  0  0  0  0  0
   -2.8657    0.7143    1.4270 N   0  0  0  0  0  0  0  0  0  0  0  0
   -2.0997    1.3278    1.7195 H   0  0  0  0  0  0  0  0  0  0  0  0
   -2.7420    0.1210    0.6010 H   0  0  0  0  0  0  0  0  0  0  0  0
   -4.1983    1.3621    3.0670 O   0  0  0  0  0  0  0  0  0  0  0  0
   -1.1412   -2.1765   -0.1404 C   0  0  0  0  0  0  0  0  0  0  0  0
   -0.3160   -2.4613   -0.6323 H   0  0  0  0  0  0  0  0  0  0  0  0
   -2.0218   -2.4699   -0.7117 H   0  0  0  0  0  0  0  0  0  0  0  0
   -1.1493   -2.6844    0.8240 H   0  0  0  0  0  0  0  0  0  0  0  0
   -1.1234   -0.7230   -0.0000 N   0  0  0  0  0  0  0  0  0  0  0  0
   -1.9955   -0.1515    0.1105 H   0  0  0  0  0  0  0  0  0  0  0  0
    0.0000    0.0000    0.0000 C   0  0  0  0  0  0  0  0  0  0  0  0
    1.1234   -0.5045    0.0000 O   0  0  0  0  0  0  0  0  0  0  0  0
   -0.1601    1.5175    0.0656 C   0  0  0  0  0  0  0  0  0  0  0  0
   -0.7350    1.7399    0.8575 H   0  0  0  0  0  0  0  0  0  0  0  0
    0.8118    1.9943    0.1929 H   0  0  0  0  0  0  0  0  0  0  0  0
   -0.6308    1.8991   -0.8405 H   0  0  0  0  0  0  0  0  0  0  0  0
  1  5  1  0
  5  6  1  0
  5  9  2  0
  1  2  1  0
  1  3  1  0
  1  4  1  0
  6  7  1  0
  6  8  1  0
 10 14  1  0
 14 16  1  0
 16 17  2  0
 16 18  1  0
 10 11  1  0
 10 12  1  0
 10 13  1  0
 14 15  1  0
 18 19  1  0
 18 20  1  0
 18 21  1  0
M  END
>  <PDB_ID>  (518) 
pdb4h0a

>  <RESIDUE_NAME>  (518) 
GLN   LEU

>  <FRAG_NAME>  (518) 
ACEM   NMA

>  <FRAG_ATOM_NUM>  (518) 
fragi: 9  fragj: 12

>  <atom.prop.CHAIN_ID>  (518) 
A A A A A A A A A Z Z Z Z Z Z Z Z Z Z Z Z

>  <atom.prop.IS_HEAVY_ATOM>  (518) 
1 0 0 0 1 1 0 0 1 1 0 0 0 1 0 1 1 1 0 0 0

>  <DIFUSE_FUNC_ATOM>  (518) 
n/a

>  <FINAL_SINGLE_POINT_ENERGY>  (518) 
0

>  <NONCOV_INTER_ENERGY_QM>  (518) 
0

>  <FF_Energy>  (518) 
19.46

>  <QM_Energy>  (518) 
39.76

>  <source>  (518) 
ACEM_nNMA_34

>  <Index>  (518) 
27950

$$$$
ACEM-pdb4h0a-B-GLN-131:NMA-pdb4h0a-B-LEU-127
     RDKit          3D

 21 19  0  0  0  0  0  0  0  0999 V2000
   -5.1111   -0.2001    1.3669 C   0  0  0  0  0  0  0  0  0  0  0  0
   -4.8590   -0.4563    0.4416 H   0  0  0  0  0  0  0  0  0  0  0  0
   -5.9982    0.2453    1.3784 H   0  0  0  0  0  0  0  0  0  0  0  0
   -5.1674   -1.1030    1.9749 H   0  0  0  0  0  0  0  0  0  0  0  0
   -4.0784    0.7411    1.9162 C   0  0  0  0  0  0  0  0  0  0  0  0
   -2.9148    0.7713    1.3163 N   0  0  0  0  0  0  0  0  0  0  0  0
   -2.1648    1.3955    1.6227 H   0  0  0  0  0  0  0  0  0  0  0  0
   -2.7488    0.1496    0.5164 H   0  0  0  0  0  0  0  0  0  0  0  0
   -4.3206    1.4694    2.8523 O   0  0  0  0  0  0  0  0  0  0  0  0
   -1.1279   -2.1780   -0.0948 C   0  0  0  0  0  0  0  0  0  0  0  0
   -0.2829   -2.4741   -0.5439 H   0  0  0  0  0  0  0  0  0  0  0  0
   -1.9844   -2.4917   -0.6915 H   0  0  0  0  0  0  0  0  0  0  0  0
   -1.1813   -2.6492    0.8866 H   0  0  0  0  0  0  0  0  0  0  0  0
   -1.1164   -0.7124    0.0000 N   0  0  0  0  0  0  0  0  0  0  0  0
   -1.9935   -0.1468    0.0726 H   0  0  0  0  0  0  0  0  0  0  0  0
    0.0000    0.0000    0.0000 C   0  0  0  0  0  0  0  0  0  0  0  0
    1.1164   -0.5212   -0.0000 O   0  0  0  0  0  0  0  0  0  0  0  0
   -0.1502    1.5274    0.0182 C   0  0  0  0  0  0  0  0  0  0  0  0
   -0.7633    1.7714    0.7745 H   0  0  0  0  0  0  0  0  0  0  0  0
    0.8182    2.0004    0.1813 H   0  0  0  0  0  0  0  0  0  0  0  0
   -0.5702    1.8854   -0.9218 H   0  0  0  0  0  0  0  0  0  0  0  0
  1  5  1  0
  5  6  1  0
  5  9  2  0
  1  2  1  0
  1  3  1  0
  1  4  1  0
  6  7  1  0
  6  8  1  0
 10 14  1  0
 14 16  1  0
 16 17  2  0
 16 18  1  0
 10 11  1  0
 10 12  1  0
 10 13  1  0
 14 15  1  0
 18 19  1  0
 18 20  1  0
 18 21  1  0
M  END
>  <PDB_ID>  (519) 
pdb4h0a

>  <RESIDUE_NAME>  (519) 
GLN   LEU

>  <FRAG_NAME>  (519) 
ACEM   NMA

>  <FRAG_ATOM_NUM>  (519) 
fragi: 9  fragj: 12

>  <atom.prop.CHAIN_ID>  (519) 
A A A A A A A A A Z Z Z Z Z Z Z Z Z Z Z Z

>  <atom.prop.IS_HEAVY_ATOM>  (519) 
1 0 0 0 1 1 0 0 1 1 0 0 0 1 0 1 1 1 0 0 0

>  <DIFUSE_FUNC_ATOM>  (519) 
n/a

>  <FINAL_SINGLE_POINT_ENERGY>  (519) 
0

>  <NONCOV_INTER_ENERGY_QM>  (519) 
0

>  <FF_Energy>  (519) 
19.36

>  <QM_Energy>  (519) 
40.3

>  <source>  (519) 
ACEM_nNMA_35

>  <Index>  (519) 
1437

$$$$
ACEM-pdb4gys-B-GLN-22:NMA-pdb4gys-B-GLY-18
     RDKit          3D

 21 19  0  0  0  0  0  0  0  0999 V2000
   -5.4540   -0.3425    0.8058 C   0  0  0  0  0  0  0  0  0  0  0  0
   -6.3785   -0.0181    1.0071 H   0  0  0  0  0  0  0  0  0  0  0  0
   -5.3372   -1.2657    1.1734 H   0  0  0  0  0  0  0  0  0  0  0  0
   -5.3330   -0.3860   -0.2766 H   0  0  0  0  0  0  0  0  0  0  0  0
   -4.4572    0.5807    1.4772 C   0  0  0  0  0  0  0  0  0  0  0  0
   -3.2478    0.6175    0.9356 N   0  0  0  0  0  0  0  0  0  0  0  0
   -2.5227    1.2265    1.3225 H   0  0  0  0  0  0  0  0  0  0  0  0
   -3.0472    0.0305    0.1302 H   0  0  0  0  0  0  0  0  0  0  0  0
   -4.7619    1.2490    2.4628 O   0  0  0  0  0  0  0  0  0  0  0  0
   -1.1097   -2.1910    0.0058 C   0  0  0  0  0  0  0  0  0  0  0  0
   -0.1452   -2.4959    0.0423 H   0  0  0  0  0  0  0  0  0  0  0  0
   -1.5708   -2.6198   -0.8840 H   0  0  0  0  0  0  0  0  0  0  0  0
   -1.6307   -2.6086    0.8673 H   0  0  0  0  0  0  0  0  0  0  0  0
   -1.1241   -0.7193   -0.0000 N   0  0  0  0  0  0  0  0  0  0  0  0
   -1.9988   -0.1607   -0.0042 H   0  0  0  0  0  0  0  0  0  0  0  0
    0.0000    0.0000    0.0000 C   0  0  0  0  0  0  0  0  0  0  0  0
    1.1241   -0.5065    0.0000 O   0  0  0  0  0  0  0  0  0  0  0  0
   -0.1507    1.5077    0.0052 C   0  0  0  0  0  0  0  0  0  0  0  0
   -0.9093    1.7655    0.6279 H   0  0  0  0  0  0  0  0  0  0  0  0
   -0.4089    1.8206   -0.9247 H   0  0  0  0  0  0  0  0  0  0  0  0
    0.7617    2.0156    0.3179 H   0  0  0  0  0  0  0  0  0  0  0  0
  1  5  1  0
  5  6  1  0
  5  9  2  0
  1  2  1  0
  1  3  1  0
  1  4  1  0
  6  7  1  0
  6  8  1  0
 10 14  1  0
 14 16  1  0
 16 17  2  0
 16 18  1  0
 10 11  1  0
 10 12  1  0
 10 13  1  0
 14 15  1  0
 18 19  1  0
 18 20  1  0
 18 21  1  0
M  END
>  <PDB_ID>  (520) 
pdb4gys

>  <RESIDUE_NAME>  (520) 
GLN   GLY

>  <FRAG_NAME>  (520) 
ACEM   NMA

>  <FRAG_ATOM_NUM>  (520) 
fragi: 9  fragj: 12

>  <atom.prop.CHAIN_ID>  (520) 
A A A A A A A A A Z Z Z Z Z Z Z Z Z Z Z Z

>  <atom.prop.IS_HEAVY_ATOM>  (520) 
1 0 0 0 1 1 0 0 1 1 0 0 0 1 0 1 1 1 0 0 0

>  <DIFUSE_FUNC_ATOM>  (520) 
n/a

>  <FINAL_SINGLE_POINT_ENERGY>  (520) 
0

>  <NONCOV_INTER_ENERGY_QM>  (520) 
0

>  <FF_Energy>  (520) 
14.24

>  <QM_Energy>  (520) 
27.71

>  <source>  (520) 
ACEM_nNMA_35

>  <Index>  (520) 
1659

$$$$
ACEM-pdb3kc2-B-GLN-172:NMA-pdb3kc2-A-ARG-217
     RDKit          3D

 21 19  0  0  0  0  0  0  0  0999 V2000
   -5.3376    1.6670   -0.9547 C   0  0  0  0  0  0  0  0  0  0  0  0
   -4.8552    1.9921   -1.7722 H   0  0  0  0  0  0  0  0  0  0  0  0
   -5.6060    2.4581   -0.3985 H   0  0  0  0  0  0  0  0  0  0  0  0
   -6.2359    1.1328   -1.2643 H   0  0  0  0  0  0  0  0  0  0  0  0
   -4.3963    0.8110   -0.1503 C   0  0  0  0  0  0  0  0  0  0  0  0
   -3.6008    0.0788   -0.8365 N   0  0  0  0  0  0  0  0  0  0  0  0
   -2.8965   -0.5440   -0.3692 H   0  0  0  0  0  0  0  0  0  0  0  0
   -3.6338    0.0817   -1.8582 H   0  0  0  0  0  0  0  0  0  0  0  0
   -4.3591    0.8444    1.1079 O   0  0  0  0  0  0  0  0  0  0  0  0
   -1.1375   -2.1523   -0.0155 C   0  0  0  0  0  0  0  0  0  0  0  0
   -0.5624   -2.4685    0.7445 H   0  0  0  0  0  0  0  0  0  0  0  0
   -0.6722   -2.5195   -0.9303 H   0  0  0  0  0  0  0  0  0  0  0  0
   -2.1568   -2.5358    0.0285 H   0  0  0  0  0  0  0  0  0  0  0  0
   -1.1214   -0.7118   -0.0000 N   0  0  0  0  0  0  0  0  0  0  0  0
   -1.9943   -0.1266    0.0127 H   0  0  0  0  0  0  0  0  0  0  0  0
    0.0000    0.0000    0.0000 C   0  0  0  0  0  0  0  0  0  0  0  0
    1.1214   -0.5077   -0.0000 O   0  0  0  0  0  0  0  0  0  0  0  0
   -0.1796    1.5167    0.0002 C   0  0  0  0  0  0  0  0  0  0  0  0
   -1.0371    1.7369    0.4858 H   0  0  0  0  0  0  0  0  0  0  0  0
    0.6482    2.0199    0.4998 H   0  0  0  0  0  0  0  0  0  0  0  0
   -0.2857    1.8804   -1.0218 H   0  0  0  0  0  0  0  0  0  0  0  0
  1  5  1  0
  5  6  1  0
  5  9  2  0
  1  2  1  0
  1  3  1  0
  1  4  1  0
  6  7  1  0
  6  8  1  0
 10 14  1  0
 14 16  1  0
 16 17  2  0
 16 18  1  0
 10 11  1  0
 10 12  1  0
 10 13  1  0
 14 15  1  0
 18 19  1  0
 18 20  1  0
 18 21  1  0
M  END
>  <PDB_ID>  (521) 
pdb3kc2

>  <RESIDUE_NAME>  (521) 
GLN   ARG

>  <FRAG_NAME>  (521) 
ACEM   NMA

>  <FRAG_ATOM_NUM>  (521) 
fragi: 9  fragj: 12

>  <atom.prop.CHAIN_ID>  (521) 
A A A A A A A A A Z Z Z Z Z Z Z Z Z Z Z Z

>  <atom.prop.IS_HEAVY_ATOM>  (521) 
1 0 0 0 1 1 0 0 1 1 0 0 0 1 0 1 1 1 0 0 0

>  <DIFUSE_FUNC_ATOM>  (521) 
n/a

>  <FINAL_SINGLE_POINT_ENERGY>  (521) 
0

>  <NONCOV_INTER_ENERGY_QM>  (521) 
0

>  <FF_Energy>  (521) 
5.95

>  <QM_Energy>  (521) 
22.88

>  <source>  (521) 
ACEM_nNMA_35

>  <Index>  (521) 
3033

$$$$
ACEM-pdb3kjx-A-ASN-55:NMA-pdb3kjx-B-ALA-60
     RDKit          3D

 21 19  0  0  0  0  0  0  0  0999 V2000
   -5.3622   -0.1932    0.1570 C   0  0  0  0  0  0  0  0  0  0  0  0
   -4.8576   -1.0237   -0.0616 H   0  0  0  0  0  0  0  0  0  0  0  0
   -5.5685    0.3119   -0.6761 H   0  0  0  0  0  0  0  0  0  0  0  0
   -6.3011   -0.4733    0.6345 H   0  0  0  0  0  0  0  0  0  0  0  0
   -4.4981    0.6762    1.0473 C   0  0  0  0  0  0  0  0  0  0  0  0
   -3.2146    0.3513    1.1328 N   0  0  0  0  0  0  0  0  0  0  0  0
   -2.8641   -0.4330    0.6154 H   0  0  0  0  0  0  0  0  0  0  0  0
   -2.5973    0.8841    1.7086 H   0  0  0  0  0  0  0  0  0  0  0  0
   -4.9796    1.6330    1.6499 O   0  0  0  0  0  0  0  0  0  0  0  0
   -1.1823   -2.1762    0.0074 C   0  0  0  0  0  0  0  0  0  0  0  0
   -2.0228   -2.4598    0.5304 H   0  0  0  0  0  0  0  0  0  0  0  0
   -0.3280   -2.6979    0.4389 H   0  0  0  0  0  0  0  0  0  0  0  0
   -1.3481   -2.5529   -1.0019 H   0  0  0  0  0  0  0  0  0  0  0  0
   -1.1285   -0.7132    0.0000 N   0  0  0  0  0  0  0  0  0  0  0  0
   -2.0012   -0.1182   -0.0066 H   0  0  0  0  0  0  0  0  0  0  0  0
    0.0000    0.0000    0.0000 C   0  0  0  0  0  0  0  0  0  0  0  0
    1.1285   -0.5012   -0.0000 O   0  0  0  0  0  0  0  0  0  0  0  0
   -0.1855    1.5191   -0.0134 C   0  0  0  0  0  0  0  0  0  0  0  0
   -1.0809    1.7344    0.4216 H   0  0  0  0  0  0  0  0  0  0  0  0
    0.5972    2.0638    0.5145 H   0  0  0  0  0  0  0  0  0  0  0  0
   -0.2474    1.8737   -1.0423 H   0  0  0  0  0  0  0  0  0  0  0  0
  1  5  1  0
  5  6  1  0
  5  9  2  0
  1  2  1  0
  1  3  1  0
  1  4  1  0
  6  7  1  0
  6  8  1  0
 10 14  1  0
 14 16  1  0
 16 17  2  0
 16 18  1  0
 10 11  1  0
 10 12  1  0
 10 13  1  0
 14 15  1  0
 18 19  1  0
 18 20  1  0
 18 21  1  0
M  END
>  <PDB_ID>  (522) 
pdb3kjx

>  <RESIDUE_NAME>  (522) 
ASN   ALA

>  <FRAG_NAME>  (522) 
ACEM   NMA

>  <FRAG_ATOM_NUM>  (522) 
fragi: 9  fragj: 12

>  <atom.prop.CHAIN_ID>  (522) 
A A A A A A A A A Z Z Z Z Z Z Z Z Z Z Z Z

>  <atom.prop.IS_HEAVY_ATOM>  (522) 
1 0 0 0 1 1 0 0 1 1 0 0 0 1 0 1 1 1 0 0 0

>  <DIFUSE_FUNC_ATOM>  (522) 
n/a

>  <FINAL_SINGLE_POINT_ENERGY>  (522) 
0

>  <NONCOV_INTER_ENERGY_QM>  (522) 
0

>  <FF_Energy>  (522) 
13.5

>  <QM_Energy>  (522) 
25.41

>  <source>  (522) 
ACEM_nNMA_35

>  <Index>  (522) 
11025

$$$$
ACEM-pdb4hhf-A-ASN-20:NMA-pdb4hhf-A-TYR-36
     RDKit          3D

 21 19  0  0  0  0  0  0  0  0999 V2000
   -4.4527    1.7814    1.1555 C   0  0  0  0  0  0  0  0  0  0  0  0
   -5.2762    2.2350    1.4684 H   0  0  0  0  0  0  0  0  0  0  0  0
   -3.7545    2.4414    0.9126 H   0  0  0  0  0  0  0  0  0  0  0  0
   -4.0724    1.1567    1.9637 H   0  0  0  0  0  0  0  0  0  0  0  0
   -4.8045    0.9657   -0.1112 C   0  0  0  0  0  0  0  0  0  0  0  0
   -3.9398    0.1020   -0.5424 N   0  0  0  0  0  0  0  0  0  0  0  0
   -3.0646   -0.0208   -0.0406 H   0  0  0  0  0  0  0  0  0  0  0  0
   -4.1109   -0.4491   -1.3582 H   0  0  0  0  0  0  0  0  0  0  0  0
   -5.8917    1.1733   -0.6969 O   0  0  0  0  0  0  0  0  0  0  0  0
   -1.1364   -2.1697   -0.0148 C   0  0  0  0  0  0  0  0  0  0  0  0
   -0.2577   -2.4644    0.3804 H   0  0  0  0  0  0  0  0  0  0  0  0
   -1.2124   -2.5572   -1.0307 H   0  0  0  0  0  0  0  0  0  0  0  0
   -1.9803   -2.5218    0.5784 H   0  0  0  0  0  0  0  0  0  0  0  0
   -1.1552   -0.6888   -0.0000 N   0  0  0  0  0  0  0  0  0  0  0  0
   -2.0079   -0.1276    0.0111 H   0  0  0  0  0  0  0  0  0  0  0  0
    0.0000    0.0000    0.0000 C   0  0  0  0  0  0  0  0  0  0  0  0
    1.1552   -0.5540    0.0000 O   0  0  0  0  0  0  0  0  0  0  0  0
   -0.1351    1.4674    0.0336 C   0  0  0  0  0  0  0  0  0  0  0  0
   -0.7326    1.7339    0.8057 H   0  0  0  0  0  0  0  0  0  0  0  0
    0.8299    1.9491    0.1911 H   0  0  0  0  0  0  0  0  0  0  0  0
   -0.5869    1.8503   -0.8814 H   0  0  0  0  0  0  0  0  0  0  0  0
  1  5  1  0
  5  6  1  0
  5  9  2  0
  1  2  1  0
  1  3  1  0
  1  4  1  0
  6  7  1  0
  6  8  1  0
 10 14  1  0
 14 16  1  0
 16 17  2  0
 16 18  1  0
 10 11  1  0
 10 12  1  0
 10 13  1  0
 14 15  1  0
 18 19  1  0
 18 20  1  0
 18 21  1  0
M  END
>  <PDB_ID>  (523) 
pdb4hhf

>  <RESIDUE_NAME>  (523) 
ASN   TYR

>  <FRAG_NAME>  (523) 
ACEM   NMA

>  <FRAG_ATOM_NUM>  (523) 
fragi: 9  fragj: 12

>  <atom.prop.CHAIN_ID>  (523) 
A A A A A A A A A Z Z Z Z Z Z Z Z Z Z Z Z

>  <atom.prop.IS_HEAVY_ATOM>  (523) 
1 0 0 0 1 1 0 0 1 1 0 0 0 1 0 1 1 1 0 0 0

>  <DIFUSE_FUNC_ATOM>  (523) 
n/a

>  <FINAL_SINGLE_POINT_ENERGY>  (523) 
0

>  <NONCOV_INTER_ENERGY_QM>  (523) 
0

>  <FF_Energy>  (523) 
8.79

>  <QM_Energy>  (523) 
20.5

>  <source>  (523) 
ACEM_nNMA_35

>  <Index>  (523) 
14464

$$$$
ACEM-pdb4hfq-A-GLN-186:NMA-pdb4hfq-A-ILE-182
     RDKit          3D

 21 19  0  0  0  0  0  0  0  0999 V2000
   -5.4238    0.0524    0.5728 C   0  0  0  0  0  0  0  0  0  0  0  0
   -6.3470    0.4352    0.6616 H   0  0  0  0  0  0  0  0  0  0  0  0
   -5.4245   -0.8868    0.9264 H   0  0  0  0  0  0  0  0  0  0  0  0
   -5.1666    0.0200   -0.4859 H   0  0  0  0  0  0  0  0  0  0  0  0
   -4.4703    0.8842    1.3998 C   0  0  0  0  0  0  0  0  0  0  0  0
   -3.1618    0.8189    1.0393 N   0  0  0  0  0  0  0  0  0  0  0  0
   -2.4718    1.3604    1.5394 H   0  0  0  0  0  0  0  0  0  0  0  0
   -2.9100    0.2197    0.2647 H   0  0  0  0  0  0  0  0  0  0  0  0
   -4.8545    1.5527    2.3581 O   0  0  0  0  0  0  0  0  0  0  0  0
   -1.1011   -2.1594   -0.0599 C   0  0  0  0  0  0  0  0  0  0  0  0
   -0.1435   -2.4618    0.0093 H   0  0  0  0  0  0  0  0  0  0  0  0
   -1.5096   -2.5216   -1.0033 H   0  0  0  0  0  0  0  0  0  0  0  0
   -1.6501   -2.6275    0.7572 H   0  0  0  0  0  0  0  0  0  0  0  0
   -1.1275   -0.6925   -0.0000 N   0  0  0  0  0  0  0  0  0  0  0  0
   -1.9939   -0.1393    0.0436 H   0  0  0  0  0  0  0  0  0  0  0  0
    0.0000    0.0000    0.0000 C   0  0  0  0  0  0  0  0  0  0  0  0
    1.1275   -0.5120   -0.0000 O   0  0  0  0  0  0  0  0  0  0  0  0
   -0.1401    1.5096    0.0262 C   0  0  0  0  0  0  0  0  0  0  0  0
   -1.0025    1.7097    0.4835 H   0  0  0  0  0  0  0  0  0  0  0  0
    0.6475    1.9163    0.6606 H   0  0  0  0  0  0  0  0  0  0  0  0
   -0.1214    1.9239   -0.9818 H   0  0  0  0  0  0  0  0  0  0  0  0
  1  5  1  0
  5  6  1  0
  5  9  2  0
  1  2  1  0
  1  3  1  0
  1  4  1  0
  6  7  1  0
  6  8  1  0
 10 14  1  0
 14 16  1  0
 16 17  2  0
 16 18  1  0
 10 11  1  0
 10 12  1  0
 10 13  1  0
 14 15  1  0
 18 19  1  0
 18 20  1  0
 18 21  1  0
M  END
>  <PDB_ID>  (524) 
pdb4hfq

>  <RESIDUE_NAME>  (524) 
GLN   ILE

>  <FRAG_NAME>  (524) 
ACEM   NMA

>  <FRAG_ATOM_NUM>  (524) 
fragi: 9  fragj: 12

>  <atom.prop.CHAIN_ID>  (524) 
A A A A A A A A A Z Z Z Z Z Z Z Z Z Z Z Z

>  <atom.prop.IS_HEAVY_ATOM>  (524) 
1 0 0 0 1 1 0 0 1 1 0 0 0 1 0 1 1 1 0 0 0

>  <DIFUSE_FUNC_ATOM>  (524) 
n/a

>  <FINAL_SINGLE_POINT_ENERGY>  (524) 
0

>  <NONCOV_INTER_ENERGY_QM>  (524) 
0

>  <FF_Energy>  (524) 
14.84

>  <QM_Energy>  (524) 
30.15

>  <source>  (524) 
ACEM_nNMA_35

>  <Index>  (524) 
14581

$$$$
ACEM-pdb3kt9-A-GLN-85:NMA-pdb3kt9-A-LEU-81
     RDKit          3D

 21 19  0  0  0  0  0  0  0  0999 V2000
   -5.3673   -0.3450   -0.3414 C   0  0  0  0  0  0  0  0  0  0  0  0
   -6.3441   -0.1512   -0.3128 H   0  0  0  0  0  0  0  0  0  0  0  0
   -5.2060   -1.3135   -0.1701 H   0  0  0  0  0  0  0  0  0  0  0  0
   -4.9897   -0.0975   -1.3335 H   0  0  0  0  0  0  0  0  0  0  0  0
   -4.6810    0.4615    0.7444 C   0  0  0  0  0  0  0  0  0  0  0  0
   -3.3630    0.5982    0.6400 N   0  0  0  0  0  0  0  0  0  0  0  0
   -2.8383    1.1366    1.3229 H   0  0  0  0  0  0  0  0  0  0  0  0
   -2.8844    0.1510   -0.1405 H   0  0  0  0  0  0  0  0  0  0  0  0
   -5.3302    0.9512    1.6718 O   0  0  0  0  0  0  0  0  0  0  0  0
   -1.1686   -2.1426    0.2717 C   0  0  0  0  0  0  0  0  0  0  0  0
   -0.2217   -2.4614    0.4136 H   0  0  0  0  0  0  0  0  0  0  0  0
   -1.5821   -2.7003   -0.5686 H   0  0  0  0  0  0  0  0  0  0  0  0
   -1.7907   -2.3207    1.1489 H   0  0  0  0  0  0  0  0  0  0  0  0
   -1.1256   -0.7086    0.0000 N   0  0  0  0  0  0  0  0  0  0  0  0
   -1.9849   -0.1462   -0.2133 H   0  0  0  0  0  0  0  0  0  0  0  0
    0.0000    0.0000    0.0000 C   0  0  0  0  0  0  0  0  0  0  0  0
    1.1256   -0.5063   -0.0000 O   0  0  0  0  0  0  0  0  0  0  0  0
   -0.1734    1.5153   -0.0258 C   0  0  0  0  0  0  0  0  0  0  0  0
   -1.1395    1.7266    0.1219 H   0  0  0  0  0  0  0  0  0  0  0  0
    0.4090    1.9569    0.7829 H   0  0  0  0  0  0  0  0  0  0  0  0
    0.1435    1.9215   -0.9863 H   0  0  0  0  0  0  0  0  0  0  0  0
  1  5  1  0
  5  6  1  0
  5  9  2  0
  1  2  1  0
  1  3  1  0
  1  4  1  0
  6  7  1  0
  6  8  1  0
 10 14  1  0
 14 16  1  0
 16 17  2  0
 16 18  1  0
 10 11  1  0
 10 12  1  0
 10 13  1  0
 14 15  1  0
 18 19  1  0
 18 20  1  0
 18 21  1  0
M  END
>  <PDB_ID>  (525) 
pdb3kt9

>  <RESIDUE_NAME>  (525) 
GLN   LEU

>  <FRAG_NAME>  (525) 
ACEM   NMA

>  <FRAG_ATOM_NUM>  (525) 
fragi: 9  fragj: 12

>  <atom.prop.CHAIN_ID>  (525) 
A A A A A A A A A Z Z Z Z Z Z Z Z Z Z Z Z

>  <atom.prop.IS_HEAVY_ATOM>  (525) 
1 0 0 0 1 1 0 0 1 1 0 0 0 1 0 1 1 1 0 0 0

>  <DIFUSE_FUNC_ATOM>  (525) 
n/a

>  <FINAL_SINGLE_POINT_ENERGY>  (525) 
0

>  <NONCOV_INTER_ENERGY_QM>  (525) 
0

>  <FF_Energy>  (525) 
17.28

>  <QM_Energy>  (525) 
35.58

>  <source>  (525) 
ACEM_nNMA_35

>  <Index>  (525) 
16684

$$$$
ACEM-pdb4hjg-H-ASN-50:NMA-pdb4hjg-H-PRO-18
     RDKit          3D

 21 19  0  0  0  0  0  0  0  0999 V2000
   -6.2150   -1.1426   -0.5895 C   0  0  0  0  0  0  0  0  0  0  0  0
   -6.1374   -0.9669   -1.5653 H   0  0  0  0  0  0  0  0  0  0  0  0
   -7.0878   -0.8122   -0.2454 H   0  0  0  0  0  0  0  0  0  0  0  0
   -6.1647   -2.2192   -0.4271 H   0  0  0  0  0  0  0  0  0  0  0  0
   -5.0974   -0.3908    0.1276 C   0  0  0  0  0  0  0  0  0  0  0  0
   -3.8677   -0.5651   -0.3384 N   0  0  0  0  0  0  0  0  0  0  0  0
   -3.7171   -1.1648   -1.1286 H   0  0  0  0  0  0  0  0  0  0  0  0
   -3.0946   -0.1046    0.0920 H   0  0  0  0  0  0  0  0  0  0  0  0
   -5.3401    0.3198    1.1040 O   0  0  0  0  0  0  0  0  0  0  0  0
   -1.0338   -2.1746    0.1436 C   0  0  0  0  0  0  0  0  0  0  0  0
   -0.0840   -2.3881    0.4482 H   0  0  0  0  0  0  0  0  0  0  0  0
   -1.2024   -2.7326   -0.7775 H   0  0  0  0  0  0  0  0  0  0  0  0
   -1.7047   -2.5273    0.9269 H   0  0  0  0  0  0  0  0  0  0  0  0
   -1.1184   -0.7225    0.0000 N   0  0  0  0  0  0  0  0  0  0  0  0
   -1.9901   -0.2004   -0.1032 H   0  0  0  0  0  0  0  0  0  0  0  0
    0.0000    0.0000    0.0000 C   0  0  0  0  0  0  0  0  0  0  0  0
    1.1184   -0.5126    0.0000 O   0  0  0  0  0  0  0  0  0  0  0  0
   -0.1175    1.5256   -0.0115 C   0  0  0  0  0  0  0  0  0  0  0  0
    0.6087    1.9314   -0.6110 H   0  0  0  0  0  0  0  0  0  0  0  0
   -1.0969    1.9127   -0.2924 H   0  0  0  0  0  0  0  0  0  0  0  0
    0.0319    1.9376    0.9865 H   0  0  0  0  0  0  0  0  0  0  0  0
  1  5  1  0
  5  6  1  0
  5  9  2  0
  1  2  1  0
  1  3  1  0
  1  4  1  0
  6  7  1  0
  6  8  1  0
 10 14  1  0
 14 16  1  0
 16 17  2  0
 16 18  1  0
 10 11  1  0
 10 12  1  0
 10 13  1  0
 14 15  1  0
 18 19  1  0
 18 20  1  0
 18 21  1  0
M  END
>  <PDB_ID>  (526) 
pdb4hjg

>  <RESIDUE_NAME>  (526) 
ASN   PRO

>  <FRAG_NAME>  (526) 
ACEM   NMA

>  <FRAG_ATOM_NUM>  (526) 
fragi: 9  fragj: 12

>  <atom.prop.CHAIN_ID>  (526) 
A A A A A A A A A Z Z Z Z Z Z Z Z Z Z Z Z

>  <atom.prop.IS_HEAVY_ATOM>  (526) 
1 0 0 0 1 1 0 0 1 1 0 0 0 1 0 1 1 1 0 0 0

>  <DIFUSE_FUNC_ATOM>  (526) 
n/a

>  <FINAL_SINGLE_POINT_ENERGY>  (526) 
0

>  <NONCOV_INTER_ENERGY_QM>  (526) 
0

>  <FF_Energy>  (526) 
8.28

>  <QM_Energy>  (526) 
18.93

>  <source>  (526) 
ACEM_nNMA_35

>  <Index>  (526) 
20052

$$$$
ACEM-pdb4hj1-A-ASN-851:NMA-pdb4hj1-A-GLY-759
     RDKit          3D

 21 19  0  0  0  0  0  0  0  0999 V2000
   -4.4822    0.7497   -3.4239 C   0  0  0  0  0  0  0  0  0  0  0  0
   -5.0460    1.5626   -3.5388 H   0  0  0  0  0  0  0  0  0  0  0  0
   -5.0183   -0.0684   -3.6112 H   0  0  0  0  0  0  0  0  0  0  0  0
   -3.6681    0.7953   -4.1472 H   0  0  0  0  0  0  0  0  0  0  0  0
   -3.9891    0.6951   -1.9959 C   0  0  0  0  0  0  0  0  0  0  0  0
   -2.6962    0.5309   -1.8237 N   0  0  0  0  0  0  0  0  0  0  0  0
   -2.0853    0.4557   -2.6174 H   0  0  0  0  0  0  0  0  0  0  0  0
   -2.3079    0.4821   -0.9006 H   0  0  0  0  0  0  0  0  0  0  0  0
   -4.7605    0.7953   -1.0634 O   0  0  0  0  0  0  0  0  0  0  0  0
   -1.0859   -2.1708    0.0768 C   0  0  0  0  0  0  0  0  0  0  0  0
   -0.3595   -2.4323    0.7201 H   0  0  0  0  0  0  0  0  0  0  0  0
   -0.8429   -2.6123   -0.8897 H   0  0  0  0  0  0  0  0  0  0  0  0
   -2.0455   -2.5456    0.4328 H   0  0  0  0  0  0  0  0  0  0  0  0
   -1.1172   -0.7058   -0.0000 N   0  0  0  0  0  0  0  0  0  0  0  0
   -1.9910   -0.1581   -0.0568 H   0  0  0  0  0  0  0  0  0  0  0  0
    0.0000    0.0000    0.0000 C   0  0  0  0  0  0  0  0  0  0  0  0
    1.1172   -0.5202    0.0000 O   0  0  0  0  0  0  0  0  0  0  0  0
   -0.1514    1.5058   -0.0580 C   0  0  0  0  0  0  0  0  0  0  0  0
    0.4002    1.9305    0.6572 H   0  0  0  0  0  0  0  0  0  0  0  0
   -1.1100    1.7560    0.0638 H   0  0  0  0  0  0  0  0  0  0  0  0
    0.1904    1.8588   -1.0310 H   0  0  0  0  0  0  0  0  0  0  0  0
  1  5  1  0
  5  6  1  0
  5  9  2  0
  1  2  1  0
  1  3  1  0
  1  4  1  0
  6  7  1  0
  6  8  1  0
 10 14  1  0
 14 16  1  0
 16 17  2  0
 16 18  1  0
 10 11  1  0
 10 12  1  0
 10 13  1  0
 14 15  1  0
 18 19  1  0
 18 20  1  0
 18 21  1  0
M  END
>  <PDB_ID>  (527) 
pdb4hj1

>  <RESIDUE_NAME>  (527) 
ASN   GLY

>  <FRAG_NAME>  (527) 
ACEM   NMA

>  <FRAG_ATOM_NUM>  (527) 
fragi: 9  fragj: 12

>  <atom.prop.CHAIN_ID>  (527) 
A A A A A A A A A Z Z Z Z Z Z Z Z Z Z Z Z

>  <atom.prop.IS_HEAVY_ATOM>  (527) 
1 0 0 0 1 1 0 0 1 1 0 0 0 1 0 1 1 1 0 0 0

>  <DIFUSE_FUNC_ATOM>  (527) 
n/a

>  <FINAL_SINGLE_POINT_ENERGY>  (527) 
0

>  <NONCOV_INTER_ENERGY_QM>  (527) 
0

>  <FF_Energy>  (527) 
10.8

>  <QM_Energy>  (527) 
21.74

>  <source>  (527) 
ACEM_nNMA_35

>  <Index>  (527) 
24737

$$$$
ACEM-pdb3l0d-B-ASN-316:NMA-pdb3l0d-B-ASN-239
     RDKit          3D

 21 19  0  0  0  0  0  0  0  0999 V2000
   -6.2883   -0.7353   -0.1095 C   0  0  0  0  0  0  0  0  0  0  0  0
   -7.0184   -0.0879    0.0929 H   0  0  0  0  0  0  0  0  0  0  0  0
   -6.4199   -1.5741    0.4130 H   0  0  0  0  0  0  0  0  0  0  0  0
   -6.3542   -0.9899   -1.1673 H   0  0  0  0  0  0  0  0  0  0  0  0
   -4.9658   -0.1221    0.2618 C   0  0  0  0  0  0  0  0  0  0  0  0
   -3.9037   -0.9199    0.1820 N   0  0  0  0  0  0  0  0  0  0  0  0
   -4.0113   -1.8675   -0.1182 H   0  0  0  0  0  0  0  0  0  0  0  0
   -2.9974   -0.5713    0.4206 H   0  0  0  0  0  0  0  0  0  0  0  0
   -4.8888    1.0580    0.6096 O   0  0  0  0  0  0  0  0  0  0  0  0
   -1.1306   -2.1627   -0.0239 C   0  0  0  0  0  0  0  0  0  0  0  0
   -1.8815   -2.4530   -0.6300 H   0  0  0  0  0  0  0  0  0  0  0  0
   -1.3306   -2.5493    0.9755 H   0  0  0  0  0  0  0  0  0  0  0  0
   -0.2406   -2.6105   -0.4659 H   0  0  0  0  0  0  0  0  0  0  0  0
   -1.0984   -0.7222    0.0000 N   0  0  0  0  0  0  0  0  0  0  0  0
   -1.9869   -0.1368    0.0197 H   0  0  0  0  0  0  0  0  0  0  0  0
    0.0000    0.0000    0.0000 C   0  0  0  0  0  0  0  0  0  0  0  0
    1.0984   -0.4568   -0.0000 O   0  0  0  0  0  0  0  0  0  0  0  0
   -0.2356    1.4694    0.0222 C   0  0  0  0  0  0  0  0  0  0  0  0
   -1.1656    1.6200    0.4049 H   0  0  0  0  0  0  0  0  0  0  0  0
    0.4737    1.9843    0.6702 H   0  0  0  0  0  0  0  0  0  0  0  0
   -0.2159    1.8935   -0.9817 H   0  0  0  0  0  0  0  0  0  0  0  0
  1  5  1  0
  5  6  1  0
  5  9  2  0
  1  2  1  0
  1  3  1  0
  1  4  1  0
  6  7  1  0
  6  8  1  0
 10 14  1  0
 14 16  1  0
 16 17  2  0
 16 18  1  0
 10 11  1  0
 10 12  1  0
 10 13  1  0
 14 15  1  0
 18 19  1  0
 18 20  1  0
 18 21  1  0
M  END
>  <PDB_ID>  (528) 
pdb3l0d

>  <RESIDUE_NAME>  (528) 
ASN   ASN

>  <FRAG_NAME>  (528) 
ACEM   NMA

>  <FRAG_ATOM_NUM>  (528) 
fragi: 9  fragj: 12

>  <atom.prop.CHAIN_ID>  (528) 
A A A A A A A A A Z Z Z Z Z Z Z Z Z Z Z Z

>  <atom.prop.IS_HEAVY_ATOM>  (528) 
1 0 0 0 1 1 0 0 1 1 0 0 0 1 0 1 1 1 0 0 0

>  <DIFUSE_FUNC_ATOM>  (528) 
n/a

>  <FINAL_SINGLE_POINT_ENERGY>  (528) 
0

>  <NONCOV_INTER_ENERGY_QM>  (528) 
0

>  <FF_Energy>  (528) 
5.24

>  <QM_Energy>  (528) 
15.4

>  <source>  (528) 
ACEM_nNMA_35

>  <Index>  (528) 
28098

$$$$
ACEM-pdb3l4q-A-ASN-133:NMA-pdb3l4q-A-ASP-92
     RDKit          3D

 21 19  0  0  0  0  0  0  0  0999 V2000
   -6.2471    0.9015    0.1371 C   0  0  0  0  0  0  0  0  0  0  0  0
   -6.7097    0.3825    0.8409 H   0  0  0  0  0  0  0  0  0  0  0  0
   -6.8478    1.0801   -0.6286 H   0  0  0  0  0  0  0  0  0  0  0  0
   -5.9365    1.8565    0.5609 H   0  0  0  0  0  0  0  0  0  0  0  0
   -5.0516    0.0912   -0.3593 C   0  0  0  0  0  0  0  0  0  0  0  0
   -3.8552    0.4836    0.0454 N   0  0  0  0  0  0  0  0  0  0  0  0
   -3.7722    1.2778    0.6550 H   0  0  0  0  0  0  0  0  0  0  0  0
   -3.0356   -0.0027   -0.2503 H   0  0  0  0  0  0  0  0  0  0  0  0
   -5.2164   -0.9051   -1.0735 O   0  0  0  0  0  0  0  0  0  0  0  0
   -1.0040   -2.1418    0.1108 C   0  0  0  0  0  0  0  0  0  0  0  0
   -0.0708   -2.3907    0.4023 H   0  0  0  0  0  0  0  0  0  0  0  0
   -1.1829   -2.6239   -0.8504 H   0  0  0  0  0  0  0  0  0  0  0  0
   -1.7600   -2.5102    0.8042 H   0  0  0  0  0  0  0  0  0  0  0  0
   -1.0925   -0.7150   -0.0000 N   0  0  0  0  0  0  0  0  0  0  0  0
   -1.9764   -0.1892   -0.0823 H   0  0  0  0  0  0  0  0  0  0  0  0
    0.0000    0.0000    0.0000 C   0  0  0  0  0  0  0  0  0  0  0  0
    1.0925   -0.5106   -0.0000 O   0  0  0  0  0  0  0  0  0  0  0  0
   -0.1377    1.5003    0.0445 C   0  0  0  0  0  0  0  0  0  0  0  0
    0.5600    1.8912   -0.5617 H   0  0  0  0  0  0  0  0  0  0  0  0
   -1.1035    1.8014   -0.3614 H   0  0  0  0  0  0  0  0  0  0  0  0
    0.0455    1.8286    1.0676 H   0  0  0  0  0  0  0  0  0  0  0  0
  1  5  1  0
  5  6  1  0
  5  9  2  0
  1  2  1  0
  1  3  1  0
  1  4  1  0
  6  7  1  0
  6  8  1  0
 10 14  1  0
 14 16  1  0
 16 17  2  0
 16 18  1  0
 10 11  1  0
 10 12  1  0
 10 13  1  0
 14 15  1  0
 18 19  1  0
 18 20  1  0
 18 21  1  0
M  END
>  <PDB_ID>  (529) 
pdb3l4q

>  <RESIDUE_NAME>  (529) 
ASN   ASP

>  <FRAG_NAME>  (529) 
ACEM   NMA

>  <FRAG_ATOM_NUM>  (529) 
fragi: 9  fragj: 12

>  <atom.prop.CHAIN_ID>  (529) 
A A A A A A A A A Z Z Z Z Z Z Z Z Z Z Z Z

>  <atom.prop.IS_HEAVY_ATOM>  (529) 
1 0 0 0 1 1 0 0 1 1 0 0 0 1 0 1 1 1 0 0 0

>  <DIFUSE_FUNC_ATOM>  (529) 
n/a

>  <FINAL_SINGLE_POINT_ENERGY>  (529) 
0

>  <NONCOV_INTER_ENERGY_QM>  (529) 
0

>  <FF_Energy>  (529) 
8.0

>  <QM_Energy>  (529) 
18.46

>  <source>  (529) 
ACEM_nNMA_36

>  <Index>  (529) 
278

$$$$
ACEM-pdb3l6i-A-ASN-25:NMA-pdb3l6i-A-THR-54
     RDKit          3D

 21 19  0  0  0  0  0  0  0  0999 V2000
   -4.8275    2.3422    1.1165 C   0  0  0  0  0  0  0  0  0  0  0  0
   -5.7547    2.4704    0.7718 H   0  0  0  0  0  0  0  0  0  0  0  0
   -4.3042    3.1833    1.0026 H   0  0  0  0  0  0  0  0  0  0  0  0
   -4.8805    2.1077    2.1796 H   0  0  0  0  0  0  0  0  0  0  0  0
   -4.1591    1.2460    0.2971 C   0  0  0  0  0  0  0  0  0  0  0  0
   -3.4547    0.3477    0.9641 N   0  0  0  0  0  0  0  0  0  0  0  0
   -3.3883    0.4100    1.9647 H   0  0  0  0  0  0  0  0  0  0  0  0
   -2.9886   -0.3920    0.4808 H   0  0  0  0  0  0  0  0  0  0  0  0
   -4.2670    1.2286   -0.9343 O   0  0  0  0  0  0  0  0  0  0  0  0
   -1.1003   -2.1486    0.1637 C   0  0  0  0  0  0  0  0  0  0  0  0
   -0.1600   -2.4251    0.4157 H   0  0  0  0  0  0  0  0  0  0  0  0
   -1.3640   -2.6674   -0.7580 H   0  0  0  0  0  0  0  0  0  0  0  0
   -1.8087   -2.4376    0.9400 H   0  0  0  0  0  0  0  0  0  0  0  0
   -1.1195   -0.7082   -0.0000 N   0  0  0  0  0  0  0  0  0  0  0  0
   -1.9885   -0.1540   -0.1243 H   0  0  0  0  0  0  0  0  0  0  0  0
    0.0000    0.0000    0.0000 C   0  0  0  0  0  0  0  0  0  0  0  0
    1.1195   -0.4996    0.0000 O   0  0  0  0  0  0  0  0  0  0  0  0
   -0.1502    1.4891   -0.0058 C   0  0  0  0  0  0  0  0  0  0  0  0
   -1.0411    1.7250    0.3464 H   0  0  0  0  0  0  0  0  0  0  0  0
    0.6102    1.8382    0.6928 H   0  0  0  0  0  0  0  0  0  0  0  0
    0.0586    1.8624   -1.0083 H   0  0  0  0  0  0  0  0  0  0  0  0
  1  5  1  0
  5  6  1  0
  5  9  2  0
  1  2  1  0
  1  3  1  0
  1  4  1  0
  6  7  1  0
  6  8  1  0
 10 14  1  0
 14 16  1  0
 16 17  2  0
 16 18  1  0
 10 11  1  0
 10 12  1  0
 10 13  1  0
 14 15  1  0
 18 19  1  0
 18 20  1  0
 18 21  1  0
M  END
>  <PDB_ID>  (530) 
pdb3l6i

>  <RESIDUE_NAME>  (530) 
ASN   THR

>  <FRAG_NAME>  (530) 
ACEM   NMA

>  <FRAG_ATOM_NUM>  (530) 
fragi: 9  fragj: 12

>  <atom.prop.CHAIN_ID>  (530) 
A A A A A A A A A Z Z Z Z Z Z Z Z Z Z Z Z

>  <atom.prop.IS_HEAVY_ATOM>  (530) 
1 0 0 0 1 1 0 0 1 1 0 0 0 1 0 1 1 1 0 0 0

>  <DIFUSE_FUNC_ATOM>  (530) 
n/a

>  <FINAL_SINGLE_POINT_ENERGY>  (530) 
0

>  <NONCOV_INTER_ENERGY_QM>  (530) 
0

>  <FF_Energy>  (530) 
4.1

>  <QM_Energy>  (530) 
16.13

>  <source>  (530) 
ACEM_nNMA_36

>  <Index>  (530) 
1375

$$$$
ACEM-pdb3l6i-B-ASN-25:NMA-pdb3l6i-B-THR-54
     RDKit          3D

 21 19  0  0  0  0  0  0  0  0999 V2000
   -5.1044    2.0612    0.8292 C   0  0  0  0  0  0  0  0  0  0  0  0
   -6.0216    2.0672    0.4416 H   0  0  0  0  0  0  0  0  0  0  0  0
   -4.6966    2.9667    0.7593 H   0  0  0  0  0  0  0  0  0  0  0  0
   -5.1788    1.7989    1.8846 H   0  0  0  0  0  0  0  0  0  0  0  0
   -4.2474    1.0816    0.0244 C   0  0  0  0  0  0  0  0  0  0  0  0
   -3.5944    0.1501    0.7057 N   0  0  0  0  0  0  0  0  0  0  0  0
   -3.6875    0.1163    1.7060 H   0  0  0  0  0  0  0  0  0  0  0  0
   -3.0177   -0.5110    0.2352 H   0  0  0  0  0  0  0  0  0  0  0  0
   -4.1827    1.1679   -1.2044 O   0  0  0  0  0  0  0  0  0  0  0  0
   -1.0534   -2.1675    0.2516 C   0  0  0  0  0  0  0  0  0  0  0  0
   -0.1504   -2.3689    0.6983 H   0  0  0  0  0  0  0  0  0  0  0  0
   -1.1353   -2.8132   -0.6227 H   0  0  0  0  0  0  0  0  0  0  0  0
   -1.7936   -2.4595    0.9967 H   0  0  0  0  0  0  0  0  0  0  0  0
   -1.1129   -0.7300    0.0000 N   0  0  0  0  0  0  0  0  0  0  0  0
   -1.9824   -0.2122   -0.1855 H   0  0  0  0  0  0  0  0  0  0  0  0
    0.0000    0.0000    0.0000 C   0  0  0  0  0  0  0  0  0  0  0  0
    1.1129   -0.5035   -0.0000 O   0  0  0  0  0  0  0  0  0  0  0  0
   -0.1488    1.5175    0.0047 C   0  0  0  0  0  0  0  0  0  0  0  0
   -1.1132    1.7401    0.1647 H   0  0  0  0  0  0  0  0  0  0  0  0
    0.4450    1.9484    0.8109 H   0  0  0  0  0  0  0  0  0  0  0  0
    0.1724    1.9208   -0.9557 H   0  0  0  0  0  0  0  0  0  0  0  0
  1  5  1  0
  5  6  1  0
  5  9  2  0
  1  2  1  0
  1  3  1  0
  1  4  1  0
  6  7  1  0
  6  8  1  0
 10 14  1  0
 14 16  1  0
 16 17  2  0
 16 18  1  0
 10 11  1  0
 10 12  1  0
 10 13  1  0
 14 15  1  0
 18 19  1  0
 18 20  1  0
 18 21  1  0
M  END
>  <PDB_ID>  (531) 
pdb3l6i

>  <RESIDUE_NAME>  (531) 
ASN   THR

>  <FRAG_NAME>  (531) 
ACEM   NMA

>  <FRAG_ATOM_NUM>  (531) 
fragi: 9  fragj: 12

>  <atom.prop.CHAIN_ID>  (531) 
A A A A A A A A A Z Z Z Z Z Z Z Z Z Z Z Z

>  <atom.prop.IS_HEAVY_ATOM>  (531) 
1 0 0 0 1 1 0 0 1 1 0 0 0 1 0 1 1 1 0 0 0

>  <DIFUSE_FUNC_ATOM>  (531) 
n/a

>  <FINAL_SINGLE_POINT_ENERGY>  (531) 
0

>  <NONCOV_INTER_ENERGY_QM>  (531) 
0

>  <FF_Energy>  (531) 
4.63

>  <QM_Energy>  (531) 
18.04

>  <source>  (531) 
ACEM_nNMA_36

>  <Index>  (531) 
2527

$$$$
ACEM-pdb3l8c-B-GLN-29:NMA-pdb3l8c-B-ARG-25
     RDKit          3D

 21 19  0  0  0  0  0  0  0  0999 V2000
   -5.3392    0.1698   -0.5040 C   0  0  0  0  0  0  0  0  0  0  0  0
   -6.1585    0.7020   -0.7451 H   0  0  0  0  0  0  0  0  0  0  0  0
   -5.6316   -0.7257   -0.1510 H   0  0  0  0  0  0  0  0  0  0  0  0
   -4.7464    0.0139   -1.4053 H   0  0  0  0  0  0  0  0  0  0  0  0
   -4.6025    0.9030    0.6043 C   0  0  0  0  0  0  0  0  0  0  0  0
   -3.2856    0.7287    0.6145 N   0  0  0  0  0  0  0  0  0  0  0  0
   -2.7097    1.2004    1.3222 H   0  0  0  0  0  0  0  0  0  0  0  0
   -2.8576    0.1301   -0.0794 H   0  0  0  0  0  0  0  0  0  0  0  0
   -5.1923    1.6317    1.4255 O   0  0  0  0  0  0  0  0  0  0  0  0
   -1.0783   -2.1734    0.1175 C   0  0  0  0  0  0  0  0  0  0  0  0
   -0.1592   -2.4439    0.4583 H   0  0  0  0  0  0  0  0  0  0  0  0
   -1.2530   -2.6977   -0.8220 H   0  0  0  0  0  0  0  0  0  0  0  0
   -1.8202   -2.4914    0.8501 H   0  0  0  0  0  0  0  0  0  0  0  0
   -1.1144   -0.7114   -0.0000 N   0  0  0  0  0  0  0  0  0  0  0  0
   -1.9899   -0.1694   -0.0872 H   0  0  0  0  0  0  0  0  0  0  0  0
    0.0000    0.0000    0.0000 C   0  0  0  0  0  0  0  0  0  0  0  0
    1.1144   -0.5248   -0.0000 O   0  0  0  0  0  0  0  0  0  0  0  0
   -0.1704    1.5181   -0.0060 C   0  0  0  0  0  0  0  0  0  0  0  0
   -1.0201    1.7423    0.4773 H   0  0  0  0  0  0  0  0  0  0  0  0
    0.6715    1.9835    0.5065 H   0  0  0  0  0  0  0  0  0  0  0  0
   -0.2821    1.9209   -1.0126 H   0  0  0  0  0  0  0  0  0  0  0  0
  1  5  1  0
  5  6  1  0
  5  9  2  0
  1  2  1  0
  1  3  1  0
  1  4  1  0
  6  7  1  0
  6  8  1  0
 10 14  1  0
 14 16  1  0
 16 17  2  0
 16 18  1  0
 10 11  1  0
 10 12  1  0
 10 13  1  0
 14 15  1  0
 18 19  1  0
 18 20  1  0
 18 21  1  0
M  END
>  <PDB_ID>  (532) 
pdb3l8c

>  <RESIDUE_NAME>  (532) 
GLN   ARG

>  <FRAG_NAME>  (532) 
ACEM   NMA

>  <FRAG_ATOM_NUM>  (532) 
fragi: 9  fragj: 12

>  <atom.prop.CHAIN_ID>  (532) 
A A A A A A A A A Z Z Z Z Z Z Z Z Z Z Z Z

>  <atom.prop.IS_HEAVY_ATOM>  (532) 
1 0 0 0 1 1 0 0 1 1 0 0 0 1 0 1 1 1 0 0 0

>  <DIFUSE_FUNC_ATOM>  (532) 
n/a

>  <FINAL_SINGLE_POINT_ENERGY>  (532) 
0

>  <NONCOV_INTER_ENERGY_QM>  (532) 
0

>  <FF_Energy>  (532) 
17.62

>  <QM_Energy>  (532) 
38.9

>  <source>  (532) 
ACEM_nNMA_36

>  <Index>  (532) 
7828

$$$$
ACEM-pdb3l9e-B-ASN-85:NMA-pdb3l9e-B-PRO-123
     RDKit          3D

 21 19  0  0  0  0  0  0  0  0999 V2000
   -5.8727    0.9705   -0.1333 C   0  0  0  0  0  0  0  0  0  0  0  0
   -6.5483    1.1479   -0.8456 H   0  0  0  0  0  0  0  0  0  0  0  0
   -5.4825    1.8313    0.1869 H   0  0  0  0  0  0  0  0  0  0  0  0
   -6.3819    0.4968    0.7060 H   0  0  0  0  0  0  0  0  0  0  0  0
   -4.7669    0.1183   -0.7120 C   0  0  0  0  0  0  0  0  0  0  0  0
   -3.7170   -0.0955    0.0675 N   0  0  0  0  0  0  0  0  0  0  0  0
   -3.6898    0.2952    0.9902 H   0  0  0  0  0  0  0  0  0  0  0  0
   -2.9501   -0.6471   -0.2606 H   0  0  0  0  0  0  0  0  0  0  0  0
   -4.8513   -0.3375   -1.8547 O   0  0  0  0  0  0  0  0  0  0  0  0
   -1.1531   -2.1375   -0.2368 C   0  0  0  0  0  0  0  0  0  0  0  0
   -0.3114   -2.5224    0.1186 H   0  0  0  0  0  0  0  0  0  0  0  0
   -1.1313   -2.2750   -1.3179 H   0  0  0  0  0  0  0  0  0  0  0  0
   -2.0694   -2.5445    0.1909 H   0  0  0  0  0  0  0  0  0  0  0  0
   -1.1207   -0.7081   -0.0000 N   0  0  0  0  0  0  0  0  0  0  0  0
   -1.9849   -0.1406    0.1865 H   0  0  0  0  0  0  0  0  0  0  0  0
    0.0000    0.0000    0.0000 C   0  0  0  0  0  0  0  0  0  0  0  0
    1.1207   -0.5057    0.0000 O   0  0  0  0  0  0  0  0  0  0  0  0
   -0.1738    1.5196    0.0394 C   0  0  0  0  0  0  0  0  0  0  0  0
   -1.0879    1.7627    0.4076 H   0  0  0  0  0  0  0  0  0  0  0  0
    0.6106    2.0248    0.6028 H   0  0  0  0  0  0  0  0  0  0  0  0
   -0.0711    1.9391   -0.9614 H   0  0  0  0  0  0  0  0  0  0  0  0
  1  5  1  0
  5  6  1  0
  5  9  2  0
  1  2  1  0
  1  3  1  0
  1  4  1  0
  6  7  1  0
  6  8  1  0
 10 14  1  0
 14 16  1  0
 16 17  2  0
 16 18  1  0
 10 11  1  0
 10 12  1  0
 10 13  1  0
 14 15  1  0
 18 19  1  0
 18 20  1  0
 18 21  1  0
M  END
>  <PDB_ID>  (533) 
pdb3l9e

>  <RESIDUE_NAME>  (533) 
ASN   PRO

>  <FRAG_NAME>  (533) 
ACEM   NMA

>  <FRAG_ATOM_NUM>  (533) 
fragi: 9  fragj: 12

>  <atom.prop.CHAIN_ID>  (533) 
A A A A A A A A A Z Z Z Z Z Z Z Z Z Z Z Z

>  <atom.prop.IS_HEAVY_ATOM>  (533) 
1 0 0 0 1 1 0 0 1 1 0 0 0 1 0 1 1 1 0 0 0

>  <DIFUSE_FUNC_ATOM>  (533) 
n/a

>  <FINAL_SINGLE_POINT_ENERGY>  (533) 
0

>  <NONCOV_INTER_ENERGY_QM>  (533) 
0

>  <FF_Energy>  (533) 
9.45

>  <QM_Energy>  (533) 
21.64

>  <source>  (533) 
ACEM_nNMA_36

>  <Index>  (533) 
7837

$$$$
ACEM-pdb3lat-A-ASN-112:NMA-pdb3lat-A-GLY-106
     RDKit          3D

 21 19  0  0  0  0  0  0  0  0999 V2000
   -6.0475    0.2868    0.8814 C   0  0  0  0  0  0  0  0  0  0  0  0
   -6.6967   -0.1949    0.2956 H   0  0  0  0  0  0  0  0  0  0  0  0
   -6.3888    1.2038    1.0818 H   0  0  0  0  0  0  0  0  0  0  0  0
   -5.9561   -0.2604    1.8196 H   0  0  0  0  0  0  0  0  0  0  0  0
   -4.7302    0.4168    0.1344 C   0  0  0  0  0  0  0  0  0  0  0  0
   -3.6325    0.2051    0.8364 N   0  0  0  0  0  0  0  0  0  0  0  0
   -3.6940   -0.0341    1.8087 H   0  0  0  0  0  0  0  0  0  0  0  0
   -2.7325    0.2807    0.4027 H   0  0  0  0  0  0  0  0  0  0  0  0
   -4.7103    0.7285   -1.0781 O   0  0  0  0  0  0  0  0  0  0  0  0
   -1.0416   -2.1942    0.1803 C   0  0  0  0  0  0  0  0  0  0  0  0
   -0.1026   -2.4996   -0.0614 H   0  0  0  0  0  0  0  0  0  0  0  0
   -1.7522   -2.7457   -0.4353 H   0  0  0  0  0  0  0  0  0  0  0  0
   -1.1629   -2.4589    1.2307 H   0  0  0  0  0  0  0  0  0  0  0  0
   -1.1150   -0.7355   -0.0000 N   0  0  0  0  0  0  0  0  0  0  0  0
   -1.9904   -0.2172   -0.1316 H   0  0  0  0  0  0  0  0  0  0  0  0
    0.0000    0.0000    0.0000 C   0  0  0  0  0  0  0  0  0  0  0  0
    1.1150   -0.5128   -0.0000 O   0  0  0  0  0  0  0  0  0  0  0  0
   -0.1323    1.5175   -0.0006 C   0  0  0  0  0  0  0  0  0  0  0  0
    0.4349    1.8986   -0.7854 H   0  0  0  0  0  0  0  0  0  0  0  0
    0.3478    1.8918    0.8437 H   0  0  0  0  0  0  0  0  0  0  0  0
   -1.1279    1.9582   -0.0521 H   0  0  0  0  0  0  0  0  0  0  0  0
  1  5  1  0
  5  6  1  0
  5  9  2  0
  1  2  1  0
  1  3  1  0
  1  4  1  0
  6  7  1  0
  6  8  1  0
 10 14  1  0
 14 16  1  0
 16 17  2  0
 16 18  1  0
 10 11  1  0
 10 12  1  0
 10 13  1  0
 14 15  1  0
 18 19  1  0
 18 20  1  0
 18 21  1  0
M  END
>  <PDB_ID>  (534) 
pdb3lat

>  <RESIDUE_NAME>  (534) 
ASN   GLY

>  <FRAG_NAME>  (534) 
ACEM   NMA

>  <FRAG_ATOM_NUM>  (534) 
fragi: 9  fragj: 12

>  <atom.prop.CHAIN_ID>  (534) 
A A A A A A A A A Z Z Z Z Z Z Z Z Z Z Z Z

>  <atom.prop.IS_HEAVY_ATOM>  (534) 
1 0 0 0 1 1 0 0 1 1 0 0 0 1 0 1 1 1 0 0 0

>  <DIFUSE_FUNC_ATOM>  (534) 
n/a

>  <FINAL_SINGLE_POINT_ENERGY>  (534) 
0

>  <NONCOV_INTER_ENERGY_QM>  (534) 
0

>  <FF_Energy>  (534) 
7.92

>  <QM_Energy>  (534) 
22.57

>  <source>  (534) 
ACEM_nNMA_36

>  <Index>  (534) 
9066

$$$$
ACEM-pdb3l8c-B-ASN-418:NMA-pdb3l8c-B-SER-425
     RDKit          3D

 21 19  0  0  0  0  0  0  0  0999 V2000
   -4.7116    1.1731    3.2305 C   0  0  0  0  0  0  0  0  0  0  0  0
   -5.6877    0.9802    3.2762 H   0  0  0  0  0  0  0  0  0  0  0  0
   -4.5424    2.1360    3.4193 H   0  0  0  0  0  0  0  0  0  0  0  0
   -4.2160    0.5868    4.0043 H   0  0  0  0  0  0  0  0  0  0  0  0
   -4.2149    0.8548    1.8271 C   0  0  0  0  0  0  0  0  0  0  0  0
   -2.9419    0.5034    1.7073 N   0  0  0  0  0  0  0  0  0  0  0  0
   -2.3630    0.4539    2.5267 H   0  0  0  0  0  0  0  0  0  0  0  0
   -2.5589    0.2891    0.8123 H   0  0  0  0  0  0  0  0  0  0  0  0
   -4.9553    0.9465    0.8645 O   0  0  0  0  0  0  0  0  0  0  0  0
   -1.0918   -2.1284   -0.0360 C   0  0  0  0  0  0  0  0  0  0  0  0
   -0.1629   -2.4422   -0.2505 H   0  0  0  0  0  0  0  0  0  0  0  0
   -1.7655   -2.4708   -0.8215 H   0  0  0  0  0  0  0  0  0  0  0  0
   -1.3791   -2.5280    0.9365 H   0  0  0  0  0  0  0  0  0  0  0  0
   -1.1140   -0.6975   -0.0000 N   0  0  0  0  0  0  0  0  0  0  0  0
   -1.9866   -0.1290    0.0280 H   0  0  0  0  0  0  0  0  0  0  0  0
    0.0000    0.0000    0.0000 C   0  0  0  0  0  0  0  0  0  0  0  0
    1.1140   -0.5449    0.0000 O   0  0  0  0  0  0  0  0  0  0  0  0
   -0.1719    1.5310    0.0143 C   0  0  0  0  0  0  0  0  0  0  0  0
   -1.1309    1.7280    0.2382 H   0  0  0  0  0  0  0  0  0  0  0  0
    0.4543    1.9921    0.7781 H   0  0  0  0  0  0  0  0  0  0  0  0
    0.0691    1.9642   -0.9565 H   0  0  0  0  0  0  0  0  0  0  0  0
  1  5  1  0
  5  6  1  0
  5  9  2  0
  1  2  1  0
  1  3  1  0
  1  4  1  0
  6  7  1  0
  6  8  1  0
 10 14  1  0
 14 16  1  0
 16 17  2  0
 16 18  1  0
 10 11  1  0
 10 12  1  0
 10 13  1  0
 14 15  1  0
 18 19  1  0
 18 20  1  0
 18 21  1  0
M  END
>  <PDB_ID>  (535) 
pdb3l8c

>  <RESIDUE_NAME>  (535) 
ASN   SER

>  <FRAG_NAME>  (535) 
ACEM   NMA

>  <FRAG_ATOM_NUM>  (535) 
fragi: 9  fragj: 12

>  <atom.prop.CHAIN_ID>  (535) 
A A A A A A A A A Z Z Z Z Z Z Z Z Z Z Z Z

>  <atom.prop.IS_HEAVY_ATOM>  (535) 
1 0 0 0 1 1 0 0 1 1 0 0 0 1 0 1 1 1 0 0 0

>  <DIFUSE_FUNC_ATOM>  (535) 
n/a

>  <FINAL_SINGLE_POINT_ENERGY>  (535) 
0

>  <NONCOV_INTER_ENERGY_QM>  (535) 
0

>  <FF_Energy>  (535) 
9.66

>  <QM_Energy>  (535) 
22.78

>  <source>  (535) 
ACEM_nNMA_36

>  <Index>  (535) 
10738

$$$$
ACEM-pdb3lew-A-ASN-116:NMA-pdb3lew-A-SER-176
     RDKit          3D

 21 19  0  0  0  0  0  0  0  0999 V2000
   -5.7059    0.5114    0.2704 C   0  0  0  0  0  0  0  0  0  0  0  0
   -5.9588   -0.1007    1.0157 H   0  0  0  0  0  0  0  0  0  0  0  0
   -6.4422    0.5537   -0.4009 H   0  0  0  0  0  0  0  0  0  0  0  0
   -5.5642    1.5102    0.6830 H   0  0  0  0  0  0  0  0  0  0  0  0
   -4.4707   -0.0005   -0.3878 C   0  0  0  0  0  0  0  0  0  0  0  0
   -3.3515    0.1548    0.2793 N   0  0  0  0  0  0  0  0  0  0  0  0
   -3.3457    0.5893    1.1835 H   0  0  0  0  0  0  0  0  0  0  0  0
   -2.4798   -0.1647   -0.1112 H   0  0  0  0  0  0  0  0  0  0  0  0
   -4.5213   -0.5564   -1.4891 O   0  0  0  0  0  0  0  0  0  0  0  0
   -1.3818   -2.0540    0.5257 C   0  0  0  0  0  0  0  0  0  0  0  0
   -2.3351   -2.0800    0.8966 H   0  0  0  0  0  0  0  0  0  0  0  0
   -0.7035   -2.3826    1.3131 H   0  0  0  0  0  0  0  0  0  0  0  0
   -1.5742   -2.7827   -0.2618 H   0  0  0  0  0  0  0  0  0  0  0  0
   -1.1400   -0.6929   -0.0000 N   0  0  0  0  0  0  0  0  0  0  0  0
   -1.9481   -0.1377   -0.4535 H   0  0  0  0  0  0  0  0  0  0  0  0
    0.0000    0.0000    0.0000 C   0  0  0  0  0  0  0  0  0  0  0  0
    1.1400   -0.4964    0.0000 O   0  0  0  0  0  0  0  0  0  0  0  0
   -0.2155    1.5304   -0.0725 C   0  0  0  0  0  0  0  0  0  0  0  0
   -1.1392    1.7244    0.2855 H   0  0  0  0  0  0  0  0  0  0  0  0
    0.5014    2.0842    0.5336 H   0  0  0  0  0  0  0  0  0  0  0  0
   -0.2673    1.8768   -1.1047 H   0  0  0  0  0  0  0  0  0  0  0  0
  1  5  1  0
  5  6  1  0
  5  9  2  0
  1  2  1  0
  1  3  1  0
  1  4  1  0
  6  7  1  0
  6  8  1  0
 10 14  1  0
 14 16  1  0
 16 17  2  0
 16 18  1  0
 10 11  1  0
 10 12  1  0
 10 13  1  0
 14 15  1  0
 18 19  1  0
 18 20  1  0
 18 21  1  0
M  END
>  <PDB_ID>  (536) 
pdb3lew

>  <RESIDUE_NAME>  (536) 
ASN   SER

>  <FRAG_NAME>  (536) 
ACEM   NMA

>  <FRAG_ATOM_NUM>  (536) 
fragi: 9  fragj: 12

>  <atom.prop.CHAIN_ID>  (536) 
A A A A A A A A A Z Z Z Z Z Z Z Z Z Z Z Z

>  <atom.prop.IS_HEAVY_ATOM>  (536) 
1 0 0 0 1 1 0 0 1 1 0 0 0 1 0 1 1 1 0 0 0

>  <DIFUSE_FUNC_ATOM>  (536) 
n/a

>  <FINAL_SINGLE_POINT_ENERGY>  (536) 
0

>  <NONCOV_INTER_ENERGY_QM>  (536) 
0

>  <FF_Energy>  (536) 
58.46

>  <QM_Energy>  (536) 
107.72

>  <source>  (536) 
ACEM_nNMA_36

>  <Index>  (536) 
13998

$$$$
ACEM-pdb4id2-B-ASN-79:NMA-pdb4id2-B-GLY-82
     RDKit          3D

 21 19  0  0  0  0  0  0  0  0999 V2000
   -4.7397    0.4423   -3.3827 C   0  0  0  0  0  0  0  0  0  0  0  0
   -5.5532    1.0457   -3.3574 H   0  0  0  0  0  0  0  0  0  0  0  0
   -4.9948   -0.3909   -3.9001 H   0  0  0  0  0  0  0  0  0  0  0  0
   -3.9682    0.9584   -3.9541 H   0  0  0  0  0  0  0  0  0  0  0  0
   -4.3944    0.0387   -1.9590 C   0  0  0  0  0  0  0  0  0  0  0  0
   -3.1550    0.2948   -1.5647 N   0  0  0  0  0  0  0  0  0  0  0  0
   -2.5076    0.7343   -2.1886 H   0  0  0  0  0  0  0  0  0  0  0  0
   -2.8610    0.0479   -0.6394 H   0  0  0  0  0  0  0  0  0  0  0  0
   -5.2233   -0.4653   -1.1908 O   0  0  0  0  0  0  0  0  0  0  0  0
   -1.1019   -2.2188   -0.0283 C   0  0  0  0  0  0  0  0  0  0  0  0
   -0.3357   -2.5123    0.5449 H   0  0  0  0  0  0  0  0  0  0  0  0
   -0.8937   -2.5651   -1.0407 H   0  0  0  0  0  0  0  0  0  0  0  0
   -2.0438   -2.6366    0.3271 H   0  0  0  0  0  0  0  0  0  0  0  0
   -1.1286   -0.7517   -0.0000 N   0  0  0  0  0  0  0  0  0  0  0  0
   -2.0057   -0.1944    0.0215 H   0  0  0  0  0  0  0  0  0  0  0  0
    0.0000    0.0000    0.0000 C   0  0  0  0  0  0  0  0  0  0  0  0
    1.1286   -0.5006   -0.0000 O   0  0  0  0  0  0  0  0  0  0  0  0
   -0.1417    1.5146    0.0067 C   0  0  0  0  0  0  0  0  0  0  0  0
    0.3332    1.8971   -0.8158 H   0  0  0  0  0  0  0  0  0  0  0  0
    0.3582    1.8922    0.8161 H   0  0  0  0  0  0  0  0  0  0  0  0
   -1.1685    1.8800    0.0236 H   0  0  0  0  0  0  0  0  0  0  0  0
  1  5  1  0
  5  6  1  0
  5  9  2  0
  1  2  1  0
  1  3  1  0
  1  4  1  0
  6  7  1  0
  6  8  1  0
 10 14  1  0
 14 16  1  0
 16 17  2  0
 16 18  1  0
 10 11  1  0
 10 12  1  0
 10 13  1  0
 14 15  1  0
 18 19  1  0
 18 20  1  0
 18 21  1  0
M  END
>  <PDB_ID>  (537) 
pdb4id2

>  <RESIDUE_NAME>  (537) 
ASN   GLY

>  <FRAG_NAME>  (537) 
ACEM   NMA

>  <FRAG_ATOM_NUM>  (537) 
fragi: 9  fragj: 12

>  <atom.prop.CHAIN_ID>  (537) 
A A A A A A A A A Z Z Z Z Z Z Z Z Z Z Z Z

>  <atom.prop.IS_HEAVY_ATOM>  (537) 
1 0 0 0 1 1 0 0 1 1 0 0 0 1 0 1 1 1 0 0 0

>  <DIFUSE_FUNC_ATOM>  (537) 
n/a

>  <FINAL_SINGLE_POINT_ENERGY>  (537) 
0

>  <NONCOV_INTER_ENERGY_QM>  (537) 
0

>  <FF_Energy>  (537) 
10.15

>  <QM_Energy>  (537) 
20.24

>  <source>  (537) 
ACEM_nNMA_36

>  <Index>  (537) 
14196

$$$$
ACEM-pdb3lmk-A-GLN-318:NMA-pdb3lmk-A-ASP-315
     RDKit          3D

 21 19  0  0  0  0  0  0  0  0999 V2000
   -4.5581    1.5137    2.6474 C   0  0  0  0  0  0  0  0  0  0  0  0
   -5.2806    2.1704    2.4271 H   0  0  0  0  0  0  0  0  0  0  0  0
   -3.7753    2.0008    3.0366 H   0  0  0  0  0  0  0  0  0  0  0  0
   -4.9397    0.8195    3.3961 H   0  0  0  0  0  0  0  0  0  0  0  0
   -4.1200    0.8270    1.3716 C   0  0  0  0  0  0  0  0  0  0  0  0
   -3.2206   -0.1363    1.5037 N   0  0  0  0  0  0  0  0  0  0  0  0
   -2.8865   -0.6560    0.6910 H   0  0  0  0  0  0  0  0  0  0  0  0
   -2.8622   -0.3556    2.4314 H   0  0  0  0  0  0  0  0  0  0  0  0
   -4.5896    1.1508    0.2825 O   0  0  0  0  0  0  0  0  0  0  0  0
   -1.1172   -2.1684    0.0112 C   0  0  0  0  0  0  0  0  0  0  0  0
   -1.8286   -2.5079   -0.6307 H   0  0  0  0  0  0  0  0  0  0  0  0
   -0.2230   -2.5030   -0.3368 H   0  0  0  0  0  0  0  0  0  0  0  0
   -1.2974   -2.5864    1.0016 H   0  0  0  0  0  0  0  0  0  0  0  0
   -1.1194   -0.7101   -0.0000 N   0  0  0  0  0  0  0  0  0  0  0  0
   -1.9949   -0.1421   -0.0083 H   0  0  0  0  0  0  0  0  0  0  0  0
    0.0000    0.0000    0.0000 C   0  0  0  0  0  0  0  0  0  0  0  0
    1.1194   -0.5147    0.0000 O   0  0  0  0  0  0  0  0  0  0  0  0
   -0.1753    1.5252    0.0046 C   0  0  0  0  0  0  0  0  0  0  0  0
   -1.1741    1.7060   -0.0345 H   0  0  0  0  0  0  0  0  0  0  0  0
    0.1997    2.0100    0.9059 H   0  0  0  0  0  0  0  0  0  0  0  0
    0.2836    1.9612   -0.8827 H   0  0  0  0  0  0  0  0  0  0  0  0
  1  5  1  0
  5  6  1  0
  5  9  2  0
  1  2  1  0
  1  3  1  0
  1  4  1  0
  6  7  1  0
  6  8  1  0
 10 14  1  0
 14 16  1  0
 16 17  2  0
 16 18  1  0
 10 11  1  0
 10 12  1  0
 10 13  1  0
 14 15  1  0
 18 19  1  0
 18 20  1  0
 18 21  1  0
M  END
>  <PDB_ID>  (538) 
pdb3lmk

>  <RESIDUE_NAME>  (538) 
GLN   ASP

>  <FRAG_NAME>  (538) 
ACEM   NMA

>  <FRAG_ATOM_NUM>  (538) 
fragi: 9  fragj: 12

>  <atom.prop.CHAIN_ID>  (538) 
A A A A A A A A A Z Z Z Z Z Z Z Z Z Z Z Z

>  <atom.prop.IS_HEAVY_ATOM>  (538) 
1 0 0 0 1 1 0 0 1 1 0 0 0 1 0 1 1 1 0 0 0

>  <DIFUSE_FUNC_ATOM>  (538) 
n/a

>  <FINAL_SINGLE_POINT_ENERGY>  (538) 
0

>  <NONCOV_INTER_ENERGY_QM>  (538) 
0

>  <FF_Energy>  (538) 
6.25

>  <QM_Energy>  (538) 
16.53

>  <source>  (538) 
ACEM_nNMA_36

>  <Index>  (538) 
25290

$$$$
ACEM-pdb3lw2-A-GLN-322:NMA-pdb3lw2-A-PHE-34
     RDKit          3D

 21 19  0  0  0  0  0  0  0  0999 V2000
   -5.3959    0.7413    2.0296 C   0  0  0  0  0  0  0  0  0  0  0  0
   -4.7126    1.3971    2.3955 H   0  0  0  0  0  0  0  0  0  0  0  0
   -5.7544    0.2138    2.8205 H   0  0  0  0  0  0  0  0  0  0  0  0
   -6.2132    1.2941    1.5665 H   0  0  0  0  0  0  0  0  0  0  0  0
   -4.6597   -0.2317    1.1208 C   0  0  0  0  0  0  0  0  0  0  0  0
   -3.3562   -0.1330    1.1469 N   0  0  0  0  0  0  0  0  0  0  0  0
   -2.7709   -0.7643    0.5711 H   0  0  0  0  0  0  0  0  0  0  0  0
   -2.9095    0.5652    1.7330 H   0  0  0  0  0  0  0  0  0  0  0  0
   -5.2545   -1.0789    0.4229 O   0  0  0  0  0  0  0  0  0  0  0  0
   -1.0462   -2.1446    0.0553 C   0  0  0  0  0  0  0  0  0  0  0  0
   -0.0862   -2.4301   -0.0306 H   0  0  0  0  0  0  0  0  0  0  0  0
   -1.5870   -2.5849   -0.7824 H   0  0  0  0  0  0  0  0  0  0  0  0
   -1.4342   -2.4819    1.0165 H   0  0  0  0  0  0  0  0  0  0  0  0
   -1.1154   -0.7146   -0.0000 N   0  0  0  0  0  0  0  0  0  0  0  0
   -1.9886   -0.1682   -0.0419 H   0  0  0  0  0  0  0  0  0  0  0  0
    0.0000    0.0000    0.0000 C   0  0  0  0  0  0  0  0  0  0  0  0
    1.1154   -0.5168   -0.0000 O   0  0  0  0  0  0  0  0  0  0  0  0
   -0.1545    1.4985   -0.0321 C   0  0  0  0  0  0  0  0  0  0  0  0
   -0.9421    1.7211    0.5385 H   0  0  0  0  0  0  0  0  0  0  0  0
    0.7274    1.9275    0.4435 H   0  0  0  0  0  0  0  0  0  0  0  0
   -0.2085    1.8638   -1.0577 H   0  0  0  0  0  0  0  0  0  0  0  0
  1  5  1  0
  5  6  1  0
  5  9  2  0
  1  2  1  0
  1  3  1  0
  1  4  1  0
  6  7  1  0
  6  8  1  0
 10 14  1  0
 14 16  1  0
 16 17  2  0
 16 18  1  0
 10 11  1  0
 10 12  1  0
 10 13  1  0
 14 15  1  0
 18 19  1  0
 18 20  1  0
 18 21  1  0
M  END
>  <PDB_ID>  (539) 
pdb3lw2

>  <RESIDUE_NAME>  (539) 
GLN   PHE

>  <FRAG_NAME>  (539) 
ACEM   NMA

>  <FRAG_ATOM_NUM>  (539) 
fragi: 9  fragj: 12

>  <atom.prop.CHAIN_ID>  (539) 
A A A A A A A A A Z Z Z Z Z Z Z Z Z Z Z Z

>  <atom.prop.IS_HEAVY_ATOM>  (539) 
1 0 0 0 1 1 0 0 1 1 0 0 0 1 0 1 1 1 0 0 0

>  <DIFUSE_FUNC_ATOM>  (539) 
n/a

>  <FINAL_SINGLE_POINT_ENERGY>  (539) 
0

>  <NONCOV_INTER_ENERGY_QM>  (539) 
0

>  <FF_Energy>  (539) 
13.47

>  <QM_Energy>  (539) 
23.91

>  <source>  (539) 
ACEM_nNMA_37

>  <Index>  (539) 
3942

$$$$
ACEM-pdb4j3p-A-ASN-342:NMA-pdb4j3p-A-ALA-345
     RDKit          3D

 21 19  0  0  0  0  0  0  0  0999 V2000
   -3.9957    2.7759    2.4650 C   0  0  0  0  0  0  0  0  0  0  0  0
   -4.9296    2.5836    2.7478 H   0  0  0  0  0  0  0  0  0  0  0  0
   -3.8875    3.7424    2.2553 H   0  0  0  0  0  0  0  0  0  0  0  0
   -3.3286    2.5276    3.2905 H   0  0  0  0  0  0  0  0  0  0  0  0
   -3.6871    1.9708    1.2258 C   0  0  0  0  0  0  0  0  0  0  0  0
   -3.0718    0.8062    1.4033 N   0  0  0  0  0  0  0  0  0  0  0  0
   -2.8441    0.5044    2.3328 H   0  0  0  0  0  0  0  0  0  0  0  0
   -2.8383    0.2352    0.6209 H   0  0  0  0  0  0  0  0  0  0  0  0
   -4.0058    2.3938    0.1135 O   0  0  0  0  0  0  0  0  0  0  0  0
   -1.0996   -2.1617   -0.0922 C   0  0  0  0  0  0  0  0  0  0  0  0
   -0.3011   -2.4356   -0.6170 H   0  0  0  0  0  0  0  0  0  0  0  0
   -1.9849   -2.4675   -0.6496 H   0  0  0  0  0  0  0  0  0  0  0  0
   -1.0506   -2.6188    0.8962 H   0  0  0  0  0  0  0  0  0  0  0  0
   -1.1170   -0.7119   -0.0000 N   0  0  0  0  0  0  0  0  0  0  0  0
   -1.9916   -0.1518    0.0707 H   0  0  0  0  0  0  0  0  0  0  0  0
    0.0000    0.0000    0.0000 C   0  0  0  0  0  0  0  0  0  0  0  0
    1.1170   -0.5166    0.0000 O   0  0  0  0  0  0  0  0  0  0  0  0
   -0.1781    1.5190    0.0307 C   0  0  0  0  0  0  0  0  0  0  0  0
   -1.0576    1.7270    0.4918 H   0  0  0  0  0  0  0  0  0  0  0  0
    0.6257    2.0268    0.5638 H   0  0  0  0  0  0  0  0  0  0  0  0
   -0.2792    1.9169   -0.9790 H   0  0  0  0  0  0  0  0  0  0  0  0
  1  5  1  0
  5  6  1  0
  5  9  2  0
  1  2  1  0
  1  3  1  0
  1  4  1  0
  6  7  1  0
  6  8  1  0
 10 14  1  0
 14 16  1  0
 16 17  2  0
 16 18  1  0
 10 11  1  0
 10 12  1  0
 10 13  1  0
 14 15  1  0
 18 19  1  0
 18 20  1  0
 18 21  1  0
M  END
>  <PDB_ID>  (540) 
pdb4j3p

>  <RESIDUE_NAME>  (540) 
ASN   ALA

>  <FRAG_NAME>  (540) 
ACEM   NMA

>  <FRAG_ATOM_NUM>  (540) 
fragi: 9  fragj: 12

>  <atom.prop.CHAIN_ID>  (540) 
A A A A A A A A A Z Z Z Z Z Z Z Z Z Z Z Z

>  <atom.prop.IS_HEAVY_ATOM>  (540) 
1 0 0 0 1 1 0 0 1 1 0 0 0 1 0 1 1 1 0 0 0

>  <DIFUSE_FUNC_ATOM>  (540) 
n/a

>  <FINAL_SINGLE_POINT_ENERGY>  (540) 
0

>  <NONCOV_INTER_ENERGY_QM>  (540) 
0

>  <FF_Energy>  (540) 
7.72

>  <QM_Energy>  (540) 
20.69

>  <source>  (540) 
ACEM_nNMA_37

>  <Index>  (540) 
13895

$$$$
ACEM-pdb3m5r-A-ASN-133:NMA-pdb3m5r-A-ASP-92
     RDKit          3D

 21 19  0  0  0  0  0  0  0  0999 V2000
   -6.1503    0.5579    0.0920 C   0  0  0  0  0  0  0  0  0  0  0  0
   -6.6515   -0.0311    0.7127 H   0  0  0  0  0  0  0  0  0  0  0  0
   -6.6632    0.7094   -0.7435 H   0  0  0  0  0  0  0  0  0  0  0  0
   -5.9805    1.5186    0.5784 H   0  0  0  0  0  0  0  0  0  0  0  0
   -4.8333   -0.1448   -0.2750 C   0  0  0  0  0  0  0  0  0  0  0  0
   -3.7183    0.3448    0.2559 N   0  0  0  0  0  0  0  0  0  0  0  0
   -3.7770    1.1374    0.8711 H   0  0  0  0  0  0  0  0  0  0  0  0
   -2.8369   -0.0663    0.0495 H   0  0  0  0  0  0  0  0  0  0  0  0
   -4.8368   -1.1225   -1.0190 O   0  0  0  0  0  0  0  0  0  0  0  0
   -1.0609   -2.1779    0.0478 C   0  0  0  0  0  0  0  0  0  0  0  0
   -0.1266   -2.4458    0.3212 H   0  0  0  0  0  0  0  0  0  0  0  0
   -1.2669   -2.6146   -0.9294 H   0  0  0  0  0  0  0  0  0  0  0  0
   -1.7770   -2.5822    0.7633 H   0  0  0  0  0  0  0  0  0  0  0  0
   -1.1179   -0.7230   -0.0000 N   0  0  0  0  0  0  0  0  0  0  0  0
   -1.9937   -0.1798   -0.0354 H   0  0  0  0  0  0  0  0  0  0  0  0
    0.0000    0.0000    0.0000 C   0  0  0  0  0  0  0  0  0  0  0  0
    1.1179   -0.5071    0.0000 O   0  0  0  0  0  0  0  0  0  0  0  0
   -0.1720    1.5112    0.0522 C   0  0  0  0  0  0  0  0  0  0  0  0
    0.5298    1.9100   -0.5361 H   0  0  0  0  0  0  0  0  0  0  0  0
   -1.1385    1.7708   -0.3798 H   0  0  0  0  0  0  0  0  0  0  0  0
   -0.1038    1.8152    1.0967 H   0  0  0  0  0  0  0  0  0  0  0  0
  1  5  1  0
  5  6  1  0
  5  9  2  0
  1  2  1  0
  1  3  1  0
  1  4  1  0
  6  7  1  0
  6  8  1  0
 10 14  1  0
 14 16  1  0
 16 17  2  0
 16 18  1  0
 10 11  1  0
 10 12  1  0
 10 13  1  0
 14 15  1  0
 18 19  1  0
 18 20  1  0
 18 21  1  0
M  END
>  <PDB_ID>  (541) 
pdb3m5r

>  <RESIDUE_NAME>  (541) 
ASN   ASP

>  <FRAG_NAME>  (541) 
ACEM   NMA

>  <FRAG_ATOM_NUM>  (541) 
fragi: 9  fragj: 12

>  <atom.prop.CHAIN_ID>  (541) 
A A A A A A A A A Z Z Z Z Z Z Z Z Z Z Z Z

>  <atom.prop.IS_HEAVY_ATOM>  (541) 
1 0 0 0 1 1 0 0 1 1 0 0 0 1 0 1 1 1 0 0 0

>  <DIFUSE_FUNC_ATOM>  (541) 
n/a

>  <FINAL_SINGLE_POINT_ENERGY>  (541) 
0

>  <NONCOV_INTER_ENERGY_QM>  (541) 
0

>  <FF_Energy>  (541) 
14.41

>  <QM_Energy>  (541) 
40.18

>  <source>  (541) 
ACEM_nNMA_37

>  <Index>  (541) 
14094

$$$$
ACEM-pdb3m70-A-ASN-208:NMA-pdb3m70-A-ASN-180
     RDKit          3D

 21 19  0  0  0  0  0  0  0  0999 V2000
   -5.7754    1.1663   -0.9195 C   0  0  0  0  0  0  0  0  0  0  0  0
   -5.8137    2.1596   -1.0134 H   0  0  0  0  0  0  0  0  0  0  0  0
   -5.9150    0.9123    0.0357 H   0  0  0  0  0  0  0  0  0  0  0  0
   -6.5864    0.7369   -1.5077 H   0  0  0  0  0  0  0  0  0  0  0  0
   -4.4122    0.6886   -1.3553 C   0  0  0  0  0  0  0  0  0  0  0  0
   -3.6124    0.2433   -0.3934 N   0  0  0  0  0  0  0  0  0  0  0  0
   -3.9254    0.2317    0.5558 H   0  0  0  0  0  0  0  0  0  0  0  0
   -2.6927   -0.0831   -0.6179 H   0  0  0  0  0  0  0  0  0  0  0  0
   -4.0563    0.7610   -2.5473 O   0  0  0  0  0  0  0  0  0  0  0  0
   -1.0262   -2.1967   -0.1791 C   0  0  0  0  0  0  0  0  0  0  0  0
   -0.3515   -2.5161    0.4675 H   0  0  0  0  0  0  0  0  0  0  0  0
   -0.6103   -2.3651   -1.1724 H   0  0  0  0  0  0  0  0  0  0  0  0
   -2.0040   -2.6735   -0.1102 H   0  0  0  0  0  0  0  0  0  0  0  0
   -1.1105   -0.7388   -0.0000 N   0  0  0  0  0  0  0  0  0  0  0  0
   -1.9882   -0.2271    0.1295 H   0  0  0  0  0  0  0  0  0  0  0  0
    0.0000    0.0000    0.0000 C   0  0  0  0  0  0  0  0  0  0  0  0
    1.1105   -0.5005    0.0000 O   0  0  0  0  0  0  0  0  0  0  0  0
   -0.1426    1.5198   -0.0004 C   0  0  0  0  0  0  0  0  0  0  0  0
   -0.4532    1.7838   -0.9268 H   0  0  0  0  0  0  0  0  0  0  0  0
   -0.8975    1.8656    0.7057 H   0  0  0  0  0  0  0  0  0  0  0  0
    0.8250    1.9495    0.2589 H   0  0  0  0  0  0  0  0  0  0  0  0
  1  5  1  0
  5  6  1  0
  5  9  2  0
  1  2  1  0
  1  3  1  0
  1  4  1  0
  6  7  1  0
  6  8  1  0
 10 14  1  0
 14 16  1  0
 16 17  2  0
 16 18  1  0
 10 11  1  0
 10 12  1  0
 10 13  1  0
 14 15  1  0
 18 19  1  0
 18 20  1  0
 18 21  1  0
M  END
>  <PDB_ID>  (542) 
pdb3m70

>  <RESIDUE_NAME>  (542) 
ASN   ASN

>  <FRAG_NAME>  (542) 
ACEM   NMA

>  <FRAG_ATOM_NUM>  (542) 
fragi: 9  fragj: 12

>  <atom.prop.CHAIN_ID>  (542) 
A A A A A A A A A Z Z Z Z Z Z Z Z Z Z Z Z

>  <atom.prop.IS_HEAVY_ATOM>  (542) 
1 0 0 0 1 1 0 0 1 1 0 0 0 1 0 1 1 1 0 0 0

>  <DIFUSE_FUNC_ATOM>  (542) 
n/a

>  <FINAL_SINGLE_POINT_ENERGY>  (542) 
0

>  <NONCOV_INTER_ENERGY_QM>  (542) 
0

>  <FF_Energy>  (542) 
10.27

>  <QM_Energy>  (542) 
26.06

>  <source>  (542) 
ACEM_nNMA_37

>  <Index>  (542) 
15767

$$$$
ACEM-pdb4j94-A-GLN-316:NMA-pdb4j94-A-TYR-313
     RDKit          3D

 21 19  0  0  0  0  0  0  0  0999 V2000
   -6.3814   -0.8882    0.1793 C   0  0  0  0  0  0  0  0  0  0  0  0
   -6.9581   -0.2054   -0.2809 H   0  0  0  0  0  0  0  0  0  0  0  0
   -6.8179   -1.1460    1.0473 H   0  0  0  0  0  0  0  0  0  0  0  0
   -6.3354   -1.7749   -0.4529 H   0  0  0  0  0  0  0  0  0  0  0  0
   -5.0235   -0.2418    0.4925 C   0  0  0  0  0  0  0  0  0  0  0  0
   -3.9821   -0.7113   -0.1964 N   0  0  0  0  0  0  0  0  0  0  0  0
   -3.0573   -0.3227   -0.0525 H   0  0  0  0  0  0  0  0  0  0  0  0
   -4.1344   -1.4610   -0.8639 H   0  0  0  0  0  0  0  0  0  0  0  0
   -4.9110    0.6619    1.3252 O   0  0  0  0  0  0  0  0  0  0  0  0
   -1.0759   -2.1688   -0.1145 C   0  0  0  0  0  0  0  0  0  0  0  0
   -0.1048   -2.4381   -0.1105 H   0  0  0  0  0  0  0  0  0  0  0  0
   -1.4975   -2.4993   -1.0638 H   0  0  0  0  0  0  0  0  0  0  0  0
   -1.6264   -2.6355    0.7024 H   0  0  0  0  0  0  0  0  0  0  0  0
   -1.1197   -0.7147    0.0000 N   0  0  0  0  0  0  0  0  0  0  0  0
   -1.9922   -0.1699    0.0851 H   0  0  0  0  0  0  0  0  0  0  0  0
    0.0000    0.0000    0.0000 C   0  0  0  0  0  0  0  0  0  0  0  0
    1.1197   -0.5189   -0.0000 O   0  0  0  0  0  0  0  0  0  0  0  0
   -0.1468    1.5193    0.0293 C   0  0  0  0  0  0  0  0  0  0  0  0
    0.4561    1.9051   -0.6975 H   0  0  0  0  0  0  0  0  0  0  0  0
   -1.1627    1.8711   -0.1510 H   0  0  0  0  0  0  0  0  0  0  0  0
    0.2199    1.8933    0.9852 H   0  0  0  0  0  0  0  0  0  0  0  0
  1  5  1  0
  5  6  1  0
  5  9  2  0
  1  2  1  0
  1  3  1  0
  1  4  1  0
  6  7  1  0
  6  8  1  0
 10 14  1  0
 14 16  1  0
 16 17  2  0
 16 18  1  0
 10 11  1  0
 10 12  1  0
 10 13  1  0
 14 15  1  0
 18 19  1  0
 18 20  1  0
 18 21  1  0
M  END
>  <PDB_ID>  (543) 
pdb4j94

>  <RESIDUE_NAME>  (543) 
GLN   TYR

>  <FRAG_NAME>  (543) 
ACEM   NMA

>  <FRAG_ATOM_NUM>  (543) 
fragi: 9  fragj: 12

>  <atom.prop.CHAIN_ID>  (543) 
A A A A A A A A A Z Z Z Z Z Z Z Z Z Z Z Z

>  <atom.prop.IS_HEAVY_ATOM>  (543) 
1 0 0 0 1 1 0 0 1 1 0 0 0 1 0 1 1 1 0 0 0

>  <DIFUSE_FUNC_ATOM>  (543) 
n/a

>  <FINAL_SINGLE_POINT_ENERGY>  (543) 
0

>  <NONCOV_INTER_ENERGY_QM>  (543) 
0

>  <FF_Energy>  (543) 
7.07

>  <QM_Energy>  (543) 
19.32

>  <source>  (543) 
ACEM_nNMA_37

>  <Index>  (543) 
18831

$$$$
ACEM-pdb4jhn-A-GLN-118:NMA-pdb4jhn-A-ASN-115
     RDKit          3D

 21 19  0  0  0  0  0  0  0  0999 V2000
   -6.1793    0.0549   -1.4350 C   0  0  0  0  0  0  0  0  0  0  0  0
   -6.0358    0.5008   -2.3169 H   0  0  0  0  0  0  0  0  0  0  0  0
   -6.9878    0.4373   -0.9908 H   0  0  0  0  0  0  0  0  0  0  0  0
   -6.3555   -1.0060   -1.6124 H   0  0  0  0  0  0  0  0  0  0  0  0
   -4.9682    0.3131   -0.5547 C   0  0  0  0  0  0  0  0  0  0  0  0
   -3.9215   -0.4861   -0.7386 N   0  0  0  0  0  0  0  0  0  0  0  0
   -3.0712   -0.3636   -0.1963 H   0  0  0  0  0  0  0  0  0  0  0  0
   -3.9857   -1.2264   -1.4348 H   0  0  0  0  0  0  0  0  0  0  0  0
   -4.9744    1.2125    0.2876 O   0  0  0  0  0  0  0  0  0  0  0  0
   -1.1054   -2.1757   -0.0158 C   0  0  0  0  0  0  0  0  0  0  0  0
   -0.1722   -2.5033    0.2118 H   0  0  0  0  0  0  0  0  0  0  0  0
   -1.4075   -2.5949   -0.9755 H   0  0  0  0  0  0  0  0  0  0  0  0
   -1.7268   -2.5791    0.7837 H   0  0  0  0  0  0  0  0  0  0  0  0
   -1.1249   -0.7140    0.0000 N   0  0  0  0  0  0  0  0  0  0  0  0
   -1.9968   -0.1536    0.0119 H   0  0  0  0  0  0  0  0  0  0  0  0
    0.0000    0.0000    0.0000 C   0  0  0  0  0  0  0  0  0  0  0  0
    1.1249   -0.5127   -0.0000 O   0  0  0  0  0  0  0  0  0  0  0  0
   -0.1624    1.5174   -0.0041 C   0  0  0  0  0  0  0  0  0  0  0  0
    0.6473    1.9010   -0.4872 H   0  0  0  0  0  0  0  0  0  0  0  0
   -1.0445    1.8716   -0.5376 H   0  0  0  0  0  0  0  0  0  0  0  0
   -0.1545    1.8947    1.0185 H   0  0  0  0  0  0  0  0  0  0  0  0
  1  5  1  0
  5  6  1  0
  5  9  2  0
  1  2  1  0
  1  3  1  0
  1  4  1  0
  6  7  1  0
  6  8  1  0
 10 14  1  0
 14 16  1  0
 16 17  2  0
 16 18  1  0
 10 11  1  0
 10 12  1  0
 10 13  1  0
 14 15  1  0
 18 19  1  0
 18 20  1  0
 18 21  1  0
M  END
>  <PDB_ID>  (544) 
pdb4jhn

>  <RESIDUE_NAME>  (544) 
GLN   ASN

>  <FRAG_NAME>  (544) 
ACEM   NMA

>  <FRAG_ATOM_NUM>  (544) 
fragi: 9  fragj: 12

>  <atom.prop.CHAIN_ID>  (544) 
A A A A A A A A A Z Z Z Z Z Z Z Z Z Z Z Z

>  <atom.prop.IS_HEAVY_ATOM>  (544) 
1 0 0 0 1 1 0 0 1 1 0 0 0 1 0 1 1 1 0 0 0

>  <DIFUSE_FUNC_ATOM>  (544) 
n/a

>  <FINAL_SINGLE_POINT_ENERGY>  (544) 
0

>  <NONCOV_INTER_ENERGY_QM>  (544) 
0

>  <FF_Energy>  (544) 
5.18

>  <QM_Energy>  (544) 
17.2

>  <source>  (544) 
ACEM_nNMA_37

>  <Index>  (544) 
24981

$$$$
ACEM-pdb3meq-C-GLN-31:NMA-pdb3meq-C-PRO-27
     RDKit          3D

 21 19  0  0  0  0  0  0  0  0999 V2000
   -4.0501    0.3613   -2.9004 C   0  0  0  0  0  0  0  0  0  0  0  0
   -4.7072    0.8709   -3.4476 H   0  0  0  0  0  0  0  0  0  0  0  0
   -4.0450   -0.5962   -3.1731 H   0  0  0  0  0  0  0  0  0  0  0  0
   -3.0574    0.7767   -3.0737 H   0  0  0  0  0  0  0  0  0  0  0  0
   -4.4484    0.4545   -1.4460 C   0  0  0  0  0  0  0  0  0  0  0  0
   -3.5084    0.1867   -0.5539 N   0  0  0  0  0  0  0  0  0  0  0  0
   -3.6981    0.2422    0.4449 H   0  0  0  0  0  0  0  0  0  0  0  0
   -2.5790   -0.0796   -0.8814 H   0  0  0  0  0  0  0  0  0  0  0  0
   -5.6017    0.7531   -1.1268 O   0  0  0  0  0  0  0  0  0  0  0  0
   -1.1200   -2.1649   -0.1733 C   0  0  0  0  0  0  0  0  0  0  0  0
   -0.3775   -2.5663    0.3785 H   0  0  0  0  0  0  0  0  0  0  0  0
   -1.9947   -2.5427    0.1563 H   0  0  0  0  0  0  0  0  0  0  0  0
   -0.9805   -2.4379   -1.2192 H   0  0  0  0  0  0  0  0  0  0  0  0
   -1.1229   -0.7143   -0.0000 N   0  0  0  0  0  0  0  0  0  0  0  0
   -1.9915   -0.1576    0.1324 H   0  0  0  0  0  0  0  0  0  0  0  0
    0.0000    0.0000    0.0000 C   0  0  0  0  0  0  0  0  0  0  0  0
    1.1229   -0.5040    0.0000 O   0  0  0  0  0  0  0  0  0  0  0  0
   -0.1559    1.5160   -0.0070 C   0  0  0  0  0  0  0  0  0  0  0  0
   -1.1441    1.7723   -0.0406 H   0  0  0  0  0  0  0  0  0  0  0  0
    0.3368    2.0168    0.8263 H   0  0  0  0  0  0  0  0  0  0  0  0
    0.3588    1.9348   -0.8717 H   0  0  0  0  0  0  0  0  0  0  0  0
  1  5  1  0
  5  6  1  0
  5  9  2  0
  1  2  1  0
  1  3  1  0
  1  4  1  0
  6  7  1  0
  6  8  1  0
 10 14  1  0
 14 16  1  0
 16 17  2  0
 16 18  1  0
 10 11  1  0
 10 12  1  0
 10 13  1  0
 14 15  1  0
 18 19  1  0
 18 20  1  0
 18 21  1  0
M  END
>  <PDB_ID>  (545) 
pdb3meq

>  <RESIDUE_NAME>  (545) 
GLN   PRO

>  <FRAG_NAME>  (545) 
ACEM   NMA

>  <FRAG_ATOM_NUM>  (545) 
fragi: 9  fragj: 12

>  <atom.prop.CHAIN_ID>  (545) 
A A A A A A A A A Z Z Z Z Z Z Z Z Z Z Z Z

>  <atom.prop.IS_HEAVY_ATOM>  (545) 
1 0 0 0 1 1 0 0 1 1 0 0 0 1 0 1 1 1 0 0 0

>  <DIFUSE_FUNC_ATOM>  (545) 
n/a

>  <FINAL_SINGLE_POINT_ENERGY>  (545) 
0

>  <NONCOV_INTER_ENERGY_QM>  (545) 
0

>  <FF_Energy>  (545) 
12.45

>  <QM_Energy>  (545) 
23.2

>  <source>  (545) 
ACEM_nNMA_38

>  <Index>  (545) 
254

$$$$
ACEM-pdb4jhn-C-GLN-118:NMA-pdb4jhn-C-ASN-115
     RDKit          3D

 21 19  0  0  0  0  0  0  0  0999 V2000
   -6.2199    0.1768   -1.1047 C   0  0  0  0  0  0  0  0  0  0  0  0
   -6.1348    0.6350   -1.9917 H   0  0  0  0  0  0  0  0  0  0  0  0
   -6.9869    0.5766   -0.5997 H   0  0  0  0  0  0  0  0  0  0  0  0
   -6.4294   -0.8788   -1.2773 H   0  0  0  0  0  0  0  0  0  0  0  0
   -4.9415    0.4188   -0.3125 C   0  0  0  0  0  0  0  0  0  0  0  0
   -3.9309   -0.4076   -0.5641 N   0  0  0  0  0  0  0  0  0  0  0  0
   -3.0412   -0.3002   -0.0844 H   0  0  0  0  0  0  0  0  0  0  0  0
   -4.0626   -1.1514   -1.2447 H   0  0  0  0  0  0  0  0  0  0  0  0
   -4.8629    1.3308    0.5163 O   0  0  0  0  0  0  0  0  0  0  0  0
   -1.1243   -2.1668   -0.0125 C   0  0  0  0  0  0  0  0  0  0  0  0
   -0.1861   -2.5073    0.1547 H   0  0  0  0  0  0  0  0  0  0  0  0
   -1.4894   -2.5685   -0.9577 H   0  0  0  0  0  0  0  0  0  0  0  0
   -1.7203   -2.5544    0.8136 H   0  0  0  0  0  0  0  0  0  0  0  0
   -1.1253   -0.7100    0.0000 N   0  0  0  0  0  0  0  0  0  0  0  0
   -1.9968   -0.1384    0.0092 H   0  0  0  0  0  0  0  0  0  0  0  0
    0.0000    0.0000    0.0000 C   0  0  0  0  0  0  0  0  0  0  0  0
    1.1253   -0.5105   -0.0000 O   0  0  0  0  0  0  0  0  0  0  0  0
   -0.1625    1.5181   -0.0093 C   0  0  0  0  0  0  0  0  0  0  0  0
    0.6026    1.8949   -0.5631 H   0  0  0  0  0  0  0  0  0  0  0  0
   -1.0868    1.8633   -0.4727 H   0  0  0  0  0  0  0  0  0  0  0  0
   -0.0515    1.9210    0.9974 H   0  0  0  0  0  0  0  0  0  0  0  0
  1  5  1  0
  5  6  1  0
  5  9  2  0
  1  2  1  0
  1  3  1  0
  1  4  1  0
  6  7  1  0
  6  8  1  0
 10 14  1  0
 14 16  1  0
 16 17  2  0
 16 18  1  0
 10 11  1  0
 10 12  1  0
 10 13  1  0
 14 15  1  0
 18 19  1  0
 18 20  1  0
 18 21  1  0
M  END
>  <PDB_ID>  (546) 
pdb4jhn

>  <RESIDUE_NAME>  (546) 
GLN   ASN

>  <FRAG_NAME>  (546) 
ACEM   NMA

>  <FRAG_ATOM_NUM>  (546) 
fragi: 9  fragj: 12

>  <atom.prop.CHAIN_ID>  (546) 
A A A A A A A A A Z Z Z Z Z Z Z Z Z Z Z Z

>  <atom.prop.IS_HEAVY_ATOM>  (546) 
1 0 0 0 1 1 0 0 1 1 0 0 0 1 0 1 1 1 0 0 0

>  <DIFUSE_FUNC_ATOM>  (546) 
n/a

>  <FINAL_SINGLE_POINT_ENERGY>  (546) 
0

>  <NONCOV_INTER_ENERGY_QM>  (546) 
0

>  <FF_Energy>  (546) 
6.34

>  <QM_Energy>  (546) 
20.43

>  <source>  (546) 
ACEM_nNMA_38

>  <Index>  (546) 
1140

$$$$
ACEM-pdb3mr1-A-ASN-41:NMA-pdb3mr1-A-LYS-65
     RDKit          3D

 21 19  0  0  0  0  0  0  0  0999 V2000
   -5.9817    0.6590   -1.3915 C   0  0  0  0  0  0  0  0  0  0  0  0
   -5.6627    0.9137   -2.2993 H   0  0  0  0  0  0  0  0  0  0  0  0
   -6.5429    1.3856   -1.0059 H   0  0  0  0  0  0  0  0  0  0  0  0
   -6.6057   -0.2291   -1.4919 H   0  0  0  0  0  0  0  0  0  0  0  0
   -4.7869    0.4316   -0.4963 C   0  0  0  0  0  0  0  0  0  0  0  0
   -3.7591   -0.2266   -1.0239 N   0  0  0  0  0  0  0  0  0  0  0  0
   -3.8070   -0.5370   -1.9753 H   0  0  0  0  0  0  0  0  0  0  0  0
   -2.9457   -0.4106   -0.4772 H   0  0  0  0  0  0  0  0  0  0  0  0
   -4.7784    0.8533    0.6590 O   0  0  0  0  0  0  0  0  0  0  0  0
   -1.1069   -2.1969    0.1547 C   0  0  0  0  0  0  0  0  0  0  0  0
   -0.2271   -2.4599    0.5723 H   0  0  0  0  0  0  0  0  0  0  0  0
   -1.1857   -2.7195   -0.7986 H   0  0  0  0  0  0  0  0  0  0  0  0
   -1.9286   -2.5148    0.7965 H   0  0  0  0  0  0  0  0  0  0  0  0
   -1.1153   -0.7295    0.0000 N   0  0  0  0  0  0  0  0  0  0  0  0
   -1.9928   -0.1814   -0.1183 H   0  0  0  0  0  0  0  0  0  0  0  0
    0.0000    0.0000    0.0000 C   0  0  0  0  0  0  0  0  0  0  0  0
    1.1153   -0.5093   -0.0000 O   0  0  0  0  0  0  0  0  0  0  0  0
   -0.1506    1.5483    0.0328 C   0  0  0  0  0  0  0  0  0  0  0  0
   -0.6863    1.7926    0.8584 H   0  0  0  0  0  0  0  0  0  0  0  0
    0.7991    2.0826    0.0606 H   0  0  0  0  0  0  0  0  0  0  0  0
   -0.7553    1.9182   -0.7952 H   0  0  0  0  0  0  0  0  0  0  0  0
  1  5  1  0
  5  6  1  0
  5  9  2  0
  1  2  1  0
  1  3  1  0
  1  4  1  0
  6  7  1  0
  6  8  1  0
 10 14  1  0
 14 16  1  0
 16 17  2  0
 16 18  1  0
 10 11  1  0
 10 12  1  0
 10 13  1  0
 14 15  1  0
 18 19  1  0
 18 20  1  0
 18 21  1  0
M  END
>  <PDB_ID>  (547) 
pdb3mr1

>  <RESIDUE_NAME>  (547) 
ASN   LYS

>  <FRAG_NAME>  (547) 
ACEM   NMA

>  <FRAG_ATOM_NUM>  (547) 
fragi: 9  fragj: 12

>  <atom.prop.CHAIN_ID>  (547) 
A A A A A A A A A Z Z Z Z Z Z Z Z Z Z Z Z

>  <atom.prop.IS_HEAVY_ATOM>  (547) 
1 0 0 0 1 1 0 0 1 1 0 0 0 1 0 1 1 1 0 0 0

>  <DIFUSE_FUNC_ATOM>  (547) 
n/a

>  <FINAL_SINGLE_POINT_ENERGY>  (547) 
0

>  <NONCOV_INTER_ENERGY_QM>  (547) 
0

>  <FF_Energy>  (547) 
5.36

>  <QM_Energy>  (547) 
20.96

>  <source>  (547) 
ACEM_nNMA_38

>  <Index>  (547) 
5992

$$$$
ACEM-pdb3mr1-D-ASN-41:NMA-pdb3mr1-D-LYS-65
     RDKit          3D

 21 19  0  0  0  0  0  0  0  0999 V2000
   -5.9718    0.8379   -1.4054 C   0  0  0  0  0  0  0  0  0  0  0  0
   -5.6277    1.0659   -2.3085 H   0  0  0  0  0  0  0  0  0  0  0  0
   -6.5292    1.5761   -1.0452 H   0  0  0  0  0  0  0  0  0  0  0  0
   -6.5989   -0.0492   -1.4941 H   0  0  0  0  0  0  0  0  0  0  0  0
   -4.7867    0.6201   -0.4724 C   0  0  0  0  0  0  0  0  0  0  0  0
   -3.7527   -0.1072   -0.9407 N   0  0  0  0  0  0  0  0  0  0  0  0
   -3.8112   -0.4620   -1.8770 H   0  0  0  0  0  0  0  0  0  0  0  0
   -2.9661   -0.2795   -0.3728 H   0  0  0  0  0  0  0  0  0  0  0  0
   -4.7885    1.1299    0.6382 O   0  0  0  0  0  0  0  0  0  0  0  0
   -1.0782   -2.2097    0.0413 C   0  0  0  0  0  0  0  0  0  0  0  0
   -0.1933   -2.4836    0.4741 H   0  0  0  0  0  0  0  0  0  0  0  0
   -1.1397   -2.7030   -0.9287 H   0  0  0  0  0  0  0  0  0  0  0  0
   -1.9030   -2.5633    0.6599 H   0  0  0  0  0  0  0  0  0  0  0  0
   -1.1131   -0.7392   -0.0000 N   0  0  0  0  0  0  0  0  0  0  0  0
   -1.9963   -0.1939   -0.0315 H   0  0  0  0  0  0  0  0  0  0  0  0
    0.0000    0.0000    0.0000 C   0  0  0  0  0  0  0  0  0  0  0  0
    1.1131   -0.4943    0.0000 O   0  0  0  0  0  0  0  0  0  0  0  0
   -0.1630    1.5430    0.0435 C   0  0  0  0  0  0  0  0  0  0  0  0
   -0.6775    1.7829    0.8760 H   0  0  0  0  0  0  0  0  0  0  0  0
    0.7956    2.0613    0.0654 H   0  0  0  0  0  0  0  0  0  0  0  0
   -0.7772    1.9196   -0.7743 H   0  0  0  0  0  0  0  0  0  0  0  0
  1  5  1  0
  5  6  1  0
  5  9  2  0
  1  2  1  0
  1  3  1  0
  1  4  1  0
  6  7  1  0
  6  8  1  0
 10 14  1  0
 14 16  1  0
 16 17  2  0
 16 18  1  0
 10 11  1  0
 10 12  1  0
 10 13  1  0
 14 15  1  0
 18 19  1  0
 18 20  1  0
 18 21  1  0
M  END
>  <PDB_ID>  (548) 
pdb3mr1

>  <RESIDUE_NAME>  (548) 
ASN   LYS

>  <FRAG_NAME>  (548) 
ACEM   NMA

>  <FRAG_ATOM_NUM>  (548) 
fragi: 9  fragj: 12

>  <atom.prop.CHAIN_ID>  (548) 
A A A A A A A A A Z Z Z Z Z Z Z Z Z Z Z Z

>  <atom.prop.IS_HEAVY_ATOM>  (548) 
1 0 0 0 1 1 0 0 1 1 0 0 0 1 0 1 1 1 0 0 0

>  <DIFUSE_FUNC_ATOM>  (548) 
n/a

>  <FINAL_SINGLE_POINT_ENERGY>  (548) 
0

>  <NONCOV_INTER_ENERGY_QM>  (548) 
0

>  <FF_Energy>  (548) 
5.99

>  <QM_Energy>  (548) 
22.1

>  <source>  (548) 
ACEM_nNMA_38

>  <Index>  (548) 
12099

$$$$
ACEM-pdb3myf-A-GLN-818:NMA-pdb3myf-A-CYS-870
     RDKit          3D

 21 19  0  0  0  0  0  0  0  0999 V2000
   -5.6292   -0.1253   -2.1464 C   0  0  0  0  0  0  0  0  0  0  0  0
   -6.4477    0.2613   -1.7115 H   0  0  0  0  0  0  0  0  0  0  0  0
   -5.8934   -0.9492   -2.6564 H   0  0  0  0  0  0  0  0  0  0  0  0
   -5.2426    0.6060   -2.8562 H   0  0  0  0  0  0  0  0  0  0  0  0
   -4.6444   -0.5249   -1.0551 C   0  0  0  0  0  0  0  0  0  0  0  0
   -3.4136   -0.0216   -1.1619 N   0  0  0  0  0  0  0  0  0  0  0  0
   -2.7078   -0.2323   -0.4638 H   0  0  0  0  0  0  0  0  0  0  0  0
   -3.1970    0.5769   -1.9544 H   0  0  0  0  0  0  0  0  0  0  0  0
   -4.9764   -1.2719   -0.1303 O   0  0  0  0  0  0  0  0  0  0  0  0
   -1.1345   -2.1857   -0.0824 C   0  0  0  0  0  0  0  0  0  0  0  0
   -2.0967   -2.5093   -0.0362 H   0  0  0  0  0  0  0  0  0  0  0  0
   -0.7722   -2.4677   -0.9893 H   0  0  0  0  0  0  0  0  0  0  0  0
   -0.5529   -2.6656    0.7047 H   0  0  0  0  0  0  0  0  0  0  0  0
   -1.1214   -0.7216    0.0000 N   0  0  0  0  0  0  0  0  0  0  0  0
   -1.9971   -0.1511    0.0640 H   0  0  0  0  0  0  0  0  0  0  0  0
    0.0000    0.0000    0.0000 C   0  0  0  0  0  0  0  0  0  0  0  0
    1.1214   -0.4937   -0.0000 O   0  0  0  0  0  0  0  0  0  0  0  0
   -0.1563    1.5129    0.0096 C   0  0  0  0  0  0  0  0  0  0  0  0
    0.0789    1.8618   -0.9257 H   0  0  0  0  0  0  0  0  0  0  0  0
   -1.1504    1.8850    0.2572 H   0  0  0  0  0  0  0  0  0  0  0  0
    0.5876    1.9507    0.6752 H   0  0  0  0  0  0  0  0  0  0  0  0
  1  5  1  0
  5  6  1  0
  5  9  2  0
  1  2  1  0
  1  3  1  0
  1  4  1  0
  6  7  1  0
  6  8  1  0
 10 14  1  0
 14 16  1  0
 16 17  2  0
 16 18  1  0
 10 11  1  0
 10 12  1  0
 10 13  1  0
 14 15  1  0
 18 19  1  0
 18 20  1  0
 18 21  1  0
M  END
>  <PDB_ID>  (549) 
pdb3myf

>  <RESIDUE_NAME>  (549) 
GLN   CYS

>  <FRAG_NAME>  (549) 
ACEM   NMA

>  <FRAG_ATOM_NUM>  (549) 
fragi: 9  fragj: 12

>  <atom.prop.CHAIN_ID>  (549) 
A A A A A A A A A Z Z Z Z Z Z Z Z Z Z Z Z

>  <atom.prop.IS_HEAVY_ATOM>  (549) 
1 0 0 0 1 1 0 0 1 1 0 0 0 1 0 1 1 1 0 0 0

>  <DIFUSE_FUNC_ATOM>  (549) 
n/a

>  <FINAL_SINGLE_POINT_ENERGY>  (549) 
0

>  <NONCOV_INTER_ENERGY_QM>  (549) 
0

>  <FF_Energy>  (549) 
17.42

>  <QM_Energy>  (549) 
38.94

>  <source>  (549) 
ACEM_nNMA_38

>  <Index>  (549) 
14037

$$$$
ACEM-pdb3mvk-B-ASN-32:NMA-pdb3mvk-E-VAL-143
     RDKit          3D

 21 19  0  0  0  0  0  0  0  0999 V2000
   -5.0777    2.2947   -0.5277 C   0  0  0  0  0  0  0  0  0  0  0  0
   -5.6195    2.6610   -1.2751 H   0  0  0  0  0  0  0  0  0  0  0  0
   -4.4375    2.9761   -0.1925 H   0  0  0  0  0  0  0  0  0  0  0  0
   -5.7524    2.0297    0.2864 H   0  0  0  0  0  0  0  0  0  0  0  0
   -4.3164    1.1009   -1.0114 C   0  0  0  0  0  0  0  0  0  0  0  0
   -3.5094    0.5494   -0.1334 N   0  0  0  0  0  0  0  0  0  0  0  0
   -3.4246    0.9090    0.7957 H   0  0  0  0  0  0  0  0  0  0  0  0
   -2.9588   -0.2582   -0.3916 H   0  0  0  0  0  0  0  0  0  0  0  0
   -4.4706    0.6544   -2.1412 O   0  0  0  0  0  0  0  0  0  0  0  0
   -1.0938   -2.1132   -0.4245 C   0  0  0  0  0  0  0  0  0  0  0  0
   -0.1664   -2.4528   -0.3490 H   0  0  0  0  0  0  0  0  0  0  0  0
   -1.3672   -2.1265   -1.4796 H   0  0  0  0  0  0  0  0  0  0  0  0
   -1.7923   -2.7227    0.1488 H   0  0  0  0  0  0  0  0  0  0  0  0
   -1.1183   -0.7217    0.0000 N   0  0  0  0  0  0  0  0  0  0  0  0
   -1.9640   -0.2261    0.3140 H   0  0  0  0  0  0  0  0  0  0  0  0
    0.0000    0.0000    0.0000 C   0  0  0  0  0  0  0  0  0  0  0  0
    1.1183   -0.5031   -0.0000 O   0  0  0  0  0  0  0  0  0  0  0  0
   -0.1638    1.5119    0.0157 C   0  0  0  0  0  0  0  0  0  0  0  0
   -1.0422    1.7228    0.4523 H   0  0  0  0  0  0  0  0  0  0  0  0
    0.6319    1.9632    0.6083 H   0  0  0  0  0  0  0  0  0  0  0  0
   -0.0690    1.8849   -1.0040 H   0  0  0  0  0  0  0  0  0  0  0  0
  1  5  1  0
  5  6  1  0
  5  9  2  0
  1  2  1  0
  1  3  1  0
  1  4  1  0
  6  7  1  0
  6  8  1  0
 10 14  1  0
 14 16  1  0
 16 17  2  0
 16 18  1  0
 10 11  1  0
 10 12  1  0
 10 13  1  0
 14 15  1  0
 18 19  1  0
 18 20  1  0
 18 21  1  0
M  END
>  <PDB_ID>  (550) 
pdb3mvk

>  <RESIDUE_NAME>  (550) 
ASN   VAL

>  <FRAG_NAME>  (550) 
ACEM   NMA

>  <FRAG_ATOM_NUM>  (550) 
fragi: 9  fragj: 12

>  <atom.prop.CHAIN_ID>  (550) 
A A A A A A A A A Z Z Z Z Z Z Z Z Z Z Z Z

>  <atom.prop.IS_HEAVY_ATOM>  (550) 
1 0 0 0 1 1 0 0 1 1 0 0 0 1 0 1 1 1 0 0 0

>  <DIFUSE_FUNC_ATOM>  (550) 
n/a

>  <FINAL_SINGLE_POINT_ENERGY>  (550) 
0

>  <NONCOV_INTER_ENERGY_QM>  (550) 
0

>  <FF_Energy>  (550) 
8.67

>  <QM_Energy>  (550) 
19.48

>  <source>  (550) 
ACEM_nNMA_38

>  <Index>  (550) 
15201

$$$$
ACEM-pdb3myf-D-GLN-818:NMA-pdb3myf-D-CYS-870
     RDKit          3D

 21 19  0  0  0  0  0  0  0  0999 V2000
   -5.6162   -0.0585   -2.0781 C   0  0  0  0  0  0  0  0  0  0  0  0
   -6.4777    0.1137   -1.6094 H   0  0  0  0  0  0  0  0  0  0  0  0
   -5.6785   -0.8968   -2.6126 H   0  0  0  0  0  0  0  0  0  0  0  0
   -5.4364    0.7671   -2.7667 H   0  0  0  0  0  0  0  0  0  0  0  0
   -4.5063   -0.2332   -1.0158 C   0  0  0  0  0  0  0  0  0  0  0  0
   -3.2646    0.1090   -1.3738 N   0  0  0  0  0  0  0  0  0  0  0  0
   -2.5059    0.0316   -0.7254 H   0  0  0  0  0  0  0  0  0  0  0  0
   -3.1129    0.4486   -2.3229 H   0  0  0  0  0  0  0  0  0  0  0  0
   -4.7700   -0.6650    0.1044 O   0  0  0  0  0  0  0  0  0  0  0  0
   -1.1038   -2.1861   -0.0675 C   0  0  0  0  0  0  0  0  0  0  0  0
   -2.0438   -2.5356    0.0501 H   0  0  0  0  0  0  0  0  0  0  0  0
   -0.7810   -2.4697   -0.9820 H   0  0  0  0  0  0  0  0  0  0  0  0
   -0.4586   -2.6231    0.6947 H   0  0  0  0  0  0  0  0  0  0  0  0
   -1.1254   -0.7159   -0.0000 N   0  0  0  0  0  0  0  0  0  0  0  0
   -1.9982   -0.1621    0.0502 H   0  0  0  0  0  0  0  0  0  0  0  0
    0.0000    0.0000    0.0000 C   0  0  0  0  0  0  0  0  0  0  0  0
    1.1254   -0.5148   -0.0000 O   0  0  0  0  0  0  0  0  0  0  0  0
   -0.1411    1.5296   -0.0097 C   0  0  0  0  0  0  0  0  0  0  0  0
    0.0779    1.8550   -0.9535 H   0  0  0  0  0  0  0  0  0  0  0  0
   -1.1296    1.9062    0.2532 H   0  0  0  0  0  0  0  0  0  0  0  0
    0.6185    1.9745    0.6331 H   0  0  0  0  0  0  0  0  0  0  0  0
  1  5  1  0
  5  6  1  0
  5  9  2  0
  1  2  1  0
  1  3  1  0
  1  4  1  0
  6  7  1  0
  6  8  1  0
 10 14  1  0
 14 16  1  0
 16 17  2  0
 16 18  1  0
 10 11  1  0
 10 12  1  0
 10 13  1  0
 14 15  1  0
 18 19  1  0
 18 20  1  0
 18 21  1  0
M  END
>  <PDB_ID>  (551) 
pdb3myf

>  <RESIDUE_NAME>  (551) 
GLN   CYS

>  <FRAG_NAME>  (551) 
ACEM   NMA

>  <FRAG_ATOM_NUM>  (551) 
fragi: 9  fragj: 12

>  <atom.prop.CHAIN_ID>  (551) 
A A A A A A A A A Z Z Z Z Z Z Z Z Z Z Z Z

>  <atom.prop.IS_HEAVY_ATOM>  (551) 
1 0 0 0 1 1 0 0 1 1 0 0 0 1 0 1 1 1 0 0 0

>  <DIFUSE_FUNC_ATOM>  (551) 
n/a

>  <FINAL_SINGLE_POINT_ENERGY>  (551) 
0

>  <NONCOV_INTER_ENERGY_QM>  (551) 
0

>  <FF_Energy>  (551) 
14.5

>  <QM_Energy>  (551) 
31.95

>  <source>  (551) 
ACEM_nNMA_38

>  <Index>  (551) 
16088

$$$$
ACEM-pdb4k30-Y-ASN-396:NMA-pdb4k30-Y-LYS-402
     RDKit          3D

 21 19  0  0  0  0  0  0  0  0999 V2000
   -4.1870    2.6532    1.0219 C   0  0  0  0  0  0  0  0  0  0  0  0
   -5.0741    2.8224    0.6027 H   0  0  0  0  0  0  0  0  0  0  0  0
   -3.5695    3.4129    0.8385 H   0  0  0  0  0  0  0  0  0  0  0  0
   -4.3248    2.5756    2.1004 H   0  0  0  0  0  0  0  0  0  0  0  0
   -3.5989    1.3944    0.4200 C   0  0  0  0  0  0  0  0  0  0  0  0
   -3.0335    0.5342    1.2651 N   0  0  0  0  0  0  0  0  0  0  0  0
   -3.0233    0.7404    2.2453 H   0  0  0  0  0  0  0  0  0  0  0  0
   -2.6256   -0.3089    0.9254 H   0  0  0  0  0  0  0  0  0  0  0  0
   -3.6602    1.1918   -0.7930 O   0  0  0  0  0  0  0  0  0  0  0  0
   -1.1229   -2.1748   -0.0417 C   0  0  0  0  0  0  0  0  0  0  0  0
   -0.6308   -2.5168    0.7684 H   0  0  0  0  0  0  0  0  0  0  0  0
   -0.6184   -2.5447   -0.9344 H   0  0  0  0  0  0  0  0  0  0  0  0
   -2.1429   -2.5588   -0.0252 H   0  0  0  0  0  0  0  0  0  0  0  0
   -1.1239   -0.7138    0.0000 N   0  0  0  0  0  0  0  0  0  0  0  0
   -1.9969   -0.1457    0.0323 H   0  0  0  0  0  0  0  0  0  0  0  0
    0.0000    0.0000    0.0000 C   0  0  0  0  0  0  0  0  0  0  0  0
    1.1239   -0.5085    0.0000 O   0  0  0  0  0  0  0  0  0  0  0  0
   -0.1708    1.5186   -0.0051 C   0  0  0  0  0  0  0  0  0  0  0  0
   -1.1421    1.7330    0.1670 H   0  0  0  0  0  0  0  0  0  0  0  0
    0.4367    1.9929    0.7657 H   0  0  0  0  0  0  0  0  0  0  0  0
    0.0657    1.9200   -0.9905 H   0  0  0  0  0  0  0  0  0  0  0  0
  1  5  1  0
  5  6  1  0
  5  9  2  0
  1  2  1  0
  1  3  1  0
  1  4  1  0
  6  7  1  0
  6  8  1  0
 10 14  1  0
 14 16  1  0
 16 17  2  0
 16 18  1  0
 10 11  1  0
 10 12  1  0
 10 13  1  0
 14 15  1  0
 18 19  1  0
 18 20  1  0
 18 21  1  0
M  END
>  <PDB_ID>  (552) 
pdb4k30

>  <RESIDUE_NAME>  (552) 
ASN   LYS

>  <FRAG_NAME>  (552) 
ACEM   NMA

>  <FRAG_ATOM_NUM>  (552) 
fragi: 9  fragj: 12

>  <atom.prop.CHAIN_ID>  (552) 
A A A A A A A A A Z Z Z Z Z Z Z Z Z Z Z Z

>  <atom.prop.IS_HEAVY_ATOM>  (552) 
1 0 0 0 1 1 0 0 1 1 0 0 0 1 0 1 1 1 0 0 0

>  <DIFUSE_FUNC_ATOM>  (552) 
n/a

>  <FINAL_SINGLE_POINT_ENERGY>  (552) 
0

>  <NONCOV_INTER_ENERGY_QM>  (552) 
0

>  <FF_Energy>  (552) 
10.51

>  <QM_Energy>  (552) 
24.83

>  <source>  (552) 
ACEM_nNMA_38

>  <Index>  (552) 
16826

$$$$
ACEM-pdb3n1b-A-ASN-942:NMA-pdb3n1b-A-ASP-937
     RDKit          3D

 21 19  0  0  0  0  0  0  0  0999 V2000
   -4.3875   -0.2621    2.3610 C   0  0  0  0  0  0  0  0  0  0  0  0
   -3.8552    0.4846    2.7510 H   0  0  0  0  0  0  0  0  0  0  0  0
   -3.8471   -1.0995    2.3497 H   0  0  0  0  0  0  0  0  0  0  0  0
   -5.2625   -0.4263    2.9899 H   0  0  0  0  0  0  0  0  0  0  0  0
   -4.7536    0.0982    0.9344 C   0  0  0  0  0  0  0  0  0  0  0  0
   -3.8643   -0.2107   -0.0009 N   0  0  0  0  0  0  0  0  0  0  0  0
   -3.0083   -0.6636    0.2541 H   0  0  0  0  0  0  0  0  0  0  0  0
   -4.0466    0.0062   -0.9595 H   0  0  0  0  0  0  0  0  0  0  0  0
   -5.8219    0.6514    0.6764 O   0  0  0  0  0  0  0  0  0  0  0  0
   -1.1005   -2.1679   -0.0240 C   0  0  0  0  0  0  0  0  0  0  0  0
   -1.9685   -2.5093   -0.4328 H   0  0  0  0  0  0  0  0  0  0  0  0
   -0.3491   -2.4846   -0.6338 H   0  0  0  0  0  0  0  0  0  0  0  0
   -0.9710   -2.6139    0.9621 H   0  0  0  0  0  0  0  0  0  0  0  0
   -1.1201   -0.7169   -0.0000 N   0  0  0  0  0  0  0  0  0  0  0  0
   -1.9954   -0.1532    0.0187 H   0  0  0  0  0  0  0  0  0  0  0  0
    0.0000    0.0000    0.0000 C   0  0  0  0  0  0  0  0  0  0  0  0
    1.1201   -0.5109    0.0000 O   0  0  0  0  0  0  0  0  0  0  0  0
   -0.1644    1.5194    0.0061 C   0  0  0  0  0  0  0  0  0  0  0  0
    0.2157    1.8601   -0.8706 H   0  0  0  0  0  0  0  0  0  0  0  0
   -1.2067    1.8354    0.0490 H   0  0  0  0  0  0  0  0  0  0  0  0
    0.3993    1.9537    0.8317 H   0  0  0  0  0  0  0  0  0  0  0  0
  1  5  1  0
  5  6  1  0
  5  9  2  0
  1  2  1  0
  1  3  1  0
  1  4  1  0
  6  7  1  0
  6  8  1  0
 10 14  1  0
 14 16  1  0
 16 17  2  0
 16 18  1  0
 10 11  1  0
 10 12  1  0
 10 13  1  0
 14 15  1  0
 18 19  1  0
 18 20  1  0
 18 21  1  0
M  END
>  <PDB_ID>  (553) 
pdb3n1b

>  <RESIDUE_NAME>  (553) 
ASN   ASP

>  <FRAG_NAME>  (553) 
ACEM   NMA

>  <FRAG_ATOM_NUM>  (553) 
fragi: 9  fragj: 12

>  <atom.prop.CHAIN_ID>  (553) 
A A A A A A A A A Z Z Z Z Z Z Z Z Z Z Z Z

>  <atom.prop.IS_HEAVY_ATOM>  (553) 
1 0 0 0 1 1 0 0 1 1 0 0 0 1 0 1 1 1 0 0 0

>  <DIFUSE_FUNC_ATOM>  (553) 
n/a

>  <FINAL_SINGLE_POINT_ENERGY>  (553) 
0

>  <NONCOV_INTER_ENERGY_QM>  (553) 
0

>  <FF_Energy>  (553) 
5.54

>  <QM_Energy>  (553) 
17.0

>  <source>  (553) 
ACEM_nNMA_38

>  <Index>  (553) 
16910

$$$$
ACEM-pdb3my7-B-ASN-398:NMA-pdb3my7-B-TYR-373
     RDKit          3D

 21 19  0  0  0  0  0  0  0  0999 V2000
   -5.1892    2.6497   -0.6600 C   0  0  0  0  0  0  0  0  0  0  0  0
   -6.0637    2.7004   -0.1903 H   0  0  0  0  0  0  0  0  0  0  0  0
   -5.3102    2.7849   -1.6378 H   0  0  0  0  0  0  0  0  0  0  0  0
   -4.5540    3.4513   -0.2830 H   0  0  0  0  0  0  0  0  0  0  0  0
   -4.5862    1.2811   -0.4252 C   0  0  0  0  0  0  0  0  0  0  0  0
   -3.2546    1.2174   -0.3711 N   0  0  0  0  0  0  0  0  0  0  0  0
   -2.7158    2.0538   -0.4778 H   0  0  0  0  0  0  0  0  0  0  0  0
   -2.8011    0.3425   -0.2236 H   0  0  0  0  0  0  0  0  0  0  0  0
   -5.3078    0.2829   -0.3146 O   0  0  0  0  0  0  0  0  0  0  0  0
   -1.2567   -2.1797   -0.0200 C   0  0  0  0  0  0  0  0  0  0  0  0
   -0.4609   -2.5471   -0.5105 H   0  0  0  0  0  0  0  0  0  0  0  0
   -2.1664   -2.4751   -0.5427 H   0  0  0  0  0  0  0  0  0  0  0  0
   -1.4392   -2.6249    0.9580 H   0  0  0  0  0  0  0  0  0  0  0  0
   -1.1389   -0.7141    0.0000 N   0  0  0  0  0  0  0  0  0  0  0  0
   -2.0069   -0.0889    0.0166 H   0  0  0  0  0  0  0  0  0  0  0  0
    0.0000    0.0000    0.0000 C   0  0  0  0  0  0  0  0  0  0  0  0
    1.1389   -0.4846    0.0000 O   0  0  0  0  0  0  0  0  0  0  0  0
   -0.1930    1.5195    0.0820 C   0  0  0  0  0  0  0  0  0  0  0  0
   -1.1745    1.7074    0.0771 H   0  0  0  0  0  0  0  0  0  0  0  0
    0.2237    1.8879    1.0193 H   0  0  0  0  0  0  0  0  0  0  0  0
    0.2108    2.0551   -0.7772 H   0  0  0  0  0  0  0  0  0  0  0  0
  1  5  1  0
  5  6  1  0
  5  9  2  0
  1  2  1  0
  1  3  1  0
  1  4  1  0
  6  7  1  0
  6  8  1  0
 10 14  1  0
 14 16  1  0
 16 17  2  0
 16 18  1  0
 10 11  1  0
 10 12  1  0
 10 13  1  0
 14 15  1  0
 18 19  1  0
 18 20  1  0
 18 21  1  0
M  END
>  <PDB_ID>  (554) 
pdb3my7

>  <RESIDUE_NAME>  (554) 
ASN   TYR

>  <FRAG_NAME>  (554) 
ACEM   NMA

>  <FRAG_ATOM_NUM>  (554) 
fragi: 9  fragj: 12

>  <atom.prop.CHAIN_ID>  (554) 
A A A A A A A A A Z Z Z Z Z Z Z Z Z Z Z Z

>  <atom.prop.IS_HEAVY_ATOM>  (554) 
1 0 0 0 1 1 0 0 1 1 0 0 0 1 0 1 1 1 0 0 0

>  <DIFUSE_FUNC_ATOM>  (554) 
n/a

>  <FINAL_SINGLE_POINT_ENERGY>  (554) 
0

>  <NONCOV_INTER_ENERGY_QM>  (554) 
0

>  <FF_Energy>  (554) 
19.02

>  <QM_Energy>  (554) 
34.25

>  <source>  (554) 
ACEM_nNMA_38

>  <Index>  (554) 
19123

$$$$
ACEM-pdb3n2a-A-GLN-303:NMA-pdb3n2a-A-PRO-299
     RDKit          3D

 21 19  0  0  0  0  0  0  0  0999 V2000
   -4.8613    1.3579    0.8355 C   0  0  0  0  0  0  0  0  0  0  0  0
   -5.8572    1.3735    0.6873 H   0  0  0  0  0  0  0  0  0  0  0  0
   -4.6270    2.0826    1.4944 H   0  0  0  0  0  0  0  0  0  0  0  0
   -4.6018    0.3986    1.2833 H   0  0  0  0  0  0  0  0  0  0  0  0
   -4.1687    1.6087   -0.4422 C   0  0  0  0  0  0  0  0  0  0  0  0
   -3.2351    0.7227   -0.7817 N   0  0  0  0  0  0  0  0  0  0  0  0
   -2.7119    0.8133   -1.6640 H   0  0  0  0  0  0  0  0  0  0  0  0
   -3.0387   -0.0538   -0.1549 H   0  0  0  0  0  0  0  0  0  0  0  0
   -4.4317    2.5810   -1.1305 O   0  0  0  0  0  0  0  0  0  0  0  0
   -1.0890   -2.1386   -0.0610 C   0  0  0  0  0  0  0  0  0  0  0  0
   -1.9696   -2.4774   -0.4595 H   0  0  0  0  0  0  0  0  0  0  0  0
   -0.3585   -2.4354   -0.7148 H   0  0  0  0  0  0  0  0  0  0  0  0
   -0.9242   -2.6255    0.9001 H   0  0  0  0  0  0  0  0  0  0  0  0
   -1.1167   -0.6976   -0.0000 N   0  0  0  0  0  0  0  0  0  0  0  0
   -1.9879   -0.1366    0.0458 H   0  0  0  0  0  0  0  0  0  0  0  0
    0.0000    0.0000    0.0000 C   0  0  0  0  0  0  0  0  0  0  0  0
    1.1167   -0.5229   -0.0000 O   0  0  0  0  0  0  0  0  0  0  0  0
   -0.1611    1.5073   -0.0080 C   0  0  0  0  0  0  0  0  0  0  0  0
   -1.1149    1.7663    0.2002 H   0  0  0  0  0  0  0  0  0  0  0  0
    0.5312    1.9818    0.6874 H   0  0  0  0  0  0  0  0  0  0  0  0
    0.1274    1.9056   -0.9807 H   0  0  0  0  0  0  0  0  0  0  0  0
  1  5  1  0
  5  6  1  0
  5  9  2  0
  1  2  1  0
  1  3  1  0
  1  4  1  0
  6  7  1  0
  6  8  1  0
 10 14  1  0
 14 16  1  0
 16 17  2  0
 16 18  1  0
 10 11  1  0
 10 12  1  0
 10 13  1  0
 14 15  1  0
 18 19  1  0
 18 20  1  0
 18 21  1  0
M  END
>  <PDB_ID>  (555) 
pdb3n2a

>  <RESIDUE_NAME>  (555) 
GLN   PRO

>  <FRAG_NAME>  (555) 
ACEM   NMA

>  <FRAG_ATOM_NUM>  (555) 
fragi: 9  fragj: 12

>  <atom.prop.CHAIN_ID>  (555) 
A A A A A A A A A Z Z Z Z Z Z Z Z Z Z Z Z

>  <atom.prop.IS_HEAVY_ATOM>  (555) 
1 0 0 0 1 1 0 0 1 1 0 0 0 1 0 1 1 1 0 0 0

>  <DIFUSE_FUNC_ATOM>  (555) 
n/a

>  <FINAL_SINGLE_POINT_ENERGY>  (555) 
0

>  <NONCOV_INTER_ENERGY_QM>  (555) 
0

>  <FF_Energy>  (555) 
11.82

>  <QM_Energy>  (555) 
24.83

>  <source>  (555) 
ACEM_nNMA_38

>  <Index>  (555) 
19729

$$$$
ACEM-pdb3n58-A-GLN-204:NMA-pdb3n58-A-GLU-416
     RDKit          3D

 21 19  0  0  0  0  0  0  0  0999 V2000
   -3.9184    2.5936    2.5326 C   0  0  0  0  0  0  0  0  0  0  0  0
   -4.8460    2.9535    2.5502 H   0  0  0  0  0  0  0  0  0  0  0  0
   -3.2620    3.3386    2.4514 H   0  0  0  0  0  0  0  0  0  0  0  0
   -3.7291    2.0528    3.4599 H   0  0  0  0  0  0  0  0  0  0  0  0
   -3.7772    1.6922    1.3041 C   0  0  0  0  0  0  0  0  0  0  0  0
   -2.7965    0.8013    1.3250 N   0  0  0  0  0  0  0  0  0  0  0  0
   -2.6536    0.1643    0.5518 H   0  0  0  0  0  0  0  0  0  0  0  0
   -2.1810    0.7677    2.1393 H   0  0  0  0  0  0  0  0  0  0  0  0
   -4.5369    1.8091    0.3474 O   0  0  0  0  0  0  0  0  0  0  0  0
   -1.0862   -2.1611   -0.0587 C   0  0  0  0  0  0  0  0  0  0  0  0
   -0.1893   -2.4735    0.2569 H   0  0  0  0  0  0  0  0  0  0  0  0
   -1.2082   -2.4728   -1.0961 H   0  0  0  0  0  0  0  0  0  0  0  0
   -1.8907   -2.6009    0.5308 H   0  0  0  0  0  0  0  0  0  0  0  0
   -1.1144   -0.7141   -0.0000 N   0  0  0  0  0  0  0  0  0  0  0  0
   -1.9908   -0.1564    0.0448 H   0  0  0  0  0  0  0  0  0  0  0  0
    0.0000    0.0000    0.0000 C   0  0  0  0  0  0  0  0  0  0  0  0
    1.1144   -0.5070    0.0000 O   0  0  0  0  0  0  0  0  0  0  0  0
   -0.1657    1.5082    0.0095 C   0  0  0  0  0  0  0  0  0  0  0  0
   -0.7623    1.7759    0.7737 H   0  0  0  0  0  0  0  0  0  0  0  0
    0.8049    1.9938    0.1109 H   0  0  0  0  0  0  0  0  0  0  0  0
   -0.6440    1.8216   -0.9184 H   0  0  0  0  0  0  0  0  0  0  0  0
  1  5  1  0
  5  6  1  0
  5  9  2  0
  1  2  1  0
  1  3  1  0
  1  4  1  0
  6  7  1  0
  6  8  1  0
 10 14  1  0
 14 16  1  0
 16 17  2  0
 16 18  1  0
 10 11  1  0
 10 12  1  0
 10 13  1  0
 14 15  1  0
 18 19  1  0
 18 20  1  0
 18 21  1  0
M  END
>  <PDB_ID>  (556) 
pdb3n58

>  <RESIDUE_NAME>  (556) 
GLN   GLU

>  <FRAG_NAME>  (556) 
ACEM   NMA

>  <FRAG_ATOM_NUM>  (556) 
fragi: 9  fragj: 12

>  <atom.prop.CHAIN_ID>  (556) 
A A A A A A A A A Z Z Z Z Z Z Z Z Z Z Z Z

>  <atom.prop.IS_HEAVY_ATOM>  (556) 
1 0 0 0 1 1 0 0 1 1 0 0 0 1 0 1 1 1 0 0 0

>  <DIFUSE_FUNC_ATOM>  (556) 
n/a

>  <FINAL_SINGLE_POINT_ENERGY>  (556) 
0

>  <NONCOV_INTER_ENERGY_QM>  (556) 
0

>  <FF_Energy>  (556) 
21.72

>  <QM_Energy>  (556) 
41.96

>  <source>  (556) 
ACEM_nNMA_38

>  <Index>  (556) 
25898

$$$$
ACEM-pdb3n6q-B-ASN-40:NMA-pdb3n6q-B-PHE-36
     RDKit          3D

 21 19  0  0  0  0  0  0  0  0999 V2000
   -3.3807    0.6957   -3.2066 C   0  0  0  0  0  0  0  0  0  0  0  0
   -2.4465    0.4799   -2.9547 H   0  0  0  0  0  0  0  0  0  0  0  0
   -3.4430    1.6096   -3.5870 H   0  0  0  0  0  0  0  0  0  0  0  0
   -3.7109   -0.0174   -3.9621 H   0  0  0  0  0  0  0  0  0  0  0  0
   -4.2467    0.6439   -1.9338 C   0  0  0  0  0  0  0  0  0  0  0  0
   -3.6711    0.1187   -0.8460 N   0  0  0  0  0  0  0  0  0  0  0  0
   -2.7258   -0.2045   -0.8979 H   0  0  0  0  0  0  0  0  0  0  0  0
   -4.1819    0.0531    0.0056 H   0  0  0  0  0  0  0  0  0  0  0  0
   -5.3847    1.1526   -1.9022 O   0  0  0  0  0  0  0  0  0  0  0  0
   -1.0985   -2.1781    0.0087 C   0  0  0  0  0  0  0  0  0  0  0  0
   -0.2977   -2.4951    0.5333 H   0  0  0  0  0  0  0  0  0  0  0  0
   -1.9288   -2.5134    0.4720 H   0  0  0  0  0  0  0  0  0  0  0  0
   -1.0563   -2.5793   -1.0038 H   0  0  0  0  0  0  0  0  0  0  0  0
   -1.1144   -0.7105    0.0000 N   0  0  0  0  0  0  0  0  0  0  0  0
   -1.9929   -0.1543   -0.0071 H   0  0  0  0  0  0  0  0  0  0  0  0
    0.0000    0.0000    0.0000 C   0  0  0  0  0  0  0  0  0  0  0  0
    1.1144   -0.4913    0.0000 O   0  0  0  0  0  0  0  0  0  0  0  0
   -0.1583    1.5059    0.0010 C   0  0  0  0  0  0  0  0  0  0  0  0
   -0.0833    1.8139   -0.9708 H   0  0  0  0  0  0  0  0  0  0  0  0
   -1.1195    1.8688    0.3650 H   0  0  0  0  0  0  0  0  0  0  0  0
    0.6684    1.9582    0.5488 H   0  0  0  0  0  0  0  0  0  0  0  0
  1  5  1  0
  5  6  1  0
  5  9  2  0
  1  2  1  0
  1  3  1  0
  1  4  1  0
  6  7  1  0
  6  8  1  0
 10 14  1  0
 14 16  1  0
 16 17  2  0
 16 18  1  0
 10 11  1  0
 10 12  1  0
 10 13  1  0
 14 15  1  0
 18 19  1  0
 18 20  1  0
 18 21  1  0
M  END
>  <PDB_ID>  (557) 
pdb3n6q

>  <RESIDUE_NAME>  (557) 
ASN   PHE

>  <FRAG_NAME>  (557) 
ACEM   NMA

>  <FRAG_ATOM_NUM>  (557) 
fragi: 9  fragj: 12

>  <atom.prop.CHAIN_ID>  (557) 
A A A A A A A A A Z Z Z Z Z Z Z Z Z Z Z Z

>  <atom.prop.IS_HEAVY_ATOM>  (557) 
1 0 0 0 1 1 0 0 1 1 0 0 0 1 0 1 1 1 0 0 0

>  <DIFUSE_FUNC_ATOM>  (557) 
n/a

>  <FINAL_SINGLE_POINT_ENERGY>  (557) 
0

>  <NONCOV_INTER_ENERGY_QM>  (557) 
0

>  <FF_Energy>  (557) 
6.15

>  <QM_Energy>  (557) 
16.28

>  <source>  (557) 
ACEM_nNMA_38

>  <Index>  (557) 
26694

$$$$
ACEM-pdb4kmd-A-ASN-102:NMA-pdb4kmd-A-GLU-106
     RDKit          3D

 21 19  0  0  0  0  0  0  0  0999 V2000
   -4.8912    2.0158    1.6215 C   0  0  0  0  0  0  0  0  0  0  0  0
   -5.8354    1.7103    1.6589 H   0  0  0  0  0  0  0  0  0  0  0  0
   -4.8424    2.9726    1.3617 H   0  0  0  0  0  0  0  0  0  0  0  0
   -4.4597    1.9110    2.6171 H   0  0  0  0  0  0  0  0  0  0  0  0
   -4.1511    1.1881    0.5777 C   0  0  0  0  0  0  0  0  0  0  0  0
   -3.4133    0.1856    1.0306 N   0  0  0  0  0  0  0  0  0  0  0  0
   -3.3698    0.0024    2.0161 H   0  0  0  0  0  0  0  0  0  0  0  0
   -2.8997   -0.3908    0.3960 H   0  0  0  0  0  0  0  0  0  0  0  0
   -4.2616    1.4381   -0.6223 O   0  0  0  0  0  0  0  0  0  0  0  0
   -1.1130   -2.1820   -0.0293 C   0  0  0  0  0  0  0  0  0  0  0  0
   -0.4110   -2.4834    0.6245 H   0  0  0  0  0  0  0  0  0  0  0  0
   -0.8092   -2.5508   -1.0091 H   0  0  0  0  0  0  0  0  0  0  0  0
   -2.0920   -2.5738    0.2467 H   0  0  0  0  0  0  0  0  0  0  0  0
   -1.1222   -0.7198    0.0000 N   0  0  0  0  0  0  0  0  0  0  0  0
   -1.9974   -0.1560    0.0227 H   0  0  0  0  0  0  0  0  0  0  0  0
    0.0000    0.0000    0.0000 C   0  0  0  0  0  0  0  0  0  0  0  0
    1.1222   -0.5053    0.0000 O   0  0  0  0  0  0  0  0  0  0  0  0
   -0.1631    1.5185    0.0124 C   0  0  0  0  0  0  0  0  0  0  0  0
   -1.1355    1.7477    0.0726 H   0  0  0  0  0  0  0  0  0  0  0  0
    0.3722    1.9302    0.8679 H   0  0  0  0  0  0  0  0  0  0  0  0
    0.2315    1.9613   -0.9022 H   0  0  0  0  0  0  0  0  0  0  0  0
  1  5  1  0
  5  6  1  0
  5  9  2  0
  1  2  1  0
  1  3  1  0
  1  4  1  0
  6  7  1  0
  6  8  1  0
 10 14  1  0
 14 16  1  0
 16 17  2  0
 16 18  1  0
 10 11  1  0
 10 12  1  0
 10 13  1  0
 14 15  1  0
 18 19  1  0
 18 20  1  0
 18 21  1  0
M  END
>  <PDB_ID>  (558) 
pdb4kmd

>  <RESIDUE_NAME>  (558) 
ASN   GLU

>  <FRAG_NAME>  (558) 
ACEM   NMA

>  <FRAG_ATOM_NUM>  (558) 
fragi: 9  fragj: 12

>  <atom.prop.CHAIN_ID>  (558) 
A A A A A A A A A Z Z Z Z Z Z Z Z Z Z Z Z

>  <atom.prop.IS_HEAVY_ATOM>  (558) 
1 0 0 0 1 1 0 0 1 1 0 0 0 1 0 1 1 1 0 0 0

>  <DIFUSE_FUNC_ATOM>  (558) 
n/a

>  <FINAL_SINGLE_POINT_ENERGY>  (558) 
0

>  <NONCOV_INTER_ENERGY_QM>  (558) 
0

>  <FF_Energy>  (558) 
8.93

>  <QM_Energy>  (558) 
28.56

>  <source>  (558) 
ACEM_nNMA_38

>  <Index>  (558) 
27227

$$$$
ACEM-pdb3n6q-C-ASN-40:NMA-pdb3n6q-C-PHE-36
     RDKit          3D

 21 19  0  0  0  0  0  0  0  0999 V2000
   -3.3137    0.7064   -3.1699 C   0  0  0  0  0  0  0  0  0  0  0  0
   -2.3695    0.5173   -2.9226 H   0  0  0  0  0  0  0  0  0  0  0  0
   -3.4009    1.6302   -3.5270 H   0  0  0  0  0  0  0  0  0  0  0  0
   -3.6155    0.0054   -3.9480 H   0  0  0  0  0  0  0  0  0  0  0  0
   -4.1726    0.5868   -1.9225 C   0  0  0  0  0  0  0  0  0  0  0  0
   -3.5749    0.0431   -0.8587 N   0  0  0  0  0  0  0  0  0  0  0  0
   -2.6231   -0.2489   -0.9120 H   0  0  0  0  0  0  0  0  0  0  0  0
   -4.0864   -0.0701   -0.0059 H   0  0  0  0  0  0  0  0  0  0  0  0
   -5.3593    1.0019   -1.8910 O   0  0  0  0  0  0  0  0  0  0  0  0
   -1.0697   -2.1297   -0.0877 C   0  0  0  0  0  0  0  0  0  0  0  0
   -0.3075   -2.4896    0.4868 H   0  0  0  0  0  0  0  0  0  0  0  0
   -1.9265   -2.5384    0.2866 H   0  0  0  0  0  0  0  0  0  0  0  0
   -0.9327   -2.4878   -1.1081 H   0  0  0  0  0  0  0  0  0  0  0  0
   -1.1236   -0.7143    0.0000 N   0  0  0  0  0  0  0  0  0  0  0  0
   -1.9913   -0.1530    0.0673 H   0  0  0  0  0  0  0  0  0  0  0  0
    0.0000    0.0000    0.0000 C   0  0  0  0  0  0  0  0  0  0  0  0
    1.1236   -0.5216   -0.0000 O   0  0  0  0  0  0  0  0  0  0  0  0
   -0.1532    1.5027    0.0069 C   0  0  0  0  0  0  0  0  0  0  0  0
   -0.1076    1.8102   -0.9598 H   0  0  0  0  0  0  0  0  0  0  0  0
   -1.1181    1.8298    0.3942 H   0  0  0  0  0  0  0  0  0  0  0  0
    0.6353    1.9846    0.5849 H   0  0  0  0  0  0  0  0  0  0  0  0
  1  5  1  0
  5  6  1  0
  5  9  2  0
  1  2  1  0
  1  3  1  0
  1  4  1  0
  6  7  1  0
  6  8  1  0
 10 14  1  0
 14 16  1  0
 16 17  2  0
 16 18  1  0
 10 11  1  0
 10 12  1  0
 10 13  1  0
 14 15  1  0
 18 19  1  0
 18 20  1  0
 18 21  1  0
M  END
>  <PDB_ID>  (559) 
pdb3n6q

>  <RESIDUE_NAME>  (559) 
ASN   PHE

>  <FRAG_NAME>  (559) 
ACEM   NMA

>  <FRAG_ATOM_NUM>  (559) 
fragi: 9  fragj: 12

>  <atom.prop.CHAIN_ID>  (559) 
A A A A A A A A A Z Z Z Z Z Z Z Z Z Z Z Z

>  <atom.prop.IS_HEAVY_ATOM>  (559) 
1 0 0 0 1 1 0 0 1 1 0 0 0 1 0 1 1 1 0 0 0

>  <DIFUSE_FUNC_ATOM>  (559) 
n/a

>  <FINAL_SINGLE_POINT_ENERGY>  (559) 
0

>  <NONCOV_INTER_ENERGY_QM>  (559) 
0

>  <FF_Energy>  (559) 
7.79

>  <QM_Energy>  (559) 
18.17

>  <source>  (559) 
ACEM_nNMA_39

>  <Index>  (559) 
604

$$$$
ACEM-pdb3ndn-A-GLN-160:NMA-pdb3ndn-A-ASP-113
     RDKit          3D

 21 19  0  0  0  0  0  0  0  0999 V2000
   -4.6803    1.7586   -1.1295 C   0  0  0  0  0  0  0  0  0  0  0  0
   -3.9906    2.3836   -1.4862 H   0  0  0  0  0  0  0  0  0  0  0  0
   -5.5832    2.1783   -1.1880 H   0  0  0  0  0  0  0  0  0  0  0  0
   -4.6777    0.8539   -1.7375 H   0  0  0  0  0  0  0  0  0  0  0  0
   -4.3681    1.4781    0.3383 C   0  0  0  0  0  0  0  0  0  0  0  0
   -3.3045    0.7169    0.5846 N   0  0  0  0  0  0  0  0  0  0  0  0
   -3.0298    0.5011    1.5358 H   0  0  0  0  0  0  0  0  0  0  0  0
   -2.7701    0.3535   -0.2031 H   0  0  0  0  0  0  0  0  0  0  0  0
   -5.0705    1.9561    1.2375 O   0  0  0  0  0  0  0  0  0  0  0  0
   -1.1407   -2.1800    0.2456 C   0  0  0  0  0  0  0  0  0  0  0  0
   -0.1875   -2.5052    0.3213 H   0  0  0  0  0  0  0  0  0  0  0  0
   -1.6300   -2.7329   -0.5563 H   0  0  0  0  0  0  0  0  0  0  0  0
   -1.6476   -2.3730    1.1911 H   0  0  0  0  0  0  0  0  0  0  0  0
   -1.1208   -0.7242   -0.0000 N   0  0  0  0  0  0  0  0  0  0  0  0
   -1.9896   -0.1755   -0.1890 H   0  0  0  0  0  0  0  0  0  0  0  0
    0.0000    0.0000    0.0000 C   0  0  0  0  0  0  0  0  0  0  0  0
    1.1208   -0.5016   -0.0000 O   0  0  0  0  0  0  0  0  0  0  0  0
   -0.1614    1.5197   -0.0033 C   0  0  0  0  0  0  0  0  0  0  0  0
   -0.8213    1.7478    0.7241 H   0  0  0  0  0  0  0  0  0  0  0  0
    0.7743    2.0213    0.2434 H   0  0  0  0  0  0  0  0  0  0  0  0
   -0.5421    1.8696   -0.9628 H   0  0  0  0  0  0  0  0  0  0  0  0
  1  5  1  0
  5  6  1  0
  5  9  2  0
  1  2  1  0
  1  3  1  0
  1  4  1  0
  6  7  1  0
  6  8  1  0
 10 14  1  0
 14 16  1  0
 16 17  2  0
 16 18  1  0
 10 11  1  0
 10 12  1  0
 10 13  1  0
 14 15  1  0
 18 19  1  0
 18 20  1  0
 18 21  1  0
M  END
>  <PDB_ID>  (560) 
pdb3ndn

>  <RESIDUE_NAME>  (560) 
GLN   ASP

>  <FRAG_NAME>  (560) 
ACEM   NMA

>  <FRAG_ATOM_NUM>  (560) 
fragi: 9  fragj: 12

>  <atom.prop.CHAIN_ID>  (560) 
A A A A A A A A A Z Z Z Z Z Z Z Z Z Z Z Z

>  <atom.prop.IS_HEAVY_ATOM>  (560) 
1 0 0 0 1 1 0 0 1 1 0 0 0 1 0 1 1 1 0 0 0

>  <DIFUSE_FUNC_ATOM>  (560) 
n/a

>  <FINAL_SINGLE_POINT_ENERGY>  (560) 
0

>  <NONCOV_INTER_ENERGY_QM>  (560) 
0

>  <FF_Energy>  (560) 
16.03

>  <QM_Energy>  (560) 
34.59

>  <source>  (560) 
ACEM_nNMA_39

>  <Index>  (560) 
3100

$$$$
ACEM-pdb3n6q-E-ASN-40:NMA-pdb3n6q-E-PHE-36
     RDKit          3D

 21 19  0  0  0  0  0  0  0  0999 V2000
   -3.3613    0.6583   -3.0528 C   0  0  0  0  0  0  0  0  0  0  0  0
   -2.4343    0.3898   -2.8267 H   0  0  0  0  0  0  0  0  0  0  0  0
   -3.3912    1.5956   -3.3733 H   0  0  0  0  0  0  0  0  0  0  0  0
   -3.7325    0.0056   -3.8430 H   0  0  0  0  0  0  0  0  0  0  0  0
   -4.2136    0.5644   -1.7685 C   0  0  0  0  0  0  0  0  0  0  0  0
   -3.6162    0.0117   -0.7257 N   0  0  0  0  0  0  0  0  0  0  0  0
   -2.6720   -0.3117   -0.7902 H   0  0  0  0  0  0  0  0  0  0  0  0
   -4.1125   -0.0879    0.1425 H   0  0  0  0  0  0  0  0  0  0  0  0
   -5.3770    1.0153   -1.7113 O   0  0  0  0  0  0  0  0  0  0  0  0
   -1.1288   -2.1495   -0.0378 C   0  0  0  0  0  0  0  0  0  0  0  0
   -0.3501   -2.4999    0.5036 H   0  0  0  0  0  0  0  0  0  0  0  0
   -1.9773   -2.4986    0.3872 H   0  0  0  0  0  0  0  0  0  0  0  0
   -1.0563   -2.5288   -1.0571 H   0  0  0  0  0  0  0  0  0  0  0  0
   -1.1301   -0.6961    0.0000 N   0  0  0  0  0  0  0  0  0  0  0  0
   -1.9958   -0.1228    0.0282 H   0  0  0  0  0  0  0  0  0  0  0  0
    0.0000    0.0000    0.0000 C   0  0  0  0  0  0  0  0  0  0  0  0
    1.1301   -0.5247    0.0000 O   0  0  0  0  0  0  0  0  0  0  0  0
   -0.1616    1.5097    0.0165 C   0  0  0  0  0  0  0  0  0  0  0  0
   -0.1428    1.8192   -0.9517 H   0  0  0  0  0  0  0  0  0  0  0  0
   -1.1108    1.8473    0.4326 H   0  0  0  0  0  0  0  0  0  0  0  0
    0.6568    1.9771    0.5641 H   0  0  0  0  0  0  0  0  0  0  0  0
  1  5  1  0
  5  6  1  0
  5  9  2  0
  1  2  1  0
  1  3  1  0
  1  4  1  0
  6  7  1  0
  6  8  1  0
 10 14  1  0
 14 16  1  0
 16 17  2  0
 16 18  1  0
 10 11  1  0
 10 12  1  0
 10 13  1  0
 14 15  1  0
 18 19  1  0
 18 20  1  0
 18 21  1  0
M  END
>  <PDB_ID>  (561) 
pdb3n6q

>  <RESIDUE_NAME>  (561) 
ASN   PHE

>  <FRAG_NAME>  (561) 
ACEM   NMA

>  <FRAG_ATOM_NUM>  (561) 
fragi: 9  fragj: 12

>  <atom.prop.CHAIN_ID>  (561) 
A A A A A A A A A Z Z Z Z Z Z Z Z Z Z Z Z

>  <atom.prop.IS_HEAVY_ATOM>  (561) 
1 0 0 0 1 1 0 0 1 1 0 0 0 1 0 1 1 1 0 0 0

>  <DIFUSE_FUNC_ATOM>  (561) 
n/a

>  <FINAL_SINGLE_POINT_ENERGY>  (561) 
0

>  <NONCOV_INTER_ENERGY_QM>  (561) 
0

>  <FF_Energy>  (561) 
9.63

>  <QM_Energy>  (561) 
23.36

>  <source>  (561) 
ACEM_nNMA_39

>  <Index>  (561) 
5809

$$$$
ACEM-pdb4kpy-G-ASN-449:NMA-pdb4kpy-G-SER-645
     RDKit          3D

 21 19  0  0  0  0  0  0  0  0999 V2000
   -5.8486    0.8417    0.7605 C   0  0  0  0  0  0  0  0  0  0  0  0
   -6.6528    0.5510    0.2563 H   0  0  0  0  0  0  0  0  0  0  0  0
   -5.8298    1.8304    0.8506 H   0  0  0  0  0  0  0  0  0  0  0  0
   -5.8823    0.4007    1.7567 H   0  0  0  0  0  0  0  0  0  0  0  0
   -4.6096    0.4059   -0.0170 C   0  0  0  0  0  0  0  0  0  0  0  0
   -3.7392   -0.3618    0.6208 N   0  0  0  0  0  0  0  0  0  0  0  0
   -3.9218   -0.6308    1.5719 H   0  0  0  0  0  0  0  0  0  0  0  0
   -2.9091   -0.6727    0.1650 H   0  0  0  0  0  0  0  0  0  0  0  0
   -4.4404    0.7719   -1.1814 O   0  0  0  0  0  0  0  0  0  0  0  0
   -1.1196   -2.1419    0.2393 C   0  0  0  0  0  0  0  0  0  0  0  0
   -0.5040   -2.3416    1.0445 H   0  0  0  0  0  0  0  0  0  0  0  0
   -2.0595   -2.4295    0.5567 H   0  0  0  0  0  0  0  0  0  0  0  0
   -0.8214   -2.7733   -0.5977 H   0  0  0  0  0  0  0  0  0  0  0  0
   -1.1254   -0.7112    0.0000 N   0  0  0  0  0  0  0  0  0  0  0  0
   -1.9865   -0.1600   -0.1827 H   0  0  0  0  0  0  0  0  0  0  0  0
    0.0000    0.0000    0.0000 C   0  0  0  0  0  0  0  0  0  0  0  0
    1.1254   -0.5022    0.0000 O   0  0  0  0  0  0  0  0  0  0  0  0
   -0.1689    1.5074    0.0251 C   0  0  0  0  0  0  0  0  0  0  0  0
   -1.1340    1.7130   -0.1010 H   0  0  0  0  0  0  0  0  0  0  0  0
    0.1298    1.8553    1.0140 H   0  0  0  0  0  0  0  0  0  0  0  0
    0.4231    1.9896   -0.7529 H   0  0  0  0  0  0  0  0  0  0  0  0
  1  5  1  0
  5  6  1  0
  5  9  2  0
  1  2  1  0
  1  3  1  0
  1  4  1  0
  6  7  1  0
  6  8  1  0
 10 14  1  0
 14 16  1  0
 16 17  2  0
 16 18  1  0
 10 11  1  0
 10 12  1  0
 10 13  1  0
 14 15  1  0
 18 19  1  0
 18 20  1  0
 18 21  1  0
M  END
>  <PDB_ID>  (562) 
pdb4kpy

>  <RESIDUE_NAME>  (562) 
ASN   SER

>  <FRAG_NAME>  (562) 
ACEM   NMA

>  <FRAG_ATOM_NUM>  (562) 
fragi: 9  fragj: 12

>  <atom.prop.CHAIN_ID>  (562) 
A A A A A A A A A Z Z Z Z Z Z Z Z Z Z Z Z

>  <atom.prop.IS_HEAVY_ATOM>  (562) 
1 0 0 0 1 1 0 0 1 1 0 0 0 1 0 1 1 1 0 0 0

>  <DIFUSE_FUNC_ATOM>  (562) 
n/a

>  <FINAL_SINGLE_POINT_ENERGY>  (562) 
0

>  <NONCOV_INTER_ENERGY_QM>  (562) 
0

>  <FF_Energy>  (562) 
6.04

>  <QM_Energy>  (562) 
21.07

>  <source>  (562) 
ACEM_nNMA_39

>  <Index>  (562) 
8190

$$$$
ACEM-pdb3no8-A-ASN-398:NMA-pdb3no8-A-THR-497
     RDKit          3D

 21 19  0  0  0  0  0  0  0  0999 V2000
   -5.5943   -0.5456   -1.1013 C   0  0  0  0  0  0  0  0  0  0  0  0
   -6.4773   -0.3771   -0.6698 H   0  0  0  0  0  0  0  0  0  0  0  0
   -5.4330   -1.5265   -1.1781 H   0  0  0  0  0  0  0  0  0  0  0  0
   -5.6080   -0.1150   -2.1025 H   0  0  0  0  0  0  0  0  0  0  0  0
   -4.4984    0.0465   -0.1895 C   0  0  0  0  0  0  0  0  0  0  0  0
   -3.3167    0.1764   -0.7283 N   0  0  0  0  0  0  0  0  0  0  0  0
   -3.1483   -0.0925   -1.6815 H   0  0  0  0  0  0  0  0  0  0  0  0
   -2.5489    0.5510   -0.1912 H   0  0  0  0  0  0  0  0  0  0  0  0
   -4.7309    0.4049    0.9585 O   0  0  0  0  0  0  0  0  0  0  0  0
   -1.1399   -2.1689   -0.0893 C   0  0  0  0  0  0  0  0  0  0  0  0
   -0.2580   -2.5352    0.2458 H   0  0  0  0  0  0  0  0  0  0  0  0
   -1.2724   -2.5249   -1.1110 H   0  0  0  0  0  0  0  0  0  0  0  0
   -1.9439   -2.5636    0.5319 H   0  0  0  0  0  0  0  0  0  0  0  0
   -1.1053   -0.7202   -0.0000 N   0  0  0  0  0  0  0  0  0  0  0  0
   -1.9887   -0.1396    0.0727 H   0  0  0  0  0  0  0  0  0  0  0  0
    0.0000    0.0000    0.0000 C   0  0  0  0  0  0  0  0  0  0  0  0
    1.1053   -0.4841    0.0000 O   0  0  0  0  0  0  0  0  0  0  0  0
   -0.1869    1.5040    0.1267 C   0  0  0  0  0  0  0  0  0  0  0  0
   -1.1260    1.7230   -0.0922 H   0  0  0  0  0  0  0  0  0  0  0  0
   -0.0006    1.7435    1.1736 H   0  0  0  0  0  0  0  0  0  0  0  0
    0.5365    2.0264   -0.4995 H   0  0  0  0  0  0  0  0  0  0  0  0
  1  5  1  0
  5  6  1  0
  5  9  2  0
  1  2  1  0
  1  3  1  0
  1  4  1  0
  6  7  1  0
  6  8  1  0
 10 14  1  0
 14 16  1  0
 16 17  2  0
 16 18  1  0
 10 11  1  0
 10 12  1  0
 10 13  1  0
 14 15  1  0
 18 19  1  0
 18 20  1  0
 18 21  1  0
M  END
>  <PDB_ID>  (563) 
pdb3no8

>  <RESIDUE_NAME>  (563) 
ASN   THR

>  <FRAG_NAME>  (563) 
ACEM   NMA

>  <FRAG_ATOM_NUM>  (563) 
fragi: 9  fragj: 12

>  <atom.prop.CHAIN_ID>  (563) 
A A A A A A A A A Z Z Z Z Z Z Z Z Z Z Z Z

>  <atom.prop.IS_HEAVY_ATOM>  (563) 
1 0 0 0 1 1 0 0 1 1 0 0 0 1 0 1 1 1 0 0 0

>  <DIFUSE_FUNC_ATOM>  (563) 
n/a

>  <FINAL_SINGLE_POINT_ENERGY>  (563) 
0

>  <NONCOV_INTER_ENERGY_QM>  (563) 
0

>  <FF_Energy>  (563) 
26.82

>  <QM_Energy>  (563) 
44.61

>  <source>  (563) 
ACEM_nNMA_39

>  <Index>  (563) 
13620

$$$$
ACEM-pdb4l92-A-GLN-201:NMA-pdb4l92-A-ILE-195
     RDKit          3D

 21 19  0  0  0  0  0  0  0  0999 V2000
   -5.1929    0.9073   -2.5995 C   0  0  0  0  0  0  0  0  0  0  0  0
   -5.0755    1.3437   -3.4889 H   0  0  0  0  0  0  0  0  0  0  0  0
   -5.6527    1.5315   -1.9729 H   0  0  0  0  0  0  0  0  0  0  0  0
   -5.8251    0.0293   -2.7314 H   0  0  0  0  0  0  0  0  0  0  0  0
   -3.8594    0.5398   -2.0476 C   0  0  0  0  0  0  0  0  0  0  0  0
   -3.7941    0.4071   -0.7410 N   0  0  0  0  0  0  0  0  0  0  0  0
   -2.9128    0.1401   -0.2741 H   0  0  0  0  0  0  0  0  0  0  0  0
   -4.6274    0.5717   -0.1768 H   0  0  0  0  0  0  0  0  0  0  0  0
   -2.8843    0.3690   -2.7836 O   0  0  0  0  0  0  0  0  0  0  0  0
   -1.1554   -2.2004   -0.0850 C   0  0  0  0  0  0  0  0  0  0  0  0
   -0.5390   -2.5364    0.6220 H   0  0  0  0  0  0  0  0  0  0  0  0
   -0.7404   -2.4952   -1.0488 H   0  0  0  0  0  0  0  0  0  0  0  0
   -2.1640   -2.6006    0.0177 H   0  0  0  0  0  0  0  0  0  0  0  0
   -1.1387   -0.7274   -0.0000 N   0  0  0  0  0  0  0  0  0  0  0  0
   -2.0072   -0.1537    0.0651 H   0  0  0  0  0  0  0  0  0  0  0  0
    0.0000    0.0000    0.0000 C   0  0  0  0  0  0  0  0  0  0  0  0
    1.1387   -0.5097   -0.0000 O   0  0  0  0  0  0  0  0  0  0  0  0
   -0.1784    1.5284    0.0223 C   0  0  0  0  0  0  0  0  0  0  0  0
   -1.1594    1.6953    0.0143 H   0  0  0  0  0  0  0  0  0  0  0  0
    0.1946    1.9085    0.9732 H   0  0  0  0  0  0  0  0  0  0  0  0
    0.2750    2.0364   -0.8289 H   0  0  0  0  0  0  0  0  0  0  0  0
  1  5  1  0
  5  6  1  0
  5  9  2  0
  1  2  1  0
  1  3  1  0
  1  4  1  0
  6  7  1  0
  6  8  1  0
 10 14  1  0
 14 16  1  0
 16 17  2  0
 16 18  1  0
 10 11  1  0
 10 12  1  0
 10 13  1  0
 14 15  1  0
 18 19  1  0
 18 20  1  0
 18 21  1  0
M  END
>  <PDB_ID>  (564) 
pdb4l92

>  <RESIDUE_NAME>  (564) 
GLN   ILE

>  <FRAG_NAME>  (564) 
ACEM   NMA

>  <FRAG_ATOM_NUM>  (564) 
fragi: 9  fragj: 12

>  <atom.prop.CHAIN_ID>  (564) 
A A A A A A A A A Z Z Z Z Z Z Z Z Z Z Z Z

>  <atom.prop.IS_HEAVY_ATOM>  (564) 
1 0 0 0 1 1 0 0 1 1 0 0 0 1 0 1 1 1 0 0 0

>  <DIFUSE_FUNC_ATOM>  (564) 
n/a

>  <FINAL_SINGLE_POINT_ENERGY>  (564) 
0

>  <NONCOV_INTER_ENERGY_QM>  (564) 
0

>  <FF_Energy>  (564) 
9.22

>  <QM_Energy>  (564) 
23.4

>  <source>  (564) 
ACEM_nNMA_39

>  <Index>  (564) 
17473

$$$$
ACEM-pdb3ntl-A-ASN-258:NMA-pdb3ntl-A-ILE-129
     RDKit          3D

 21 19  0  0  0  0  0  0  0  0999 V2000
   -5.7039    1.8393    0.3784 C   0  0  0  0  0  0  0  0  0  0  0  0
   -6.3534    1.8197   -0.3803 H   0  0  0  0  0  0  0  0  0  0  0  0
   -5.1729    2.6845    0.3464 H   0  0  0  0  0  0  0  0  0  0  0  0
   -6.2685    1.8271    1.3108 H   0  0  0  0  0  0  0  0  0  0  0  0
   -4.7659    0.6696    0.2460 C   0  0  0  0  0  0  0  0  0  0  0  0
   -3.4870    0.9194    0.3326 N   0  0  0  0  0  0  0  0  0  0  0  0
   -3.1620    1.8604    0.4877 H   0  0  0  0  0  0  0  0  0  0  0  0
   -2.8123    0.1810    0.2467 H   0  0  0  0  0  0  0  0  0  0  0  0
   -5.1988   -0.4661    0.0461 O   0  0  0  0  0  0  0  0  0  0  0  0
   -1.1132   -2.0584    0.3952 C   0  0  0  0  0  0  0  0  0  0  0  0
   -0.1798   -2.3872    0.4274 H   0  0  0  0  0  0  0  0  0  0  0  0
   -1.6387   -2.5922   -0.3965 H   0  0  0  0  0  0  0  0  0  0  0  0
   -1.5090   -2.0901    1.4104 H   0  0  0  0  0  0  0  0  0  0  0  0
   -1.1192   -0.6778    0.0000 N   0  0  0  0  0  0  0  0  0  0  0  0
   -1.9609   -0.1588   -0.2938 H   0  0  0  0  0  0  0  0  0  0  0  0
    0.0000    0.0000    0.0000 C   0  0  0  0  0  0  0  0  0  0  0  0
    1.1192   -0.5297    0.0000 O   0  0  0  0  0  0  0  0  0  0  0  0
   -0.1828    1.5084   -0.0174 C   0  0  0  0  0  0  0  0  0  0  0  0
   -1.1308    1.6803    0.2378 H   0  0  0  0  0  0  0  0  0  0  0  0
    0.4394    1.9335    0.7701 H   0  0  0  0  0  0  0  0  0  0  0  0
    0.1157    1.8786   -0.9981 H   0  0  0  0  0  0  0  0  0  0  0  0
  1  5  1  0
  5  6  1  0
  5  9  2  0
  1  2  1  0
  1  3  1  0
  1  4  1  0
  6  7  1  0
  6  8  1  0
 10 14  1  0
 14 16  1  0
 16 17  2  0
 16 18  1  0
 10 11  1  0
 10 12  1  0
 10 13  1  0
 14 15  1  0
 18 19  1  0
 18 20  1  0
 18 21  1  0
M  END
>  <PDB_ID>  (565) 
pdb3ntl

>  <RESIDUE_NAME>  (565) 
ASN   ILE

>  <FRAG_NAME>  (565) 
ACEM   NMA

>  <FRAG_ATOM_NUM>  (565) 
fragi: 9  fragj: 12

>  <atom.prop.CHAIN_ID>  (565) 
A A A A A A A A A Z Z Z Z Z Z Z Z Z Z Z Z

>  <atom.prop.IS_HEAVY_ATOM>  (565) 
1 0 0 0 1 1 0 0 1 1 0 0 0 1 0 1 1 1 0 0 0

>  <DIFUSE_FUNC_ATOM>  (565) 
n/a

>  <FINAL_SINGLE_POINT_ENERGY>  (565) 
0

>  <NONCOV_INTER_ENERGY_QM>  (565) 
0

>  <FF_Energy>  (565) 
10.18

>  <QM_Energy>  (565) 
21.23

>  <source>  (565) 
ACEM_nNMA_39

>  <Index>  (565) 
19869

$$$$
ACEM-pdb4le7-A-GLN-15:NMA-pdb4le7-A-ILE-11
     RDKit          3D

 21 19  0  0  0  0  0  0  0  0999 V2000
   -4.8979    0.9985   -0.6838 C   0  0  0  0  0  0  0  0  0  0  0  0
   -5.6495    1.6234   -0.8878 H   0  0  0  0  0  0  0  0  0  0  0  0
   -5.2462    0.0645   -0.6141 H   0  0  0  0  0  0  0  0  0  0  0  0
   -4.1892    1.0369   -1.5112 H   0  0  0  0  0  0  0  0  0  0  0  0
   -4.2847    1.3945    0.6617 C   0  0  0  0  0  0  0  0  0  0  0  0
   -3.0607    0.9716    0.8740 N   0  0  0  0  0  0  0  0  0  0  0  0
   -2.5719    1.2048    1.7462 H   0  0  0  0  0  0  0  0  0  0  0  0
   -2.5940    0.4066    0.1688 H   0  0  0  0  0  0  0  0  0  0  0  0
   -4.8775    2.0912    1.4827 O   0  0  0  0  0  0  0  0  0  0  0  0
   -1.0833   -2.1722    0.1540 C   0  0  0  0  0  0  0  0  0  0  0  0
   -0.3880   -2.5436   -0.4747 H   0  0  0  0  0  0  0  0  0  0  0  0
   -2.0555   -2.6023   -0.0869 H   0  0  0  0  0  0  0  0  0  0  0  0
   -0.8582   -2.4612    1.1806 H   0  0  0  0  0  0  0  0  0  0  0  0
   -1.1186   -0.7250    0.0000 N   0  0  0  0  0  0  0  0  0  0  0  0
   -1.9912   -0.1795   -0.1168 H   0  0  0  0  0  0  0  0  0  0  0  0
    0.0000    0.0000    0.0000 C   0  0  0  0  0  0  0  0  0  0  0  0
    1.1186   -0.5078   -0.0000 O   0  0  0  0  0  0  0  0  0  0  0  0
   -0.1638    1.5227   -0.0226 C   0  0  0  0  0  0  0  0  0  0  0  0
   -1.0301    1.7180    0.4357 H   0  0  0  0  0  0  0  0  0  0  0  0
    0.6206    1.9817    0.5792 H   0  0  0  0  0  0  0  0  0  0  0  0
   -0.1812    1.8814   -1.0517 H   0  0  0  0  0  0  0  0  0  0  0  0
  1  5  1  0
  5  6  1  0
  5  9  2  0
  1  2  1  0
  1  3  1  0
  1  4  1  0
  6  7  1  0
  6  8  1  0
 10 14  1  0
 14 16  1  0
 16 17  2  0
 16 18  1  0
 10 11  1  0
 10 12  1  0
 10 13  1  0
 14 15  1  0
 18 19  1  0
 18 20  1  0
 18 21  1  0
M  END
>  <PDB_ID>  (566) 
pdb4le7

>  <RESIDUE_NAME>  (566) 
GLN   ILE

>  <FRAG_NAME>  (566) 
ACEM   NMA

>  <FRAG_ATOM_NUM>  (566) 
fragi: 9  fragj: 12

>  <atom.prop.CHAIN_ID>  (566) 
A A A A A A A A A Z Z Z Z Z Z Z Z Z Z Z Z

>  <atom.prop.IS_HEAVY_ATOM>  (566) 
1 0 0 0 1 1 0 0 1 1 0 0 0 1 0 1 1 1 0 0 0

>  <DIFUSE_FUNC_ATOM>  (566) 
n/a

>  <FINAL_SINGLE_POINT_ENERGY>  (566) 
0

>  <NONCOV_INTER_ENERGY_QM>  (566) 
0

>  <FF_Energy>  (566) 
21.82

>  <QM_Energy>  (566) 
41.83

>  <source>  (566) 
ACEM_nNMA_39

>  <Index>  (566) 
20301

$$$$
ACEM-pdb4l92-B-GLN-201:NMA-pdb4l92-B-ILE-195
     RDKit          3D

 21 19  0  0  0  0  0  0  0  0999 V2000
   -5.2165    1.0109   -2.5368 C   0  0  0  0  0  0  0  0  0  0  0  0
   -5.1175    1.4766   -3.4024 H   0  0  0  0  0  0  0  0  0  0  0  0
   -5.6986    1.5698   -1.8794 H   0  0  0  0  0  0  0  0  0  0  0  0
   -5.8046    0.1089   -2.7065 H   0  0  0  0  0  0  0  0  0  0  0  0
   -3.8693    0.6472   -2.0020 C   0  0  0  0  0  0  0  0  0  0  0  0
   -3.8105    0.4020   -0.7085 N   0  0  0  0  0  0  0  0  0  0  0  0
   -2.9234    0.1304   -0.2591 H   0  0  0  0  0  0  0  0  0  0  0  0
   -4.6542    0.4834   -0.1441 H   0  0  0  0  0  0  0  0  0  0  0  0
   -2.8855    0.5520   -2.7453 O   0  0  0  0  0  0  0  0  0  0  0  0
   -1.1739   -2.1816   -0.0817 C   0  0  0  0  0  0  0  0  0  0  0  0
   -0.5747   -2.5277    0.6389 H   0  0  0  0  0  0  0  0  0  0  0  0
   -0.7520   -2.4935   -1.0372 H   0  0  0  0  0  0  0  0  0  0  0  0
   -2.1913   -2.5602    0.0164 H   0  0  0  0  0  0  0  0  0  0  0  0
   -1.1351   -0.7138   -0.0000 N   0  0  0  0  0  0  0  0  0  0  0  0
   -2.0031   -0.1295    0.0639 H   0  0  0  0  0  0  0  0  0  0  0  0
    0.0000    0.0000    0.0000 C   0  0  0  0  0  0  0  0  0  0  0  0
    1.1351   -0.5128    0.0000 O   0  0  0  0  0  0  0  0  0  0  0  0
   -0.1719    1.5293    0.0124 C   0  0  0  0  0  0  0  0  0  0  0  0
   -1.1502    1.7014    0.0059 H   0  0  0  0  0  0  0  0  0  0  0  0
    0.2017    1.9078    0.9638 H   0  0  0  0  0  0  0  0  0  0  0  0
    0.3056    2.0211   -0.8350 H   0  0  0  0  0  0  0  0  0  0  0  0
  1  5  1  0
  5  6  1  0
  5  9  2  0
  1  2  1  0
  1  3  1  0
  1  4  1  0
  6  7  1  0
  6  8  1  0
 10 14  1  0
 14 16  1  0
 16 17  2  0
 16 18  1  0
 10 11  1  0
 10 12  1  0
 10 13  1  0
 14 15  1  0
 18 19  1  0
 18 20  1  0
 18 21  1  0
M  END
>  <PDB_ID>  (567) 
pdb4l92

>  <RESIDUE_NAME>  (567) 
GLN   ILE

>  <FRAG_NAME>  (567) 
ACEM   NMA

>  <FRAG_ATOM_NUM>  (567) 
fragi: 9  fragj: 12

>  <atom.prop.CHAIN_ID>  (567) 
A A A A A A A A A Z Z Z Z Z Z Z Z Z Z Z Z

>  <atom.prop.IS_HEAVY_ATOM>  (567) 
1 0 0 0 1 1 0 0 1 1 0 0 0 1 0 1 1 1 0 0 0

>  <DIFUSE_FUNC_ATOM>  (567) 
n/a

>  <FINAL_SINGLE_POINT_ENERGY>  (567) 
0

>  <NONCOV_INTER_ENERGY_QM>  (567) 
0

>  <FF_Energy>  (567) 
8.84

>  <QM_Energy>  (567) 
23.34

>  <source>  (567) 
ACEM_nNMA_39

>  <Index>  (567) 
20881

$$$$
ACEM-pdb3nsm-A-GLN-333:NMA-pdb3nsm-A-VAL-369
     RDKit          3D

 21 19  0  0  0  0  0  0  0  0999 V2000
   -6.0151    0.4194   -0.4470 C   0  0  0  0  0  0  0  0  0  0  0  0
   -5.9108    0.9579    0.3967 H   0  0  0  0  0  0  0  0  0  0  0  0
   -6.6184   -0.3632   -0.2542 H   0  0  0  0  0  0  0  0  0  0  0  0
   -6.4771    1.0439   -1.2117 H   0  0  0  0  0  0  0  0  0  0  0  0
   -4.6540   -0.1154   -0.8381 C   0  0  0  0  0  0  0  0  0  0  0  0
   -3.8520   -0.4181    0.1650 N   0  0  0  0  0  0  0  0  0  0  0  0
   -2.9145   -0.8010   -0.0120 H   0  0  0  0  0  0  0  0  0  0  0  0
   -4.1669   -0.2700    1.1201 H   0  0  0  0  0  0  0  0  0  0  0  0
   -4.3293   -0.2654   -2.0220 O   0  0  0  0  0  0  0  0  0  0  0  0
   -1.1366   -2.1552   -0.1456 C   0  0  0  0  0  0  0  0  0  0  0  0
   -0.3150   -2.5260    0.2964 H   0  0  0  0  0  0  0  0  0  0  0  0
   -1.0982   -2.4235   -1.2014 H   0  0  0  0  0  0  0  0  0  0  0  0
   -2.0218   -2.5885    0.3201 H   0  0  0  0  0  0  0  0  0  0  0  0
   -1.1212   -0.7111    0.0000 N   0  0  0  0  0  0  0  0  0  0  0  0
   -1.9918   -0.1394    0.1136 H   0  0  0  0  0  0  0  0  0  0  0  0
    0.0000    0.0000    0.0000 C   0  0  0  0  0  0  0  0  0  0  0  0
    1.1212   -0.5003   -0.0000 O   0  0  0  0  0  0  0  0  0  0  0  0
   -0.1819    1.5082    0.0334 C   0  0  0  0  0  0  0  0  0  0  0  0
   -1.0869    1.7026    0.4262 H   0  0  0  0  0  0  0  0  0  0  0  0
    0.5740    1.9656    0.6718 H   0  0  0  0  0  0  0  0  0  0  0  0
   -0.1478    1.9234   -0.9738 H   0  0  0  0  0  0  0  0  0  0  0  0
  1  5  1  0
  5  6  1  0
  5  9  2  0
  1  2  1  0
  1  3  1  0
  1  4  1  0
  6  7  1  0
  6  8  1  0
 10 14  1  0
 14 16  1  0
 16 17  2  0
 16 18  1  0
 10 11  1  0
 10 12  1  0
 10 13  1  0
 14 15  1  0
 18 19  1  0
 18 20  1  0
 18 21  1  0
M  END
>  <PDB_ID>  (568) 
pdb3nsm

>  <RESIDUE_NAME>  (568) 
GLN   VAL

>  <FRAG_NAME>  (568) 
ACEM   NMA

>  <FRAG_ATOM_NUM>  (568) 
fragi: 9  fragj: 12

>  <atom.prop.CHAIN_ID>  (568) 
A A A A A A A A A Z Z Z Z Z Z Z Z Z Z Z Z

>  <atom.prop.IS_HEAVY_ATOM>  (568) 
1 0 0 0 1 1 0 0 1 1 0 0 0 1 0 1 1 1 0 0 0

>  <DIFUSE_FUNC_ATOM>  (568) 
n/a

>  <FINAL_SINGLE_POINT_ENERGY>  (568) 
0

>  <NONCOV_INTER_ENERGY_QM>  (568) 
0

>  <FF_Energy>  (568) 
6.23

>  <QM_Energy>  (568) 
19.47

>  <source>  (568) 
ACEM_nNMA_39

>  <Index>  (568) 
21080

$$$$
ACEM-pdb4lim-A-ASN-233:NMA-pdb4lim-A-SER-269
     RDKit          3D

 21 19  0  0  0  0  0  0  0  0999 V2000
   -6.3292   -0.2553    0.2979 C   0  0  0  0  0  0  0  0  0  0  0  0
   -6.6452   -0.2509   -0.6511 H   0  0  0  0  0  0  0  0  0  0  0  0
   -6.9856    0.2378    0.8705 H   0  0  0  0  0  0  0  0  0  0  0  0
   -6.3055   -1.2914    0.6360 H   0  0  0  0  0  0  0  0  0  0  0  0
   -4.9926    0.4390    0.3735 C   0  0  0  0  0  0  0  0  0  0  0  0
   -3.9355   -0.3576    0.5585 N   0  0  0  0  0  0  0  0  0  0  0  0
   -4.0564   -1.3442    0.6322 H   0  0  0  0  0  0  0  0  0  0  0  0
   -3.0198    0.0413    0.6231 H   0  0  0  0  0  0  0  0  0  0  0  0
   -4.8793    1.6695    0.2964 O   0  0  0  0  0  0  0  0  0  0  0  0
   -1.0912   -2.1401   -0.1047 C   0  0  0  0  0  0  0  0  0  0  0  0
   -0.5865   -2.5001    0.6890 H   0  0  0  0  0  0  0  0  0  0  0  0
   -0.5668   -2.4598   -1.0052 H   0  0  0  0  0  0  0  0  0  0  0  0
   -2.1094   -2.5288   -0.1140 H   0  0  0  0  0  0  0  0  0  0  0  0
   -1.1249   -0.6853   -0.0000 N   0  0  0  0  0  0  0  0  0  0  0  0
   -1.9896   -0.1350    0.0760 H   0  0  0  0  0  0  0  0  0  0  0  0
    0.0000    0.0000    0.0000 C   0  0  0  0  0  0  0  0  0  0  0  0
    1.1249   -0.5468    0.0000 O   0  0  0  0  0  0  0  0  0  0  0  0
   -0.1708    1.4995   -0.0116 C   0  0  0  0  0  0  0  0  0  0  0  0
   -0.8538    1.7427    0.6966 H   0  0  0  0  0  0  0  0  0  0  0  0
    0.7567    2.0222    0.2220 H   0  0  0  0  0  0  0  0  0  0  0  0
   -0.5539    1.7895   -0.9901 H   0  0  0  0  0  0  0  0  0  0  0  0
  1  5  1  0
  5  6  1  0
  5  9  2  0
  1  2  1  0
  1  3  1  0
  1  4  1  0
  6  7  1  0
  6  8  1  0
 10 14  1  0
 14 16  1  0
 16 17  2  0
 16 18  1  0
 10 11  1  0
 10 12  1  0
 10 13  1  0
 14 15  1  0
 18 19  1  0
 18 20  1  0
 18 21  1  0
M  END
>  <PDB_ID>  (569) 
pdb4lim

>  <RESIDUE_NAME>  (569) 
ASN   SER

>  <FRAG_NAME>  (569) 
ACEM   NMA

>  <FRAG_ATOM_NUM>  (569) 
fragi: 9  fragj: 12

>  <atom.prop.CHAIN_ID>  (569) 
A A A A A A A A A Z Z Z Z Z Z Z Z Z Z Z Z

>  <atom.prop.IS_HEAVY_ATOM>  (569) 
1 0 0 0 1 1 0 0 1 1 0 0 0 1 0 1 1 1 0 0 0

>  <DIFUSE_FUNC_ATOM>  (569) 
n/a

>  <FINAL_SINGLE_POINT_ENERGY>  (569) 
0

>  <NONCOV_INTER_ENERGY_QM>  (569) 
0

>  <FF_Energy>  (569) 
4.64

>  <QM_Energy>  (569) 
14.83

>  <source>  (569) 
ACEM_nNMA_39

>  <Index>  (569) 
26710

$$$$
ACEM-pdb4lkk-A-ASN-239:NMA-pdb4lkk-A-LYS-191
     RDKit          3D

 21 19  0  0  0  0  0  0  0  0999 V2000
   -5.2648    1.2306   -0.8227 C   0  0  0  0  0  0  0  0  0  0  0  0
   -5.5097    2.1512   -0.5362 H   0  0  0  0  0  0  0  0  0  0  0  0
   -5.8222    0.5607   -0.3416 H   0  0  0  0  0  0  0  0  0  0  0  0
   -5.4572    1.1373   -1.8915 H   0  0  0  0  0  0  0  0  0  0  0  0
   -3.8054    0.9874   -0.4709 C   0  0  0  0  0  0  0  0  0  0  0  0
   -3.1574    0.1164   -1.2305 N   0  0  0  0  0  0  0  0  0  0  0  0
   -3.6270   -0.3364   -1.9899 H   0  0  0  0  0  0  0  0  0  0  0  0
   -2.1949   -0.0927   -1.0473 H   0  0  0  0  0  0  0  0  0  0  0  0
   -3.2693    1.5723    0.4749 O   0  0  0  0  0  0  0  0  0  0  0  0
   -1.0751   -2.1906    0.0896 C   0  0  0  0  0  0  0  0  0  0  0  0
   -0.1276   -2.4949   -0.1263 H   0  0  0  0  0  0  0  0  0  0  0  0
   -1.7556   -2.7052   -0.5887 H   0  0  0  0  0  0  0  0  0  0  0  0
   -1.2532   -2.5156    1.1146 H   0  0  0  0  0  0  0  0  0  0  0  0
   -1.1194   -0.7250    0.0000 N   0  0  0  0  0  0  0  0  0  0  0  0
   -1.9950   -0.1832   -0.0671 H   0  0  0  0  0  0  0  0  0  0  0  0
    0.0000    0.0000    0.0000 C   0  0  0  0  0  0  0  0  0  0  0  0
    1.1194   -0.5131    0.0000 O   0  0  0  0  0  0  0  0  0  0  0  0
   -0.1509    1.5271    0.0154 C   0  0  0  0  0  0  0  0  0  0  0  0
   -1.0626    1.7530    0.3742 H   0  0  0  0  0  0  0  0  0  0  0  0
    0.6060    1.9845    0.6525 H   0  0  0  0  0  0  0  0  0  0  0  0
   -0.0889    1.9378   -0.9924 H   0  0  0  0  0  0  0  0  0  0  0  0
  1  5  1  0
  5  6  1  0
  5  9  2  0
  1  2  1  0
  1  3  1  0
  1  4  1  0
  6  7  1  0
  6  8  1  0
 10 14  1  0
 14 16  1  0
 16 17  2  0
 16 18  1  0
 10 11  1  0
 10 12  1  0
 10 13  1  0
 14 15  1  0
 18 19  1  0
 18 20  1  0
 18 21  1  0
M  END
>  <PDB_ID>  (570) 
pdb4lkk

>  <RESIDUE_NAME>  (570) 
ASN   LYS

>  <FRAG_NAME>  (570) 
ACEM   NMA

>  <FRAG_ATOM_NUM>  (570) 
fragi: 9  fragj: 12

>  <atom.prop.CHAIN_ID>  (570) 
A A A A A A A A A Z Z Z Z Z Z Z Z Z Z Z Z

>  <atom.prop.IS_HEAVY_ATOM>  (570) 
1 0 0 0 1 1 0 0 1 1 0 0 0 1 0 1 1 1 0 0 0

>  <DIFUSE_FUNC_ATOM>  (570) 
n/a

>  <FINAL_SINGLE_POINT_ENERGY>  (570) 
0

>  <NONCOV_INTER_ENERGY_QM>  (570) 
0

>  <FF_Energy>  (570) 
15.96

>  <QM_Energy>  (570) 
33.45

>  <source>  (570) 
ACEM_nNMA_39

>  <Index>  (570) 
27738

$$$$
ACEM-pdb3nz4-A-ASN-355:NMA-pdb3nz4-A-HID-367
     RDKit          3D

 21 19  0  0  0  0  0  0  0  0999 V2000
   -5.7694    0.1306   -1.1872 C   0  0  0  0  0  0  0  0  0  0  0  0
   -6.1456   -0.7835   -1.0756 H   0  0  0  0  0  0  0  0  0  0  0  0
   -5.9230    0.4568   -2.1144 H   0  0  0  0  0  0  0  0  0  0  0  0
   -6.2854    0.7998   -0.4988 H   0  0  0  0  0  0  0  0  0  0  0  0
   -4.2734    0.0743   -0.9321 C   0  0  0  0  0  0  0  0  0  0  0  0
   -3.9040   -0.4188    0.2335 N   0  0  0  0  0  0  0  0  0  0  0  0
   -4.5866   -0.7377    0.8929 H   0  0  0  0  0  0  0  0  0  0  0  0
   -2.9288   -0.4794    0.4695 H   0  0  0  0  0  0  0  0  0  0  0  0
   -3.4613    0.4785   -1.7717 O   0  0  0  0  0  0  0  0  0  0  0  0
   -1.1156   -2.1741   -0.0132 C   0  0  0  0  0  0  0  0  0  0  0  0
   -0.2216   -2.5078   -0.3485 H   0  0  0  0  0  0  0  0  0  0  0  0
   -1.2344   -2.5192    0.9308 H   0  0  0  0  0  0  0  0  0  0  0  0
   -1.9080   -2.5769   -0.6441 H   0  0  0  0  0  0  0  0  0  0  0  0
   -1.1150   -0.7186    0.0000 N   0  0  0  0  0  0  0  0  0  0  0  0
   -1.9939   -0.1489    0.0109 H   0  0  0  0  0  0  0  0  0  0  0  0
    0.0000    0.0000    0.0000 C   0  0  0  0  0  0  0  0  0  0  0  0
    1.1150   -0.4961    0.0000 O   0  0  0  0  0  0  0  0  0  0  0  0
   -0.1803    1.5099    0.0232 C   0  0  0  0  0  0  0  0  0  0  0  0
   -1.1575    1.7123   -0.0970 H   0  0  0  0  0  0  0  0  0  0  0  0
    0.1433    1.9149    0.9820 H   0  0  0  0  0  0  0  0  0  0  0  0
    0.3602    2.0048   -0.7839 H   0  0  0  0  0  0  0  0  0  0  0  0
  1  5  1  0
  5  6  1  0
  5  9  2  0
  1  2  1  0
  1  3  1  0
  1  4  1  0
  6  7  1  0
  6  8  1  0
 10 14  1  0
 14 16  1  0
 16 17  2  0
 16 18  1  0
 10 11  1  0
 10 12  1  0
 10 13  1  0
 14 15  1  0
 18 19  1  0
 18 20  1  0
 18 21  1  0
M  END
>  <PDB_ID>  (571) 
pdb3nz4

>  <RESIDUE_NAME>  (571) 
ASN   HID

>  <FRAG_NAME>  (571) 
ACEM   NMA

>  <FRAG_ATOM_NUM>  (571) 
fragi: 9  fragj: 12

>  <atom.prop.CHAIN_ID>  (571) 
A A A A A A A A A Z Z Z Z Z Z Z Z Z Z Z Z

>  <atom.prop.IS_HEAVY_ATOM>  (571) 
1 0 0 0 1 1 0 0 1 1 0 0 0 1 0 1 1 1 0 0 0

>  <DIFUSE_FUNC_ATOM>  (571) 
n/a

>  <FINAL_SINGLE_POINT_ENERGY>  (571) 
0

>  <NONCOV_INTER_ENERGY_QM>  (571) 
0

>  <FF_Energy>  (571) 
3.82

>  <QM_Energy>  (571) 
18.44

>  <source>  (571) 
ACEM_nNMA_40

>  <Index>  (571) 
687

$$$$
ACEM-pdb4lmr-B-GLN-264:NMA-pdb4lmr-B-LEU-261
     RDKit          3D

 21 19  0  0  0  0  0  0  0  0999 V2000
   -5.7918    1.3513   -1.2922 C   0  0  0  0  0  0  0  0  0  0  0  0
   -6.2818    2.0771   -0.8081 H   0  0  0  0  0  0  0  0  0  0  0  0
   -6.4392    0.6432   -1.5732 H   0  0  0  0  0  0  0  0  0  0  0  0
   -5.3290    1.7756   -2.1832 H   0  0  0  0  0  0  0  0  0  0  0  0
   -4.7822    0.7303   -0.3337 C   0  0  0  0  0  0  0  0  0  0  0  0
   -3.5425    0.6159   -0.7850 N   0  0  0  0  0  0  0  0  0  0  0  0
   -2.8087    0.2233   -0.1968 H   0  0  0  0  0  0  0  0  0  0  0  0
   -3.3292    0.9265   -1.7308 H   0  0  0  0  0  0  0  0  0  0  0  0
   -5.1137    0.3532    0.8003 O   0  0  0  0  0  0  0  0  0  0  0  0
   -1.0765   -2.1270   -0.2823 C   0  0  0  0  0  0  0  0  0  0  0  0
   -0.1821   -2.3729   -0.6727 H   0  0  0  0  0  0  0  0  0  0  0  0
   -1.8650   -2.3986   -0.9841 H   0  0  0  0  0  0  0  0  0  0  0  0
   -1.0926   -2.7213    0.6312 H   0  0  0  0  0  0  0  0  0  0  0  0
   -1.1167   -0.7057    0.0000 N   0  0  0  0  0  0  0  0  0  0  0  0
   -1.9771   -0.1799    0.2089 H   0  0  0  0  0  0  0  0  0  0  0  0
    0.0000    0.0000    0.0000 C   0  0  0  0  0  0  0  0  0  0  0  0
    1.1167   -0.5184   -0.0000 O   0  0  0  0  0  0  0  0  0  0  0  0
   -0.1677    1.5034   -0.0236 C   0  0  0  0  0  0  0  0  0  0  0  0
   -1.1234    1.7259    0.2148 H   0  0  0  0  0  0  0  0  0  0  0  0
    0.4875    1.9934    0.6967 H   0  0  0  0  0  0  0  0  0  0  0  0
    0.0322    1.8435   -1.0398 H   0  0  0  0  0  0  0  0  0  0  0  0
  1  5  1  0
  5  6  1  0
  5  9  2  0
  1  2  1  0
  1  3  1  0
  1  4  1  0
  6  7  1  0
  6  8  1  0
 10 14  1  0
 14 16  1  0
 16 17  2  0
 16 18  1  0
 10 11  1  0
 10 12  1  0
 10 13  1  0
 14 15  1  0
 18 19  1  0
 18 20  1  0
 18 21  1  0
M  END
>  <PDB_ID>  (572) 
pdb4lmr

>  <RESIDUE_NAME>  (572) 
GLN   LEU

>  <FRAG_NAME>  (572) 
ACEM   NMA

>  <FRAG_ATOM_NUM>  (572) 
fragi: 9  fragj: 12

>  <atom.prop.CHAIN_ID>  (572) 
A A A A A A A A A Z Z Z Z Z Z Z Z Z Z Z Z

>  <atom.prop.IS_HEAVY_ATOM>  (572) 
1 0 0 0 1 1 0 0 1 1 0 0 0 1 0 1 1 1 0 0 0

>  <DIFUSE_FUNC_ATOM>  (572) 
n/a

>  <FINAL_SINGLE_POINT_ENERGY>  (572) 
0

>  <NONCOV_INTER_ENERGY_QM>  (572) 
0

>  <FF_Energy>  (572) 
9.98

>  <QM_Energy>  (572) 
24.41

>  <source>  (572) 
ACEM_nNMA_40

>  <Index>  (572) 
3211

$$$$
ACEM-pdb3o63-A-GLN-126:NMA-pdb3o63-A-THR-121
     RDKit          3D

 21 19  0  0  0  0  0  0  0  0999 V2000
   -5.0668    1.2372   -0.7874 C   0  0  0  0  0  0  0  0  0  0  0  0
   -5.7733    1.9233   -0.5984 H   0  0  0  0  0  0  0  0  0  0  0  0
   -5.4563    0.5188   -1.3681 H   0  0  0  0  0  0  0  0  0  0  0  0
   -4.2583    1.7203   -1.3360 H   0  0  0  0  0  0  0  0  0  0  0  0
   -4.6254    0.6200    0.5229 C   0  0  0  0  0  0  0  0  0  0  0  0
   -3.4020    0.1112    0.5464 N   0  0  0  0  0  0  0  0  0  0  0  0
   -3.0265   -0.3105    1.3975 H   0  0  0  0  0  0  0  0  0  0  0  0
   -2.8363    0.1435   -0.2994 H   0  0  0  0  0  0  0  0  0  0  0  0
   -5.3654    0.6162    1.5088 O   0  0  0  0  0  0  0  0  0  0  0  0
   -1.0908   -2.1751    0.0767 C   0  0  0  0  0  0  0  0  0  0  0  0
   -0.1014   -2.4721    0.0140 H   0  0  0  0  0  0  0  0  0  0  0  0
   -1.6508   -2.7365   -0.6711 H   0  0  0  0  0  0  0  0  0  0  0  0
   -1.3958   -2.4744    1.0795 H   0  0  0  0  0  0  0  0  0  0  0  0
   -1.1246   -0.7161   -0.0000 N   0  0  0  0  0  0  0  0  0  0  0  0
   -1.9958   -0.1641   -0.0572 H   0  0  0  0  0  0  0  0  0  0  0  0
    0.0000    0.0000    0.0000 C   0  0  0  0  0  0  0  0  0  0  0  0
    1.1246   -0.5047    0.0000 O   0  0  0  0  0  0  0  0  0  0  0  0
   -0.1662    1.5096   -0.0071 C   0  0  0  0  0  0  0  0  0  0  0  0
   -1.0548    1.7356    0.3899 H   0  0  0  0  0  0  0  0  0  0  0  0
    0.6119    1.9530    0.6144 H   0  0  0  0  0  0  0  0  0  0  0  0
   -0.1371    1.8795   -1.0319 H   0  0  0  0  0  0  0  0  0  0  0  0
  1  5  1  0
  5  6  1  0
  5  9  2  0
  1  2  1  0
  1  3  1  0
  1  4  1  0
  6  7  1  0
  6  8  1  0
 10 14  1  0
 14 16  1  0
 16 17  2  0
 16 18  1  0
 10 11  1  0
 10 12  1  0
 10 13  1  0
 14 15  1  0
 18 19  1  0
 18 20  1  0
 18 21  1  0
M  END
>  <PDB_ID>  (573) 
pdb3o63

>  <RESIDUE_NAME>  (573) 
GLN   THR

>  <FRAG_NAME>  (573) 
ACEM   NMA

>  <FRAG_ATOM_NUM>  (573) 
fragi: 9  fragj: 12

>  <atom.prop.CHAIN_ID>  (573) 
A A A A A A A A A Z Z Z Z Z Z Z Z Z Z Z Z

>  <atom.prop.IS_HEAVY_ATOM>  (573) 
1 0 0 0 1 1 0 0 1 1 0 0 0 1 0 1 1 1 0 0 0

>  <DIFUSE_FUNC_ATOM>  (573) 
n/a

>  <FINAL_SINGLE_POINT_ENERGY>  (573) 
0

>  <NONCOV_INTER_ENERGY_QM>  (573) 
0

>  <FF_Energy>  (573) 
28.89

>  <QM_Energy>  (573) 
44.13

>  <source>  (573) 
ACEM_nNMA_40

>  <Index>  (573) 
4180

$$$$
ACEM-pdb3nz4-B-GLN-336:NMA-pdb3nz4-B-PRO-283
     RDKit          3D

 21 19  0  0  0  0  0  0  0  0999 V2000
   -4.5278   -0.9693    1.7138 C   0  0  0  0  0  0  0  0  0  0  0  0
   -3.9790   -0.4241    2.3440 H   0  0  0  0  0  0  0  0  0  0  0  0
   -4.0218   -1.7846    1.4402 H   0  0  0  0  0  0  0  0  0  0  0  0
   -5.4423   -1.2775    2.2204 H   0  0  0  0  0  0  0  0  0  0  0  0
   -4.7790   -0.1127    0.4364 C   0  0  0  0  0  0  0  0  0  0  0  0
   -3.8066   -0.1191   -0.4760 N   0  0  0  0  0  0  0  0  0  0  0  0
   -3.9108    0.4023   -1.3300 H   0  0  0  0  0  0  0  0  0  0  0  0
   -2.9661   -0.6585   -0.2881 H   0  0  0  0  0  0  0  0  0  0  0  0
   -5.8263    0.5357    0.2858 O   0  0  0  0  0  0  0  0  0  0  0  0
   -1.0583   -2.1837    0.0034 C   0  0  0  0  0  0  0  0  0  0  0  0
   -0.5951   -2.4989    0.8442 H   0  0  0  0  0  0  0  0  0  0  0  0
   -1.9995   -2.5525    0.0159 H   0  0  0  0  0  0  0  0  0  0  0  0
   -0.5300   -2.5729   -0.8669 H   0  0  0  0  0  0  0  0  0  0  0  0
   -1.1125   -0.7251   -0.0000 N   0  0  0  0  0  0  0  0  0  0  0  0
   -1.9923   -0.1835   -0.0029 H   0  0  0  0  0  0  0  0  0  0  0  0
    0.0000    0.0000    0.0000 C   0  0  0  0  0  0  0  0  0  0  0  0
    1.1125   -0.5107   -0.0000 O   0  0  0  0  0  0  0  0  0  0  0  0
   -0.1438    1.5164   -0.0402 C   0  0  0  0  0  0  0  0  0  0  0  0
    0.7526    1.9551   -0.1982 H   0  0  0  0  0  0  0  0  0  0  0  0
   -0.8669    1.8346   -0.7912 H   0  0  0  0  0  0  0  0  0  0  0  0
   -0.5634    1.9000    0.8899 H   0  0  0  0  0  0  0  0  0  0  0  0
  1  5  1  0
  5  6  1  0
  5  9  2  0
  1  2  1  0
  1  3  1  0
  1  4  1  0
  6  7  1  0
  6  8  1  0
 10 14  1  0
 14 16  1  0
 16 17  2  0
 16 18  1  0
 10 11  1  0
 10 12  1  0
 10 13  1  0
 14 15  1  0
 18 19  1  0
 18 20  1  0
 18 21  1  0
M  END
>  <PDB_ID>  (574) 
pdb3nz4

>  <RESIDUE_NAME>  (574) 
GLN   PRO

>  <FRAG_NAME>  (574) 
ACEM   NMA

>  <FRAG_ATOM_NUM>  (574) 
fragi: 9  fragj: 12

>  <atom.prop.CHAIN_ID>  (574) 
A A A A A A A A A Z Z Z Z Z Z Z Z Z Z Z Z

>  <atom.prop.IS_HEAVY_ATOM>  (574) 
1 0 0 0 1 1 0 0 1 1 0 0 0 1 0 1 1 1 0 0 0

>  <DIFUSE_FUNC_ATOM>  (574) 
n/a

>  <FINAL_SINGLE_POINT_ENERGY>  (574) 
0

>  <NONCOV_INTER_ENERGY_QM>  (574) 
0

>  <FF_Energy>  (574) 
5.37

>  <QM_Energy>  (574) 
18.67

>  <source>  (574) 
ACEM_nNMA_40

>  <Index>  (574) 
5229

$$$$
ACEM-pdb3o6l-H-ASN-200:NMA-pdb3o6l-H-ASN-159
     RDKit          3D

 21 19  0  0  0  0  0  0  0  0999 V2000
   -5.9382   -1.1751    0.7695 C   0  0  0  0  0  0  0  0  0  0  0  0
   -5.6460   -1.7503    1.5188 H   0  0  0  0  0  0  0  0  0  0  0  0
   -6.3657   -1.7056    0.0522 H   0  0  0  0  0  0  0  0  0  0  0  0
   -6.6585   -0.4484    1.1451 H   0  0  0  0  0  0  0  0  0  0  0  0
   -4.6782   -0.4915    0.1725 C   0  0  0  0  0  0  0  0  0  0  0  0
   -3.5219   -0.6434    0.8140 N   0  0  0  0  0  0  0  0  0  0  0  0
   -3.5163   -1.2010    1.6562 H   0  0  0  0  0  0  0  0  0  0  0  0
   -2.6942   -0.2243    0.4771 H   0  0  0  0  0  0  0  0  0  0  0  0
   -4.7658    0.0809   -0.8979 O   0  0  0  0  0  0  0  0  0  0  0  0
   -1.2138   -2.1454   -0.1291 C   0  0  0  0  0  0  0  0  0  0  0  0
   -2.1636   -2.4201    0.1086 H   0  0  0  0  0  0  0  0  0  0  0  0
   -0.5299   -2.6699    0.5382 H   0  0  0  0  0  0  0  0  0  0  0  0
   -1.0959   -2.4632   -1.1650 H   0  0  0  0  0  0  0  0  0  0  0  0
   -1.1247   -0.7053    0.0000 N   0  0  0  0  0  0  0  0  0  0  0  0
   -1.9937   -0.0954    0.1070 H   0  0  0  0  0  0  0  0  0  0  0  0
    0.0000    0.0000    0.0000 C   0  0  0  0  0  0  0  0  0  0  0  0
    1.1247   -0.4974    0.0000 O   0  0  0  0  0  0  0  0  0  0  0  0
   -0.2197    1.4803    0.0967 C   0  0  0  0  0  0  0  0  0  0  0  0
   -0.7579    1.7632   -0.7033 H   0  0  0  0  0  0  0  0  0  0  0  0
   -0.8183    1.7162    0.9765 H   0  0  0  0  0  0  0  0  0  0  0  0
    0.7145    2.0420    0.0860 H   0  0  0  0  0  0  0  0  0  0  0  0
  1  5  1  0
  5  6  1  0
  5  9  2  0
  1  2  1  0
  1  3  1  0
  1  4  1  0
  6  7  1  0
  6  8  1  0
 10 14  1  0
 14 16  1  0
 16 17  2  0
 16 18  1  0
 10 11  1  0
 10 12  1  0
 10 13  1  0
 14 15  1  0
 18 19  1  0
 18 20  1  0
 18 21  1  0
M  END
>  <PDB_ID>  (575) 
pdb3o6l

>  <RESIDUE_NAME>  (575) 
ASN   ASN

>  <FRAG_NAME>  (575) 
ACEM   NMA

>  <FRAG_ATOM_NUM>  (575) 
fragi: 9  fragj: 12

>  <atom.prop.CHAIN_ID>  (575) 
A A A A A A A A A Z Z Z Z Z Z Z Z Z Z Z Z

>  <atom.prop.IS_HEAVY_ATOM>  (575) 
1 0 0 0 1 1 0 0 1 1 0 0 0 1 0 1 1 1 0 0 0

>  <DIFUSE_FUNC_ATOM>  (575) 
n/a

>  <FINAL_SINGLE_POINT_ENERGY>  (575) 
0

>  <NONCOV_INTER_ENERGY_QM>  (575) 
0

>  <FF_Energy>  (575) 
29.6

>  <QM_Energy>  (575) 
56.48

>  <source>  (575) 
ACEM_nNMA_40

>  <Index>  (575) 
5621

$$$$
ACEM-pdb4lsm-B-GLN-148:NMA-pdb4lsm-B-TYR-145
     RDKit          3D

 21 19  0  0  0  0  0  0  0  0999 V2000
   -6.2039   -0.9089   -0.1952 C   0  0  0  0  0  0  0  0  0  0  0  0
   -6.9328   -0.5614    0.3992 H   0  0  0  0  0  0  0  0  0  0  0  0
   -6.2101   -1.9116   -0.1699 H   0  0  0  0  0  0  0  0  0  0  0  0
   -6.4053   -0.5858   -1.2166 H   0  0  0  0  0  0  0  0  0  0  0  0
   -4.8643   -0.4219    0.3530 C   0  0  0  0  0  0  0  0  0  0  0  0
   -3.8896   -0.3026   -0.5257 N   0  0  0  0  0  0  0  0  0  0  0  0
   -2.9665    0.0307   -0.2385 H   0  0  0  0  0  0  0  0  0  0  0  0
   -4.0620   -0.5475   -1.4989 H   0  0  0  0  0  0  0  0  0  0  0  0
   -4.7091   -0.1631    1.5475 O   0  0  0  0  0  0  0  0  0  0  0  0
   -1.1527   -2.1764    0.0342 C   0  0  0  0  0  0  0  0  0  0  0  0
   -0.1943   -2.5181   -0.0105 H   0  0  0  0  0  0  0  0  0  0  0  0
   -1.7157   -2.6280   -0.7826 H   0  0  0  0  0  0  0  0  0  0  0  0
   -1.5576   -2.5093    0.9899 H   0  0  0  0  0  0  0  0  0  0  0  0
   -1.1290   -0.7147    0.0000 N   0  0  0  0  0  0  0  0  0  0  0  0
   -2.0005   -0.1331   -0.0273 H   0  0  0  0  0  0  0  0  0  0  0  0
    0.0000    0.0000    0.0000 C   0  0  0  0  0  0  0  0  0  0  0  0
    1.1290   -0.4907   -0.0000 O   0  0  0  0  0  0  0  0  0  0  0  0
   -0.1586    1.5132    0.0306 C   0  0  0  0  0  0  0  0  0  0  0  0
   -1.0769    1.7248    0.3696 H   0  0  0  0  0  0  0  0  0  0  0  0
    0.5711    1.9374    0.7203 H   0  0  0  0  0  0  0  0  0  0  0  0
   -0.0122    1.9466   -0.9588 H   0  0  0  0  0  0  0  0  0  0  0  0
  1  5  1  0
  5  6  1  0
  5  9  2  0
  1  2  1  0
  1  3  1  0
  1  4  1  0
  6  7  1  0
  6  8  1  0
 10 14  1  0
 14 16  1  0
 16 17  2  0
 16 18  1  0
 10 11  1  0
 10 12  1  0
 10 13  1  0
 14 15  1  0
 18 19  1  0
 18 20  1  0
 18 21  1  0
M  END
>  <PDB_ID>  (576) 
pdb4lsm

>  <RESIDUE_NAME>  (576) 
GLN   TYR

>  <FRAG_NAME>  (576) 
ACEM   NMA

>  <FRAG_ATOM_NUM>  (576) 
fragi: 9  fragj: 12

>  <atom.prop.CHAIN_ID>  (576) 
A A A A A A A A A Z Z Z Z Z Z Z Z Z Z Z Z

>  <atom.prop.IS_HEAVY_ATOM>  (576) 
1 0 0 0 1 1 0 0 1 1 0 0 0 1 0 1 1 1 0 0 0

>  <DIFUSE_FUNC_ATOM>  (576) 
n/a

>  <FINAL_SINGLE_POINT_ENERGY>  (576) 
0

>  <NONCOV_INTER_ENERGY_QM>  (576) 
0

>  <FF_Energy>  (576) 
10.57

>  <QM_Energy>  (576) 
25.41

>  <source>  (576) 
ACEM_nNMA_40

>  <Index>  (576) 
8256

$$$$
ACEM-pdb3o2q-E-GLN-163:NMA-pdb3o2q-E-PRO-5
     RDKit          3D

 21 19  0  0  0  0  0  0  0  0999 V2000
   -5.0870    0.6327    0.3980 C   0  0  0  0  0  0  0  0  0  0  0  0
   -4.3380    0.4215    1.0247 H   0  0  0  0  0  0  0  0  0  0  0  0
   -5.6197   -0.1932    0.2211 H   0  0  0  0  0  0  0  0  0  0  0  0
   -5.7318    1.3858    0.8508 H   0  0  0  0  0  0  0  0  0  0  0  0
   -4.5077    1.1188   -0.8948 C   0  0  0  0  0  0  0  0  0  0  0  0
   -3.3529    0.5854   -1.2630 N   0  0  0  0  0  0  0  0  0  0  0  0
   -2.8992    0.8545   -2.1392 H   0  0  0  0  0  0  0  0  0  0  0  0
   -2.9110   -0.1049   -0.6553 H   0  0  0  0  0  0  0  0  0  0  0  0
   -5.1000    1.9708   -1.5693 O   0  0  0  0  0  0  0  0  0  0  0  0
   -1.2564   -2.1352    0.1155 C   0  0  0  0  0  0  0  0  0  0  0  0
   -0.7549   -2.4309    0.9561 H   0  0  0  0  0  0  0  0  0  0  0  0
   -0.8581   -2.6902   -0.7339 H   0  0  0  0  0  0  0  0  0  0  0  0
   -2.3177   -2.3699    0.1972 H   0  0  0  0  0  0  0  0  0  0  0  0
   -1.1380   -0.6928   -0.0000 N   0  0  0  0  0  0  0  0  0  0  0  0
   -1.9982   -0.0646   -0.0966 H   0  0  0  0  0  0  0  0  0  0  0  0
    0.0000    0.0000    0.0000 C   0  0  0  0  0  0  0  0  0  0  0  0
    1.1380   -0.5116    0.0000 O   0  0  0  0  0  0  0  0  0  0  0  0
   -0.1891    1.5363   -0.0084 C   0  0  0  0  0  0  0  0  0  0  0  0
   -0.9777    1.7942   -0.5752 H   0  0  0  0  0  0  0  0  0  0  0  0
   -0.3021    1.9419    0.9970 H   0  0  0  0  0  0  0  0  0  0  0  0
    0.6862    2.0435   -0.4142 H   0  0  0  0  0  0  0  0  0  0  0  0
  1  5  1  0
  5  6  1  0
  5  9  2  0
  1  2  1  0
  1  3  1  0
  1  4  1  0
  6  7  1  0
  6  8  1  0
 10 14  1  0
 14 16  1  0
 16 17  2  0
 16 18  1  0
 10 11  1  0
 10 12  1  0
 10 13  1  0
 14 15  1  0
 18 19  1  0
 18 20  1  0
 18 21  1  0
M  END
>  <PDB_ID>  (577) 
pdb3o2q

>  <RESIDUE_NAME>  (577) 
GLN   PRO

>  <FRAG_NAME>  (577) 
ACEM   NMA

>  <FRAG_ATOM_NUM>  (577) 
fragi: 9  fragj: 12

>  <atom.prop.CHAIN_ID>  (577) 
A A A A A A A A A Z Z Z Z Z Z Z Z Z Z Z Z

>  <atom.prop.IS_HEAVY_ATOM>  (577) 
1 0 0 0 1 1 0 0 1 1 0 0 0 1 0 1 1 1 0 0 0

>  <DIFUSE_FUNC_ATOM>  (577) 
n/a

>  <FINAL_SINGLE_POINT_ENERGY>  (577) 
0

>  <NONCOV_INTER_ENERGY_QM>  (577) 
0

>  <FF_Energy>  (577) 
7.35

>  <QM_Energy>  (577) 
20.63

>  <source>  (577) 
ACEM_nNMA_40

>  <Index>  (577) 
8488

$$$$
ACEM-pdb3o9z-B-ASN-96:NMA-pdb3o9z-B-ARG-122
     RDKit          3D

 21 19  0  0  0  0  0  0  0  0999 V2000
   -5.4752   -0.1287   -0.8757 C   0  0  0  0  0  0  0  0  0  0  0  0
   -6.4249    0.1319   -1.0056 H   0  0  0  0  0  0  0  0  0  0  0  0
   -5.4011   -1.1037   -0.7003 H   0  0  0  0  0  0  0  0  0  0  0  0
   -4.9306    0.0961   -1.7928 H   0  0  0  0  0  0  0  0  0  0  0  0
   -4.9162    0.6247    0.2983 C   0  0  0  0  0  0  0  0  0  0  0  0
   -3.5986    0.5682    0.4642 N   0  0  0  0  0  0  0  0  0  0  0  0
   -3.0354    0.0481   -0.1790 H   0  0  0  0  0  0  0  0  0  0  0  0
   -3.1694    1.0453    1.2312 H   0  0  0  0  0  0  0  0  0  0  0  0
   -5.6739    1.1897    1.0845 O   0  0  0  0  0  0  0  0  0  0  0  0
   -1.0980   -2.1184    0.3287 C   0  0  0  0  0  0  0  0  0  0  0  0
   -0.1608   -2.4469    0.3110 H   0  0  0  0  0  0  0  0  0  0  0  0
   -1.6601   -2.6452   -0.4424 H   0  0  0  0  0  0  0  0  0  0  0  0
   -1.5491   -2.2909    1.3059 H   0  0  0  0  0  0  0  0  0  0  0  0
   -1.1233   -0.7041   -0.0000 N   0  0  0  0  0  0  0  0  0  0  0  0
   -1.9759   -0.1810   -0.2426 H   0  0  0  0  0  0  0  0  0  0  0  0
    0.0000    0.0000    0.0000 C   0  0  0  0  0  0  0  0  0  0  0  0
    1.1233   -0.4916   -0.0000 O   0  0  0  0  0  0  0  0  0  0  0  0
   -0.2324    1.5186    0.0153 C   0  0  0  0  0  0  0  0  0  0  0  0
   -0.8247    1.7375    0.7977 H   0  0  0  0  0  0  0  0  0  0  0  0
    0.7130    2.0511    0.1199 H   0  0  0  0  0  0  0  0  0  0  0  0
   -0.7209    1.8629   -0.8963 H   0  0  0  0  0  0  0  0  0  0  0  0
  1  5  1  0
  5  6  1  0
  5  9  2  0
  1  2  1  0
  1  3  1  0
  1  4  1  0
  6  7  1  0
  6  8  1  0
 10 14  1  0
 14 16  1  0
 16 17  2  0
 16 18  1  0
 10 11  1  0
 10 12  1  0
 10 13  1  0
 14 15  1  0
 18 19  1  0
 18 20  1  0
 18 21  1  0
M  END
>  <PDB_ID>  (578) 
pdb3o9z

>  <RESIDUE_NAME>  (578) 
ASN   ARG

>  <FRAG_NAME>  (578) 
ACEM   NMA

>  <FRAG_ATOM_NUM>  (578) 
fragi: 9  fragj: 12

>  <atom.prop.CHAIN_ID>  (578) 
A A A A A A A A A Z Z Z Z Z Z Z Z Z Z Z Z

>  <atom.prop.IS_HEAVY_ATOM>  (578) 
1 0 0 0 1 1 0 0 1 1 0 0 0 1 0 1 1 1 0 0 0

>  <DIFUSE_FUNC_ATOM>  (578) 
n/a

>  <FINAL_SINGLE_POINT_ENERGY>  (578) 
0

>  <NONCOV_INTER_ENERGY_QM>  (578) 
0

>  <FF_Energy>  (578) 
10.19

>  <QM_Energy>  (578) 
21.4

>  <source>  (578) 
ACEM_nNMA_40

>  <Index>  (578) 
11658

$$$$
ACEM-pdb3of1-A-GLN-214:NMA-pdb3of1-A-VAL-233
     RDKit          3D

 21 19  0  0  0  0  0  0  0  0999 V2000
   -5.6994    1.4204    0.4424 C   0  0  0  0  0  0  0  0  0  0  0  0
   -6.3403    0.6926    0.2100 H   0  0  0  0  0  0  0  0  0  0  0  0
   -5.9851    2.2743    0.0134 H   0  0  0  0  0  0  0  0  0  0  0  0
   -5.7198    1.5595    1.5233 H   0  0  0  0  0  0  0  0  0  0  0  0
   -4.3077    1.0375   -0.1100 C   0  0  0  0  0  0  0  0  0  0  0  0
   -3.3598    0.7926    0.7817 N   0  0  0  0  0  0  0  0  0  0  0  0
   -2.4317    0.5246    0.4894 H   0  0  0  0  0  0  0  0  0  0  0  0
   -3.5837    0.8818    1.7730 H   0  0  0  0  0  0  0  0  0  0  0  0
   -4.1097    0.9402   -1.3261 O   0  0  0  0  0  0  0  0  0  0  0  0
   -1.1909   -2.1579    0.2575 C   0  0  0  0  0  0  0  0  0  0  0  0
   -2.0892   -2.3364    0.7135 H   0  0  0  0  0  0  0  0  0  0  0  0
   -0.4173   -2.5557    0.9143 H   0  0  0  0  0  0  0  0  0  0  0  0
   -1.3085   -2.7558   -0.6463 H   0  0  0  0  0  0  0  0  0  0  0  0
   -1.1329   -0.7048   -0.0000 N   0  0  0  0  0  0  0  0  0  0  0  0
   -1.9908   -0.1381   -0.1999 H   0  0  0  0  0  0  0  0  0  0  0  0
    0.0000    0.0000    0.0000 C   0  0  0  0  0  0  0  0  0  0  0  0
    1.1329   -0.5105    0.0000 O   0  0  0  0  0  0  0  0  0  0  0  0
   -0.1522    1.5155    0.0210 C   0  0  0  0  0  0  0  0  0  0  0  0
   -1.0864    1.7252    0.2343 H   0  0  0  0  0  0  0  0  0  0  0  0
    0.4756    1.8289    0.8551 H   0  0  0  0  0  0  0  0  0  0  0  0
    0.1443    1.9637   -0.9273 H   0  0  0  0  0  0  0  0  0  0  0  0
  1  5  1  0
  5  6  1  0
  5  9  2  0
  1  2  1  0
  1  3  1  0
  1  4  1  0
  6  7  1  0
  6  8  1  0
 10 14  1  0
 14 16  1  0
 16 17  2  0
 16 18  1  0
 10 11  1  0
 10 12  1  0
 10 13  1  0
 14 15  1  0
 18 19  1  0
 18 20  1  0
 18 21  1  0
M  END
>  <PDB_ID>  (579) 
pdb3of1

>  <RESIDUE_NAME>  (579) 
GLN   VAL

>  <FRAG_NAME>  (579) 
ACEM   NMA

>  <FRAG_ATOM_NUM>  (579) 
fragi: 9  fragj: 12

>  <atom.prop.CHAIN_ID>  (579) 
A A A A A A A A A Z Z Z Z Z Z Z Z Z Z Z Z

>  <atom.prop.IS_HEAVY_ATOM>  (579) 
1 0 0 0 1 1 0 0 1 1 0 0 0 1 0 1 1 1 0 0 0

>  <DIFUSE_FUNC_ATOM>  (579) 
n/a

>  <FINAL_SINGLE_POINT_ENERGY>  (579) 
0

>  <NONCOV_INTER_ENERGY_QM>  (579) 
0

>  <FF_Energy>  (579) 
8.53

>  <QM_Energy>  (579) 
22.27

>  <source>  (579) 
ACEM_nNMA_40

>  <Index>  (579) 
14076

$$$$
ACEM-pdb3odu-A-ASN-101:NMA-pdb3odu-A-ARG-183
     RDKit          3D

 21 19  0  0  0  0  0  0  0  0999 V2000
   -5.7247    0.9694   -0.9262 C   0  0  0  0  0  0  0  0  0  0  0  0
   -5.8787    1.9565   -0.9430 H   0  0  0  0  0  0  0  0  0  0  0  0
   -6.5142    0.5135   -0.5175 H   0  0  0  0  0  0  0  0  0  0  0  0
   -5.6329    0.6247   -1.9562 H   0  0  0  0  0  0  0  0  0  0  0  0
   -4.5019    0.6807   -0.0801 C   0  0  0  0  0  0  0  0  0  0  0  0
   -3.7055   -0.2884   -0.5230 N   0  0  0  0  0  0  0  0  0  0  0  0
   -3.9228   -0.7733   -1.3684 H   0  0  0  0  0  0  0  0  0  0  0  0
   -2.8817   -0.5329   -0.0073 H   0  0  0  0  0  0  0  0  0  0  0  0
   -4.2582    1.3220    0.9438 O   0  0  0  0  0  0  0  0  0  0  0  0
   -1.0290   -2.2088   -0.1440 C   0  0  0  0  0  0  0  0  0  0  0  0
   -0.1452   -2.5309    0.2236 H   0  0  0  0  0  0  0  0  0  0  0  0
   -1.0937   -2.5277   -1.1844 H   0  0  0  0  0  0  0  0  0  0  0  0
   -1.8173   -2.6792    0.4436 H   0  0  0  0  0  0  0  0  0  0  0  0
   -1.0793   -0.7444   -0.0000 N   0  0  0  0  0  0  0  0  0  0  0  0
   -1.9780   -0.2254    0.1096 H   0  0  0  0  0  0  0  0  0  0  0  0
    0.0000    0.0000    0.0000 C   0  0  0  0  0  0  0  0  0  0  0  0
    1.0793   -0.4673   -0.0000 O   0  0  0  0  0  0  0  0  0  0  0  0
   -0.2085    1.5007   -0.0273 C   0  0  0  0  0  0  0  0  0  0  0  0
   -0.9317    1.7389    0.6669 H   0  0  0  0  0  0  0  0  0  0  0  0
    0.6717    2.1117    0.1729 H   0  0  0  0  0  0  0  0  0  0  0  0
   -0.6601    1.7843   -0.9779 H   0  0  0  0  0  0  0  0  0  0  0  0
  1  5  1  0
  5  6  1  0
  5  9  2  0
  1  2  1  0
  1  3  1  0
  1  4  1  0
  6  7  1  0
  6  8  1  0
 10 14  1  0
 14 16  1  0
 16 17  2  0
 16 18  1  0
 10 11  1  0
 10 12  1  0
 10 13  1  0
 14 15  1  0
 18 19  1  0
 18 20  1  0
 18 21  1  0
M  END
>  <PDB_ID>  (580) 
pdb3odu

>  <RESIDUE_NAME>  (580) 
ASN   ARG

>  <FRAG_NAME>  (580) 
ACEM   NMA

>  <FRAG_ATOM_NUM>  (580) 
fragi: 9  fragj: 12

>  <atom.prop.CHAIN_ID>  (580) 
A A A A A A A A A Z Z Z Z Z Z Z Z Z Z Z Z

>  <atom.prop.IS_HEAVY_ATOM>  (580) 
1 0 0 0 1 1 0 0 1 1 0 0 0 1 0 1 1 1 0 0 0

>  <DIFUSE_FUNC_ATOM>  (580) 
n/a

>  <FINAL_SINGLE_POINT_ENERGY>  (580) 
0

>  <NONCOV_INTER_ENERGY_QM>  (580) 
0

>  <FF_Energy>  (580) 
8.24

>  <QM_Energy>  (580) 
30.44

>  <source>  (580) 
ACEM_nNMA_40

>  <Index>  (580) 
14124

$$$$
ACEM-pdb4m91-B-ASN-8:NMA-pdb4m91-A-CYX-58
     RDKit          3D

 21 19  0  0  0  0  0  0  0  0999 V2000
   -5.8029    0.4353    0.8692 C   0  0  0  0  0  0  0  0  0  0  0  0
   -5.7955    0.5387    1.8602 H   0  0  0  0  0  0  0  0  0  0  0  0
   -6.6915    0.1031    0.5650 H   0  0  0  0  0  0  0  0  0  0  0  0
   -5.5891    1.3947    0.3983 H   0  0  0  0  0  0  0  0  0  0  0  0
   -4.7635   -0.6010    0.4995 C   0  0  0  0  0  0  0  0  0  0  0  0
   -3.5358   -0.1455    0.2439 N   0  0  0  0  0  0  0  0  0  0  0  0
   -3.3477    0.8353    0.3087 H   0  0  0  0  0  0  0  0  0  0  0  0
   -2.8101   -0.7800   -0.0108 H   0  0  0  0  0  0  0  0  0  0  0  0
   -5.0732   -1.7909    0.3319 O   0  0  0  0  0  0  0  0  0  0  0  0
   -1.1160   -2.1220    0.2072 C   0  0  0  0  0  0  0  0  0  0  0  0
   -0.6079   -2.3156    1.0626 H   0  0  0  0  0  0  0  0  0  0  0  0
   -0.6271   -2.6667   -0.6005 H   0  0  0  0  0  0  0  0  0  0  0  0
   -2.1408   -2.4755    0.3209 H   0  0  0  0  0  0  0  0  0  0  0  0
   -1.1123   -0.6736    0.0000 N   0  0  0  0  0  0  0  0  0  0  0  0
   -1.9778   -0.1242   -0.1539 H   0  0  0  0  0  0  0  0  0  0  0  0
    0.0000    0.0000    0.0000 C   0  0  0  0  0  0  0  0  0  0  0  0
    1.1123   -0.5709   -0.0000 O   0  0  0  0  0  0  0  0  0  0  0  0
   -0.1292    1.5276   -0.0444 C   0  0  0  0  0  0  0  0  0  0  0  0
   -1.0202    1.7497   -0.4308 H   0  0  0  0  0  0  0  0  0  0  0  0
   -0.0878    1.9077    0.9763 H   0  0  0  0  0  0  0  0  0  0  0  0
    0.6492    1.9624   -0.6714 H   0  0  0  0  0  0  0  0  0  0  0  0
  1  5  1  0
  5  6  1  0
  5  9  2  0
  1  2  1  0
  1  3  1  0
  1  4  1  0
  6  7  1  0
  6  8  1  0
 10 14  1  0
 14 16  1  0
 16 17  2  0
 16 18  1  0
 10 11  1  0
 10 12  1  0
 10 13  1  0
 14 15  1  0
 18 19  1  0
 18 20  1  0
 18 21  1  0
M  END
>  <PDB_ID>  (581) 
pdb4m91

>  <RESIDUE_NAME>  (581) 
ASN   CYX

>  <FRAG_NAME>  (581) 
ACEM   NMA

>  <FRAG_ATOM_NUM>  (581) 
fragi: 9  fragj: 12

>  <atom.prop.CHAIN_ID>  (581) 
A A A A A A A A A Z Z Z Z Z Z Z Z Z Z Z Z

>  <atom.prop.IS_HEAVY_ATOM>  (581) 
1 0 0 0 1 1 0 0 1 1 0 0 0 1 0 1 1 1 0 0 0

>  <DIFUSE_FUNC_ATOM>  (581) 
n/a

>  <FINAL_SINGLE_POINT_ENERGY>  (581) 
0

>  <NONCOV_INTER_ENERGY_QM>  (581) 
0

>  <FF_Energy>  (581) 
24.49

>  <QM_Energy>  (581) 
37.71

>  <source>  (581) 
ACEM_nNMA_40

>  <Index>  (581) 
17742

$$$$
ACEM-pdb3ojg-A-GLN-34:NMA-pdb3ojg-A-PRO-31
     RDKit          3D

 21 19  0  0  0  0  0  0  0  0999 V2000
   -6.2603   -0.0301    1.1753 C   0  0  0  0  0  0  0  0  0  0  0  0
   -7.0596    0.4103    0.7573 H   0  0  0  0  0  0  0  0  0  0  0  0
   -6.2185    0.2236    2.1454 H   0  0  0  0  0  0  0  0  0  0  0  0
   -6.3963   -1.1097    1.1129 H   0  0  0  0  0  0  0  0  0  0  0  0
   -4.9978    0.4967    0.4797 C   0  0  0  0  0  0  0  0  0  0  0  0
   -3.9837   -0.3599    0.3854 N   0  0  0  0  0  0  0  0  0  0  0  0
   -3.1217   -0.0862   -0.0742 H   0  0  0  0  0  0  0  0  0  0  0  0
   -4.0878   -1.2891    0.7822 H   0  0  0  0  0  0  0  0  0  0  0  0
   -4.9356    1.6409    0.0281 O   0  0  0  0  0  0  0  0  0  0  0  0
   -1.1607   -2.1429    0.1306 C   0  0  0  0  0  0  0  0  0  0  0  0
   -1.7186   -2.5386   -0.6110 H   0  0  0  0  0  0  0  0  0  0  0  0
   -0.2248   -2.5112    0.0450 H   0  0  0  0  0  0  0  0  0  0  0  0
   -1.5771   -2.4432    1.0921 H   0  0  0  0  0  0  0  0  0  0  0  0
   -1.1303   -0.6997    0.0000 N   0  0  0  0  0  0  0  0  0  0  0  0
   -1.9949   -0.1148   -0.1028 H   0  0  0  0  0  0  0  0  0  0  0  0
    0.0000    0.0000    0.0000 C   0  0  0  0  0  0  0  0  0  0  0  0
    1.1303   -0.5031   -0.0000 O   0  0  0  0  0  0  0  0  0  0  0  0
   -0.1721    1.5121    0.0001 C   0  0  0  0  0  0  0  0  0  0  0  0
   -1.1359    1.7633    0.1569 H   0  0  0  0  0  0  0  0  0  0  0  0
    0.4739    1.9839    0.7404 H   0  0  0  0  0  0  0  0  0  0  0  0
    0.1802    1.9347   -0.9408 H   0  0  0  0  0  0  0  0  0  0  0  0
  1  5  1  0
  5  6  1  0
  5  9  2  0
  1  2  1  0
  1  3  1  0
  1  4  1  0
  6  7  1  0
  6  8  1  0
 10 14  1  0
 14 16  1  0
 16 17  2  0
 16 18  1  0
 10 11  1  0
 10 12  1  0
 10 13  1  0
 14 15  1  0
 18 19  1  0
 18 20  1  0
 18 21  1  0
M  END
>  <PDB_ID>  (582) 
pdb3ojg

>  <RESIDUE_NAME>  (582) 
GLN   PRO

>  <FRAG_NAME>  (582) 
ACEM   NMA

>  <FRAG_ATOM_NUM>  (582) 
fragi: 9  fragj: 12

>  <atom.prop.CHAIN_ID>  (582) 
A A A A A A A A A Z Z Z Z Z Z Z Z Z Z Z Z

>  <atom.prop.IS_HEAVY_ATOM>  (582) 
1 0 0 0 1 1 0 0 1 1 0 0 0 1 0 1 1 1 0 0 0

>  <DIFUSE_FUNC_ATOM>  (582) 
n/a

>  <FINAL_SINGLE_POINT_ENERGY>  (582) 
0

>  <NONCOV_INTER_ENERGY_QM>  (582) 
0

>  <FF_Energy>  (582) 
5.86

>  <QM_Energy>  (582) 
17.13

>  <source>  (582) 
ACEM_nNMA_40

>  <Index>  (582) 
18425

$$$$
ACEM-pdb3oj6-B-ASN-48:NMA-pdb3oj6-B-TYR-30
     RDKit          3D

 21 19  0  0  0  0  0  0  0  0999 V2000
   -4.5044    1.5295   -3.2910 C   0  0  0  0  0  0  0  0  0  0  0  0
   -5.3530    2.0333   -3.1513 H   0  0  0  0  0  0  0  0  0  0  0  0
   -4.6781    0.7143   -3.8388 H   0  0  0  0  0  0  0  0  0  0  0  0
   -3.8039    2.1680   -3.8293 H   0  0  0  0  0  0  0  0  0  0  0  0
   -3.9808    1.0872   -1.9280 C   0  0  0  0  0  0  0  0  0  0  0  0
   -2.8750    0.3922   -1.9384 N   0  0  0  0  0  0  0  0  0  0  0  0
   -2.4052    0.1751   -2.7986 H   0  0  0  0  0  0  0  0  0  0  0  0
   -2.4730    0.0609   -1.0737 H   0  0  0  0  0  0  0  0  0  0  0  0
   -4.5810    1.3673   -0.8719 O   0  0  0  0  0  0  0  0  0  0  0  0
   -1.1547   -2.1244    0.2881 C   0  0  0  0  0  0  0  0  0  0  0  0
   -0.2232   -2.3993    0.5916 H   0  0  0  0  0  0  0  0  0  0  0  0
   -1.4169   -2.7445   -0.5691 H   0  0  0  0  0  0  0  0  0  0  0  0
   -1.8710   -2.3233    1.0853 H   0  0  0  0  0  0  0  0  0  0  0  0
   -1.1313   -0.6966    0.0000 N   0  0  0  0  0  0  0  0  0  0  0  0
   -1.9841   -0.1422   -0.2203 H   0  0  0  0  0  0  0  0  0  0  0  0
    0.0000    0.0000    0.0000 C   0  0  0  0  0  0  0  0  0  0  0  0
    1.1313   -0.5151   -0.0000 O   0  0  0  0  0  0  0  0  0  0  0  0
   -0.1522    1.5217    0.0249 C   0  0  0  0  0  0  0  0  0  0  0  0
   -0.8915    1.7708   -0.5941 H   0  0  0  0  0  0  0  0  0  0  0  0
   -0.4334    1.8192    1.0352 H   0  0  0  0  0  0  0  0  0  0  0  0
    0.8088    1.9630   -0.2390 H   0  0  0  0  0  0  0  0  0  0  0  0
  1  5  1  0
  5  6  1  0
  5  9  2  0
  1  2  1  0
  1  3  1  0
  1  4  1  0
  6  7  1  0
  6  8  1  0
 10 14  1  0
 14 16  1  0
 16 17  2  0
 16 18  1  0
 10 11  1  0
 10 12  1  0
 10 13  1  0
 14 15  1  0
 18 19  1  0
 18 20  1  0
 18 21  1  0
M  END
>  <PDB_ID>  (583) 
pdb3oj6

>  <RESIDUE_NAME>  (583) 
ASN   TYR

>  <FRAG_NAME>  (583) 
ACEM   NMA

>  <FRAG_ATOM_NUM>  (583) 
fragi: 9  fragj: 12

>  <atom.prop.CHAIN_ID>  (583) 
A A A A A A A A A Z Z Z Z Z Z Z Z Z Z Z Z

>  <atom.prop.IS_HEAVY_ATOM>  (583) 
1 0 0 0 1 1 0 0 1 1 0 0 0 1 0 1 1 1 0 0 0

>  <DIFUSE_FUNC_ATOM>  (583) 
n/a

>  <FINAL_SINGLE_POINT_ENERGY>  (583) 
0

>  <NONCOV_INTER_ENERGY_QM>  (583) 
0

>  <FF_Energy>  (583) 
7.73

>  <QM_Energy>  (583) 
24.1

>  <source>  (583) 
ACEM_nNMA_40

>  <Index>  (583) 
19099

$$$$
ACEM-pdb3oj6-D-ASN-48:NMA-pdb3oj6-D-TYR-30
     RDKit          3D

 21 19  0  0  0  0  0  0  0  0999 V2000
   -4.8826    1.5043   -2.6720 C   0  0  0  0  0  0  0  0  0  0  0  0
   -5.7288    1.9746   -2.4376 H   0  0  0  0  0  0  0  0  0  0  0  0
   -5.0769    0.7172   -3.2514 H   0  0  0  0  0  0  0  0  0  0  0  0
   -4.2675    2.1955   -3.2482 H   0  0  0  0  0  0  0  0  0  0  0  0
   -4.2068    1.0444   -1.4190 C   0  0  0  0  0  0  0  0  0  0  0  0
   -3.0198    0.3882   -1.5635 N   0  0  0  0  0  0  0  0  0  0  0  0
   -2.6651    0.2554   -2.4856 H   0  0  0  0  0  0  0  0  0  0  0  0
   -2.5418    0.0622   -0.7664 H   0  0  0  0  0  0  0  0  0  0  0  0
   -4.7488    1.2533   -0.3104 O   0  0  0  0  0  0  0  0  0  0  0  0
   -1.1407   -2.1946    0.2098 C   0  0  0  0  0  0  0  0  0  0  0  0
   -0.1793   -2.4912    0.4124 H   0  0  0  0  0  0  0  0  0  0  0  0
   -1.5079   -2.7969   -0.6212 H   0  0  0  0  0  0  0  0  0  0  0  0
   -1.7532   -2.4080    1.0858 H   0  0  0  0  0  0  0  0  0  0  0  0
   -1.1081   -0.7301   -0.0000 N   0  0  0  0  0  0  0  0  0  0  0  0
   -1.9882   -0.1752   -0.1646 H   0  0  0  0  0  0  0  0  0  0  0  0
    0.0000    0.0000    0.0000 C   0  0  0  0  0  0  0  0  0  0  0  0
    1.1081   -0.4764    0.0000 O   0  0  0  0  0  0  0  0  0  0  0  0
   -0.2021    1.5242    0.1126 C   0  0  0  0  0  0  0  0  0  0  0  0
   -1.0055    1.7607   -0.4045 H   0  0  0  0  0  0  0  0  0  0  0  0
   -0.3915    1.7147    1.1690 H   0  0  0  0  0  0  0  0  0  0  0  0
    0.6964    2.0556   -0.2009 H   0  0  0  0  0  0  0  0  0  0  0  0
  1  5  1  0
  5  6  1  0
  5  9  2  0
  1  2  1  0
  1  3  1  0
  1  4  1  0
  6  7  1  0
  6  8  1  0
 10 14  1  0
 14 16  1  0
 16 17  2  0
 16 18  1  0
 10 11  1  0
 10 12  1  0
 10 13  1  0
 14 15  1  0
 18 19  1  0
 18 20  1  0
 18 21  1  0
M  END
>  <PDB_ID>  (584) 
pdb3oj6

>  <RESIDUE_NAME>  (584) 
ASN   TYR

>  <FRAG_NAME>  (584) 
ACEM   NMA

>  <FRAG_ATOM_NUM>  (584) 
fragi: 9  fragj: 12

>  <atom.prop.CHAIN_ID>  (584) 
A A A A A A A A A Z Z Z Z Z Z Z Z Z Z Z Z

>  <atom.prop.IS_HEAVY_ATOM>  (584) 
1 0 0 0 1 1 0 0 1 1 0 0 0 1 0 1 1 1 0 0 0

>  <DIFUSE_FUNC_ATOM>  (584) 
n/a

>  <FINAL_SINGLE_POINT_ENERGY>  (584) 
0

>  <NONCOV_INTER_ENERGY_QM>  (584) 
0

>  <FF_Energy>  (584) 
14.6

>  <QM_Energy>  (584) 
42.34

>  <source>  (584) 
ACEM_nNMA_40

>  <Index>  (584) 
20663

$$$$
ACEM-pdb3omb-A-ASN-315:NMA-pdb3omb-A-GLY-309
     RDKit          3D

 21 19  0  0  0  0  0  0  0  0999 V2000
   -4.0227    1.8727   -3.4399 C   0  0  0  0  0  0  0  0  0  0  0  0
   -3.4368    1.3802   -4.0793 H   0  0  0  0  0  0  0  0  0  0  0  0
   -3.9798    2.8523   -3.6237 H   0  0  0  0  0  0  0  0  0  0  0  0
   -5.0496    1.5430   -3.5972 H   0  0  0  0  0  0  0  0  0  0  0  0
   -3.5815    1.6082   -2.0604 C   0  0  0  0  0  0  0  0  0  0  0  0
   -2.8891    0.5091   -1.8826 N   0  0  0  0  0  0  0  0  0  0  0  0
   -2.6739   -0.1025   -2.6446 H   0  0  0  0  0  0  0  0  0  0  0  0
   -2.5598    0.2637   -0.9585 H   0  0  0  0  0  0  0  0  0  0  0  0
   -3.7809    2.4262   -1.1650 O   0  0  0  0  0  0  0  0  0  0  0  0
   -1.1020   -2.1814    0.0243 C   0  0  0  0  0  0  0  0  0  0  0  0
   -0.3814   -2.4633    0.6713 H   0  0  0  0  0  0  0  0  0  0  0  0
   -0.8499   -2.5984   -0.9508 H   0  0  0  0  0  0  0  0  0  0  0  0
   -2.0614   -2.5620    0.3745 H   0  0  0  0  0  0  0  0  0  0  0  0
   -1.1249   -0.7132    0.0000 N   0  0  0  0  0  0  0  0  0  0  0  0
   -1.9975   -0.1580   -0.0182 H   0  0  0  0  0  0  0  0  0  0  0  0
    0.0000    0.0000    0.0000 C   0  0  0  0  0  0  0  0  0  0  0  0
    1.1249   -0.4995    0.0000 O   0  0  0  0  0  0  0  0  0  0  0  0
   -0.1733    1.4962    0.0254 C   0  0  0  0  0  0  0  0  0  0  0  0
   -0.5895    1.7737    0.9179 H   0  0  0  0  0  0  0  0  0  0  0  0
   -0.8452    1.7711   -0.6941 H   0  0  0  0  0  0  0  0  0  0  0  0
    0.7518    2.0534   -0.1223 H   0  0  0  0  0  0  0  0  0  0  0  0
  1  5  1  0
  5  6  1  0
  5  9  2  0
  1  2  1  0
  1  3  1  0
  1  4  1  0
  6  7  1  0
  6  8  1  0
 10 14  1  0
 14 16  1  0
 16 17  2  0
 16 18  1  0
 10 11  1  0
 10 12  1  0
 10 13  1  0
 14 15  1  0
 18 19  1  0
 18 20  1  0
 18 21  1  0
M  END
>  <PDB_ID>  (585) 
pdb3omb

>  <RESIDUE_NAME>  (585) 
ASN   GLY

>  <FRAG_NAME>  (585) 
ACEM   NMA

>  <FRAG_ATOM_NUM>  (585) 
fragi: 9  fragj: 12

>  <atom.prop.CHAIN_ID>  (585) 
A A A A A A A A A Z Z Z Z Z Z Z Z Z Z Z Z

>  <atom.prop.IS_HEAVY_ATOM>  (585) 
1 0 0 0 1 1 0 0 1 1 0 0 0 1 0 1 1 1 0 0 0

>  <DIFUSE_FUNC_ATOM>  (585) 
n/a

>  <FINAL_SINGLE_POINT_ENERGY>  (585) 
0

>  <NONCOV_INTER_ENERGY_QM>  (585) 
0

>  <FF_Energy>  (585) 
4.14

>  <QM_Energy>  (585) 
14.64

>  <source>  (585) 
ACEM_nNMA_40

>  <Index>  (585) 
23100

$$$$
ACEM-pdb3ong-A-ASN-506:NMA-pdb3ong-A-ASP-530
     RDKit          3D

 21 19  0  0  0  0  0  0  0  0999 V2000
   -5.5219    0.3760    0.0501 C   0  0  0  0  0  0  0  0  0  0  0  0
   -5.3798   -0.6017    0.1672 H   0  0  0  0  0  0  0  0  0  0  0  0
   -6.4722    0.5617   -0.1799 H   0  0  0  0  0  0  0  0  0  0  0  0
   -5.2905    0.8744    0.9914 H   0  0  0  0  0  0  0  0  0  0  0  0
   -4.6432    0.8564   -1.1017 C   0  0  0  0  0  0  0  0  0  0  0  0
   -3.3483    0.5802   -1.0109 N   0  0  0  0  0  0  0  0  0  0  0  0
   -2.9994    0.0767   -0.2188 H   0  0  0  0  0  0  0  0  0  0  0  0
   -2.7201    0.8729   -1.7303 H   0  0  0  0  0  0  0  0  0  0  0  0
   -5.1250    1.4717   -2.0546 O   0  0  0  0  0  0  0  0  0  0  0  0
   -1.1030   -2.1634   -0.1894 C   0  0  0  0  0  0  0  0  0  0  0  0
   -0.2291   -2.5122    0.1492 H   0  0  0  0  0  0  0  0  0  0  0  0
   -1.1660   -2.3928   -1.2531 H   0  0  0  0  0  0  0  0  0  0  0  0
   -1.8258   -2.6986    0.4265 H   0  0  0  0  0  0  0  0  0  0  0  0
   -1.1229   -0.7145    0.0000 N   0  0  0  0  0  0  0  0  0  0  0  0
   -1.9908   -0.1666    0.1423 H   0  0  0  0  0  0  0  0  0  0  0  0
    0.0000    0.0000    0.0000 C   0  0  0  0  0  0  0  0  0  0  0  0
    1.1229   -0.5109   -0.0000 O   0  0  0  0  0  0  0  0  0  0  0  0
   -0.1640    1.5178    0.0293 C   0  0  0  0  0  0  0  0  0  0  0  0
   -1.1216    1.7110   -0.1809 H   0  0  0  0  0  0  0  0  0  0  0  0
    0.0282    1.8740    1.0414 H   0  0  0  0  0  0  0  0  0  0  0  0
    0.5219    1.9988   -0.6680 H   0  0  0  0  0  0  0  0  0  0  0  0
  1  5  1  0
  5  6  1  0
  5  9  2  0
  1  2  1  0
  1  3  1  0
  1  4  1  0
  6  7  1  0
  6  8  1  0
 10 14  1  0
 14 16  1  0
 16 17  2  0
 16 18  1  0
 10 11  1  0
 10 12  1  0
 10 13  1  0
 14 15  1  0
 18 19  1  0
 18 20  1  0
 18 21  1  0
M  END
>  <PDB_ID>  (586) 
pdb3ong

>  <RESIDUE_NAME>  (586) 
ASN   ASP

>  <FRAG_NAME>  (586) 
ACEM   NMA

>  <FRAG_ATOM_NUM>  (586) 
fragi: 9  fragj: 12

>  <atom.prop.CHAIN_ID>  (586) 
A A A A A A A A A Z Z Z Z Z Z Z Z Z Z Z Z

>  <atom.prop.IS_HEAVY_ATOM>  (586) 
1 0 0 0 1 1 0 0 1 1 0 0 0 1 0 1 1 1 0 0 0

>  <DIFUSE_FUNC_ATOM>  (586) 
n/a

>  <FINAL_SINGLE_POINT_ENERGY>  (586) 
0

>  <NONCOV_INTER_ENERGY_QM>  (586) 
0

>  <FF_Energy>  (586) 
11.21

>  <QM_Energy>  (586) 
21.58

>  <source>  (586) 
ACEM_nNMA_40

>  <Index>  (586) 
23278

$$$$
ACEM-pdb4mej-C-ASN-74:NMA-pdb4mej-A-PRO-157
     RDKit          3D

 21 19  0  0  0  0  0  0  0  0999 V2000
   -5.4795    1.4143    1.3219 C   0  0  0  0  0  0  0  0  0  0  0  0
   -6.3852    1.1112    1.0388 H   0  0  0  0  0  0  0  0  0  0  0  0
   -5.4288    2.4095    1.3029 H   0  0  0  0  0  0  0  0  0  0  0  0
   -5.3089    1.0806    2.3454 H   0  0  0  0  0  0  0  0  0  0  0  0
   -4.4562    0.8582    0.3475 C   0  0  0  0  0  0  0  0  0  0  0  0
   -3.3005    0.4554    0.8647 N   0  0  0  0  0  0  0  0  0  0  0  0
   -3.1482    0.5230    1.8528 H   0  0  0  0  0  0  0  0  0  0  0  0
   -2.5872    0.0851    0.2741 H   0  0  0  0  0  0  0  0  0  0  0  0
   -4.7015    0.7895   -0.8551 O   0  0  0  0  0  0  0  0  0  0  0  0
   -1.1205   -2.1706    0.0865 C   0  0  0  0  0  0  0  0  0  0  0  0
   -0.5012   -2.4364    0.8445 H   0  0  0  0  0  0  0  0  0  0  0  0
   -0.7591   -2.6512   -0.8226 H   0  0  0  0  0  0  0  0  0  0  0  0
   -2.1236   -2.5363    0.3064 H   0  0  0  0  0  0  0  0  0  0  0  0
   -1.1232   -0.7122   -0.0000 N   0  0  0  0  0  0  0  0  0  0  0  0
   -1.9955   -0.1471   -0.0660 H   0  0  0  0  0  0  0  0  0  0  0  0
    0.0000    0.0000    0.0000 C   0  0  0  0  0  0  0  0  0  0  0  0
    1.1232   -0.5089   -0.0000 O   0  0  0  0  0  0  0  0  0  0  0  0
   -0.1527    1.5248   -0.0014 C   0  0  0  0  0  0  0  0  0  0  0  0
   -1.0907    1.7872    0.2859 H   0  0  0  0  0  0  0  0  0  0  0  0
    0.5906    2.0303    0.6152 H   0  0  0  0  0  0  0  0  0  0  0  0
    0.0299    1.9313   -0.9962 H   0  0  0  0  0  0  0  0  0  0  0  0
  1  5  1  0
  5  6  1  0
  5  9  2  0
  1  2  1  0
  1  3  1  0
  1  4  1  0
  6  7  1  0
  6  8  1  0
 10 14  1  0
 14 16  1  0
 16 17  2  0
 16 18  1  0
 10 11  1  0
 10 12  1  0
 10 13  1  0
 14 15  1  0
 18 19  1  0
 18 20  1  0
 18 21  1  0
M  END
>  <PDB_ID>  (587) 
pdb4mej

>  <RESIDUE_NAME>  (587) 
ASN   PRO

>  <FRAG_NAME>  (587) 
ACEM   NMA

>  <FRAG_ATOM_NUM>  (587) 
fragi: 9  fragj: 12

>  <atom.prop.CHAIN_ID>  (587) 
A A A A A A A A A Z Z Z Z Z Z Z Z Z Z Z Z

>  <atom.prop.IS_HEAVY_ATOM>  (587) 
1 0 0 0 1 1 0 0 1 1 0 0 0 1 0 1 1 1 0 0 0

>  <DIFUSE_FUNC_ATOM>  (587) 
n/a

>  <FINAL_SINGLE_POINT_ENERGY>  (587) 
0

>  <NONCOV_INTER_ENERGY_QM>  (587) 
0

>  <FF_Energy>  (587) 
24.02

>  <QM_Energy>  (587) 
68.71

>  <source>  (587) 
ACEM_nNMA_40

>  <Index>  (587) 
23927

$$$$
ACEM-pdb3oq3-B-GLN-117:NMA-pdb3oq3-B-LEU-26
     RDKit          3D

 21 19  0  0  0  0  0  0  0  0999 V2000
   -5.7890    1.0572   -0.7473 C   0  0  0  0  0  0  0  0  0  0  0  0
   -6.5181    1.0435   -0.0636 H   0  0  0  0  0  0  0  0  0  0  0  0
   -5.9822    0.3803   -1.4567 H   0  0  0  0  0  0  0  0  0  0  0  0
   -5.7583    2.0456   -1.2059 H   0  0  0  0  0  0  0  0  0  0  0  0
   -4.4806    0.6829   -0.0654 C   0  0  0  0  0  0  0  0  0  0  0  0
   -3.4134    0.6065   -0.8371 N   0  0  0  0  0  0  0  0  0  0  0  0
   -2.5004    0.3747   -0.4508 H   0  0  0  0  0  0  0  0  0  0  0  0
   -3.5116    0.7823   -1.8381 H   0  0  0  0  0  0  0  0  0  0  0  0
   -4.4403    0.4650    1.1381 O   0  0  0  0  0  0  0  0  0  0  0  0
   -1.0871   -2.1561   -0.1311 C   0  0  0  0  0  0  0  0  0  0  0  0
   -0.2524   -2.4835    0.3197 H   0  0  0  0  0  0  0  0  0  0  0  0
   -1.0084   -2.4334   -1.1823 H   0  0  0  0  0  0  0  0  0  0  0  0
   -1.9838   -2.5904    0.3107 H   0  0  0  0  0  0  0  0  0  0  0  0
   -1.1168   -0.7125   -0.0000 N   0  0  0  0  0  0  0  0  0  0  0  0
   -1.9887   -0.1597    0.0995 H   0  0  0  0  0  0  0  0  0  0  0  0
    0.0000    0.0000    0.0000 C   0  0  0  0  0  0  0  0  0  0  0  0
    1.1168   -0.5112    0.0000 O   0  0  0  0  0  0  0  0  0  0  0  0
   -0.1740    1.5136   -0.0176 C   0  0  0  0  0  0  0  0  0  0  0  0
   -1.1245    1.7267    0.2637 H   0  0  0  0  0  0  0  0  0  0  0  0
    0.5097    2.0249    0.6600 H   0  0  0  0  0  0  0  0  0  0  0  0
   -0.0511    1.8785   -1.0373 H   0  0  0  0  0  0  0  0  0  0  0  0
  1  5  1  0
  5  6  1  0
  5  9  2  0
  1  2  1  0
  1  3  1  0
  1  4  1  0
  6  7  1  0
  6  8  1  0
 10 14  1  0
 14 16  1  0
 16 17  2  0
 16 18  1  0
 10 11  1  0
 10 12  1  0
 10 13  1  0
 14 15  1  0
 18 19  1  0
 18 20  1  0
 18 21  1  0
M  END
>  <PDB_ID>  (588) 
pdb3oq3

>  <RESIDUE_NAME>  (588) 
GLN   LEU

>  <FRAG_NAME>  (588) 
ACEM   NMA

>  <FRAG_ATOM_NUM>  (588) 
fragi: 9  fragj: 12

>  <atom.prop.CHAIN_ID>  (588) 
A A A A A A A A A Z Z Z Z Z Z Z Z Z Z Z Z

>  <atom.prop.IS_HEAVY_ATOM>  (588) 
1 0 0 0 1 1 0 0 1 1 0 0 0 1 0 1 1 1 0 0 0

>  <DIFUSE_FUNC_ATOM>  (588) 
n/a

>  <FINAL_SINGLE_POINT_ENERGY>  (588) 
0

>  <NONCOV_INTER_ENERGY_QM>  (588) 
0

>  <FF_Energy>  (588) 
12.16

>  <QM_Energy>  (588) 
32.87

>  <source>  (588) 
ACEM_nNMA_40

>  <Index>  (588) 
27345

$$$$
ACEM-pdb3ors-E-ASN-57:NMA-pdb3ors-E-MET-1
     RDKit          3D

 21 19  0  0  0  0  0  0  0  0999 V2000
   -5.2174    0.7965   -0.4387 C   0  0  0  0  0  0  0  0  0  0  0  0
   -4.5574    0.2669   -0.9573 H   0  0  0  0  0  0  0  0  0  0  0  0
   -5.6348    1.4929   -1.0099 H   0  0  0  0  0  0  0  0  0  0  0  0
   -6.0026    0.1220   -0.0974 H   0  0  0  0  0  0  0  0  0  0  0  0
   -4.4988    1.4770    0.7168 C   0  0  0  0  0  0  0  0  0  0  0  0
   -3.2495    1.1051    0.9212 N   0  0  0  0  0  0  0  0  0  0  0  0
   -2.8190    0.4182    0.3327 H   0  0  0  0  0  0  0  0  0  0  0  0
   -2.7183    1.5108    1.6707 H   0  0  0  0  0  0  0  0  0  0  0  0
   -5.0630    2.3258    1.4147 O   0  0  0  0  0  0  0  0  0  0  0  0
   -1.1517   -2.1737    0.0836 C   0  0  0  0  0  0  0  0  0  0  0  0
   -0.3239   -2.5407   -0.3461 H   0  0  0  0  0  0  0  0  0  0  0  0
   -2.0220   -2.5587   -0.4477 H   0  0  0  0  0  0  0  0  0  0  0  0
   -1.1770   -2.5040    1.1220 H   0  0  0  0  0  0  0  0  0  0  0  0
   -1.1231   -0.7134    0.0000 N   0  0  0  0  0  0  0  0  0  0  0  0
   -1.9968   -0.1337   -0.0658 H   0  0  0  0  0  0  0  0  0  0  0  0
    0.0000    0.0000    0.0000 C   0  0  0  0  0  0  0  0  0  0  0  0
    1.1231   -0.5066   -0.0000 O   0  0  0  0  0  0  0  0  0  0  0  0
   -0.1816    1.5217    0.0179 C   0  0  0  0  0  0  0  0  0  0  0  0
   -1.0326    1.7240    0.5230 H   0  0  0  0  0  0  0  0  0  0  0  0
    0.6410    2.0295    0.5216 H   0  0  0  0  0  0  0  0  0  0  0  0
   -0.3320    1.9206   -0.9853 H   0  0  0  0  0  0  0  0  0  0  0  0
  1  5  1  0
  5  6  1  0
  5  9  2  0
  1  2  1  0
  1  3  1  0
  1  4  1  0
  6  7  1  0
  6  8  1  0
 10 14  1  0
 14 16  1  0
 16 17  2  0
 16 18  1  0
 10 11  1  0
 10 12  1  0
 10 13  1  0
 14 15  1  0
 18 19  1  0
 18 20  1  0
 18 21  1  0
M  END
>  <PDB_ID>  (589) 
pdb3ors

>  <RESIDUE_NAME>  (589) 
ASN   MET

>  <FRAG_NAME>  (589) 
ACEM   NMA

>  <FRAG_ATOM_NUM>  (589) 
fragi: 9  fragj: 12

>  <atom.prop.CHAIN_ID>  (589) 
A A A A A A A A A Z Z Z Z Z Z Z Z Z Z Z Z

>  <atom.prop.IS_HEAVY_ATOM>  (589) 
1 0 0 0 1 1 0 0 1 1 0 0 0 1 0 1 1 1 0 0 0

>  <DIFUSE_FUNC_ATOM>  (589) 
n/a

>  <FINAL_SINGLE_POINT_ENERGY>  (589) 
0

>  <NONCOV_INTER_ENERGY_QM>  (589) 
0

>  <FF_Energy>  (589) 
12.16

>  <QM_Energy>  (589) 
22.28

>  <source>  (589) 
ACEM_nNMA_41

>  <Index>  (589) 
3974

$$$$
ACEM-pdb3owa-A-GLN-23:NMA-pdb3owa-A-ILE-19
     RDKit          3D

 21 19  0  0  0  0  0  0  0  0999 V2000
   -5.4376   -0.1786   -0.5713 C   0  0  0  0  0  0  0  0  0  0  0  0
   -6.3823    0.1143   -0.6137 H   0  0  0  0  0  0  0  0  0  0  0  0
   -5.3690   -1.1242   -0.2851 H   0  0  0  0  0  0  0  0  0  0  0  0
   -5.0171   -0.1001   -1.5738 H   0  0  0  0  0  0  0  0  0  0  0  0
   -4.6813    0.6929    0.3750 C   0  0  0  0  0  0  0  0  0  0  0  0
   -3.3877    0.4535    0.5111 N   0  0  0  0  0  0  0  0  0  0  0  0
   -2.8013    1.0159    1.1286 H   0  0  0  0  0  0  0  0  0  0  0  0
   -2.9703   -0.3158   -0.0176 H   0  0  0  0  0  0  0  0  0  0  0  0
   -5.2649    1.5533    1.0160 O   0  0  0  0  0  0  0  0  0  0  0  0
   -1.1455   -2.1383    0.2226 C   0  0  0  0  0  0  0  0  0  0  0  0
   -0.2267   -2.4485    0.4977 H   0  0  0  0  0  0  0  0  0  0  0  0
   -1.4159   -2.6693   -0.6901 H   0  0  0  0  0  0  0  0  0  0  0  0
   -1.8699   -2.3311    1.0139 H   0  0  0  0  0  0  0  0  0  0  0  0
   -1.1165   -0.7134   -0.0000 N   0  0  0  0  0  0  0  0  0  0  0  0
   -1.9842   -0.1436   -0.1776 H   0  0  0  0  0  0  0  0  0  0  0  0
    0.0000    0.0000    0.0000 C   0  0  0  0  0  0  0  0  0  0  0  0
    1.1165   -0.5008    0.0000 O   0  0  0  0  0  0  0  0  0  0  0  0
   -0.1873    1.5188   -0.0239 C   0  0  0  0  0  0  0  0  0  0  0  0
   -1.0809    1.7041    0.3992 H   0  0  0  0  0  0  0  0  0  0  0  0
    0.5532    2.0254    0.5950 H   0  0  0  0  0  0  0  0  0  0  0  0
   -0.1741    1.8737   -1.0545 H   0  0  0  0  0  0  0  0  0  0  0  0
  1  5  1  0
  5  6  1  0
  5  9  2  0
  1  2  1  0
  1  3  1  0
  1  4  1  0
  6  7  1  0
  6  8  1  0
 10 14  1  0
 14 16  1  0
 16 17  2  0
 16 18  1  0
 10 11  1  0
 10 12  1  0
 10 13  1  0
 14 15  1  0
 18 19  1  0
 18 20  1  0
 18 21  1  0
M  END
>  <PDB_ID>  (590) 
pdb3owa

>  <RESIDUE_NAME>  (590) 
GLN   ILE

>  <FRAG_NAME>  (590) 
ACEM   NMA

>  <FRAG_ATOM_NUM>  (590) 
fragi: 9  fragj: 12

>  <atom.prop.CHAIN_ID>  (590) 
A A A A A A A A A Z Z Z Z Z Z Z Z Z Z Z Z

>  <atom.prop.IS_HEAVY_ATOM>  (590) 
1 0 0 0 1 1 0 0 1 1 0 0 0 1 0 1 1 1 0 0 0

>  <DIFUSE_FUNC_ATOM>  (590) 
n/a

>  <FINAL_SINGLE_POINT_ENERGY>  (590) 
0

>  <NONCOV_INTER_ENERGY_QM>  (590) 
0

>  <FF_Energy>  (590) 
16.45

>  <QM_Energy>  (590) 
32.85

>  <source>  (590) 
ACEM_nNMA_41

>  <Index>  (590) 
4444

$$$$
ACEM-pdb4mr0-A-ASN-221:NMA-pdb4mr0-A-PRO-274
     RDKit          3D

 21 19  0  0  0  0  0  0  0  0999 V2000
   -6.1388    0.0759   -0.1398 C   0  0  0  0  0  0  0  0  0  0  0  0
   -6.1779    0.8505   -0.7664 H   0  0  0  0  0  0  0  0  0  0  0  0
   -6.8297    0.1789    0.5732 H   0  0  0  0  0  0  0  0  0  0  0  0
   -6.3662   -0.8286   -0.7038 H   0  0  0  0  0  0  0  0  0  0  0  0
   -4.7707    0.0421    0.5081 C   0  0  0  0  0  0  0  0  0  0  0  0
   -3.7514   -0.2794   -0.2845 N   0  0  0  0  0  0  0  0  0  0  0  0
   -3.9138   -0.4770   -1.2520 H   0  0  0  0  0  0  0  0  0  0  0  0
   -2.8242   -0.3247    0.0856 H   0  0  0  0  0  0  0  0  0  0  0  0
   -4.6269    0.2924    1.7086 O   0  0  0  0  0  0  0  0  0  0  0  0
   -1.0630   -2.1835    0.0392 C   0  0  0  0  0  0  0  0  0  0  0  0
   -0.1679   -2.4570    0.4690 H   0  0  0  0  0  0  0  0  0  0  0  0
   -1.1470   -2.7088   -0.9122 H   0  0  0  0  0  0  0  0  0  0  0  0
   -1.8258   -2.5679    0.7164 H   0  0  0  0  0  0  0  0  0  0  0  0
   -1.1186   -0.7200   -0.0000 N   0  0  0  0  0  0  0  0  0  0  0  0
   -1.9941   -0.1797   -0.0284 H   0  0  0  0  0  0  0  0  0  0  0  0
    0.0000    0.0000    0.0000 C   0  0  0  0  0  0  0  0  0  0  0  0
    1.1186   -0.5142   -0.0000 O   0  0  0  0  0  0  0  0  0  0  0  0
   -0.1316    1.5183   -0.0198 C   0  0  0  0  0  0  0  0  0  0  0  0
    0.6420    1.9323   -0.5835 H   0  0  0  0  0  0  0  0  0  0  0  0
   -1.0803    1.9571   -0.3285 H   0  0  0  0  0  0  0  0  0  0  0  0
    0.0319    1.9643    0.9613 H   0  0  0  0  0  0  0  0  0  0  0  0
  1  5  1  0
  5  6  1  0
  5  9  2  0
  1  2  1  0
  1  3  1  0
  1  4  1  0
  6  7  1  0
  6  8  1  0
 10 14  1  0
 14 16  1  0
 16 17  2  0
 16 18  1  0
 10 11  1  0
 10 12  1  0
 10 13  1  0
 14 15  1  0
 18 19  1  0
 18 20  1  0
 18 21  1  0
M  END
>  <PDB_ID>  (591) 
pdb4mr0

>  <RESIDUE_NAME>  (591) 
ASN   PRO

>  <FRAG_NAME>  (591) 
ACEM   NMA

>  <FRAG_ATOM_NUM>  (591) 
fragi: 9  fragj: 12

>  <atom.prop.CHAIN_ID>  (591) 
A A A A A A A A A Z Z Z Z Z Z Z Z Z Z Z Z

>  <atom.prop.IS_HEAVY_ATOM>  (591) 
1 0 0 0 1 1 0 0 1 1 0 0 0 1 0 1 1 1 0 0 0

>  <DIFUSE_FUNC_ATOM>  (591) 
n/a

>  <FINAL_SINGLE_POINT_ENERGY>  (591) 
0

>  <NONCOV_INTER_ENERGY_QM>  (591) 
0

>  <FF_Energy>  (591) 
15.27

>  <QM_Energy>  (591) 
43.58

>  <source>  (591) 
ACEM_nNMA_41

>  <Index>  (591) 
6893

$$$$
ACEM-pdb4mv2-A-ASN-70:NMA-pdb4mv2-A-SER-88
     RDKit          3D

 21 19  0  0  0  0  0  0  0  0999 V2000
   -5.0158    1.3216   -2.5388 C   0  0  0  0  0  0  0  0  0  0  0  0
   -4.8577    1.8620   -3.3611 H   0  0  0  0  0  0  0  0  0  0  0  0
   -5.8900    1.5703   -2.1295 H   0  0  0  0  0  0  0  0  0  0  0  0
   -5.0507    0.2684   -2.8174 H   0  0  0  0  0  0  0  0  0  0  0  0
   -3.9145    1.6214   -1.5453 C   0  0  0  0  0  0  0  0  0  0  0  0
   -3.5480    0.6190   -0.7653 N   0  0  0  0  0  0  0  0  0  0  0  0
   -3.9841   -0.2780   -0.8509 H   0  0  0  0  0  0  0  0  0  0  0  0
   -2.8264    0.7523   -0.0805 H   0  0  0  0  0  0  0  0  0  0  0  0
   -3.3919    2.7343   -1.4836 O   0  0  0  0  0  0  0  0  0  0  0  0
   -1.1394   -2.1523   -0.1593 C   0  0  0  0  0  0  0  0  0  0  0  0
   -0.4018   -2.5617    0.3815 H   0  0  0  0  0  0  0  0  0  0  0  0
   -1.0054   -2.3976   -1.2128 H   0  0  0  0  0  0  0  0  0  0  0  0
   -2.0774   -2.5771    0.1981 H   0  0  0  0  0  0  0  0  0  0  0  0
   -1.1237   -0.7101    0.0000 N   0  0  0  0  0  0  0  0  0  0  0  0
   -1.9913   -0.1379    0.1248 H   0  0  0  0  0  0  0  0  0  0  0  0
    0.0000    0.0000    0.0000 C   0  0  0  0  0  0  0  0  0  0  0  0
    1.1237   -0.5057   -0.0000 O   0  0  0  0  0  0  0  0  0  0  0  0
   -0.1522    1.5117   -0.0415 C   0  0  0  0  0  0  0  0  0  0  0  0
   -1.0185    1.7500    0.3955 H   0  0  0  0  0  0  0  0  0  0  0  0
    0.6530    1.9658    0.5361 H   0  0  0  0  0  0  0  0  0  0  0  0
   -0.1068    1.8435   -1.0788 H   0  0  0  0  0  0  0  0  0  0  0  0
  1  5  1  0
  5  6  1  0
  5  9  2  0
  1  2  1  0
  1  3  1  0
  1  4  1  0
  6  7  1  0
  6  8  1  0
 10 14  1  0
 14 16  1  0
 16 17  2  0
 16 18  1  0
 10 11  1  0
 10 12  1  0
 10 13  1  0
 14 15  1  0
 18 19  1  0
 18 20  1  0
 18 21  1  0
M  END
>  <PDB_ID>  (592) 
pdb4mv2

>  <RESIDUE_NAME>  (592) 
ASN   SER

>  <FRAG_NAME>  (592) 
ACEM   NMA

>  <FRAG_ATOM_NUM>  (592) 
fragi: 9  fragj: 12

>  <atom.prop.CHAIN_ID>  (592) 
A A A A A A A A A Z Z Z Z Z Z Z Z Z Z Z Z

>  <atom.prop.IS_HEAVY_ATOM>  (592) 
1 0 0 0 1 1 0 0 1 1 0 0 0 1 0 1 1 1 0 0 0

>  <DIFUSE_FUNC_ATOM>  (592) 
n/a

>  <FINAL_SINGLE_POINT_ENERGY>  (592) 
0

>  <NONCOV_INTER_ENERGY_QM>  (592) 
0

>  <FF_Energy>  (592) 
4.4

>  <QM_Energy>  (592) 
14.87

>  <source>  (592) 
ACEM_nNMA_41

>  <Index>  (592) 
8474

$$$$
ACEM-pdb3p31-C-ASN-128:NMA-pdb3p31-C-ASP-87
     RDKit          3D

 21 19  0  0  0  0  0  0  0  0999 V2000
   -6.2141    0.8456   -0.5125 C   0  0  0  0  0  0  0  0  0  0  0  0
   -6.7616    0.3510    0.1547 H   0  0  0  0  0  0  0  0  0  0  0  0
   -6.7232    0.9571   -1.3613 H   0  0  0  0  0  0  0  0  0  0  0  0
   -5.9760    1.8313   -0.1126 H   0  0  0  0  0  0  0  0  0  0  0  0
   -4.9639    0.0140   -0.8124 C   0  0  0  0  0  0  0  0  0  0  0  0
   -3.8153    0.4031   -0.2136 N   0  0  0  0  0  0  0  0  0  0  0  0
   -3.8399    1.1992    0.3912 H   0  0  0  0  0  0  0  0  0  0  0  0
   -2.9789   -0.0961   -0.3776 H   0  0  0  0  0  0  0  0  0  0  0  0
   -5.0358   -0.9909   -1.5485 O   0  0  0  0  0  0  0  0  0  0  0  0
   -1.1012   -2.1495    0.1836 C   0  0  0  0  0  0  0  0  0  0  0  0
   -0.2559   -2.3949    0.6765 H   0  0  0  0  0  0  0  0  0  0  0  0
   -1.0892   -2.6751   -0.7712 H   0  0  0  0  0  0  0  0  0  0  0  0
   -1.9530   -2.4729    0.7820 H   0  0  0  0  0  0  0  0  0  0  0  0
   -1.1278   -0.7127   -0.0000 N   0  0  0  0  0  0  0  0  0  0  0  0
   -1.9909   -0.1604   -0.1389 H   0  0  0  0  0  0  0  0  0  0  0  0
    0.0000    0.0000    0.0000 C   0  0  0  0  0  0  0  0  0  0  0  0
    1.1278   -0.5316    0.0000 O   0  0  0  0  0  0  0  0  0  0  0  0
   -0.1562    1.5284    0.0476 C   0  0  0  0  0  0  0  0  0  0  0  0
    0.6578    1.9184   -0.3936 H   0  0  0  0  0  0  0  0  0  0  0  0
   -1.0220    1.8490   -0.5318 H   0  0  0  0  0  0  0  0  0  0  0  0
   -0.2529    1.8045    1.0975 H   0  0  0  0  0  0  0  0  0  0  0  0
  1  5  1  0
  5  6  1  0
  5  9  2  0
  1  2  1  0
  1  3  1  0
  1  4  1  0
  6  7  1  0
  6  8  1  0
 10 14  1  0
 14 16  1  0
 16 17  2  0
 16 18  1  0
 10 11  1  0
 10 12  1  0
 10 13  1  0
 14 15  1  0
 18 19  1  0
 18 20  1  0
 18 21  1  0
M  END
>  <PDB_ID>  (593) 
pdb3p31

>  <RESIDUE_NAME>  (593) 
ASN   ASP

>  <FRAG_NAME>  (593) 
ACEM   NMA

>  <FRAG_ATOM_NUM>  (593) 
fragi: 9  fragj: 12

>  <atom.prop.CHAIN_ID>  (593) 
A A A A A A A A A Z Z Z Z Z Z Z Z Z Z Z Z

>  <atom.prop.IS_HEAVY_ATOM>  (593) 
1 0 0 0 1 1 0 0 1 1 0 0 0 1 0 1 1 1 0 0 0

>  <DIFUSE_FUNC_ATOM>  (593) 
n/a

>  <FINAL_SINGLE_POINT_ENERGY>  (593) 
0

>  <NONCOV_INTER_ENERGY_QM>  (593) 
0

>  <FF_Energy>  (593) 
9.44

>  <QM_Energy>  (593) 
23.68

>  <source>  (593) 
ACEM_nNMA_41

>  <Index>  (593) 
12079

$$$$
ACEM-pdb3pbn-A-ASN-264:NMA-pdb3pbn-A-ARG-284
     RDKit          3D

 21 19  0  0  0  0  0  0  0  0999 V2000
   -4.7047    2.3451    1.4089 C   0  0  0  0  0  0  0  0  0  0  0  0
   -5.2671    2.9944    0.8801 H   0  0  0  0  0  0  0  0  0  0  0  0
   -3.8996    2.8396    1.7617 H   0  0  0  0  0  0  0  0  0  0  0  0
   -5.2923    2.0016    2.2603 H   0  0  0  0  0  0  0  0  0  0  0  0
   -4.2500    1.2588    0.5129 C   0  0  0  0  0  0  0  0  0  0  0  0
   -3.3325    0.4411    0.9984 N   0  0  0  0  0  0  0  0  0  0  0  0
   -2.9825    0.5654    1.9277 H   0  0  0  0  0  0  0  0  0  0  0  0
   -2.9802   -0.3117    0.4364 H   0  0  0  0  0  0  0  0  0  0  0  0
   -4.6631    1.1845   -0.6365 O   0  0  0  0  0  0  0  0  0  0  0  0
   -1.1254   -2.2042    0.0102 C   0  0  0  0  0  0  0  0  0  0  0  0
   -0.6898   -2.5164    0.8543 H   0  0  0  0  0  0  0  0  0  0  0  0
   -0.5548   -2.5838   -0.8373 H   0  0  0  0  0  0  0  0  0  0  0  0
   -2.1485   -2.5785   -0.0254 H   0  0  0  0  0  0  0  0  0  0  0  0
   -1.1233   -0.7223   -0.0000 N   0  0  0  0  0  0  0  0  0  0  0  0
   -2.0006   -0.1607   -0.0077 H   0  0  0  0  0  0  0  0  0  0  0  0
    0.0000    0.0000    0.0000 C   0  0  0  0  0  0  0  0  0  0  0  0
    1.1233   -0.5141   -0.0000 O   0  0  0  0  0  0  0  0  0  0  0  0
   -0.1266    1.5267   -0.0031 C   0  0  0  0  0  0  0  0  0  0  0  0
    0.7896    1.9245   -0.2423 H   0  0  0  0  0  0  0  0  0  0  0  0
   -0.8656    1.9467   -0.6856 H   0  0  0  0  0  0  0  0  0  0  0  0
   -0.3035    1.9012    1.0051 H   0  0  0  0  0  0  0  0  0  0  0  0
  1  5  1  0
  5  6  1  0
  5  9  2  0
  1  2  1  0
  1  3  1  0
  1  4  1  0
  6  7  1  0
  6  8  1  0
 10 14  1  0
 14 16  1  0
 16 17  2  0
 16 18  1  0
 10 11  1  0
 10 12  1  0
 10 13  1  0
 14 15  1  0
 18 19  1  0
 18 20  1  0
 18 21  1  0
M  END
>  <PDB_ID>  (594) 
pdb3pbn

>  <RESIDUE_NAME>  (594) 
ASN   ARG

>  <FRAG_NAME>  (594) 
ACEM   NMA

>  <FRAG_ATOM_NUM>  (594) 
fragi: 9  fragj: 12

>  <atom.prop.CHAIN_ID>  (594) 
A A A A A A A A A Z Z Z Z Z Z Z Z Z Z Z Z

>  <atom.prop.IS_HEAVY_ATOM>  (594) 
1 0 0 0 1 1 0 0 1 1 0 0 0 1 0 1 1 1 0 0 0

>  <DIFUSE_FUNC_ATOM>  (594) 
n/a

>  <FINAL_SINGLE_POINT_ENERGY>  (594) 
0

>  <NONCOV_INTER_ENERGY_QM>  (594) 
0

>  <FF_Energy>  (594) 
8.3

>  <QM_Energy>  (594) 
22.46

>  <source>  (594) 
ACEM_nNMA_41

>  <Index>  (594) 
17617

$$$$
ACEM-pdb4n0q-C-GLN-234:NMA-pdb4n0q-C-ASP-203
     RDKit          3D

 21 19  0  0  0  0  0  0  0  0999 V2000
   -5.9442    0.9508   -1.0798 C   0  0  0  0  0  0  0  0  0  0  0  0
   -5.9430    1.5542   -1.8816 H   0  0  0  0  0  0  0  0  0  0  0  0
   -6.6294    1.2807   -0.4253 H   0  0  0  0  0  0  0  0  0  0  0  0
   -6.2304   -0.0502   -1.4025 H   0  0  0  0  0  0  0  0  0  0  0  0
   -4.5842    1.0046   -0.4297 C   0  0  0  0  0  0  0  0  0  0  0  0
   -3.6921    0.1569   -0.8897 N   0  0  0  0  0  0  0  0  0  0  0  0
   -2.7353    0.1374   -0.5114 H   0  0  0  0  0  0  0  0  0  0  0  0
   -3.9512   -0.4913   -1.6324 H   0  0  0  0  0  0  0  0  0  0  0  0
   -4.3423    1.7875    0.4954 O   0  0  0  0  0  0  0  0  0  0  0  0
   -1.1311   -2.1626   -0.0701 C   0  0  0  0  0  0  0  0  0  0  0  0
   -0.2200   -2.4823    0.2449 H   0  0  0  0  0  0  0  0  0  0  0  0
   -1.2570   -2.5526   -1.0802 H   0  0  0  0  0  0  0  0  0  0  0  0
   -1.9056   -2.5639    0.5835 H   0  0  0  0  0  0  0  0  0  0  0  0
   -1.1260   -0.7120    0.0000 N   0  0  0  0  0  0  0  0  0  0  0  0
   -1.9962   -0.1370    0.0548 H   0  0  0  0  0  0  0  0  0  0  0  0
    0.0000    0.0000    0.0000 C   0  0  0  0  0  0  0  0  0  0  0  0
    1.1260   -0.4961   -0.0000 O   0  0  0  0  0  0  0  0  0  0  0  0
   -0.1777    1.5049   -0.0390 C   0  0  0  0  0  0  0  0  0  0  0  0
   -1.1335    1.6858   -0.3087 H   0  0  0  0  0  0  0  0  0  0  0  0
   -0.0332    1.9473    0.9467 H   0  0  0  0  0  0  0  0  0  0  0  0
    0.5325    1.9289   -0.7488 H   0  0  0  0  0  0  0  0  0  0  0  0
  1  5  1  0
  5  6  1  0
  5  9  2  0
  1  2  1  0
  1  3  1  0
  1  4  1  0
  6  7  1  0
  6  8  1  0
 10 14  1  0
 14 16  1  0
 16 17  2  0
 16 18  1  0
 10 11  1  0
 10 12  1  0
 10 13  1  0
 14 15  1  0
 18 19  1  0
 18 20  1  0
 18 21  1  0
M  END
>  <PDB_ID>  (595) 
pdb4n0q

>  <RESIDUE_NAME>  (595) 
GLN   ASP

>  <FRAG_NAME>  (595) 
ACEM   NMA

>  <FRAG_ATOM_NUM>  (595) 
fragi: 9  fragj: 12

>  <atom.prop.CHAIN_ID>  (595) 
A A A A A A A A A Z Z Z Z Z Z Z Z Z Z Z Z

>  <atom.prop.IS_HEAVY_ATOM>  (595) 
1 0 0 0 1 1 0 0 1 1 0 0 0 1 0 1 1 1 0 0 0

>  <DIFUSE_FUNC_ATOM>  (595) 
n/a

>  <FINAL_SINGLE_POINT_ENERGY>  (595) 
0

>  <NONCOV_INTER_ENERGY_QM>  (595) 
0

>  <FF_Energy>  (595) 
8.26

>  <QM_Energy>  (595) 
26.46

>  <source>  (595) 
ACEM_nNMA_41

>  <Index>  (595) 
19745

$$$$
ACEM-pdb4n8x-A-ASN-46:NMA-pdb4n8x-A-VAL-22
     RDKit          3D

 21 19  0  0  0  0  0  0  0  0999 V2000
   -5.2232    1.3675   -1.0186 C   0  0  0  0  0  0  0  0  0  0  0  0
   -5.0107    1.9277   -1.8117 H   0  0  0  0  0  0  0  0  0  0  0  0
   -5.7809    1.8760   -0.3723 H   0  0  0  0  0  0  0  0  0  0  0  0
   -5.7940    0.5018   -1.3547 H   0  0  0  0  0  0  0  0  0  0  0  0
   -3.9271    0.9713   -0.3390 C   0  0  0  0  0  0  0  0  0  0  0  0
   -2.9127    0.6074   -1.1288 N   0  0  0  0  0  0  0  0  0  0  0  0
   -3.0439    0.6162   -2.1227 H   0  0  0  0  0  0  0  0  0  0  0  0
   -2.0431    0.3338   -0.7355 H   0  0  0  0  0  0  0  0  0  0  0  0
   -3.8351    1.0113    0.8958 O   0  0  0  0  0  0  0  0  0  0  0  0
   -1.0635   -2.1870   -0.0750 C   0  0  0  0  0  0  0  0  0  0  0  0
   -0.3902   -2.5199    0.5885 H   0  0  0  0  0  0  0  0  0  0  0  0
   -0.7539   -2.4947   -1.0738 H   0  0  0  0  0  0  0  0  0  0  0  0
   -2.0213   -2.6402    0.1806 H   0  0  0  0  0  0  0  0  0  0  0  0
   -1.1204   -0.7257   -0.0000 N   0  0  0  0  0  0  0  0  0  0  0  0
   -1.9959   -0.1859    0.0554 H   0  0  0  0  0  0  0  0  0  0  0  0
    0.0000    0.0000    0.0000 C   0  0  0  0  0  0  0  0  0  0  0  0
    1.1204   -0.5043    0.0000 O   0  0  0  0  0  0  0  0  0  0  0  0
   -0.1414    1.5175    0.0507 C   0  0  0  0  0  0  0  0  0  0  0  0
   -1.1169    1.7334    0.0604 H   0  0  0  0  0  0  0  0  0  0  0  0
    0.3054    1.8792    0.9768 H   0  0  0  0  0  0  0  0  0  0  0  0
    0.3614    1.9253   -0.8262 H   0  0  0  0  0  0  0  0  0  0  0  0
  1  5  1  0
  5  6  1  0
  5  9  2  0
  1  2  1  0
  1  3  1  0
  1  4  1  0
  6  7  1  0
  6  8  1  0
 10 14  1  0
 14 16  1  0
 16 17  2  0
 16 18  1  0
 10 11  1  0
 10 12  1  0
 10 13  1  0
 14 15  1  0
 18 19  1  0
 18 20  1  0
 18 21  1  0
M  END
>  <PDB_ID>  (596) 
pdb4n8x

>  <RESIDUE_NAME>  (596) 
ASN   VAL

>  <FRAG_NAME>  (596) 
ACEM   NMA

>  <FRAG_ATOM_NUM>  (596) 
fragi: 9  fragj: 12

>  <atom.prop.CHAIN_ID>  (596) 
A A A A A A A A A Z Z Z Z Z Z Z Z Z Z Z Z

>  <atom.prop.IS_HEAVY_ATOM>  (596) 
1 0 0 0 1 1 0 0 1 1 0 0 0 1 0 1 1 1 0 0 0

>  <DIFUSE_FUNC_ATOM>  (596) 
n/a

>  <FINAL_SINGLE_POINT_ENERGY>  (596) 
0

>  <NONCOV_INTER_ENERGY_QM>  (596) 
0

>  <FF_Energy>  (596) 
23.57

>  <QM_Energy>  (596) 
42.49

>  <source>  (596) 
ACEM_nNMA_41

>  <Index>  (596) 
23364

$$$$
ACEM-pdb4n8x-D-ASN-46:NMA-pdb4n8x-D-VAL-22
     RDKit          3D

 21 19  0  0  0  0  0  0  0  0999 V2000
   -5.2288    1.7597   -0.8287 C   0  0  0  0  0  0  0  0  0  0  0  0
   -4.9895    2.2393   -1.6623 H   0  0  0  0  0  0  0  0  0  0  0  0
   -5.5643    2.3909   -0.1408 H   0  0  0  0  0  0  0  0  0  0  0  0
   -6.0152    1.0394   -1.0537 H   0  0  0  0  0  0  0  0  0  0  0  0
   -3.9649    1.0819   -0.2844 C   0  0  0  0  0  0  0  0  0  0  0  0
   -3.2594    0.3624   -1.1471 N   0  0  0  0  0  0  0  0  0  0  0  0
   -3.5638    0.2917   -2.1005 H   0  0  0  0  0  0  0  0  0  0  0  0
   -2.4297   -0.1078   -0.8519 H   0  0  0  0  0  0  0  0  0  0  0  0
   -3.6271    1.2222    0.8987 O   0  0  0  0  0  0  0  0  0  0  0  0
   -1.0858   -2.2022   -0.0134 C   0  0  0  0  0  0  0  0  0  0  0  0
   -0.3368   -2.5105    0.5872 H   0  0  0  0  0  0  0  0  0  0  0  0
   -0.9132   -2.5937   -1.0160 H   0  0  0  0  0  0  0  0  0  0  0  0
   -2.0123   -2.6140    0.3867 H   0  0  0  0  0  0  0  0  0  0  0  0
   -1.1197   -0.7268   -0.0000 N   0  0  0  0  0  0  0  0  0  0  0  0
   -1.9981   -0.1807    0.0105 H   0  0  0  0  0  0  0  0  0  0  0  0
    0.0000    0.0000    0.0000 C   0  0  0  0  0  0  0  0  0  0  0  0
    1.1197   -0.5121    0.0000 O   0  0  0  0  0  0  0  0  0  0  0  0
   -0.1475    1.5290    0.0257 C   0  0  0  0  0  0  0  0  0  0  0  0
   -1.1285    1.7437    0.0342 H   0  0  0  0  0  0  0  0  0  0  0  0
    0.2965    1.9489    0.9283 H   0  0  0  0  0  0  0  0  0  0  0  0
    0.2820    1.9426   -0.8868 H   0  0  0  0  0  0  0  0  0  0  0  0
  1  5  1  0
  5  6  1  0
  5  9  2  0
  1  2  1  0
  1  3  1  0
  1  4  1  0
  6  7  1  0
  6  8  1  0
 10 14  1  0
 14 16  1  0
 16 17  2  0
 16 18  1  0
 10 11  1  0
 10 12  1  0
 10 13  1  0
 14 15  1  0
 18 19  1  0
 18 20  1  0
 18 21  1  0
M  END
>  <PDB_ID>  (597) 
pdb4n8x

>  <RESIDUE_NAME>  (597) 
ASN   VAL

>  <FRAG_NAME>  (597) 
ACEM   NMA

>  <FRAG_ATOM_NUM>  (597) 
fragi: 9  fragj: 12

>  <atom.prop.CHAIN_ID>  (597) 
A A A A A A A A A Z Z Z Z Z Z Z Z Z Z Z Z

>  <atom.prop.IS_HEAVY_ATOM>  (597) 
1 0 0 0 1 1 0 0 1 1 0 0 0 1 0 1 1 1 0 0 0

>  <DIFUSE_FUNC_ATOM>  (597) 
n/a

>  <FINAL_SINGLE_POINT_ENERGY>  (597) 
0

>  <NONCOV_INTER_ENERGY_QM>  (597) 
0

>  <FF_Energy>  (597) 
8.44

>  <QM_Energy>  (597) 
29.48

>  <source>  (597) 
ACEM_nNMA_41

>  <Index>  (597) 
26141

$$$$
ACEM-pdb4net-B-ASN-340:NMA-pdb4net-B-PRO-28
     RDKit          3D

 21 19  0  0  0  0  0  0  0  0999 V2000
   -5.1823   -0.0797    2.6089 C   0  0  0  0  0  0  0  0  0  0  0  0
   -5.2143    0.7323    3.1860 H   0  0  0  0  0  0  0  0  0  0  0  0
   -5.4265   -0.8868    3.1419 H   0  0  0  0  0  0  0  0  0  0  0  0
   -5.9159    0.0384    1.8114 H   0  0  0  0  0  0  0  0  0  0  0  0
   -3.7689   -0.2502    2.0894 C   0  0  0  0  0  0  0  0  0  0  0  0
   -3.4946    0.3402    0.9268 N   0  0  0  0  0  0  0  0  0  0  0  0
   -4.2027    0.8641    0.4535 H   0  0  0  0  0  0  0  0  0  0  0  0
   -2.5815    0.2604    0.5292 H   0  0  0  0  0  0  0  0  0  0  0  0
   -2.9320   -0.8915    2.7213 O   0  0  0  0  0  0  0  0  0  0  0  0
   -1.0747   -2.1605    0.1353 C   0  0  0  0  0  0  0  0  0  0  0  0
   -0.2351   -2.5146   -0.3252 H   0  0  0  0  0  0  0  0  0  0  0  0
   -0.9794   -2.4034    1.1227 H   0  0  0  0  0  0  0  0  0  0  0  0
   -1.9455   -2.6737   -0.2728 H   0  0  0  0  0  0  0  0  0  0  0  0
   -1.1213   -0.7165   -0.0000 N   0  0  0  0  0  0  0  0  0  0  0  0
   -1.9910   -0.1709   -0.1013 H   0  0  0  0  0  0  0  0  0  0  0  0
    0.0000    0.0000    0.0000 C   0  0  0  0  0  0  0  0  0  0  0  0
    1.1213   -0.5083    0.0000 O   0  0  0  0  0  0  0  0  0  0  0  0
   -0.1237    1.5153   -0.0244 C   0  0  0  0  0  0  0  0  0  0  0  0
    0.7715    1.9458   -0.2264 H   0  0  0  0  0  0  0  0  0  0  0  0
   -0.8789    1.8612   -0.7302 H   0  0  0  0  0  0  0  0  0  0  0  0
   -0.4934    1.8824    0.9330 H   0  0  0  0  0  0  0  0  0  0  0  0
  1  5  1  0
  5  6  1  0
  5  9  2  0
  1  2  1  0
  1  3  1  0
  1  4  1  0
  6  7  1  0
  6  8  1  0
 10 14  1  0
 14 16  1  0
 16 17  2  0
 16 18  1  0
 10 11  1  0
 10 12  1  0
 10 13  1  0
 14 15  1  0
 18 19  1  0
 18 20  1  0
 18 21  1  0
M  END
>  <PDB_ID>  (598) 
pdb4net

>  <RESIDUE_NAME>  (598) 
ASN   PRO

>  <FRAG_NAME>  (598) 
ACEM   NMA

>  <FRAG_ATOM_NUM>  (598) 
fragi: 9  fragj: 12

>  <atom.prop.CHAIN_ID>  (598) 
A A A A A A A A A Z Z Z Z Z Z Z Z Z Z Z Z

>  <atom.prop.IS_HEAVY_ATOM>  (598) 
1 0 0 0 1 1 0 0 1 1 0 0 0 1 0 1 1 1 0 0 0

>  <DIFUSE_FUNC_ATOM>  (598) 
n/a

>  <FINAL_SINGLE_POINT_ENERGY>  (598) 
0

>  <NONCOV_INTER_ENERGY_QM>  (598) 
0

>  <FF_Energy>  (598) 
14.18

>  <QM_Energy>  (598) 
29.98

>  <source>  (598) 
ACEM_nNMA_41

>  <Index>  (598) 
27743

$$$$
ACEM-pdb3pkz-D-GLN-13:NMA-pdb3pkz-D-VAL-8
     RDKit          3D

 21 19  0  0  0  0  0  0  0  0999 V2000
   -4.8727    1.4621   -2.5477 C   0  0  0  0  0  0  0  0  0  0  0  0
   -5.8373    1.6655   -2.3936 H   0  0  0  0  0  0  0  0  0  0  0  0
   -4.7856    0.7205   -3.2102 H   0  0  0  0  0  0  0  0  0  0  0  0
   -4.3861    2.3508   -2.9496 H   0  0  0  0  0  0  0  0  0  0  0  0
   -4.2578    1.0178   -1.2382 C   0  0  0  0  0  0  0  0  0  0  0  0
   -3.3165    0.0831   -1.3090 N   0  0  0  0  0  0  0  0  0  0  0  0
   -2.8493   -0.2546   -0.4726 H   0  0  0  0  0  0  0  0  0  0  0  0
   -3.0678   -0.2952   -2.2224 H   0  0  0  0  0  0  0  0  0  0  0  0
   -4.6372    1.4995   -0.1705 O   0  0  0  0  0  0  0  0  0  0  0  0
   -1.1101   -2.1562   -0.1844 C   0  0  0  0  0  0  0  0  0  0  0  0
   -0.2833   -2.5218    0.2532 H   0  0  0  0  0  0  0  0  0  0  0  0
   -1.0659   -2.4017   -1.2455 H   0  0  0  0  0  0  0  0  0  0  0  0
   -2.0011   -2.6071    0.2524 H   0  0  0  0  0  0  0  0  0  0  0  0
   -1.1205   -0.7125    0.0000 N   0  0  0  0  0  0  0  0  0  0  0  0
   -1.9890   -0.1582    0.1406 H   0  0  0  0  0  0  0  0  0  0  0  0
    0.0000    0.0000    0.0000 C   0  0  0  0  0  0  0  0  0  0  0  0
    1.1205   -0.5100   -0.0000 O   0  0  0  0  0  0  0  0  0  0  0  0
   -0.1587    1.5147    0.0183 C   0  0  0  0  0  0  0  0  0  0  0  0
   -0.9627    1.7352    0.5674 H   0  0  0  0  0  0  0  0  0  0  0  0
    0.7160    1.9505    0.5010 H   0  0  0  0  0  0  0  0  0  0  0  0
   -0.3146    1.8825   -0.9959 H   0  0  0  0  0  0  0  0  0  0  0  0
  1  5  1  0
  5  6  1  0
  5  9  2  0
  1  2  1  0
  1  3  1  0
  1  4  1  0
  6  7  1  0
  6  8  1  0
 10 14  1  0
 14 16  1  0
 16 17  2  0
 16 18  1  0
 10 11  1  0
 10 12  1  0
 10 13  1  0
 14 15  1  0
 18 19  1  0
 18 20  1  0
 18 21  1  0
M  END
>  <PDB_ID>  (599) 
pdb3pkz

>  <RESIDUE_NAME>  (599) 
GLN   VAL

>  <FRAG_NAME>  (599) 
ACEM   NMA

>  <FRAG_ATOM_NUM>  (599) 
fragi: 9  fragj: 12

>  <atom.prop.CHAIN_ID>  (599) 
A A A A A A A A A Z Z Z Z Z Z Z Z Z Z Z Z

>  <atom.prop.IS_HEAVY_ATOM>  (599) 
1 0 0 0 1 1 0 0 1 1 0 0 0 1 0 1 1 1 0 0 0

>  <DIFUSE_FUNC_ATOM>  (599) 
n/a

>  <FINAL_SINGLE_POINT_ENERGY>  (599) 
0

>  <NONCOV_INTER_ENERGY_QM>  (599) 
0

>  <FF_Energy>  (599) 
9.58

>  <QM_Energy>  (599) 
24.38

>  <source>  (599) 
ACEM_nNMA_41

>  <Index>  (599) 
28884

$$$$
ACEM-pdb3ptw-A-GLN-14:NMA-pdb3ptw-A-GLN-11
     RDKit          3D

 21 19  0  0  0  0  0  0  0  0999 V2000
   -6.1361   -0.3655    1.3723 C   0  0  0  0  0  0  0  0  0  0  0  0
   -6.6613   -1.2117    1.4778 H   0  0  0  0  0  0  0  0  0  0  0  0
   -6.7257    0.3438    0.9828 H   0  0  0  0  0  0  0  0  0  0  0  0
   -5.8137   -0.0377    2.3606 H   0  0  0  0  0  0  0  0  0  0  0  0
   -4.9835   -0.6279    0.3999 C   0  0  0  0  0  0  0  0  0  0  0  0
   -3.7600   -0.3459    0.8394 N   0  0  0  0  0  0  0  0  0  0  0  0
   -2.9498   -0.5073    0.2544 H   0  0  0  0  0  0  0  0  0  0  0  0
   -3.6533    0.0378    1.7764 H   0  0  0  0  0  0  0  0  0  0  0  0
   -5.1930   -1.0802   -0.7224 O   0  0  0  0  0  0  0  0  0  0  0  0
   -1.1132   -2.1801   -0.0672 C   0  0  0  0  0  0  0  0  0  0  0  0
   -1.7560   -2.4809   -0.8007 H   0  0  0  0  0  0  0  0  0  0  0  0
   -0.1849   -2.4911   -0.3574 H   0  0  0  0  0  0  0  0  0  0  0  0
   -1.3804   -2.6693    0.8695 H   0  0  0  0  0  0  0  0  0  0  0  0
   -1.1229   -0.7192   -0.0000 N   0  0  0  0  0  0  0  0  0  0  0  0
   -1.9971   -0.1566    0.0520 H   0  0  0  0  0  0  0  0  0  0  0  0
    0.0000    0.0000    0.0000 C   0  0  0  0  0  0  0  0  0  0  0  0
    1.1229   -0.4995    0.0000 O   0  0  0  0  0  0  0  0  0  0  0  0
   -0.1693    1.5194    0.0517 C   0  0  0  0  0  0  0  0  0  0  0  0
   -1.0837    1.7122    0.4027 H   0  0  0  0  0  0  0  0  0  0  0  0
    0.5574    1.9331    0.7510 H   0  0  0  0  0  0  0  0  0  0  0  0
   -0.0691    1.9888   -0.9269 H   0  0  0  0  0  0  0  0  0  0  0  0
  1  5  1  0
  5  6  1  0
  5  9  2  0
  1  2  1  0
  1  3  1  0
  1  4  1  0
  6  7  1  0
  6  8  1  0
 10 14  1  0
 14 16  1  0
 16 17  2  0
 16 18  1  0
 10 11  1  0
 10 12  1  0
 10 13  1  0
 14 15  1  0
 18 19  1  0
 18 20  1  0
 18 21  1  0
M  END
>  <PDB_ID>  (600) 
pdb3ptw

>  <RESIDUE_NAME>  (600) 
GLN   GLN

>  <FRAG_NAME>  (600) 
ACEM   NMA

>  <FRAG_ATOM_NUM>  (600) 
fragi: 9  fragj: 12

>  <atom.prop.CHAIN_ID>  (600) 
A A A A A A A A A Z Z Z Z Z Z Z Z Z Z Z Z

>  <atom.prop.IS_HEAVY_ATOM>  (600) 
1 0 0 0 1 1 0 0 1 1 0 0 0 1 0 1 1 1 0 0 0

>  <DIFUSE_FUNC_ATOM>  (600) 
n/a

>  <FINAL_SINGLE_POINT_ENERGY>  (600) 
0

>  <NONCOV_INTER_ENERGY_QM>  (600) 
0

>  <FF_Energy>  (600) 
9.67

>  <QM_Energy>  (600) 
23.75

>  <source>  (600) 
ACEM_nNMA_42

>  <Index>  (600) 
4311

$$$$
ACEM-pdb3pqu-A-ASN-384:NMA-pdb3pqu-A-VAL-380
     RDKit          3D

 21 19  0  0  0  0  0  0  0  0999 V2000
   -5.8984   -0.4398   -1.6002 C   0  0  0  0  0  0  0  0  0  0  0  0
   -6.1419   -0.1695   -2.5257 H   0  0  0  0  0  0  0  0  0  0  0  0
   -6.1965    0.2482   -0.9468 H   0  0  0  0  0  0  0  0  0  0  0  0
   -6.4063   -1.3763   -1.3697 H   0  0  0  0  0  0  0  0  0  0  0  0
   -4.3887   -0.5703   -1.5143 C   0  0  0  0  0  0  0  0  0  0  0  0
   -3.8361   -0.3471   -0.3224 N   0  0  0  0  0  0  0  0  0  0  0  0
   -4.4207   -0.1136    0.4560 H   0  0  0  0  0  0  0  0  0  0  0  0
   -2.8486   -0.4133   -0.2071 H   0  0  0  0  0  0  0  0  0  0  0  0
   -3.7241   -0.8500   -2.5120 O   0  0  0  0  0  0  0  0  0  0  0  0
   -1.0925   -2.1832    0.0862 C   0  0  0  0  0  0  0  0  0  0  0  0
   -0.2305   -2.4386    0.5613 H   0  0  0  0  0  0  0  0  0  0  0  0
   -1.0788   -2.6817   -0.8830 H   0  0  0  0  0  0  0  0  0  0  0  0
   -1.9446   -2.5355    0.6675 H   0  0  0  0  0  0  0  0  0  0  0  0
   -1.1166   -0.7234    0.0000 N   0  0  0  0  0  0  0  0  0  0  0  0
   -1.9944   -0.1707   -0.0652 H   0  0  0  0  0  0  0  0  0  0  0  0
    0.0000    0.0000    0.0000 C   0  0  0  0  0  0  0  0  0  0  0  0
    1.1166   -0.5021    0.0000 O   0  0  0  0  0  0  0  0  0  0  0  0
   -0.1612    1.5183   -0.0079 C   0  0  0  0  0  0  0  0  0  0  0  0
    0.5706    1.9027   -0.5898 H   0  0  0  0  0  0  0  0  0  0  0  0
   -1.1220    1.8238   -0.4222 H   0  0  0  0  0  0  0  0  0  0  0  0
   -0.0214    1.9085    1.0002 H   0  0  0  0  0  0  0  0  0  0  0  0
  1  5  1  0
  5  6  1  0
  5  9  2  0
  1  2  1  0
  1  3  1  0
  1  4  1  0
  6  7  1  0
  6  8  1  0
 10 14  1  0
 14 16  1  0
 16 17  2  0
 16 18  1  0
 10 11  1  0
 10 12  1  0
 10 13  1  0
 14 15  1  0
 18 19  1  0
 18 20  1  0
 18 21  1  0
M  END
>  <PDB_ID>  (601) 
pdb3pqu

>  <RESIDUE_NAME>  (601) 
ASN   VAL

>  <FRAG_NAME>  (601) 
ACEM   NMA

>  <FRAG_ATOM_NUM>  (601) 
fragi: 9  fragj: 12

>  <atom.prop.CHAIN_ID>  (601) 
A A A A A A A A A Z Z Z Z Z Z Z Z Z Z Z Z

>  <atom.prop.IS_HEAVY_ATOM>  (601) 
1 0 0 0 1 1 0 0 1 1 0 0 0 1 0 1 1 1 0 0 0

>  <DIFUSE_FUNC_ATOM>  (601) 
n/a

>  <FINAL_SINGLE_POINT_ENERGY>  (601) 
0

>  <NONCOV_INTER_ENERGY_QM>  (601) 
0

>  <FF_Energy>  (601) 
12.96

>  <QM_Energy>  (601) 
35.91

>  <source>  (601) 
ACEM_nNMA_42

>  <Index>  (601) 
4773

$$$$
ACEM-pdb3pt9-A-ASN-892:NMA-pdb3pt9-A-PRO-888
     RDKit          3D

 21 19  0  0  0  0  0  0  0  0999 V2000
   -5.7854    0.4896   -1.1635 C   0  0  0  0  0  0  0  0  0  0  0  0
   -6.1608    1.4088   -1.2460 H   0  0  0  0  0  0  0  0  0  0  0  0
   -6.4439   -0.1108   -0.7187 H   0  0  0  0  0  0  0  0  0  0  0  0
   -5.5890    0.1053   -2.1644 H   0  0  0  0  0  0  0  0  0  0  0  0
   -4.5336    0.5547   -0.3038 C   0  0  0  0  0  0  0  0  0  0  0  0
   -3.3811    0.6143   -0.9568 N   0  0  0  0  0  0  0  0  0  0  0  0
   -3.3675    0.6203   -1.9572 H   0  0  0  0  0  0  0  0  0  0  0  0
   -2.5178    0.6538   -0.4490 H   0  0  0  0  0  0  0  0  0  0  0  0
   -4.6002    0.5528    0.9289 O   0  0  0  0  0  0  0  0  0  0  0  0
   -1.1168   -2.1554   -0.2120 C   0  0  0  0  0  0  0  0  0  0  0  0
   -0.2026   -2.5033   -0.0207 H   0  0  0  0  0  0  0  0  0  0  0  0
   -1.3467   -2.3488   -1.2598 H   0  0  0  0  0  0  0  0  0  0  0  0
   -1.8607   -2.6635    0.4017 H   0  0  0  0  0  0  0  0  0  0  0  0
   -1.1236   -0.7118   -0.0000 N   0  0  0  0  0  0  0  0  0  0  0  0
   -1.9887   -0.1612    0.1606 H   0  0  0  0  0  0  0  0  0  0  0  0
    0.0000    0.0000    0.0000 C   0  0  0  0  0  0  0  0  0  0  0  0
    1.1236   -0.5095    0.0000 O   0  0  0  0  0  0  0  0  0  0  0  0
   -0.1463    1.5218    0.0071 C   0  0  0  0  0  0  0  0  0  0  0  0
   -1.0796    1.7880    0.2864 H   0  0  0  0  0  0  0  0  0  0  0  0
    0.5964    1.9997    0.6459 H   0  0  0  0  0  0  0  0  0  0  0  0
    0.0885    1.9120   -0.9832 H   0  0  0  0  0  0  0  0  0  0  0  0
  1  5  1  0
  5  6  1  0
  5  9  2  0
  1  2  1  0
  1  3  1  0
  1  4  1  0
  6  7  1  0
  6  8  1  0
 10 14  1  0
 14 16  1  0
 16 17  2  0
 16 18  1  0
 10 11  1  0
 10 12  1  0
 10 13  1  0
 14 15  1  0
 18 19  1  0
 18 20  1  0
 18 21  1  0
M  END
>  <PDB_ID>  (602) 
pdb3pt9

>  <RESIDUE_NAME>  (602) 
ASN   PRO

>  <FRAG_NAME>  (602) 
ACEM   NMA

>  <FRAG_ATOM_NUM>  (602) 
fragi: 9  fragj: 12

>  <atom.prop.CHAIN_ID>  (602) 
A A A A A A A A A Z Z Z Z Z Z Z Z Z Z Z Z

>  <atom.prop.IS_HEAVY_ATOM>  (602) 
1 0 0 0 1 1 0 0 1 1 0 0 0 1 0 1 1 1 0 0 0

>  <DIFUSE_FUNC_ATOM>  (602) 
n/a

>  <FINAL_SINGLE_POINT_ENERGY>  (602) 
0

>  <NONCOV_INTER_ENERGY_QM>  (602) 
0

>  <FF_Energy>  (602) 
7.24

>  <QM_Energy>  (602) 
17.81

>  <source>  (602) 
ACEM_nNMA_42

>  <Index>  (602) 
4995

$$$$
ACEM-pdb3pqa-B-GLN-90:NMA-pdb3pqa-B-ILE-269
     RDKit          3D

 21 19  0  0  0  0  0  0  0  0999 V2000
   -5.5750    1.1386   -1.8712 C   0  0  0  0  0  0  0  0  0  0  0  0
   -5.1379    1.7871   -2.4876 H   0  0  0  0  0  0  0  0  0  0  0  0
   -6.3174    1.5810   -1.3772 H   0  0  0  0  0  0  0  0  0  0  0  0
   -5.9922    0.3252   -2.4649 H   0  0  0  0  0  0  0  0  0  0  0  0
   -4.5550    0.6381   -0.8820 C   0  0  0  0  0  0  0  0  0  0  0  0
   -3.6503   -0.2234   -1.3505 N   0  0  0  0  0  0  0  0  0  0  0  0
   -2.9208   -0.5945   -0.7458 H   0  0  0  0  0  0  0  0  0  0  0  0
   -3.7027   -0.5057   -2.3264 H   0  0  0  0  0  0  0  0  0  0  0  0
   -4.5691    1.0220    0.2951 O   0  0  0  0  0  0  0  0  0  0  0  0
   -1.1950   -2.1804    0.0972 C   0  0  0  0  0  0  0  0  0  0  0  0
   -2.1399   -2.4355    0.3595 H   0  0  0  0  0  0  0  0  0  0  0  0
   -0.5173   -2.5902    0.8462 H   0  0  0  0  0  0  0  0  0  0  0  0
   -1.1002   -2.6565   -0.8787 H   0  0  0  0  0  0  0  0  0  0  0  0
   -1.1310   -0.7126   -0.0000 N   0  0  0  0  0  0  0  0  0  0  0  0
   -2.0010   -0.1196   -0.0781 H   0  0  0  0  0  0  0  0  0  0  0  0
    0.0000    0.0000    0.0000 C   0  0  0  0  0  0  0  0  0  0  0  0
    1.1310   -0.4977    0.0000 O   0  0  0  0  0  0  0  0  0  0  0  0
   -0.1863    1.5266   -0.0133 C   0  0  0  0  0  0  0  0  0  0  0  0
   -1.1189    1.6997    0.3072 H   0  0  0  0  0  0  0  0  0  0  0  0
    0.4801    2.0005    0.7074 H   0  0  0  0  0  0  0  0  0  0  0  0
   -0.0382    1.9301   -1.0150 H   0  0  0  0  0  0  0  0  0  0  0  0
  1  5  1  0
  5  6  1  0
  5  9  2  0
  1  2  1  0
  1  3  1  0
  1  4  1  0
  6  7  1  0
  6  8  1  0
 10 14  1  0
 14 16  1  0
 16 17  2  0
 16 18  1  0
 10 11  1  0
 10 12  1  0
 10 13  1  0
 14 15  1  0
 18 19  1  0
 18 20  1  0
 18 21  1  0
M  END
>  <PDB_ID>  (603) 
pdb3pqa

>  <RESIDUE_NAME>  (603) 
GLN   ILE

>  <FRAG_NAME>  (603) 
ACEM   NMA

>  <FRAG_ATOM_NUM>  (603) 
fragi: 9  fragj: 12

>  <atom.prop.CHAIN_ID>  (603) 
A A A A A A A A A Z Z Z Z Z Z Z Z Z Z Z Z

>  <atom.prop.IS_HEAVY_ATOM>  (603) 
1 0 0 0 1 1 0 0 1 1 0 0 0 1 0 1 1 1 0 0 0

>  <DIFUSE_FUNC_ATOM>  (603) 
n/a

>  <FINAL_SINGLE_POINT_ENERGY>  (603) 
0

>  <NONCOV_INTER_ENERGY_QM>  (603) 
0

>  <FF_Energy>  (603) 
0.93

>  <QM_Energy>  (603) 
11.16

>  <source>  (603) 
ACEM_nNMA_42

>  <Index>  (603) 
7332

$$$$
ACEM-pdb4nnz-B-GLN-327:NMA-pdb4nnz-B-LYS-323
     RDKit          3D

 21 19  0  0  0  0  0  0  0  0999 V2000
   -5.2605   -0.1946    0.9858 C   0  0  0  0  0  0  0  0  0  0  0  0
   -6.1000    0.1275    1.4275 H   0  0  0  0  0  0  0  0  0  0  0  0
   -5.0996   -1.1508    1.2399 H   0  0  0  0  0  0  0  0  0  0  0  0
   -5.3811   -0.1301   -0.0956 H   0  0  0  0  0  0  0  0  0  0  0  0
   -4.1098    0.6350    1.4816 C   0  0  0  0  0  0  0  0  0  0  0  0
   -3.0139    0.5908    0.7776 N   0  0  0  0  0  0  0  0  0  0  0  0
   -2.1820    1.1397    1.0391 H   0  0  0  0  0  0  0  0  0  0  0  0
   -2.9713   -0.0026   -0.0563 H   0  0  0  0  0  0  0  0  0  0  0  0
   -4.2079    1.3023    2.4872 O   0  0  0  0  0  0  0  0  0  0  0  0
   -1.0801   -2.1669    0.0176 C   0  0  0  0  0  0  0  0  0  0  0  0
   -0.1146   -2.4710   -0.0366 H   0  0  0  0  0  0  0  0  0  0  0  0
   -1.6268   -2.5876   -0.8263 H   0  0  0  0  0  0  0  0  0  0  0  0
   -1.4948   -2.5804    0.9369 H   0  0  0  0  0  0  0  0  0  0  0  0
   -1.1034   -0.7206   -0.0000 N   0  0  0  0  0  0  0  0  0  0  0  0
   -1.9879   -0.1621   -0.0136 H   0  0  0  0  0  0  0  0  0  0  0  0
    0.0000    0.0000    0.0000 C   0  0  0  0  0  0  0  0  0  0  0  0
    1.1034   -0.4853    0.0000 O   0  0  0  0  0  0  0  0  0  0  0  0
   -0.1829    1.4921   -0.0554 C   0  0  0  0  0  0  0  0  0  0  0  0
   -1.0015    1.7425    0.5143 H   0  0  0  0  0  0  0  0  0  0  0  0
    0.6708    2.0743    0.2913 H   0  0  0  0  0  0  0  0  0  0  0  0
   -0.4522    1.8103   -1.0626 H   0  0  0  0  0  0  0  0  0  0  0  0
  1  5  1  0
  5  6  1  0
  5  9  2  0
  1  2  1  0
  1  3  1  0
  1  4  1  0
  6  7  1  0
  6  8  1  0
 10 14  1  0
 14 16  1  0
 16 17  2  0
 16 18  1  0
 10 11  1  0
 10 12  1  0
 10 13  1  0
 14 15  1  0
 18 19  1  0
 18 20  1  0
 18 21  1  0
M  END
>  <PDB_ID>  (604) 
pdb4nnz

>  <RESIDUE_NAME>  (604) 
GLN   LYS

>  <FRAG_NAME>  (604) 
ACEM   NMA

>  <FRAG_ATOM_NUM>  (604) 
fragi: 9  fragj: 12

>  <atom.prop.CHAIN_ID>  (604) 
A A A A A A A A A Z Z Z Z Z Z Z Z Z Z Z Z

>  <atom.prop.IS_HEAVY_ATOM>  (604) 
1 0 0 0 1 1 0 0 1 1 0 0 0 1 0 1 1 1 0 0 0

>  <DIFUSE_FUNC_ATOM>  (604) 
n/a

>  <FINAL_SINGLE_POINT_ENERGY>  (604) 
0

>  <NONCOV_INTER_ENERGY_QM>  (604) 
0

>  <FF_Energy>  (604) 
38.2

>  <QM_Energy>  (604) 
50.06

>  <source>  (604) 
ACEM_nNMA_42

>  <Index>  (604) 
8584

$$$$
ACEM-pdb4ntw-A-GLN-249:NMA-pdb4ntw-A-PRO-257
     RDKit          3D

 21 19  0  0  0  0  0  0  0  0999 V2000
   -5.3641    2.0896   -0.1213 C   0  0  0  0  0  0  0  0  0  0  0  0
   -5.3991    2.9370    0.4123 H   0  0  0  0  0  0  0  0  0  0  0  0
   -6.2101    1.5734    0.0266 H   0  0  0  0  0  0  0  0  0  0  0  0
   -5.2945    2.3469   -1.1782 H   0  0  0  0  0  0  0  0  0  0  0  0
   -4.1875    1.2431    0.4008 C   0  0  0  0  0  0  0  0  0  0  0  0
   -3.3394    0.7926   -0.5179 N   0  0  0  0  0  0  0  0  0  0  0  0
   -2.5340    0.2412   -0.2455 H   0  0  0  0  0  0  0  0  0  0  0  0
   -3.5119    1.0112   -1.4953 H   0  0  0  0  0  0  0  0  0  0  0  0
   -4.0522    1.0034    1.6037 O   0  0  0  0  0  0  0  0  0  0  0  0
   -1.1272   -2.1504   -0.2955 C   0  0  0  0  0  0  0  0  0  0  0  0
   -0.2890   -2.3876   -0.7530 H   0  0  0  0  0  0  0  0  0  0  0  0
   -1.9569   -2.2927   -0.9879 H   0  0  0  0  0  0  0  0  0  0  0  0
   -1.2428   -2.7499    0.6075 H   0  0  0  0  0  0  0  0  0  0  0  0
   -1.1160   -0.7181    0.0000 N   0  0  0  0  0  0  0  0  0  0  0  0
   -1.9800   -0.1790    0.2269 H   0  0  0  0  0  0  0  0  0  0  0  0
    0.0000    0.0000    0.0000 C   0  0  0  0  0  0  0  0  0  0  0  0
    1.1160   -0.5002   -0.0000 O   0  0  0  0  0  0  0  0  0  0  0  0
   -0.1423    1.5162    0.0347 C   0  0  0  0  0  0  0  0  0  0  0  0
   -0.9845    1.7860    0.5207 H   0  0  0  0  0  0  0  0  0  0  0  0
    0.7290    1.9906    0.4863 H   0  0  0  0  0  0  0  0  0  0  0  0
   -0.1462    1.9231   -0.9765 H   0  0  0  0  0  0  0  0  0  0  0  0
  1  5  1  0
  5  6  1  0
  5  9  2  0
  1  2  1  0
  1  3  1  0
  1  4  1  0
  6  7  1  0
  6  8  1  0
 10 14  1  0
 14 16  1  0
 16 17  2  0
 16 18  1  0
 10 11  1  0
 10 12  1  0
 10 13  1  0
 14 15  1  0
 18 19  1  0
 18 20  1  0
 18 21  1  0
M  END
>  <PDB_ID>  (605) 
pdb4ntw

>  <RESIDUE_NAME>  (605) 
GLN   PRO

>  <FRAG_NAME>  (605) 
ACEM   NMA

>  <FRAG_ATOM_NUM>  (605) 
fragi: 9  fragj: 12

>  <atom.prop.CHAIN_ID>  (605) 
A A A A A A A A A Z Z Z Z Z Z Z Z Z Z Z Z

>  <atom.prop.IS_HEAVY_ATOM>  (605) 
1 0 0 0 1 1 0 0 1 1 0 0 0 1 0 1 1 1 0 0 0

>  <DIFUSE_FUNC_ATOM>  (605) 
n/a

>  <FINAL_SINGLE_POINT_ENERGY>  (605) 
0

>  <NONCOV_INTER_ENERGY_QM>  (605) 
0

>  <FF_Energy>  (605) 
14.68

>  <QM_Energy>  (605) 
42.62

>  <source>  (605) 
ACEM_nNMA_42

>  <Index>  (605) 
10146

$$$$
ACEM-pdb4nrx-D-ASN-214:NMA-pdb4nrx-D-ASN-172
     RDKit          3D

 21 19  0  0  0  0  0  0  0  0999 V2000
   -6.0769   -0.6780    0.5082 C   0  0  0  0  0  0  0  0  0  0  0  0
   -5.8483   -1.2001    1.3268 H   0  0  0  0  0  0  0  0  0  0  0  0
   -6.5503   -1.2619   -0.1474 H   0  0  0  0  0  0  0  0  0  0  0  0
   -6.7462    0.1340    0.7925 H   0  0  0  0  0  0  0  0  0  0  0  0
   -4.7875   -0.1870   -0.1260 C   0  0  0  0  0  0  0  0  0  0  0  0
   -3.6602   -0.5276    0.4849 N   0  0  0  0  0  0  0  0  0  0  0  0
   -3.6921   -1.0860    1.3159 H   0  0  0  0  0  0  0  0  0  0  0  0
   -2.7794   -0.2298    0.1189 H   0  0  0  0  0  0  0  0  0  0  0  0
   -4.8074    0.4935   -1.1539 O   0  0  0  0  0  0  0  0  0  0  0  0
   -1.1277   -2.1709   -0.0921 C   0  0  0  0  0  0  0  0  0  0  0  0
   -2.0878   -2.4860   -0.0317 H   0  0  0  0  0  0  0  0  0  0  0  0
   -0.5729   -2.6444    0.7179 H   0  0  0  0  0  0  0  0  0  0  0  0
   -0.7234   -2.4777   -1.0567 H   0  0  0  0  0  0  0  0  0  0  0  0
   -1.1237   -0.7144   -0.0000 N   0  0  0  0  0  0  0  0  0  0  0  0
   -1.9962   -0.1451    0.0713 H   0  0  0  0  0  0  0  0  0  0  0  0
    0.0000    0.0000    0.0000 C   0  0  0  0  0  0  0  0  0  0  0  0
    1.1237   -0.5011    0.0000 O   0  0  0  0  0  0  0  0  0  0  0  0
   -0.1815    1.5153    0.0431 C   0  0  0  0  0  0  0  0  0  0  0  0
   -0.6137    1.7813   -0.8234 H   0  0  0  0  0  0  0  0  0  0  0  0
   -0.8633    1.7882    0.8485 H   0  0  0  0  0  0  0  0  0  0  0  0
    0.7700    2.0306    0.1749 H   0  0  0  0  0  0  0  0  0  0  0  0
  1  5  1  0
  5  6  1  0
  5  9  2  0
  1  2  1  0
  1  3  1  0
  1  4  1  0
  6  7  1  0
  6  8  1  0
 10 14  1  0
 14 16  1  0
 16 17  2  0
 16 18  1  0
 10 11  1  0
 10 12  1  0
 10 13  1  0
 14 15  1  0
 18 19  1  0
 18 20  1  0
 18 21  1  0
M  END
>  <PDB_ID>  (606) 
pdb4nrx

>  <RESIDUE_NAME>  (606) 
ASN   ASN

>  <FRAG_NAME>  (606) 
ACEM   NMA

>  <FRAG_ATOM_NUM>  (606) 
fragi: 9  fragj: 12

>  <atom.prop.CHAIN_ID>  (606) 
A A A A A A A A A Z Z Z Z Z Z Z Z Z Z Z Z

>  <atom.prop.IS_HEAVY_ATOM>  (606) 
1 0 0 0 1 1 0 0 1 1 0 0 0 1 0 1 1 1 0 0 0

>  <DIFUSE_FUNC_ATOM>  (606) 
n/a

>  <FINAL_SINGLE_POINT_ENERGY>  (606) 
0

>  <NONCOV_INTER_ENERGY_QM>  (606) 
0

>  <FF_Energy>  (606) 
23.27

>  <QM_Energy>  (606) 
56.1

>  <source>  (606) 
ACEM_nNMA_42

>  <Index>  (606) 
12364

$$$$
ACEM-pdb4nxl-D-ASN-135:NMA-pdb4nxl-A-TRP-284
     RDKit          3D

 21 19  0  0  0  0  0  0  0  0999 V2000
   -5.1521    1.4877   -2.1809 C   0  0  0  0  0  0  0  0  0  0  0  0
   -4.8248    2.0462   -2.9363 H   0  0  0  0  0  0  0  0  0  0  0  0
   -5.8714    1.9643   -1.6846 H   0  0  0  0  0  0  0  0  0  0  0  0
   -5.5647    0.5637   -2.5859 H   0  0  0  0  0  0  0  0  0  0  0  0
   -3.9923    1.2373   -1.2287 C   0  0  0  0  0  0  0  0  0  0  0  0
   -3.4443    0.0518   -1.2712 N   0  0  0  0  0  0  0  0  0  0  0  0
   -3.7829   -0.6453   -1.9136 H   0  0  0  0  0  0  0  0  0  0  0  0
   -2.6765   -0.1799   -0.6643 H   0  0  0  0  0  0  0  0  0  0  0  0
   -3.6080    2.1081   -0.4569 O   0  0  0  0  0  0  0  0  0  0  0  0
   -1.1161   -2.1859    0.1147 C   0  0  0  0  0  0  0  0  0  0  0  0
   -0.6083   -2.4310    0.9748 H   0  0  0  0  0  0  0  0  0  0  0  0
   -0.6620   -2.7383   -0.7079 H   0  0  0  0  0  0  0  0  0  0  0  0
   -2.1186   -2.5931    0.2460 H   0  0  0  0  0  0  0  0  0  0  0  0
   -1.1264   -0.7195    0.0000 N   0  0  0  0  0  0  0  0  0  0  0  0
   -1.9981   -0.1633   -0.0865 H   0  0  0  0  0  0  0  0  0  0  0  0
    0.0000    0.0000    0.0000 C   0  0  0  0  0  0  0  0  0  0  0  0
    1.1264   -0.5131   -0.0000 O   0  0  0  0  0  0  0  0  0  0  0  0
   -0.1597    1.5247    0.0140 C   0  0  0  0  0  0  0  0  0  0  0  0
   -1.0506    1.7377   -0.3908 H   0  0  0  0  0  0  0  0  0  0  0  0
   -0.1635    1.8908    1.0406 H   0  0  0  0  0  0  0  0  0  0  0  0
    0.6294    2.0082   -0.5620 H   0  0  0  0  0  0  0  0  0  0  0  0
  1  5  1  0
  5  6  1  0
  5  9  2  0
  1  2  1  0
  1  3  1  0
  1  4  1  0
  6  7  1  0
  6  8  1  0
 10 14  1  0
 14 16  1  0
 16 17  2  0
 16 18  1  0
 10 11  1  0
 10 12  1  0
 10 13  1  0
 14 15  1  0
 18 19  1  0
 18 20  1  0
 18 21  1  0
M  END
>  <PDB_ID>  (607) 
pdb4nxl

>  <RESIDUE_NAME>  (607) 
ASN   TRP

>  <FRAG_NAME>  (607) 
ACEM   NMA

>  <FRAG_ATOM_NUM>  (607) 
fragi: 9  fragj: 12

>  <atom.prop.CHAIN_ID>  (607) 
A A A A A A A A A Z Z Z Z Z Z Z Z Z Z Z Z

>  <atom.prop.IS_HEAVY_ATOM>  (607) 
1 0 0 0 1 1 0 0 1 1 0 0 0 1 0 1 1 1 0 0 0

>  <DIFUSE_FUNC_ATOM>  (607) 
n/a

>  <FINAL_SINGLE_POINT_ENERGY>  (607) 
0

>  <NONCOV_INTER_ENERGY_QM>  (607) 
0

>  <FF_Energy>  (607) 
8.3

>  <QM_Energy>  (607) 
35.62

>  <source>  (607) 
ACEM_nNMA_42

>  <Index>  (607) 
14583

$$$$
ACEM-pdb3q3x-A-ASN-105:NMA-pdb3q3x-A-PRO-110
     RDKit          3D

 21 19  0  0  0  0  0  0  0  0999 V2000
   -4.9870   -0.1344    0.9198 C   0  0  0  0  0  0  0  0  0  0  0  0
   -4.7235   -1.0913    0.9780 H   0  0  0  0  0  0  0  0  0  0  0  0
   -5.9658   -0.0346    1.0612 H   0  0  0  0  0  0  0  0  0  0  0  0
   -4.4619    0.4222    1.6961 H   0  0  0  0  0  0  0  0  0  0  0  0
   -4.6462    0.3756   -0.4635 C   0  0  0  0  0  0  0  0  0  0  0  0
   -3.3903    0.6857   -0.6878 N   0  0  0  0  0  0  0  0  0  0  0  0
   -2.7046    0.5751    0.0393 H   0  0  0  0  0  0  0  0  0  0  0  0
   -3.1027    1.0337   -1.5829 H   0  0  0  0  0  0  0  0  0  0  0  0
   -5.5212    0.4784   -1.3265 O   0  0  0  0  0  0  0  0  0  0  0  0
   -1.1439   -2.1576   -0.1577 C   0  0  0  0  0  0  0  0  0  0  0  0
   -2.0825   -2.4712    0.0556 H   0  0  0  0  0  0  0  0  0  0  0  0
   -0.4774   -2.6666    0.5386 H   0  0  0  0  0  0  0  0  0  0  0  0
   -0.8786   -2.3989   -1.1870 H   0  0  0  0  0  0  0  0  0  0  0  0
   -1.1277   -0.7044   -0.0000 N   0  0  0  0  0  0  0  0  0  0  0  0
   -1.9936   -0.1355    0.1211 H   0  0  0  0  0  0  0  0  0  0  0  0
    0.0000    0.0000    0.0000 C   0  0  0  0  0  0  0  0  0  0  0  0
    1.1277   -0.5119   -0.0000 O   0  0  0  0  0  0  0  0  0  0  0  0
   -0.1670    1.5249   -0.0163 C   0  0  0  0  0  0  0  0  0  0  0  0
   -1.1549    1.7696   -0.0194 H   0  0  0  0  0  0  0  0  0  0  0  0
    0.3520    2.0271    0.8002 H   0  0  0  0  0  0  0  0  0  0  0  0
    0.2943    1.9421   -0.9114 H   0  0  0  0  0  0  0  0  0  0  0  0
  1  5  1  0
  5  6  1  0
  5  9  2  0
  1  2  1  0
  1  3  1  0
  1  4  1  0
  6  7  1  0
  6  8  1  0
 10 14  1  0
 14 16  1  0
 16 17  2  0
 16 18  1  0
 10 11  1  0
 10 12  1  0
 10 13  1  0
 14 15  1  0
 18 19  1  0
 18 20  1  0
 18 21  1  0
M  END
>  <PDB_ID>  (608) 
pdb3q3x

>  <RESIDUE_NAME>  (608) 
ASN   PRO

>  <FRAG_NAME>  (608) 
ACEM   NMA

>  <FRAG_ATOM_NUM>  (608) 
fragi: 9  fragj: 12

>  <atom.prop.CHAIN_ID>  (608) 
A A A A A A A A A Z Z Z Z Z Z Z Z Z Z Z Z

>  <atom.prop.IS_HEAVY_ATOM>  (608) 
1 0 0 0 1 1 0 0 1 1 0 0 0 1 0 1 1 1 0 0 0

>  <DIFUSE_FUNC_ATOM>  (608) 
n/a

>  <FINAL_SINGLE_POINT_ENERGY>  (608) 
0

>  <NONCOV_INTER_ENERGY_QM>  (608) 
0

>  <FF_Energy>  (608) 
14.9

>  <QM_Energy>  (608) 
28.9

>  <source>  (608) 
ACEM_nNMA_42

>  <Index>  (608) 
14941

$$$$
ACEM-pdb3qae-A-ASN-278:NMA-pdb3qae-A-VAL-322
     RDKit          3D

 21 19  0  0  0  0  0  0  0  0999 V2000
   -5.4559    2.0537    0.7956 C   0  0  0  0  0  0  0  0  0  0  0  0
   -6.0031    2.5016    0.0948 H   0  0  0  0  0  0  0  0  0  0  0  0
   -4.8520    2.7121    1.2349 H   0  0  0  0  0  0  0  0  0  0  0  0
   -6.1298    1.6497    1.5511 H   0  0  0  0  0  0  0  0  0  0  0  0
   -4.6160    0.9807    0.1447 C   0  0  0  0  0  0  0  0  0  0  0  0
   -3.5708    0.5446    0.8402 N   0  0  0  0  0  0  0  0  0  0  0  0
   -3.3812    0.9242    1.7465 H   0  0  0  0  0  0  0  0  0  0  0  0
   -2.9736   -0.1608    0.4596 H   0  0  0  0  0  0  0  0  0  0  0  0
   -4.8860    0.5616   -0.9855 O   0  0  0  0  0  0  0  0  0  0  0  0
   -1.0982   -2.1687    0.1156 C   0  0  0  0  0  0  0  0  0  0  0  0
   -0.1615   -2.4923   -0.0699 H   0  0  0  0  0  0  0  0  0  0  0  0
   -1.7753   -2.6320   -0.6020 H   0  0  0  0  0  0  0  0  0  0  0  0
   -1.3431   -2.4692    1.1343 H   0  0  0  0  0  0  0  0  0  0  0  0
   -1.1223   -0.7135   -0.0000 N   0  0  0  0  0  0  0  0  0  0  0  0
   -1.9931   -0.1598   -0.0869 H   0  0  0  0  0  0  0  0  0  0  0  0
    0.0000    0.0000    0.0000 C   0  0  0  0  0  0  0  0  0  0  0  0
    1.1223   -0.5139    0.0000 O   0  0  0  0  0  0  0  0  0  0  0  0
   -0.1553    1.5234    0.0082 C   0  0  0  0  0  0  0  0  0  0  0  0
   -0.6923    1.7747    0.8236 H   0  0  0  0  0  0  0  0  0  0  0  0
    0.8106    2.0244    0.0718 H   0  0  0  0  0  0  0  0  0  0  0  0
   -0.7317    1.8675   -0.8506 H   0  0  0  0  0  0  0  0  0  0  0  0
  1  5  1  0
  5  6  1  0
  5  9  2  0
  1  2  1  0
  1  3  1  0
  1  4  1  0
  6  7  1  0
  6  8  1  0
 10 14  1  0
 14 16  1  0
 16 17  2  0
 16 18  1  0
 10 11  1  0
 10 12  1  0
 10 13  1  0
 14 15  1  0
 18 19  1  0
 18 20  1  0
 18 21  1  0
M  END
>  <PDB_ID>  (609) 
pdb3qae

>  <RESIDUE_NAME>  (609) 
ASN   VAL

>  <FRAG_NAME>  (609) 
ACEM   NMA

>  <FRAG_ATOM_NUM>  (609) 
fragi: 9  fragj: 12

>  <atom.prop.CHAIN_ID>  (609) 
A A A A A A A A A Z Z Z Z Z Z Z Z Z Z Z Z

>  <atom.prop.IS_HEAVY_ATOM>  (609) 
1 0 0 0 1 1 0 0 1 1 0 0 0 1 0 1 1 1 0 0 0

>  <DIFUSE_FUNC_ATOM>  (609) 
n/a

>  <FINAL_SINGLE_POINT_ENERGY>  (609) 
0

>  <NONCOV_INTER_ENERGY_QM>  (609) 
0

>  <FF_Energy>  (609) 
5.17

>  <QM_Energy>  (609) 
16.73

>  <source>  (609) 
ACEM_nNMA_42

>  <Index>  (609) 
20939

$$$$
ACEM-pdb3qat-B-ASN-233:NMA-pdb3qat-B-HIE-93
     RDKit          3D

 21 19  0  0  0  0  0  0  0  0999 V2000
   -6.3668    0.1065    0.0277 C   0  0  0  0  0  0  0  0  0  0  0  0
   -6.5905   -0.7717    0.4562 H   0  0  0  0  0  0  0  0  0  0  0  0
   -6.4942    0.0290   -0.9636 H   0  0  0  0  0  0  0  0  0  0  0  0
   -7.0649    0.8552    0.4022 H   0  0  0  0  0  0  0  0  0  0  0  0
   -4.8785    0.4047    0.2966 C   0  0  0  0  0  0  0  0  0  0  0  0
   -3.9603   -0.5337    0.0312 N   0  0  0  0  0  0  0  0  0  0  0  0
   -4.3054   -1.4091   -0.3468 H   0  0  0  0  0  0  0  0  0  0  0  0
   -3.0112   -0.3799    0.1944 H   0  0  0  0  0  0  0  0  0  0  0  0
   -4.5862    1.5043    0.7759 O   0  0  0  0  0  0  0  0  0  0  0  0
   -1.1507   -2.1767   -0.1428 C   0  0  0  0  0  0  0  0  0  0  0  0
   -2.1150   -2.4834   -0.1303 H   0  0  0  0  0  0  0  0  0  0  0  0
   -0.6388   -2.6904    0.6710 H   0  0  0  0  0  0  0  0  0  0  0  0
   -0.8441   -2.4800   -1.1439 H   0  0  0  0  0  0  0  0  0  0  0  0
   -1.1297   -0.7248    0.0000 N   0  0  0  0  0  0  0  0  0  0  0  0
   -1.9985   -0.1494    0.1129 H   0  0  0  0  0  0  0  0  0  0  0  0
    0.0000    0.0000    0.0000 C   0  0  0  0  0  0  0  0  0  0  0  0
    1.1297   -0.5013   -0.0000 O   0  0  0  0  0  0  0  0  0  0  0  0
   -0.1810    1.5200    0.0464 C   0  0  0  0  0  0  0  0  0  0  0  0
   -1.1381    1.7231   -0.1744 H   0  0  0  0  0  0  0  0  0  0  0  0
    0.0385    1.8858    1.0495 H   0  0  0  0  0  0  0  0  0  0  0  0
    0.4861    2.0445   -0.6377 H   0  0  0  0  0  0  0  0  0  0  0  0
  1  5  1  0
  5  6  1  0
  5  9  2  0
  1  2  1  0
  1  3  1  0
  1  4  1  0
  6  7  1  0
  6  8  1  0
 10 14  1  0
 14 16  1  0
 16 17  2  0
 16 18  1  0
 10 11  1  0
 10 12  1  0
 10 13  1  0
 14 15  1  0
 18 19  1  0
 18 20  1  0
 18 21  1  0
M  END
>  <PDB_ID>  (610) 
pdb3qat

>  <RESIDUE_NAME>  (610) 
ASN   HIE

>  <FRAG_NAME>  (610) 
ACEM   NMA

>  <FRAG_ATOM_NUM>  (610) 
fragi: 9  fragj: 12

>  <atom.prop.CHAIN_ID>  (610) 
A A A A A A A A A Z Z Z Z Z Z Z Z Z Z Z Z

>  <atom.prop.IS_HEAVY_ATOM>  (610) 
1 0 0 0 1 1 0 0 1 1 0 0 0 1 0 1 1 1 0 0 0

>  <DIFUSE_FUNC_ATOM>  (610) 
n/a

>  <FINAL_SINGLE_POINT_ENERGY>  (610) 
0

>  <NONCOV_INTER_ENERGY_QM>  (610) 
0

>  <FF_Energy>  (610) 
6.16

>  <QM_Energy>  (610) 
22.15

>  <source>  (610) 
ACEM_nNMA_42

>  <Index>  (610) 
22071

$$$$
ACEM-pdb3q9t-A-GLN-390:NMA-pdb3q9t-A-PRO-387
     RDKit          3D

 21 19  0  0  0  0  0  0  0  0999 V2000
   -6.0879   -0.3895   -0.7633 C   0  0  0  0  0  0  0  0  0  0  0  0
   -5.9113    0.3457   -1.4220 H   0  0  0  0  0  0  0  0  0  0  0  0
   -6.7483   -0.0657   -0.0815 H   0  0  0  0  0  0  0  0  0  0  0  0
   -6.5143   -1.2423   -1.2915 H   0  0  0  0  0  0  0  0  0  0  0  0
   -4.7864   -0.7157   -0.0514 C   0  0  0  0  0  0  0  0  0  0  0  0
   -3.6842   -0.6924   -0.7935 N   0  0  0  0  0  0  0  0  0  0  0  0
   -2.7754   -0.8864   -0.3825 H   0  0  0  0  0  0  0  0  0  0  0  0
   -3.7648   -0.4752   -1.7860 H   0  0  0  0  0  0  0  0  0  0  0  0
   -4.7726   -0.9956    1.1463 O   0  0  0  0  0  0  0  0  0  0  0  0
   -1.1015   -2.1668    0.1582 C   0  0  0  0  0  0  0  0  0  0  0  0
   -0.1476   -2.4752    0.1854 H   0  0  0  0  0  0  0  0  0  0  0  0
   -1.5948   -2.6405   -0.6905 H   0  0  0  0  0  0  0  0  0  0  0  0
   -1.6095   -2.4468    1.0810 H   0  0  0  0  0  0  0  0  0  0  0  0
   -1.1166   -0.7133    0.0000 N   0  0  0  0  0  0  0  0  0  0  0  0
   -1.9899   -0.1625   -0.1197 H   0  0  0  0  0  0  0  0  0  0  0  0
    0.0000    0.0000    0.0000 C   0  0  0  0  0  0  0  0  0  0  0  0
    1.1166   -0.5064   -0.0000 O   0  0  0  0  0  0  0  0  0  0  0  0
   -0.1415    1.5219    0.0021 C   0  0  0  0  0  0  0  0  0  0  0  0
    0.3590    1.9270   -0.7820 H   0  0  0  0  0  0  0  0  0  0  0  0
   -1.1803    1.8520    0.0022 H   0  0  0  0  0  0  0  0  0  0  0  0
    0.2441    1.9192    0.9410 H   0  0  0  0  0  0  0  0  0  0  0  0
  1  5  1  0
  5  6  1  0
  5  9  2  0
  1  2  1  0
  1  3  1  0
  1  4  1  0
  6  7  1  0
  6  8  1  0
 10 14  1  0
 14 16  1  0
 16 17  2  0
 16 18  1  0
 10 11  1  0
 10 12  1  0
 10 13  1  0
 14 15  1  0
 18 19  1  0
 18 20  1  0
 18 21  1  0
M  END
>  <PDB_ID>  (611) 
pdb3q9t

>  <RESIDUE_NAME>  (611) 
GLN   PRO

>  <FRAG_NAME>  (611) 
ACEM   NMA

>  <FRAG_ATOM_NUM>  (611) 
fragi: 9  fragj: 12

>  <atom.prop.CHAIN_ID>  (611) 
A A A A A A A A A Z Z Z Z Z Z Z Z Z Z Z Z

>  <atom.prop.IS_HEAVY_ATOM>  (611) 
1 0 0 0 1 1 0 0 1 1 0 0 0 1 0 1 1 1 0 0 0

>  <DIFUSE_FUNC_ATOM>  (611) 
n/a

>  <FINAL_SINGLE_POINT_ENERGY>  (611) 
0

>  <NONCOV_INTER_ENERGY_QM>  (611) 
0

>  <FF_Energy>  (611) 
9.05

>  <QM_Energy>  (611) 
22.89

>  <source>  (611) 
ACEM_nNMA_42

>  <Index>  (611) 
22521

$$$$
ACEM-pdb4oaf-B-GLN-136:NMA-pdb4oaf-B-LEU-404
     RDKit          3D

 21 19  0  0  0  0  0  0  0  0999 V2000
   -5.6265    0.2469    2.2889 C   0  0  0  0  0  0  0  0  0  0  0  0
   -6.4388    0.5736    1.8030 H   0  0  0  0  0  0  0  0  0  0  0  0
   -5.6674    0.5516    3.2426 H   0  0  0  0  0  0  0  0  0  0  0  0
   -5.6173   -0.8430    2.2676 H   0  0  0  0  0  0  0  0  0  0  0  0
   -4.3974    0.8701    1.6385 C   0  0  0  0  0  0  0  0  0  0  0  0
   -3.4083    0.0429    1.3359 N   0  0  0  0  0  0  0  0  0  0  0  0
   -2.5622    0.3832    0.8868 H   0  0  0  0  0  0  0  0  0  0  0  0
   -3.5066   -0.9469    1.5606 H   0  0  0  0  0  0  0  0  0  0  0  0
   -4.3381    2.0779    1.4153 O   0  0  0  0  0  0  0  0  0  0  0  0
   -1.1257   -2.1661   -0.1063 C   0  0  0  0  0  0  0  0  0  0  0  0
   -0.7095   -2.5562    0.7271 H   0  0  0  0  0  0  0  0  0  0  0  0
   -0.5539   -2.5110   -0.9678 H   0  0  0  0  0  0  0  0  0  0  0  0
   -2.1503   -2.5357   -0.1467 H   0  0  0  0  0  0  0  0  0  0  0  0
   -1.1205   -0.7114   -0.0000 N   0  0  0  0  0  0  0  0  0  0  0  0
   -1.9937   -0.1436    0.0820 H   0  0  0  0  0  0  0  0  0  0  0  0
    0.0000    0.0000    0.0000 C   0  0  0  0  0  0  0  0  0  0  0  0
    1.1205   -0.5073    0.0000 O   0  0  0  0  0  0  0  0  0  0  0  0
   -0.1755    1.5165    0.0415 C   0  0  0  0  0  0  0  0  0  0  0  0
    0.7296    1.9455   -0.1217 H   0  0  0  0  0  0  0  0  0  0  0  0
   -0.8718    1.8877   -0.7104 H   0  0  0  0  0  0  0  0  0  0  0  0
   -0.4940    1.8184    1.0393 H   0  0  0  0  0  0  0  0  0  0  0  0
  1  5  1  0
  5  6  1  0
  5  9  2  0
  1  2  1  0
  1  3  1  0
  1  4  1  0
  6  7  1  0
  6  8  1  0
 10 14  1  0
 14 16  1  0
 16 17  2  0
 16 18  1  0
 10 11  1  0
 10 12  1  0
 10 13  1  0
 14 15  1  0
 18 19  1  0
 18 20  1  0
 18 21  1  0
M  END
>  <PDB_ID>  (612) 
pdb4oaf

>  <RESIDUE_NAME>  (612) 
GLN   LEU

>  <FRAG_NAME>  (612) 
ACEM   NMA

>  <FRAG_ATOM_NUM>  (612) 
fragi: 9  fragj: 12

>  <atom.prop.CHAIN_ID>  (612) 
A A A A A A A A A Z Z Z Z Z Z Z Z Z Z Z Z

>  <atom.prop.IS_HEAVY_ATOM>  (612) 
1 0 0 0 1 1 0 0 1 1 0 0 0 1 0 1 1 1 0 0 0

>  <DIFUSE_FUNC_ATOM>  (612) 
n/a

>  <FINAL_SINGLE_POINT_ENERGY>  (612) 
0

>  <NONCOV_INTER_ENERGY_QM>  (612) 
0

>  <FF_Energy>  (612) 
8.12

>  <QM_Energy>  (612) 
19.53

>  <source>  (612) 
ACEM_nNMA_42

>  <Index>  (612) 
26233

$$$$
ACEM-pdb3qfa-A-GLN-464:NMA-pdb3qfa-A-LEU-460
     RDKit          3D

 21 19  0  0  0  0  0  0  0  0999 V2000
   -5.1824    0.0157    0.6367 C   0  0  0  0  0  0  0  0  0  0  0  0
   -6.1295    0.1747    0.9093 H   0  0  0  0  0  0  0  0  0  0  0  0
   -4.9419   -0.9406    0.7968 H   0  0  0  0  0  0  0  0  0  0  0  0
   -5.0784    0.2334   -0.4262 H   0  0  0  0  0  0  0  0  0  0  0  0
   -4.2839    0.8884    1.4873 C   0  0  0  0  0  0  0  0  0  0  0  0
   -2.9749    0.7306    1.3190 N   0  0  0  0  0  0  0  0  0  0  0  0
   -2.3092    1.2913    1.8449 H   0  0  0  0  0  0  0  0  0  0  0  0
   -2.6454    0.0346    0.6515 H   0  0  0  0  0  0  0  0  0  0  0  0
   -4.7621    1.6935    2.2942 O   0  0  0  0  0  0  0  0  0  0  0  0
   -1.1194   -2.1775   -0.0101 C   0  0  0  0  0  0  0  0  0  0  0  0
   -0.1742   -2.4956    0.0242 H   0  0  0  0  0  0  0  0  0  0  0  0
   -1.5655   -2.5261   -0.9416 H   0  0  0  0  0  0  0  0  0  0  0  0
   -1.6968   -2.5823    0.8211 H   0  0  0  0  0  0  0  0  0  0  0  0
   -1.1223   -0.7156    0.0000 N   0  0  0  0  0  0  0  0  0  0  0  0
   -1.9969   -0.1480    0.0081 H   0  0  0  0  0  0  0  0  0  0  0  0
    0.0000    0.0000    0.0000 C   0  0  0  0  0  0  0  0  0  0  0  0
    1.1223   -0.5143   -0.0000 O   0  0  0  0  0  0  0  0  0  0  0  0
   -0.1754    1.5242   -0.0201 C   0  0  0  0  0  0  0  0  0  0  0  0
   -1.1608    1.7287    0.1576 H   0  0  0  0  0  0  0  0  0  0  0  0
    0.4244    2.0683    0.7096 H   0  0  0  0  0  0  0  0  0  0  0  0
    0.0556    1.8899   -1.0206 H   0  0  0  0  0  0  0  0  0  0  0  0
  1  5  1  0
  5  6  1  0
  5  9  2  0
  1  2  1  0
  1  3  1  0
  1  4  1  0
  6  7  1  0
  6  8  1  0
 10 14  1  0
 14 16  1  0
 16 17  2  0
 16 18  1  0
 10 11  1  0
 10 12  1  0
 10 13  1  0
 14 15  1  0
 18 19  1  0
 18 20  1  0
 18 21  1  0
M  END
>  <PDB_ID>  (613) 
pdb3qfa

>  <RESIDUE_NAME>  (613) 
GLN   LEU

>  <FRAG_NAME>  (613) 
ACEM   NMA

>  <FRAG_ATOM_NUM>  (613) 
fragi: 9  fragj: 12

>  <atom.prop.CHAIN_ID>  (613) 
A A A A A A A A A Z Z Z Z Z Z Z Z Z Z Z Z

>  <atom.prop.IS_HEAVY_ATOM>  (613) 
1 0 0 0 1 1 0 0 1 1 0 0 0 1 0 1 1 1 0 0 0

>  <DIFUSE_FUNC_ATOM>  (613) 
n/a

>  <FINAL_SINGLE_POINT_ENERGY>  (613) 
0

>  <NONCOV_INTER_ENERGY_QM>  (613) 
0

>  <FF_Energy>  (613) 
17.04

>  <QM_Energy>  (613) 
36.24

>  <source>  (613) 
ACEM_nNMA_42

>  <Index>  (613) 
27767

$$$$
ACEM-pdb3qhy-B-GLN-94:NMA-pdb3qhy-B-LEU-91
     RDKit          3D

 21 19  0  0  0  0  0  0  0  0999 V2000
   -6.1191   -0.1052    0.2564 C   0  0  0  0  0  0  0  0  0  0  0  0
   -6.1723    0.4126   -0.5925 H   0  0  0  0  0  0  0  0  0  0  0  0
   -6.6946    0.3160    0.9524 H   0  0  0  0  0  0  0  0  0  0  0  0
   -6.4923   -1.1117    0.0673 H   0  0  0  0  0  0  0  0  0  0  0  0
   -4.6735   -0.0979    0.7445 C   0  0  0  0  0  0  0  0  0  0  0  0
   -3.7514   -0.5225   -0.1166 N   0  0  0  0  0  0  0  0  0  0  0  0
   -2.7708   -0.5310    0.1349 H   0  0  0  0  0  0  0  0  0  0  0  0
   -4.0516   -0.8396   -1.0377 H   0  0  0  0  0  0  0  0  0  0  0  0
   -4.3932    0.2987    1.8747 O   0  0  0  0  0  0  0  0  0  0  0  0
   -1.1061   -2.1620    0.1743 C   0  0  0  0  0  0  0  0  0  0  0  0
   -0.1296   -2.4512    0.1581 H   0  0  0  0  0  0  0  0  0  0  0  0
   -1.6130   -2.7141   -0.6172 H   0  0  0  0  0  0  0  0  0  0  0  0
   -1.5432   -2.4243    1.1378 H   0  0  0  0  0  0  0  0  0  0  0  0
   -1.1234   -0.7114   -0.0000 N   0  0  0  0  0  0  0  0  0  0  0  0
   -1.9906   -0.1609   -0.1313 H   0  0  0  0  0  0  0  0  0  0  0  0
    0.0000    0.0000    0.0000 C   0  0  0  0  0  0  0  0  0  0  0  0
    1.1234   -0.5141    0.0000 O   0  0  0  0  0  0  0  0  0  0  0  0
   -0.1608    1.5191    0.0206 C   0  0  0  0  0  0  0  0  0  0  0  0
    0.6036    1.9266   -0.5049 H   0  0  0  0  0  0  0  0  0  0  0  0
   -1.0986    1.8500   -0.4257 H   0  0  0  0  0  0  0  0  0  0  0  0
   -0.0964    1.8673    1.0514 H   0  0  0  0  0  0  0  0  0  0  0  0
  1  5  1  0
  5  6  1  0
  5  9  2  0
  1  2  1  0
  1  3  1  0
  1  4  1  0
  6  7  1  0
  6  8  1  0
 10 14  1  0
 14 16  1  0
 16 17  2  0
 16 18  1  0
 10 11  1  0
 10 12  1  0
 10 13  1  0
 14 15  1  0
 18 19  1  0
 18 20  1  0
 18 21  1  0
M  END
>  <PDB_ID>  (614) 
pdb3qhy

>  <RESIDUE_NAME>  (614) 
GLN   LEU

>  <FRAG_NAME>  (614) 
ACEM   NMA

>  <FRAG_ATOM_NUM>  (614) 
fragi: 9  fragj: 12

>  <atom.prop.CHAIN_ID>  (614) 
A A A A A A A A A Z Z Z Z Z Z Z Z Z Z Z Z

>  <atom.prop.IS_HEAVY_ATOM>  (614) 
1 0 0 0 1 1 0 0 1 1 0 0 0 1 0 1 1 1 0 0 0

>  <DIFUSE_FUNC_ATOM>  (614) 
n/a

>  <FINAL_SINGLE_POINT_ENERGY>  (614) 
0

>  <NONCOV_INTER_ENERGY_QM>  (614) 
0

>  <FF_Energy>  (614) 
15.64

>  <QM_Energy>  (614) 
38.82

>  <source>  (614) 
ACEM_nNMA_43

>  <Index>  (614) 
525

$$$$
ACEM-pdb3qjg-B-ASN-85:NMA-pdb3qjg-A-ILE-94
     RDKit          3D

 21 19  0  0  0  0  0  0  0  0999 V2000
   -5.1013   -0.5673    0.4095 C   0  0  0  0  0  0  0  0  0  0  0  0
   -4.4846   -1.2912    0.6987 H   0  0  0  0  0  0  0  0  0  0  0  0
   -6.0366   -0.9050    0.3665 H   0  0  0  0  0  0  0  0  0  0  0  0
   -5.0587    0.2363    1.1447 H   0  0  0  0  0  0  0  0  0  0  0  0
   -4.6891   -0.1007   -0.9692 C   0  0  0  0  0  0  0  0  0  0  0  0
   -3.3883    0.1461   -1.1528 N   0  0  0  0  0  0  0  0  0  0  0  0
   -2.7505    0.0114   -0.3938 H   0  0  0  0  0  0  0  0  0  0  0  0
   -3.0597    0.4610   -2.0380 H   0  0  0  0  0  0  0  0  0  0  0  0
   -5.5243    0.0019   -1.8688 O   0  0  0  0  0  0  0  0  0  0  0  0
   -1.1058   -2.1524   -0.1413 C   0  0  0  0  0  0  0  0  0  0  0  0
   -0.2025   -2.4322   -0.4671 H   0  0  0  0  0  0  0  0  0  0  0  0
   -1.8474   -2.4383   -0.8872 H   0  0  0  0  0  0  0  0  0  0  0  0
   -1.2906   -2.6300    0.8210 H   0  0  0  0  0  0  0  0  0  0  0  0
   -1.1103   -0.7006   -0.0000 N   0  0  0  0  0  0  0  0  0  0  0  0
   -1.9852   -0.1444    0.1078 H   0  0  0  0  0  0  0  0  0  0  0  0
    0.0000    0.0000    0.0000 C   0  0  0  0  0  0  0  0  0  0  0  0
    1.1103   -0.5183    0.0000 O   0  0  0  0  0  0  0  0  0  0  0  0
   -0.1237    1.5184    0.0982 C   0  0  0  0  0  0  0  0  0  0  0  0
   -1.0697    1.7124    0.2572 H   0  0  0  0  0  0  0  0  0  0  0  0
    0.3984    1.7559    1.0252 H   0  0  0  0  0  0  0  0  0  0  0  0
    0.3660    1.9899   -0.7539 H   0  0  0  0  0  0  0  0  0  0  0  0
  1  5  1  0
  5  6  1  0
  5  9  2  0
  1  2  1  0
  1  3  1  0
  1  4  1  0
  6  7  1  0
  6  8  1  0
 10 14  1  0
 14 16  1  0
 16 17  2  0
 16 18  1  0
 10 11  1  0
 10 12  1  0
 10 13  1  0
 14 15  1  0
 18 19  1  0
 18 20  1  0
 18 21  1  0
M  END
>  <PDB_ID>  (615) 
pdb3qjg

>  <RESIDUE_NAME>  (615) 
ASN   ILE

>  <FRAG_NAME>  (615) 
ACEM   NMA

>  <FRAG_ATOM_NUM>  (615) 
fragi: 9  fragj: 12

>  <atom.prop.CHAIN_ID>  (615) 
A A A A A A A A A Z Z Z Z Z Z Z Z Z Z Z Z

>  <atom.prop.IS_HEAVY_ATOM>  (615) 
1 0 0 0 1 1 0 0 1 1 0 0 0 1 0 1 1 1 0 0 0

>  <DIFUSE_FUNC_ATOM>  (615) 
n/a

>  <FINAL_SINGLE_POINT_ENERGY>  (615) 
0

>  <NONCOV_INTER_ENERGY_QM>  (615) 
0

>  <FF_Energy>  (615) 
16.56

>  <QM_Energy>  (615) 
35.46

>  <source>  (615) 
ACEM_nNMA_43

>  <Index>  (615) 
705

$$$$
ACEM-pdb4oaq-B-GLN-10:NMA-pdb4oaq-B-PHE-366
     RDKit          3D

 21 19  0  0  0  0  0  0  0  0999 V2000
   -5.5138    1.2316   -1.3317 C   0  0  0  0  0  0  0  0  0  0  0  0
   -6.3974    1.2609   -0.8744 H   0  0  0  0  0  0  0  0  0  0  0  0
   -5.5706    0.6707   -2.1525 H   0  0  0  0  0  0  0  0  0  0  0  0
   -5.2255    2.2443   -1.6134 H   0  0  0  0  0  0  0  0  0  0  0  0
   -4.5039    0.6116   -0.3905 C   0  0  0  0  0  0  0  0  0  0  0  0
   -3.3590    0.2111   -0.9283 N   0  0  0  0  0  0  0  0  0  0  0  0
   -2.6272   -0.2024   -0.3563 H   0  0  0  0  0  0  0  0  0  0  0  0
   -3.2224    0.3231   -1.9326 H   0  0  0  0  0  0  0  0  0  0  0  0
   -4.7577    0.4813    0.8097 O   0  0  0  0  0  0  0  0  0  0  0  0
   -1.1302   -2.1763   -0.0023 C   0  0  0  0  0  0  0  0  0  0  0  0
   -0.4227   -2.5047    0.6365 H   0  0  0  0  0  0  0  0  0  0  0  0
   -0.9122   -2.5700   -0.9951 H   0  0  0  0  0  0  0  0  0  0  0  0
   -2.0889   -2.5544    0.3527 H   0  0  0  0  0  0  0  0  0  0  0  0
   -1.1216   -0.7142   -0.0000 N   0  0  0  0  0  0  0  0  0  0  0  0
   -1.9967   -0.1424    0.0015 H   0  0  0  0  0  0  0  0  0  0  0  0
    0.0000    0.0000    0.0000 C   0  0  0  0  0  0  0  0  0  0  0  0
    1.1216   -0.5017    0.0000 O   0  0  0  0  0  0  0  0  0  0  0  0
   -0.1872    1.5176   -0.0017 C   0  0  0  0  0  0  0  0  0  0  0  0
   -1.0791    1.7008    0.4566 H   0  0  0  0  0  0  0  0  0  0  0  0
    0.5711    2.0694    0.5539 H   0  0  0  0  0  0  0  0  0  0  0  0
   -0.2397    1.8947   -1.0231 H   0  0  0  0  0  0  0  0  0  0  0  0
  1  5  1  0
  5  6  1  0
  5  9  2  0
  1  2  1  0
  1  3  1  0
  1  4  1  0
  6  7  1  0
  6  8  1  0
 10 14  1  0
 14 16  1  0
 16 17  2  0
 16 18  1  0
 10 11  1  0
 10 12  1  0
 10 13  1  0
 14 15  1  0
 18 19  1  0
 18 20  1  0
 18 21  1  0
M  END
>  <PDB_ID>  (616) 
pdb4oaq

>  <RESIDUE_NAME>  (616) 
GLN   PHE

>  <FRAG_NAME>  (616) 
ACEM   NMA

>  <FRAG_ATOM_NUM>  (616) 
fragi: 9  fragj: 12

>  <atom.prop.CHAIN_ID>  (616) 
A A A A A A A A A Z Z Z Z Z Z Z Z Z Z Z Z

>  <atom.prop.IS_HEAVY_ATOM>  (616) 
1 0 0 0 1 1 0 0 1 1 0 0 0 1 0 1 1 1 0 0 0

>  <DIFUSE_FUNC_ATOM>  (616) 
n/a

>  <FINAL_SINGLE_POINT_ENERGY>  (616) 
0

>  <NONCOV_INTER_ENERGY_QM>  (616) 
0

>  <FF_Energy>  (616) 
25.03

>  <QM_Energy>  (616) 
67.73

>  <source>  (616) 
ACEM_nNMA_43

>  <Index>  (616) 
1032

$$$$
ACEM-pdb4oe4-B-GLN-81:NMA-pdb4oe4-B-ALA-240
     RDKit          3D

 21 19  0  0  0  0  0  0  0  0999 V2000
   -5.5929    1.3810    1.6334 C   0  0  0  0  0  0  0  0  0  0  0  0
   -6.3612    0.7309    1.6217 H   0  0  0  0  0  0  0  0  0  0  0  0
   -5.9098    2.2556    1.2476 H   0  0  0  0  0  0  0  0  0  0  0  0
   -5.2891    1.5450    2.6673 H   0  0  0  0  0  0  0  0  0  0  0  0
   -4.4928    0.8336    0.7365 C   0  0  0  0  0  0  0  0  0  0  0  0
   -3.4041    0.3862    1.3575 N   0  0  0  0  0  0  0  0  0  0  0  0
   -2.6298   -0.0080    0.8255 H   0  0  0  0  0  0  0  0  0  0  0  0
   -3.3571    0.4448    2.3710 H   0  0  0  0  0  0  0  0  0  0  0  0
   -4.6088    0.8217   -0.4950 O   0  0  0  0  0  0  0  0  0  0  0  0
   -1.0859   -2.1751    0.0398 C   0  0  0  0  0  0  0  0  0  0  0  0
   -0.6073   -2.4613    0.8788 H   0  0  0  0  0  0  0  0  0  0  0  0
   -0.5497   -2.5822   -0.8174 H   0  0  0  0  0  0  0  0  0  0  0  0
   -2.0917   -2.5932    0.0789 H   0  0  0  0  0  0  0  0  0  0  0  0
   -1.1212   -0.7145   -0.0000 N   0  0  0  0  0  0  0  0  0  0  0  0
   -1.9944   -0.1624   -0.0293 H   0  0  0  0  0  0  0  0  0  0  0  0
    0.0000    0.0000    0.0000 C   0  0  0  0  0  0  0  0  0  0  0  0
    1.1212   -0.5155    0.0000 O   0  0  0  0  0  0  0  0  0  0  0  0
   -0.1478    1.5241   -0.0106 C   0  0  0  0  0  0  0  0  0  0  0  0
    0.7385    1.9272   -0.3152 H   0  0  0  0  0  0  0  0  0  0  0  0
   -0.9389    1.8918   -0.6642 H   0  0  0  0  0  0  0  0  0  0  0  0
   -0.2867    1.9020    1.0023 H   0  0  0  0  0  0  0  0  0  0  0  0
  1  5  1  0
  5  6  1  0
  5  9  2  0
  1  2  1  0
  1  3  1  0
  1  4  1  0
  6  7  1  0
  6  8  1  0
 10 14  1  0
 14 16  1  0
 16 17  2  0
 16 18  1  0
 10 11  1  0
 10 12  1  0
 10 13  1  0
 14 15  1  0
 18 19  1  0
 18 20  1  0
 18 21  1  0
M  END
>  <PDB_ID>  (617) 
pdb4oe4

>  <RESIDUE_NAME>  (617) 
GLN   ALA

>  <FRAG_NAME>  (617) 
ACEM   NMA

>  <FRAG_ATOM_NUM>  (617) 
fragi: 9  fragj: 12

>  <atom.prop.CHAIN_ID>  (617) 
A A A A A A A A A Z Z Z Z Z Z Z Z Z Z Z Z

>  <atom.prop.IS_HEAVY_ATOM>  (617) 
1 0 0 0 1 1 0 0 1 1 0 0 0 1 0 1 1 1 0 0 0

>  <DIFUSE_FUNC_ATOM>  (617) 
n/a

>  <FINAL_SINGLE_POINT_ENERGY>  (617) 
0

>  <NONCOV_INTER_ENERGY_QM>  (617) 
0

>  <FF_Energy>  (617) 
5.2

>  <QM_Energy>  (617) 
17.62

>  <source>  (617) 
ACEM_nNMA_43

>  <Index>  (617) 
3216

$$$$
ACEM-pdb3qkw-B-GLN-18:NMA-pdb3qkw-B-GLY-10
     RDKit          3D

 21 19  0  0  0  0  0  0  0  0999 V2000
   -5.9960   -0.5854    0.3073 C   0  0  0  0  0  0  0  0  0  0  0  0
   -6.5721   -0.2654   -0.4448 H   0  0  0  0  0  0  0  0  0  0  0  0
   -6.2627   -0.1244    1.1530 H   0  0  0  0  0  0  0  0  0  0  0  0
   -6.1374   -1.6593    0.4288 H   0  0  0  0  0  0  0  0  0  0  0  0
   -4.5545   -0.2195   -0.0054 C   0  0  0  0  0  0  0  0  0  0  0  0
   -3.6528   -1.1501    0.2162 N   0  0  0  0  0  0  0  0  0  0  0  0
   -2.6636   -0.9851    0.0179 H   0  0  0  0  0  0  0  0  0  0  0  0
   -3.9484   -2.0517    0.5947 H   0  0  0  0  0  0  0  0  0  0  0  0
   -4.2610    0.8979   -0.4233 O   0  0  0  0  0  0  0  0  0  0  0  0
   -0.9804   -2.1635   -0.2628 C   0  0  0  0  0  0  0  0  0  0  0  0
   -0.0565   -2.4550    0.0188 H   0  0  0  0  0  0  0  0  0  0  0  0
   -1.0884   -2.3864   -1.3244 H   0  0  0  0  0  0  0  0  0  0  0  0
   -1.6541   -2.7606    0.3518 H   0  0  0  0  0  0  0  0  0  0  0  0
   -1.1020   -0.7358    0.0000 N   0  0  0  0  0  0  0  0  0  0  0  0
   -1.9750   -0.2497    0.1861 H   0  0  0  0  0  0  0  0  0  0  0  0
    0.0000    0.0000    0.0000 C   0  0  0  0  0  0  0  0  0  0  0  0
    1.1020   -0.5233   -0.0000 O   0  0  0  0  0  0  0  0  0  0  0  0
   -0.1382    1.5175    0.0336 C   0  0  0  0  0  0  0  0  0  0  0  0
    0.1930    1.8994   -0.8628 H   0  0  0  0  0  0  0  0  0  0  0  0
    0.5122    1.8927    0.7374 H   0  0  0  0  0  0  0  0  0  0  0  0
   -1.1371    1.9050    0.2341 H   0  0  0  0  0  0  0  0  0  0  0  0
  1  5  1  0
  5  6  1  0
  5  9  2  0
  1  2  1  0
  1  3  1  0
  1  4  1  0
  6  7  1  0
  6  8  1  0
 10 14  1  0
 14 16  1  0
 16 17  2  0
 16 18  1  0
 10 11  1  0
 10 12  1  0
 10 13  1  0
 14 15  1  0
 18 19  1  0
 18 20  1  0
 18 21  1  0
M  END
>  <PDB_ID>  (618) 
pdb3qkw

>  <RESIDUE_NAME>  (618) 
GLN   GLY

>  <FRAG_NAME>  (618) 
ACEM   NMA

>  <FRAG_ATOM_NUM>  (618) 
fragi: 9  fragj: 12

>  <atom.prop.CHAIN_ID>  (618) 
A A A A A A A A A Z Z Z Z Z Z Z Z Z Z Z Z

>  <atom.prop.IS_HEAVY_ATOM>  (618) 
1 0 0 0 1 1 0 0 1 1 0 0 0 1 0 1 1 1 0 0 0

>  <DIFUSE_FUNC_ATOM>  (618) 
n/a

>  <FINAL_SINGLE_POINT_ENERGY>  (618) 
0

>  <NONCOV_INTER_ENERGY_QM>  (618) 
0

>  <FF_Energy>  (618) 
13.33

>  <QM_Energy>  (618) 
31.01

>  <source>  (618) 
ACEM_nNMA_43

>  <Index>  (618) 
3391

$$$$
ACEM-pdb3qfa-B-GLN-464:NMA-pdb3qfa-B-LEU-460
     RDKit          3D

 21 19  0  0  0  0  0  0  0  0999 V2000
   -5.1698    0.0490    0.6708 C   0  0  0  0  0  0  0  0  0  0  0  0
   -6.1153    0.2222    0.9412 H   0  0  0  0  0  0  0  0  0  0  0  0
   -4.9431   -0.9105    0.8289 H   0  0  0  0  0  0  0  0  0  0  0  0
   -5.0596    0.2681   -0.3913 H   0  0  0  0  0  0  0  0  0  0  0  0
   -4.2622    0.9066    1.5155 C   0  0  0  0  0  0  0  0  0  0  0  0
   -2.9572    0.7409    1.3363 N   0  0  0  0  0  0  0  0  0  0  0  0
   -2.2807    1.2944    1.8607 H   0  0  0  0  0  0  0  0  0  0  0  0
   -2.6377    0.0468    0.6624 H   0  0  0  0  0  0  0  0  0  0  0  0
   -4.7299    1.7083    2.3312 O   0  0  0  0  0  0  0  0  0  0  0  0
   -1.1305   -2.1836   -0.0165 C   0  0  0  0  0  0  0  0  0  0  0  0
   -0.1854   -2.5024    0.0095 H   0  0  0  0  0  0  0  0  0  0  0  0
   -1.5846   -2.5255   -0.9466 H   0  0  0  0  0  0  0  0  0  0  0  0
   -1.6987   -2.5886    0.8210 H   0  0  0  0  0  0  0  0  0  0  0  0
   -1.1282   -0.7154   -0.0000 N   0  0  0  0  0  0  0  0  0  0  0  0
   -2.0008   -0.1465    0.0128 H   0  0  0  0  0  0  0  0  0  0  0  0
    0.0000    0.0000    0.0000 C   0  0  0  0  0  0  0  0  0  0  0  0
    1.1282   -0.5155   -0.0000 O   0  0  0  0  0  0  0  0  0  0  0  0
   -0.1686    1.5243   -0.0112 C   0  0  0  0  0  0  0  0  0  0  0  0
   -1.1496    1.7334    0.1807 H   0  0  0  0  0  0  0  0  0  0  0  0
    0.4433    2.0576    0.7162 H   0  0  0  0  0  0  0  0  0  0  0  0
    0.0576    1.8959   -1.0106 H   0  0  0  0  0  0  0  0  0  0  0  0
  1  5  1  0
  5  6  1  0
  5  9  2  0
  1  2  1  0
  1  3  1  0
  1  4  1  0
  6  7  1  0
  6  8  1  0
 10 14  1  0
 14 16  1  0
 16 17  2  0
 16 18  1  0
 10 11  1  0
 10 12  1  0
 10 13  1  0
 14 15  1  0
 18 19  1  0
 18 20  1  0
 18 21  1  0
M  END
>  <PDB_ID>  (619) 
pdb3qfa

>  <RESIDUE_NAME>  (619) 
GLN   LEU

>  <FRAG_NAME>  (619) 
ACEM   NMA

>  <FRAG_ATOM_NUM>  (619) 
fragi: 9  fragj: 12

>  <atom.prop.CHAIN_ID>  (619) 
A A A A A A A A A Z Z Z Z Z Z Z Z Z Z Z Z

>  <atom.prop.IS_HEAVY_ATOM>  (619) 
1 0 0 0 1 1 0 0 1 1 0 0 0 1 0 1 1 1 0 0 0

>  <DIFUSE_FUNC_ATOM>  (619) 
n/a

>  <FINAL_SINGLE_POINT_ENERGY>  (619) 
0

>  <NONCOV_INTER_ENERGY_QM>  (619) 
0

>  <FF_Energy>  (619) 
17.38

>  <QM_Energy>  (619) 
36.54

>  <source>  (619) 
ACEM_nNMA_43

>  <Index>  (619) 
3434

$$$$
ACEM-pdb3qnz-A-ASN-36:NMA-pdb3qnz-A-SER-72
     RDKit          3D

 21 19  0  0  0  0  0  0  0  0999 V2000
   -4.3834    2.0308    2.8895 C   0  0  0  0  0  0  0  0  0  0  0  0
   -4.0316    2.8481    3.3444 H   0  0  0  0  0  0  0  0  0  0  0  0
   -4.1912    1.2254    3.4488 H   0  0  0  0  0  0  0  0  0  0  0  0
   -5.4640    2.1298    2.7857 H   0  0  0  0  0  0  0  0  0  0  0  0
   -3.6818    1.8765    1.5659 C   0  0  0  0  0  0  0  0  0  0  0  0
   -3.3824    0.6434    1.1922 N   0  0  0  0  0  0  0  0  0  0  0  0
   -3.6283   -0.1314    1.7800 H   0  0  0  0  0  0  0  0  0  0  0  0
   -2.9109    0.4779    0.3256 H   0  0  0  0  0  0  0  0  0  0  0  0
   -3.4103    2.8594    0.8659 O   0  0  0  0  0  0  0  0  0  0  0  0
   -1.1668   -2.1530   -0.0116 C   0  0  0  0  0  0  0  0  0  0  0  0
   -2.1227   -2.4607   -0.1880 H   0  0  0  0  0  0  0  0  0  0  0  0
   -0.6072   -2.4955   -0.7931 H   0  0  0  0  0  0  0  0  0  0  0  0
   -0.8086   -2.6074    0.9122 H   0  0  0  0  0  0  0  0  0  0  0  0
   -1.1288   -0.7000   -0.0000 N   0  0  0  0  0  0  0  0  0  0  0  0
   -1.9972   -0.1079    0.0098 H   0  0  0  0  0  0  0  0  0  0  0  0
    0.0000    0.0000    0.0000 C   0  0  0  0  0  0  0  0  0  0  0  0
    1.1288   -0.5102    0.0000 O   0  0  0  0  0  0  0  0  0  0  0  0
   -0.1700    1.5223    0.0099 C   0  0  0  0  0  0  0  0  0  0  0  0
   -0.9551    1.7399    0.6002 H   0  0  0  0  0  0  0  0  0  0  0  0
    0.7103    2.0140    0.4241 H   0  0  0  0  0  0  0  0  0  0  0  0
   -0.3825    1.8850   -0.9958 H   0  0  0  0  0  0  0  0  0  0  0  0
  1  5  1  0
  5  6  1  0
  5  9  2  0
  1  2  1  0
  1  3  1  0
  1  4  1  0
  6  7  1  0
  6  8  1  0
 10 14  1  0
 14 16  1  0
 16 17  2  0
 16 18  1  0
 10 11  1  0
 10 12  1  0
 10 13  1  0
 14 15  1  0
 18 19  1  0
 18 20  1  0
 18 21  1  0
M  END
>  <PDB_ID>  (620) 
pdb3qnz

>  <RESIDUE_NAME>  (620) 
ASN   SER

>  <FRAG_NAME>  (620) 
ACEM   NMA

>  <FRAG_ATOM_NUM>  (620) 
fragi: 9  fragj: 12

>  <atom.prop.CHAIN_ID>  (620) 
A A A A A A A A A Z Z Z Z Z Z Z Z Z Z Z Z

>  <atom.prop.IS_HEAVY_ATOM>  (620) 
1 0 0 0 1 1 0 0 1 1 0 0 0 1 0 1 1 1 0 0 0

>  <DIFUSE_FUNC_ATOM>  (620) 
n/a

>  <FINAL_SINGLE_POINT_ENERGY>  (620) 
0

>  <NONCOV_INTER_ENERGY_QM>  (620) 
0

>  <FF_Energy>  (620) 
4.6

>  <QM_Energy>  (620) 
17.83

>  <source>  (620) 
ACEM_nNMA_43

>  <Index>  (620) 
4786

$$$$
ACEM-pdb4okv-A-ASN-196:NMA-pdb4okv-A-ASN-155
     RDKit          3D

 21 19  0  0  0  0  0  0  0  0999 V2000
   -5.9893   -0.7526    0.4630 C   0  0  0  0  0  0  0  0  0  0  0  0
   -5.7525   -1.1999    1.3214 H   0  0  0  0  0  0  0  0  0  0  0  0
   -6.4152   -1.4062   -0.1569 H   0  0  0  0  0  0  0  0  0  0  0  0
   -6.7079    0.0393    0.6743 H   0  0  0  0  0  0  0  0  0  0  0  0
   -4.7242   -0.2297   -0.1772 C   0  0  0  0  0  0  0  0  0  0  0  0
   -3.6258   -0.2680    0.5667 N   0  0  0  0  0  0  0  0  0  0  0  0
   -3.6646   -0.6358    1.4980 H   0  0  0  0  0  0  0  0  0  0  0  0
   -2.7586    0.0688    0.2010 H   0  0  0  0  0  0  0  0  0  0  0  0
   -4.7305    0.2060   -1.3321 O   0  0  0  0  0  0  0  0  0  0  0  0
   -1.1368   -2.1770   -0.0548 C   0  0  0  0  0  0  0  0  0  0  0  0
   -2.0963   -2.4833    0.0657 H   0  0  0  0  0  0  0  0  0  0  0  0
   -0.5369   -2.6370    0.7304 H   0  0  0  0  0  0  0  0  0  0  0  0
   -0.8179   -2.5250   -1.0373 H   0  0  0  0  0  0  0  0  0  0  0  0
   -1.1246   -0.7149   -0.0000 N   0  0  0  0  0  0  0  0  0  0  0  0
   -1.9977   -0.1412    0.0427 H   0  0  0  0  0  0  0  0  0  0  0  0
    0.0000    0.0000    0.0000 C   0  0  0  0  0  0  0  0  0  0  0  0
    1.1246   -0.5037    0.0000 O   0  0  0  0  0  0  0  0  0  0  0  0
   -0.1670    1.5232    0.0245 C   0  0  0  0  0  0  0  0  0  0  0  0
   -0.6262    1.7831   -0.8466 H   0  0  0  0  0  0  0  0  0  0  0  0
   -0.7929    1.8973    0.8346 H   0  0  0  0  0  0  0  0  0  0  0  0
    0.8054    2.0159    0.0215 H   0  0  0  0  0  0  0  0  0  0  0  0
  1  5  1  0
  5  6  1  0
  5  9  2  0
  1  2  1  0
  1  3  1  0
  1  4  1  0
  6  7  1  0
  6  8  1  0
 10 14  1  0
 14 16  1  0
 16 17  2  0
 16 18  1  0
 10 11  1  0
 10 12  1  0
 10 13  1  0
 14 15  1  0
 18 19  1  0
 18 20  1  0
 18 21  1  0
M  END
>  <PDB_ID>  (621) 
pdb4okv

>  <RESIDUE_NAME>  (621) 
ASN   ASN

>  <FRAG_NAME>  (621) 
ACEM   NMA

>  <FRAG_ATOM_NUM>  (621) 
fragi: 9  fragj: 12

>  <atom.prop.CHAIN_ID>  (621) 
A A A A A A A A A Z Z Z Z Z Z Z Z Z Z Z Z

>  <atom.prop.IS_HEAVY_ATOM>  (621) 
1 0 0 0 1 1 0 0 1 1 0 0 0 1 0 1 1 1 0 0 0

>  <DIFUSE_FUNC_ATOM>  (621) 
n/a

>  <FINAL_SINGLE_POINT_ENERGY>  (621) 
0

>  <NONCOV_INTER_ENERGY_QM>  (621) 
0

>  <FF_Energy>  (621) 
22.1

>  <QM_Energy>  (621) 
53.4

>  <source>  (621) 
ACEM_nNMA_43

>  <Index>  (621) 
5063

$$$$
ACEM-pdb4ofi-G-GLN-113:NMA-pdb4ofi-G-LEU-121
     RDKit          3D

 21 19  0  0  0  0  0  0  0  0999 V2000
   -4.7104   -0.1560    1.1260 C   0  0  0  0  0  0  0  0  0  0  0  0
   -4.7846    0.8371    1.2146 H   0  0  0  0  0  0  0  0  0  0  0  0
   -3.8103   -0.4540    1.4438 H   0  0  0  0  0  0  0  0  0  0  0  0
   -5.4751   -0.6230    1.7467 H   0  0  0  0  0  0  0  0  0  0  0  0
   -4.8456   -0.5182   -0.3474 C   0  0  0  0  0  0  0  0  0  0  0  0
   -3.7218   -0.5401   -1.0612 N   0  0  0  0  0  0  0  0  0  0  0  0
   -3.7357   -0.7858   -2.0435 H   0  0  0  0  0  0  0  0  0  0  0  0
   -2.8449   -0.3035   -0.5997 H   0  0  0  0  0  0  0  0  0  0  0  0
   -5.9470   -0.7784   -0.8339 O   0  0  0  0  0  0  0  0  0  0  0  0
   -1.0811   -2.1673    0.0135 C   0  0  0  0  0  0  0  0  0  0  0  0
   -1.4184   -2.5210   -0.8773 H   0  0  0  0  0  0  0  0  0  0  0  0
   -0.1178   -2.4779    0.1073 H   0  0  0  0  0  0  0  0  0  0  0  0
   -1.6767   -2.5983    0.8183 H   0  0  0  0  0  0  0  0  0  0  0  0
   -1.1186   -0.7169   -0.0000 N   0  0  0  0  0  0  0  0  0  0  0  0
   -1.9937   -0.1618   -0.0108 H   0  0  0  0  0  0  0  0  0  0  0  0
    0.0000    0.0000    0.0000 C   0  0  0  0  0  0  0  0  0  0  0  0
    1.1186   -0.5140    0.0000 O   0  0  0  0  0  0  0  0  0  0  0  0
   -0.1582    1.5186    0.0073 C   0  0  0  0  0  0  0  0  0  0  0  0
    0.5209    1.9111   -0.6378 H   0  0  0  0  0  0  0  0  0  0  0  0
   -1.1509    1.8526   -0.2944 H   0  0  0  0  0  0  0  0  0  0  0  0
    0.0892    1.9059    0.9957 H   0  0  0  0  0  0  0  0  0  0  0  0
  1  5  1  0
  5  6  1  0
  5  9  2  0
  1  2  1  0
  1  3  1  0
  1  4  1  0
  6  7  1  0
  6  8  1  0
 10 14  1  0
 14 16  1  0
 16 17  2  0
 16 18  1  0
 10 11  1  0
 10 12  1  0
 10 13  1  0
 14 15  1  0
 18 19  1  0
 18 20  1  0
 18 21  1  0
M  END
>  <PDB_ID>  (622) 
pdb4ofi

>  <RESIDUE_NAME>  (622) 
GLN   LEU

>  <FRAG_NAME>  (622) 
ACEM   NMA

>  <FRAG_ATOM_NUM>  (622) 
fragi: 9  fragj: 12

>  <atom.prop.CHAIN_ID>  (622) 
A A A A A A A A A Z Z Z Z Z Z Z Z Z Z Z Z

>  <atom.prop.IS_HEAVY_ATOM>  (622) 
1 0 0 0 1 1 0 0 1 1 0 0 0 1 0 1 1 1 0 0 0

>  <DIFUSE_FUNC_ATOM>  (622) 
n/a

>  <FINAL_SINGLE_POINT_ENERGY>  (622) 
0

>  <NONCOV_INTER_ENERGY_QM>  (622) 
0

>  <FF_Energy>  (622) 
9.83

>  <QM_Energy>  (622) 
22.83

>  <source>  (622) 
ACEM_nNMA_43

>  <Index>  (622) 
6571

$$$$
ACEM-pdb3qjg-D-ASN-85:NMA-pdb3qjg-E-ILE-94
     RDKit          3D

 21 19  0  0  0  0  0  0  0  0999 V2000
   -5.0697   -0.4751    1.2880 C   0  0  0  0  0  0  0  0  0  0  0  0
   -4.5041   -1.2656    1.4916 H   0  0  0  0  0  0  0  0  0  0  0  0
   -6.0212   -0.6587    1.5055 H   0  0  0  0  0  0  0  0  0  0  0  0
   -4.7374    0.3409    1.9297 H   0  0  0  0  0  0  0  0  0  0  0  0
   -4.9575   -0.1597   -0.2135 C   0  0  0  0  0  0  0  0  0  0  0  0
   -3.6762    0.0347   -0.7324 N   0  0  0  0  0  0  0  0  0  0  0  0
   -2.9241   -0.0535   -0.0851 H   0  0  0  0  0  0  0  0  0  0  0  0
   -3.5684    0.2397   -1.6732 H   0  0  0  0  0  0  0  0  0  0  0  0
   -5.9777   -0.0196   -0.8961 O   0  0  0  0  0  0  0  0  0  0  0  0
   -1.1412   -2.1615   -0.0926 C   0  0  0  0  0  0  0  0  0  0  0  0
   -0.3544   -2.4397   -0.6544 H   0  0  0  0  0  0  0  0  0  0  0  0
   -2.0503   -2.5171   -0.5776 H   0  0  0  0  0  0  0  0  0  0  0  0
   -1.0482   -2.6535    0.8756 H   0  0  0  0  0  0  0  0  0  0  0  0
   -1.1412   -0.7024   -0.0000 N   0  0  0  0  0  0  0  0  0  0  0  0
   -2.0018   -0.1307    0.0693 H   0  0  0  0  0  0  0  0  0  0  0  0
    0.0000    0.0000    0.0000 C   0  0  0  0  0  0  0  0  0  0  0  0
    1.1412   -0.5308   -0.0000 O   0  0  0  0  0  0  0  0  0  0  0  0
   -0.1474    1.5048    0.0511 C   0  0  0  0  0  0  0  0  0  0  0  0
   -1.0369    1.6909    0.4393 H   0  0  0  0  0  0  0  0  0  0  0  0
    0.5883    1.8461    0.7795 H   0  0  0  0  0  0  0  0  0  0  0  0
    0.0300    1.9343   -0.9349 H   0  0  0  0  0  0  0  0  0  0  0  0
  1  5  1  0
  5  6  1  0
  5  9  2  0
  1  2  1  0
  1  3  1  0
  1  4  1  0
  6  7  1  0
  6  8  1  0
 10 14  1  0
 14 16  1  0
 16 17  2  0
 16 18  1  0
 10 11  1  0
 10 12  1  0
 10 13  1  0
 14 15  1  0
 18 19  1  0
 18 20  1  0
 18 21  1  0
M  END
>  <PDB_ID>  (623) 
pdb3qjg

>  <RESIDUE_NAME>  (623) 
ASN   ILE

>  <FRAG_NAME>  (623) 
ACEM   NMA

>  <FRAG_ATOM_NUM>  (623) 
fragi: 9  fragj: 12

>  <atom.prop.CHAIN_ID>  (623) 
A A A A A A A A A Z Z Z Z Z Z Z Z Z Z Z Z

>  <atom.prop.IS_HEAVY_ATOM>  (623) 
1 0 0 0 1 1 0 0 1 1 0 0 0 1 0 1 1 1 0 0 0

>  <DIFUSE_FUNC_ATOM>  (623) 
n/a

>  <FINAL_SINGLE_POINT_ENERGY>  (623) 
0

>  <NONCOV_INTER_ENERGY_QM>  (623) 
0

>  <FF_Energy>  (623) 
14.51

>  <QM_Energy>  (623) 
32.99

>  <source>  (623) 
ACEM_nNMA_43

>  <Index>  (623) 
8199

$$$$
ACEM-pdb3qpb-A-ASN-232:NMA-pdb3qpb-A-GLY-221
     RDKit          3D

 21 19  0  0  0  0  0  0  0  0999 V2000
   -5.9016    0.4137    1.4580 C   0  0  0  0  0  0  0  0  0  0  0  0
   -6.1815   -0.5376    1.5621 H   0  0  0  0  0  0  0  0  0  0  0  0
   -6.5977    0.9214    0.9568 H   0  0  0  0  0  0  0  0  0  0  0  0
   -5.8083    0.8528    2.4513 H   0  0  0  0  0  0  0  0  0  0  0  0
   -4.6084    0.4561    0.6728 C   0  0  0  0  0  0  0  0  0  0  0  0
   -3.5106    0.0894    1.3254 N   0  0  0  0  0  0  0  0  0  0  0  0
   -3.5704   -0.2000    2.2814 H   0  0  0  0  0  0  0  0  0  0  0  0
   -2.6241    0.1011    0.8622 H   0  0  0  0  0  0  0  0  0  0  0  0
   -4.5913    0.8273   -0.4999 O   0  0  0  0  0  0  0  0  0  0  0  0
   -1.0910   -2.1706    0.0082 C   0  0  0  0  0  0  0  0  0  0  0  0
   -0.2409   -2.4545   -0.4377 H   0  0  0  0  0  0  0  0  0  0  0  0
   -1.9115   -2.5551   -0.5976 H   0  0  0  0  0  0  0  0  0  0  0  0
   -1.1611   -2.5315    1.0343 H   0  0  0  0  0  0  0  0  0  0  0  0
   -1.1214   -0.7141    0.0000 N   0  0  0  0  0  0  0  0  0  0  0  0
   -1.9950   -0.1573   -0.0058 H   0  0  0  0  0  0  0  0  0  0  0  0
    0.0000    0.0000    0.0000 C   0  0  0  0  0  0  0  0  0  0  0  0
    1.1214   -0.5141   -0.0000 O   0  0  0  0  0  0  0  0  0  0  0  0
   -0.1498    1.5101   -0.0006 C   0  0  0  0  0  0  0  0  0  0  0  0
   -0.6519    1.7958    0.8187 H   0  0  0  0  0  0  0  0  0  0  0  0
   -0.6629    1.7936   -0.8135 H   0  0  0  0  0  0  0  0  0  0  0  0
    0.8369    1.9730   -0.0079 H   0  0  0  0  0  0  0  0  0  0  0  0
  1  5  1  0
  5  6  1  0
  5  9  2  0
  1  2  1  0
  1  3  1  0
  1  4  1  0
  6  7  1  0
  6  8  1  0
 10 14  1  0
 14 16  1  0
 16 17  2  0
 16 18  1  0
 10 11  1  0
 10 12  1  0
 10 13  1  0
 14 15  1  0
 18 19  1  0
 18 20  1  0
 18 21  1  0
M  END
>  <PDB_ID>  (624) 
pdb3qpb

>  <RESIDUE_NAME>  (624) 
ASN   GLY

>  <FRAG_NAME>  (624) 
ACEM   NMA

>  <FRAG_ATOM_NUM>  (624) 
fragi: 9  fragj: 12

>  <atom.prop.CHAIN_ID>  (624) 
A A A A A A A A A Z Z Z Z Z Z Z Z Z Z Z Z

>  <atom.prop.IS_HEAVY_ATOM>  (624) 
1 0 0 0 1 1 0 0 1 1 0 0 0 1 0 1 1 1 0 0 0

>  <DIFUSE_FUNC_ATOM>  (624) 
n/a

>  <FINAL_SINGLE_POINT_ENERGY>  (624) 
0

>  <NONCOV_INTER_ENERGY_QM>  (624) 
0

>  <FF_Energy>  (624) 
4.92

>  <QM_Energy>  (624) 
17.05

>  <source>  (624) 
ACEM_nNMA_43

>  <Index>  (624) 
8257

$$$$
ACEM-pdb3qjg-E-ASN-85:NMA-pdb3qjg-F-ILE-94
     RDKit          3D

 21 19  0  0  0  0  0  0  0  0999 V2000
   -5.0625   -0.7839    0.6786 C   0  0  0  0  0  0  0  0  0  0  0  0
   -4.4525   -1.5352    0.9322 H   0  0  0  0  0  0  0  0  0  0  0  0
   -6.0101   -1.1027    0.6957 H   0  0  0  0  0  0  0  0  0  0  0  0
   -4.9547    0.0097    1.4180 H   0  0  0  0  0  0  0  0  0  0  0  0
   -4.7265   -0.3235   -0.6897 C   0  0  0  0  0  0  0  0  0  0  0  0
   -3.5129    0.2276   -0.8803 N   0  0  0  0  0  0  0  0  0  0  0  0
   -2.8928    0.2958   -0.0970 H   0  0  0  0  0  0  0  0  0  0  0  0
   -3.2494    0.5531   -1.7748 H   0  0  0  0  0  0  0  0  0  0  0  0
   -5.5506   -0.4521   -1.5728 O   0  0  0  0  0  0  0  0  0  0  0  0
   -1.1099   -2.2006   -0.0806 C   0  0  0  0  0  0  0  0  0  0  0  0
   -0.2299   -2.4901   -0.4735 H   0  0  0  0  0  0  0  0  0  0  0  0
   -1.9044   -2.5710   -0.7284 H   0  0  0  0  0  0  0  0  0  0  0  0
   -1.1531   -2.6535    0.9098 H   0  0  0  0  0  0  0  0  0  0  0  0
   -1.1138   -0.7306   -0.0000 N   0  0  0  0  0  0  0  0  0  0  0  0
   -1.9965   -0.1729    0.0621 H   0  0  0  0  0  0  0  0  0  0  0  0
    0.0000    0.0000    0.0000 C   0  0  0  0  0  0  0  0  0  0  0  0
    1.1138   -0.4946    0.0000 O   0  0  0  0  0  0  0  0  0  0  0  0
   -0.1545    1.5074    0.0704 C   0  0  0  0  0  0  0  0  0  0  0  0
   -1.0992    1.6860    0.3023 H   0  0  0  0  0  0  0  0  0  0  0  0
    0.4406    1.8304    0.9246 H   0  0  0  0  0  0  0  0  0  0  0  0
    0.1669    1.9715   -0.8621 H   0  0  0  0  0  0  0  0  0  0  0  0
  1  5  1  0
  5  6  1  0
  5  9  2  0
  1  2  1  0
  1  3  1  0
  1  4  1  0
  6  7  1  0
  6  8  1  0
 10 14  1  0
 14 16  1  0
 16 17  2  0
 16 18  1  0
 10 11  1  0
 10 12  1  0
 10 13  1  0
 14 15  1  0
 18 19  1  0
 18 20  1  0
 18 21  1  0
M  END
>  <PDB_ID>  (625) 
pdb3qjg

>  <RESIDUE_NAME>  (625) 
ASN   ILE

>  <FRAG_NAME>  (625) 
ACEM   NMA

>  <FRAG_ATOM_NUM>  (625) 
fragi: 9  fragj: 12

>  <atom.prop.CHAIN_ID>  (625) 
A A A A A A A A A Z Z Z Z Z Z Z Z Z Z Z Z

>  <atom.prop.IS_HEAVY_ATOM>  (625) 
1 0 0 0 1 1 0 0 1 1 0 0 0 1 0 1 1 1 0 0 0

>  <DIFUSE_FUNC_ATOM>  (625) 
n/a

>  <FINAL_SINGLE_POINT_ENERGY>  (625) 
0

>  <NONCOV_INTER_ENERGY_QM>  (625) 
0

>  <FF_Energy>  (625) 
13.96

>  <QM_Energy>  (625) 
27.16

>  <source>  (625) 
ACEM_nNMA_43

>  <Index>  (625) 
9653

$$$$
ACEM-pdb3qpb-B-ASN-232:NMA-pdb3qpb-B-GLY-221
     RDKit          3D

 21 19  0  0  0  0  0  0  0  0999 V2000
   -6.0556    0.4356    1.2196 C   0  0  0  0  0  0  0  0  0  0  0  0
   -6.3846   -0.5026    1.2827 H   0  0  0  0  0  0  0  0  0  0  0  0
   -6.7212    1.0003    0.7384 H   0  0  0  0  0  0  0  0  0  0  0  0
   -5.9435    0.8268    2.2308 H   0  0  0  0  0  0  0  0  0  0  0  0
   -4.7556    0.4433    0.4371 C   0  0  0  0  0  0  0  0  0  0  0  0
   -3.6609    0.1022    1.1073 N   0  0  0  0  0  0  0  0  0  0  0  0
   -3.7254   -0.1480    2.0745 H   0  0  0  0  0  0  0  0  0  0  0  0
   -2.7728    0.0929    0.6475 H   0  0  0  0  0  0  0  0  0  0  0  0
   -4.7311    0.7681   -0.7484 O   0  0  0  0  0  0  0  0  0  0  0  0
   -1.0779   -2.1761   -0.0042 C   0  0  0  0  0  0  0  0  0  0  0  0
   -0.2183   -2.4497   -0.4261 H   0  0  0  0  0  0  0  0  0  0  0  0
   -1.8782   -2.5384   -0.6495 H   0  0  0  0  0  0  0  0  0  0  0  0
   -1.1948   -2.5459    1.0145 H   0  0  0  0  0  0  0  0  0  0  0  0
   -1.1181   -0.7181    0.0000 N   0  0  0  0  0  0  0  0  0  0  0  0
   -1.9939   -0.1677    0.0035 H   0  0  0  0  0  0  0  0  0  0  0  0
    0.0000    0.0000    0.0000 C   0  0  0  0  0  0  0  0  0  0  0  0
    1.1181   -0.5093    0.0000 O   0  0  0  0  0  0  0  0  0  0  0  0
   -0.1463    1.5101    0.0007 C   0  0  0  0  0  0  0  0  0  0  0  0
   -0.6645    1.7947    0.8076 H   0  0  0  0  0  0  0  0  0  0  0  0
   -0.6334    1.7979   -0.8239 H   0  0  0  0  0  0  0  0  0  0  0  0
    0.8452    1.9625    0.0209 H   0  0  0  0  0  0  0  0  0  0  0  0
  1  5  1  0
  5  6  1  0
  5  9  2  0
  1  2  1  0
  1  3  1  0
  1  4  1  0
  6  7  1  0
  6  8  1  0
 10 14  1  0
 14 16  1  0
 16 17  2  0
 16 18  1  0
 10 11  1  0
 10 12  1  0
 10 13  1  0
 14 15  1  0
 18 19  1  0
 18 20  1  0
 18 21  1  0
M  END
>  <PDB_ID>  (626) 
pdb3qpb

>  <RESIDUE_NAME>  (626) 
ASN   GLY

>  <FRAG_NAME>  (626) 
ACEM   NMA

>  <FRAG_ATOM_NUM>  (626) 
fragi: 9  fragj: 12

>  <atom.prop.CHAIN_ID>  (626) 
A A A A A A A A A Z Z Z Z Z Z Z Z Z Z Z Z

>  <atom.prop.IS_HEAVY_ATOM>  (626) 
1 0 0 0 1 1 0 0 1 1 0 0 0 1 0 1 1 1 0 0 0

>  <DIFUSE_FUNC_ATOM>  (626) 
n/a

>  <FINAL_SINGLE_POINT_ENERGY>  (626) 
0

>  <NONCOV_INTER_ENERGY_QM>  (626) 
0

>  <FF_Energy>  (626) 
6.44

>  <QM_Energy>  (626) 
20.77

>  <source>  (626) 
ACEM_nNMA_43

>  <Index>  (626) 
10241

$$$$
ACEM-pdb3qpb-C-ASN-232:NMA-pdb3qpb-C-GLY-221
     RDKit          3D

 21 19  0  0  0  0  0  0  0  0999 V2000
   -5.9470    0.3259    1.2692 C   0  0  0  0  0  0  0  0  0  0  0  0
   -6.2046   -0.6285    1.3909 H   0  0  0  0  0  0  0  0  0  0  0  0
   -6.6599    0.8123    0.7703 H   0  0  0  0  0  0  0  0  0  0  0  0
   -5.8479    0.7823    2.2541 H   0  0  0  0  0  0  0  0  0  0  0  0
   -4.6635    0.3829    0.4617 C   0  0  0  0  0  0  0  0  0  0  0  0
   -3.5404    0.0803    1.1084 N   0  0  0  0  0  0  0  0  0  0  0  0
   -3.5790   -0.1730    2.0764 H   0  0  0  0  0  0  0  0  0  0  0  0
   -2.6647    0.1058    0.6313 H   0  0  0  0  0  0  0  0  0  0  0  0
   -4.6796    0.7094   -0.7212 O   0  0  0  0  0  0  0  0  0  0  0  0
   -1.0740   -2.1792   -0.0126 C   0  0  0  0  0  0  0  0  0  0  0  0
   -0.1991   -2.4462   -0.4176 H   0  0  0  0  0  0  0  0  0  0  0  0
   -1.8582   -2.5584   -0.6677 H   0  0  0  0  0  0  0  0  0  0  0  0
   -1.1965   -2.5629    1.0003 H   0  0  0  0  0  0  0  0  0  0  0  0
   -1.1195   -0.7205    0.0000 N   0  0  0  0  0  0  0  0  0  0  0  0
   -1.9952   -0.1722    0.0091 H   0  0  0  0  0  0  0  0  0  0  0  0
    0.0000    0.0000    0.0000 C   0  0  0  0  0  0  0  0  0  0  0  0
    1.1195   -0.5116    0.0000 O   0  0  0  0  0  0  0  0  0  0  0  0
   -0.1417    1.5107    0.0119 C   0  0  0  0  0  0  0  0  0  0  0  0
   -0.6571    1.7919    0.8252 H   0  0  0  0  0  0  0  0  0  0  0  0
   -0.6389    1.8063   -0.8068 H   0  0  0  0  0  0  0  0  0  0  0  0
    0.8460    1.9716    0.0268 H   0  0  0  0  0  0  0  0  0  0  0  0
  1  5  1  0
  5  6  1  0
  5  9  2  0
  1  2  1  0
  1  3  1  0
  1  4  1  0
  6  7  1  0
  6  8  1  0
 10 14  1  0
 14 16  1  0
 16 17  2  0
 16 18  1  0
 10 11  1  0
 10 12  1  0
 10 13  1  0
 14 15  1  0
 18 19  1  0
 18 20  1  0
 18 21  1  0
M  END
>  <PDB_ID>  (627) 
pdb3qpb

>  <RESIDUE_NAME>  (627) 
ASN   GLY

>  <FRAG_NAME>  (627) 
ACEM   NMA

>  <FRAG_ATOM_NUM>  (627) 
fragi: 9  fragj: 12

>  <atom.prop.CHAIN_ID>  (627) 
A A A A A A A A A Z Z Z Z Z Z Z Z Z Z Z Z

>  <atom.prop.IS_HEAVY_ATOM>  (627) 
1 0 0 0 1 1 0 0 1 1 0 0 0 1 0 1 1 1 0 0 0

>  <DIFUSE_FUNC_ATOM>  (627) 
n/a

>  <FINAL_SINGLE_POINT_ENERGY>  (627) 
0

>  <NONCOV_INTER_ENERGY_QM>  (627) 
0

>  <FF_Energy>  (627) 
9.71

>  <QM_Energy>  (627) 
29.38

>  <source>  (627) 
ACEM_nNMA_43

>  <Index>  (627) 
12145

$$$$
ACEM-pdb3qwv-A-ASN-251:NMA-pdb3qwv-A-THR-261
     RDKit          3D

 21 19  0  0  0  0  0  0  0  0999 V2000
   -5.0315    1.8164   -1.7610 C   0  0  0  0  0  0  0  0  0  0  0  0
   -5.6093    1.8078   -2.5671 H   0  0  0  0  0  0  0  0  0  0  0  0
   -4.3769    2.5602   -1.8031 H   0  0  0  0  0  0  0  0  0  0  0  0
   -5.6611    1.9573   -0.8825 H   0  0  0  0  0  0  0  0  0  0  0  0
   -4.2813    0.5112   -1.6875 C   0  0  0  0  0  0  0  0  0  0  0  0
   -3.4693    0.3306   -0.6825 N   0  0  0  0  0  0  0  0  0  0  0  0
   -3.3688    1.0558    0.0150 H   0  0  0  0  0  0  0  0  0  0  0  0
   -2.9429   -0.5134   -0.5874 H   0  0  0  0  0  0  0  0  0  0  0  0
   -4.3701   -0.3243   -2.5734 O   0  0  0  0  0  0  0  0  0  0  0  0
   -1.0638   -2.1677   -0.0558 C   0  0  0  0  0  0  0  0  0  0  0  0
   -0.3784   -2.4908    0.6076 H   0  0  0  0  0  0  0  0  0  0  0  0
   -0.7534   -2.5062   -1.0443 H   0  0  0  0  0  0  0  0  0  0  0  0
   -2.0219   -2.6072    0.2219 H   0  0  0  0  0  0  0  0  0  0  0  0
   -1.1196   -0.7236   -0.0000 N   0  0  0  0  0  0  0  0  0  0  0  0
   -1.9934   -0.1751    0.0419 H   0  0  0  0  0  0  0  0  0  0  0  0
    0.0000    0.0000    0.0000 C   0  0  0  0  0  0  0  0  0  0  0  0
    1.1196   -0.5045    0.0000 O   0  0  0  0  0  0  0  0  0  0  0  0
   -0.1540    1.5071    0.0589 C   0  0  0  0  0  0  0  0  0  0  0  0
   -1.1053    1.7254    0.2120 H   0  0  0  0  0  0  0  0  0  0  0  0
    0.4201    1.8350    0.9256 H   0  0  0  0  0  0  0  0  0  0  0  0
    0.1947    2.0062   -0.8452 H   0  0  0  0  0  0  0  0  0  0  0  0
  1  5  1  0
  5  6  1  0
  5  9  2  0
  1  2  1  0
  1  3  1  0
  1  4  1  0
  6  7  1  0
  6  8  1  0
 10 14  1  0
 14 16  1  0
 16 17  2  0
 16 18  1  0
 10 11  1  0
 10 12  1  0
 10 13  1  0
 14 15  1  0
 18 19  1  0
 18 20  1  0
 18 21  1  0
M  END
>  <PDB_ID>  (628) 
pdb3qwv

>  <RESIDUE_NAME>  (628) 
ASN   THR

>  <FRAG_NAME>  (628) 
ACEM   NMA

>  <FRAG_ATOM_NUM>  (628) 
fragi: 9  fragj: 12

>  <atom.prop.CHAIN_ID>  (628) 
A A A A A A A A A Z Z Z Z Z Z Z Z Z Z Z Z

>  <atom.prop.IS_HEAVY_ATOM>  (628) 
1 0 0 0 1 1 0 0 1 1 0 0 0 1 0 1 1 1 0 0 0

>  <DIFUSE_FUNC_ATOM>  (628) 
n/a

>  <FINAL_SINGLE_POINT_ENERGY>  (628) 
0

>  <NONCOV_INTER_ENERGY_QM>  (628) 
0

>  <FF_Energy>  (628) 
11.35

>  <QM_Energy>  (628) 
22.8

>  <source>  (628) 
ACEM_nNMA_43

>  <Index>  (628) 
15354

$$$$
ACEM-pdb3r03-A-GLN-121:NMA-pdb3r03-A-ARG-118
     RDKit          3D

 21 19  0  0  0  0  0  0  0  0999 V2000
   -6.0654   -0.4882   -1.5460 C   0  0  0  0  0  0  0  0  0  0  0  0
   -6.0705    0.2114   -2.2638 H   0  0  0  0  0  0  0  0  0  0  0  0
   -6.8618   -0.3564   -0.9519 H   0  0  0  0  0  0  0  0  0  0  0  0
   -6.1473   -1.4666   -2.0194 H   0  0  0  0  0  0  0  0  0  0  0  0
   -4.7997   -0.3095   -0.7059 C   0  0  0  0  0  0  0  0  0  0  0  0
   -3.6440   -0.4134   -1.3544 N   0  0  0  0  0  0  0  0  0  0  0  0
   -2.7636   -0.2932   -0.8642 H   0  0  0  0  0  0  0  0  0  0  0  0
   -3.6568   -0.6171   -2.3517 H   0  0  0  0  0  0  0  0  0  0  0  0
   -4.8605   -0.1087    0.5100 O   0  0  0  0  0  0  0  0  0  0  0  0
   -1.0837   -2.1614    0.0751 C   0  0  0  0  0  0  0  0  0  0  0  0
   -0.1438   -2.4739    0.2372 H   0  0  0  0  0  0  0  0  0  0  0  0
   -1.4526   -2.5923   -0.8557 H   0  0  0  0  0  0  0  0  0  0  0  0
   -1.6578   -2.5052    0.9356 H   0  0  0  0  0  0  0  0  0  0  0  0
   -1.1174   -0.7111   -0.0000 N   0  0  0  0  0  0  0  0  0  0  0  0
   -1.9914   -0.1577   -0.0570 H   0  0  0  0  0  0  0  0  0  0  0  0
    0.0000    0.0000    0.0000 C   0  0  0  0  0  0  0  0  0  0  0  0
    1.1174   -0.5087    0.0000 O   0  0  0  0  0  0  0  0  0  0  0  0
   -0.1666    1.5079    0.0145 C   0  0  0  0  0  0  0  0  0  0  0  0
    0.4988    1.9141   -0.6278 H   0  0  0  0  0  0  0  0  0  0  0  0
   -1.1712    1.7999   -0.2917 H   0  0  0  0  0  0  0  0  0  0  0  0
    0.0458    1.8767    1.0180 H   0  0  0  0  0  0  0  0  0  0  0  0
  1  5  1  0
  5  6  1  0
  5  9  2  0
  1  2  1  0
  1  3  1  0
  1  4  1  0
  6  7  1  0
  6  8  1  0
 10 14  1  0
 14 16  1  0
 16 17  2  0
 16 18  1  0
 10 11  1  0
 10 12  1  0
 10 13  1  0
 14 15  1  0
 18 19  1  0
 18 20  1  0
 18 21  1  0
M  END
>  <PDB_ID>  (629) 
pdb3r03

>  <RESIDUE_NAME>  (629) 
GLN   ARG

>  <FRAG_NAME>  (629) 
ACEM   NMA

>  <FRAG_ATOM_NUM>  (629) 
fragi: 9  fragj: 12

>  <atom.prop.CHAIN_ID>  (629) 
A A A A A A A A A Z Z Z Z Z Z Z Z Z Z Z Z

>  <atom.prop.IS_HEAVY_ATOM>  (629) 
1 0 0 0 1 1 0 0 1 1 0 0 0 1 0 1 1 1 0 0 0

>  <DIFUSE_FUNC_ATOM>  (629) 
n/a

>  <FINAL_SINGLE_POINT_ENERGY>  (629) 
0

>  <NONCOV_INTER_ENERGY_QM>  (629) 
0

>  <FF_Energy>  (629) 
5.39

>  <QM_Energy>  (629) 
15.47

>  <source>  (629) 
ACEM_nNMA_43

>  <Index>  (629) 
17625

$$$$
ACEM-pdb3qv1-C-ASN-313:NMA-pdb3qv1-C-ASN-236
     RDKit          3D

 21 19  0  0  0  0  0  0  0  0999 V2000
   -6.1392   -0.0922    0.4822 C   0  0  0  0  0  0  0  0  0  0  0  0
   -6.8107    0.6062    0.7398 H   0  0  0  0  0  0  0  0  0  0  0  0
   -6.2700   -0.9022    1.0591 H   0  0  0  0  0  0  0  0  0  0  0  0
   -6.3300   -0.3792   -0.5519 H   0  0  0  0  0  0  0  0  0  0  0  0
   -4.7250    0.4761    0.7714 C   0  0  0  0  0  0  0  0  0  0  0  0
   -3.6914   -0.3837    0.6659 N   0  0  0  0  0  0  0  0  0  0  0  0
   -3.8838   -1.3305    0.4045 H   0  0  0  0  0  0  0  0  0  0  0  0
   -2.7702   -0.0761    0.8440 H   0  0  0  0  0  0  0  0  0  0  0  0
   -4.5543    1.6785    0.9388 O   0  0  0  0  0  0  0  0  0  0  0  0
   -1.3391   -2.1413   -0.1627 C   0  0  0  0  0  0  0  0  0  0  0  0
   -2.1792   -2.2763   -0.6618 H   0  0  0  0  0  0  0  0  0  0  0  0
   -1.4783   -2.5202    0.8499 H   0  0  0  0  0  0  0  0  0  0  0  0
   -0.5672   -2.6812   -0.7110 H   0  0  0  0  0  0  0  0  0  0  0  0
   -1.1212   -0.7193    0.0000 N   0  0  0  0  0  0  0  0  0  0  0  0
   -1.9922   -0.0528    0.1558 H   0  0  0  0  0  0  0  0  0  0  0  0
    0.0000    0.0000    0.0000 C   0  0  0  0  0  0  0  0  0  0  0  0
    1.1212   -0.4368   -0.0000 O   0  0  0  0  0  0  0  0  0  0  0  0
   -0.2220    1.4856   -0.0546 C   0  0  0  0  0  0  0  0  0  0  0  0
   -1.0593    1.6833    0.4572 H   0  0  0  0  0  0  0  0  0  0  0  0
    0.5981    1.9823    0.4637 H   0  0  0  0  0  0  0  0  0  0  0  0
   -0.2686    1.8004   -1.0971 H   0  0  0  0  0  0  0  0  0  0  0  0
  1  5  1  0
  5  6  1  0
  5  9  2  0
  1  2  1  0
  1  3  1  0
  1  4  1  0
  6  7  1  0
  6  8  1  0
 10 14  1  0
 14 16  1  0
 16 17  2  0
 16 18  1  0
 10 11  1  0
 10 12  1  0
 10 13  1  0
 14 15  1  0
 18 19  1  0
 18 20  1  0
 18 21  1  0
M  END
>  <PDB_ID>  (630) 
pdb3qv1

>  <RESIDUE_NAME>  (630) 
ASN   ASN

>  <FRAG_NAME>  (630) 
ACEM   NMA

>  <FRAG_ATOM_NUM>  (630) 
fragi: 9  fragj: 12

>  <atom.prop.CHAIN_ID>  (630) 
A A A A A A A A A Z Z Z Z Z Z Z Z Z Z Z Z

>  <atom.prop.IS_HEAVY_ATOM>  (630) 
1 0 0 0 1 1 0 0 1 1 0 0 0 1 0 1 1 1 0 0 0

>  <DIFUSE_FUNC_ATOM>  (630) 
n/a

>  <FINAL_SINGLE_POINT_ENERGY>  (630) 
0

>  <NONCOV_INTER_ENERGY_QM>  (630) 
0

>  <FF_Energy>  (630) 
10.79

>  <QM_Energy>  (630) 
25.72

>  <source>  (630) 
ACEM_nNMA_43

>  <Index>  (630) 
18971

$$$$
ACEM-pdb3r5y-A-GLN-131:NMA-pdb3r5y-A-LEU-137
     RDKit          3D

 21 19  0  0  0  0  0  0  0  0999 V2000
   -5.5933    1.1186    0.8679 C   0  0  0  0  0  0  0  0  0  0  0  0
   -5.8766    1.2357   -0.0793 H   0  0  0  0  0  0  0  0  0  0  0  0
   -5.5393    2.0017    1.3233 H   0  0  0  0  0  0  0  0  0  0  0  0
   -6.3379    0.5087    1.3794 H   0  0  0  0  0  0  0  0  0  0  0  0
   -4.1957    0.4785    0.8798 C   0  0  0  0  0  0  0  0  0  0  0  0
   -3.9284   -0.3554   -0.1069 N   0  0  0  0  0  0  0  0  0  0  0  0
   -3.0192   -0.8074   -0.1727 H   0  0  0  0  0  0  0  0  0  0  0  0
   -4.6452   -0.5454   -0.8046 H   0  0  0  0  0  0  0  0  0  0  0  0
   -3.3774    0.7314    1.7756 O   0  0  0  0  0  0  0  0  0  0  0  0
   -1.0653   -2.1957   -0.0003 C   0  0  0  0  0  0  0  0  0  0  0  0
   -0.3820   -2.4534    0.6899 H   0  0  0  0  0  0  0  0  0  0  0  0
   -0.7041   -2.5869   -0.9513 H   0  0  0  0  0  0  0  0  0  0  0  0
   -2.0424   -2.6112    0.2458 H   0  0  0  0  0  0  0  0  0  0  0  0
   -1.1148   -0.7243   -0.0000 N   0  0  0  0  0  0  0  0  0  0  0  0
   -1.9946   -0.1857    0.0006 H   0  0  0  0  0  0  0  0  0  0  0  0
    0.0000    0.0000    0.0000 C   0  0  0  0  0  0  0  0  0  0  0  0
    1.1148   -0.5113    0.0000 O   0  0  0  0  0  0  0  0  0  0  0  0
   -0.1526    1.5283    0.0025 C   0  0  0  0  0  0  0  0  0  0  0  0
   -1.1293    1.7456    0.0952 H   0  0  0  0  0  0  0  0  0  0  0  0
    0.3847    1.9718    0.8408 H   0  0  0  0  0  0  0  0  0  0  0  0
    0.2188    1.9269   -0.9416 H   0  0  0  0  0  0  0  0  0  0  0  0
  1  5  1  0
  5  6  1  0
  5  9  2  0
  1  2  1  0
  1  3  1  0
  1  4  1  0
  6  7  1  0
  6  8  1  0
 10 14  1  0
 14 16  1  0
 16 17  2  0
 16 18  1  0
 10 11  1  0
 10 12  1  0
 10 13  1  0
 14 15  1  0
 18 19  1  0
 18 20  1  0
 18 21  1  0
M  END
>  <PDB_ID>  (631) 
pdb3r5y

>  <RESIDUE_NAME>  (631) 
GLN   LEU

>  <FRAG_NAME>  (631) 
ACEM   NMA

>  <FRAG_ATOM_NUM>  (631) 
fragi: 9  fragj: 12

>  <atom.prop.CHAIN_ID>  (631) 
A A A A A A A A A Z Z Z Z Z Z Z Z Z Z Z Z

>  <atom.prop.IS_HEAVY_ATOM>  (631) 
1 0 0 0 1 1 0 0 1 1 0 0 0 1 0 1 1 1 0 0 0

>  <DIFUSE_FUNC_ATOM>  (631) 
n/a

>  <FINAL_SINGLE_POINT_ENERGY>  (631) 
0

>  <NONCOV_INTER_ENERGY_QM>  (631) 
0

>  <FF_Energy>  (631) 
0.75

>  <QM_Energy>  (631) 
13.45

>  <source>  (631) 
ACEM_nNMA_43

>  <Index>  (631) 
25683

$$$$
ACEM-pdb3r50-C-ASN-33:NMA-pdb3r50-C-SER-56
     RDKit          3D

 21 19  0  0  0  0  0  0  0  0999 V2000
   -5.0989    1.9023    1.6240 C   0  0  0  0  0  0  0  0  0  0  0  0
   -5.8527    1.6002    2.2001 H   0  0  0  0  0  0  0  0  0  0  0  0
   -5.3752    1.8956    0.6664 H   0  0  0  0  0  0  0  0  0  0  0  0
   -4.8508    2.9276    1.8986 H   0  0  0  0  0  0  0  0  0  0  0  0
   -3.9389    0.9751    1.8070 C   0  0  0  0  0  0  0  0  0  0  0  0
   -3.5281    0.3317    0.7151 N   0  0  0  0  0  0  0  0  0  0  0  0
   -3.9834    0.4845   -0.1603 H   0  0  0  0  0  0  0  0  0  0  0  0
   -2.7592   -0.3079    0.7731 H   0  0  0  0  0  0  0  0  0  0  0  0
   -3.3954    0.8359    2.9167 O   0  0  0  0  0  0  0  0  0  0  0  0
   -1.1144   -2.1644    0.0114 C   0  0  0  0  0  0  0  0  0  0  0  0
   -0.6705   -2.4483    0.8839 H   0  0  0  0  0  0  0  0  0  0  0  0
   -0.5442   -2.6193   -0.7986 H   0  0  0  0  0  0  0  0  0  0  0  0
   -2.1341   -2.5489   -0.0094 H   0  0  0  0  0  0  0  0  0  0  0  0
   -1.1262   -0.6982   -0.0000 N   0  0  0  0  0  0  0  0  0  0  0  0
   -1.9961   -0.1365   -0.0081 H   0  0  0  0  0  0  0  0  0  0  0  0
    0.0000    0.0000    0.0000 C   0  0  0  0  0  0  0  0  0  0  0  0
    1.1262   -0.5232   -0.0000 O   0  0  0  0  0  0  0  0  0  0  0  0
   -0.1594    1.5118    0.0025 C   0  0  0  0  0  0  0  0  0  0  0  0
   -1.0859    1.7193    0.2881 H   0  0  0  0  0  0  0  0  0  0  0  0
    0.5332    1.8883    0.7552 H   0  0  0  0  0  0  0  0  0  0  0  0
    0.0849    1.9353   -0.9717 H   0  0  0  0  0  0  0  0  0  0  0  0
  1  5  1  0
  5  6  1  0
  5  9  2  0
  1  2  1  0
  1  3  1  0
  1  4  1  0
  6  7  1  0
  6  8  1  0
 10 14  1  0
 14 16  1  0
 16 17  2  0
 16 18  1  0
 10 11  1  0
 10 12  1  0
 10 13  1  0
 14 15  1  0
 18 19  1  0
 18 20  1  0
 18 21  1  0
M  END
>  <PDB_ID>  (632) 
pdb3r50

>  <RESIDUE_NAME>  (632) 
ASN   SER

>  <FRAG_NAME>  (632) 
ACEM   NMA

>  <FRAG_ATOM_NUM>  (632) 
fragi: 9  fragj: 12

>  <atom.prop.CHAIN_ID>  (632) 
A A A A A A A A A Z Z Z Z Z Z Z Z Z Z Z Z

>  <atom.prop.IS_HEAVY_ATOM>  (632) 
1 0 0 0 1 1 0 0 1 1 0 0 0 1 0 1 1 1 0 0 0

>  <DIFUSE_FUNC_ATOM>  (632) 
n/a

>  <FINAL_SINGLE_POINT_ENERGY>  (632) 
0

>  <NONCOV_INTER_ENERGY_QM>  (632) 
0

>  <FF_Energy>  (632) 
8.29

>  <QM_Energy>  (632) 
22.25

>  <source>  (632) 
ACEM_nNMA_43

>  <Index>  (632) 
26242

$$$$
ACEM-pdb3r5y-B-GLN-131:NMA-pdb3r5y-B-LEU-137
     RDKit          3D

 21 19  0  0  0  0  0  0  0  0999 V2000
   -5.5762    0.9227    0.7876 C   0  0  0  0  0  0  0  0  0  0  0  0
   -5.8125    0.9713   -0.1824 H   0  0  0  0  0  0  0  0  0  0  0  0
   -5.5292    1.8460    1.1675 H   0  0  0  0  0  0  0  0  0  0  0  0
   -6.3569    0.3698    1.3100 H   0  0  0  0  0  0  0  0  0  0  0  0
   -4.1935    0.2785    0.9146 C   0  0  0  0  0  0  0  0  0  0  0  0
   -3.8522   -0.5721   -0.0424 N   0  0  0  0  0  0  0  0  0  0  0  0
   -2.9445   -1.0274   -0.0326 H   0  0  0  0  0  0  0  0  0  0  0  0
   -4.5161   -0.7641   -0.7903 H   0  0  0  0  0  0  0  0  0  0  0  0
   -3.4444    0.5437    1.8682 O   0  0  0  0  0  0  0  0  0  0  0  0
   -1.0192   -2.1883    0.0115 C   0  0  0  0  0  0  0  0  0  0  0  0
   -0.3388   -2.4224    0.7056 H   0  0  0  0  0  0  0  0  0  0  0  0
   -0.6232   -2.5417   -0.9405 H   0  0  0  0  0  0  0  0  0  0  0  0
   -1.9795   -2.6469    0.2472 H   0  0  0  0  0  0  0  0  0  0  0  0
   -1.1120   -0.7282    0.0000 N   0  0  0  0  0  0  0  0  0  0  0  0
   -1.9913   -0.2056   -0.0087 H   0  0  0  0  0  0  0  0  0  0  0  0
    0.0000    0.0000    0.0000 C   0  0  0  0  0  0  0  0  0  0  0  0
    1.1120   -0.5200    0.0000 O   0  0  0  0  0  0  0  0  0  0  0  0
   -0.1516    1.5282   -0.0182 C   0  0  0  0  0  0  0  0  0  0  0  0
   -1.1362    1.7463    0.0273 H   0  0  0  0  0  0  0  0  0  0  0  0
    0.3489    1.9997    0.8276 H   0  0  0  0  0  0  0  0  0  0  0  0
    0.2487    1.9239   -0.9517 H   0  0  0  0  0  0  0  0  0  0  0  0
  1  5  1  0
  5  6  1  0
  5  9  2  0
  1  2  1  0
  1  3  1  0
  1  4  1  0
  6  7  1  0
  6  8  1  0
 10 14  1  0
 14 16  1  0
 16 17  2  0
 16 18  1  0
 10 11  1  0
 10 12  1  0
 10 13  1  0
 14 15  1  0
 18 19  1  0
 18 20  1  0
 18 21  1  0
M  END
>  <PDB_ID>  (633) 
pdb3r5y

>  <RESIDUE_NAME>  (633) 
GLN   LEU

>  <FRAG_NAME>  (633) 
ACEM   NMA

>  <FRAG_ATOM_NUM>  (633) 
fragi: 9  fragj: 12

>  <atom.prop.CHAIN_ID>  (633) 
A A A A A A A A A Z Z Z Z Z Z Z Z Z Z Z Z

>  <atom.prop.IS_HEAVY_ATOM>  (633) 
1 0 0 0 1 1 0 0 1 1 0 0 0 1 0 1 1 1 0 0 0

>  <DIFUSE_FUNC_ATOM>  (633) 
n/a

>  <FINAL_SINGLE_POINT_ENERGY>  (633) 
0

>  <NONCOV_INTER_ENERGY_QM>  (633) 
0

>  <FF_Energy>  (633) 
1.99

>  <QM_Energy>  (633) 
14.4

>  <source>  (633) 
ACEM_nNMA_43

>  <Index>  (633) 
26481

$$$$
ACEM-pdb4p5a-C-ASN-68:NMA-pdb4p5a-C-ASN-182
     RDKit          3D

 21 19  0  0  0  0  0  0  0  0999 V2000
   -5.4616    1.8451    1.1201 C   0  0  0  0  0  0  0  0  0  0  0  0
   -5.3622    1.8640    2.1066 H   0  0  0  0  0  0  0  0  0  0  0  0
   -6.3918    1.6181    0.8624 H   0  0  0  0  0  0  0  0  0  0  0  0
   -5.2463    2.8453    0.7443 H   0  0  0  0  0  0  0  0  0  0  0  0
   -4.5189    0.7884    0.5487 C   0  0  0  0  0  0  0  0  0  0  0  0
   -3.3026    0.8820    0.9561 N   0  0  0  0  0  0  0  0  0  0  0  0
   -2.9900    1.5828    1.6014 H   0  0  0  0  0  0  0  0  0  0  0  0
   -2.5977    0.2178    0.6204 H   0  0  0  0  0  0  0  0  0  0  0  0
   -4.9296   -0.1583   -0.2500 O   0  0  0  0  0  0  0  0  0  0  0  0
   -1.0776   -2.1835    0.2407 C   0  0  0  0  0  0  0  0  0  0  0  0
   -0.5855   -2.3331    1.1115 H   0  0  0  0  0  0  0  0  0  0  0  0
   -0.5655   -2.7197   -0.5582 H   0  0  0  0  0  0  0  0  0  0  0  0
   -2.0922   -2.5496    0.3979 H   0  0  0  0  0  0  0  0  0  0  0  0
   -1.1340   -0.7102   -0.0000 N   0  0  0  0  0  0  0  0  0  0  0  0
   -1.9930   -0.1960   -0.1678 H   0  0  0  0  0  0  0  0  0  0  0  0
    0.0000    0.0000    0.0000 C   0  0  0  0  0  0  0  0  0  0  0  0
    1.1340   -0.5142   -0.0000 O   0  0  0  0  0  0  0  0  0  0  0  0
   -0.1758    1.5516   -0.1004 C   0  0  0  0  0  0  0  0  0  0  0  0
   -0.6785    1.8241    0.6925 H   0  0  0  0  0  0  0  0  0  0  0  0
    0.8333    1.9509    0.0002 H   0  0  0  0  0  0  0  0  0  0  0  0
   -0.6516    1.8433   -1.0368 H   0  0  0  0  0  0  0  0  0  0  0  0
  1  5  1  0
  5  6  1  0
  5  9  2  0
  1  2  1  0
  1  3  1  0
  1  4  1  0
  6  7  1  0
  6  8  1  0
 10 14  1  0
 14 16  1  0
 16 17  2  0
 16 18  1  0
 10 11  1  0
 10 12  1  0
 10 13  1  0
 14 15  1  0
 18 19  1  0
 18 20  1  0
 18 21  1  0
M  END
>  <PDB_ID>  (634) 
pdb4p5a

>  <RESIDUE_NAME>  (634) 
ASN   ASN

>  <FRAG_NAME>  (634) 
ACEM   NMA

>  <FRAG_ATOM_NUM>  (634) 
fragi: 9  fragj: 12

>  <atom.prop.CHAIN_ID>  (634) 
A A A A A A A A A Z Z Z Z Z Z Z Z Z Z Z Z

>  <atom.prop.IS_HEAVY_ATOM>  (634) 
1 0 0 0 1 1 0 0 1 1 0 0 0 1 0 1 1 1 0 0 0

>  <DIFUSE_FUNC_ATOM>  (634) 
n/a

>  <FINAL_SINGLE_POINT_ENERGY>  (634) 
0

>  <NONCOV_INTER_ENERGY_QM>  (634) 
0

>  <FF_Energy>  (634) 
7.77

>  <QM_Energy>  (634) 
18.3

>  <source>  (634) 
ACEM_nNMA_43

>  <Index>  (634) 
27484

$$$$
ACEM-pdb3r5y-D-GLN-131:NMA-pdb3r5y-D-LEU-137
     RDKit          3D

 21 19  0  0  0  0  0  0  0  0999 V2000
   -5.5951    1.1148    0.7121 C   0  0  0  0  0  0  0  0  0  0  0  0
   -5.8298    1.2020   -0.2556 H   0  0  0  0  0  0  0  0  0  0  0  0
   -5.5685    2.0220    1.1320 H   0  0  0  0  0  0  0  0  0  0  0  0
   -6.3676    0.5251    1.2055 H   0  0  0  0  0  0  0  0  0  0  0  0
   -4.2124    0.4893    0.8191 C   0  0  0  0  0  0  0  0  0  0  0  0
   -3.8396   -0.2939   -0.1798 N   0  0  0  0  0  0  0  0  0  0  0  0
   -2.9227   -0.7357   -0.1848 H   0  0  0  0  0  0  0  0  0  0  0  0
   -4.4879   -0.4518   -0.9513 H   0  0  0  0  0  0  0  0  0  0  0  0
   -3.4799    0.7266    1.7867 O   0  0  0  0  0  0  0  0  0  0  0  0
   -1.0611   -2.1793   -0.0151 C   0  0  0  0  0  0  0  0  0  0  0  0
   -0.3721   -2.4421    0.6655 H   0  0  0  0  0  0  0  0  0  0  0  0
   -0.7021   -2.5436   -0.9778 H   0  0  0  0  0  0  0  0  0  0  0  0
   -2.0456   -2.6033    0.1826 H   0  0  0  0  0  0  0  0  0  0  0  0
   -1.1152   -0.7160    0.0000 N   0  0  0  0  0  0  0  0  0  0  0  0
   -1.9926   -0.1754    0.0115 H   0  0  0  0  0  0  0  0  0  0  0  0
    0.0000    0.0000    0.0000 C   0  0  0  0  0  0  0  0  0  0  0  0
    1.1152   -0.5190    0.0000 O   0  0  0  0  0  0  0  0  0  0  0  0
   -0.1583    1.5199    0.0108 C   0  0  0  0  0  0  0  0  0  0  0  0
   -1.1411    1.7336    0.0655 H   0  0  0  0  0  0  0  0  0  0  0  0
    0.3449    1.9582    0.8727 H   0  0  0  0  0  0  0  0  0  0  0  0
    0.2675    1.9401   -0.9003 H   0  0  0  0  0  0  0  0  0  0  0  0
  1  5  1  0
  5  6  1  0
  5  9  2  0
  1  2  1  0
  1  3  1  0
  1  4  1  0
  6  7  1  0
  6  8  1  0
 10 14  1  0
 14 16  1  0
 16 17  2  0
 16 18  1  0
 10 11  1  0
 10 12  1  0
 10 13  1  0
 14 15  1  0
 18 19  1  0
 18 20  1  0
 18 21  1  0
M  END
>  <PDB_ID>  (635) 
pdb3r5y

>  <RESIDUE_NAME>  (635) 
GLN   LEU

>  <FRAG_NAME>  (635) 
ACEM   NMA

>  <FRAG_ATOM_NUM>  (635) 
fragi: 9  fragj: 12

>  <atom.prop.CHAIN_ID>  (635) 
A A A A A A A A A Z Z Z Z Z Z Z Z Z Z Z Z

>  <atom.prop.IS_HEAVY_ATOM>  (635) 
1 0 0 0 1 1 0 0 1 1 0 0 0 1 0 1 1 1 0 0 0

>  <DIFUSE_FUNC_ATOM>  (635) 
n/a

>  <FINAL_SINGLE_POINT_ENERGY>  (635) 
0

>  <NONCOV_INTER_ENERGY_QM>  (635) 
0

>  <FF_Energy>  (635) 
3.62

>  <QM_Energy>  (635) 
19.96

>  <source>  (635) 
ACEM_nNMA_43

>  <Index>  (635) 
28072

$$$$
ACEM-pdb4p5a-D-ASN-68:NMA-pdb4p5a-D-ASN-182
     RDKit          3D

 21 19  0  0  0  0  0  0  0  0999 V2000
   -5.4650    1.7619    1.3219 C   0  0  0  0  0  0  0  0  0  0  0  0
   -5.3381    1.6704    2.2983 H   0  0  0  0  0  0  0  0  0  0  0  0
   -6.3909    1.5403    1.0562 H   0  0  0  0  0  0  0  0  0  0  0  0
   -5.2429    2.7872    1.0261 H   0  0  0  0  0  0  0  0  0  0  0  0
   -4.5182    0.7513    0.6258 C   0  0  0  0  0  0  0  0  0  0  0  0
   -3.2935    0.8187    1.0116 N   0  0  0  0  0  0  0  0  0  0  0  0
   -2.9702    1.4634    1.7082 H   0  0  0  0  0  0  0  0  0  0  0  0
   -2.5922    0.1929    0.6025 H   0  0  0  0  0  0  0  0  0  0  0  0
   -4.9625   -0.1852   -0.1859 O   0  0  0  0  0  0  0  0  0  0  0  0
   -0.9821   -2.1867    0.1122 C   0  0  0  0  0  0  0  0  0  0  0  0
   -0.4125   -2.3969    0.9301 H   0  0  0  0  0  0  0  0  0  0  0  0
   -0.5227   -2.6635   -0.7537 H   0  0  0  0  0  0  0  0  0  0  0  0
   -1.9806   -2.5952    0.2683 H   0  0  0  0  0  0  0  0  0  0  0  0
   -1.1138   -0.7300   -0.0000 N   0  0  0  0  0  0  0  0  0  0  0  0
   -1.9892   -0.2299   -0.0780 H   0  0  0  0  0  0  0  0  0  0  0  0
    0.0000    0.0000    0.0000 C   0  0  0  0  0  0  0  0  0  0  0  0
    1.1138   -0.5444    0.0000 O   0  0  0  0  0  0  0  0  0  0  0  0
   -0.1263    1.5339    0.0534 C   0  0  0  0  0  0  0  0  0  0  0  0
   -0.6160    1.7578    0.8885 H   0  0  0  0  0  0  0  0  0  0  0  0
    0.8721    1.9607    0.1484 H   0  0  0  0  0  0  0  0  0  0  0  0
   -0.6374    1.9200   -0.8286 H   0  0  0  0  0  0  0  0  0  0  0  0
  1  5  1  0
  5  6  1  0
  5  9  2  0
  1  2  1  0
  1  3  1  0
  1  4  1  0
  6  7  1  0
  6  8  1  0
 10 14  1  0
 14 16  1  0
 16 17  2  0
 16 18  1  0
 10 11  1  0
 10 12  1  0
 10 13  1  0
 14 15  1  0
 18 19  1  0
 18 20  1  0
 18 21  1  0
M  END
>  <PDB_ID>  (636) 
pdb4p5a

>  <RESIDUE_NAME>  (636) 
ASN   ASN

>  <FRAG_NAME>  (636) 
ACEM   NMA

>  <FRAG_ATOM_NUM>  (636) 
fragi: 9  fragj: 12

>  <atom.prop.CHAIN_ID>  (636) 
A A A A A A A A A Z Z Z Z Z Z Z Z Z Z Z Z

>  <atom.prop.IS_HEAVY_ATOM>  (636) 
1 0 0 0 1 1 0 0 1 1 0 0 0 1 0 1 1 1 0 0 0

>  <DIFUSE_FUNC_ATOM>  (636) 
n/a

>  <FINAL_SINGLE_POINT_ENERGY>  (636) 
0

>  <NONCOV_INTER_ENERGY_QM>  (636) 
0

>  <FF_Energy>  (636) 
9.66

>  <QM_Energy>  (636) 
23.8

>  <source>  (636) 
ACEM_nNMA_44

>  <Index>  (636) 
370

$$$$
ACEM-pdb4peq-A-ASN-27:NMA-pdb4peq-A-ALA-96
     RDKit          3D

 21 19  0  0  0  0  0  0  0  0999 V2000
   -5.6138    0.8906    2.0023 C   0  0  0  0  0  0  0  0  0  0  0  0
   -6.5009    0.5550    1.7022 H   0  0  0  0  0  0  0  0  0  0  0  0
   -5.6661    1.8594    2.2219 H   0  0  0  0  0  0  0  0  0  0  0  0
   -5.3198    0.3458    2.8994 H   0  0  0  0  0  0  0  0  0  0  0  0
   -4.6207    0.7069    0.8666 C   0  0  0  0  0  0  0  0  0  0  0  0
   -3.3549    0.5416    1.2163 N   0  0  0  0  0  0  0  0  0  0  0  0
   -3.0958    0.5349    2.1839 H   0  0  0  0  0  0  0  0  0  0  0  0
   -2.6502    0.4196    0.5145 H   0  0  0  0  0  0  0  0  0  0  0  0
   -4.9863    0.7460   -0.3144 O   0  0  0  0  0  0  0  0  0  0  0  0
   -1.0486   -2.1597    0.2065 C   0  0  0  0  0  0  0  0  0  0  0  0
   -0.0802   -2.4486    0.1248 H   0  0  0  0  0  0  0  0  0  0  0  0
   -1.6314   -2.7103   -0.5319 H   0  0  0  0  0  0  0  0  0  0  0  0
   -1.4024   -2.4185    1.2045 H   0  0  0  0  0  0  0  0  0  0  0  0
   -1.1107   -0.7207   -0.0000 N   0  0  0  0  0  0  0  0  0  0  0  0
   -1.9829   -0.1957   -0.1526 H   0  0  0  0  0  0  0  0  0  0  0  0
    0.0000    0.0000    0.0000 C   0  0  0  0  0  0  0  0  0  0  0  0
    1.1107   -0.5126   -0.0000 O   0  0  0  0  0  0  0  0  0  0  0  0
   -0.1438    1.5071   -0.0285 C   0  0  0  0  0  0  0  0  0  0  0  0
   -1.0570    1.7512    0.3025 H   0  0  0  0  0  0  0  0  0  0  0  0
    0.6027    1.9476    0.6324 H   0  0  0  0  0  0  0  0  0  0  0  0
   -0.0184    1.8828   -1.0439 H   0  0  0  0  0  0  0  0  0  0  0  0
  1  5  1  0
  5  6  1  0
  5  9  2  0
  1  2  1  0
  1  3  1  0
  1  4  1  0
  6  7  1  0
  6  8  1  0
 10 14  1  0
 14 16  1  0
 16 17  2  0
 16 18  1  0
 10 11  1  0
 10 12  1  0
 10 13  1  0
 14 15  1  0
 18 19  1  0
 18 20  1  0
 18 21  1  0
M  END
>  <PDB_ID>  (637) 
pdb4peq

>  <RESIDUE_NAME>  (637) 
ASN   ALA

>  <FRAG_NAME>  (637) 
ACEM   NMA

>  <FRAG_ATOM_NUM>  (637) 
fragi: 9  fragj: 12

>  <atom.prop.CHAIN_ID>  (637) 
A A A A A A A A A Z Z Z Z Z Z Z Z Z Z Z Z

>  <atom.prop.IS_HEAVY_ATOM>  (637) 
1 0 0 0 1 1 0 0 1 1 0 0 0 1 0 1 1 1 0 0 0

>  <DIFUSE_FUNC_ATOM>  (637) 
n/a

>  <FINAL_SINGLE_POINT_ENERGY>  (637) 
0

>  <NONCOV_INTER_ENERGY_QM>  (637) 
0

>  <FF_Energy>  (637) 
7.06

>  <QM_Energy>  (637) 
17.73

>  <source>  (637) 
ACEM_nNMA_44

>  <Index>  (637) 
2352

$$$$
ACEM-pdb4pke-A-GLN-252:NMA-pdb4pke-A-GLU-247
     RDKit          3D

 21 19  0  0  0  0  0  0  0  0999 V2000
   -5.4119    0.9454   -1.1138 C   0  0  0  0  0  0  0  0  0  0  0  0
   -5.6087    1.8130   -1.5646 H   0  0  0  0  0  0  0  0  0  0  0  0
   -6.0759    0.7823   -0.3871 H   0  0  0  0  0  0  0  0  0  0  0  0
   -5.4989    0.1452   -1.8488 H   0  0  0  0  0  0  0  0  0  0  0  0
   -4.0288    1.0151   -0.5056 C   0  0  0  0  0  0  0  0  0  0  0  0
   -3.1469    0.1124   -0.9206 N   0  0  0  0  0  0  0  0  0  0  0  0
   -2.1953    0.1073   -0.5676 H   0  0  0  0  0  0  0  0  0  0  0  0
   -3.4432   -0.5821   -1.6078 H   0  0  0  0  0  0  0  0  0  0  0  0
   -3.7506    1.8894    0.3109 O   0  0  0  0  0  0  0  0  0  0  0  0
   -1.1977   -2.1494    0.0641 C   0  0  0  0  0  0  0  0  0  0  0  0
   -0.5091   -2.4750    0.7300 H   0  0  0  0  0  0  0  0  0  0  0  0
   -0.9838   -2.6092   -0.9007 H   0  0  0  0  0  0  0  0  0  0  0  0
   -2.1897   -2.4360    0.4131 H   0  0  0  0  0  0  0  0  0  0  0  0
   -1.1243   -0.6999   -0.0000 N   0  0  0  0  0  0  0  0  0  0  0  0
   -1.9946   -0.0938   -0.0526 H   0  0  0  0  0  0  0  0  0  0  0  0
    0.0000    0.0000    0.0000 C   0  0  0  0  0  0  0  0  0  0  0  0
    1.1243   -0.4986   -0.0000 O   0  0  0  0  0  0  0  0  0  0  0  0
   -0.2156    1.5081    0.0092 C   0  0  0  0  0  0  0  0  0  0  0  0
   -1.0178    1.7257    0.6081 H   0  0  0  0  0  0  0  0  0  0  0  0
    0.6467    2.0899    0.3349 H   0  0  0  0  0  0  0  0  0  0  0  0
   -0.5880    1.8770   -0.9464 H   0  0  0  0  0  0  0  0  0  0  0  0
  1  5  1  0
  5  6  1  0
  5  9  2  0
  1  2  1  0
  1  3  1  0
  1  4  1  0
  6  7  1  0
  6  8  1  0
 10 14  1  0
 14 16  1  0
 16 17  2  0
 16 18  1  0
 10 11  1  0
 10 12  1  0
 10 13  1  0
 14 15  1  0
 18 19  1  0
 18 20  1  0
 18 21  1  0
M  END
>  <PDB_ID>  (638) 
pdb4pke

>  <RESIDUE_NAME>  (638) 
GLN   GLU

>  <FRAG_NAME>  (638) 
ACEM   NMA

>  <FRAG_ATOM_NUM>  (638) 
fragi: 9  fragj: 12

>  <atom.prop.CHAIN_ID>  (638) 
A A A A A A A A A Z Z Z Z Z Z Z Z Z Z Z Z

>  <atom.prop.IS_HEAVY_ATOM>  (638) 
1 0 0 0 1 1 0 0 1 1 0 0 0 1 0 1 1 1 0 0 0

>  <DIFUSE_FUNC_ATOM>  (638) 
n/a

>  <FINAL_SINGLE_POINT_ENERGY>  (638) 
0

>  <NONCOV_INTER_ENERGY_QM>  (638) 
0

>  <FF_Energy>  (638) 
64.18

>  <QM_Energy>  (638) 
127.41

>  <source>  (638) 
ACEM_nNMA_44

>  <Index>  (638) 
7896

$$$$
ACEM-pdb4peq-C-ASN-27:NMA-pdb4peq-C-ALA-96
     RDKit          3D

 21 19  0  0  0  0  0  0  0  0999 V2000
   -5.6223    1.2243    1.6040 C   0  0  0  0  0  0  0  0  0  0  0  0
   -6.5105    0.8968    1.2995 H   0  0  0  0  0  0  0  0  0  0  0  0
   -5.6546    2.2043    1.7723 H   0  0  0  0  0  0  0  0  0  0  0  0
   -5.3777    0.7254    2.5416 H   0  0  0  0  0  0  0  0  0  0  0  0
   -4.6027    0.9481    0.5216 C   0  0  0  0  0  0  0  0  0  0  0  0
   -3.3596    0.7446    0.9108 N   0  0  0  0  0  0  0  0  0  0  0  0
   -3.1307    0.7708    1.8890 H   0  0  0  0  0  0  0  0  0  0  0  0
   -2.6400    0.5623    0.2402 H   0  0  0  0  0  0  0  0  0  0  0  0
   -4.9322    0.9457   -0.6564 O   0  0  0  0  0  0  0  0  0  0  0  0
   -1.1036   -2.1390    0.2748 C   0  0  0  0  0  0  0  0  0  0  0  0
   -0.1387   -2.4603    0.2192 H   0  0  0  0  0  0  0  0  0  0  0  0
   -1.6945   -2.7269   -0.4276 H   0  0  0  0  0  0  0  0  0  0  0  0
   -1.4809   -2.3131    1.2825 H   0  0  0  0  0  0  0  0  0  0  0  0
   -1.1213   -0.7109   -0.0000 N   0  0  0  0  0  0  0  0  0  0  0  0
   -1.9820   -0.1738   -0.2068 H   0  0  0  0  0  0  0  0  0  0  0  0
    0.0000    0.0000    0.0000 C   0  0  0  0  0  0  0  0  0  0  0  0
    1.1213   -0.5155    0.0000 O   0  0  0  0  0  0  0  0  0  0  0  0
   -0.1562    1.5109   -0.0484 C   0  0  0  0  0  0  0  0  0  0  0  0
   -1.0750    1.7519    0.2821 H   0  0  0  0  0  0  0  0  0  0  0  0
    0.5828    1.9916    0.5926 H   0  0  0  0  0  0  0  0  0  0  0  0
   -0.0547    1.8656   -1.0741 H   0  0  0  0  0  0  0  0  0  0  0  0
  1  5  1  0
  5  6  1  0
  5  9  2  0
  1  2  1  0
  1  3  1  0
  1  4  1  0
  6  7  1  0
  6  8  1  0
 10 14  1  0
 14 16  1  0
 16 17  2  0
 16 18  1  0
 10 11  1  0
 10 12  1  0
 10 13  1  0
 14 15  1  0
 18 19  1  0
 18 20  1  0
 18 21  1  0
M  END
>  <PDB_ID>  (639) 
pdb4peq

>  <RESIDUE_NAME>  (639) 
ASN   ALA

>  <FRAG_NAME>  (639) 
ACEM   NMA

>  <FRAG_ATOM_NUM>  (639) 
fragi: 9  fragj: 12

>  <atom.prop.CHAIN_ID>  (639) 
A A A A A A A A A Z Z Z Z Z Z Z Z Z Z Z Z

>  <atom.prop.IS_HEAVY_ATOM>  (639) 
1 0 0 0 1 1 0 0 1 1 0 0 0 1 0 1 1 1 0 0 0

>  <DIFUSE_FUNC_ATOM>  (639) 
n/a

>  <FINAL_SINGLE_POINT_ENERGY>  (639) 
0

>  <NONCOV_INTER_ENERGY_QM>  (639) 
0

>  <FF_Energy>  (639) 
8.97

>  <QM_Energy>  (639) 
21.29

>  <source>  (639) 
ACEM_nNMA_44

>  <Index>  (639) 
9123

$$$$
ACEM-pdb4plt-C-GLN-269:NMA-pdb4plt-C-LEU-266
     RDKit          3D

 21 19  0  0  0  0  0  0  0  0999 V2000
   -5.4903    1.1352   -1.6556 C   0  0  0  0  0  0  0  0  0  0  0  0
   -6.0448    1.8806   -1.2825 H   0  0  0  0  0  0  0  0  0  0  0  0
   -6.0939    0.4253   -2.0216 H   0  0  0  0  0  0  0  0  0  0  0  0
   -4.8855    1.5292   -2.4724 H   0  0  0  0  0  0  0  0  0  0  0  0
   -4.6619    0.5411   -0.5378 C   0  0  0  0  0  0  0  0  0  0  0  0
   -3.4149    0.2128   -0.8475 N   0  0  0  0  0  0  0  0  0  0  0  0
   -2.7882   -0.1818   -0.1434 H   0  0  0  0  0  0  0  0  0  0  0  0
   -3.0874    0.3576   -1.8000 H   0  0  0  0  0  0  0  0  0  0  0  0
   -5.1313    0.3728    0.5954 O   0  0  0  0  0  0  0  0  0  0  0  0
   -1.1222   -2.1547   -0.0817 C   0  0  0  0  0  0  0  0  0  0  0  0
   -0.1883   -2.4946   -0.2044 H   0  0  0  0  0  0  0  0  0  0  0  0
   -1.7355   -2.4670   -0.9271 H   0  0  0  0  0  0  0  0  0  0  0  0
   -1.5101   -2.5924    0.8381 H   0  0  0  0  0  0  0  0  0  0  0  0
   -1.1166   -0.7039   -0.0000 N   0  0  0  0  0  0  0  0  0  0  0  0
   -1.9910   -0.1338    0.0635 H   0  0  0  0  0  0  0  0  0  0  0  0
    0.0000    0.0000    0.0000 C   0  0  0  0  0  0  0  0  0  0  0  0
    1.1166   -0.5029    0.0000 O   0  0  0  0  0  0  0  0  0  0  0  0
   -0.1922    1.5156    0.0085 C   0  0  0  0  0  0  0  0  0  0  0  0
   -1.1382    1.7121    0.3062 H   0  0  0  0  0  0  0  0  0  0  0  0
    0.4971    2.0120    0.6916 H   0  0  0  0  0  0  0  0  0  0  0  0
   -0.0708    1.8965   -1.0055 H   0  0  0  0  0  0  0  0  0  0  0  0
  1  5  1  0
  5  6  1  0
  5  9  2  0
  1  2  1  0
  1  3  1  0
  1  4  1  0
  6  7  1  0
  6  8  1  0
 10 14  1  0
 14 16  1  0
 16 17  2  0
 16 18  1  0
 10 11  1  0
 10 12  1  0
 10 13  1  0
 14 15  1  0
 18 19  1  0
 18 20  1  0
 18 21  1  0
M  END
>  <PDB_ID>  (640) 
pdb4plt

>  <RESIDUE_NAME>  (640) 
GLN   LEU

>  <FRAG_NAME>  (640) 
ACEM   NMA

>  <FRAG_ATOM_NUM>  (640) 
fragi: 9  fragj: 12

>  <atom.prop.CHAIN_ID>  (640) 
A A A A A A A A A Z Z Z Z Z Z Z Z Z Z Z Z

>  <atom.prop.IS_HEAVY_ATOM>  (640) 
1 0 0 0 1 1 0 0 1 1 0 0 0 1 0 1 1 1 0 0 0

>  <DIFUSE_FUNC_ATOM>  (640) 
n/a

>  <FINAL_SINGLE_POINT_ENERGY>  (640) 
0

>  <NONCOV_INTER_ENERGY_QM>  (640) 
0

>  <FF_Energy>  (640) 
20.45

>  <QM_Energy>  (640) 
49.61

>  <source>  (640) 
ACEM_nNMA_44

>  <Index>  (640) 
16052

$$$$
ACEM-pdb4pwz-A-GLN-117:NMA-pdb4pwz-A-THR-82
     RDKit          3D

 21 19  0  0  0  0  0  0  0  0999 V2000
   -4.8644    1.4302    2.6514 C   0  0  0  0  0  0  0  0  0  0  0  0
   -5.8515    1.2803    2.7065 H   0  0  0  0  0  0  0  0  0  0  0  0
   -4.6699    2.4056    2.7562 H   0  0  0  0  0  0  0  0  0  0  0  0
   -4.3805    0.8863    3.4627 H   0  0  0  0  0  0  0  0  0  0  0  0
   -4.3890    0.9903    1.2703 C   0  0  0  0  0  0  0  0  0  0  0  0
   -3.1706    0.4736    1.2128 N   0  0  0  0  0  0  0  0  0  0  0  0
   -2.7873    0.1443    0.3275 H   0  0  0  0  0  0  0  0  0  0  0  0
   -2.6186    0.4110    2.0657 H   0  0  0  0  0  0  0  0  0  0  0  0
   -5.1066    1.1163    0.2693 O   0  0  0  0  0  0  0  0  0  0  0  0
   -1.0940   -2.1757    0.1155 C   0  0  0  0  0  0  0  0  0  0  0  0
   -0.6801   -2.4234    1.0062 H   0  0  0  0  0  0  0  0  0  0  0  0
   -0.5103   -2.6432   -0.6775 H   0  0  0  0  0  0  0  0  0  0  0  0
   -2.1094   -2.5721    0.1150 H   0  0  0  0  0  0  0  0  0  0  0  0
   -1.1198   -0.7225    0.0000 N   0  0  0  0  0  0  0  0  0  0  0  0
   -1.9941   -0.1689   -0.0881 H   0  0  0  0  0  0  0  0  0  0  0  0
    0.0000    0.0000    0.0000 C   0  0  0  0  0  0  0  0  0  0  0  0
    1.1198   -0.5091    0.0000 O   0  0  0  0  0  0  0  0  0  0  0  0
   -0.1576    1.5168    0.0102 C   0  0  0  0  0  0  0  0  0  0  0  0
   -0.8620    1.7571    0.6769 H   0  0  0  0  0  0  0  0  0  0  0  0
    0.7828    1.9727    0.3200 H   0  0  0  0  0  0  0  0  0  0  0  0
   -0.4712    1.8744   -0.9706 H   0  0  0  0  0  0  0  0  0  0  0  0
  1  5  1  0
  5  6  1  0
  5  9  2  0
  1  2  1  0
  1  3  1  0
  1  4  1  0
  6  7  1  0
  6  8  1  0
 10 14  1  0
 14 16  1  0
 16 17  2  0
 16 18  1  0
 10 11  1  0
 10 12  1  0
 10 13  1  0
 14 15  1  0
 18 19  1  0
 18 20  1  0
 18 21  1  0
M  END
>  <PDB_ID>  (641) 
pdb4pwz

>  <RESIDUE_NAME>  (641) 
GLN   THR

>  <FRAG_NAME>  (641) 
ACEM   NMA

>  <FRAG_ATOM_NUM>  (641) 
fragi: 9  fragj: 12

>  <atom.prop.CHAIN_ID>  (641) 
A A A A A A A A A Z Z Z Z Z Z Z Z Z Z Z Z

>  <atom.prop.IS_HEAVY_ATOM>  (641) 
1 0 0 0 1 1 0 0 1 1 0 0 0 1 0 1 1 1 0 0 0

>  <DIFUSE_FUNC_ATOM>  (641) 
n/a

>  <FINAL_SINGLE_POINT_ENERGY>  (641) 
0

>  <NONCOV_INTER_ENERGY_QM>  (641) 
0

>  <FF_Energy>  (641) 
15.65

>  <QM_Energy>  (641) 
33.38

>  <source>  (641) 
ACEM_nNMA_44

>  <Index>  (641) 
18981

$$$$
ACEM-pdb4q0p-A-ASN-240:NMA-pdb4q0p-A-ASP-233
     RDKit          3D

 21 19  0  0  0  0  0  0  0  0999 V2000
   -6.1175   -0.3288   -0.4560 C   0  0  0  0  0  0  0  0  0  0  0  0
   -6.2622   -0.9250   -1.2410 H   0  0  0  0  0  0  0  0  0  0  0  0
   -6.6903    0.4824   -0.5322 H   0  0  0  0  0  0  0  0  0  0  0  0
   -6.4112   -0.8702    0.4434 H   0  0  0  0  0  0  0  0  0  0  0  0
   -4.6658    0.1007   -0.4316 C   0  0  0  0  0  0  0  0  0  0  0  0
   -3.7633   -0.8559   -0.6236 N   0  0  0  0  0  0  0  0  0  0  0  0
   -4.0617   -1.7993   -0.7787 H   0  0  0  0  0  0  0  0  0  0  0  0
   -2.7889   -0.6363   -0.6140 H   0  0  0  0  0  0  0  0  0  0  0  0
   -4.3550    1.2749   -0.2500 O   0  0  0  0  0  0  0  0  0  0  0  0
   -1.0728   -2.1705    0.0024 C   0  0  0  0  0  0  0  0  0  0  0  0
   -0.2250   -2.4377    0.4722 H   0  0  0  0  0  0  0  0  0  0  0  0
   -1.0043   -2.5577   -1.0142 H   0  0  0  0  0  0  0  0  0  0  0  0
   -1.9499   -2.5666    0.5143 H   0  0  0  0  0  0  0  0  0  0  0  0
   -1.1186   -0.7136   -0.0000 N   0  0  0  0  0  0  0  0  0  0  0  0
   -1.9928   -0.1653   -0.0019 H   0  0  0  0  0  0  0  0  0  0  0  0
    0.0000    0.0000    0.0000 C   0  0  0  0  0  0  0  0  0  0  0  0
    1.1186   -0.5188    0.0000 O   0  0  0  0  0  0  0  0  0  0  0  0
   -0.1577    1.5211   -0.0098 C   0  0  0  0  0  0  0  0  0  0  0  0
   -1.1210    1.7153   -0.2410 H   0  0  0  0  0  0  0  0  0  0  0  0
    0.0317    1.9535    0.9726 H   0  0  0  0  0  0  0  0  0  0  0  0
    0.5351    1.9485   -0.7347 H   0  0  0  0  0  0  0  0  0  0  0  0
  1  5  1  0
  5  6  1  0
  5  9  2  0
  1  2  1  0
  1  3  1  0
  1  4  1  0
  6  7  1  0
  6  8  1  0
 10 14  1  0
 14 16  1  0
 16 17  2  0
 16 18  1  0
 10 11  1  0
 10 12  1  0
 10 13  1  0
 14 15  1  0
 18 19  1  0
 18 20  1  0
 18 21  1  0
M  END
>  <PDB_ID>  (642) 
pdb4q0p

>  <RESIDUE_NAME>  (642) 
ASN   ASP

>  <FRAG_NAME>  (642) 
ACEM   NMA

>  <FRAG_ATOM_NUM>  (642) 
fragi: 9  fragj: 12

>  <atom.prop.CHAIN_ID>  (642) 
A A A A A A A A A Z Z Z Z Z Z Z Z Z Z Z Z

>  <atom.prop.IS_HEAVY_ATOM>  (642) 
1 0 0 0 1 1 0 0 1 1 0 0 0 1 0 1 1 1 0 0 0

>  <DIFUSE_FUNC_ATOM>  (642) 
n/a

>  <FINAL_SINGLE_POINT_ENERGY>  (642) 
0

>  <NONCOV_INTER_ENERGY_QM>  (642) 
0

>  <FF_Energy>  (642) 
5.39

>  <QM_Energy>  (642) 
18.61

>  <source>  (642) 
ACEM_nNMA_44

>  <Index>  (642) 
24124

$$$$
ACEM-pdb3rwk-X-GLN-379:NMA-pdb3rwk-X-ILE-375
     RDKit          3D

 21 19  0  0  0  0  0  0  0  0999 V2000
   -5.3126    0.3077    0.7474 C   0  0  0  0  0  0  0  0  0  0  0  0
   -6.1814    0.4342    1.2133 H   0  0  0  0  0  0  0  0  0  0  0  0
   -5.0584   -0.6533    0.7411 H   0  0  0  0  0  0  0  0  0  0  0  0
   -5.4192    0.6448   -0.2837 H   0  0  0  0  0  0  0  0  0  0  0  0
   -4.2366    1.0934    1.5001 C   0  0  0  0  0  0  0  0  0  0  0  0
   -2.9730    0.7077    1.3124 N   0  0  0  0  0  0  0  0  0  0  0  0
   -2.2133    1.1915    1.7681 H   0  0  0  0  0  0  0  0  0  0  0  0
   -2.7924   -0.0860    0.7006 H   0  0  0  0  0  0  0  0  0  0  0  0
   -4.5369    2.0267    2.2422 O   0  0  0  0  0  0  0  0  0  0  0  0
   -1.1110   -2.1716   -0.0023 C   0  0  0  0  0  0  0  0  0  0  0  0
   -0.2022   -2.4853   -0.2780 H   0  0  0  0  0  0  0  0  0  0  0  0
   -1.8396   -2.5256   -0.7316 H   0  0  0  0  0  0  0  0  0  0  0  0
   -1.3732   -2.5914    0.9688 H   0  0  0  0  0  0  0  0  0  0  0  0
   -1.1171   -0.7139   -0.0000 N   0  0  0  0  0  0  0  0  0  0  0  0
   -1.9939   -0.1476    0.0020 H   0  0  0  0  0  0  0  0  0  0  0  0
    0.0000    0.0000    0.0000 C   0  0  0  0  0  0  0  0  0  0  0  0
    1.1171   -0.5127    0.0000 O   0  0  0  0  0  0  0  0  0  0  0  0
   -0.1503    1.5355    0.0369 C   0  0  0  0  0  0  0  0  0  0  0  0
   -1.0180    1.7148    0.4657 H   0  0  0  0  0  0  0  0  0  0  0  0
    0.6194    1.8886    0.7231 H   0  0  0  0  0  0  0  0  0  0  0  0
   -0.0506    2.0364   -0.9261 H   0  0  0  0  0  0  0  0  0  0  0  0
  1  5  1  0
  5  6  1  0
  5  9  2  0
  1  2  1  0
  1  3  1  0
  1  4  1  0
  6  7  1  0
  6  8  1  0
 10 14  1  0
 14 16  1  0
 16 17  2  0
 16 18  1  0
 10 11  1  0
 10 12  1  0
 10 13  1  0
 14 15  1  0
 18 19  1  0
 18 20  1  0
 18 21  1  0
M  END
>  <PDB_ID>  (643) 
pdb3rwk

>  <RESIDUE_NAME>  (643) 
GLN   ILE

>  <FRAG_NAME>  (643) 
ACEM   NMA

>  <FRAG_ATOM_NUM>  (643) 
fragi: 9  fragj: 12

>  <atom.prop.CHAIN_ID>  (643) 
A A A A A A A A A Z Z Z Z Z Z Z Z Z Z Z Z

>  <atom.prop.IS_HEAVY_ATOM>  (643) 
1 0 0 0 1 1 0 0 1 1 0 0 0 1 0 1 1 1 0 0 0

>  <DIFUSE_FUNC_ATOM>  (643) 
n/a

>  <FINAL_SINGLE_POINT_ENERGY>  (643) 
0

>  <NONCOV_INTER_ENERGY_QM>  (643) 
0

>  <FF_Energy>  (643) 
14.58

>  <QM_Energy>  (643) 
27.31

>  <source>  (643) 
ACEM_nNMA_44

>  <Index>  (643) 
24576

$$$$
ACEM-pdb3s2u-A-ASN-291:NMA-pdb3s2u-A-ASN-124
     RDKit          3D

 21 19  0  0  0  0  0  0  0  0999 V2000
   -5.1514    0.6919    2.8147 C   0  0  0  0  0  0  0  0  0  0  0  0
   -6.0506    1.0220    2.4915 H   0  0  0  0  0  0  0  0  0  0  0  0
   -4.9796    1.1030    3.7230 H   0  0  0  0  0  0  0  0  0  0  0  0
   -5.2259   -0.3870    2.9510 H   0  0  0  0  0  0  0  0  0  0  0  0
   -4.0933    1.1580    1.8621 C   0  0  0  0  0  0  0  0  0  0  0  0
   -3.3364    0.2169    1.3413 N   0  0  0  0  0  0  0  0  0  0  0  0
   -3.4751   -0.7461    1.5729 H   0  0  0  0  0  0  0  0  0  0  0  0
   -2.6003    0.4609    0.6971 H   0  0  0  0  0  0  0  0  0  0  0  0
   -3.9500    2.3434    1.5744 O   0  0  0  0  0  0  0  0  0  0  0  0
   -1.1806   -2.2048   -0.0384 C   0  0  0  0  0  0  0  0  0  0  0  0
   -0.4457   -2.5708    0.5474 H   0  0  0  0  0  0  0  0  0  0  0  0
   -1.0356   -2.5878   -1.0485 H   0  0  0  0  0  0  0  0  0  0  0  0
   -2.1237   -2.5606    0.3763 H   0  0  0  0  0  0  0  0  0  0  0  0
   -1.1296   -0.7405    0.0000 N   0  0  0  0  0  0  0  0  0  0  0  0
   -2.0069   -0.1468    0.0318 H   0  0  0  0  0  0  0  0  0  0  0  0
    0.0000    0.0000    0.0000 C   0  0  0  0  0  0  0  0  0  0  0  0
    1.1296   -0.4877    0.0000 O   0  0  0  0  0  0  0  0  0  0  0  0
   -0.1816    1.5201    0.0422 C   0  0  0  0  0  0  0  0  0  0  0  0
   -0.8208    1.7179    0.8118 H   0  0  0  0  0  0  0  0  0  0  0  0
    0.7310    2.0846    0.2335 H   0  0  0  0  0  0  0  0  0  0  0  0
   -0.6631    1.8785   -0.8676 H   0  0  0  0  0  0  0  0  0  0  0  0
  1  5  1  0
  5  6  1  0
  5  9  2  0
  1  2  1  0
  1  3  1  0
  1  4  1  0
  6  7  1  0
  6  8  1  0
 10 14  1  0
 14 16  1  0
 16 17  2  0
 16 18  1  0
 10 11  1  0
 10 12  1  0
 10 13  1  0
 14 15  1  0
 18 19  1  0
 18 20  1  0
 18 21  1  0
M  END
>  <PDB_ID>  (644) 
pdb3s2u

>  <RESIDUE_NAME>  (644) 
ASN   ASN

>  <FRAG_NAME>  (644) 
ACEM   NMA

>  <FRAG_ATOM_NUM>  (644) 
fragi: 9  fragj: 12

>  <atom.prop.CHAIN_ID>  (644) 
A A A A A A A A A Z Z Z Z Z Z Z Z Z Z Z Z

>  <atom.prop.IS_HEAVY_ATOM>  (644) 
1 0 0 0 1 1 0 0 1 1 0 0 0 1 0 1 1 1 0 0 0

>  <DIFUSE_FUNC_ATOM>  (644) 
n/a

>  <FINAL_SINGLE_POINT_ENERGY>  (644) 
0

>  <NONCOV_INTER_ENERGY_QM>  (644) 
0

>  <FF_Energy>  (644) 
8.33

>  <QM_Energy>  (644) 
22.35

>  <source>  (644) 
ACEM_nNMA_44

>  <Index>  (644) 
26339

$$$$
ACEM-pdb4q2b-A-GLN-276:NMA-pdb4q2b-A-ALA-316
     RDKit          3D

 21 19  0  0  0  0  0  0  0  0999 V2000
   -3.0823   -0.5445    3.2561 C   0  0  0  0  0  0  0  0  0  0  0  0
   -3.2129   -0.2535    4.1980 H   0  0  0  0  0  0  0  0  0  0  0  0
   -2.1175   -0.5264    3.0172 H   0  0  0  0  0  0  0  0  0  0  0  0
   -3.4518   -1.5644    3.1487 H   0  0  0  0  0  0  0  0  0  0  0  0
   -3.8297    0.3917    2.3474 C   0  0  0  0  0  0  0  0  0  0  0  0
   -3.4785    0.3841    1.0701 N   0  0  0  0  0  0  0  0  0  0  0  0
   -3.9482    0.9809    0.3895 H   0  0  0  0  0  0  0  0  0  0  0  0
   -2.7224   -0.2326    0.7697 H   0  0  0  0  0  0  0  0  0  0  0  0
   -4.6945    1.1400    2.7935 O   0  0  0  0  0  0  0  0  0  0  0  0
   -1.0884   -2.1650    0.0250 C   0  0  0  0  0  0  0  0  0  0  0  0
   -0.4964   -2.4791    0.7899 H   0  0  0  0  0  0  0  0  0  0  0  0
   -2.0225   -2.5199    0.2126 H   0  0  0  0  0  0  0  0  0  0  0  0
   -0.7245   -2.6005   -0.9056 H   0  0  0  0  0  0  0  0  0  0  0  0
   -1.1174   -0.7164    0.0000 N   0  0  0  0  0  0  0  0  0  0  0  0
   -1.9935   -0.1570   -0.0187 H   0  0  0  0  0  0  0  0  0  0  0  0
    0.0000    0.0000    0.0000 C   0  0  0  0  0  0  0  0  0  0  0  0
    1.1174   -0.5104   -0.0000 O   0  0  0  0  0  0  0  0  0  0  0  0
   -0.1730    1.5107   -0.0314 C   0  0  0  0  0  0  0  0  0  0  0  0
    0.6758    1.9267   -0.3630 H   0  0  0  0  0  0  0  0  0  0  0  0
   -0.9813    1.7720   -0.7144 H   0  0  0  0  0  0  0  0  0  0  0  0
   -0.3631    1.8970    0.9699 H   0  0  0  0  0  0  0  0  0  0  0  0
  1  5  1  0
  5  6  1  0
  5  9  2  0
  1  2  1  0
  1  3  1  0
  1  4  1  0
  6  7  1  0
  6  8  1  0
 10 14  1  0
 14 16  1  0
 16 17  2  0
 16 18  1  0
 10 11  1  0
 10 12  1  0
 10 13  1  0
 14 15  1  0
 18 19  1  0
 18 20  1  0
 18 21  1  0
M  END
>  <PDB_ID>  (645) 
pdb4q2b

>  <RESIDUE_NAME>  (645) 
GLN   ALA

>  <FRAG_NAME>  (645) 
ACEM   NMA

>  <FRAG_ATOM_NUM>  (645) 
fragi: 9  fragj: 12

>  <atom.prop.CHAIN_ID>  (645) 
A A A A A A A A A Z Z Z Z Z Z Z Z Z Z Z Z

>  <atom.prop.IS_HEAVY_ATOM>  (645) 
1 0 0 0 1 1 0 0 1 1 0 0 0 1 0 1 1 1 0 0 0

>  <DIFUSE_FUNC_ATOM>  (645) 
n/a

>  <FINAL_SINGLE_POINT_ENERGY>  (645) 
0

>  <NONCOV_INTER_ENERGY_QM>  (645) 
0

>  <FF_Energy>  (645) 
6.67

>  <QM_Energy>  (645) 
20.9

>  <source>  (645) 
ACEM_nNMA_44

>  <Index>  (645) 
26859

$$$$
ACEM-pdb3s4t-A-ASN-167:NMA-pdb3s4t-A-LEU-183
     RDKit          3D

 21 19  0  0  0  0  0  0  0  0999 V2000
   -5.5900    0.5027   -2.1767 C   0  0  0  0  0  0  0  0  0  0  0  0
   -5.8490    0.1204   -3.0564 H   0  0  0  0  0  0  0  0  0  0  0  0
   -5.6026    1.4960   -2.2098 H   0  0  0  0  0  0  0  0  0  0  0  0
   -6.3099    0.1718   -1.4281 H   0  0  0  0  0  0  0  0  0  0  0  0
   -4.1637    0.0489   -1.8556 C   0  0  0  0  0  0  0  0  0  0  0  0
   -3.7554    0.1857   -0.5874 N   0  0  0  0  0  0  0  0  0  0  0  0
   -4.3901    0.5663    0.0878 H   0  0  0  0  0  0  0  0  0  0  0  0
   -2.8388   -0.0877   -0.3255 H   0  0  0  0  0  0  0  0  0  0  0  0
   -3.4502   -0.4285   -2.7324 O   0  0  0  0  0  0  0  0  0  0  0  0
   -1.0173   -2.1565   -0.1313 C   0  0  0  0  0  0  0  0  0  0  0  0
   -1.8882   -2.5221   -0.5019 H   0  0  0  0  0  0  0  0  0  0  0  0
   -0.2876   -2.3908   -0.7960 H   0  0  0  0  0  0  0  0  0  0  0  0
   -0.8028   -2.6448    0.8193 H   0  0  0  0  0  0  0  0  0  0  0  0
   -1.1104   -0.7210   -0.0000 N   0  0  0  0  0  0  0  0  0  0  0  0
   -1.9848   -0.1970    0.0962 H   0  0  0  0  0  0  0  0  0  0  0  0
    0.0000    0.0000    0.0000 C   0  0  0  0  0  0  0  0  0  0  0  0
    1.1104   -0.5269   -0.0000 O   0  0  0  0  0  0  0  0  0  0  0  0
   -0.1451    1.5290    0.0483 C   0  0  0  0  0  0  0  0  0  0  0  0
   -0.9418    1.7530    0.6273 H   0  0  0  0  0  0  0  0  0  0  0  0
    0.7326    2.0174    0.4716 H   0  0  0  0  0  0  0  0  0  0  0  0
   -0.3568    1.9295   -0.9431 H   0  0  0  0  0  0  0  0  0  0  0  0
  1  5  1  0
  5  6  1  0
  5  9  2  0
  1  2  1  0
  1  3  1  0
  1  4  1  0
  6  7  1  0
  6  8  1  0
 10 14  1  0
 14 16  1  0
 16 17  2  0
 16 18  1  0
 10 11  1  0
 10 12  1  0
 10 13  1  0
 14 15  1  0
 18 19  1  0
 18 20  1  0
 18 21  1  0
M  END
>  <PDB_ID>  (646) 
pdb3s4t

>  <RESIDUE_NAME>  (646) 
ASN   LEU

>  <FRAG_NAME>  (646) 
ACEM   NMA

>  <FRAG_ATOM_NUM>  (646) 
fragi: 9  fragj: 12

>  <atom.prop.CHAIN_ID>  (646) 
A A A A A A A A A Z Z Z Z Z Z Z Z Z Z Z Z

>  <atom.prop.IS_HEAVY_ATOM>  (646) 
1 0 0 0 1 1 0 0 1 1 0 0 0 1 0 1 1 1 0 0 0

>  <DIFUSE_FUNC_ATOM>  (646) 
n/a

>  <FINAL_SINGLE_POINT_ENERGY>  (646) 
0

>  <NONCOV_INTER_ENERGY_QM>  (646) 
0

>  <FF_Energy>  (646) 
10.87

>  <QM_Energy>  (646) 
28.75

>  <source>  (646) 
ACEM_nNMA_45

>  <Index>  (646) 
1981

$$$$
ACEM-pdb4qam-A-GLN-118:NMA-pdb4qam-A-ASN-115
     RDKit          3D

 21 19  0  0  0  0  0  0  0  0999 V2000
   -6.0485    0.2440   -1.7199 C   0  0  0  0  0  0  0  0  0  0  0  0
   -5.8333    0.6106   -2.6243 H   0  0  0  0  0  0  0  0  0  0  0  0
   -6.8561    0.7062   -1.3551 H   0  0  0  0  0  0  0  0  0  0  0  0
   -6.2930   -0.8118   -1.8369 H   0  0  0  0  0  0  0  0  0  0  0  0
   -4.8677    0.4997   -0.7894 C   0  0  0  0  0  0  0  0  0  0  0  0
   -3.8694   -0.4108   -0.8567 N   0  0  0  0  0  0  0  0  0  0  0  0
   -3.0465   -0.2979   -0.2778 H   0  0  0  0  0  0  0  0  0  0  0  0
   -3.9697   -1.1901   -1.4902 H   0  0  0  0  0  0  0  0  0  0  0  0
   -4.8767    1.4638    0.0041 O   0  0  0  0  0  0  0  0  0  0  0  0
   -1.0769   -2.1564    0.0754 C   0  0  0  0  0  0  0  0  0  0  0  0
   -0.1339   -2.4663    0.2677 H   0  0  0  0  0  0  0  0  0  0  0  0
   -1.4220   -2.6052   -0.8561 H   0  0  0  0  0  0  0  0  0  0  0  0
   -1.7356   -2.4981    0.8738 H   0  0  0  0  0  0  0  0  0  0  0  0
   -1.1164   -0.7202    0.0000 N   0  0  0  0  0  0  0  0  0  0  0  0
   -1.9916   -0.1634   -0.0580 H   0  0  0  0  0  0  0  0  0  0  0  0
    0.0000    0.0000    0.0000 C   0  0  0  0  0  0  0  0  0  0  0  0
    1.1164   -0.4988    0.0000 O   0  0  0  0  0  0  0  0  0  0  0  0
   -0.1016    1.4968   -0.1531 C   0  0  0  0  0  0  0  0  0  0  0  0
    0.6613    1.7962   -0.7339 H   0  0  0  0  0  0  0  0  0  0  0  0
   -1.0180    1.7645   -0.6792 H   0  0  0  0  0  0  0  0  0  0  0  0
   -0.0112    1.9446    0.8366 H   0  0  0  0  0  0  0  0  0  0  0  0
  1  5  1  0
  5  6  1  0
  5  9  2  0
  1  2  1  0
  1  3  1  0
  1  4  1  0
  6  7  1  0
  6  8  1  0
 10 14  1  0
 14 16  1  0
 16 17  2  0
 16 18  1  0
 10 11  1  0
 10 12  1  0
 10 13  1  0
 14 15  1  0
 18 19  1  0
 18 20  1  0
 18 21  1  0
M  END
>  <PDB_ID>  (647) 
pdb4qam

>  <RESIDUE_NAME>  (647) 
GLN   ASN

>  <FRAG_NAME>  (647) 
ACEM   NMA

>  <FRAG_ATOM_NUM>  (647) 
fragi: 9  fragj: 12

>  <atom.prop.CHAIN_ID>  (647) 
A A A A A A A A A Z Z Z Z Z Z Z Z Z Z Z Z

>  <atom.prop.IS_HEAVY_ATOM>  (647) 
1 0 0 0 1 1 0 0 1 1 0 0 0 1 0 1 1 1 0 0 0

>  <DIFUSE_FUNC_ATOM>  (647) 
n/a

>  <FINAL_SINGLE_POINT_ENERGY>  (647) 
0

>  <NONCOV_INTER_ENERGY_QM>  (647) 
0

>  <FF_Energy>  (647) 
5.87

>  <QM_Energy>  (647) 
18.97

>  <source>  (647) 
ACEM_nNMA_45

>  <Index>  (647) 
4412

$$$$
ACEM-pdb4qbn-A-GLN-85:NMA-pdb4qbn-A-VAL-80
     RDKit          3D

 21 19  0  0  0  0  0  0  0  0999 V2000
   -5.2055    1.1463    0.2079 C   0  0  0  0  0  0  0  0  0  0  0  0
   -5.7466    1.9375    0.4965 H   0  0  0  0  0  0  0  0  0  0  0  0
   -5.8156    0.4406   -0.1550 H   0  0  0  0  0  0  0  0  0  0  0  0
   -4.5560    1.4703   -0.6053 H   0  0  0  0  0  0  0  0  0  0  0  0
   -4.4546    0.5964    1.3952 C   0  0  0  0  0  0  0  0  0  0  0  0
   -3.1943    0.2212    1.1838 N   0  0  0  0  0  0  0  0  0  0  0  0
   -2.6224   -0.1456    1.9384 H   0  0  0  0  0  0  0  0  0  0  0  0
   -2.8101    0.3085    0.2427 H   0  0  0  0  0  0  0  0  0  0  0  0
   -4.9690    0.5571    2.4952 O   0  0  0  0  0  0  0  0  0  0  0  0
   -0.9552   -2.1597    0.0352 C   0  0  0  0  0  0  0  0  0  0  0  0
   -0.0070   -2.4069   -0.2515 H   0  0  0  0  0  0  0  0  0  0  0  0
   -1.0523   -2.4789    1.0000 H   0  0  0  0  0  0  0  0  0  0  0  0
   -1.6770   -2.6768   -0.5971 H   0  0  0  0  0  0  0  0  0  0  0  0
   -1.0951   -0.7179   -0.0000 N   0  0  0  0  0  0  0  0  0  0  0  0
   -1.9782   -0.2178   -0.0245 H   0  0  0  0  0  0  0  0  0  0  0  0
    0.0000    0.0000    0.0000 C   0  0  0  0  0  0  0  0  0  0  0  0
    1.0951   -0.5074    0.0000 O   0  0  0  0  0  0  0  0  0  0  0  0
   -0.1645    1.4936    0.0384 C   0  0  0  0  0  0  0  0  0  0  0  0
   -1.0103    1.7103    0.5280 H   0  0  0  0  0  0  0  0  0  0  0  0
    0.6646    1.9269    0.5978 H   0  0  0  0  0  0  0  0  0  0  0  0
   -0.2329    1.8848   -0.9767 H   0  0  0  0  0  0  0  0  0  0  0  0
  1  5  1  0
  5  6  1  0
  5  9  2  0
  1  2  1  0
  1  3  1  0
  1  4  1  0
  6  7  1  0
  6  8  1  0
 10 14  1  0
 14 16  1  0
 16 17  2  0
 16 18  1  0
 10 11  1  0
 10 12  1  0
 10 13  1  0
 14 15  1  0
 18 19  1  0
 18 20  1  0
 18 21  1  0
M  END
>  <PDB_ID>  (648) 
pdb4qbn

>  <RESIDUE_NAME>  (648) 
GLN   VAL

>  <FRAG_NAME>  (648) 
ACEM   NMA

>  <FRAG_ATOM_NUM>  (648) 
fragi: 9  fragj: 12

>  <atom.prop.CHAIN_ID>  (648) 
A A A A A A A A A Z Z Z Z Z Z Z Z Z Z Z Z

>  <atom.prop.IS_HEAVY_ATOM>  (648) 
1 0 0 0 1 1 0 0 1 1 0 0 0 1 0 1 1 1 0 0 0

>  <DIFUSE_FUNC_ATOM>  (648) 
n/a

>  <FINAL_SINGLE_POINT_ENERGY>  (648) 
0

>  <NONCOV_INTER_ENERGY_QM>  (648) 
0

>  <FF_Energy>  (648) 
18.87

>  <QM_Energy>  (648) 
30.45

>  <source>  (648) 
ACEM_nNMA_45

>  <Index>  (648) 
5814

$$$$
ACEM-pdb3sbs-A-GLN-225:NMA-pdb3sbs-A-GLU-119
     RDKit          3D

 21 19  0  0  0  0  0  0  0  0999 V2000
   -6.3077    0.1806   -0.3334 C   0  0  0  0  0  0  0  0  0  0  0  0
   -6.8450    1.0186   -0.3279 H   0  0  0  0  0  0  0  0  0  0  0  0
   -6.6841   -0.4732    0.3158 H   0  0  0  0  0  0  0  0  0  0  0  0
   -6.3743   -0.2566   -1.3297 H   0  0  0  0  0  0  0  0  0  0  0  0
   -4.8786    0.5064    0.0619 C   0  0  0  0  0  0  0  0  0  0  0  0
   -3.9297   -0.3243   -0.3824 N   0  0  0  0  0  0  0  0  0  0  0  0
   -2.9554   -0.1606   -0.1679 H   0  0  0  0  0  0  0  0  0  0  0  0
   -4.2109   -1.1285   -0.9401 H   0  0  0  0  0  0  0  0  0  0  0  0
   -4.6308    1.4907    0.7606 O   0  0  0  0  0  0  0  0  0  0  0  0
   -1.0184   -2.1795    0.0908 C   0  0  0  0  0  0  0  0  0  0  0  0
   -0.0784   -2.3963    0.4055 H   0  0  0  0  0  0  0  0  0  0  0  0
   -1.1503   -2.6778   -0.8696 H   0  0  0  0  0  0  0  0  0  0  0  0
   -1.7341   -2.5578    0.8207 H   0  0  0  0  0  0  0  0  0  0  0  0
   -1.1095   -0.7296    0.0000 N   0  0  0  0  0  0  0  0  0  0  0  0
   -1.9885   -0.2061   -0.0662 H   0  0  0  0  0  0  0  0  0  0  0  0
    0.0000    0.0000    0.0000 C   0  0  0  0  0  0  0  0  0  0  0  0
    1.1095   -0.5087   -0.0000 O   0  0  0  0  0  0  0  0  0  0  0  0
   -0.1614    1.5163    0.0676 C   0  0  0  0  0  0  0  0  0  0  0  0
    0.7325    1.9559   -0.1314 H   0  0  0  0  0  0  0  0  0  0  0  0
   -0.9146    1.8940   -0.6238 H   0  0  0  0  0  0  0  0  0  0  0  0
   -0.4298    1.7808    1.0904 H   0  0  0  0  0  0  0  0  0  0  0  0
  1  5  1  0
  5  6  1  0
  5  9  2  0
  1  2  1  0
  1  3  1  0
  1  4  1  0
  6  7  1  0
  6  8  1  0
 10 14  1  0
 14 16  1  0
 16 17  2  0
 16 18  1  0
 10 11  1  0
 10 12  1  0
 10 13  1  0
 14 15  1  0
 18 19  1  0
 18 20  1  0
 18 21  1  0
M  END
>  <PDB_ID>  (649) 
pdb3sbs

>  <RESIDUE_NAME>  (649) 
GLN   GLU

>  <FRAG_NAME>  (649) 
ACEM   NMA

>  <FRAG_ATOM_NUM>  (649) 
fragi: 9  fragj: 12

>  <atom.prop.CHAIN_ID>  (649) 
A A A A A A A A A Z Z Z Z Z Z Z Z Z Z Z Z

>  <atom.prop.IS_HEAVY_ATOM>  (649) 
1 0 0 0 1 1 0 0 1 1 0 0 0 1 0 1 1 1 0 0 0

>  <DIFUSE_FUNC_ATOM>  (649) 
n/a

>  <FINAL_SINGLE_POINT_ENERGY>  (649) 
0

>  <NONCOV_INTER_ENERGY_QM>  (649) 
0

>  <FF_Energy>  (649) 
8.42

>  <QM_Energy>  (649) 
26.8

>  <source>  (649) 
ACEM_nNMA_45

>  <Index>  (649) 
7082

$$$$
ACEM-pdb4qd2-C-ASN-271:NMA-pdb4qd2-C-TYR-180
     RDKit          3D

 21 19  0  0  0  0  0  0  0  0999 V2000
   -4.5625    2.0381    2.6572 C   0  0  0  0  0  0  0  0  0  0  0  0
   -4.9439    1.4083    3.3287 H   0  0  0  0  0  0  0  0  0  0  0  0
   -5.2386    2.7262    2.4078 H   0  0  0  0  0  0  0  0  0  0  0  0
   -3.7094    2.5445    3.1088 H   0  0  0  0  0  0  0  0  0  0  0  0
   -4.1847    1.2558    1.4169 C   0  0  0  0  0  0  0  0  0  0  0  0
   -2.9478    0.7739    1.3710 N   0  0  0  0  0  0  0  0  0  0  0  0
   -2.3232    0.9337    2.1385 H   0  0  0  0  0  0  0  0  0  0  0  0
   -2.6395    0.2549    0.5757 H   0  0  0  0  0  0  0  0  0  0  0  0
   -4.9995    1.0814    0.5104 O   0  0  0  0  0  0  0  0  0  0  0  0
   -1.1219   -2.1645   -0.1100 C   0  0  0  0  0  0  0  0  0  0  0  0
   -0.6117   -2.5445    0.6641 H   0  0  0  0  0  0  0  0  0  0  0  0
   -0.6195   -2.4616   -1.0306 H   0  0  0  0  0  0  0  0  0  0  0  0
   -2.1374   -2.5606   -0.1111 H   0  0  0  0  0  0  0  0  0  0  0  0
   -1.1230   -0.7115    0.0000 N   0  0  0  0  0  0  0  0  0  0  0  0
   -1.9944   -0.1450    0.0841 H   0  0  0  0  0  0  0  0  0  0  0  0
    0.0000    0.0000    0.0000 C   0  0  0  0  0  0  0  0  0  0  0  0
    1.1230   -0.5078   -0.0000 O   0  0  0  0  0  0  0  0  0  0  0  0
   -0.1737    1.5145    0.0053 C   0  0  0  0  0  0  0  0  0  0  0  0
   -0.9810    1.7346    0.5680 H   0  0  0  0  0  0  0  0  0  0  0  0
    0.6935    2.0108    0.4409 H   0  0  0  0  0  0  0  0  0  0  0  0
   -0.3477    1.8724   -1.0095 H   0  0  0  0  0  0  0  0  0  0  0  0
  1  5  1  0
  5  6  1  0
  5  9  2  0
  1  2  1  0
  1  3  1  0
  1  4  1  0
  6  7  1  0
  6  8  1  0
 10 14  1  0
 14 16  1  0
 16 17  2  0
 16 18  1  0
 10 11  1  0
 10 12  1  0
 10 13  1  0
 14 15  1  0
 18 19  1  0
 18 20  1  0
 18 21  1  0
M  END
>  <PDB_ID>  (650) 
pdb4qd2

>  <RESIDUE_NAME>  (650) 
ASN   TYR

>  <FRAG_NAME>  (650) 
ACEM   NMA

>  <FRAG_ATOM_NUM>  (650) 
fragi: 9  fragj: 12

>  <atom.prop.CHAIN_ID>  (650) 
A A A A A A A A A Z Z Z Z Z Z Z Z Z Z Z Z

>  <atom.prop.IS_HEAVY_ATOM>  (650) 
1 0 0 0 1 1 0 0 1 1 0 0 0 1 0 1 1 1 0 0 0

>  <DIFUSE_FUNC_ATOM>  (650) 
n/a

>  <FINAL_SINGLE_POINT_ENERGY>  (650) 
0

>  <NONCOV_INTER_ENERGY_QM>  (650) 
0

>  <FF_Energy>  (650) 
17.04

>  <QM_Energy>  (650) 
37.7

>  <source>  (650) 
ACEM_nNMA_45

>  <Index>  (650) 
11174

$$$$
ACEM-pdb3slg-B-ASN-60:NMA-pdb3slg-B-GLY-55
     RDKit          3D

 21 19  0  0  0  0  0  0  0  0999 V2000
   -4.3896    1.5676   -1.0062 C   0  0  0  0  0  0  0  0  0  0  0  0
   -3.6917    1.0337   -1.4675 H   0  0  0  0  0  0  0  0  0  0  0  0
   -4.4695    2.4689   -1.4128 H   0  0  0  0  0  0  0  0  0  0  0  0
   -5.3449    1.0547   -1.1174 H   0  0  0  0  0  0  0  0  0  0  0  0
   -4.0152    1.7153    0.4429 C   0  0  0  0  0  0  0  0  0  0  0  0
   -3.0961    0.8903    0.8996 N   0  0  0  0  0  0  0  0  0  0  0  0
   -2.6768    0.2109    0.2920 H   0  0  0  0  0  0  0  0  0  0  0  0
   -2.8067    0.9356    1.8598 H   0  0  0  0  0  0  0  0  0  0  0  0
   -4.4807    2.6215    1.1173 O   0  0  0  0  0  0  0  0  0  0  0  0
   -1.1334   -2.1853    0.0209 C   0  0  0  0  0  0  0  0  0  0  0  0
   -0.2599   -2.4868   -0.3146 H   0  0  0  0  0  0  0  0  0  0  0  0
   -1.8795   -2.4726   -0.7201 H   0  0  0  0  0  0  0  0  0  0  0  0
   -1.4199   -2.5135    1.0200 H   0  0  0  0  0  0  0  0  0  0  0  0
   -1.1214   -0.7087    0.0000 N   0  0  0  0  0  0  0  0  0  0  0  0
   -1.9971   -0.1424   -0.0162 H   0  0  0  0  0  0  0  0  0  0  0  0
    0.0000    0.0000    0.0000 C   0  0  0  0  0  0  0  0  0  0  0  0
    1.1214   -0.5205    0.0000 O   0  0  0  0  0  0  0  0  0  0  0  0
   -0.1750    1.5093    0.0073 C   0  0  0  0  0  0  0  0  0  0  0  0
   -0.9064    1.7601    0.6783 H   0  0  0  0  0  0  0  0  0  0  0  0
   -0.5211    1.8124   -0.9076 H   0  0  0  0  0  0  0  0  0  0  0  0
    0.7241    2.0777    0.2450 H   0  0  0  0  0  0  0  0  0  0  0  0
  1  5  1  0
  5  6  1  0
  5  9  2  0
  1  2  1  0
  1  3  1  0
  1  4  1  0
  6  7  1  0
  6  8  1  0
 10 14  1  0
 14 16  1  0
 16 17  2  0
 16 18  1  0
 10 11  1  0
 10 12  1  0
 10 13  1  0
 14 15  1  0
 18 19  1  0
 18 20  1  0
 18 21  1  0
M  END
>  <PDB_ID>  (651) 
pdb3slg

>  <RESIDUE_NAME>  (651) 
ASN   GLY

>  <FRAG_NAME>  (651) 
ACEM   NMA

>  <FRAG_ATOM_NUM>  (651) 
fragi: 9  fragj: 12

>  <atom.prop.CHAIN_ID>  (651) 
A A A A A A A A A Z Z Z Z Z Z Z Z Z Z Z Z

>  <atom.prop.IS_HEAVY_ATOM>  (651) 
1 0 0 0 1 1 0 0 1 1 0 0 0 1 0 1 1 1 0 0 0

>  <DIFUSE_FUNC_ATOM>  (651) 
n/a

>  <FINAL_SINGLE_POINT_ENERGY>  (651) 
0

>  <NONCOV_INTER_ENERGY_QM>  (651) 
0

>  <FF_Energy>  (651) 
20.99

>  <QM_Energy>  (651) 
48.8

>  <source>  (651) 
ACEM_nNMA_45

>  <Index>  (651) 
15209

$$$$
ACEM-pdb3sob-B-ASN-204:NMA-pdb3sob-B-SER-223
     RDKit          3D

 21 19  0  0  0  0  0  0  0  0999 V2000
   -6.1780   -1.0977    0.6849 C   0  0  0  0  0  0  0  0  0  0  0  0
   -6.6504   -1.3894   -0.1431 H   0  0  0  0  0  0  0  0  0  0  0  0
   -6.7728   -0.5109    1.2286 H   0  0  0  0  0  0  0  0  0  0  0  0
   -5.9392   -1.9831    1.2740 H   0  0  0  0  0  0  0  0  0  0  0  0
   -4.9414   -0.2753    0.2676 C   0  0  0  0  0  0  0  0  0  0  0  0
   -3.7883   -0.9321    0.2370 N   0  0  0  0  0  0  0  0  0  0  0  0
   -3.7584   -1.9053    0.4715 H   0  0  0  0  0  0  0  0  0  0  0  0
   -2.9462   -0.4564   -0.0196 H   0  0  0  0  0  0  0  0  0  0  0  0
   -5.0180    0.9164   -0.0012 O   0  0  0  0  0  0  0  0  0  0  0  0
   -1.1097   -2.1553   -0.0931 C   0  0  0  0  0  0  0  0  0  0  0  0
   -0.1773   -2.4592   -0.2703 H   0  0  0  0  0  0  0  0  0  0  0  0
   -1.7365   -2.4461   -0.9360 H   0  0  0  0  0  0  0  0  0  0  0  0
   -1.5083   -2.5782    0.8290 H   0  0  0  0  0  0  0  0  0  0  0  0
   -1.1224   -0.7061    0.0000 N   0  0  0  0  0  0  0  0  0  0  0  0
   -1.9931   -0.1426    0.0710 H   0  0  0  0  0  0  0  0  0  0  0  0
    0.0000    0.0000    0.0000 C   0  0  0  0  0  0  0  0  0  0  0  0
    1.1224   -0.5128    0.0000 O   0  0  0  0  0  0  0  0  0  0  0  0
   -0.1671    1.4976   -0.0490 C   0  0  0  0  0  0  0  0  0  0  0  0
   -0.2694    1.7759   -1.0202 H   0  0  0  0  0  0  0  0  0  0  0  0
   -1.0511    1.8471    0.4847 H   0  0  0  0  0  0  0  0  0  0  0  0
    0.7450    1.9675    0.3187 H   0  0  0  0  0  0  0  0  0  0  0  0
  1  5  1  0
  5  6  1  0
  5  9  2  0
  1  2  1  0
  1  3  1  0
  1  4  1  0
  6  7  1  0
  6  8  1  0
 10 14  1  0
 14 16  1  0
 16 17  2  0
 16 18  1  0
 10 11  1  0
 10 12  1  0
 10 13  1  0
 14 15  1  0
 18 19  1  0
 18 20  1  0
 18 21  1  0
M  END
>  <PDB_ID>  (652) 
pdb3sob

>  <RESIDUE_NAME>  (652) 
ASN   SER

>  <FRAG_NAME>  (652) 
ACEM   NMA

>  <FRAG_ATOM_NUM>  (652) 
fragi: 9  fragj: 12

>  <atom.prop.CHAIN_ID>  (652) 
A A A A A A A A A Z Z Z Z Z Z Z Z Z Z Z Z

>  <atom.prop.IS_HEAVY_ATOM>  (652) 
1 0 0 0 1 1 0 0 1 1 0 0 0 1 0 1 1 1 0 0 0

>  <DIFUSE_FUNC_ATOM>  (652) 
n/a

>  <FINAL_SINGLE_POINT_ENERGY>  (652) 
0

>  <NONCOV_INTER_ENERGY_QM>  (652) 
0

>  <FF_Energy>  (652) 
12.08

>  <QM_Energy>  (652) 
27.57

>  <source>  (652) 
ACEM_nNMA_45

>  <Index>  (652) 
16223

$$$$
ACEM-pdb4qhs-D-GLN-223:NMA-pdb4qhs-D-LEU-263
     RDKit          3D

 21 19  0  0  0  0  0  0  0  0999 V2000
   -5.4385    0.4729    2.0700 C   0  0  0  0  0  0  0  0  0  0  0  0
   -5.6259    1.0739    2.8455 H   0  0  0  0  0  0  0  0  0  0  0  0
   -5.5024   -0.4809    2.3608 H   0  0  0  0  0  0  0  0  0  0  0  0
   -6.1786    0.6575    1.2914 H   0  0  0  0  0  0  0  0  0  0  0  0
   -4.0394    0.7372    1.5835 C   0  0  0  0  0  0  0  0  0  0  0  0
   -3.2938   -0.3284    1.3189 N   0  0  0  0  0  0  0  0  0  0  0  0
   -2.3397   -0.2311    0.9721 H   0  0  0  0  0  0  0  0  0  0  0  0
   -3.6894   -1.2559    1.4686 H   0  0  0  0  0  0  0  0  0  0  0  0
   -3.6287    1.8872    1.4446 O   0  0  0  0  0  0  0  0  0  0  0  0
   -1.1438   -2.1435   -0.2661 C   0  0  0  0  0  0  0  0  0  0  0  0
   -0.2677   -2.3851   -0.6788 H   0  0  0  0  0  0  0  0  0  0  0  0
   -1.9137   -2.3502   -1.0095 H   0  0  0  0  0  0  0  0  0  0  0  0
   -1.3251   -2.7137    0.6450 H   0  0  0  0  0  0  0  0  0  0  0  0
   -1.1214   -0.7112    0.0000 N   0  0  0  0  0  0  0  0  0  0  0  0
   -1.9841   -0.1570    0.2071 H   0  0  0  0  0  0  0  0  0  0  0  0
    0.0000    0.0000    0.0000 C   0  0  0  0  0  0  0  0  0  0  0  0
    1.1214   -0.4974   -0.0000 O   0  0  0  0  0  0  0  0  0  0  0  0
   -0.1829    1.5034   -0.0226 C   0  0  0  0  0  0  0  0  0  0  0  0
   -1.1252    1.7170    0.3064 H   0  0  0  0  0  0  0  0  0  0  0  0
    0.5267    2.0482    0.6001 H   0  0  0  0  0  0  0  0  0  0  0  0
   -0.1081    1.8345   -1.0584 H   0  0  0  0  0  0  0  0  0  0  0  0
  1  5  1  0
  5  6  1  0
  5  9  2  0
  1  2  1  0
  1  3  1  0
  1  4  1  0
  6  7  1  0
  6  8  1  0
 10 14  1  0
 14 16  1  0
 16 17  2  0
 16 18  1  0
 10 11  1  0
 10 12  1  0
 10 13  1  0
 14 15  1  0
 18 19  1  0
 18 20  1  0
 18 21  1  0
M  END
>  <PDB_ID>  (653) 
pdb4qhs

>  <RESIDUE_NAME>  (653) 
GLN   LEU

>  <FRAG_NAME>  (653) 
ACEM   NMA

>  <FRAG_ATOM_NUM>  (653) 
fragi: 9  fragj: 12

>  <atom.prop.CHAIN_ID>  (653) 
A A A A A A A A A Z Z Z Z Z Z Z Z Z Z Z Z

>  <atom.prop.IS_HEAVY_ATOM>  (653) 
1 0 0 0 1 1 0 0 1 1 0 0 0 1 0 1 1 1 0 0 0

>  <DIFUSE_FUNC_ATOM>  (653) 
n/a

>  <FINAL_SINGLE_POINT_ENERGY>  (653) 
0

>  <NONCOV_INTER_ENERGY_QM>  (653) 
0

>  <FF_Energy>  (653) 
18.42

>  <QM_Energy>  (653) 
46.62

>  <source>  (653) 
ACEM_nNMA_45

>  <Index>  (653) 
16548

$$$$
ACEM-pdb3slg-D-ASN-60:NMA-pdb3slg-D-GLY-55
     RDKit          3D

 21 19  0  0  0  0  0  0  0  0999 V2000
   -4.4544    1.5316   -1.0404 C   0  0  0  0  0  0  0  0  0  0  0  0
   -3.7372    1.0378   -1.5235 H   0  0  0  0  0  0  0  0  0  0  0  0
   -4.5627    2.4433   -1.4277 H   0  0  0  0  0  0  0  0  0  0  0  0
   -5.3918    0.9891   -1.1625 H   0  0  0  0  0  0  0  0  0  0  0  0
   -4.0420    1.6739    0.4175 C   0  0  0  0  0  0  0  0  0  0  0  0
   -3.2276    0.7544    0.9005 N   0  0  0  0  0  0  0  0  0  0  0  0
   -2.9075    0.0097    0.3055 H   0  0  0  0  0  0  0  0  0  0  0  0
   -2.9265    0.7918    1.8524 H   0  0  0  0  0  0  0  0  0  0  0  0
   -4.4348    2.6121    1.0840 O   0  0  0  0  0  0  0  0  0  0  0  0
   -1.1675   -2.1632    0.0448 C   0  0  0  0  0  0  0  0  0  0  0  0
   -0.2757   -2.4950   -0.2299 H   0  0  0  0  0  0  0  0  0  0  0  0
   -1.8734   -2.4792   -0.7233 H   0  0  0  0  0  0  0  0  0  0  0  0
   -1.5173   -2.4568    1.0346 H   0  0  0  0  0  0  0  0  0  0  0  0
   -1.1294   -0.7068    0.0000 N   0  0  0  0  0  0  0  0  0  0  0  0
   -1.9987   -0.1164   -0.0357 H   0  0  0  0  0  0  0  0  0  0  0  0
    0.0000    0.0000    0.0000 C   0  0  0  0  0  0  0  0  0  0  0  0
    1.1294   -0.5075   -0.0000 O   0  0  0  0  0  0  0  0  0  0  0  0
   -0.1811    1.4912    0.0013 C   0  0  0  0  0  0  0  0  0  0  0  0
   -0.8483    1.7529    0.7290 H   0  0  0  0  0  0  0  0  0  0  0  0
   -0.5994    1.7845   -0.8837 H   0  0  0  0  0  0  0  0  0  0  0  0
    0.7440    2.0468    0.1547 H   0  0  0  0  0  0  0  0  0  0  0  0
  1  5  1  0
  5  6  1  0
  5  9  2  0
  1  2  1  0
  1  3  1  0
  1  4  1  0
  6  7  1  0
  6  8  1  0
 10 14  1  0
 14 16  1  0
 16 17  2  0
 16 18  1  0
 10 11  1  0
 10 12  1  0
 10 13  1  0
 14 15  1  0
 18 19  1  0
 18 20  1  0
 18 21  1  0
M  END
>  <PDB_ID>  (654) 
pdb3slg

>  <RESIDUE_NAME>  (654) 
ASN   GLY

>  <FRAG_NAME>  (654) 
ACEM   NMA

>  <FRAG_ATOM_NUM>  (654) 
fragi: 9  fragj: 12

>  <atom.prop.CHAIN_ID>  (654) 
A A A A A A A A A Z Z Z Z Z Z Z Z Z Z Z Z

>  <atom.prop.IS_HEAVY_ATOM>  (654) 
1 0 0 0 1 1 0 0 1 1 0 0 0 1 0 1 1 1 0 0 0

>  <DIFUSE_FUNC_ATOM>  (654) 
n/a

>  <FINAL_SINGLE_POINT_ENERGY>  (654) 
0

>  <NONCOV_INTER_ENERGY_QM>  (654) 
0

>  <FF_Energy>  (654) 
13.04

>  <QM_Energy>  (654) 
30.78

>  <source>  (654) 
ACEM_nNMA_45

>  <Index>  (654) 
18879

$$$$
ACEM-pdb4qaw-F-ASN-504:NMA-pdb4qaw-D-ALA-99
     RDKit          3D

 21 19  0  0  0  0  0  0  0  0999 V2000
   -5.5206    1.8972   -0.3348 C   0  0  0  0  0  0  0  0  0  0  0  0
   -6.0301    2.2596    0.4411 H   0  0  0  0  0  0  0  0  0  0  0  0
   -6.0380    1.1687   -0.7760 H   0  0  0  0  0  0  0  0  0  0  0  0
   -5.3734    2.7006   -1.0566 H   0  0  0  0  0  0  0  0  0  0  0  0
   -4.2088    1.3122    0.1819 C   0  0  0  0  0  0  0  0  0  0  0  0
   -3.3325    0.9267   -0.7359 N   0  0  0  0  0  0  0  0  0  0  0  0
   -3.5486    1.0336   -1.7087 H   0  0  0  0  0  0  0  0  0  0  0  0
   -2.4573    0.5309   -0.4619 H   0  0  0  0  0  0  0  0  0  0  0  0
   -3.9821    1.2221    1.3917 O   0  0  0  0  0  0  0  0  0  0  0  0
   -1.0745   -2.1410   -0.2575 C   0  0  0  0  0  0  0  0  0  0  0  0
   -0.3598   -2.5469    0.3080 H   0  0  0  0  0  0  0  0  0  0  0  0
   -0.7979   -2.2976   -1.3002 H   0  0  0  0  0  0  0  0  0  0  0  0
   -2.0372   -2.6072   -0.0478 H   0  0  0  0  0  0  0  0  0  0  0  0
   -1.1175   -0.7162    0.0000 N   0  0  0  0  0  0  0  0  0  0  0  0
   -1.9814   -0.1858    0.1921 H   0  0  0  0  0  0  0  0  0  0  0  0
    0.0000    0.0000    0.0000 C   0  0  0  0  0  0  0  0  0  0  0  0
    1.1175   -0.5202    0.0000 O   0  0  0  0  0  0  0  0  0  0  0  0
   -0.1481    1.5163    0.0161 C   0  0  0  0  0  0  0  0  0  0  0  0
   -0.9719    1.7552    0.5330 H   0  0  0  0  0  0  0  0  0  0  0  0
    0.7148    1.9639    0.5093 H   0  0  0  0  0  0  0  0  0  0  0  0
   -0.2355    1.8984   -1.0011 H   0  0  0  0  0  0  0  0  0  0  0  0
  1  5  1  0
  5  6  1  0
  5  9  2  0
  1  2  1  0
  1  3  1  0
  1  4  1  0
  6  7  1  0
  6  8  1  0
 10 14  1  0
 14 16  1  0
 16 17  2  0
 16 18  1  0
 10 11  1  0
 10 12  1  0
 10 13  1  0
 14 15  1  0
 18 19  1  0
 18 20  1  0
 18 21  1  0
M  END
>  <PDB_ID>  (655) 
pdb4qaw

>  <RESIDUE_NAME>  (655) 
ASN   ALA

>  <FRAG_NAME>  (655) 
ACEM   NMA

>  <FRAG_ATOM_NUM>  (655) 
fragi: 9  fragj: 12

>  <atom.prop.CHAIN_ID>  (655) 
A A A A A A A A A Z Z Z Z Z Z Z Z Z Z Z Z

>  <atom.prop.IS_HEAVY_ATOM>  (655) 
1 0 0 0 1 1 0 0 1 1 0 0 0 1 0 1 1 1 0 0 0

>  <DIFUSE_FUNC_ATOM>  (655) 
n/a

>  <FINAL_SINGLE_POINT_ENERGY>  (655) 
0

>  <NONCOV_INTER_ENERGY_QM>  (655) 
0

>  <FF_Energy>  (655) 
5.63

>  <QM_Energy>  (655) 
18.56

>  <source>  (655) 
ACEM_nNMA_45

>  <Index>  (655) 
19007

$$$$
ACEM-pdb4qrk-A-ASN-173:NMA-pdb4qrk-A-ASN-229
     RDKit          3D

 21 19  0  0  0  0  0  0  0  0999 V2000
   -5.4796    0.6262    0.0648 C   0  0  0  0  0  0  0  0  0  0  0  0
   -6.3006    1.1888    0.0366 H   0  0  0  0  0  0  0  0  0  0  0  0
   -5.7136   -0.3099    0.3137 H   0  0  0  0  0  0  0  0  0  0  0  0
   -5.0207    0.6231   -0.9239 H   0  0  0  0  0  0  0  0  0  0  0  0
   -4.5501    1.1830    1.1046 C   0  0  0  0  0  0  0  0  0  0  0  0
   -3.2948    0.7834    1.0371 N   0  0  0  0  0  0  0  0  0  0  0  0
   -2.9995    0.1485    0.3207 H   0  0  0  0  0  0  0  0  0  0  0  0
   -2.6232    1.1148    1.7070 H   0  0  0  0  0  0  0  0  0  0  0  0
   -4.9673    1.9479    1.9873 O   0  0  0  0  0  0  0  0  0  0  0  0
   -1.0573   -2.1618    0.0192 C   0  0  0  0  0  0  0  0  0  0  0  0
   -0.1703   -2.4430   -0.3903 H   0  0  0  0  0  0  0  0  0  0  0  0
   -1.8517   -2.6375   -0.5559 H   0  0  0  0  0  0  0  0  0  0  0  0
   -1.0856   -2.5065    1.0529 H   0  0  0  0  0  0  0  0  0  0  0  0
   -1.1219   -0.7084    0.0000 N   0  0  0  0  0  0  0  0  0  0  0  0
   -1.9930   -0.1663   -0.0137 H   0  0  0  0  0  0  0  0  0  0  0  0
    0.0000    0.0000    0.0000 C   0  0  0  0  0  0  0  0  0  0  0  0
    1.1219   -0.5298   -0.0000 O   0  0  0  0  0  0  0  0  0  0  0  0
   -0.1632    1.5156   -0.0288 C   0  0  0  0  0  0  0  0  0  0  0  0
   -1.0418    1.7285    0.4363 H   0  0  0  0  0  0  0  0  0  0  0  0
    0.6171    2.0533    0.5097 H   0  0  0  0  0  0  0  0  0  0  0  0
   -0.1592    1.8129   -1.0775 H   0  0  0  0  0  0  0  0  0  0  0  0
  1  5  1  0
  5  6  1  0
  5  9  2  0
  1  2  1  0
  1  3  1  0
  1  4  1  0
  6  7  1  0
  6  8  1  0
 10 14  1  0
 14 16  1  0
 16 17  2  0
 16 18  1  0
 10 11  1  0
 10 12  1  0
 10 13  1  0
 14 15  1  0
 18 19  1  0
 18 20  1  0
 18 21  1  0
M  END
>  <PDB_ID>  (656) 
pdb4qrk

>  <RESIDUE_NAME>  (656) 
ASN   ASN

>  <FRAG_NAME>  (656) 
ACEM   NMA

>  <FRAG_ATOM_NUM>  (656) 
fragi: 9  fragj: 12

>  <atom.prop.CHAIN_ID>  (656) 
A A A A A A A A A Z Z Z Z Z Z Z Z Z Z Z Z

>  <atom.prop.IS_HEAVY_ATOM>  (656) 
1 0 0 0 1 1 0 0 1 1 0 0 0 1 0 1 1 1 0 0 0

>  <DIFUSE_FUNC_ATOM>  (656) 
n/a

>  <FINAL_SINGLE_POINT_ENERGY>  (656) 
0

>  <NONCOV_INTER_ENERGY_QM>  (656) 
0

>  <FF_Energy>  (656) 
10.39

>  <QM_Energy>  (656) 
20.85

>  <source>  (656) 
ACEM_nNMA_45

>  <Index>  (656) 
19975

$$$$
ACEM-pdb3sto-A-ASN-338:NMA-pdb3sto-A-THR-184
     RDKit          3D

 21 19  0  0  0  0  0  0  0  0999 V2000
   -4.3526    1.7725   -2.6319 C   0  0  0  0  0  0  0  0  0  0  0  0
   -3.7147    1.4377   -3.3257 H   0  0  0  0  0  0  0  0  0  0  0  0
   -4.3223    2.7713   -2.6030 H   0  0  0  0  0  0  0  0  0  0  0  0
   -5.3589    1.4734   -2.9254 H   0  0  0  0  0  0  0  0  0  0  0  0
   -3.9502    1.2323   -1.2959 C   0  0  0  0  0  0  0  0  0  0  0  0
   -3.4150    0.0102   -1.2966 N   0  0  0  0  0  0  0  0  0  0  0  0
   -3.2966   -0.4852   -2.1548 H   0  0  0  0  0  0  0  0  0  0  0  0
   -3.1303   -0.4090   -0.4335 H   0  0  0  0  0  0  0  0  0  0  0  0
   -4.1143    1.8992   -0.2621 O   0  0  0  0  0  0  0  0  0  0  0  0
   -1.1040   -2.1784   -0.0462 C   0  0  0  0  0  0  0  0  0  0  0  0
   -0.2863   -2.5117    0.4550 H   0  0  0  0  0  0  0  0  0  0  0  0
   -1.0666   -2.5714   -1.0622 H   0  0  0  0  0  0  0  0  0  0  0  0
   -1.9739   -2.5773    0.4756 H   0  0  0  0  0  0  0  0  0  0  0  0
   -1.1172   -0.7180   -0.0000 N   0  0  0  0  0  0  0  0  0  0  0  0
   -1.9949   -0.1576    0.0358 H   0  0  0  0  0  0  0  0  0  0  0  0
    0.0000    0.0000    0.0000 C   0  0  0  0  0  0  0  0  0  0  0  0
    1.1172   -0.5086    0.0000 O   0  0  0  0  0  0  0  0  0  0  0  0
   -0.1659    1.5192   -0.0119 C   0  0  0  0  0  0  0  0  0  0  0  0
   -1.1452    1.7278    0.0780 H   0  0  0  0  0  0  0  0  0  0  0  0
    0.3670    1.9642    0.8284 H   0  0  0  0  0  0  0  0  0  0  0  0
    0.1476    1.9502   -0.9627 H   0  0  0  0  0  0  0  0  0  0  0  0
  1  5  1  0
  5  6  1  0
  5  9  2  0
  1  2  1  0
  1  3  1  0
  1  4  1  0
  6  7  1  0
  6  8  1  0
 10 14  1  0
 14 16  1  0
 16 17  2  0
 16 18  1  0
 10 11  1  0
 10 12  1  0
 10 13  1  0
 14 15  1  0
 18 19  1  0
 18 20  1  0
 18 21  1  0
M  END
>  <PDB_ID>  (657) 
pdb3sto

>  <RESIDUE_NAME>  (657) 
ASN   THR

>  <FRAG_NAME>  (657) 
ACEM   NMA

>  <FRAG_ATOM_NUM>  (657) 
fragi: 9  fragj: 12

>  <atom.prop.CHAIN_ID>  (657) 
A A A A A A A A A Z Z Z Z Z Z Z Z Z Z Z Z

>  <atom.prop.IS_HEAVY_ATOM>  (657) 
1 0 0 0 1 1 0 0 1 1 0 0 0 1 0 1 1 1 0 0 0

>  <DIFUSE_FUNC_ATOM>  (657) 
n/a

>  <FINAL_SINGLE_POINT_ENERGY>  (657) 
0

>  <NONCOV_INTER_ENERGY_QM>  (657) 
0

>  <FF_Energy>  (657) 
3.19

>  <QM_Energy>  (657) 
13.74

>  <source>  (657) 
ACEM_nNMA_45

>  <Index>  (657) 
20195

$$$$
ACEM-pdb4r1d-A-GLN-201:NMA-pdb4r1d-A-THR-46
     RDKit          3D

 21 19  0  0  0  0  0  0  0  0999 V2000
   -5.0508    1.6120   -1.5427 C   0  0  0  0  0  0  0  0  0  0  0  0
   -4.6274    2.4337   -1.9238 H   0  0  0  0  0  0  0  0  0  0  0  0
   -5.9336    1.8488   -1.1376 H   0  0  0  0  0  0  0  0  0  0  0  0
   -5.2202    0.9012   -2.3515 H   0  0  0  0  0  0  0  0  0  0  0  0
   -4.1452    1.0646   -0.4485 C   0  0  0  0  0  0  0  0  0  0  0  0
   -3.3963    0.0147   -0.7648 N   0  0  0  0  0  0  0  0  0  0  0  0
   -2.7593   -0.3942   -0.0902 H   0  0  0  0  0  0  0  0  0  0  0  0
   -3.4731   -0.3778   -1.7029 H   0  0  0  0  0  0  0  0  0  0  0  0
   -4.1206    1.5835    0.6650 O   0  0  0  0  0  0  0  0  0  0  0  0
   -1.1267   -2.1568   -0.1817 C   0  0  0  0  0  0  0  0  0  0  0  0
   -0.2046   -2.4614   -0.4045 H   0  0  0  0  0  0  0  0  0  0  0  0
   -1.7839   -2.3887   -1.0198 H   0  0  0  0  0  0  0  0  0  0  0  0
   -1.4693   -2.6560    0.7247 H   0  0  0  0  0  0  0  0  0  0  0  0
   -1.1213   -0.7132   -0.0000 N   0  0  0  0  0  0  0  0  0  0  0  0
   -1.9895   -0.1515    0.1405 H   0  0  0  0  0  0  0  0  0  0  0  0
    0.0000    0.0000    0.0000 C   0  0  0  0  0  0  0  0  0  0  0  0
    1.1213   -0.5090   -0.0000 O   0  0  0  0  0  0  0  0  0  0  0  0
   -0.1820    1.5192    0.0198 C   0  0  0  0  0  0  0  0  0  0  0  0
   -1.1159    1.7198    0.3653 H   0  0  0  0  0  0  0  0  0  0  0  0
    0.5367    2.0325    0.6588 H   0  0  0  0  0  0  0  0  0  0  0  0
   -0.1414    1.8974   -1.0017 H   0  0  0  0  0  0  0  0  0  0  0  0
  1  5  1  0
  5  6  1  0
  5  9  2  0
  1  2  1  0
  1  3  1  0
  1  4  1  0
  6  7  1  0
  6  8  1  0
 10 14  1  0
 14 16  1  0
 16 17  2  0
 16 18  1  0
 10 11  1  0
 10 12  1  0
 10 13  1  0
 14 15  1  0
 18 19  1  0
 18 20  1  0
 18 21  1  0
M  END
>  <PDB_ID>  (658) 
pdb4r1d

>  <RESIDUE_NAME>  (658) 
GLN   THR

>  <FRAG_NAME>  (658) 
ACEM   NMA

>  <FRAG_ATOM_NUM>  (658) 
fragi: 9  fragj: 12

>  <atom.prop.CHAIN_ID>  (658) 
A A A A A A A A A Z Z Z Z Z Z Z Z Z Z Z Z

>  <atom.prop.IS_HEAVY_ATOM>  (658) 
1 0 0 0 1 1 0 0 1 1 0 0 0 1 0 1 1 1 0 0 0

>  <DIFUSE_FUNC_ATOM>  (658) 
n/a

>  <FINAL_SINGLE_POINT_ENERGY>  (658) 
0

>  <NONCOV_INTER_ENERGY_QM>  (658) 
0

>  <FF_Energy>  (658) 
23.73

>  <QM_Energy>  (658) 
53.25

>  <source>  (658) 
ACEM_nNMA_45

>  <Index>  (658) 
25073

$$$$
ACEM-pdb3sqg-B-ASN-299:NMA-pdb3sqg-B-PRO-343
     RDKit          3D

 21 19  0  0  0  0  0  0  0  0999 V2000
   -5.6202    1.1147    1.7122 C   0  0  0  0  0  0  0  0  0  0  0  0
   -5.4806    0.8440    2.6583 H   0  0  0  0  0  0  0  0  0  0  0  0
   -6.5306    0.8592    1.4075 H   0  0  0  0  0  0  0  0  0  0  0  0
   -5.5264    2.1987    1.6463 H   0  0  0  0  0  0  0  0  0  0  0  0
   -4.6009    0.4043    0.8485 C   0  0  0  0  0  0  0  0  0  0  0  0
   -3.3489    0.3918    1.2984 N   0  0  0  0  0  0  0  0  0  0  0  0
   -3.1287    0.8331    2.1691 H   0  0  0  0  0  0  0  0  0  0  0  0
   -2.6305   -0.0569    0.7697 H   0  0  0  0  0  0  0  0  0  0  0  0
   -4.9399   -0.1453   -0.2054 O   0  0  0  0  0  0  0  0  0  0  0  0
   -1.1459   -2.1470    0.1551 C   0  0  0  0  0  0  0  0  0  0  0  0
   -2.1080   -2.4217    0.3401 H   0  0  0  0  0  0  0  0  0  0  0  0
   -0.5551   -2.5115    0.9953 H   0  0  0  0  0  0  0  0  0  0  0  0
   -0.8483   -2.6315   -0.7749 H   0  0  0  0  0  0  0  0  0  0  0  0
   -1.1288   -0.7003   -0.0000 N   0  0  0  0  0  0  0  0  0  0  0  0
   -1.9927   -0.1277   -0.1190 H   0  0  0  0  0  0  0  0  0  0  0  0
    0.0000    0.0000    0.0000 C   0  0  0  0  0  0  0  0  0  0  0  0
    1.1288   -0.5141   -0.0000 O   0  0  0  0  0  0  0  0  0  0  0  0
   -0.1944    1.5095   -0.0145 C   0  0  0  0  0  0  0  0  0  0  0  0
   -1.1686    1.7473    0.1621 H   0  0  0  0  0  0  0  0  0  0  0  0
    0.4554    2.0393    0.6821 H   0  0  0  0  0  0  0  0  0  0  0  0
    0.0778    1.9294   -0.9829 H   0  0  0  0  0  0  0  0  0  0  0  0
  1  5  1  0
  5  6  1  0
  5  9  2  0
  1  2  1  0
  1  3  1  0
  1  4  1  0
  6  7  1  0
  6  8  1  0
 10 14  1  0
 14 16  1  0
 16 17  2  0
 16 18  1  0
 10 11  1  0
 10 12  1  0
 10 13  1  0
 14 15  1  0
 18 19  1  0
 18 20  1  0
 18 21  1  0
M  END
>  <PDB_ID>  (659) 
pdb3sqg

>  <RESIDUE_NAME>  (659) 
ASN   PRO

>  <FRAG_NAME>  (659) 
ACEM   NMA

>  <FRAG_ATOM_NUM>  (659) 
fragi: 9  fragj: 12

>  <atom.prop.CHAIN_ID>  (659) 
A A A A A A A A A Z Z Z Z Z Z Z Z Z Z Z Z

>  <atom.prop.IS_HEAVY_ATOM>  (659) 
1 0 0 0 1 1 0 0 1 1 0 0 0 1 0 1 1 1 0 0 0

>  <DIFUSE_FUNC_ATOM>  (659) 
n/a

>  <FINAL_SINGLE_POINT_ENERGY>  (659) 
0

>  <NONCOV_INTER_ENERGY_QM>  (659) 
0

>  <FF_Energy>  (659) 
6.7

>  <QM_Energy>  (659) 
17.9

>  <source>  (659) 
ACEM_nNMA_45

>  <Index>  (659) 
27937

$$$$
ACEM-pdb3tbm-A-ASN-12:NMA-pdb3tbm-A-ASP-62
     RDKit          3D

 21 19  0  0  0  0  0  0  0  0999 V2000
   -5.1699    1.3903    0.8730 C   0  0  0  0  0  0  0  0  0  0  0  0
   -6.1581    1.4414    0.8070 H   0  0  0  0  0  0  0  0  0  0  0  0
   -4.7950    2.2374    1.2283 H   0  0  0  0  0  0  0  0  0  0  0  0
   -4.9192    0.5921    1.5716 H   0  0  0  0  0  0  0  0  0  0  0  0
   -4.5965    1.1461   -0.5225 C   0  0  0  0  0  0  0  0  0  0  0  0
   -3.4059    0.5432   -0.5761 N   0  0  0  0  0  0  0  0  0  0  0  0
   -2.9493    0.2747    0.2734 H   0  0  0  0  0  0  0  0  0  0  0  0
   -2.9779    0.3611   -1.4570 H   0  0  0  0  0  0  0  0  0  0  0  0
   -5.2032    1.5104   -1.5451 O   0  0  0  0  0  0  0  0  0  0  0  0
   -1.0688   -2.1515   -0.1339 C   0  0  0  0  0  0  0  0  0  0  0  0
   -0.3146   -2.3814   -0.7539 H   0  0  0  0  0  0  0  0  0  0  0  0
   -1.9993   -2.5031   -0.5796 H   0  0  0  0  0  0  0  0  0  0  0  0
   -0.9059   -2.6452    0.8242 H   0  0  0  0  0  0  0  0  0  0  0  0
   -1.1161   -0.7043    0.0000 N   0  0  0  0  0  0  0  0  0  0  0  0
   -1.9869   -0.1626    0.0991 H   0  0  0  0  0  0  0  0  0  0  0  0
    0.0000    0.0000    0.0000 C   0  0  0  0  0  0  0  0  0  0  0  0
    1.1161   -0.5210   -0.0000 O   0  0  0  0  0  0  0  0  0  0  0  0
   -0.1526    1.4990    0.0377 C   0  0  0  0  0  0  0  0  0  0  0  0
   -1.0949    1.7097   -0.2004 H   0  0  0  0  0  0  0  0  0  0  0  0
   -0.0031    1.8057    1.0729 H   0  0  0  0  0  0  0  0  0  0  0  0
    0.5849    1.9742   -0.6091 H   0  0  0  0  0  0  0  0  0  0  0  0
  1  5  1  0
  5  6  1  0
  5  9  2  0
  1  2  1  0
  1  3  1  0
  1  4  1  0
  6  7  1  0
  6  8  1  0
 10 14  1  0
 14 16  1  0
 16 17  2  0
 16 18  1  0
 10 11  1  0
 10 12  1  0
 10 13  1  0
 14 15  1  0
 18 19  1  0
 18 20  1  0
 18 21  1  0
M  END
>  <PDB_ID>  (660) 
pdb3tbm

>  <RESIDUE_NAME>  (660) 
ASN   ASP

>  <FRAG_NAME>  (660) 
ACEM   NMA

>  <FRAG_ATOM_NUM>  (660) 
fragi: 9  fragj: 12

>  <atom.prop.CHAIN_ID>  (660) 
A A A A A A A A A Z Z Z Z Z Z Z Z Z Z Z Z

>  <atom.prop.IS_HEAVY_ATOM>  (660) 
1 0 0 0 1 1 0 0 1 1 0 0 0 1 0 1 1 1 0 0 0

>  <DIFUSE_FUNC_ATOM>  (660) 
n/a

>  <FINAL_SINGLE_POINT_ENERGY>  (660) 
0

>  <NONCOV_INTER_ENERGY_QM>  (660) 
0

>  <FF_Energy>  (660) 
14.22

>  <QM_Energy>  (660) 
25.34

>  <source>  (660) 
ACEM_nNMA_46

>  <Index>  (660) 
5967

$$$$
ACEM-pdb4rdr-A-GLN-573:NMA-pdb4rdr-A-LEU-512
     RDKit          3D

 21 19  0  0  0  0  0  0  0  0999 V2000
   -5.2929    1.4572   -0.7271 C   0  0  0  0  0  0  0  0  0  0  0  0
   -5.5595    0.9744   -1.5585 H   0  0  0  0  0  0  0  0  0  0  0  0
   -4.9694    2.3734   -0.9555 H   0  0  0  0  0  0  0  0  0  0  0  0
   -6.1644    1.5449   -0.0783 H   0  0  0  0  0  0  0  0  0  0  0  0
   -4.1640    0.6940   -0.0646 C   0  0  0  0  0  0  0  0  0  0  0  0
   -3.4279   -0.0737   -0.8619 N   0  0  0  0  0  0  0  0  0  0  0  0
   -2.6421   -0.6067   -0.4925 H   0  0  0  0  0  0  0  0  0  0  0  0
   -3.6618   -0.1221   -1.8509 H   0  0  0  0  0  0  0  0  0  0  0  0
   -3.9393    0.8077    1.1395 O   0  0  0  0  0  0  0  0  0  0  0  0
   -1.1029   -2.1525   -0.1087 C   0  0  0  0  0  0  0  0  0  0  0  0
   -0.1691   -2.4571    0.0795 H   0  0  0  0  0  0  0  0  0  0  0  0
   -1.3268   -2.4294   -1.1390 H   0  0  0  0  0  0  0  0  0  0  0  0
   -1.8220   -2.5923    0.5823 H   0  0  0  0  0  0  0  0  0  0  0  0
   -1.1224   -0.7085   -0.0000 N   0  0  0  0  0  0  0  0  0  0  0  0
   -1.9927   -0.1469    0.0829 H   0  0  0  0  0  0  0  0  0  0  0  0
    0.0000    0.0000    0.0000 C   0  0  0  0  0  0  0  0  0  0  0  0
    1.1224   -0.5139    0.0000 O   0  0  0  0  0  0  0  0  0  0  0  0
   -0.1722    1.5150   -0.0042 C   0  0  0  0  0  0  0  0  0  0  0  0
   -0.9633    1.7446    0.5664 H   0  0  0  0  0  0  0  0  0  0  0  0
    0.7148    1.9886    0.4167 H   0  0  0  0  0  0  0  0  0  0  0  0
   -0.3451    1.8491   -1.0273 H   0  0  0  0  0  0  0  0  0  0  0  0
  1  5  1  0
  5  6  1  0
  5  9  2  0
  1  2  1  0
  1  3  1  0
  1  4  1  0
  6  7  1  0
  6  8  1  0
 10 14  1  0
 14 16  1  0
 16 17  2  0
 16 18  1  0
 10 11  1  0
 10 12  1  0
 10 13  1  0
 14 15  1  0
 18 19  1  0
 18 20  1  0
 18 21  1  0
M  END
>  <PDB_ID>  (661) 
pdb4rdr

>  <RESIDUE_NAME>  (661) 
GLN   LEU

>  <FRAG_NAME>  (661) 
ACEM   NMA

>  <FRAG_ATOM_NUM>  (661) 
fragi: 9  fragj: 12

>  <atom.prop.CHAIN_ID>  (661) 
A A A A A A A A A Z Z Z Z Z Z Z Z Z Z Z Z

>  <atom.prop.IS_HEAVY_ATOM>  (661) 
1 0 0 0 1 1 0 0 1 1 0 0 0 1 0 1 1 1 0 0 0

>  <DIFUSE_FUNC_ATOM>  (661) 
n/a

>  <FINAL_SINGLE_POINT_ENERGY>  (661) 
0

>  <NONCOV_INTER_ENERGY_QM>  (661) 
0

>  <FF_Energy>  (661) 
14.84

>  <QM_Energy>  (661) 
36.67

>  <source>  (661) 
ACEM_nNMA_46

>  <Index>  (661) 
11794

$$$$
ACEM-pdb4rdr-A-ASN-280:NMA-pdb4rdr-A-PRO-557
     RDKit          3D

 21 19  0  0  0  0  0  0  0  0999 V2000
   -5.9299    0.8730   -0.6068 C   0  0  0  0  0  0  0  0  0  0  0  0
   -5.8863    1.8505   -0.7893 H   0  0  0  0  0  0  0  0  0  0  0  0
   -6.6255    0.6805    0.0792 H   0  0  0  0  0  0  0  0  0  0  0  0
   -6.2053    0.3623   -1.5295 H   0  0  0  0  0  0  0  0  0  0  0  0
   -4.5824    0.4202   -0.0705 C   0  0  0  0  0  0  0  0  0  0  0  0
   -3.7019   -0.0260   -0.9657 N   0  0  0  0  0  0  0  0  0  0  0  0
   -3.9499   -0.0410   -1.9364 H   0  0  0  0  0  0  0  0  0  0  0  0
   -2.8037   -0.3406   -0.6713 H   0  0  0  0  0  0  0  0  0  0  0  0
   -4.3306    0.4869    1.1314 O   0  0  0  0  0  0  0  0  0  0  0  0
   -1.0585   -2.1823   -0.1008 C   0  0  0  0  0  0  0  0  0  0  0  0
   -0.4124   -2.5279    0.6047 H   0  0  0  0  0  0  0  0  0  0  0  0
   -0.7270   -2.5362   -1.0771 H   0  0  0  0  0  0  0  0  0  0  0  0
   -2.0096   -2.6527    0.1487 H   0  0  0  0  0  0  0  0  0  0  0  0
   -1.1198   -0.7213    0.0000 N   0  0  0  0  0  0  0  0  0  0  0  0
   -1.9939   -0.1868    0.0740 H   0  0  0  0  0  0  0  0  0  0  0  0
    0.0000    0.0000    0.0000 C   0  0  0  0  0  0  0  0  0  0  0  0
    1.1198   -0.5123    0.0000 O   0  0  0  0  0  0  0  0  0  0  0  0
   -0.1169    1.5336    0.0284 C   0  0  0  0  0  0  0  0  0  0  0  0
    0.7208    1.9567   -0.3679 H   0  0  0  0  0  0  0  0  0  0  0  0
   -1.0086    1.9205   -0.4647 H   0  0  0  0  0  0  0  0  0  0  0  0
   -0.2320    1.8893    1.0523 H   0  0  0  0  0  0  0  0  0  0  0  0
  1  5  1  0
  5  6  1  0
  5  9  2  0
  1  2  1  0
  1  3  1  0
  1  4  1  0
  6  7  1  0
  6  8  1  0
 10 14  1  0
 14 16  1  0
 16 17  2  0
 16 18  1  0
 10 11  1  0
 10 12  1  0
 10 13  1  0
 14 15  1  0
 18 19  1  0
 18 20  1  0
 18 21  1  0
M  END
>  <PDB_ID>  (662) 
pdb4rdr

>  <RESIDUE_NAME>  (662) 
ASN   PRO

>  <FRAG_NAME>  (662) 
ACEM   NMA

>  <FRAG_ATOM_NUM>  (662) 
fragi: 9  fragj: 12

>  <atom.prop.CHAIN_ID>  (662) 
A A A A A A A A A Z Z Z Z Z Z Z Z Z Z Z Z

>  <atom.prop.IS_HEAVY_ATOM>  (662) 
1 0 0 0 1 1 0 0 1 1 0 0 0 1 0 1 1 1 0 0 0

>  <DIFUSE_FUNC_ATOM>  (662) 
n/a

>  <FINAL_SINGLE_POINT_ENERGY>  (662) 
0

>  <NONCOV_INTER_ENERGY_QM>  (662) 
0

>  <FF_Energy>  (662) 
3.26

>  <QM_Energy>  (662) 
16.13

>  <source>  (662) 
ACEM_nNMA_46

>  <Index>  (662) 
12372

$$$$
ACEM-pdb4rk0-D-ASN-106:NMA-pdb4rk0-D-ASP-78
     RDKit          3D

 21 19  0  0  0  0  0  0  0  0999 V2000
   -4.9298    2.1015    1.1964 C   0  0  0  0  0  0  0  0  0  0  0  0
   -5.5813    1.4343    1.5621 H   0  0  0  0  0  0  0  0  0  0  0  0
   -5.4165    2.7486    0.6067 H   0  0  0  0  0  0  0  0  0  0  0  0
   -4.5274    2.6640    2.0388 H   0  0  0  0  0  0  0  0  0  0  0  0
   -3.8883    1.3973    0.4078 C   0  0  0  0  0  0  0  0  0  0  0  0
   -2.8744    0.8782    1.1048 N   0  0  0  0  0  0  0  0  0  0  0  0
   -2.8500    0.9692    2.0981 H   0  0  0  0  0  0  0  0  0  0  0  0
   -2.1387    0.3961    0.6272 H   0  0  0  0  0  0  0  0  0  0  0  0
   -3.9447    1.3665   -0.8260 O   0  0  0  0  0  0  0  0  0  0  0  0
   -1.1089   -2.1616    0.2351 C   0  0  0  0  0  0  0  0  0  0  0  0
   -0.4092   -2.3349    0.9539 H   0  0  0  0  0  0  0  0  0  0  0  0
   -0.8185   -2.7703   -0.6211 H   0  0  0  0  0  0  0  0  0  0  0  0
   -2.0993   -2.4701    0.5698 H   0  0  0  0  0  0  0  0  0  0  0  0
   -1.1061   -0.7183   -0.0000 N   0  0  0  0  0  0  0  0  0  0  0  0
   -1.9807   -0.1745   -0.1811 H   0  0  0  0  0  0  0  0  0  0  0  0
    0.0000    0.0000    0.0000 C   0  0  0  0  0  0  0  0  0  0  0  0
    1.1061   -0.5272   -0.0000 O   0  0  0  0  0  0  0  0  0  0  0  0
   -0.1619    1.5228   -0.1577 C   0  0  0  0  0  0  0  0  0  0  0  0
   -1.1401    1.7336    0.0319 H   0  0  0  0  0  0  0  0  0  0  0  0
    0.4313    2.1184    0.5361 H   0  0  0  0  0  0  0  0  0  0  0  0
    0.0798    1.8053   -1.1824 H   0  0  0  0  0  0  0  0  0  0  0  0
  1  5  1  0
  5  6  1  0
  5  9  2  0
  1  2  1  0
  1  3  1  0
  1  4  1  0
  6  7  1  0
  6  8  1  0
 10 14  1  0
 14 16  1  0
 16 17  2  0
 16 18  1  0
 10 11  1  0
 10 12  1  0
 10 13  1  0
 14 15  1  0
 18 19  1  0
 18 20  1  0
 18 21  1  0
M  END
>  <PDB_ID>  (663) 
pdb4rk0

>  <RESIDUE_NAME>  (663) 
ASN   ASP

>  <FRAG_NAME>  (663) 
ACEM   NMA

>  <FRAG_ATOM_NUM>  (663) 
fragi: 9  fragj: 12

>  <atom.prop.CHAIN_ID>  (663) 
A A A A A A A A A Z Z Z Z Z Z Z Z Z Z Z Z

>  <atom.prop.IS_HEAVY_ATOM>  (663) 
1 0 0 0 1 1 0 0 1 1 0 0 0 1 0 1 1 1 0 0 0

>  <DIFUSE_FUNC_ATOM>  (663) 
n/a

>  <FINAL_SINGLE_POINT_ENERGY>  (663) 
0

>  <NONCOV_INTER_ENERGY_QM>  (663) 
0

>  <FF_Energy>  (663) 
17.81

>  <QM_Energy>  (663) 
32.17

>  <source>  (663) 
ACEM_nNMA_46

>  <Index>  (663) 
17896

$$$$
ACEM-pdb4rpt-A-ASN-804:NMA-pdb4rpt-A-ASP-760
     RDKit          3D

 21 19  0  0  0  0  0  0  0  0999 V2000
   -6.2560   -0.6215   -0.4976 C   0  0  0  0  0  0  0  0  0  0  0  0
   -6.7223   -0.9889   -1.2983 H   0  0  0  0  0  0  0  0  0  0  0  0
   -6.8061    0.0994   -0.0827 H   0  0  0  0  0  0  0  0  0  0  0  0
   -6.1304   -1.4233    0.2299 H   0  0  0  0  0  0  0  0  0  0  0  0
   -4.9308   -0.0126   -0.9521 C   0  0  0  0  0  0  0  0  0  0  0  0
   -3.8627   -0.3626   -0.2485 N   0  0  0  0  0  0  0  0  0  0  0  0
   -3.9484   -0.9929    0.5235 H   0  0  0  0  0  0  0  0  0  0  0  0
   -2.9610    0.0053   -0.4903 H   0  0  0  0  0  0  0  0  0  0  0  0
   -4.8656    0.7593   -1.9184 O   0  0  0  0  0  0  0  0  0  0  0  0
   -1.0373   -2.1638   -0.0988 C   0  0  0  0  0  0  0  0  0  0  0  0
   -1.9689   -2.5336   -0.3334 H   0  0  0  0  0  0  0  0  0  0  0  0
   -0.4436   -2.4181   -0.9004 H   0  0  0  0  0  0  0  0  0  0  0  0
   -0.6690   -2.6847    0.7850 H   0  0  0  0  0  0  0  0  0  0  0  0
   -1.1102   -0.7225    0.0000 N   0  0  0  0  0  0  0  0  0  0  0  0
   -1.9875   -0.1876    0.0735 H   0  0  0  0  0  0  0  0  0  0  0  0
    0.0000    0.0000    0.0000 C   0  0  0  0  0  0  0  0  0  0  0  0
    1.1102   -0.5189   -0.0000 O   0  0  0  0  0  0  0  0  0  0  0  0
   -0.1490    1.5242    0.0599 C   0  0  0  0  0  0  0  0  0  0  0  0
   -1.1069    1.7123    0.2712 H   0  0  0  0  0  0  0  0  0  0  0  0
    0.4519    1.9032    0.8865 H   0  0  0  0  0  0  0  0  0  0  0  0
    0.1514    1.9754   -0.8858 H   0  0  0  0  0  0  0  0  0  0  0  0
  1  5  1  0
  5  6  1  0
  5  9  2  0
  1  2  1  0
  1  3  1  0
  1  4  1  0
  6  7  1  0
  6  8  1  0
 10 14  1  0
 14 16  1  0
 16 17  2  0
 16 18  1  0
 10 11  1  0
 10 12  1  0
 10 13  1  0
 14 15  1  0
 18 19  1  0
 18 20  1  0
 18 21  1  0
M  END
>  <PDB_ID>  (664) 
pdb4rpt

>  <RESIDUE_NAME>  (664) 
ASN   ASP

>  <FRAG_NAME>  (664) 
ACEM   NMA

>  <FRAG_ATOM_NUM>  (664) 
fragi: 9  fragj: 12

>  <atom.prop.CHAIN_ID>  (664) 
A A A A A A A A A Z Z Z Z Z Z Z Z Z Z Z Z

>  <atom.prop.IS_HEAVY_ATOM>  (664) 
1 0 0 0 1 1 0 0 1 1 0 0 0 1 0 1 1 1 0 0 0

>  <DIFUSE_FUNC_ATOM>  (664) 
n/a

>  <FINAL_SINGLE_POINT_ENERGY>  (664) 
0

>  <NONCOV_INTER_ENERGY_QM>  (664) 
0

>  <FF_Energy>  (664) 
7.86

>  <QM_Energy>  (664) 
18.38

>  <source>  (664) 
ACEM_nNMA_46

>  <Index>  (664) 
18470

$$$$
ACEM-pdb4rr5-A-ASN-218:NMA-pdb4rr5-A-HIE-87
     RDKit          3D

 21 19  0  0  0  0  0  0  0  0999 V2000
   -6.1783   -0.1202    0.3302 C   0  0  0  0  0  0  0  0  0  0  0  0
   -6.3993   -0.8752    0.9429 H   0  0  0  0  0  0  0  0  0  0  0  0
   -6.3526   -0.3854   -0.6148 H   0  0  0  0  0  0  0  0  0  0  0  0
   -6.8315    0.7178    0.5736 H   0  0  0  0  0  0  0  0  0  0  0  0
   -4.6929    0.2044    0.4763 C   0  0  0  0  0  0  0  0  0  0  0  0
   -3.8251   -0.7773    0.2246 N   0  0  0  0  0  0  0  0  0  0  0  0
   -4.1791   -1.6759   -0.0527 H   0  0  0  0  0  0  0  0  0  0  0  0
   -2.8499   -0.6219    0.3094 H   0  0  0  0  0  0  0  0  0  0  0  0
   -4.3362    1.3379    0.7985 O   0  0  0  0  0  0  0  0  0  0  0  0
   -1.1823   -2.1644    0.0949 C   0  0  0  0  0  0  0  0  0  0  0  0
   -2.1453   -2.4382    0.1534 H   0  0  0  0  0  0  0  0  0  0  0  0
   -0.6840   -2.5002    1.0043 H   0  0  0  0  0  0  0  0  0  0  0  0
   -0.7457   -2.6329   -0.7872 H   0  0  0  0  0  0  0  0  0  0  0  0
   -1.1284   -0.7059   -0.0000 N   0  0  0  0  0  0  0  0  0  0  0  0
   -1.9977   -0.1140   -0.0762 H   0  0  0  0  0  0  0  0  0  0  0  0
    0.0000    0.0000    0.0000 C   0  0  0  0  0  0  0  0  0  0  0  0
    1.1284   -0.5025    0.0000 O   0  0  0  0  0  0  0  0  0  0  0  0
   -0.1822    1.5094   -0.0222 C   0  0  0  0  0  0  0  0  0  0  0  0
   -1.1530    1.7065   -0.2167 H   0  0  0  0  0  0  0  0  0  0  0  0
    0.0777    1.9551    0.9380 H   0  0  0  0  0  0  0  0  0  0  0  0
    0.4067    1.9544   -0.8243 H   0  0  0  0  0  0  0  0  0  0  0  0
  1  5  1  0
  5  6  1  0
  5  9  2  0
  1  2  1  0
  1  3  1  0
  1  4  1  0
  6  7  1  0
  6  8  1  0
 10 14  1  0
 14 16  1  0
 16 17  2  0
 16 18  1  0
 10 11  1  0
 10 12  1  0
 10 13  1  0
 14 15  1  0
 18 19  1  0
 18 20  1  0
 18 21  1  0
M  END
>  <PDB_ID>  (665) 
pdb4rr5

>  <RESIDUE_NAME>  (665) 
ASN   HIE

>  <FRAG_NAME>  (665) 
ACEM   NMA

>  <FRAG_ATOM_NUM>  (665) 
fragi: 9  fragj: 12

>  <atom.prop.CHAIN_ID>  (665) 
A A A A A A A A A Z Z Z Z Z Z Z Z Z Z Z Z

>  <atom.prop.IS_HEAVY_ATOM>  (665) 
1 0 0 0 1 1 0 0 1 1 0 0 0 1 0 1 1 1 0 0 0

>  <DIFUSE_FUNC_ATOM>  (665) 
n/a

>  <FINAL_SINGLE_POINT_ENERGY>  (665) 
0

>  <NONCOV_INTER_ENERGY_QM>  (665) 
0

>  <FF_Energy>  (665) 
9.14

>  <QM_Energy>  (665) 
23.63

>  <source>  (665) 
ACEM_nNMA_46

>  <Index>  (665) 
19786

$$$$
ACEM-pdb3tlq-B-ASN-143:NMA-pdb3tlq-B-ASN-115
     RDKit          3D

 21 19  0  0  0  0  0  0  0  0999 V2000
   -5.3956    1.9015    0.8983 C   0  0  0  0  0  0  0  0  0  0  0  0
   -6.3029    1.6021    0.6197 H   0  0  0  0  0  0  0  0  0  0  0  0
   -5.2365    2.8392    0.6058 H   0  0  0  0  0  0  0  0  0  0  0  0
   -5.3456    1.8712    1.9867 H   0  0  0  0  0  0  0  0  0  0  0  0
   -4.3648    1.0060    0.2488 C   0  0  0  0  0  0  0  0  0  0  0  0
   -3.3358    0.6409    0.9999 N   0  0  0  0  0  0  0  0  0  0  0  0
   -3.2761    0.9550    1.9504 H   0  0  0  0  0  0  0  0  0  0  0  0
   -2.6202    0.0533    0.6238 H   0  0  0  0  0  0  0  0  0  0  0  0
   -4.4972    0.6423   -0.9193 O   0  0  0  0  0  0  0  0  0  0  0  0
   -1.0773   -2.1808    0.1167 C   0  0  0  0  0  0  0  0  0  0  0  0
   -0.5925   -2.4351    0.9712 H   0  0  0  0  0  0  0  0  0  0  0  0
   -0.5897   -2.6659   -0.7289 H   0  0  0  0  0  0  0  0  0  0  0  0
   -2.0700   -2.5934    0.2968 H   0  0  0  0  0  0  0  0  0  0  0  0
   -1.1190   -0.7181    0.0000 N   0  0  0  0  0  0  0  0  0  0  0  0
   -1.9928   -0.1766   -0.0864 H   0  0  0  0  0  0  0  0  0  0  0  0
    0.0000    0.0000    0.0000 C   0  0  0  0  0  0  0  0  0  0  0  0
    1.1190   -0.5018   -0.0000 O   0  0  0  0  0  0  0  0  0  0  0  0
   -0.1594    1.5006    0.0007 C   0  0  0  0  0  0  0  0  0  0  0  0
   -0.7040    1.7420    0.8116 H   0  0  0  0  0  0  0  0  0  0  0  0
    0.8131    1.9808    0.1083 H   0  0  0  0  0  0  0  0  0  0  0  0
   -0.6442    1.8352   -0.9165 H   0  0  0  0  0  0  0  0  0  0  0  0
  1  5  1  0
  5  6  1  0
  5  9  2  0
  1  2  1  0
  1  3  1  0
  1  4  1  0
  6  7  1  0
  6  8  1  0
 10 14  1  0
 14 16  1  0
 16 17  2  0
 16 18  1  0
 10 11  1  0
 10 12  1  0
 10 13  1  0
 14 15  1  0
 18 19  1  0
 18 20  1  0
 18 21  1  0
M  END
>  <PDB_ID>  (666) 
pdb3tlq

>  <RESIDUE_NAME>  (666) 
ASN   ASN

>  <FRAG_NAME>  (666) 
ACEM   NMA

>  <FRAG_ATOM_NUM>  (666) 
fragi: 9  fragj: 12

>  <atom.prop.CHAIN_ID>  (666) 
A A A A A A A A A Z Z Z Z Z Z Z Z Z Z Z Z

>  <atom.prop.IS_HEAVY_ATOM>  (666) 
1 0 0 0 1 1 0 0 1 1 0 0 0 1 0 1 1 1 0 0 0

>  <DIFUSE_FUNC_ATOM>  (666) 
n/a

>  <FINAL_SINGLE_POINT_ENERGY>  (666) 
0

>  <NONCOV_INTER_ENERGY_QM>  (666) 
0

>  <FF_Energy>  (666) 
8.56

>  <QM_Energy>  (666) 
26.82

>  <source>  (666) 
ACEM_nNMA_46

>  <Index>  (666) 
19958

$$$$
ACEM-pdb3tqs-A-GLN-122:NMA-pdb3tqs-A-ASP-91
     RDKit          3D

 21 19  0  0  0  0  0  0  0  0999 V2000
   -5.4677    1.0787   -2.3392 C   0  0  0  0  0  0  0  0  0  0  0  0
   -5.1720    1.3063   -3.2668 H   0  0  0  0  0  0  0  0  0  0  0  0
   -6.1308    1.7580   -2.0239 H   0  0  0  0  0  0  0  0  0  0  0  0
   -5.9397    0.0963   -2.3459 H   0  0  0  0  0  0  0  0  0  0  0  0
   -4.2559    1.1326   -1.4255 C   0  0  0  0  0  0  0  0  0  0  0  0
   -3.6364   -0.0195   -1.2024 N   0  0  0  0  0  0  0  0  0  0  0  0
   -2.8086   -0.0605   -0.6114 H   0  0  0  0  0  0  0  0  0  0  0  0
   -4.0032   -0.8670   -1.6306 H   0  0  0  0  0  0  0  0  0  0  0  0
   -3.8838    2.1945   -0.9229 O   0  0  0  0  0  0  0  0  0  0  0  0
   -1.0762   -2.1760    0.1274 C   0  0  0  0  0  0  0  0  0  0  0  0
   -0.4705   -2.3858    0.9116 H   0  0  0  0  0  0  0  0  0  0  0  0
   -0.6423   -2.6665   -0.7439 H   0  0  0  0  0  0  0  0  0  0  0  0
   -2.0640   -2.5665    0.3716 H   0  0  0  0  0  0  0  0  0  0  0  0
   -1.1156   -0.7215   -0.0000 N   0  0  0  0  0  0  0  0  0  0  0  0
   -1.9913   -0.1774   -0.0959 H   0  0  0  0  0  0  0  0  0  0  0  0
    0.0000    0.0000    0.0000 C   0  0  0  0  0  0  0  0  0  0  0  0
    1.1156   -0.5027    0.0000 O   0  0  0  0  0  0  0  0  0  0  0  0
   -0.1552    1.5122   -0.0182 C   0  0  0  0  0  0  0  0  0  0  0  0
   -1.0975    1.7087   -0.2885 H   0  0  0  0  0  0  0  0  0  0  0  0
   -0.0221    1.8924    0.9946 H   0  0  0  0  0  0  0  0  0  0  0  0
    0.5930    1.9389   -0.6861 H   0  0  0  0  0  0  0  0  0  0  0  0
  1  5  1  0
  5  6  1  0
  5  9  2  0
  1  2  1  0
  1  3  1  0
  1  4  1  0
  6  7  1  0
  6  8  1  0
 10 14  1  0
 14 16  1  0
 16 17  2  0
 16 18  1  0
 10 11  1  0
 10 12  1  0
 10 13  1  0
 14 15  1  0
 18 19  1  0
 18 20  1  0
 18 21  1  0
M  END
>  <PDB_ID>  (667) 
pdb3tqs

>  <RESIDUE_NAME>  (667) 
GLN   ASP

>  <FRAG_NAME>  (667) 
ACEM   NMA

>  <FRAG_ATOM_NUM>  (667) 
fragi: 9  fragj: 12

>  <atom.prop.CHAIN_ID>  (667) 
A A A A A A A A A Z Z Z Z Z Z Z Z Z Z Z Z

>  <atom.prop.IS_HEAVY_ATOM>  (667) 
1 0 0 0 1 1 0 0 1 1 0 0 0 1 0 1 1 1 0 0 0

>  <DIFUSE_FUNC_ATOM>  (667) 
n/a

>  <FINAL_SINGLE_POINT_ENERGY>  (667) 
0

>  <NONCOV_INTER_ENERGY_QM>  (667) 
0

>  <FF_Energy>  (667) 
7.06

>  <QM_Energy>  (667) 
26.15

>  <source>  (667) 
ACEM_nNMA_46

>  <Index>  (667) 
22447

$$$$
ACEM-pdb4rsw-A-ASN-209:NMA-pdb4rsw-B-ASP-155
     RDKit          3D

 21 19  0  0  0  0  0  0  0  0999 V2000
   -5.9583    0.6429    0.9463 C   0  0  0  0  0  0  0  0  0  0  0  0
   -6.6722    0.8991    0.3032 H   0  0  0  0  0  0  0  0  0  0  0  0
   -5.9938    1.2249    1.7530 H   0  0  0  0  0  0  0  0  0  0  0  0
   -6.1279   -0.3879    1.2571 H   0  0  0  0  0  0  0  0  0  0  0  0
   -4.6098    0.8301    0.2725 C   0  0  0  0  0  0  0  0  0  0  0  0
   -3.6871   -0.0960    0.5022 N   0  0  0  0  0  0  0  0  0  0  0  0
   -3.9081   -0.8755    1.0957 H   0  0  0  0  0  0  0  0  0  0  0  0
   -2.7828   -0.0210    0.0905 H   0  0  0  0  0  0  0  0  0  0  0  0
   -4.4093    1.7915   -0.4546 O   0  0  0  0  0  0  0  0  0  0  0  0
   -1.1075   -2.1802    0.2324 C   0  0  0  0  0  0  0  0  0  0  0  0
   -0.2381   -2.4151    0.6986 H   0  0  0  0  0  0  0  0  0  0  0  0
   -1.1697   -2.7583   -0.6895 H   0  0  0  0  0  0  0  0  0  0  0  0
   -1.9335   -2.4970    0.8691 H   0  0  0  0  0  0  0  0  0  0  0  0
   -1.1223   -0.7280   -0.0000 N   0  0  0  0  0  0  0  0  0  0  0  0
   -1.9899   -0.1890   -0.1754 H   0  0  0  0  0  0  0  0  0  0  0  0
    0.0000    0.0000    0.0000 C   0  0  0  0  0  0  0  0  0  0  0  0
    1.1223   -0.5078    0.0000 O   0  0  0  0  0  0  0  0  0  0  0  0
   -0.1541    1.5262    0.0223 C   0  0  0  0  0  0  0  0  0  0  0  0
   -1.1218    1.7181   -0.0847 H   0  0  0  0  0  0  0  0  0  0  0  0
    0.1430    1.8606    1.0163 H   0  0  0  0  0  0  0  0  0  0  0  0
    0.5109    2.0246   -0.6830 H   0  0  0  0  0  0  0  0  0  0  0  0
  1  5  1  0
  5  6  1  0
  5  9  2  0
  1  2  1  0
  1  3  1  0
  1  4  1  0
  6  7  1  0
  6  8  1  0
 10 14  1  0
 14 16  1  0
 16 17  2  0
 16 18  1  0
 10 11  1  0
 10 12  1  0
 10 13  1  0
 14 15  1  0
 18 19  1  0
 18 20  1  0
 18 21  1  0
M  END
>  <PDB_ID>  (668) 
pdb4rsw

>  <RESIDUE_NAME>  (668) 
ASN   ASP

>  <FRAG_NAME>  (668) 
ACEM   NMA

>  <FRAG_ATOM_NUM>  (668) 
fragi: 9  fragj: 12

>  <atom.prop.CHAIN_ID>  (668) 
A A A A A A A A A Z Z Z Z Z Z Z Z Z Z Z Z

>  <atom.prop.IS_HEAVY_ATOM>  (668) 
1 0 0 0 1 1 0 0 1 1 0 0 0 1 0 1 1 1 0 0 0

>  <DIFUSE_FUNC_ATOM>  (668) 
n/a

>  <FINAL_SINGLE_POINT_ENERGY>  (668) 
0

>  <NONCOV_INTER_ENERGY_QM>  (668) 
0

>  <FF_Energy>  (668) 
14.25

>  <QM_Energy>  (668) 
43.32

>  <source>  (668) 
ACEM_nNMA_46

>  <Index>  (668) 
23226

$$$$
ACEM-pdb3tqs-B-GLN-122:NMA-pdb3tqs-B-ASP-91
     RDKit          3D

 21 19  0  0  0  0  0  0  0  0999 V2000
   -5.4806    1.0242   -2.2700 C   0  0  0  0  0  0  0  0  0  0  0  0
   -5.1810    1.2503   -3.1964 H   0  0  0  0  0  0  0  0  0  0  0  0
   -6.1426    1.7026   -1.9560 H   0  0  0  0  0  0  0  0  0  0  0  0
   -5.9559    0.0433   -2.2799 H   0  0  0  0  0  0  0  0  0  0  0  0
   -4.2739    1.0685   -1.3514 C   0  0  0  0  0  0  0  0  0  0  0  0
   -3.6446   -0.0811   -1.1484 N   0  0  0  0  0  0  0  0  0  0  0  0
   -2.8185   -0.1268   -0.5548 H   0  0  0  0  0  0  0  0  0  0  0  0
   -4.0015   -0.9239   -1.5957 H   0  0  0  0  0  0  0  0  0  0  0  0
   -3.9114    2.1246   -0.8338 O   0  0  0  0  0  0  0  0  0  0  0  0
   -1.0773   -2.1731    0.1213 C   0  0  0  0  0  0  0  0  0  0  0  0
   -0.4674   -2.3841    0.9039 H   0  0  0  0  0  0  0  0  0  0  0  0
   -0.6500   -2.6627   -0.7538 H   0  0  0  0  0  0  0  0  0  0  0  0
   -2.0594   -2.5727    0.3737 H   0  0  0  0  0  0  0  0  0  0  0  0
   -1.1162   -0.7185   -0.0000 N   0  0  0  0  0  0  0  0  0  0  0  0
   -1.9909   -0.1741   -0.0906 H   0  0  0  0  0  0  0  0  0  0  0  0
    0.0000    0.0000    0.0000 C   0  0  0  0  0  0  0  0  0  0  0  0
    1.1162   -0.5046    0.0000 O   0  0  0  0  0  0  0  0  0  0  0  0
   -0.1558    1.5155   -0.0062 C   0  0  0  0  0  0  0  0  0  0  0  0
   -1.0982    1.7117   -0.2695 H   0  0  0  0  0  0  0  0  0  0  0  0
   -0.0176    1.8796    1.0119 H   0  0  0  0  0  0  0  0  0  0  0  0
    0.5860    1.9601   -0.6695 H   0  0  0  0  0  0  0  0  0  0  0  0
  1  5  1  0
  5  6  1  0
  5  9  2  0
  1  2  1  0
  1  3  1  0
  1  4  1  0
  6  7  1  0
  6  8  1  0
 10 14  1  0
 14 16  1  0
 16 17  2  0
 16 18  1  0
 10 11  1  0
 10 12  1  0
 10 13  1  0
 14 15  1  0
 18 19  1  0
 18 20  1  0
 18 21  1  0
M  END
>  <PDB_ID>  (669) 
pdb3tqs

>  <RESIDUE_NAME>  (669) 
GLN   ASP

>  <FRAG_NAME>  (669) 
ACEM   NMA

>  <FRAG_ATOM_NUM>  (669) 
fragi: 9  fragj: 12

>  <atom.prop.CHAIN_ID>  (669) 
A A A A A A A A A Z Z Z Z Z Z Z Z Z Z Z Z

>  <atom.prop.IS_HEAVY_ATOM>  (669) 
1 0 0 0 1 1 0 0 1 1 0 0 0 1 0 1 1 1 0 0 0

>  <DIFUSE_FUNC_ATOM>  (669) 
n/a

>  <FINAL_SINGLE_POINT_ENERGY>  (669) 
0

>  <NONCOV_INTER_ENERGY_QM>  (669) 
0

>  <FF_Energy>  (669) 
7.68

>  <QM_Energy>  (669) 
28.5

>  <source>  (669) 
ACEM_nNMA_46

>  <Index>  (669) 
24321

$$$$
ACEM-pdb3tqs-C-GLN-122:NMA-pdb3tqs-C-ASP-91
     RDKit          3D

 21 19  0  0  0  0  0  0  0  0999 V2000
   -5.5176    1.0982   -2.2060 C   0  0  0  0  0  0  0  0  0  0  0  0
   -5.2783    1.4073   -3.1264 H   0  0  0  0  0  0  0  0  0  0  0  0
   -6.1887    1.7231   -1.8072 H   0  0  0  0  0  0  0  0  0  0  0  0
   -5.9536    0.1011   -2.2678 H   0  0  0  0  0  0  0  0  0  0  0  0
   -4.2635    1.1301   -1.3492 C   0  0  0  0  0  0  0  0  0  0  0  0
   -3.6443   -0.0292   -1.1704 N   0  0  0  0  0  0  0  0  0  0  0  0
   -2.7897   -0.0851   -0.6205 H   0  0  0  0  0  0  0  0  0  0  0  0
   -4.0368   -0.8683   -1.5931 H   0  0  0  0  0  0  0  0  0  0  0  0
   -3.8605    2.1841   -0.8472 O   0  0  0  0  0  0  0  0  0  0  0  0
   -1.0620   -2.1747    0.1093 C   0  0  0  0  0  0  0  0  0  0  0  0
   -0.4413   -2.3888    0.8801 H   0  0  0  0  0  0  0  0  0  0  0  0
   -0.6390   -2.6511   -0.7751 H   0  0  0  0  0  0  0  0  0  0  0  0
   -2.0436   -2.5783    0.3579 H   0  0  0  0  0  0  0  0  0  0  0  0
   -1.1139   -0.7181   -0.0000 N   0  0  0  0  0  0  0  0  0  0  0  0
   -1.9900   -0.1798   -0.0809 H   0  0  0  0  0  0  0  0  0  0  0  0
    0.0000    0.0000    0.0000 C   0  0  0  0  0  0  0  0  0  0  0  0
    1.1139   -0.5095   -0.0000 O   0  0  0  0  0  0  0  0  0  0  0  0
   -0.1547    1.5199   -0.0034 C   0  0  0  0  0  0  0  0  0  0  0  0
   -1.0972    1.7167   -0.2674 H   0  0  0  0  0  0  0  0  0  0  0  0
   -0.0169    1.8890    1.0129 H   0  0  0  0  0  0  0  0  0  0  0  0
    0.5899    1.9568   -0.6688 H   0  0  0  0  0  0  0  0  0  0  0  0
  1  5  1  0
  5  6  1  0
  5  9  2  0
  1  2  1  0
  1  3  1  0
  1  4  1  0
  6  7  1  0
  6  8  1  0
 10 14  1  0
 14 16  1  0
 16 17  2  0
 16 18  1  0
 10 11  1  0
 10 12  1  0
 10 13  1  0
 14 15  1  0
 18 19  1  0
 18 20  1  0
 18 21  1  0
M  END
>  <PDB_ID>  (670) 
pdb3tqs

>  <RESIDUE_NAME>  (670) 
GLN   ASP

>  <FRAG_NAME>  (670) 
ACEM   NMA

>  <FRAG_ATOM_NUM>  (670) 
fragi: 9  fragj: 12

>  <atom.prop.CHAIN_ID>  (670) 
A A A A A A A A A Z Z Z Z Z Z Z Z Z Z Z Z

>  <atom.prop.IS_HEAVY_ATOM>  (670) 
1 0 0 0 1 1 0 0 1 1 0 0 0 1 0 1 1 1 0 0 0

>  <DIFUSE_FUNC_ATOM>  (670) 
n/a

>  <FINAL_SINGLE_POINT_ENERGY>  (670) 
0

>  <NONCOV_INTER_ENERGY_QM>  (670) 
0

>  <FF_Energy>  (670) 
6.95

>  <QM_Energy>  (670) 
26.41

>  <source>  (670) 
ACEM_nNMA_46

>  <Index>  (670) 
26109

$$$$
ACEM-pdb3tqs-D-GLN-122:NMA-pdb3tqs-D-ASP-91
     RDKit          3D

 21 19  0  0  0  0  0  0  0  0999 V2000
   -5.4987    0.9904   -2.2234 C   0  0  0  0  0  0  0  0  0  0  0  0
   -5.2180    1.2439   -3.1484 H   0  0  0  0  0  0  0  0  0  0  0  0
   -6.1609    1.6572   -1.8806 H   0  0  0  0  0  0  0  0  0  0  0  0
   -5.9683    0.0071   -2.2526 H   0  0  0  0  0  0  0  0  0  0  0  0
   -4.2796    1.0177   -1.3276 C   0  0  0  0  0  0  0  0  0  0  0  0
   -3.6947   -0.1473   -1.0943 N   0  0  0  0  0  0  0  0  0  0  0  0
   -2.8599   -0.2091   -0.5119 H   0  0  0  0  0  0  0  0  0  0  0  0
   -4.0919   -0.9905   -1.5070 H   0  0  0  0  0  0  0  0  0  0  0  0
   -3.8704    2.0727   -0.8493 O   0  0  0  0  0  0  0  0  0  0  0  0
   -1.0543   -2.1829    0.1031 C   0  0  0  0  0  0  0  0  0  0  0  0
   -0.4367   -2.3965    0.8770 H   0  0  0  0  0  0  0  0  0  0  0  0
   -0.6247   -2.6560   -0.7799 H   0  0  0  0  0  0  0  0  0  0  0  0
   -2.0302   -2.5981    0.3552 H   0  0  0  0  0  0  0  0  0  0  0  0
   -1.1146   -0.7243    0.0000 N   0  0  0  0  0  0  0  0  0  0  0  0
   -1.9916   -0.1900   -0.0754 H   0  0  0  0  0  0  0  0  0  0  0  0
    0.0000    0.0000    0.0000 C   0  0  0  0  0  0  0  0  0  0  0  0
    1.1146   -0.5042   -0.0000 O   0  0  0  0  0  0  0  0  0  0  0  0
   -0.1536    1.5143   -0.0028 C   0  0  0  0  0  0  0  0  0  0  0  0
   -1.0962    1.7124   -0.2566 H   0  0  0  0  0  0  0  0  0  0  0  0
   -0.0080    1.8686    1.0176 H   0  0  0  0  0  0  0  0  0  0  0  0
    0.5964    1.9521   -0.6615 H   0  0  0  0  0  0  0  0  0  0  0  0
  1  5  1  0
  5  6  1  0
  5  9  2  0
  1  2  1  0
  1  3  1  0
  1  4  1  0
  6  7  1  0
  6  8  1  0
 10 14  1  0
 14 16  1  0
 16 17  2  0
 16 18  1  0
 10 11  1  0
 10 12  1  0
 10 13  1  0
 14 15  1  0
 18 19  1  0
 18 20  1  0
 18 21  1  0
M  END
>  <PDB_ID>  (671) 
pdb3tqs

>  <RESIDUE_NAME>  (671) 
GLN   ASP

>  <FRAG_NAME>  (671) 
ACEM   NMA

>  <FRAG_ATOM_NUM>  (671) 
fragi: 9  fragj: 12

>  <atom.prop.CHAIN_ID>  (671) 
A A A A A A A A A Z Z Z Z Z Z Z Z Z Z Z Z

>  <atom.prop.IS_HEAVY_ATOM>  (671) 
1 0 0 0 1 1 0 0 1 1 0 0 0 1 0 1 1 1 0 0 0

>  <DIFUSE_FUNC_ATOM>  (671) 
n/a

>  <FINAL_SINGLE_POINT_ENERGY>  (671) 
0

>  <NONCOV_INTER_ENERGY_QM>  (671) 
0

>  <FF_Energy>  (671) 
6.62

>  <QM_Energy>  (671) 
26.32

>  <source>  (671) 
ACEM_nNMA_46

>  <Index>  (671) 
27949

$$$$
ACEM-pdb3ttq-A-ASN-2047:NMA-pdb3ttq-A-PHE-1976
     RDKit          3D

 21 19  0  0  0  0  0  0  0  0999 V2000
   -5.5547    2.1374   -0.1476 C   0  0  0  0  0  0  0  0  0  0  0  0
   -5.3607    2.8187   -0.8480 H   0  0  0  0  0  0  0  0  0  0  0  0
   -5.9779    2.5696    0.6442 H   0  0  0  0  0  0  0  0  0  0  0  0
   -6.2602    1.4158   -0.5595 H   0  0  0  0  0  0  0  0  0  0  0  0
   -4.2306    1.5070    0.2946 C   0  0  0  0  0  0  0  0  0  0  0  0
   -3.5005    0.9627   -0.6473 N   0  0  0  0  0  0  0  0  0  0  0  0
   -3.8091    0.9752   -1.6032 H   0  0  0  0  0  0  0  0  0  0  0  0
   -2.6223    0.5271   -0.4244 H   0  0  0  0  0  0  0  0  0  0  0  0
   -3.8745    1.5292    1.4936 O   0  0  0  0  0  0  0  0  0  0  0  0
   -1.2029   -2.1220   -0.2948 C   0  0  0  0  0  0  0  0  0  0  0  0
   -0.3021   -2.5152   -0.0893 H   0  0  0  0  0  0  0  0  0  0  0  0
   -1.4462   -2.2597   -1.3483 H   0  0  0  0  0  0  0  0  0  0  0  0
   -1.9799   -2.5497    0.3387 H   0  0  0  0  0  0  0  0  0  0  0  0
   -1.1213   -0.6694    0.0000 N   0  0  0  0  0  0  0  0  0  0  0  0
   -1.9772   -0.1075    0.2258 H   0  0  0  0  0  0  0  0  0  0  0  0
    0.0000    0.0000    0.0000 C   0  0  0  0  0  0  0  0  0  0  0  0
    1.1213   -0.5372   -0.0000 O   0  0  0  0  0  0  0  0  0  0  0  0
   -0.1658    1.5068    0.1464 C   0  0  0  0  0  0  0  0  0  0  0  0
   -0.8640    1.6646    0.8483 H   0  0  0  0  0  0  0  0  0  0  0  0
    0.7496    1.9622    0.5243 H   0  0  0  0  0  0  0  0  0  0  0  0
   -0.4888    1.9419   -0.7994 H   0  0  0  0  0  0  0  0  0  0  0  0
  1  5  1  0
  5  6  1  0
  5  9  2  0
  1  2  1  0
  1  3  1  0
  1  4  1  0
  6  7  1  0
  6  8  1  0
 10 14  1  0
 14 16  1  0
 16 17  2  0
 16 18  1  0
 10 11  1  0
 10 12  1  0
 10 13  1  0
 14 15  1  0
 18 19  1  0
 18 20  1  0
 18 21  1  0
M  END
>  <PDB_ID>  (672) 
pdb3ttq

>  <RESIDUE_NAME>  (672) 
ASN   PHE

>  <FRAG_NAME>  (672) 
ACEM   NMA

>  <FRAG_ATOM_NUM>  (672) 
fragi: 9  fragj: 12

>  <atom.prop.CHAIN_ID>  (672) 
A A A A A A A A A Z Z Z Z Z Z Z Z Z Z Z Z

>  <atom.prop.IS_HEAVY_ATOM>  (672) 
1 0 0 0 1 1 0 0 1 1 0 0 0 1 0 1 1 1 0 0 0

>  <DIFUSE_FUNC_ATOM>  (672) 
n/a

>  <FINAL_SINGLE_POINT_ENERGY>  (672) 
0

>  <NONCOV_INTER_ENERGY_QM>  (672) 
0

>  <FF_Energy>  (672) 
3.54

>  <QM_Energy>  (672) 
14.81

>  <source>  (672) 
ACEM_nNMA_47

>  <Index>  (672) 
904

$$$$
ACEM-pdb4s13-A-GLN-431:NMA-pdb4s13-A-PRO-427
     RDKit          3D

 21 19  0  0  0  0  0  0  0  0999 V2000
   -4.3302   -0.6762    2.7096 C   0  0  0  0  0  0  0  0  0  0  0  0
   -5.0786   -0.3521    3.2799 H   0  0  0  0  0  0  0  0  0  0  0  0
   -3.4647   -0.3056    3.0322 H   0  0  0  0  0  0  0  0  0  0  0  0
   -4.2896   -1.7638    2.7703 H   0  0  0  0  0  0  0  0  0  0  0  0
   -4.5617   -0.2197    1.2949 C   0  0  0  0  0  0  0  0  0  0  0  0
   -3.4874   -0.0875    0.5316 N   0  0  0  0  0  0  0  0  0  0  0  0
   -3.5645    0.2051   -0.4438 H   0  0  0  0  0  0  0  0  0  0  0  0
   -2.5693   -0.2820    0.9319 H   0  0  0  0  0  0  0  0  0  0  0  0
   -5.6975    0.0432    0.8952 O   0  0  0  0  0  0  0  0  0  0  0  0
   -1.1689   -2.1766   -0.0655 C   0  0  0  0  0  0  0  0  0  0  0  0
   -2.1448   -2.4522   -0.1588 H   0  0  0  0  0  0  0  0  0  0  0  0
   -0.7648   -2.6747    0.8158 H   0  0  0  0  0  0  0  0  0  0  0  0
   -0.6406   -2.5665   -0.9356 H   0  0  0  0  0  0  0  0  0  0  0  0
   -1.1222   -0.7143    0.0000 N   0  0  0  0  0  0  0  0  0  0  0  0
   -1.9977   -0.1261    0.0525 H   0  0  0  0  0  0  0  0  0  0  0  0
    0.0000    0.0000    0.0000 C   0  0  0  0  0  0  0  0  0  0  0  0
    1.1222   -0.4955    0.0000 O   0  0  0  0  0  0  0  0  0  0  0  0
   -0.1625    1.5171    0.0807 C   0  0  0  0  0  0  0  0  0  0  0  0
   -1.1034    1.7603    0.3518 H   0  0  0  0  0  0  0  0  0  0  0  0
    0.5622    1.9619    0.7627 H   0  0  0  0  0  0  0  0  0  0  0  0
    0.0639    1.9954   -0.8721 H   0  0  0  0  0  0  0  0  0  0  0  0
  1  5  1  0
  5  6  1  0
  5  9  2  0
  1  2  1  0
  1  3  1  0
  1  4  1  0
  6  7  1  0
  6  8  1  0
 10 14  1  0
 14 16  1  0
 16 17  2  0
 16 18  1  0
 10 11  1  0
 10 12  1  0
 10 13  1  0
 14 15  1  0
 18 19  1  0
 18 20  1  0
 18 21  1  0
M  END
>  <PDB_ID>  (673) 
pdb4s13

>  <RESIDUE_NAME>  (673) 
GLN   PRO

>  <FRAG_NAME>  (673) 
ACEM   NMA

>  <FRAG_ATOM_NUM>  (673) 
fragi: 9  fragj: 12

>  <atom.prop.CHAIN_ID>  (673) 
A A A A A A A A A Z Z Z Z Z Z Z Z Z Z Z Z

>  <atom.prop.IS_HEAVY_ATOM>  (673) 
1 0 0 0 1 1 0 0 1 1 0 0 0 1 0 1 1 1 0 0 0

>  <DIFUSE_FUNC_ATOM>  (673) 
n/a

>  <FINAL_SINGLE_POINT_ENERGY>  (673) 
0

>  <NONCOV_INTER_ENERGY_QM>  (673) 
0

>  <FF_Energy>  (673) 
22.76

>  <QM_Energy>  (673) 
35.25

>  <source>  (673) 
ACEM_nNMA_47

>  <Index>  (673) 
2844

$$$$
ACEM-pdb4ru4-C-GLN-186:NMA-pdb4ru4-C-VAL-182
     RDKit          3D

 21 19  0  0  0  0  0  0  0  0999 V2000
   -5.3129   -0.1142    0.7177 C   0  0  0  0  0  0  0  0  0  0  0  0
   -6.2358    0.0350    1.0707 H   0  0  0  0  0  0  0  0  0  0  0  0
   -4.9332   -0.9497    1.1125 H   0  0  0  0  0  0  0  0  0  0  0  0
   -5.3683   -0.2334   -0.3643 H   0  0  0  0  0  0  0  0  0  0  0  0
   -4.4407    1.0590    1.1350 C   0  0  0  0  0  0  0  0  0  0  0  0
   -3.1249    0.8797    1.0419 N   0  0  0  0  0  0  0  0  0  0  0  0
   -2.4802    1.6239    1.2901 H   0  0  0  0  0  0  0  0  0  0  0  0
   -2.7743   -0.0187    0.7166 H   0  0  0  0  0  0  0  0  0  0  0  0
   -4.9407    2.1124    1.5401 O   0  0  0  0  0  0  0  0  0  0  0  0
   -1.1020   -2.1753   -0.0081 C   0  0  0  0  0  0  0  0  0  0  0  0
   -0.1457   -2.4813   -0.0449 H   0  0  0  0  0  0  0  0  0  0  0  0
   -1.6190   -2.5536   -0.8899 H   0  0  0  0  0  0  0  0  0  0  0  0
   -1.5740   -2.5921    0.8816 H   0  0  0  0  0  0  0  0  0  0  0  0
   -1.1221   -0.7176    0.0000 N   0  0  0  0  0  0  0  0  0  0  0  0
   -1.9961   -0.1560    0.0061 H   0  0  0  0  0  0  0  0  0  0  0  0
    0.0000    0.0000    0.0000 C   0  0  0  0  0  0  0  0  0  0  0  0
    1.1221   -0.5134   -0.0000 O   0  0  0  0  0  0  0  0  0  0  0  0
   -0.1638    1.5249    0.0062 C   0  0  0  0  0  0  0  0  0  0  0  0
   -1.0003    1.7446    0.5344 H   0  0  0  0  0  0  0  0  0  0  0  0
    0.6719    2.0434    0.4761 H   0  0  0  0  0  0  0  0  0  0  0  0
   -0.3645    1.8740   -1.0067 H   0  0  0  0  0  0  0  0  0  0  0  0
  1  5  1  0
  5  6  1  0
  5  9  2  0
  1  2  1  0
  1  3  1  0
  1  4  1  0
  6  7  1  0
  6  8  1  0
 10 14  1  0
 14 16  1  0
 16 17  2  0
 16 18  1  0
 10 11  1  0
 10 12  1  0
 10 13  1  0
 14 15  1  0
 18 19  1  0
 18 20  1  0
 18 21  1  0
M  END
>  <PDB_ID>  (674) 
pdb4ru4

>  <RESIDUE_NAME>  (674) 
GLN   VAL

>  <FRAG_NAME>  (674) 
ACEM   NMA

>  <FRAG_ATOM_NUM>  (674) 
fragi: 9  fragj: 12

>  <atom.prop.CHAIN_ID>  (674) 
A A A A A A A A A Z Z Z Z Z Z Z Z Z Z Z Z

>  <atom.prop.IS_HEAVY_ATOM>  (674) 
1 0 0 0 1 1 0 0 1 1 0 0 0 1 0 1 1 1 0 0 0

>  <DIFUSE_FUNC_ATOM>  (674) 
n/a

>  <FINAL_SINGLE_POINT_ENERGY>  (674) 
0

>  <NONCOV_INTER_ENERGY_QM>  (674) 
0

>  <FF_Energy>  (674) 
12.55

>  <QM_Energy>  (674) 
26.2

>  <source>  (674) 
ACEM_nNMA_47

>  <Index>  (674) 
2986

$$$$
ACEM-pdb3ts3-D-GLN-602:NMA-pdb3ts3-D-ALA-599
     RDKit          3D

 21 19  0  0  0  0  0  0  0  0999 V2000
   -6.2789   -0.1490   -0.7541 C   0  0  0  0  0  0  0  0  0  0  0  0
   -6.4425    0.3684   -1.5976 H   0  0  0  0  0  0  0  0  0  0  0  0
   -7.0050    0.0634   -0.0956 H   0  0  0  0  0  0  0  0  0  0  0  0
   -6.3023   -1.2153   -0.9793 H   0  0  0  0  0  0  0  0  0  0  0  0
   -4.9638    0.2874   -0.1734 C   0  0  0  0  0  0  0  0  0  0  0  0
   -3.9663   -0.5792   -0.2594 N   0  0  0  0  0  0  0  0  0  0  0  0
   -3.0366   -0.3516    0.0996 H   0  0  0  0  0  0  0  0  0  0  0  0
   -4.1352   -1.4871   -0.6913 H   0  0  0  0  0  0  0  0  0  0  0  0
   -4.8392    1.3877    0.3469 O   0  0  0  0  0  0  0  0  0  0  0  0
   -1.1110   -2.1573   -0.0768 C   0  0  0  0  0  0  0  0  0  0  0  0
   -0.1616   -2.4717   -0.0379 H   0  0  0  0  0  0  0  0  0  0  0  0
   -1.5234   -2.4681   -1.0367 H   0  0  0  0  0  0  0  0  0  0  0  0
   -1.6642   -2.6013    0.7509 H   0  0  0  0  0  0  0  0  0  0  0  0
   -1.1166   -0.7088   -0.0000 N   0  0  0  0  0  0  0  0  0  0  0  0
   -1.9916   -0.1414    0.0593 H   0  0  0  0  0  0  0  0  0  0  0  0
    0.0000    0.0000    0.0000 C   0  0  0  0  0  0  0  0  0  0  0  0
    1.1166   -0.5072    0.0000 O   0  0  0  0  0  0  0  0  0  0  0  0
   -0.1628    1.5045    0.0547 C   0  0  0  0  0  0  0  0  0  0  0  0
    0.6664    1.9378   -0.3485 H   0  0  0  0  0  0  0  0  0  0  0  0
   -1.0357    1.8689   -0.4870 H   0  0  0  0  0  0  0  0  0  0  0  0
   -0.1772    1.8414    1.0912 H   0  0  0  0  0  0  0  0  0  0  0  0
  1  5  1  0
  5  6  1  0
  5  9  2  0
  1  2  1  0
  1  3  1  0
  1  4  1  0
  6  7  1  0
  6  8  1  0
 10 14  1  0
 14 16  1  0
 16 17  2  0
 16 18  1  0
 10 11  1  0
 10 12  1  0
 10 13  1  0
 14 15  1  0
 18 19  1  0
 18 20  1  0
 18 21  1  0
M  END
>  <PDB_ID>  (675) 
pdb3ts3

>  <RESIDUE_NAME>  (675) 
GLN   ALA

>  <FRAG_NAME>  (675) 
ACEM   NMA

>  <FRAG_ATOM_NUM>  (675) 
fragi: 9  fragj: 12

>  <atom.prop.CHAIN_ID>  (675) 
A A A A A A A A A Z Z Z Z Z Z Z Z Z Z Z Z

>  <atom.prop.IS_HEAVY_ATOM>  (675) 
1 0 0 0 1 1 0 0 1 1 0 0 0 1 0 1 1 1 0 0 0

>  <DIFUSE_FUNC_ATOM>  (675) 
n/a

>  <FINAL_SINGLE_POINT_ENERGY>  (675) 
0

>  <NONCOV_INTER_ENERGY_QM>  (675) 
0

>  <FF_Energy>  (675) 
6.28

>  <QM_Energy>  (675) 
20.16

>  <source>  (675) 
ACEM_nNMA_47

>  <Index>  (675) 
3585

$$$$
ACEM-pdb4toq-A-GLN-191:NMA-pdb4toq-A-ASN-184
     RDKit          3D

 21 19  0  0  0  0  0  0  0  0999 V2000
   -6.0007   -0.7817   -0.7574 C   0  0  0  0  0  0  0  0  0  0  0  0
   -5.9639   -1.7641   -0.9361 H   0  0  0  0  0  0  0  0  0  0  0  0
   -6.5667   -0.3364   -1.4504 H   0  0  0  0  0  0  0  0  0  0  0  0
   -6.4558   -0.6214    0.2200 H   0  0  0  0  0  0  0  0  0  0  0  0
   -4.6076   -0.2216   -0.8326 C   0  0  0  0  0  0  0  0  0  0  0  0
   -3.8836   -0.2910    0.2785 N   0  0  0  0  0  0  0  0  0  0  0  0
   -2.9234    0.0554    0.3037 H   0  0  0  0  0  0  0  0  0  0  0  0
   -4.3009   -0.6975    1.1139 H   0  0  0  0  0  0  0  0  0  0  0  0
   -4.1838    0.2712   -1.8784 O   0  0  0  0  0  0  0  0  0  0  0  0
   -1.1446   -2.1595   -0.0067 C   0  0  0  0  0  0  0  0  0  0  0  0
   -0.2176   -2.4649   -0.2496 H   0  0  0  0  0  0  0  0  0  0  0  0
   -1.8183   -2.5394   -0.7746 H   0  0  0  0  0  0  0  0  0  0  0  0
   -1.4444   -2.5435    0.9684 H   0  0  0  0  0  0  0  0  0  0  0  0
   -1.1290   -0.6990   -0.0000 N   0  0  0  0  0  0  0  0  0  0  0  0
   -1.9974   -0.1203    0.0049 H   0  0  0  0  0  0  0  0  0  0  0  0
    0.0000    0.0000    0.0000 C   0  0  0  0  0  0  0  0  0  0  0  0
    1.1290   -0.5196    0.0000 O   0  0  0  0  0  0  0  0  0  0  0  0
   -0.1425    1.5191   -0.0213 C   0  0  0  0  0  0  0  0  0  0  0  0
    0.0866    1.8243   -0.9746 H   0  0  0  0  0  0  0  0  0  0  0  0
   -1.1299    1.9203    0.2066 H   0  0  0  0  0  0  0  0  0  0  0  0
    0.6273    1.9907    0.5896 H   0  0  0  0  0  0  0  0  0  0  0  0
  1  5  1  0
  5  6  1  0
  5  9  2  0
  1  2  1  0
  1  3  1  0
  1  4  1  0
  6  7  1  0
  6  8  1  0
 10 14  1  0
 14 16  1  0
 16 17  2  0
 16 18  1  0
 10 11  1  0
 10 12  1  0
 10 13  1  0
 14 15  1  0
 18 19  1  0
 18 20  1  0
 18 21  1  0
M  END
>  <PDB_ID>  (676) 
pdb4toq

>  <RESIDUE_NAME>  (676) 
GLN   ASN

>  <FRAG_NAME>  (676) 
ACEM   NMA

>  <FRAG_ATOM_NUM>  (676) 
fragi: 9  fragj: 12

>  <atom.prop.CHAIN_ID>  (676) 
A A A A A A A A A Z Z Z Z Z Z Z Z Z Z Z Z

>  <atom.prop.IS_HEAVY_ATOM>  (676) 
1 0 0 0 1 1 0 0 1 1 0 0 0 1 0 1 1 1 0 0 0

>  <DIFUSE_FUNC_ATOM>  (676) 
n/a

>  <FINAL_SINGLE_POINT_ENERGY>  (676) 
0

>  <NONCOV_INTER_ENERGY_QM>  (676) 
0

>  <FF_Energy>  (676) 
10.47

>  <QM_Energy>  (676) 
26.77

>  <source>  (676) 
ACEM_nNMA_47

>  <Index>  (676) 
6358

$$$$
ACEM-pdb4tr9-A-GLN-185:NMA-pdb4tr9-A-VAL-228
     RDKit          3D

 21 19  0  0  0  0  0  0  0  0999 V2000
   -4.9354    1.0992   -2.6711 C   0  0  0  0  0  0  0  0  0  0  0  0
   -5.4088    0.4337   -3.2501 H   0  0  0  0  0  0  0  0  0  0  0  0
   -4.6214    1.8638   -3.2363 H   0  0  0  0  0  0  0  0  0  0  0  0
   -5.6382    1.4783   -1.9292 H   0  0  0  0  0  0  0  0  0  0  0  0
   -3.7282    0.4275   -2.0520 C   0  0  0  0  0  0  0  0  0  0  0  0
   -3.4326    0.7756   -0.8044 N   0  0  0  0  0  0  0  0  0  0  0  0
   -2.6437    0.3573   -0.3174 H   0  0  0  0  0  0  0  0  0  0  0  0
   -4.0098    1.4748   -0.3387 H   0  0  0  0  0  0  0  0  0  0  0  0
   -3.0631   -0.3910   -2.6874 O   0  0  0  0  0  0  0  0  0  0  0  0
   -1.1118   -2.1662   -0.0579 C   0  0  0  0  0  0  0  0  0  0  0  0
   -0.5009   -2.5134    0.6586 H   0  0  0  0  0  0  0  0  0  0  0  0
   -0.7347   -2.5020   -1.0240 H   0  0  0  0  0  0  0  0  0  0  0  0
   -2.1122   -2.5615    0.1176 H   0  0  0  0  0  0  0  0  0  0  0  0
   -1.1217   -0.7121   -0.0000 N   0  0  0  0  0  0  0  0  0  0  0  0
   -1.9951   -0.1465    0.0440 H   0  0  0  0  0  0  0  0  0  0  0  0
    0.0000    0.0000    0.0000 C   0  0  0  0  0  0  0  0  0  0  0  0
    1.1217   -0.5062    0.0000 O   0  0  0  0  0  0  0  0  0  0  0  0
   -0.1756    1.5128    0.0158 C   0  0  0  0  0  0  0  0  0  0  0  0
   -1.1549    1.7099    0.1493 H   0  0  0  0  0  0  0  0  0  0  0  0
    0.3777    1.9661    0.8383 H   0  0  0  0  0  0  0  0  0  0  0  0
    0.1313    1.9275   -0.9444 H   0  0  0  0  0  0  0  0  0  0  0  0
  1  5  1  0
  5  6  1  0
  5  9  2  0
  1  2  1  0
  1  3  1  0
  1  4  1  0
  6  7  1  0
  6  8  1  0
 10 14  1  0
 14 16  1  0
 16 17  2  0
 16 18  1  0
 10 11  1  0
 10 12  1  0
 10 13  1  0
 14 15  1  0
 18 19  1  0
 18 20  1  0
 18 21  1  0
M  END
>  <PDB_ID>  (677) 
pdb4tr9

>  <RESIDUE_NAME>  (677) 
GLN   VAL

>  <FRAG_NAME>  (677) 
ACEM   NMA

>  <FRAG_ATOM_NUM>  (677) 
fragi: 9  fragj: 12

>  <atom.prop.CHAIN_ID>  (677) 
A A A A A A A A A Z Z Z Z Z Z Z Z Z Z Z Z

>  <atom.prop.IS_HEAVY_ATOM>  (677) 
1 0 0 0 1 1 0 0 1 1 0 0 0 1 0 1 1 1 0 0 0

>  <DIFUSE_FUNC_ATOM>  (677) 
n/a

>  <FINAL_SINGLE_POINT_ENERGY>  (677) 
0

>  <NONCOV_INTER_ENERGY_QM>  (677) 
0

>  <FF_Energy>  (677) 
15.28

>  <QM_Energy>  (677) 
35.39

>  <source>  (677) 
ACEM_nNMA_47

>  <Index>  (677) 
9030

$$$$
ACEM-pdb3u1k-A-GLN-632:NMA-pdb3u1k-A-THR-638
     RDKit          3D

 21 19  0  0  0  0  0  0  0  0999 V2000
   -3.9967    1.8378    0.9830 C   0  0  0  0  0  0  0  0  0  0  0  0
   -3.0170    1.8496    1.1930 H   0  0  0  0  0  0  0  0  0  0  0  0
   -4.4484    1.1551    1.5608 H   0  0  0  0  0  0  0  0  0  0  0  0
   -4.4115    2.8174    1.2203 H   0  0  0  0  0  0  0  0  0  0  0  0
   -4.1738    1.4325   -0.4774 C   0  0  0  0  0  0  0  0  0  0  0  0
   -3.5916    0.2984   -0.8619 N   0  0  0  0  0  0  0  0  0  0  0  0
   -3.6801   -0.0359   -1.8105 H   0  0  0  0  0  0  0  0  0  0  0  0
   -3.0512   -0.2286   -0.1755 H   0  0  0  0  0  0  0  0  0  0  0  0
   -4.8237    2.1400   -1.2474 O   0  0  0  0  0  0  0  0  0  0  0  0
   -1.1198   -2.1637   -0.0172 C   0  0  0  0  0  0  0  0  0  0  0  0
   -0.1731   -2.4467    0.1622 H   0  0  0  0  0  0  0  0  0  0  0  0
   -1.3714   -2.5445   -1.0070 H   0  0  0  0  0  0  0  0  0  0  0  0
   -1.8206   -2.5687    0.7130 H   0  0  0  0  0  0  0  0  0  0  0  0
   -1.1273   -0.7064    0.0000 N   0  0  0  0  0  0  0  0  0  0  0  0
   -1.9971   -0.1380    0.0137 H   0  0  0  0  0  0  0  0  0  0  0  0
    0.0000    0.0000    0.0000 C   0  0  0  0  0  0  0  0  0  0  0  0
    1.1273   -0.5173   -0.0000 O   0  0  0  0  0  0  0  0  0  0  0  0
   -0.1662    1.5164    0.0268 C   0  0  0  0  0  0  0  0  0  0  0  0
   -1.1419    1.7260   -0.0226 H   0  0  0  0  0  0  0  0  0  0  0  0
    0.2286    1.8961    0.9691 H   0  0  0  0  0  0  0  0  0  0  0  0
    0.3506    1.9588   -0.8249 H   0  0  0  0  0  0  0  0  0  0  0  0
  1  5  1  0
  5  6  1  0
  5  9  2  0
  1  2  1  0
  1  3  1  0
  1  4  1  0
  6  7  1  0
  6  8  1  0
 10 14  1  0
 14 16  1  0
 16 17  2  0
 16 18  1  0
 10 11  1  0
 10 12  1  0
 10 13  1  0
 14 15  1  0
 18 19  1  0
 18 20  1  0
 18 21  1  0
M  END
>  <PDB_ID>  (678) 
pdb3u1k

>  <RESIDUE_NAME>  (678) 
GLN   THR

>  <FRAG_NAME>  (678) 
ACEM   NMA

>  <FRAG_ATOM_NUM>  (678) 
fragi: 9  fragj: 12

>  <atom.prop.CHAIN_ID>  (678) 
A A A A A A A A A Z Z Z Z Z Z Z Z Z Z Z Z

>  <atom.prop.IS_HEAVY_ATOM>  (678) 
1 0 0 0 1 1 0 0 1 1 0 0 0 1 0 1 1 1 0 0 0

>  <DIFUSE_FUNC_ATOM>  (678) 
n/a

>  <FINAL_SINGLE_POINT_ENERGY>  (678) 
0

>  <NONCOV_INTER_ENERGY_QM>  (678) 
0

>  <FF_Energy>  (678) 
7.85

>  <QM_Energy>  (678) 
22.15

>  <source>  (678) 
ACEM_nNMA_47

>  <Index>  (678) 
11542

$$$$
ACEM-pdb3u37-A-GLN-105:NMA-pdb3u37-A-GLN-186
     RDKit          3D

 21 19  0  0  0  0  0  0  0  0999 V2000
   -5.3541    2.2072    0.8397 C   0  0  0  0  0  0  0  0  0  0  0  0
   -6.1315    1.6747    1.2076 H   0  0  0  0  0  0  0  0  0  0  0  0
   -5.7071    2.7886    0.0902 H   0  0  0  0  0  0  0  0  0  0  0  0
   -4.9727    2.8543    1.6295 H   0  0  0  0  0  0  0  0  0  0  0  0
   -4.3469    1.2306    0.2504 C   0  0  0  0  0  0  0  0  0  0  0  0
   -3.4030    0.7873    1.0461 N   0  0  0  0  0  0  0  0  0  0  0  0
   -2.7044    0.1218    0.7255 H   0  0  0  0  0  0  0  0  0  0  0  0
   -3.3714    1.1230    2.0148 H   0  0  0  0  0  0  0  0  0  0  0  0
   -4.4344    0.8881   -0.9260 O   0  0  0  0  0  0  0  0  0  0  0  0
   -1.1327   -2.1741    0.0521 C   0  0  0  0  0  0  0  0  0  0  0  0
   -0.7195   -2.4763    0.9184 H   0  0  0  0  0  0  0  0  0  0  0  0
   -2.0818   -2.5067    0.0208 H   0  0  0  0  0  0  0  0  0  0  0  0
   -0.5721   -2.5898   -0.7851 H   0  0  0  0  0  0  0  0  0  0  0  0
   -1.1311   -0.7130    0.0000 N   0  0  0  0  0  0  0  0  0  0  0  0
   -2.0007   -0.1415   -0.0398 H   0  0  0  0  0  0  0  0  0  0  0  0
    0.0000    0.0000    0.0000 C   0  0  0  0  0  0  0  0  0  0  0  0
    1.1311   -0.5000   -0.0000 O   0  0  0  0  0  0  0  0  0  0  0  0
   -0.1702    1.5001    0.0141 C   0  0  0  0  0  0  0  0  0  0  0  0
   -1.1530    1.7027    0.0544 H   0  0  0  0  0  0  0  0  0  0  0  0
    0.2953    1.9139    0.9087 H   0  0  0  0  0  0  0  0  0  0  0  0
    0.2560    1.9553   -0.8799 H   0  0  0  0  0  0  0  0  0  0  0  0
  1  5  1  0
  5  6  1  0
  5  9  2  0
  1  2  1  0
  1  3  1  0
  1  4  1  0
  6  7  1  0
  6  8  1  0
 10 14  1  0
 14 16  1  0
 16 17  2  0
 16 18  1  0
 10 11  1  0
 10 12  1  0
 10 13  1  0
 14 15  1  0
 18 19  1  0
 18 20  1  0
 18 21  1  0
M  END
>  <PDB_ID>  (679) 
pdb3u37

>  <RESIDUE_NAME>  (679) 
GLN   GLN

>  <FRAG_NAME>  (679) 
ACEM   NMA

>  <FRAG_ATOM_NUM>  (679) 
fragi: 9  fragj: 12

>  <atom.prop.CHAIN_ID>  (679) 
A A A A A A A A A Z Z Z Z Z Z Z Z Z Z Z Z

>  <atom.prop.IS_HEAVY_ATOM>  (679) 
1 0 0 0 1 1 0 0 1 1 0 0 0 1 0 1 1 1 0 0 0

>  <DIFUSE_FUNC_ATOM>  (679) 
n/a

>  <FINAL_SINGLE_POINT_ENERGY>  (679) 
0

>  <NONCOV_INTER_ENERGY_QM>  (679) 
0

>  <FF_Energy>  (679) 
5.79

>  <QM_Energy>  (679) 
17.8

>  <source>  (679) 
ACEM_nNMA_47

>  <Index>  (679) 
11675

$$$$
ACEM-pdb4toq-D-GLN-191:NMA-pdb4toq-D-ASN-184
     RDKit          3D

 21 19  0  0  0  0  0  0  0  0999 V2000
   -6.0089   -0.7929   -0.1141 C   0  0  0  0  0  0  0  0  0  0  0  0
   -6.0250   -1.7558   -0.3731 H   0  0  0  0  0  0  0  0  0  0  0  0
   -6.6651   -0.2819   -0.6649 H   0  0  0  0  0  0  0  0  0  0  0  0
   -6.2943   -0.7093    0.9346 H   0  0  0  0  0  0  0  0  0  0  0  0
   -4.6216   -0.2433   -0.3729 C   0  0  0  0  0  0  0  0  0  0  0  0
   -3.8021   -0.1923    0.6637 N   0  0  0  0  0  0  0  0  0  0  0  0
   -2.8487    0.1520    0.5645 H   0  0  0  0  0  0  0  0  0  0  0  0
   -4.1387   -0.5047    1.5754 H   0  0  0  0  0  0  0  0  0  0  0  0
   -4.2911    0.1277   -1.4976 O   0  0  0  0  0  0  0  0  0  0  0  0
   -1.1263   -2.1833   -0.0531 C   0  0  0  0  0  0  0  0  0  0  0  0
   -0.2236   -2.4687   -0.3931 H   0  0  0  0  0  0  0  0  0  0  0  0
   -1.8662   -2.5512   -0.7640 H   0  0  0  0  0  0  0  0  0  0  0  0
   -1.3415   -2.6030    0.9296 H   0  0  0  0  0  0  0  0  0  0  0  0
   -1.1224   -0.7172   -0.0000 N   0  0  0  0  0  0  0  0  0  0  0  0
   -1.9974   -0.1502    0.0413 H   0  0  0  0  0  0  0  0  0  0  0  0
    0.0000    0.0000    0.0000 C   0  0  0  0  0  0  0  0  0  0  0  0
    1.1224   -0.5074    0.0000 O   0  0  0  0  0  0  0  0  0  0  0  0
   -0.1574    1.5267   -0.0173 C   0  0  0  0  0  0  0  0  0  0  0  0
   -0.1084    1.8145   -0.9967 H   0  0  0  0  0  0  0  0  0  0  0  0
   -1.1000    1.9057    0.3776 H   0  0  0  0  0  0  0  0  0  0  0  0
    0.6929    1.9937    0.4797 H   0  0  0  0  0  0  0  0  0  0  0  0
  1  5  1  0
  5  6  1  0
  5  9  2  0
  1  2  1  0
  1  3  1  0
  1  4  1  0
  6  7  1  0
  6  8  1  0
 10 14  1  0
 14 16  1  0
 16 17  2  0
 16 18  1  0
 10 11  1  0
 10 12  1  0
 10 13  1  0
 14 15  1  0
 18 19  1  0
 18 20  1  0
 18 21  1  0
M  END
>  <PDB_ID>  (680) 
pdb4toq

>  <RESIDUE_NAME>  (680) 
GLN   ASN

>  <FRAG_NAME>  (680) 
ACEM   NMA

>  <FRAG_ATOM_NUM>  (680) 
fragi: 9  fragj: 12

>  <atom.prop.CHAIN_ID>  (680) 
A A A A A A A A A Z Z Z Z Z Z Z Z Z Z Z Z

>  <atom.prop.IS_HEAVY_ATOM>  (680) 
1 0 0 0 1 1 0 0 1 1 0 0 0 1 0 1 1 1 0 0 0

>  <DIFUSE_FUNC_ATOM>  (680) 
n/a

>  <FINAL_SINGLE_POINT_ENERGY>  (680) 
0

>  <NONCOV_INTER_ENERGY_QM>  (680) 
0

>  <FF_Energy>  (680) 
8.84

>  <QM_Energy>  (680) 
22.39

>  <source>  (680) 
ACEM_nNMA_47

>  <Index>  (680) 
12781

$$$$
ACEM-pdb4ucf-C-ASN-332:NMA-pdb4ucf-C-TRP-328
     RDKit          3D

 21 19  0  0  0  0  0  0  0  0999 V2000
   -6.2388   -0.4191   -0.7975 C   0  0  0  0  0  0  0  0  0  0  0  0
   -6.6699   -0.2049   -1.6668 H   0  0  0  0  0  0  0  0  0  0  0  0
   -6.6226    0.1422   -0.0713 H   0  0  0  0  0  0  0  0  0  0  0  0
   -6.4103   -1.4698   -0.5636 H   0  0  0  0  0  0  0  0  0  0  0  0
   -4.7429   -0.0805   -0.9157 C   0  0  0  0  0  0  0  0  0  0  0  0
   -4.0245   -0.2854    0.1717 N   0  0  0  0  0  0  0  0  0  0  0  0
   -4.4465   -0.6435    1.0051 H   0  0  0  0  0  0  0  0  0  0  0  0
   -3.0393   -0.0800    0.1707 H   0  0  0  0  0  0  0  0  0  0  0  0
   -4.2328    0.3235   -1.9930 O   0  0  0  0  0  0  0  0  0  0  0  0
   -1.1094   -2.1500   -0.0750 C   0  0  0  0  0  0  0  0  0  0  0  0
   -0.2252   -2.4937    0.2477 H   0  0  0  0  0  0  0  0  0  0  0  0
   -1.2406   -2.4582   -1.1122 H   0  0  0  0  0  0  0  0  0  0  0  0
   -1.9181   -2.5870    0.5108 H   0  0  0  0  0  0  0  0  0  0  0  0
   -1.1203   -0.7096    0.0000 N   0  0  0  0  0  0  0  0  0  0  0  0
   -1.9921   -0.1402    0.0581 H   0  0  0  0  0  0  0  0  0  0  0  0
    0.0000    0.0000    0.0000 C   0  0  0  0  0  0  0  0  0  0  0  0
    1.1203   -0.5241   -0.0000 O   0  0  0  0  0  0  0  0  0  0  0  0
   -0.1142    1.5336   -0.0716 C   0  0  0  0  0  0  0  0  0  0  0  0
    0.2613    1.8131   -0.9961 H   0  0  0  0  0  0  0  0  0  0  0  0
   -1.0994    1.9882    0.0333 H   0  0  0  0  0  0  0  0  0  0  0  0
    0.5849    1.9856    0.6320 H   0  0  0  0  0  0  0  0  0  0  0  0
  1  5  1  0
  5  6  1  0
  5  9  2  0
  1  2  1  0
  1  3  1  0
  1  4  1  0
  6  7  1  0
  6  8  1  0
 10 14  1  0
 14 16  1  0
 16 17  2  0
 16 18  1  0
 10 11  1  0
 10 12  1  0
 10 13  1  0
 14 15  1  0
 18 19  1  0
 18 20  1  0
 18 21  1  0
M  END
>  <PDB_ID>  (681) 
pdb4ucf

>  <RESIDUE_NAME>  (681) 
ASN   TRP

>  <FRAG_NAME>  (681) 
ACEM   NMA

>  <FRAG_ATOM_NUM>  (681) 
fragi: 9  fragj: 12

>  <atom.prop.CHAIN_ID>  (681) 
A A A A A A A A A Z Z Z Z Z Z Z Z Z Z Z Z

>  <atom.prop.IS_HEAVY_ATOM>  (681) 
1 0 0 0 1 1 0 0 1 1 0 0 0 1 0 1 1 1 0 0 0

>  <DIFUSE_FUNC_ATOM>  (681) 
n/a

>  <FINAL_SINGLE_POINT_ENERGY>  (681) 
0

>  <NONCOV_INTER_ENERGY_QM>  (681) 
0

>  <FF_Energy>  (681) 
6.85

>  <QM_Energy>  (681) 
20.48

>  <source>  (681) 
ACEM_nNMA_48

>  <Index>  (681) 
8623

$$$$
ACEM-pdb3v10-B-ASN-139:NMA-pdb3v10-B-GLY-345
     RDKit          3D

 21 19  0  0  0  0  0  0  0  0999 V2000
   -4.8918    1.5093   -2.0462 C   0  0  0  0  0  0  0  0  0  0  0  0
   -5.2578    2.4251   -1.9006 H   0  0  0  0  0  0  0  0  0  0  0  0
   -5.6384    0.8569   -2.1551 H   0  0  0  0  0  0  0  0  0  0  0  0
   -4.3076    1.5165   -2.9663 H   0  0  0  0  0  0  0  0  0  0  0  0
   -4.0747    1.1149   -0.8318 C   0  0  0  0  0  0  0  0  0  0  0  0
   -3.6533   -0.1466   -0.7853 N   0  0  0  0  0  0  0  0  0  0  0  0
   -3.8770   -0.7731   -1.5334 H   0  0  0  0  0  0  0  0  0  0  0  0
   -3.1147   -0.4674   -0.0076 H   0  0  0  0  0  0  0  0  0  0  0  0
   -3.8239    1.9313    0.0550 O   0  0  0  0  0  0  0  0  0  0  0  0
   -1.1236   -2.1692   -0.0026 C   0  0  0  0  0  0  0  0  0  0  0  0
   -0.5181   -2.5098    0.7228 H   0  0  0  0  0  0  0  0  0  0  0  0
   -0.7818   -2.5441   -0.9673 H   0  0  0  0  0  0  0  0  0  0  0  0
   -2.1296   -2.5372    0.1991 H   0  0  0  0  0  0  0  0  0  0  0  0
   -1.1226   -0.7102    0.0000 N   0  0  0  0  0  0  0  0  0  0  0  0
   -1.9963   -0.1398    0.0020 H   0  0  0  0  0  0  0  0  0  0  0  0
    0.0000    0.0000    0.0000 C   0  0  0  0  0  0  0  0  0  0  0  0
    1.1226   -0.5054   -0.0000 O   0  0  0  0  0  0  0  0  0  0  0  0
   -0.1754    1.5019   -0.0023 C   0  0  0  0  0  0  0  0  0  0  0  0
   -0.9876    1.7449    0.5645 H   0  0  0  0  0  0  0  0  0  0  0  0
   -0.3823    1.8133   -0.9507 H   0  0  0  0  0  0  0  0  0  0  0  0
    0.6970    2.0390    0.3702 H   0  0  0  0  0  0  0  0  0  0  0  0
  1  5  1  0
  5  6  1  0
  5  9  2  0
  1  2  1  0
  1  3  1  0
  1  4  1  0
  6  7  1  0
  6  8  1  0
 10 14  1  0
 14 16  1  0
 16 17  2  0
 16 18  1  0
 10 11  1  0
 10 12  1  0
 10 13  1  0
 14 15  1  0
 18 19  1  0
 18 20  1  0
 18 21  1  0
M  END
>  <PDB_ID>  (682) 
pdb3v10

>  <RESIDUE_NAME>  (682) 
ASN   GLY

>  <FRAG_NAME>  (682) 
ACEM   NMA

>  <FRAG_ATOM_NUM>  (682) 
fragi: 9  fragj: 12

>  <atom.prop.CHAIN_ID>  (682) 
A A A A A A A A A Z Z Z Z Z Z Z Z Z Z Z Z

>  <atom.prop.IS_HEAVY_ATOM>  (682) 
1 0 0 0 1 1 0 0 1 1 0 0 0 1 0 1 1 1 0 0 0

>  <DIFUSE_FUNC_ATOM>  (682) 
n/a

>  <FINAL_SINGLE_POINT_ENERGY>  (682) 
0

>  <NONCOV_INTER_ENERGY_QM>  (682) 
0

>  <FF_Energy>  (682) 
3.8

>  <QM_Energy>  (682) 
17.55

>  <source>  (682) 
ACEM_nNMA_48

>  <Index>  (682) 
13053

$$$$
ACEM-pdb3v67-A-GLN-63:NMA-pdb3v67-A-ILE-145
     RDKit          3D

 21 19  0  0  0  0  0  0  0  0999 V2000
   -4.6724    0.3155   -0.6215 C   0  0  0  0  0  0  0  0  0  0  0  0
   -4.3875   -0.6347   -0.7592 H   0  0  0  0  0  0  0  0  0  0  0  0
   -4.1529    0.9093   -1.2377 H   0  0  0  0  0  0  0  0  0  0  0  0
   -5.7324    0.4025   -0.8600 H   0  0  0  0  0  0  0  0  0  0  0  0
   -4.3615    0.7093    0.8039 C   0  0  0  0  0  0  0  0  0  0  0  0
   -3.1183    0.4979    1.2185 N   0  0  0  0  0  0  0  0  0  0  0  0
   -2.8289    0.7509    2.1619 H   0  0  0  0  0  0  0  0  0  0  0  0
   -2.4498    0.0755    0.5746 H   0  0  0  0  0  0  0  0  0  0  0  0
   -5.2267    1.2062    1.5236 O   0  0  0  0  0  0  0  0  0  0  0  0
   -1.0672   -2.1710   -0.0825 C   0  0  0  0  0  0  0  0  0  0  0  0
   -0.1046   -2.4517   -0.1340 H   0  0  0  0  0  0  0  0  0  0  0  0
   -1.5670   -2.5103   -0.9898 H   0  0  0  0  0  0  0  0  0  0  0  0
   -1.5298   -2.6469    0.7821 H   0  0  0  0  0  0  0  0  0  0  0  0
   -1.1148   -0.7197    0.0000 N   0  0  0  0  0  0  0  0  0  0  0  0
   -1.9913   -0.1740    0.0625 H   0  0  0  0  0  0  0  0  0  0  0  0
    0.0000    0.0000    0.0000 C   0  0  0  0  0  0  0  0  0  0  0  0
    1.1148   -0.5092   -0.0000 O   0  0  0  0  0  0  0  0  0  0  0  0
   -0.1641    1.5136    0.0400 C   0  0  0  0  0  0  0  0  0  0  0  0
   -0.9772    1.6985    0.5970 H   0  0  0  0  0  0  0  0  0  0  0  0
    0.6777    1.9691    0.5616 H   0  0  0  0  0  0  0  0  0  0  0  0
   -0.2831    1.9175   -0.9654 H   0  0  0  0  0  0  0  0  0  0  0  0
  1  5  1  0
  5  6  1  0
  5  9  2  0
  1  2  1  0
  1  3  1  0
  1  4  1  0
  6  7  1  0
  6  8  1  0
 10 14  1  0
 14 16  1  0
 16 17  2  0
 16 18  1  0
 10 11  1  0
 10 12  1  0
 10 13  1  0
 14 15  1  0
 18 19  1  0
 18 20  1  0
 18 21  1  0
M  END
>  <PDB_ID>  (683) 
pdb3v67

>  <RESIDUE_NAME>  (683) 
GLN   ILE

>  <FRAG_NAME>  (683) 
ACEM   NMA

>  <FRAG_ATOM_NUM>  (683) 
fragi: 9  fragj: 12

>  <atom.prop.CHAIN_ID>  (683) 
A A A A A A A A A Z Z Z Z Z Z Z Z Z Z Z Z

>  <atom.prop.IS_HEAVY_ATOM>  (683) 
1 0 0 0 1 1 0 0 1 1 0 0 0 1 0 1 1 1 0 0 0

>  <DIFUSE_FUNC_ATOM>  (683) 
n/a

>  <FINAL_SINGLE_POINT_ENERGY>  (683) 
0

>  <NONCOV_INTER_ENERGY_QM>  (683) 
0

>  <FF_Energy>  (683) 
24.36

>  <QM_Energy>  (683) 
66.68

>  <source>  (683) 
ACEM_nNMA_48

>  <Index>  (683) 
13344

$$$$
ACEM-pdb3v9j-A-GLN-81:NMA-pdb3v9j-A-MET-239
     RDKit          3D

 21 19  0  0  0  0  0  0  0  0999 V2000
   -5.3124    1.9977    0.9338 C   0  0  0  0  0  0  0  0  0  0  0  0
   -6.2414    1.6334    0.8822 H   0  0  0  0  0  0  0  0  0  0  0  0
   -5.2727    2.8842    0.4745 H   0  0  0  0  0  0  0  0  0  0  0  0
   -5.0576    2.1427    1.9837 H   0  0  0  0  0  0  0  0  0  0  0  0
   -4.3725    1.0426    0.2389 C   0  0  0  0  0  0  0  0  0  0  0  0
   -3.4340    0.4697    1.0014 N   0  0  0  0  0  0  0  0  0  0  0  0
   -2.7759   -0.1934    0.6061 H   0  0  0  0  0  0  0  0  0  0  0  0
   -3.3934    0.7147    1.9880 H   0  0  0  0  0  0  0  0  0  0  0  0
   -4.4814    0.8139   -0.9709 O   0  0  0  0  0  0  0  0  0  0  0  0
   -1.1147   -2.1614    0.1101 C   0  0  0  0  0  0  0  0  0  0  0  0
   -0.6911   -2.4177    0.9921 H   0  0  0  0  0  0  0  0  0  0  0  0
   -0.5418   -2.6311   -0.6896 H   0  0  0  0  0  0  0  0  0  0  0  0
   -2.1399   -2.5316    0.1244 H   0  0  0  0  0  0  0  0  0  0  0  0
   -1.1220   -0.7104   -0.0000 N   0  0  0  0  0  0  0  0  0  0  0  0
   -1.9929   -0.1465   -0.0842 H   0  0  0  0  0  0  0  0  0  0  0  0
    0.0000    0.0000    0.0000 C   0  0  0  0  0  0  0  0  0  0  0  0
    1.1220   -0.5142    0.0000 O   0  0  0  0  0  0  0  0  0  0  0  0
   -0.1647    1.5153   -0.0090 C   0  0  0  0  0  0  0  0  0  0  0  0
    0.7225    1.9244   -0.2836 H   0  0  0  0  0  0  0  0  0  0  0  0
   -0.9235    1.8594   -0.7119 H   0  0  0  0  0  0  0  0  0  0  0  0
   -0.3848    1.8775    0.9952 H   0  0  0  0  0  0  0  0  0  0  0  0
  1  5  1  0
  5  6  1  0
  5  9  2  0
  1  2  1  0
  1  3  1  0
  1  4  1  0
  6  7  1  0
  6  8  1  0
 10 14  1  0
 14 16  1  0
 16 17  2  0
 16 18  1  0
 10 11  1  0
 10 12  1  0
 10 13  1  0
 14 15  1  0
 18 19  1  0
 18 20  1  0
 18 21  1  0
M  END
>  <PDB_ID>  (684) 
pdb3v9j

>  <RESIDUE_NAME>  (684) 
GLN   MET

>  <FRAG_NAME>  (684) 
ACEM   NMA

>  <FRAG_ATOM_NUM>  (684) 
fragi: 9  fragj: 12

>  <atom.prop.CHAIN_ID>  (684) 
A A A A A A A A A Z Z Z Z Z Z Z Z Z Z Z Z

>  <atom.prop.IS_HEAVY_ATOM>  (684) 
1 0 0 0 1 1 0 0 1 1 0 0 0 1 0 1 1 1 0 0 0

>  <DIFUSE_FUNC_ATOM>  (684) 
n/a

>  <FINAL_SINGLE_POINT_ENERGY>  (684) 
0

>  <NONCOV_INTER_ENERGY_QM>  (684) 
0

>  <FF_Energy>  (684) 
6.54

>  <QM_Energy>  (684) 
22.01

>  <source>  (684) 
ACEM_nNMA_48

>  <Index>  (684) 
16542

$$$$
ACEM-pdb3v9j-B-GLN-81:NMA-pdb3v9j-B-MET-239
     RDKit          3D

 21 19  0  0  0  0  0  0  0  0999 V2000
   -5.3524    1.9809    0.9476 C   0  0  0  0  0  0  0  0  0  0  0  0
   -6.2816    1.6259    0.8651 H   0  0  0  0  0  0  0  0  0  0  0  0
   -5.2956    2.8809    0.5192 H   0  0  0  0  0  0  0  0  0  0  0  0
   -5.1126    2.0843    2.0059 H   0  0  0  0  0  0  0  0  0  0  0  0
   -4.4068    1.0411    0.2358 C   0  0  0  0  0  0  0  0  0  0  0  0
   -3.4497    0.4783    0.9763 N   0  0  0  0  0  0  0  0  0  0  0  0
   -2.7894   -0.1729    0.5685 H   0  0  0  0  0  0  0  0  0  0  0  0
   -3.3959    0.7182    1.9660 H   0  0  0  0  0  0  0  0  0  0  0  0
   -4.5246    0.8326   -0.9738 O   0  0  0  0  0  0  0  0  0  0  0  0
   -1.1253   -2.1633    0.0841 C   0  0  0  0  0  0  0  0  0  0  0  0
   -0.7061   -2.4362    0.9614 H   0  0  0  0  0  0  0  0  0  0  0  0
   -0.5486   -2.6164   -0.7222 H   0  0  0  0  0  0  0  0  0  0  0  0
   -2.1512   -2.5318    0.0763 H   0  0  0  0  0  0  0  0  0  0  0  0
   -1.1279   -0.7108    0.0000 N   0  0  0  0  0  0  0  0  0  0  0  0
   -1.9971   -0.1411   -0.0649 H   0  0  0  0  0  0  0  0  0  0  0  0
    0.0000    0.0000    0.0000 C   0  0  0  0  0  0  0  0  0  0  0  0
    1.1279   -0.5163    0.0000 O   0  0  0  0  0  0  0  0  0  0  0  0
   -0.1649    1.5257    0.0145 C   0  0  0  0  0  0  0  0  0  0  0  0
    0.7232    1.9346   -0.2561 H   0  0  0  0  0  0  0  0  0  0  0  0
   -0.9258    1.8859   -0.6779 H   0  0  0  0  0  0  0  0  0  0  0  0
   -0.3829    1.8700    1.0255 H   0  0  0  0  0  0  0  0  0  0  0  0
  1  5  1  0
  5  6  1  0
  5  9  2  0
  1  2  1  0
  1  3  1  0
  1  4  1  0
  6  7  1  0
  6  8  1  0
 10 14  1  0
 14 16  1  0
 16 17  2  0
 16 18  1  0
 10 11  1  0
 10 12  1  0
 10 13  1  0
 14 15  1  0
 18 19  1  0
 18 20  1  0
 18 21  1  0
M  END
>  <PDB_ID>  (685) 
pdb3v9j

>  <RESIDUE_NAME>  (685) 
GLN   MET

>  <FRAG_NAME>  (685) 
ACEM   NMA

>  <FRAG_ATOM_NUM>  (685) 
fragi: 9  fragj: 12

>  <atom.prop.CHAIN_ID>  (685) 
A A A A A A A A A Z Z Z Z Z Z Z Z Z Z Z Z

>  <atom.prop.IS_HEAVY_ATOM>  (685) 
1 0 0 0 1 1 0 0 1 1 0 0 0 1 0 1 1 1 0 0 0

>  <DIFUSE_FUNC_ATOM>  (685) 
n/a

>  <FINAL_SINGLE_POINT_ENERGY>  (685) 
0

>  <NONCOV_INTER_ENERGY_QM>  (685) 
0

>  <FF_Energy>  (685) 
7.39

>  <QM_Energy>  (685) 
24.13

>  <source>  (685) 
ACEM_nNMA_48

>  <Index>  (685) 
21516

$$$$
ACEM-pdb3vi6-A-ASN-51:NMA-pdb3vi6-A-ASN-77
     RDKit          3D

 21 19  0  0  0  0  0  0  0  0999 V2000
   -4.8995    2.3194    1.3360 C   0  0  0  0  0  0  0  0  0  0  0  0
   -5.8706    2.3708    1.1225 H   0  0  0  0  0  0  0  0  0  0  0  0
   -4.4375    3.1486    1.0329 H   0  0  0  0  0  0  0  0  0  0  0  0
   -4.7932    2.2482    2.4186 H   0  0  0  0  0  0  0  0  0  0  0  0
   -4.3025    1.1352    0.6151 C   0  0  0  0  0  0  0  0  0  0  0  0
   -3.2304    0.5777    1.1632 N   0  0  0  0  0  0  0  0  0  0  0  0
   -2.8633    0.9475    2.0209 H   0  0  0  0  0  0  0  0  0  0  0  0
   -2.7910   -0.2044    0.7281 H   0  0  0  0  0  0  0  0  0  0  0  0
   -4.8067    0.7257   -0.4205 O   0  0  0  0  0  0  0  0  0  0  0  0
   -1.1171   -2.1665    0.0616 C   0  0  0  0  0  0  0  0  0  0  0  0
   -0.4505   -2.4332    0.7802 H   0  0  0  0  0  0  0  0  0  0  0  0
   -0.7904   -2.6478   -0.8601 H   0  0  0  0  0  0  0  0  0  0  0  0
   -2.0791   -2.5515    0.4000 H   0  0  0  0  0  0  0  0  0  0  0  0
   -1.1237   -0.7058    0.0000 N   0  0  0  0  0  0  0  0  0  0  0  0
   -1.9950   -0.1419   -0.0469 H   0  0  0  0  0  0  0  0  0  0  0  0
    0.0000    0.0000    0.0000 C   0  0  0  0  0  0  0  0  0  0  0  0
    1.1237   -0.5231   -0.0000 O   0  0  0  0  0  0  0  0  0  0  0  0
   -0.1680    1.5271    0.0311 C   0  0  0  0  0  0  0  0  0  0  0  0
   -0.6210    1.7483    0.9050 H   0  0  0  0  0  0  0  0  0  0  0  0
    0.7941    2.0395    0.0202 H   0  0  0  0  0  0  0  0  0  0  0  0
   -0.7868    1.8841   -0.7921 H   0  0  0  0  0  0  0  0  0  0  0  0
  1  5  1  0
  5  6  1  0
  5  9  2  0
  1  2  1  0
  1  3  1  0
  1  4  1  0
  6  7  1  0
  6  8  1  0
 10 14  1  0
 14 16  1  0
 16 17  2  0
 16 18  1  0
 10 11  1  0
 10 12  1  0
 10 13  1  0
 14 15  1  0
 18 19  1  0
 18 20  1  0
 18 21  1  0
M  END
>  <PDB_ID>  (686) 
pdb3vi6

>  <RESIDUE_NAME>  (686) 
ASN   ASN

>  <FRAG_NAME>  (686) 
ACEM   NMA

>  <FRAG_ATOM_NUM>  (686) 
fragi: 9  fragj: 12

>  <atom.prop.CHAIN_ID>  (686) 
A A A A A A A A A Z Z Z Z Z Z Z Z Z Z Z Z

>  <atom.prop.IS_HEAVY_ATOM>  (686) 
1 0 0 0 1 1 0 0 1 1 0 0 0 1 0 1 1 1 0 0 0

>  <DIFUSE_FUNC_ATOM>  (686) 
n/a

>  <FINAL_SINGLE_POINT_ENERGY>  (686) 
0

>  <NONCOV_INTER_ENERGY_QM>  (686) 
0

>  <FF_Energy>  (686) 
7.28

>  <QM_Energy>  (686) 
19.84

>  <source>  (686) 
ACEM_nNMA_48

>  <Index>  (686) 
22116

$$$$
ACEM-pdb3vpz-A-GLN-313:NMA-pdb3vpz-A-LEU-123
     RDKit          3D

 21 19  0  0  0  0  0  0  0  0999 V2000
   -5.6830    0.6592   -0.5073 C   0  0  0  0  0  0  0  0  0  0  0  0
   -5.5223    0.3596   -1.4454 H   0  0  0  0  0  0  0  0  0  0  0  0
   -5.8781    1.6378   -0.4933 H   0  0  0  0  0  0  0  0  0  0  0  0
   -6.5440    0.1225   -0.1090 H   0  0  0  0  0  0  0  0  0  0  0  0
   -4.4244    0.4056    0.3021 C   0  0  0  0  0  0  0  0  0  0  0  0
   -3.3192    0.1584   -0.3908 N   0  0  0  0  0  0  0  0  0  0  0  0
   -2.4334   -0.0077    0.0822 H   0  0  0  0  0  0  0  0  0  0  0  0
   -3.3702    0.1361   -1.4078 H   0  0  0  0  0  0  0  0  0  0  0  0
   -4.4197    0.5548    1.5254 O   0  0  0  0  0  0  0  0  0  0  0  0
   -1.1271   -2.1599   -0.2523 C   0  0  0  0  0  0  0  0  0  0  0  0
   -0.3310   -2.5487    0.2179 H   0  0  0  0  0  0  0  0  0  0  0  0
   -0.9970   -2.3563   -1.3166 H   0  0  0  0  0  0  0  0  0  0  0  0
   -2.0677   -2.5885    0.0936 H   0  0  0  0  0  0  0  0  0  0  0  0
   -1.1190   -0.7191   -0.0000 N   0  0  0  0  0  0  0  0  0  0  0  0
   -1.9856   -0.1712    0.1941 H   0  0  0  0  0  0  0  0  0  0  0  0
    0.0000    0.0000    0.0000 C   0  0  0  0  0  0  0  0  0  0  0  0
    1.1190   -0.5026   -0.0000 O   0  0  0  0  0  0  0  0  0  0  0  0
   -0.1715    1.4889    0.2776 C   0  0  0  0  0  0  0  0  0  0  0  0
   -0.9029    1.5996    0.9679 H   0  0  0  0  0  0  0  0  0  0  0  0
    0.7413    1.9445    0.6614 H   0  0  0  0  0  0  0  0  0  0  0  0
   -0.5198    2.0217   -0.6073 H   0  0  0  0  0  0  0  0  0  0  0  0
  1  5  1  0
  5  6  1  0
  5  9  2  0
  1  2  1  0
  1  3  1  0
  1  4  1  0
  6  7  1  0
  6  8  1  0
 10 14  1  0
 14 16  1  0
 16 17  2  0
 16 18  1  0
 10 11  1  0
 10 12  1  0
 10 13  1  0
 14 15  1  0
 18 19  1  0
 18 20  1  0
 18 21  1  0
M  END
>  <PDB_ID>  (687) 
pdb3vpz

>  <RESIDUE_NAME>  (687) 
GLN   LEU

>  <FRAG_NAME>  (687) 
ACEM   NMA

>  <FRAG_ATOM_NUM>  (687) 
fragi: 9  fragj: 12

>  <atom.prop.CHAIN_ID>  (687) 
A A A A A A A A A Z Z Z Z Z Z Z Z Z Z Z Z

>  <atom.prop.IS_HEAVY_ATOM>  (687) 
1 0 0 0 1 1 0 0 1 1 0 0 0 1 0 1 1 1 0 0 0

>  <DIFUSE_FUNC_ATOM>  (687) 
n/a

>  <FINAL_SINGLE_POINT_ENERGY>  (687) 
0

>  <NONCOV_INTER_ENERGY_QM>  (687) 
0

>  <FF_Energy>  (687) 
68.89

>  <QM_Energy>  (687) 
181.36

>  <source>  (687) 
ACEM_nNMA_49

>  <Index>  (687) 
1194

$$$$
ACEM-pdb4wtv-A-GLN-440:NMA-pdb4wtv-A-LYS-436
     RDKit          3D

 21 19  0  0  0  0  0  0  0  0999 V2000
   -5.2933    0.4582    0.0137 C   0  0  0  0  0  0  0  0  0  0  0  0
   -6.1581    0.9551   -0.0260 H   0  0  0  0  0  0  0  0  0  0  0  0
   -5.4624   -0.4945    0.2606 H   0  0  0  0  0  0  0  0  0  0  0  0
   -4.8366    0.4823   -0.9757 H   0  0  0  0  0  0  0  0  0  0  0  0
   -4.4140    1.0888    1.0629 C   0  0  0  0  0  0  0  0  0  0  0  0
   -3.1401    0.7389    1.0415 N   0  0  0  0  0  0  0  0  0  0  0  0
   -2.4730    1.1329    1.7124 H   0  0  0  0  0  0  0  0  0  0  0  0
   -2.8206    0.0661    0.3457 H   0  0  0  0  0  0  0  0  0  0  0  0
   -4.8754    1.8771    1.8972 O   0  0  0  0  0  0  0  0  0  0  0  0
   -1.1021   -2.1548   -0.0476 C   0  0  0  0  0  0  0  0  0  0  0  0
   -0.1707   -2.4662    0.1391 H   0  0  0  0  0  0  0  0  0  0  0  0
   -1.3694   -2.4750   -1.0547 H   0  0  0  0  0  0  0  0  0  0  0  0
   -1.8113   -2.5622    0.6729 H   0  0  0  0  0  0  0  0  0  0  0  0
   -1.1157   -0.7018   -0.0000 N   0  0  0  0  0  0  0  0  0  0  0  0
   -1.9902   -0.1395    0.0359 H   0  0  0  0  0  0  0  0  0  0  0  0
    0.0000    0.0000    0.0000 C   0  0  0  0  0  0  0  0  0  0  0  0
    1.1157   -0.5151   -0.0000 O   0  0  0  0  0  0  0  0  0  0  0  0
   -0.2002    1.5223    0.0124 C   0  0  0  0  0  0  0  0  0  0  0  0
   -0.7451    1.7635    0.8363 H   0  0  0  0  0  0  0  0  0  0  0  0
    0.7342    2.0833    0.0314 H   0  0  0  0  0  0  0  0  0  0  0  0
   -0.8018    1.8042   -0.8517 H   0  0  0  0  0  0  0  0  0  0  0  0
  1  5  1  0
  5  6  1  0
  5  9  2  0
  1  2  1  0
  1  3  1  0
  1  4  1  0
  6  7  1  0
  6  8  1  0
 10 14  1  0
 14 16  1  0
 16 17  2  0
 16 18  1  0
 10 11  1  0
 10 12  1  0
 10 13  1  0
 14 15  1  0
 18 19  1  0
 18 20  1  0
 18 21  1  0
M  END
>  <PDB_ID>  (688) 
pdb4wtv

>  <RESIDUE_NAME>  (688) 
GLN   LYS

>  <FRAG_NAME>  (688) 
ACEM   NMA

>  <FRAG_ATOM_NUM>  (688) 
fragi: 9  fragj: 12

>  <atom.prop.CHAIN_ID>  (688) 
A A A A A A A A A Z Z Z Z Z Z Z Z Z Z Z Z

>  <atom.prop.IS_HEAVY_ATOM>  (688) 
1 0 0 0 1 1 0 0 1 1 0 0 0 1 0 1 1 1 0 0 0

>  <DIFUSE_FUNC_ATOM>  (688) 
n/a

>  <FINAL_SINGLE_POINT_ENERGY>  (688) 
0

>  <NONCOV_INTER_ENERGY_QM>  (688) 
0

>  <FF_Energy>  (688) 
16.56

>  <QM_Energy>  (688) 
38.57

>  <source>  (688) 
ACEM_nNMA_49

>  <Index>  (688) 
4137

$$$$
ACEM-pdb4x09-A-ASN-24:NMA-pdb4x09-A-ARG-92
     RDKit          3D

 21 19  0  0  0  0  0  0  0  0999 V2000
   -5.0379    2.0814    1.7393 C   0  0  0  0  0  0  0  0  0  0  0  0
   -5.9910    2.0779    1.4513 H   0  0  0  0  0  0  0  0  0  0  0  0
   -4.7333    3.0129    1.9149 H   0  0  0  0  0  0  0  0  0  0  0  0
   -4.9570    1.5139    2.6663 H   0  0  0  0  0  0  0  0  0  0  0  0
   -4.1922    1.4954    0.6256 C   0  0  0  0  0  0  0  0  0  0  0  0
   -3.3305    0.5422    0.9693 N   0  0  0  0  0  0  0  0  0  0  0  0
   -3.2747    0.2463    1.9248 H   0  0  0  0  0  0  0  0  0  0  0  0
   -2.7432    0.1233    0.2803 H   0  0  0  0  0  0  0  0  0  0  0  0
   -4.3296    1.8801   -0.5357 O   0  0  0  0  0  0  0  0  0  0  0  0
   -1.1174   -2.1527    0.2404 C   0  0  0  0  0  0  0  0  0  0  0  0
   -0.1526   -2.4775    0.1880 H   0  0  0  0  0  0  0  0  0  0  0  0
   -1.7041   -2.7235   -0.4793 H   0  0  0  0  0  0  0  0  0  0  0  0
   -1.4993   -2.3600    1.2401 H   0  0  0  0  0  0  0  0  0  0  0  0
   -1.1229   -0.7156   -0.0000 N   0  0  0  0  0  0  0  0  0  0  0  0
   -1.9866   -0.1673   -0.1830 H   0  0  0  0  0  0  0  0  0  0  0  0
    0.0000    0.0000    0.0000 C   0  0  0  0  0  0  0  0  0  0  0  0
    1.1229   -0.5101   -0.0000 O   0  0  0  0  0  0  0  0  0  0  0  0
   -0.1778    1.5196   -0.0288 C   0  0  0  0  0  0  0  0  0  0  0  0
   -1.1004    1.7392    0.3238 H   0  0  0  0  0  0  0  0  0  0  0  0
    0.5636    2.0330    0.5834 H   0  0  0  0  0  0  0  0  0  0  0  0
   -0.1335    1.8803   -1.0563 H   0  0  0  0  0  0  0  0  0  0  0  0
  1  5  1  0
  5  6  1  0
  5  9  2  0
  1  2  1  0
  1  3  1  0
  1  4  1  0
  6  7  1  0
  6  8  1  0
 10 14  1  0
 14 16  1  0
 16 17  2  0
 16 18  1  0
 10 11  1  0
 10 12  1  0
 10 13  1  0
 14 15  1  0
 18 19  1  0
 18 20  1  0
 18 21  1  0
M  END
>  <PDB_ID>  (689) 
pdb4x09

>  <RESIDUE_NAME>  (689) 
ASN   ARG

>  <FRAG_NAME>  (689) 
ACEM   NMA

>  <FRAG_ATOM_NUM>  (689) 
fragi: 9  fragj: 12

>  <atom.prop.CHAIN_ID>  (689) 
A A A A A A A A A Z Z Z Z Z Z Z Z Z Z Z Z

>  <atom.prop.IS_HEAVY_ATOM>  (689) 
1 0 0 0 1 1 0 0 1 1 0 0 0 1 0 1 1 1 0 0 0

>  <DIFUSE_FUNC_ATOM>  (689) 
n/a

>  <FINAL_SINGLE_POINT_ENERGY>  (689) 
0

>  <NONCOV_INTER_ENERGY_QM>  (689) 
0

>  <FF_Energy>  (689) 
11.56

>  <QM_Energy>  (689) 
33.53

>  <source>  (689) 
ACEM_nNMA_49

>  <Index>  (689) 
7711

$$$$
ACEM-pdb3vsr-A-GLN-377:NMA-pdb3vsr-A-TYR-460
     RDKit          3D

 21 19  0  0  0  0  0  0  0  0999 V2000
   -6.1169    0.2403   -1.3229 C   0  0  0  0  0  0  0  0  0  0  0  0
   -6.2326    0.5207   -0.3725 H   0  0  0  0  0  0  0  0  0  0  0  0
   -6.7309   -0.5180   -1.5296 H   0  0  0  0  0  0  0  0  0  0  0  0
   -6.3878    1.0816   -1.9608 H   0  0  0  0  0  0  0  0  0  0  0  0
   -4.6885   -0.2080   -1.5352 C   0  0  0  0  0  0  0  0  0  0  0  0
   -3.8927   -0.1358   -0.4823 N   0  0  0  0  0  0  0  0  0  0  0  0
   -2.9154   -0.4341   -0.5411 H   0  0  0  0  0  0  0  0  0  0  0  0
   -4.2620    0.2218    0.3967 H   0  0  0  0  0  0  0  0  0  0  0  0
   -4.3088   -0.6197   -2.6334 O   0  0  0  0  0  0  0  0  0  0  0  0
   -1.1729   -2.1613    0.1143 C   0  0  0  0  0  0  0  0  0  0  0  0
   -0.3591   -2.4590    0.6354 H   0  0  0  0  0  0  0  0  0  0  0  0
   -1.1489   -2.6457   -0.8619 H   0  0  0  0  0  0  0  0  0  0  0  0
   -2.0710   -2.5059    0.6270 H   0  0  0  0  0  0  0  0  0  0  0  0
   -1.1228   -0.7040   -0.0000 N   0  0  0  0  0  0  0  0  0  0  0  0
   -1.9940   -0.1177   -0.0905 H   0  0  0  0  0  0  0  0  0  0  0  0
    0.0000    0.0000    0.0000 C   0  0  0  0  0  0  0  0  0  0  0  0
    1.1228   -0.5000    0.0000 O   0  0  0  0  0  0  0  0  0  0  0  0
   -0.1716    1.5201   -0.0054 C   0  0  0  0  0  0  0  0  0  0  0  0
   -1.1390    1.7206    0.1275 H   0  0  0  0  0  0  0  0  0  0  0  0
    0.3909    1.9292    0.8338 H   0  0  0  0  0  0  0  0  0  0  0  0
    0.1773    1.9571   -0.9410 H   0  0  0  0  0  0  0  0  0  0  0  0
  1  5  1  0
  5  6  1  0
  5  9  2  0
  1  2  1  0
  1  3  1  0
  1  4  1  0
  6  7  1  0
  6  8  1  0
 10 14  1  0
 14 16  1  0
 16 17  2  0
 16 18  1  0
 10 11  1  0
 10 12  1  0
 10 13  1  0
 14 15  1  0
 18 19  1  0
 18 20  1  0
 18 21  1  0
M  END
>  <PDB_ID>  (690) 
pdb3vsr

>  <RESIDUE_NAME>  (690) 
GLN   TYR

>  <FRAG_NAME>  (690) 
ACEM   NMA

>  <FRAG_ATOM_NUM>  (690) 
fragi: 9  fragj: 12

>  <atom.prop.CHAIN_ID>  (690) 
A A A A A A A A A Z Z Z Z Z Z Z Z Z Z Z Z

>  <atom.prop.IS_HEAVY_ATOM>  (690) 
1 0 0 0 1 1 0 0 1 1 0 0 0 1 0 1 1 1 0 0 0

>  <DIFUSE_FUNC_ATOM>  (690) 
n/a

>  <FINAL_SINGLE_POINT_ENERGY>  (690) 
0

>  <NONCOV_INTER_ENERGY_QM>  (690) 
0

>  <FF_Energy>  (690) 
7.79

>  <QM_Energy>  (690) 
20.55

>  <source>  (690) 
ACEM_nNMA_49

>  <Index>  (690) 
8272

$$$$
ACEM-pdb3vyn-B-ASN-95:NMA-pdb3vyn-B-GLY-98
     RDKit          3D

 21 19  0  0  0  0  0  0  0  0999 V2000
   -4.9398   -0.1812   -2.6972 C   0  0  0  0  0  0  0  0  0  0  0  0
   -5.7478    0.3795   -2.5358 H   0  0  0  0  0  0  0  0  0  0  0  0
   -5.1925   -1.0156   -3.1803 H   0  0  0  0  0  0  0  0  0  0  0  0
   -4.2477    0.3827   -3.3226 H   0  0  0  0  0  0  0  0  0  0  0  0
   -4.3401   -0.5617   -1.3559 C   0  0  0  0  0  0  0  0  0  0  0  0
   -3.3346    0.1921   -0.9300 N   0  0  0  0  0  0  0  0  0  0  0  0
   -3.0158    0.9639   -1.4810 H   0  0  0  0  0  0  0  0  0  0  0  0
   -2.8911   -0.0094   -0.0551 H   0  0  0  0  0  0  0  0  0  0  0  0
   -4.7642   -1.5311   -0.7176 O   0  0  0  0  0  0  0  0  0  0  0  0
   -1.1016   -2.1590    0.0147 C   0  0  0  0  0  0  0  0  0  0  0  0
   -0.3580   -2.4734    0.6128 H   0  0  0  0  0  0  0  0  0  0  0  0
   -0.9254   -2.5404   -0.9911 H   0  0  0  0  0  0  0  0  0  0  0  0
   -2.0575   -2.5318    0.3825 H   0  0  0  0  0  0  0  0  0  0  0  0
   -1.1158   -0.7087    0.0000 N   0  0  0  0  0  0  0  0  0  0  0  0
   -1.9916   -0.1434   -0.0112 H   0  0  0  0  0  0  0  0  0  0  0  0
    0.0000    0.0000    0.0000 C   0  0  0  0  0  0  0  0  0  0  0  0
    1.1158   -0.5195    0.0000 O   0  0  0  0  0  0  0  0  0  0  0  0
   -0.1755    1.5073   -0.0084 C   0  0  0  0  0  0  0  0  0  0  0  0
    0.1579    1.8776   -0.8982 H   0  0  0  0  0  0  0  0  0  0  0  0
    0.4178    1.9170    0.7125 H   0  0  0  0  0  0  0  0  0  0  0  0
   -1.2044    1.8302    0.1501 H   0  0  0  0  0  0  0  0  0  0  0  0
  1  5  1  0
  5  6  1  0
  5  9  2  0
  1  2  1  0
  1  3  1  0
  1  4  1  0
  6  7  1  0
  6  8  1  0
 10 14  1  0
 14 16  1  0
 16 17  2  0
 16 18  1  0
 10 11  1  0
 10 12  1  0
 10 13  1  0
 14 15  1  0
 18 19  1  0
 18 20  1  0
 18 21  1  0
M  END
>  <PDB_ID>  (691) 
pdb3vyn

>  <RESIDUE_NAME>  (691) 
ASN   GLY

>  <FRAG_NAME>  (691) 
ACEM   NMA

>  <FRAG_ATOM_NUM>  (691) 
fragi: 9  fragj: 12

>  <atom.prop.CHAIN_ID>  (691) 
A A A A A A A A A Z Z Z Z Z Z Z Z Z Z Z Z

>  <atom.prop.IS_HEAVY_ATOM>  (691) 
1 0 0 0 1 1 0 0 1 1 0 0 0 1 0 1 1 1 0 0 0

>  <DIFUSE_FUNC_ATOM>  (691) 
n/a

>  <FINAL_SINGLE_POINT_ENERGY>  (691) 
0

>  <NONCOV_INTER_ENERGY_QM>  (691) 
0

>  <FF_Energy>  (691) 
22.82

>  <QM_Energy>  (691) 
42.41

>  <source>  (691) 
ACEM_nNMA_49

>  <Index>  (691) 
10500

$$$$
ACEM-pdb4x33-B-GLN-14:NMA-pdb4x33-B-GLY-11
     RDKit          3D

 21 19  0  0  0  0  0  0  0  0999 V2000
   -6.3442   -0.3683   -0.7371 C   0  0  0  0  0  0  0  0  0  0  0  0
   -6.4261    0.2651   -1.6191 H   0  0  0  0  0  0  0  0  0  0  0  0
   -7.1686   -0.1586   -0.0584 H   0  0  0  0  0  0  0  0  0  0  0  0
   -6.3960   -1.4192   -1.0216 H   0  0  0  0  0  0  0  0  0  0  0  0
   -5.0411    0.0019   -0.0466 C   0  0  0  0  0  0  0  0  0  0  0  0
   -3.9243   -0.5138   -0.5579 N   0  0  0  0  0  0  0  0  0  0  0  0
   -3.9469   -1.1173   -1.3734 H   0  0  0  0  0  0  0  0  0  0  0  0
   -3.0349   -0.2813   -0.1276 H   0  0  0  0  0  0  0  0  0  0  0  0
   -4.9967    0.7612    0.9553 O   0  0  0  0  0  0  0  0  0  0  0  0
   -1.1824   -2.1755   -0.0078 C   0  0  0  0  0  0  0  0  0  0  0  0
   -0.1708   -2.5721    0.0495 H   0  0  0  0  0  0  0  0  0  0  0  0
   -1.6066   -2.5546   -0.9375 H   0  0  0  0  0  0  0  0  0  0  0  0
   -1.7512   -2.5567    0.8403 H   0  0  0  0  0  0  0  0  0  0  0  0
   -1.1300   -0.7169    0.0000 N   0  0  0  0  0  0  0  0  0  0  0  0
   -2.0602   -0.3142    0.0418 H   0  0  0  0  0  0  0  0  0  0  0  0
    0.0000    0.0000    0.0000 C   0  0  0  0  0  0  0  0  0  0  0  0
    1.1300   -0.5049   -0.0000 O   0  0  0  0  0  0  0  0  0  0  0  0
   -0.1444    1.5055   -0.0164 C   0  0  0  0  0  0  0  0  0  0  0  0
    0.6797    1.9023   -0.6070 H   0  0  0  0  0  0  0  0  0  0  0  0
   -0.0290    1.8541    1.0094 H   0  0  0  0  0  0  0  0  0  0  0  0
   -1.0839    1.8926   -0.4107 H   0  0  0  0  0  0  0  0  0  0  0  0
  1  5  1  0
  5  6  1  0
  5  9  2  0
  1  2  1  0
  1  3  1  0
  1  4  1  0
  6  7  1  0
  6  8  1  0
 10 14  1  0
 14 16  1  0
 16 17  2  0
 16 18  1  0
 10 11  1  0
 10 12  1  0
 10 13  1  0
 14 15  1  0
 18 19  1  0
 18 20  1  0
 18 21  1  0
M  END
>  <PDB_ID>  (692) 
pdb4x33

>  <RESIDUE_NAME>  (692) 
GLN   GLY

>  <FRAG_NAME>  (692) 
ACEM   NMA

>  <FRAG_ATOM_NUM>  (692) 
fragi: 9  fragj: 12

>  <atom.prop.CHAIN_ID>  (692) 
A A A A A A A A A Z Z Z Z Z Z Z Z Z Z Z Z

>  <atom.prop.IS_HEAVY_ATOM>  (692) 
1 0 0 0 1 1 0 0 1 1 0 0 0 1 0 1 1 1 0 0 0

>  <DIFUSE_FUNC_ATOM>  (692) 
n/a

>  <FINAL_SINGLE_POINT_ENERGY>  (692) 
0

>  <NONCOV_INTER_ENERGY_QM>  (692) 
0

>  <FF_Energy>  (692) 
8.38

>  <QM_Energy>  (692) 
25.53

>  <source>  (692) 
ACEM_nNMA_49

>  <Index>  (692) 
14076

$$$$
ACEM-pdb3wa0-A-GLN-111:NMA-pdb3wa0-A-LEU-56
     RDKit          3D

 21 19  0  0  0  0  0  0  0  0999 V2000
   -5.9338    0.1137   -0.6569 C   0  0  0  0  0  0  0  0  0  0  0  0
   -6.4900   -0.0816    0.1436 H   0  0  0  0  0  0  0  0  0  0  0  0
   -6.0773   -0.5794   -1.3558 H   0  0  0  0  0  0  0  0  0  0  0  0
   -6.2127    1.0884   -1.0573 H   0  0  0  0  0  0  0  0  0  0  0  0
   -4.4755    0.0899   -0.2463 C   0  0  0  0  0  0  0  0  0  0  0  0
   -3.6753   -0.7066   -0.9476 N   0  0  0  0  0  0  0  0  0  0  0  0
   -2.6816   -0.7642   -0.7387 H   0  0  0  0  0  0  0  0  0  0  0  0
   -4.0746   -1.2625   -1.7022 H   0  0  0  0  0  0  0  0  0  0  0  0
   -4.0766    0.7621    0.7014 O   0  0  0  0  0  0  0  0  0  0  0  0
   -1.0924   -2.1817    0.0092 C   0  0  0  0  0  0  0  0  0  0  0  0
   -0.2157   -2.4841    0.4496 H   0  0  0  0  0  0  0  0  0  0  0  0
   -1.1684   -2.6654   -0.9646 H   0  0  0  0  0  0  0  0  0  0  0  0
   -1.8595   -2.5809    0.6729 H   0  0  0  0  0  0  0  0  0  0  0  0
   -1.1206   -0.7200   -0.0000 N   0  0  0  0  0  0  0  0  0  0  0  0
   -1.9967   -0.1650   -0.0070 H   0  0  0  0  0  0  0  0  0  0  0  0
    0.0000    0.0000    0.0000 C   0  0  0  0  0  0  0  0  0  0  0  0
    1.1206   -0.4991    0.0000 O   0  0  0  0  0  0  0  0  0  0  0  0
   -0.1747    1.5111   -0.0108 C   0  0  0  0  0  0  0  0  0  0  0  0
   -1.1406    1.7183   -0.2204 H   0  0  0  0  0  0  0  0  0  0  0  0
    0.0736    1.9484    0.9563 H   0  0  0  0  0  0  0  0  0  0  0  0
    0.4669    1.9629   -0.7672 H   0  0  0  0  0  0  0  0  0  0  0  0
  1  5  1  0
  5  6  1  0
  5  9  2  0
  1  2  1  0
  1  3  1  0
  1  4  1  0
  6  7  1  0
  6  8  1  0
 10 14  1  0
 14 16  1  0
 16 17  2  0
 16 18  1  0
 10 11  1  0
 10 12  1  0
 10 13  1  0
 14 15  1  0
 18 19  1  0
 18 20  1  0
 18 21  1  0
M  END
>  <PDB_ID>  (693) 
pdb3wa0

>  <RESIDUE_NAME>  (693) 
GLN   LEU

>  <FRAG_NAME>  (693) 
ACEM   NMA

>  <FRAG_ATOM_NUM>  (693) 
fragi: 9  fragj: 12

>  <atom.prop.CHAIN_ID>  (693) 
A A A A A A A A A Z Z Z Z Z Z Z Z Z Z Z Z

>  <atom.prop.IS_HEAVY_ATOM>  (693) 
1 0 0 0 1 1 0 0 1 1 0 0 0 1 0 1 1 1 0 0 0

>  <DIFUSE_FUNC_ATOM>  (693) 
n/a

>  <FINAL_SINGLE_POINT_ENERGY>  (693) 
0

>  <NONCOV_INTER_ENERGY_QM>  (693) 
0

>  <FF_Energy>  (693) 
2.49

>  <QM_Energy>  (693) 
14.97

>  <source>  (693) 
ACEM_nNMA_49

>  <Index>  (693) 
18366

$$$$
ACEM-pdb3wa0-B-GLN-111:NMA-pdb3wa0-B-LEU-56
     RDKit          3D

 21 19  0  0  0  0  0  0  0  0999 V2000
   -5.7455    0.6335   -0.4567 C   0  0  0  0  0  0  0  0  0  0  0  0
   -6.3664    0.7186    0.3182 H   0  0  0  0  0  0  0  0  0  0  0  0
   -5.9377   -0.2052   -0.9587 H   0  0  0  0  0  0  0  0  0  0  0  0
   -5.8847    1.4869   -1.1204 H   0  0  0  0  0  0  0  0  0  0  0  0
   -4.3288    0.5702    0.0656 C   0  0  0  0  0  0  0  0  0  0  0  0
   -3.4003    0.1486   -0.7868 N   0  0  0  0  0  0  0  0  0  0  0  0
   -2.4231    0.0929   -0.5118 H   0  0  0  0  0  0  0  0  0  0  0  0
   -3.6843   -0.1208   -1.7278 H   0  0  0  0  0  0  0  0  0  0  0  0
   -4.0727    0.8738    1.2297 O   0  0  0  0  0  0  0  0  0  0  0  0
   -1.0885   -2.1780   -0.0652 C   0  0  0  0  0  0  0  0  0  0  0  0
   -0.2031   -2.4997    0.3355 H   0  0  0  0  0  0  0  0  0  0  0  0
   -1.1821   -2.6011   -1.0653 H   0  0  0  0  0  0  0  0  0  0  0  0
   -1.8352   -2.6145    0.5981 H   0  0  0  0  0  0  0  0  0  0  0  0
   -1.1210   -0.7175   -0.0000 N   0  0  0  0  0  0  0  0  0  0  0  0
   -1.9952   -0.1654    0.0487 H   0  0  0  0  0  0  0  0  0  0  0  0
    0.0000    0.0000    0.0000 C   0  0  0  0  0  0  0  0  0  0  0  0
    1.1210   -0.5099   -0.0000 O   0  0  0  0  0  0  0  0  0  0  0  0
   -0.1617    1.5167    0.0091 C   0  0  0  0  0  0  0  0  0  0  0  0
   -1.1337    1.7322   -0.1285 H   0  0  0  0  0  0  0  0  0  0  0  0
    0.1563    1.9298    0.9664 H   0  0  0  0  0  0  0  0  0  0  0  0
    0.4366    1.9483   -0.7933 H   0  0  0  0  0  0  0  0  0  0  0  0
  1  5  1  0
  5  6  1  0
  5  9  2  0
  1  2  1  0
  1  3  1  0
  1  4  1  0
  6  7  1  0
  6  8  1  0
 10 14  1  0
 14 16  1  0
 16 17  2  0
 16 18  1  0
 10 11  1  0
 10 12  1  0
 10 13  1  0
 14 15  1  0
 18 19  1  0
 18 20  1  0
 18 21  1  0
M  END
>  <PDB_ID>  (694) 
pdb3wa0

>  <RESIDUE_NAME>  (694) 
GLN   LEU

>  <FRAG_NAME>  (694) 
ACEM   NMA

>  <FRAG_ATOM_NUM>  (694) 
fragi: 9  fragj: 12

>  <atom.prop.CHAIN_ID>  (694) 
A A A A A A A A A Z Z Z Z Z Z Z Z Z Z Z Z

>  <atom.prop.IS_HEAVY_ATOM>  (694) 
1 0 0 0 1 1 0 0 1 1 0 0 0 1 0 1 1 1 0 0 0

>  <DIFUSE_FUNC_ATOM>  (694) 
n/a

>  <FINAL_SINGLE_POINT_ENERGY>  (694) 
0

>  <NONCOV_INTER_ENERGY_QM>  (694) 
0

>  <FF_Energy>  (694) 
25.15

>  <QM_Energy>  (694) 
64.37

>  <source>  (694) 
ACEM_nNMA_49

>  <Index>  (694) 
20561

$$$$
ACEM-pdb3wa0-B-GLN-212:NMA-pdb3wa0-B-ASN-104
     RDKit          3D

 21 19  0  0  0  0  0  0  0  0999 V2000
   -5.8595    1.4242    0.4687 C   0  0  0  0  0  0  0  0  0  0  0  0
   -6.5779    1.1204   -0.1572 H   0  0  0  0  0  0  0  0  0  0  0  0
   -5.8462    2.4248    0.4993 H   0  0  0  0  0  0  0  0  0  0  0  0
   -6.0790    1.0445    1.4666 H   0  0  0  0  0  0  0  0  0  0  0  0
   -4.5119    0.9437   -0.0812 C   0  0  0  0  0  0  0  0  0  0  0  0
   -3.7122    0.3079    0.7737 N   0  0  0  0  0  0  0  0  0  0  0  0
   -2.8148   -0.0477    0.4735 H   0  0  0  0  0  0  0  0  0  0  0  0
   -4.0233    0.1877    1.7364 H   0  0  0  0  0  0  0  0  0  0  0  0
   -4.2013    1.1366   -1.2507 O   0  0  0  0  0  0  0  0  0  0  0  0
   -1.0660   -2.1545    0.1568 C   0  0  0  0  0  0  0  0  0  0  0  0
   -0.4784   -2.3756    0.9477 H   0  0  0  0  0  0  0  0  0  0  0  0
   -0.6501   -2.6345   -0.7290 H   0  0  0  0  0  0  0  0  0  0  0  0
   -2.0531   -2.5579    0.3828 H   0  0  0  0  0  0  0  0  0  0  0  0
   -1.1191   -0.7125   -0.0000 N   0  0  0  0  0  0  0  0  0  0  0  0
   -1.9882   -0.1734   -0.1163 H   0  0  0  0  0  0  0  0  0  0  0  0
    0.0000    0.0000    0.0000 C   0  0  0  0  0  0  0  0  0  0  0  0
    1.1191   -0.5201   -0.0000 O   0  0  0  0  0  0  0  0  0  0  0  0
   -0.1544    1.5146   -0.0289 C   0  0  0  0  0  0  0  0  0  0  0  0
   -1.1304    1.7066   -0.1047 H   0  0  0  0  0  0  0  0  0  0  0  0
    0.1857    1.9130    0.9270 H   0  0  0  0  0  0  0  0  0  0  0  0
    0.4423    1.9414   -0.8351 H   0  0  0  0  0  0  0  0  0  0  0  0
  1  5  1  0
  5  6  1  0
  5  9  2  0
  1  2  1  0
  1  3  1  0
  1  4  1  0
  6  7  1  0
  6  8  1  0
 10 14  1  0
 14 16  1  0
 16 17  2  0
 16 18  1  0
 10 11  1  0
 10 12  1  0
 10 13  1  0
 14 15  1  0
 18 19  1  0
 18 20  1  0
 18 21  1  0
M  END
>  <PDB_ID>  (695) 
pdb3wa0

>  <RESIDUE_NAME>  (695) 
GLN   ASN

>  <FRAG_NAME>  (695) 
ACEM   NMA

>  <FRAG_ATOM_NUM>  (695) 
fragi: 9  fragj: 12

>  <atom.prop.CHAIN_ID>  (695) 
A A A A A A A A A Z Z Z Z Z Z Z Z Z Z Z Z

>  <atom.prop.IS_HEAVY_ATOM>  (695) 
1 0 0 0 1 1 0 0 1 1 0 0 0 1 0 1 1 1 0 0 0

>  <DIFUSE_FUNC_ATOM>  (695) 
n/a

>  <FINAL_SINGLE_POINT_ENERGY>  (695) 
0

>  <NONCOV_INTER_ENERGY_QM>  (695) 
0

>  <FF_Energy>  (695) 
5.81

>  <QM_Energy>  (695) 
21.31

>  <source>  (695) 
ACEM_nNMA_49

>  <Index>  (695) 
20900

$$$$
ACEM-pdb3wa0-C-GLN-111:NMA-pdb3wa0-C-LEU-56
     RDKit          3D

 21 19  0  0  0  0  0  0  0  0999 V2000
   -5.7110    0.3441   -0.4449 C   0  0  0  0  0  0  0  0  0  0  0  0
   -6.3491    0.1507    0.2923 H   0  0  0  0  0  0  0  0  0  0  0  0
   -5.7892   -0.3420   -1.1605 H   0  0  0  0  0  0  0  0  0  0  0  0
   -5.9345    1.3252   -0.8640 H   0  0  0  0  0  0  0  0  0  0  0  0
   -4.3167    0.3192    0.1024 C   0  0  0  0  0  0  0  0  0  0  0  0
   -3.3668   -0.1432   -0.7139 N   0  0  0  0  0  0  0  0  0  0  0  0
   -2.3922   -0.1777   -0.4178 H   0  0  0  0  0  0  0  0  0  0  0  0
   -3.6338   -0.4626   -1.6423 H   0  0  0  0  0  0  0  0  0  0  0  0
   -4.0823    0.6727    1.2623 O   0  0  0  0  0  0  0  0  0  0  0  0
   -1.0748   -2.1769   -0.0890 C   0  0  0  0  0  0  0  0  0  0  0  0
   -0.1820   -2.4963    0.3111 H   0  0  0  0  0  0  0  0  0  0  0  0
   -1.1701   -2.6061   -1.0865 H   0  0  0  0  0  0  0  0  0  0  0  0
   -1.8157   -2.6263    0.5723 H   0  0  0  0  0  0  0  0  0  0  0  0
   -1.1193   -0.7157    0.0000 N   0  0  0  0  0  0  0  0  0  0  0  0
   -1.9930   -0.1723    0.0656 H   0  0  0  0  0  0  0  0  0  0  0  0
    0.0000    0.0000    0.0000 C   0  0  0  0  0  0  0  0  0  0  0  0
    1.1193   -0.5116    0.0000 O   0  0  0  0  0  0  0  0  0  0  0  0
   -0.1586    1.5120    0.0114 C   0  0  0  0  0  0  0  0  0  0  0  0
   -1.1383    1.7312   -0.1034 H   0  0  0  0  0  0  0  0  0  0  0  0
    0.1852    1.9483    0.9493 H   0  0  0  0  0  0  0  0  0  0  0  0
    0.3934    1.9432   -0.8237 H   0  0  0  0  0  0  0  0  0  0  0  0
  1  5  1  0
  5  6  1  0
  5  9  2  0
  1  2  1  0
  1  3  1  0
  1  4  1  0
  6  7  1  0
  6  8  1  0
 10 14  1  0
 14 16  1  0
 16 17  2  0
 16 18  1  0
 10 11  1  0
 10 12  1  0
 10 13  1  0
 14 15  1  0
 18 19  1  0
 18 20  1  0
 18 21  1  0
M  END
>  <PDB_ID>  (696) 
pdb3wa0

>  <RESIDUE_NAME>  (696) 
GLN   LEU

>  <FRAG_NAME>  (696) 
ACEM   NMA

>  <FRAG_ATOM_NUM>  (696) 
fragi: 9  fragj: 12

>  <atom.prop.CHAIN_ID>  (696) 
A A A A A A A A A Z Z Z Z Z Z Z Z Z Z Z Z

>  <atom.prop.IS_HEAVY_ATOM>  (696) 
1 0 0 0 1 1 0 0 1 1 0 0 0 1 0 1 1 1 0 0 0

>  <DIFUSE_FUNC_ATOM>  (696) 
n/a

>  <FINAL_SINGLE_POINT_ENERGY>  (696) 
0

>  <NONCOV_INTER_ENERGY_QM>  (696) 
0

>  <FF_Energy>  (696) 
49.34

>  <QM_Energy>  (696) 
106.27

>  <source>  (696) 
ACEM_nNMA_49

>  <Index>  (696) 
23092

$$$$
ACEM-pdb4xh9-A-GLN-477:NMA-pdb4xh9-A-ARG-428
     RDKit          3D

 21 19  0  0  0  0  0  0  0  0999 V2000
   -6.1501   -0.2335   -1.4473 C   0  0  0  0  0  0  0  0  0  0  0  0
   -6.5244   -1.0489   -1.0067 H   0  0  0  0  0  0  0  0  0  0  0  0
   -6.5322   -0.1450   -2.3667 H   0  0  0  0  0  0  0  0  0  0  0  0
   -6.4363    0.6417   -0.8641 H   0  0  0  0  0  0  0  0  0  0  0  0
   -4.6470   -0.3928   -1.5605 C   0  0  0  0  0  0  0  0  0  0  0  0
   -3.9385   -0.1035   -0.4753 N   0  0  0  0  0  0  0  0  0  0  0  0
   -2.9260   -0.1999   -0.4709 H   0  0  0  0  0  0  0  0  0  0  0  0
   -4.4262    0.2193    0.3586 H   0  0  0  0  0  0  0  0  0  0  0  0
   -4.1289   -0.7733   -2.6099 O   0  0  0  0  0  0  0  0  0  0  0  0
   -1.0393   -2.1872   -0.0282 C   0  0  0  0  0  0  0  0  0  0  0  0
   -0.1516   -2.4583    0.3671 H   0  0  0  0  0  0  0  0  0  0  0  0
   -1.0846   -2.5666   -1.0490 H   0  0  0  0  0  0  0  0  0  0  0  0
   -1.8520   -2.6350    0.5437 H   0  0  0  0  0  0  0  0  0  0  0  0
   -1.1126   -0.7273   -0.0000 N   0  0  0  0  0  0  0  0  0  0  0  0
   -1.9920   -0.1953    0.0209 H   0  0  0  0  0  0  0  0  0  0  0  0
    0.0000    0.0000    0.0000 C   0  0  0  0  0  0  0  0  0  0  0  0
    1.1126   -0.5154   -0.0000 O   0  0  0  0  0  0  0  0  0  0  0  0
   -0.1360    1.5292    0.0118 C   0  0  0  0  0  0  0  0  0  0  0  0
   -0.1977    1.8363    0.9651 H   0  0  0  0  0  0  0  0  0  0  0  0
    0.7338    1.9945   -0.4519 H   0  0  0  0  0  0  0  0  0  0  0  0
   -1.0511    1.8512   -0.4855 H   0  0  0  0  0  0  0  0  0  0  0  0
  1  5  1  0
  5  6  1  0
  5  9  2  0
  1  2  1  0
  1  3  1  0
  1  4  1  0
  6  7  1  0
  6  8  1  0
 10 14  1  0
 14 16  1  0
 16 17  2  0
 16 18  1  0
 10 11  1  0
 10 12  1  0
 10 13  1  0
 14 15  1  0
 18 19  1  0
 18 20  1  0
 18 21  1  0
M  END
>  <PDB_ID>  (697) 
pdb4xh9

>  <RESIDUE_NAME>  (697) 
GLN   ARG

>  <FRAG_NAME>  (697) 
ACEM   NMA

>  <FRAG_ATOM_NUM>  (697) 
fragi: 9  fragj: 12

>  <atom.prop.CHAIN_ID>  (697) 
A A A A A A A A A Z Z Z Z Z Z Z Z Z Z Z Z

>  <atom.prop.IS_HEAVY_ATOM>  (697) 
1 0 0 0 1 1 0 0 1 1 0 0 0 1 0 1 1 1 0 0 0

>  <DIFUSE_FUNC_ATOM>  (697) 
n/a

>  <FINAL_SINGLE_POINT_ENERGY>  (697) 
0

>  <NONCOV_INTER_ENERGY_QM>  (697) 
0

>  <FF_Energy>  (697) 
8.78

>  <QM_Energy>  (697) 
20.72

>  <source>  (697) 
ACEM_nNMA_49

>  <Index>  (697) 
24211

$$$$
ACEM-pdb3wai-A-ASN-829:NMA-pdb3wai-A-TYR-854
     RDKit          3D

 21 19  0  0  0  0  0  0  0  0999 V2000
   -5.3081    1.5067    1.7286 C   0  0  0  0  0  0  0  0  0  0  0  0
   -6.2179    1.4339    1.3321 H   0  0  0  0  0  0  0  0  0  0  0  0
   -5.0854    2.4590    1.9125 H   0  0  0  0  0  0  0  0  0  0  0  0
   -5.2946    0.9587    2.6707 H   0  0  0  0  0  0  0  0  0  0  0  0
   -4.2980    0.9634    0.7183 C   0  0  0  0  0  0  0  0  0  0  0  0
   -3.1615    0.4818    1.2065 N   0  0  0  0  0  0  0  0  0  0  0  0
   -3.0102    0.4851    2.1991 H   0  0  0  0  0  0  0  0  0  0  0  0
   -2.4633    0.1191    0.5958 H   0  0  0  0  0  0  0  0  0  0  0  0
   -4.5413    0.9839   -0.4790 O   0  0  0  0  0  0  0  0  0  0  0  0
   -1.1016   -2.1713    0.0506 C   0  0  0  0  0  0  0  0  0  0  0  0
   -0.6729   -2.4776    0.9136 H   0  0  0  0  0  0  0  0  0  0  0  0
   -0.5590   -2.6063   -0.7887 H   0  0  0  0  0  0  0  0  0  0  0  0
   -2.1230   -2.5482    0.1043 H   0  0  0  0  0  0  0  0  0  0  0  0
   -1.1215   -0.7154   -0.0000 N   0  0  0  0  0  0  0  0  0  0  0  0
   -1.9949   -0.1545   -0.0389 H   0  0  0  0  0  0  0  0  0  0  0  0
    0.0000    0.0000    0.0000 C   0  0  0  0  0  0  0  0  0  0  0  0
    1.1215   -0.5105   -0.0000 O   0  0  0  0  0  0  0  0  0  0  0  0
   -0.1661    1.5099   -0.0577 C   0  0  0  0  0  0  0  0  0  0  0  0
   -1.0231    1.7514    0.4235 H   0  0  0  0  0  0  0  0  0  0  0  0
    0.6569    2.0301    0.4322 H   0  0  0  0  0  0  0  0  0  0  0  0
   -0.2367    1.8052   -1.1046 H   0  0  0  0  0  0  0  0  0  0  0  0
  1  5  1  0
  5  6  1  0
  5  9  2  0
  1  2  1  0
  1  3  1  0
  1  4  1  0
  6  7  1  0
  6  8  1  0
 10 14  1  0
 14 16  1  0
 16 17  2  0
 16 18  1  0
 10 11  1  0
 10 12  1  0
 10 13  1  0
 14 15  1  0
 18 19  1  0
 18 20  1  0
 18 21  1  0
M  END
>  <PDB_ID>  (698) 
pdb3wai

>  <RESIDUE_NAME>  (698) 
ASN   TYR

>  <FRAG_NAME>  (698) 
ACEM   NMA

>  <FRAG_ATOM_NUM>  (698) 
fragi: 9  fragj: 12

>  <atom.prop.CHAIN_ID>  (698) 
A A A A A A A A A Z Z Z Z Z Z Z Z Z Z Z Z

>  <atom.prop.IS_HEAVY_ATOM>  (698) 
1 0 0 0 1 1 0 0 1 1 0 0 0 1 0 1 1 1 0 0 0

>  <DIFUSE_FUNC_ATOM>  (698) 
n/a

>  <FINAL_SINGLE_POINT_ENERGY>  (698) 
0

>  <NONCOV_INTER_ENERGY_QM>  (698) 
0

>  <FF_Energy>  (698) 
16.64

>  <QM_Energy>  (698) 
46.19

>  <source>  (698) 
ACEM_nNMA_49

>  <Index>  (698) 
24867

$$$$
ACEM-pdb3wa0-D-GLN-111:NMA-pdb3wa0-D-LEU-56
     RDKit          3D

 21 19  0  0  0  0  0  0  0  0999 V2000
   -5.8325    0.3982   -0.4132 C   0  0  0  0  0  0  0  0  0  0  0  0
   -6.3845    0.5045    0.4112 H   0  0  0  0  0  0  0  0  0  0  0  0
   -6.1083   -0.4264   -0.9023 H   0  0  0  0  0  0  0  0  0  0  0  0
   -5.9938    1.2615   -1.0588 H   0  0  0  0  0  0  0  0  0  0  0  0
   -4.3789    0.2551   -0.0052 C   0  0  0  0  0  0  0  0  0  0  0  0
   -3.5617   -0.2602   -0.9125 N   0  0  0  0  0  0  0  0  0  0  0  0
   -2.5680   -0.3748   -0.7174 H   0  0  0  0  0  0  0  0  0  0  0  0
   -3.9415   -0.5439   -1.8146 H   0  0  0  0  0  0  0  0  0  0  0  0
   -3.9960    0.5992    1.1138 O   0  0  0  0  0  0  0  0  0  0  0  0
   -1.0782   -2.1716   -0.0891 C   0  0  0  0  0  0  0  0  0  0  0  0
   -0.2075   -2.4998    0.3393 H   0  0  0  0  0  0  0  0  0  0  0  0
   -1.1323   -2.5769   -1.0995 H   0  0  0  0  0  0  0  0  0  0  0  0
   -1.8650   -2.6129    0.5228 H   0  0  0  0  0  0  0  0  0  0  0  0
   -1.1188   -0.7181   -0.0000 N   0  0  0  0  0  0  0  0  0  0  0  0
   -1.9934   -0.1693    0.0670 H   0  0  0  0  0  0  0  0  0  0  0  0
    0.0000    0.0000    0.0000 C   0  0  0  0  0  0  0  0  0  0  0  0
    1.1188   -0.5060    0.0000 O   0  0  0  0  0  0  0  0  0  0  0  0
   -0.1703    1.5163    0.0268 C   0  0  0  0  0  0  0  0  0  0  0  0
   -1.1538    1.7260   -0.0808 H   0  0  0  0  0  0  0  0  0  0  0  0
    0.1775    1.9526    0.9632 H   0  0  0  0  0  0  0  0  0  0  0  0
    0.3607    1.9606   -0.8151 H   0  0  0  0  0  0  0  0  0  0  0  0
  1  5  1  0
  5  6  1  0
  5  9  2  0
  1  2  1  0
  1  3  1  0
  1  4  1  0
  6  7  1  0
  6  8  1  0
 10 14  1  0
 14 16  1  0
 16 17  2  0
 16 18  1  0
 10 11  1  0
 10 12  1  0
 10 13  1  0
 14 15  1  0
 18 19  1  0
 18 20  1  0
 18 21  1  0
M  END
>  <PDB_ID>  (699) 
pdb3wa0

>  <RESIDUE_NAME>  (699) 
GLN   LEU

>  <FRAG_NAME>  (699) 
ACEM   NMA

>  <FRAG_ATOM_NUM>  (699) 
fragi: 9  fragj: 12

>  <atom.prop.CHAIN_ID>  (699) 
A A A A A A A A A Z Z Z Z Z Z Z Z Z Z Z Z

>  <atom.prop.IS_HEAVY_ATOM>  (699) 
1 0 0 0 1 1 0 0 1 1 0 0 0 1 0 1 1 1 0 0 0

>  <DIFUSE_FUNC_ATOM>  (699) 
n/a

>  <FINAL_SINGLE_POINT_ENERGY>  (699) 
0

>  <NONCOV_INTER_ENERGY_QM>  (699) 
0

>  <FF_Energy>  (699) 
9.42

>  <QM_Energy>  (699) 
27.56

>  <source>  (699) 
ACEM_nNMA_49

>  <Index>  (699) 
25409

$$$$
ACEM-pdb3wb9-A-GLN-259:NMA-pdb3wb9-C-SER-237
     RDKit          3D

 21 19  0  0  0  0  0  0  0  0999 V2000
   -3.2798    1.4540   -2.6867 C   0  0  0  0  0  0  0  0  0  0  0  0
   -2.8628    1.9722   -1.9394 H   0  0  0  0  0  0  0  0  0  0  0  0
   -3.8971    2.0508   -3.2008 H   0  0  0  0  0  0  0  0  0  0  0  0
   -2.4878    1.1200   -3.3569 H   0  0  0  0  0  0  0  0  0  0  0  0
   -4.0800    0.3105   -2.1001 C   0  0  0  0  0  0  0  0  0  0  0  0
   -3.6658   -0.1517   -0.9306 N   0  0  0  0  0  0  0  0  0  0  0  0
   -4.1611   -0.9132   -0.4631 H   0  0  0  0  0  0  0  0  0  0  0  0
   -2.8413    0.2612   -0.4982 H   0  0  0  0  0  0  0  0  0  0  0  0
   -5.0547   -0.1626   -2.6977 O   0  0  0  0  0  0  0  0  0  0  0  0
   -1.0624   -2.1624    0.0029 C   0  0  0  0  0  0  0  0  0  0  0  0
   -1.9762   -2.5379   -0.1413 H   0  0  0  0  0  0  0  0  0  0  0  0
   -0.4525   -2.4766   -0.7227 H   0  0  0  0  0  0  0  0  0  0  0  0
   -0.6800   -2.4922    0.9689 H   0  0  0  0  0  0  0  0  0  0  0  0
   -1.1220   -0.7106    0.0000 N   0  0  0  0  0  0  0  0  0  0  0  0
   -1.9936   -0.1656   -0.0026 H   0  0  0  0  0  0  0  0  0  0  0  0
    0.0000    0.0000    0.0000 C   0  0  0  0  0  0  0  0  0  0  0  0
    1.1220   -0.5211   -0.0000 O   0  0  0  0  0  0  0  0  0  0  0  0
   -0.1477    1.5195    0.0279 C   0  0  0  0  0  0  0  0  0  0  0  0
   -1.0995    1.7304    0.0275 H   0  0  0  0  0  0  0  0  0  0  0  0
    0.2636    1.7747    1.0046 H   0  0  0  0  0  0  0  0  0  0  0  0
    0.4347    1.9568   -0.7831 H   0  0  0  0  0  0  0  0  0  0  0  0
  1  5  1  0
  5  6  1  0
  5  9  2  0
  1  2  1  0
  1  3  1  0
  1  4  1  0
  6  7  1  0
  6  8  1  0
 10 14  1  0
 14 16  1  0
 16 17  2  0
 16 18  1  0
 10 11  1  0
 10 12  1  0
 10 13  1  0
 14 15  1  0
 18 19  1  0
 18 20  1  0
 18 21  1  0
M  END
>  <PDB_ID>  (700) 
pdb3wb9

>  <RESIDUE_NAME>  (700) 
GLN   SER

>  <FRAG_NAME>  (700) 
ACEM   NMA

>  <FRAG_ATOM_NUM>  (700) 
fragi: 9  fragj: 12

>  <atom.prop.CHAIN_ID>  (700) 
A A A A A A A A A Z Z Z Z Z Z Z Z Z Z Z Z

>  <atom.prop.IS_HEAVY_ATOM>  (700) 
1 0 0 0 1 1 0 0 1 1 0 0 0 1 0 1 1 1 0 0 0

>  <DIFUSE_FUNC_ATOM>  (700) 
n/a

>  <FINAL_SINGLE_POINT_ENERGY>  (700) 
0

>  <NONCOV_INTER_ENERGY_QM>  (700) 
0

>  <FF_Energy>  (700) 
11.82

>  <QM_Energy>  (700) 
23.71

>  <source>  (700) 
ACEM_nNMA_49

>  <Index>  (700) 
26711

$$$$
ACEM-pdb3wa0-E-GLN-111:NMA-pdb3wa0-E-LEU-56
     RDKit          3D

 21 19  0  0  0  0  0  0  0  0999 V2000
   -5.8033    0.3646   -0.2541 C   0  0  0  0  0  0  0  0  0  0  0  0
   -6.3840    0.2912    0.5518 H   0  0  0  0  0  0  0  0  0  0  0  0
   -5.9391   -0.4227   -0.8483 H   0  0  0  0  0  0  0  0  0  0  0  0
   -6.0604    1.2728   -0.7990 H   0  0  0  0  0  0  0  0  0  0  0  0
   -4.3631    0.3906    0.1915 C   0  0  0  0  0  0  0  0  0  0  0  0
   -3.4589   -0.0324   -0.6916 N   0  0  0  0  0  0  0  0  0  0  0  0
   -2.4677   -0.0305   -0.4669 H   0  0  0  0  0  0  0  0  0  0  0  0
   -3.7799   -0.3604   -1.6010 H   0  0  0  0  0  0  0  0  0  0  0  0
   -4.0640    0.7627    1.3260 O   0  0  0  0  0  0  0  0  0  0  0  0
   -1.0495   -2.1671   -0.1074 C   0  0  0  0  0  0  0  0  0  0  0  0
   -0.1545   -2.4790    0.2889 H   0  0  0  0  0  0  0  0  0  0  0  0
   -1.1338   -2.5724   -1.1157 H   0  0  0  0  0  0  0  0  0  0  0  0
   -1.7685   -2.6411    0.5607 H   0  0  0  0  0  0  0  0  0  0  0  0
   -1.1177   -0.7155   -0.0000 N   0  0  0  0  0  0  0  0  0  0  0  0
   -1.9908   -0.1814    0.0783 H   0  0  0  0  0  0  0  0  0  0  0  0
    0.0000    0.0000    0.0000 C   0  0  0  0  0  0  0  0  0  0  0  0
    1.1177   -0.5115   -0.0000 O   0  0  0  0  0  0  0  0  0  0  0  0
   -0.1572    1.5057    0.0467 C   0  0  0  0  0  0  0  0  0  0  0  0
   -1.1306    1.7309   -0.0605 H   0  0  0  0  0  0  0  0  0  0  0  0
    0.1840    1.8948    1.0061 H   0  0  0  0  0  0  0  0  0  0  0  0
    0.4076    1.9531   -0.7712 H   0  0  0  0  0  0  0  0  0  0  0  0
  1  5  1  0
  5  6  1  0
  5  9  2  0
  1  2  1  0
  1  3  1  0
  1  4  1  0
  6  7  1  0
  6  8  1  0
 10 14  1  0
 14 16  1  0
 16 17  2  0
 16 18  1  0
 10 11  1  0
 10 12  1  0
 10 13  1  0
 14 15  1  0
 18 19  1  0
 18 20  1  0
 18 21  1  0
M  END
>  <PDB_ID>  (701) 
pdb3wa0

>  <RESIDUE_NAME>  (701) 
GLN   LEU

>  <FRAG_NAME>  (701) 
ACEM   NMA

>  <FRAG_ATOM_NUM>  (701) 
fragi: 9  fragj: 12

>  <atom.prop.CHAIN_ID>  (701) 
A A A A A A A A A Z Z Z Z Z Z Z Z Z Z Z Z

>  <atom.prop.IS_HEAVY_ATOM>  (701) 
1 0 0 0 1 1 0 0 1 1 0 0 0 1 0 1 1 1 0 0 0

>  <DIFUSE_FUNC_ATOM>  (701) 
n/a

>  <FINAL_SINGLE_POINT_ENERGY>  (701) 
0

>  <NONCOV_INTER_ENERGY_QM>  (701) 
0

>  <FF_Energy>  (701) 
27.55

>  <QM_Energy>  (701) 
67.7

>  <source>  (701) 
ACEM_nNMA_49

>  <Index>  (701) 
27448

$$$$
ACEM-pdb3wi7-A-ASN-137:NMA-pdb3wi7-A-ASP-214
     RDKit          3D

 21 19  0  0  0  0  0  0  0  0999 V2000
   -5.5889   -0.5043   -1.8699 C   0  0  0  0  0  0  0  0  0  0  0  0
   -5.6901   -1.4589   -1.6233 H   0  0  0  0  0  0  0  0  0  0  0  0
   -5.7049   -0.3756   -2.8457 H   0  0  0  0  0  0  0  0  0  0  0  0
   -6.3531    0.0731   -1.3495 H   0  0  0  0  0  0  0  0  0  0  0  0
   -4.1883   -0.0506   -1.4848 C   0  0  0  0  0  0  0  0  0  0  0  0
   -3.8576   -0.0640   -0.2034 N   0  0  0  0  0  0  0  0  0  0  0  0
   -4.5438   -0.3795    0.4670 H   0  0  0  0  0  0  0  0  0  0  0  0
   -2.9595    0.2272    0.0962 H   0  0  0  0  0  0  0  0  0  0  0  0
   -3.4075    0.3112   -2.3473 O   0  0  0  0  0  0  0  0  0  0  0  0
   -1.1660   -2.1053   -0.0609 C   0  0  0  0  0  0  0  0  0  0  0  0
   -2.0247   -2.4131   -0.5397 H   0  0  0  0  0  0  0  0  0  0  0  0
   -0.3977   -2.4531   -0.6524 H   0  0  0  0  0  0  0  0  0  0  0  0
   -1.1119   -2.6142    0.9015 H   0  0  0  0  0  0  0  0  0  0  0  0
   -1.1268   -0.6925    0.0000 N   0  0  0  0  0  0  0  0  0  0  0  0
   -1.9903   -0.0844    0.0494 H   0  0  0  0  0  0  0  0  0  0  0  0
    0.0000    0.0000    0.0000 C   0  0  0  0  0  0  0  0  0  0  0  0
    1.1268   -0.5652    0.0000 O   0  0  0  0  0  0  0  0  0  0  0  0
   -0.1102    1.4965   -0.0670 C   0  0  0  0  0  0  0  0  0  0  0  0
   -0.2360    1.7482   -1.0512 H   0  0  0  0  0  0  0  0  0  0  0  0
   -0.9592    1.9125    0.4755 H   0  0  0  0  0  0  0  0  0  0  0  0
    0.8114    1.9869    0.2464 H   0  0  0  0  0  0  0  0  0  0  0  0
  1  5  1  0
  5  6  1  0
  5  9  2  0
  1  2  1  0
  1  3  1  0
  1  4  1  0
  6  7  1  0
  6  8  1  0
 10 14  1  0
 14 16  1  0
 16 17  2  0
 16 18  1  0
 10 11  1  0
 10 12  1  0
 10 13  1  0
 14 15  1  0
 18 19  1  0
 18 20  1  0
 18 21  1  0
M  END
>  <PDB_ID>  (702) 
pdb3wi7

>  <RESIDUE_NAME>  (702) 
ASN   ASP

>  <FRAG_NAME>  (702) 
ACEM   NMA

>  <FRAG_ATOM_NUM>  (702) 
fragi: 9  fragj: 12

>  <atom.prop.CHAIN_ID>  (702) 
A A A A A A A A A Z Z Z Z Z Z Z Z Z Z Z Z

>  <atom.prop.IS_HEAVY_ATOM>  (702) 
1 0 0 0 1 1 0 0 1 1 0 0 0 1 0 1 1 1 0 0 0

>  <DIFUSE_FUNC_ATOM>  (702) 
n/a

>  <FINAL_SINGLE_POINT_ENERGY>  (702) 
0

>  <NONCOV_INTER_ENERGY_QM>  (702) 
0

>  <FF_Energy>  (702) 
9.16

>  <QM_Energy>  (702) 
24.88

>  <source>  (702) 
ACEM_nNMA_49

>  <Index>  (702) 
28781

$$$$
ACEM-pdb3wfc-H-ASN-207:NMA-pdb3wfc-H-ASN-166
     RDKit          3D

 21 19  0  0  0  0  0  0  0  0999 V2000
   -5.9832   -0.8779    0.3698 C   0  0  0  0  0  0  0  0  0  0  0  0
   -5.8110   -1.3482    1.2307 H   0  0  0  0  0  0  0  0  0  0  0  0
   -6.3886   -1.5054   -0.2893 H   0  0  0  0  0  0  0  0  0  0  0  0
   -6.7082   -0.0873    0.5630 H   0  0  0  0  0  0  0  0  0  0  0  0
   -4.6759   -0.3586   -0.1804 C   0  0  0  0  0  0  0  0  0  0  0  0
   -3.5793   -0.5751    0.5389 N   0  0  0  0  0  0  0  0  0  0  0  0
   -3.6570   -1.0754    1.4073 H   0  0  0  0  0  0  0  0  0  0  0  0
   -2.6951   -0.2499    0.2240 H   0  0  0  0  0  0  0  0  0  0  0  0
   -4.6565    0.2028   -1.2636 O   0  0  0  0  0  0  0  0  0  0  0  0
   -1.1591   -2.1787    0.1175 C   0  0  0  0  0  0  0  0  0  0  0  0
   -2.1275   -2.4529    0.2405 H   0  0  0  0  0  0  0  0  0  0  0  0
   -0.5896   -2.5446    0.9719 H   0  0  0  0  0  0  0  0  0  0  0  0
   -0.8021   -2.6617   -0.7921 H   0  0  0  0  0  0  0  0  0  0  0  0
   -1.1265   -0.7141    0.0000 N   0  0  0  0  0  0  0  0  0  0  0  0
   -1.9982   -0.1372   -0.0916 H   0  0  0  0  0  0  0  0  0  0  0  0
    0.0000    0.0000    0.0000 C   0  0  0  0  0  0  0  0  0  0  0  0
    1.1265   -0.4931   -0.0000 O   0  0  0  0  0  0  0  0  0  0  0  0
   -0.1793    1.5081    0.0079 C   0  0  0  0  0  0  0  0  0  0  0  0
   -0.6351    1.7627   -0.8704 H   0  0  0  0  0  0  0  0  0  0  0  0
   -0.8106    1.8992    0.8059 H   0  0  0  0  0  0  0  0  0  0  0  0
    0.7881    2.0093   -0.0224 H   0  0  0  0  0  0  0  0  0  0  0  0
  1  5  1  0
  5  6  1  0
  5  9  2  0
  1  2  1  0
  1  3  1  0
  1  4  1  0
  6  7  1  0
  6  8  1  0
 10 14  1  0
 14 16  1  0
 16 17  2  0
 16 18  1  0
 10 11  1  0
 10 12  1  0
 10 13  1  0
 14 15  1  0
 18 19  1  0
 18 20  1  0
 18 21  1  0
M  END
>  <PDB_ID>  (703) 
pdb3wfc

>  <RESIDUE_NAME>  (703) 
ASN   ASN

>  <FRAG_NAME>  (703) 
ACEM   NMA

>  <FRAG_ATOM_NUM>  (703) 
fragi: 9  fragj: 12

>  <atom.prop.CHAIN_ID>  (703) 
A A A A A A A A A Z Z Z Z Z Z Z Z Z Z Z Z

>  <atom.prop.IS_HEAVY_ATOM>  (703) 
1 0 0 0 1 1 0 0 1 1 0 0 0 1 0 1 1 1 0 0 0

>  <DIFUSE_FUNC_ATOM>  (703) 
n/a

>  <FINAL_SINGLE_POINT_ENERGY>  (703) 
0

>  <NONCOV_INTER_ENERGY_QM>  (703) 
0

>  <FF_Energy>  (703) 
30.93

>  <QM_Energy>  (703) 
62.53

>  <source>  (703) 
ACEM_nNMA_50

>  <Index>  (703) 
1348

$$$$
ACEM-pdb3wmt-A-ASN-155:NMA-pdb3wmt-A-GLY-125
     RDKit          3D

 21 19  0  0  0  0  0  0  0  0999 V2000
   -4.8537    0.7896   -2.8280 C   0  0  0  0  0  0  0  0  0  0  0  0
   -4.4257    1.2127   -3.6205 H   0  0  0  0  0  0  0  0  0  0  0  0
   -5.7986    1.0904   -2.7441 H   0  0  0  0  0  0  0  0  0  0  0  0
   -4.8493   -0.2909   -2.9717 H   0  0  0  0  0  0  0  0  0  0  0  0
   -4.1029    1.1825   -1.5978 C   0  0  0  0  0  0  0  0  0  0  0  0
   -3.3373    0.3165   -1.0843 N   0  0  0  0  0  0  0  0  0  0  0  0
   -3.2257   -0.6082   -1.4882 H   0  0  0  0  0  0  0  0  0  0  0  0
   -2.7993    0.5153   -0.2426 H   0  0  0  0  0  0  0  0  0  0  0  0
   -4.0943    2.3854   -1.2625 O   0  0  0  0  0  0  0  0  0  0  0  0
   -1.1394   -2.1678   -0.2757 C   0  0  0  0  0  0  0  0  0  0  0  0
   -0.2401   -2.5288   -0.0291 H   0  0  0  0  0  0  0  0  0  0  0  0
   -1.3193   -2.3545   -1.3345 H   0  0  0  0  0  0  0  0  0  0  0  0
   -1.9035   -2.6567    0.3287 H   0  0  0  0  0  0  0  0  0  0  0  0
   -1.1287   -0.6946    0.0000 N   0  0  0  0  0  0  0  0  0  0  0  0
   -1.9880   -0.1627    0.2000 H   0  0  0  0  0  0  0  0  0  0  0  0
    0.0000    0.0000    0.0000 C   0  0  0  0  0  0  0  0  0  0  0  0
    1.1287   -0.4877   -0.0000 O   0  0  0  0  0  0  0  0  0  0  0  0
   -0.2486    1.4529    0.0491 C   0  0  0  0  0  0  0  0  0  0  0  0
   -0.1872    1.7862    1.0076 H   0  0  0  0  0  0  0  0  0  0  0  0
   -1.1920    1.6584   -0.2712 H   0  0  0  0  0  0  0  0  0  0  0  0
    0.4632    2.0042   -0.5654 H   0  0  0  0  0  0  0  0  0  0  0  0
  1  5  1  0
  5  6  1  0
  5  9  2  0
  1  2  1  0
  1  3  1  0
  1  4  1  0
  6  7  1  0
  6  8  1  0
 10 14  1  0
 14 16  1  0
 16 17  2  0
 16 18  1  0
 10 11  1  0
 10 12  1  0
 10 13  1  0
 14 15  1  0
 18 19  1  0
 18 20  1  0
 18 21  1  0
M  END
>  <PDB_ID>  (704) 
pdb3wmt

>  <RESIDUE_NAME>  (704) 
ASN   GLY

>  <FRAG_NAME>  (704) 
ACEM   NMA

>  <FRAG_ATOM_NUM>  (704) 
fragi: 9  fragj: 12

>  <atom.prop.CHAIN_ID>  (704) 
A A A A A A A A A Z Z Z Z Z Z Z Z Z Z Z Z

>  <atom.prop.IS_HEAVY_ATOM>  (704) 
1 0 0 0 1 1 0 0 1 1 0 0 0 1 0 1 1 1 0 0 0

>  <DIFUSE_FUNC_ATOM>  (704) 
n/a

>  <FINAL_SINGLE_POINT_ENERGY>  (704) 
0

>  <NONCOV_INTER_ENERGY_QM>  (704) 
0

>  <FF_Energy>  (704) 
10.71

>  <QM_Energy>  (704) 
21.36

>  <source>  (704) 
ACEM_nNMA_50

>  <Index>  (704) 
1692

$$$$
ACEM-pdb3wi7-B-ASN-137:NMA-pdb3wi7-B-ASP-214
     RDKit          3D

 21 19  0  0  0  0  0  0  0  0999 V2000
   -5.5765   -0.6818   -1.8687 C   0  0  0  0  0  0  0  0  0  0  0  0
   -5.6801   -1.6482   -1.6293 H   0  0  0  0  0  0  0  0  0  0  0  0
   -5.7170   -0.5662   -2.8528 H   0  0  0  0  0  0  0  0  0  0  0  0
   -6.3466   -0.1156   -1.3449 H   0  0  0  0  0  0  0  0  0  0  0  0
   -4.1749   -0.2463   -1.5254 C   0  0  0  0  0  0  0  0  0  0  0  0
   -3.8334   -0.3000   -0.2732 N   0  0  0  0  0  0  0  0  0  0  0  0
   -4.4831   -0.6248    0.4255 H   0  0  0  0  0  0  0  0  0  0  0  0
   -2.9127   -0.0175    0.0237 H   0  0  0  0  0  0  0  0  0  0  0  0
   -3.4092    0.0553   -2.3974 O   0  0  0  0  0  0  0  0  0  0  0  0
   -1.2007   -2.1470   -0.0431 C   0  0  0  0  0  0  0  0  0  0  0  0
   -2.0881   -2.4155   -0.5042 H   0  0  0  0  0  0  0  0  0  0  0  0
   -0.4688   -2.4976   -0.6870 H   0  0  0  0  0  0  0  0  0  0  0  0
   -1.1198   -2.6681    0.9108 H   0  0  0  0  0  0  0  0  0  0  0  0
   -1.1223   -0.7047    0.0000 N   0  0  0  0  0  0  0  0  0  0  0  0
   -1.9946   -0.0921    0.0357 H   0  0  0  0  0  0  0  0  0  0  0  0
    0.0000    0.0000    0.0000 C   0  0  0  0  0  0  0  0  0  0  0  0
    1.1223   -0.5271    0.0000 O   0  0  0  0  0  0  0  0  0  0  0  0
   -0.1604    1.5209   -0.1377 C   0  0  0  0  0  0  0  0  0  0  0  0
   -0.3239    1.7170   -1.1048 H   0  0  0  0  0  0  0  0  0  0  0  0
   -1.0446    1.8608    0.4015 H   0  0  0  0  0  0  0  0  0  0  0  0
    0.7221    2.0546    0.2152 H   0  0  0  0  0  0  0  0  0  0  0  0
  1  5  1  0
  5  6  1  0
  5  9  2  0
  1  2  1  0
  1  3  1  0
  1  4  1  0
  6  7  1  0
  6  8  1  0
 10 14  1  0
 14 16  1  0
 16 17  2  0
 16 18  1  0
 10 11  1  0
 10 12  1  0
 10 13  1  0
 14 15  1  0
 18 19  1  0
 18 20  1  0
 18 21  1  0
M  END
>  <PDB_ID>  (705) 
pdb3wi7

>  <RESIDUE_NAME>  (705) 
ASN   ASP

>  <FRAG_NAME>  (705) 
ACEM   NMA

>  <FRAG_ATOM_NUM>  (705) 
fragi: 9  fragj: 12

>  <atom.prop.CHAIN_ID>  (705) 
A A A A A A A A A Z Z Z Z Z Z Z Z Z Z Z Z

>  <atom.prop.IS_HEAVY_ATOM>  (705) 
1 0 0 0 1 1 0 0 1 1 0 0 0 1 0 1 1 1 0 0 0

>  <DIFUSE_FUNC_ATOM>  (705) 
n/a

>  <FINAL_SINGLE_POINT_ENERGY>  (705) 
0

>  <NONCOV_INTER_ENERGY_QM>  (705) 
0

>  <FF_Energy>  (705) 
12.98

>  <QM_Energy>  (705) 
33.73

>  <source>  (705) 
ACEM_nNMA_50

>  <Index>  (705) 
2166

$$$$
ACEM-pdb4xso-A-ASN-321:NMA-pdb4xso-A-VAL-316
     RDKit          3D

 21 19  0  0  0  0  0  0  0  0999 V2000
   -5.6938    1.1769   -0.6644 C   0  0  0  0  0  0  0  0  0  0  0  0
   -5.7123    2.1636   -0.5533 H   0  0  0  0  0  0  0  0  0  0  0  0
   -6.5057    0.7651   -0.2664 H   0  0  0  0  0  0  0  0  0  0  0  0
   -5.6684    0.9434   -1.7288 H   0  0  0  0  0  0  0  0  0  0  0  0
   -4.4741    0.6351    0.0616 C   0  0  0  0  0  0  0  0  0  0  0  0
   -3.2731    0.7308   -0.5421 N   0  0  0  0  0  0  0  0  0  0  0  0
   -3.2473    1.1667   -1.4493 H   0  0  0  0  0  0  0  0  0  0  0  0
   -2.4645    0.3881   -0.1074 H   0  0  0  0  0  0  0  0  0  0  0  0
   -4.6188    0.1934    1.1788 O   0  0  0  0  0  0  0  0  0  0  0  0
   -1.0360   -2.1617   -0.3608 C   0  0  0  0  0  0  0  0  0  0  0  0
   -0.1024   -2.4858   -0.2194 H   0  0  0  0  0  0  0  0  0  0  0  0
   -1.3158   -2.3046   -1.4046 H   0  0  0  0  0  0  0  0  0  0  0  0
   -1.6335   -2.7761    0.3128 H   0  0  0  0  0  0  0  0  0  0  0  0
   -1.1163   -0.7194   -0.0000 N   0  0  0  0  0  0  0  0  0  0  0  0
   -1.9739   -0.2432    0.2480 H   0  0  0  0  0  0  0  0  0  0  0  0
    0.0000    0.0000    0.0000 C   0  0  0  0  0  0  0  0  0  0  0  0
    1.1163   -0.5001   -0.0000 O   0  0  0  0  0  0  0  0  0  0  0  0
   -0.1266    1.4687   -0.0736 C   0  0  0  0  0  0  0  0  0  0  0  0
   -1.0643    1.7326    0.1060 H   0  0  0  0  0  0  0  0  0  0  0  0
    0.4804    1.8585    0.7437 H   0  0  0  0  0  0  0  0  0  0  0  0
    0.2319    1.7946   -1.0500 H   0  0  0  0  0  0  0  0  0  0  0  0
  1  5  1  0
  5  6  1  0
  5  9  2  0
  1  2  1  0
  1  3  1  0
  1  4  1  0
  6  7  1  0
  6  8  1  0
 10 14  1  0
 14 16  1  0
 16 17  2  0
 16 18  1  0
 10 11  1  0
 10 12  1  0
 10 13  1  0
 14 15  1  0
 18 19  1  0
 18 20  1  0
 18 21  1  0
M  END
>  <PDB_ID>  (706) 
pdb4xso

>  <RESIDUE_NAME>  (706) 
ASN   VAL

>  <FRAG_NAME>  (706) 
ACEM   NMA

>  <FRAG_ATOM_NUM>  (706) 
fragi: 9  fragj: 12

>  <atom.prop.CHAIN_ID>  (706) 
A A A A A A A A A Z Z Z Z Z Z Z Z Z Z Z Z

>  <atom.prop.IS_HEAVY_ATOM>  (706) 
1 0 0 0 1 1 0 0 1 1 0 0 0 1 0 1 1 1 0 0 0

>  <DIFUSE_FUNC_ATOM>  (706) 
n/a

>  <FINAL_SINGLE_POINT_ENERGY>  (706) 
0

>  <NONCOV_INTER_ENERGY_QM>  (706) 
0

>  <FF_Energy>  (706) 
17.92

>  <QM_Energy>  (706) 
43.15

>  <source>  (706) 
ACEM_nNMA_50

>  <Index>  (706) 
4288

$$$$
ACEM-pdb3wmt-B-GLN-208:NMA-pdb3wmt-B-GLY-122
     RDKit          3D

 21 19  0  0  0  0  0  0  0  0999 V2000
   -5.3782    2.1387    0.4586 C   0  0  0  0  0  0  0  0  0  0  0  0
   -5.8694    2.4895    1.2613 H   0  0  0  0  0  0  0  0  0  0  0  0
   -6.0000    1.5572   -0.0733 H   0  0  0  0  0  0  0  0  0  0  0  0
   -5.1284    2.9968   -0.1654 H   0  0  0  0  0  0  0  0  0  0  0  0
   -4.2059    1.4156    0.8500 C   0  0  0  0  0  0  0  0  0  0  0  0
   -3.4062    1.0352   -0.1395 N   0  0  0  0  0  0  0  0  0  0  0  0
   -2.5210    0.5156    0.0441 H   0  0  0  0  0  0  0  0  0  0  0  0
   -3.6616    1.2541   -1.0999 H   0  0  0  0  0  0  0  0  0  0  0  0
   -3.9216    1.1839    1.9727 O   0  0  0  0  0  0  0  0  0  0  0  0
   -1.2915   -2.0548    0.4209 C   0  0  0  0  0  0  0  0  0  0  0  0
   -0.3746   -2.4254    0.5795 H   0  0  0  0  0  0  0  0  0  0  0  0
   -1.7373   -2.6522   -0.3744 H   0  0  0  0  0  0  0  0  0  0  0  0
   -1.8166   -2.0812    1.3756 H   0  0  0  0  0  0  0  0  0  0  0  0
   -1.1226   -0.6421    0.0000 N   0  0  0  0  0  0  0  0  0  0  0  0
   -1.9575   -0.0768   -0.3332 H   0  0  0  0  0  0  0  0  0  0  0  0
    0.0000    0.0000    0.0000 C   0  0  0  0  0  0  0  0  0  0  0  0
    1.1226   -0.5672   -0.0000 O   0  0  0  0  0  0  0  0  0  0  0  0
   -0.0548    1.5320   -0.1630 C   0  0  0  0  0  0  0  0  0  0  0  0
   -0.1610    1.9531    0.7400 H   0  0  0  0  0  0  0  0  0  0  0  0
   -0.8449    1.7723   -0.7306 H   0  0  0  0  0  0  0  0  0  0  0  0
    0.8581    1.8987   -0.6322 H   0  0  0  0  0  0  0  0  0  0  0  0
  1  5  1  0
  5  6  1  0
  5  9  2  0
  1  2  1  0
  1  3  1  0
  1  4  1  0
  6  7  1  0
  6  8  1  0
 10 14  1  0
 14 16  1  0
 16 17  2  0
 16 18  1  0
 10 11  1  0
 10 12  1  0
 10 13  1  0
 14 15  1  0
 18 19  1  0
 18 20  1  0
 18 21  1  0
M  END
>  <PDB_ID>  (707) 
pdb3wmt

>  <RESIDUE_NAME>  (707) 
GLN   GLY

>  <FRAG_NAME>  (707) 
ACEM   NMA

>  <FRAG_ATOM_NUM>  (707) 
fragi: 9  fragj: 12

>  <atom.prop.CHAIN_ID>  (707) 
A A A A A A A A A Z Z Z Z Z Z Z Z Z Z Z Z

>  <atom.prop.IS_HEAVY_ATOM>  (707) 
1 0 0 0 1 1 0 0 1 1 0 0 0 1 0 1 1 1 0 0 0

>  <DIFUSE_FUNC_ATOM>  (707) 
n/a

>  <FINAL_SINGLE_POINT_ENERGY>  (707) 
0

>  <NONCOV_INTER_ENERGY_QM>  (707) 
0

>  <FF_Energy>  (707) 
13.38

>  <QM_Energy>  (707) 
34.31

>  <source>  (707) 
ACEM_nNMA_50

>  <Index>  (707) 
6547

$$$$
ACEM-pdb3wrn-A-ASN-162:NMA-pdb3wrn-A-TYR-47
     RDKit          3D

 21 19  0  0  0  0  0  0  0  0999 V2000
   -4.6514   -0.0627   -1.7903 C   0  0  0  0  0  0  0  0  0  0  0  0
   -5.4762   -0.6013   -1.9505 H   0  0  0  0  0  0  0  0  0  0  0  0
   -3.8476   -0.6517   -1.8328 H   0  0  0  0  0  0  0  0  0  0  0  0
   -4.5709    0.6833   -2.5810 H   0  0  0  0  0  0  0  0  0  0  0  0
   -4.7347    0.5399   -0.3848 C   0  0  0  0  0  0  0  0  0  0  0  0
   -3.6676    0.3915    0.3973 N   0  0  0  0  0  0  0  0  0  0  0  0
   -2.8639   -0.0934    0.0434 H   0  0  0  0  0  0  0  0  0  0  0  0
   -3.6667    0.7575    1.3223 H   0  0  0  0  0  0  0  0  0  0  0  0
   -5.7284    1.1687   -0.0274 O   0  0  0  0  0  0  0  0  0  0  0  0
   -1.0888   -2.1474    0.2527 C   0  0  0  0  0  0  0  0  0  0  0  0
   -0.2024   -2.3794    0.7087 H   0  0  0  0  0  0  0  0  0  0  0  0
   -1.1891   -2.7662   -0.6391 H   0  0  0  0  0  0  0  0  0  0  0  0
   -1.8625   -2.4015    0.9772 H   0  0  0  0  0  0  0  0  0  0  0  0
   -1.1182   -0.7130    0.0000 N   0  0  0  0  0  0  0  0  0  0  0  0
   -1.9830   -0.1801   -0.1886 H   0  0  0  0  0  0  0  0  0  0  0  0
    0.0000    0.0000    0.0000 C   0  0  0  0  0  0  0  0  0  0  0  0
    1.1182   -0.5116    0.0000 O   0  0  0  0  0  0  0  0  0  0  0  0
   -0.1746    1.5104   -0.0085 C   0  0  0  0  0  0  0  0  0  0  0  0
   -0.5790    1.7753   -0.8898 H   0  0  0  0  0  0  0  0  0  0  0  0
   -0.8532    1.8196    0.7865 H   0  0  0  0  0  0  0  0  0  0  0  0
    0.7830    2.0161    0.1159 H   0  0  0  0  0  0  0  0  0  0  0  0
  1  5  1  0
  5  6  1  0
  5  9  2  0
  1  2  1  0
  1  3  1  0
  1  4  1  0
  6  7  1  0
  6  8  1  0
 10 14  1  0
 14 16  1  0
 16 17  2  0
 16 18  1  0
 10 11  1  0
 10 12  1  0
 10 13  1  0
 14 15  1  0
 18 19  1  0
 18 20  1  0
 18 21  1  0
M  END
>  <PDB_ID>  (708) 
pdb3wrn

>  <RESIDUE_NAME>  (708) 
ASN   TYR

>  <FRAG_NAME>  (708) 
ACEM   NMA

>  <FRAG_ATOM_NUM>  (708) 
fragi: 9  fragj: 12

>  <atom.prop.CHAIN_ID>  (708) 
A A A A A A A A A Z Z Z Z Z Z Z Z Z Z Z Z

>  <atom.prop.IS_HEAVY_ATOM>  (708) 
1 0 0 0 1 1 0 0 1 1 0 0 0 1 0 1 1 1 0 0 0

>  <DIFUSE_FUNC_ATOM>  (708) 
n/a

>  <FINAL_SINGLE_POINT_ENERGY>  (708) 
0

>  <NONCOV_INTER_ENERGY_QM>  (708) 
0

>  <FF_Energy>  (708) 
12.49

>  <QM_Energy>  (708) 
33.59

>  <source>  (708) 
ACEM_nNMA_50

>  <Index>  (708) 
7136

$$$$
ACEM-pdb3wuz-A-GLN-105:NMA-pdb3wuz-A-TRP-101
     RDKit          3D

 21 19  0  0  0  0  0  0  0  0999 V2000
   -5.2956   -0.5083    0.7066 C   0  0  0  0  0  0  0  0  0  0  0  0
   -6.2045   -0.5925    1.0790 H   0  0  0  0  0  0  0  0  0  0  0  0
   -4.8571   -1.3856    0.6083 H   0  0  0  0  0  0  0  0  0  0  0  0
   -5.3497   -0.0221   -0.2674 H   0  0  0  0  0  0  0  0  0  0  0  0
   -4.4621    0.3474    1.6533 C   0  0  0  0  0  0  0  0  0  0  0  0
   -3.1491    0.2701    1.5073 N   0  0  0  0  0  0  0  0  0  0  0  0
   -2.5265    0.8234    2.0941 H   0  0  0  0  0  0  0  0  0  0  0  0
   -2.7651   -0.3519    0.7983 H   0  0  0  0  0  0  0  0  0  0  0  0
   -4.9844    0.8695    2.6369 O   0  0  0  0  0  0  0  0  0  0  0  0
   -1.1787   -2.1616    0.0013 C   0  0  0  0  0  0  0  0  0  0  0  0
   -0.2671   -2.5231   -0.1302 H   0  0  0  0  0  0  0  0  0  0  0  0
   -1.7867   -2.4432   -0.8584 H   0  0  0  0  0  0  0  0  0  0  0  0
   -1.6384   -2.4943    0.9319 H   0  0  0  0  0  0  0  0  0  0  0  0
   -1.1186   -0.7108   -0.0000 N   0  0  0  0  0  0  0  0  0  0  0  0
   -1.9948   -0.1110   -0.0013 H   0  0  0  0  0  0  0  0  0  0  0  0
    0.0000    0.0000    0.0000 C   0  0  0  0  0  0  0  0  0  0  0  0
    1.1186   -0.4901    0.0000 O   0  0  0  0  0  0  0  0  0  0  0  0
   -0.1662    1.4877   -0.0938 C   0  0  0  0  0  0  0  0  0  0  0  0
   -1.0495    1.7266    0.2864 H   0  0  0  0  0  0  0  0  0  0  0  0
    0.6007    1.9167    0.5511 H   0  0  0  0  0  0  0  0  0  0  0  0
   -0.0338    1.8243   -1.1221 H   0  0  0  0  0  0  0  0  0  0  0  0
  1  5  1  0
  5  6  1  0
  5  9  2  0
  1  2  1  0
  1  3  1  0
  1  4  1  0
  6  7  1  0
  6  8  1  0
 10 14  1  0
 14 16  1  0
 16 17  2  0
 16 18  1  0
 10 11  1  0
 10 12  1  0
 10 13  1  0
 14 15  1  0
 18 19  1  0
 18 20  1  0
 18 21  1  0
M  END
>  <PDB_ID>  (709) 
pdb3wuz

>  <RESIDUE_NAME>  (709) 
GLN   TRP

>  <FRAG_NAME>  (709) 
ACEM   NMA

>  <FRAG_ATOM_NUM>  (709) 
fragi: 9  fragj: 12

>  <atom.prop.CHAIN_ID>  (709) 
A A A A A A A A A Z Z Z Z Z Z Z Z Z Z Z Z

>  <atom.prop.IS_HEAVY_ATOM>  (709) 
1 0 0 0 1 1 0 0 1 1 0 0 0 1 0 1 1 1 0 0 0

>  <DIFUSE_FUNC_ATOM>  (709) 
n/a

>  <FINAL_SINGLE_POINT_ENERGY>  (709) 
0

>  <NONCOV_INTER_ENERGY_QM>  (709) 
0

>  <FF_Energy>  (709) 
9.24

>  <QM_Energy>  (709) 
20.13

>  <source>  (709) 
ACEM_nNMA_50

>  <Index>  (709) 
9147

$$$$
ACEM-pdb3wp9-A-ASN-212:NMA-pdb3wp9-A-LEU-209
     RDKit          3D

 21 19  0  0  0  0  0  0  0  0999 V2000
   -4.6589    0.9466   -2.7595 C   0  0  0  0  0  0  0  0  0  0  0  0
   -3.8722    1.4186   -3.1313 H   0  0  0  0  0  0  0  0  0  0  0  0
   -5.4485    1.5444   -2.7216 H   0  0  0  0  0  0  0  0  0  0  0  0
   -4.8899    0.0824   -3.3822 H   0  0  0  0  0  0  0  0  0  0  0  0
   -4.3172    0.5265   -1.3168 C   0  0  0  0  0  0  0  0  0  0  0  0
   -3.0807    0.8344   -0.9056 N   0  0  0  0  0  0  0  0  0  0  0  0
   -2.4534    1.3088   -1.5175 H   0  0  0  0  0  0  0  0  0  0  0  0
   -2.7903    0.5858    0.0190 H   0  0  0  0  0  0  0  0  0  0  0  0
   -5.1527   -0.1338   -0.6226 O   0  0  0  0  0  0  0  0  0  0  0  0
   -1.1424   -2.1264   -0.0630 C   0  0  0  0  0  0  0  0  0  0  0  0
   -0.2756   -2.4214   -0.4432 H   0  0  0  0  0  0  0  0  0  0  0  0
   -1.9271   -2.4088   -0.7648 H   0  0  0  0  0  0  0  0  0  0  0  0
   -1.3302   -2.6281    0.8863 H   0  0  0  0  0  0  0  0  0  0  0  0
   -1.1500   -0.6810    0.0000 N   0  0  0  0  0  0  0  0  0  0  0  0
   -2.0004   -0.1023    0.0466 H   0  0  0  0  0  0  0  0  0  0  0  0
    0.0000    0.0000    0.0000 C   0  0  0  0  0  0  0  0  0  0  0  0
    1.1500   -0.5385   -0.0000 O   0  0  0  0  0  0  0  0  0  0  0  0
   -0.1464    1.5067   -0.0539 C   0  0  0  0  0  0  0  0  0  0  0  0
   -0.9745    1.7662    0.4360 H   0  0  0  0  0  0  0  0  0  0  0  0
    0.7119    1.9483    0.4525 H   0  0  0  0  0  0  0  0  0  0  0  0
   -0.1605    1.7718   -1.1111 H   0  0  0  0  0  0  0  0  0  0  0  0
  1  5  1  0
  5  6  1  0
  5  9  2  0
  1  2  1  0
  1  3  1  0
  1  4  1  0
  6  7  1  0
  6  8  1  0
 10 14  1  0
 14 16  1  0
 16 17  2  0
 16 18  1  0
 10 11  1  0
 10 12  1  0
 10 13  1  0
 14 15  1  0
 18 19  1  0
 18 20  1  0
 18 21  1  0
M  END
>  <PDB_ID>  (710) 
pdb3wp9

>  <RESIDUE_NAME>  (710) 
ASN   LEU

>  <FRAG_NAME>  (710) 
ACEM   NMA

>  <FRAG_ATOM_NUM>  (710) 
fragi: 9  fragj: 12

>  <atom.prop.CHAIN_ID>  (710) 
A A A A A A A A A Z Z Z Z Z Z Z Z Z Z Z Z

>  <atom.prop.IS_HEAVY_ATOM>  (710) 
1 0 0 0 1 1 0 0 1 1 0 0 0 1 0 1 1 1 0 0 0

>  <DIFUSE_FUNC_ATOM>  (710) 
n/a

>  <FINAL_SINGLE_POINT_ENERGY>  (710) 
0

>  <NONCOV_INTER_ENERGY_QM>  (710) 
0

>  <FF_Energy>  (710) 
18.26

>  <QM_Energy>  (710) 
29.08

>  <source>  (710) 
ACEM_nNMA_50

>  <Index>  (710) 
9573

$$$$
ACEM-pdb4xz6-B-ASN-153:NMA-pdb4xz6-B-MET-190
     RDKit          3D

 21 19  0  0  0  0  0  0  0  0999 V2000
   -5.0576    2.3129   -1.1140 C   0  0  0  0  0  0  0  0  0  0  0  0
   -4.5777    2.9921   -1.6598 H   0  0  0  0  0  0  0  0  0  0  0  0
   -5.6689    2.7583   -0.4672 H   0  0  0  0  0  0  0  0  0  0  0  0
   -5.6532    1.6894   -1.7808 H   0  0  0  0  0  0  0  0  0  0  0  0
   -4.0378    1.5066   -0.3402 C   0  0  0  0  0  0  0  0  0  0  0  0
   -3.3054    0.6419   -1.0348 N   0  0  0  0  0  0  0  0  0  0  0  0
   -3.4457    0.5584   -2.0240 H   0  0  0  0  0  0  0  0  0  0  0  0
   -2.6222    0.0790   -0.5774 H   0  0  0  0  0  0  0  0  0  0  0  0
   -3.9020    1.6691    0.8724 O   0  0  0  0  0  0  0  0  0  0  0  0
   -1.1672   -2.1435   -0.0914 C   0  0  0  0  0  0  0  0  0  0  0  0
   -0.3190   -2.4970    0.3268 H   0  0  0  0  0  0  0  0  0  0  0  0
   -1.1696   -2.4830   -1.1272 H   0  0  0  0  0  0  0  0  0  0  0  0
   -2.0527   -2.5080    0.4295 H   0  0  0  0  0  0  0  0  0  0  0  0
   -1.1288   -0.6965   -0.0000 N   0  0  0  0  0  0  0  0  0  0  0  0
   -1.9949   -0.1067    0.0722 H   0  0  0  0  0  0  0  0  0  0  0  0
    0.0000    0.0000    0.0000 C   0  0  0  0  0  0  0  0  0  0  0  0
    1.1288   -0.5082    0.0000 O   0  0  0  0  0  0  0  0  0  0  0  0
   -0.2006    1.5110    0.0018 C   0  0  0  0  0  0  0  0  0  0  0  0
   -1.1031    1.7030    0.4286 H   0  0  0  0  0  0  0  0  0  0  0  0
    0.5616    2.0505    0.5641 H   0  0  0  0  0  0  0  0  0  0  0  0
   -0.2704    1.8801   -1.0214 H   0  0  0  0  0  0  0  0  0  0  0  0
  1  5  1  0
  5  6  1  0
  5  9  2  0
  1  2  1  0
  1  3  1  0
  1  4  1  0
  6  7  1  0
  6  8  1  0
 10 14  1  0
 14 16  1  0
 16 17  2  0
 16 18  1  0
 10 11  1  0
 10 12  1  0
 10 13  1  0
 14 15  1  0
 18 19  1  0
 18 20  1  0
 18 21  1  0
M  END
>  <PDB_ID>  (711) 
pdb4xz6

>  <RESIDUE_NAME>  (711) 
ASN   MET

>  <FRAG_NAME>  (711) 
ACEM   NMA

>  <FRAG_ATOM_NUM>  (711) 
fragi: 9  fragj: 12

>  <atom.prop.CHAIN_ID>  (711) 
A A A A A A A A A Z Z Z Z Z Z Z Z Z Z Z Z

>  <atom.prop.IS_HEAVY_ATOM>  (711) 
1 0 0 0 1 1 0 0 1 1 0 0 0 1 0 1 1 1 0 0 0

>  <DIFUSE_FUNC_ATOM>  (711) 
n/a

>  <FINAL_SINGLE_POINT_ENERGY>  (711) 
0

>  <NONCOV_INTER_ENERGY_QM>  (711) 
0

>  <FF_Energy>  (711) 
8.68

>  <QM_Energy>  (711) 
32.12

>  <source>  (711) 
ACEM_nNMA_50

>  <Index>  (711) 
11224

$$$$
ACEM-pdb3wy8-A-GLN-160:NMA-pdb3wy8-A-ARG-121
     RDKit          3D

 21 19  0  0  0  0  0  0  0  0999 V2000
   -5.2578    1.8038   -1.6439 C   0  0  0  0  0  0  0  0  0  0  0  0
   -4.8928    1.6253   -2.5556 H   0  0  0  0  0  0  0  0  0  0  0  0
   -5.4584    2.7764   -1.5443 H   0  0  0  0  0  0  0  0  0  0  0  0
   -6.1864    1.2450   -1.5274 H   0  0  0  0  0  0  0  0  0  0  0  0
   -4.2232    1.4098   -0.6185 C   0  0  0  0  0  0  0  0  0  0  0  0
   -3.2351    0.6248   -1.0395 N   0  0  0  0  0  0  0  0  0  0  0  0
   -2.4947    0.3292   -0.4098 H   0  0  0  0  0  0  0  0  0  0  0  0
   -3.2323    0.3194   -2.0128 H   0  0  0  0  0  0  0  0  0  0  0  0
   -4.2981    1.8257    0.5356 O   0  0  0  0  0  0  0  0  0  0  0  0
   -1.0786   -2.1755   -0.1050 C   0  0  0  0  0  0  0  0  0  0  0  0
   -1.8842   -2.4881   -0.6580 H   0  0  0  0  0  0  0  0  0  0  0  0
   -0.2528   -2.4451   -0.6496 H   0  0  0  0  0  0  0  0  0  0  0  0
   -1.0691   -2.7103    0.8447 H   0  0  0  0  0  0  0  0  0  0  0  0
   -1.1170   -0.7183   -0.0000 N   0  0  0  0  0  0  0  0  0  0  0  0
   -1.9927   -0.1726    0.0785 H   0  0  0  0  0  0  0  0  0  0  0  0
    0.0000    0.0000    0.0000 C   0  0  0  0  0  0  0  0  0  0  0  0
    1.1170   -0.5111    0.0000 O   0  0  0  0  0  0  0  0  0  0  0  0
   -0.1495    1.5163    0.0173 C   0  0  0  0  0  0  0  0  0  0  0  0
   -1.0258    1.7486    0.4262 H   0  0  0  0  0  0  0  0  0  0  0  0
    0.6492    1.9250    0.6363 H   0  0  0  0  0  0  0  0  0  0  0  0
   -0.0782    1.9023   -0.9996 H   0  0  0  0  0  0  0  0  0  0  0  0
  1  5  1  0
  5  6  1  0
  5  9  2  0
  1  2  1  0
  1  3  1  0
  1  4  1  0
  6  7  1  0
  6  8  1  0
 10 14  1  0
 14 16  1  0
 16 17  2  0
 16 18  1  0
 10 11  1  0
 10 12  1  0
 10 13  1  0
 14 15  1  0
 18 19  1  0
 18 20  1  0
 18 21  1  0
M  END
>  <PDB_ID>  (712) 
pdb3wy8

>  <RESIDUE_NAME>  (712) 
GLN   ARG

>  <FRAG_NAME>  (712) 
ACEM   NMA

>  <FRAG_ATOM_NUM>  (712) 
fragi: 9  fragj: 12

>  <atom.prop.CHAIN_ID>  (712) 
A A A A A A A A A Z Z Z Z Z Z Z Z Z Z Z Z

>  <atom.prop.IS_HEAVY_ATOM>  (712) 
1 0 0 0 1 1 0 0 1 1 0 0 0 1 0 1 1 1 0 0 0

>  <DIFUSE_FUNC_ATOM>  (712) 
n/a

>  <FINAL_SINGLE_POINT_ENERGY>  (712) 
0

>  <NONCOV_INTER_ENERGY_QM>  (712) 
0

>  <FF_Energy>  (712) 
14.88

>  <QM_Energy>  (712) 
41.15

>  <source>  (712) 
ACEM_nNMA_50

>  <Index>  (712) 
15295

$$$$
ACEM-pdb3wx7-A-ASN-241:NMA-pdb3wx7-A-GLY-301
     RDKit          3D

 21 19  0  0  0  0  0  0  0  0999 V2000
   -5.3651    1.1557   -2.2449 C   0  0  0  0  0  0  0  0  0  0  0  0
   -5.4063    2.1457   -2.1462 H   0  0  0  0  0  0  0  0  0  0  0  0
   -6.2820    0.7697   -2.2223 H   0  0  0  0  0  0  0  0  0  0  0  0
   -4.9193    0.9251   -3.2125 H   0  0  0  0  0  0  0  0  0  0  0  0
   -4.5704    0.5851   -1.0750 C   0  0  0  0  0  0  0  0  0  0  0  0
   -3.4118    0.0049   -1.3771 N   0  0  0  0  0  0  0  0  0  0  0  0
   -3.1057   -0.0311   -2.3289 H   0  0  0  0  0  0  0  0  0  0  0  0
   -2.8472   -0.3929   -0.6550 H   0  0  0  0  0  0  0  0  0  0  0  0
   -4.9906    0.6625    0.0808 O   0  0  0  0  0  0  0  0  0  0  0  0
   -1.1169   -2.1725    0.0328 C   0  0  0  0  0  0  0  0  0  0  0  0
   -0.2835   -2.4739    0.5155 H   0  0  0  0  0  0  0  0  0  0  0  0
   -1.0956   -2.5965   -0.9711 H   0  0  0  0  0  0  0  0  0  0  0  0
   -1.9845   -2.5439    0.5783 H   0  0  0  0  0  0  0  0  0  0  0  0
   -1.1212   -0.7138    0.0000 N   0  0  0  0  0  0  0  0  0  0  0  0
   -1.9958   -0.1466   -0.0256 H   0  0  0  0  0  0  0  0  0  0  0  0
    0.0000    0.0000    0.0000 C   0  0  0  0  0  0  0  0  0  0  0  0
    1.1212   -0.5096   -0.0000 O   0  0  0  0  0  0  0  0  0  0  0  0
   -0.1648    1.5066   -0.0028 C   0  0  0  0  0  0  0  0  0  0  0  0
   -0.5207    1.8054    0.9028 H   0  0  0  0  0  0  0  0  0  0  0  0
   -0.8704    1.7639   -0.6899 H   0  0  0  0  0  0  0  0  0  0  0  0
    0.7608    2.0398   -0.2198 H   0  0  0  0  0  0  0  0  0  0  0  0
  1  5  1  0
  5  6  1  0
  5  9  2  0
  1  2  1  0
  1  3  1  0
  1  4  1  0
  6  7  1  0
  6  8  1  0
 10 14  1  0
 14 16  1  0
 16 17  2  0
 16 18  1  0
 10 11  1  0
 10 12  1  0
 10 13  1  0
 14 15  1  0
 18 19  1  0
 18 20  1  0
 18 21  1  0
M  END
>  <PDB_ID>  (713) 
pdb3wx7

>  <RESIDUE_NAME>  (713) 
ASN   GLY

>  <FRAG_NAME>  (713) 
ACEM   NMA

>  <FRAG_ATOM_NUM>  (713) 
fragi: 9  fragj: 12

>  <atom.prop.CHAIN_ID>  (713) 
A A A A A A A A A Z Z Z Z Z Z Z Z Z Z Z Z

>  <atom.prop.IS_HEAVY_ATOM>  (713) 
1 0 0 0 1 1 0 0 1 1 0 0 0 1 0 1 1 1 0 0 0

>  <DIFUSE_FUNC_ATOM>  (713) 
n/a

>  <FINAL_SINGLE_POINT_ENERGY>  (713) 
0

>  <NONCOV_INTER_ENERGY_QM>  (713) 
0

>  <FF_Energy>  (713) 
6.3

>  <QM_Energy>  (713) 
20.26

>  <source>  (713) 
ACEM_nNMA_50

>  <Index>  (713) 
15650

$$$$
ACEM-pdb3wx7-B-ASN-241:NMA-pdb3wx7-B-GLY-301
     RDKit          3D

 21 19  0  0  0  0  0  0  0  0999 V2000
   -5.3829    1.2418   -2.0949 C   0  0  0  0  0  0  0  0  0  0  0  0
   -5.4369    2.2338   -2.0163 H   0  0  0  0  0  0  0  0  0  0  0  0
   -6.2963    0.8451   -2.0433 H   0  0  0  0  0  0  0  0  0  0  0  0
   -4.9579    0.9974   -3.0685 H   0  0  0  0  0  0  0  0  0  0  0  0
   -4.5567    0.7084   -0.9365 C   0  0  0  0  0  0  0  0  0  0  0  0
   -3.3200    0.3143   -1.2317 N   0  0  0  0  0  0  0  0  0  0  0  0
   -2.9829    0.3843   -2.1705 H   0  0  0  0  0  0  0  0  0  0  0  0
   -2.7274   -0.0512   -0.5144 H   0  0  0  0  0  0  0  0  0  0  0  0
   -5.0142    0.6475    0.2048 O   0  0  0  0  0  0  0  0  0  0  0  0
   -1.0802   -2.1754    0.0319 C   0  0  0  0  0  0  0  0  0  0  0  0
   -0.2248   -2.4602    0.4826 H   0  0  0  0  0  0  0  0  0  0  0  0
   -1.0849   -2.5956   -0.9738 H   0  0  0  0  0  0  0  0  0  0  0  0
   -1.9181   -2.5608    0.6127 H   0  0  0  0  0  0  0  0  0  0  0  0
   -1.1157   -0.7181    0.0000 N   0  0  0  0  0  0  0  0  0  0  0  0
   -1.9934   -0.1668   -0.0239 H   0  0  0  0  0  0  0  0  0  0  0  0
    0.0000    0.0000    0.0000 C   0  0  0  0  0  0  0  0  0  0  0  0
    1.1157   -0.5043    0.0000 O   0  0  0  0  0  0  0  0  0  0  0  0
   -0.1647    1.5035   -0.0186 C   0  0  0  0  0  0  0  0  0  0  0  0
   -0.4895    1.8168    0.8878 H   0  0  0  0  0  0  0  0  0  0  0  0
   -0.8724    1.7550   -0.6972 H   0  0  0  0  0  0  0  0  0  0  0  0
    0.7688    2.0100   -0.2638 H   0  0  0  0  0  0  0  0  0  0  0  0
  1  5  1  0
  5  6  1  0
  5  9  2  0
  1  2  1  0
  1  3  1  0
  1  4  1  0
  6  7  1  0
  6  8  1  0
 10 14  1  0
 14 16  1  0
 16 17  2  0
 16 18  1  0
 10 11  1  0
 10 12  1  0
 10 13  1  0
 14 15  1  0
 18 19  1  0
 18 20  1  0
 18 21  1  0
M  END
>  <PDB_ID>  (714) 
pdb3wx7

>  <RESIDUE_NAME>  (714) 
ASN   GLY

>  <FRAG_NAME>  (714) 
ACEM   NMA

>  <FRAG_ATOM_NUM>  (714) 
fragi: 9  fragj: 12

>  <atom.prop.CHAIN_ID>  (714) 
A A A A A A A A A Z Z Z Z Z Z Z Z Z Z Z Z

>  <atom.prop.IS_HEAVY_ATOM>  (714) 
1 0 0 0 1 1 0 0 1 1 0 0 0 1 0 1 1 1 0 0 0

>  <DIFUSE_FUNC_ATOM>  (714) 
n/a

>  <FINAL_SINGLE_POINT_ENERGY>  (714) 
0

>  <NONCOV_INTER_ENERGY_QM>  (714) 
0

>  <FF_Energy>  (714) 
13.2

>  <QM_Energy>  (714) 
37.42

>  <source>  (714) 
ACEM_nNMA_50

>  <Index>  (714) 
18778

$$$$
ACEM-pdb3zhg-A-GLN-244:NMA-pdb3zhg-B-LEU-202
     RDKit          3D

 21 19  0  0  0  0  0  0  0  0999 V2000
   -5.6186    0.6955   -0.7817 C   0  0  0  0  0  0  0  0  0  0  0  0
   -5.3870    0.7593   -1.7574 H   0  0  0  0  0  0  0  0  0  0  0  0
   -6.0449    1.5584   -0.4947 H   0  0  0  0  0  0  0  0  0  0  0  0
   -6.3500   -0.1031   -0.6576 H   0  0  0  0  0  0  0  0  0  0  0  0
   -4.2837    0.5318    0.0160 C   0  0  0  0  0  0  0  0  0  0  0  0
   -3.7333   -0.6733    0.0404 N   0  0  0  0  0  0  0  0  0  0  0  0
   -2.8725   -0.8354    0.5227 H   0  0  0  0  0  0  0  0  0  0  0  0
   -4.2105   -1.4361   -0.4461 H   0  0  0  0  0  0  0  0  0  0  0  0
   -3.7663    1.5022    0.5818 O   0  0  0  0  0  0  0  0  0  0  0  0
   -1.0999   -2.1577   -0.2431 C   0  0  0  0  0  0  0  0  0  0  0  0
   -2.0383   -2.5113   -0.1241 H   0  0  0  0  0  0  0  0  0  0  0  0
   -0.4446   -2.6802    0.4539 H   0  0  0  0  0  0  0  0  0  0  0  0
   -0.7922   -2.3587   -1.2692 H   0  0  0  0  0  0  0  0  0  0  0  0
   -1.1142   -0.7174    0.0000 N   0  0  0  0  0  0  0  0  0  0  0  0
   -1.9835   -0.1791    0.1839 H   0  0  0  0  0  0  0  0  0  0  0  0
    0.0000    0.0000    0.0000 C   0  0  0  0  0  0  0  0  0  0  0  0
    1.1142   -0.5053    0.0000 O   0  0  0  0  0  0  0  0  0  0  0  0
   -0.1632    1.5072    0.0377 C   0  0  0  0  0  0  0  0  0  0  0  0
   -1.1452    1.7236    0.0207 H   0  0  0  0  0  0  0  0  0  0  0  0
    0.2669    1.9130    0.9534 H   0  0  0  0  0  0  0  0  0  0  0  0
    0.3171    1.9454   -0.8371 H   0  0  0  0  0  0  0  0  0  0  0  0
  1  5  1  0
  5  6  1  0
  5  9  2  0
  1  2  1  0
  1  3  1  0
  1  4  1  0
  6  7  1  0
  6  8  1  0
 10 14  1  0
 14 16  1  0
 16 17  2  0
 16 18  1  0
 10 11  1  0
 10 12  1  0
 10 13  1  0
 14 15  1  0
 18 19  1  0
 18 20  1  0
 18 21  1  0
M  END
>  <PDB_ID>  (715) 
pdb3zhg

>  <RESIDUE_NAME>  (715) 
GLN   LEU

>  <FRAG_NAME>  (715) 
ACEM   NMA

>  <FRAG_ATOM_NUM>  (715) 
fragi: 9  fragj: 12

>  <atom.prop.CHAIN_ID>  (715) 
A A A A A A A A A Z Z Z Z Z Z Z Z Z Z Z Z

>  <atom.prop.IS_HEAVY_ATOM>  (715) 
1 0 0 0 1 1 0 0 1 1 0 0 0 1 0 1 1 1 0 0 0

>  <DIFUSE_FUNC_ATOM>  (715) 
n/a

>  <FINAL_SINGLE_POINT_ENERGY>  (715) 
0

>  <NONCOV_INTER_ENERGY_QM>  (715) 
0

>  <FF_Energy>  (715) 
7.69

>  <QM_Energy>  (715) 
20.34

>  <source>  (715) 
ACEM_nNMA_50

>  <Index>  (715) 
26263

$$$$
ACEM-pdb3zge-C-GLN-405:NMA-pdb3zge-C-TYR-400
     RDKit          3D

 21 19  0  0  0  0  0  0  0  0999 V2000
   -5.2443    1.5841   -1.5646 C   0  0  0  0  0  0  0  0  0  0  0  0
   -6.0625    1.9312   -1.1433 H   0  0  0  0  0  0  0  0  0  0  0  0
   -5.4377    0.9153   -2.2595 H   0  0  0  0  0  0  0  0  0  0  0  0
   -4.7019    2.4145   -2.0168 H   0  0  0  0  0  0  0  0  0  0  0  0
   -4.3736    0.9409   -0.4901 C   0  0  0  0  0  0  0  0  0  0  0  0
   -3.3114    0.3206   -0.9017 N   0  0  0  0  0  0  0  0  0  0  0  0
   -2.6636   -0.1282   -0.2410 H   0  0  0  0  0  0  0  0  0  0  0  0
   -3.1065    0.2715   -1.9037 H   0  0  0  0  0  0  0  0  0  0  0  0
   -4.7144    0.9392    0.7022 O   0  0  0  0  0  0  0  0  0  0  0  0
   -1.1206   -2.2162   -0.1522 C   0  0  0  0  0  0  0  0  0  0  0  0
   -0.1732   -2.5379   -0.0825 H   0  0  0  0  0  0  0  0  0  0  0  0
   -1.5117   -2.5140   -1.1251 H   0  0  0  0  0  0  0  0  0  0  0  0
   -1.7116   -2.6974    0.6271 H   0  0  0  0  0  0  0  0  0  0  0  0
   -1.1179   -0.7357   -0.0000 N   0  0  0  0  0  0  0  0  0  0  0  0
   -1.9973   -0.1864    0.1156 H   0  0  0  0  0  0  0  0  0  0  0  0
    0.0000    0.0000    0.0000 C   0  0  0  0  0  0  0  0  0  0  0  0
    1.1179   -0.4714    0.0000 O   0  0  0  0  0  0  0  0  0  0  0  0
   -0.1794    1.5096    0.0853 C   0  0  0  0  0  0  0  0  0  0  0  0
   -1.1510    1.7032    0.2289 H   0  0  0  0  0  0  0  0  0  0  0  0
    0.3758    1.8956    0.9402 H   0  0  0  0  0  0  0  0  0  0  0  0
    0.1276    1.9900   -0.8437 H   0  0  0  0  0  0  0  0  0  0  0  0
  1  5  1  0
  5  6  1  0
  5  9  2  0
  1  2  1  0
  1  3  1  0
  1  4  1  0
  6  7  1  0
  6  8  1  0
 10 14  1  0
 14 16  1  0
 16 17  2  0
 16 18  1  0
 10 11  1  0
 10 12  1  0
 10 13  1  0
 14 15  1  0
 18 19  1  0
 18 20  1  0
 18 21  1  0
M  END
>  <PDB_ID>  (716) 
pdb3zge

>  <RESIDUE_NAME>  (716) 
GLN   TYR

>  <FRAG_NAME>  (716) 
ACEM   NMA

>  <FRAG_ATOM_NUM>  (716) 
fragi: 9  fragj: 12

>  <atom.prop.CHAIN_ID>  (716) 
A A A A A A A A A Z Z Z Z Z Z Z Z Z Z Z Z

>  <atom.prop.IS_HEAVY_ATOM>  (716) 
1 0 0 0 1 1 0 0 1 1 0 0 0 1 0 1 1 1 0 0 0

>  <DIFUSE_FUNC_ATOM>  (716) 
n/a

>  <FINAL_SINGLE_POINT_ENERGY>  (716) 
0

>  <NONCOV_INTER_ENERGY_QM>  (716) 
0

>  <FF_Energy>  (716) 
23.38

>  <QM_Energy>  (716) 
61.31

>  <source>  (716) 
ACEM_nNMA_50

>  <Index>  (716) 
26745

$$$$
ACEM-pdb3zh2-C-GLN-267:NMA-pdb3zh2-C-LEU-264
     RDKit          3D

 21 19  0  0  0  0  0  0  0  0999 V2000
   -5.4639    1.2221   -1.8828 C   0  0  0  0  0  0  0  0  0  0  0  0
   -6.0999    1.9132   -1.5353 H   0  0  0  0  0  0  0  0  0  0  0  0
   -5.9850    0.4522   -2.2561 H   0  0  0  0  0  0  0  0  0  0  0  0
   -4.8619    1.6620   -2.6779 H   0  0  0  0  0  0  0  0  0  0  0  0
   -4.6326    0.7069   -0.7043 C   0  0  0  0  0  0  0  0  0  0  0  0
   -3.3936    0.3998   -0.9690 N   0  0  0  0  0  0  0  0  0  0  0  0
   -2.7653    0.0603   -0.2311 H   0  0  0  0  0  0  0  0  0  0  0  0
   -3.0400    0.4963   -1.9214 H   0  0  0  0  0  0  0  0  0  0  0  0
   -5.0948    0.6115    0.4257 O   0  0  0  0  0  0  0  0  0  0  0  0
   -1.0267   -2.1541   -0.2200 C   0  0  0  0  0  0  0  0  0  0  0  0
   -0.0678   -2.4257   -0.3691 H   0  0  0  0  0  0  0  0  0  0  0  0
   -1.6124   -2.4657   -1.0849 H   0  0  0  0  0  0  0  0  0  0  0  0
   -1.3510   -2.6784    0.6789 H   0  0  0  0  0  0  0  0  0  0  0  0
   -1.1150   -0.7218   -0.0000 N   0  0  0  0  0  0  0  0  0  0  0  0
   -1.9828   -0.2077    0.1591 H   0  0  0  0  0  0  0  0  0  0  0  0
    0.0000    0.0000    0.0000 C   0  0  0  0  0  0  0  0  0  0  0  0
    1.1150   -0.5197    0.0000 O   0  0  0  0  0  0  0  0  0  0  0  0
   -0.1441    1.5203    0.0700 C   0  0  0  0  0  0  0  0  0  0  0  0
   -1.1033    1.7379    0.2610 H   0  0  0  0  0  0  0  0  0  0  0  0
    0.4712    1.9176    0.8772 H   0  0  0  0  0  0  0  0  0  0  0  0
    0.1932    1.9622   -0.8675 H   0  0  0  0  0  0  0  0  0  0  0  0
  1  5  1  0
  5  6  1  0
  5  9  2  0
  1  2  1  0
  1  3  1  0
  1  4  1  0
  6  7  1  0
  6  8  1  0
 10 14  1  0
 14 16  1  0
 16 17  2  0
 16 18  1  0
 10 11  1  0
 10 12  1  0
 10 13  1  0
 14 15  1  0
 18 19  1  0
 18 20  1  0
 18 21  1  0
M  END
>  <PDB_ID>  (717) 
pdb3zh2

>  <RESIDUE_NAME>  (717) 
GLN   LEU

>  <FRAG_NAME>  (717) 
ACEM   NMA

>  <FRAG_ATOM_NUM>  (717) 
fragi: 9  fragj: 12

>  <atom.prop.CHAIN_ID>  (717) 
A A A A A A A A A Z Z Z Z Z Z Z Z Z Z Z Z

>  <atom.prop.IS_HEAVY_ATOM>  (717) 
1 0 0 0 1 1 0 0 1 1 0 0 0 1 0 1 1 1 0 0 0

>  <DIFUSE_FUNC_ATOM>  (717) 
n/a

>  <FINAL_SINGLE_POINT_ENERGY>  (717) 
0

>  <NONCOV_INTER_ENERGY_QM>  (717) 
0

>  <FF_Energy>  (717) 
14.36

>  <QM_Energy>  (717) 
35.46

>  <source>  (717) 
ACEM_nNMA_51

>  <Index>  (717) 
272

$$$$
ACEM-pdb3zh2-D-GLN-267:NMA-pdb3zh2-D-LEU-264
     RDKit          3D

 21 19  0  0  0  0  0  0  0  0999 V2000
   -5.4617    1.2310   -1.7521 C   0  0  0  0  0  0  0  0  0  0  0  0
   -6.1212    1.8894   -1.3668 H   0  0  0  0  0  0  0  0  0  0  0  0
   -5.9752    0.4338   -2.0930 H   0  0  0  0  0  0  0  0  0  0  0  0
   -4.9453    1.7004   -2.5894 H   0  0  0  0  0  0  0  0  0  0  0  0
   -4.5492    0.7592   -0.6224 C   0  0  0  0  0  0  0  0  0  0  0  0
   -3.2944    0.5281   -1.0144 N   0  0  0  0  0  0  0  0  0  0  0  0
   -2.5990    0.2179   -0.3133 H   0  0  0  0  0  0  0  0  0  0  0  0
   -3.0389    0.6553   -1.9761 H   0  0  0  0  0  0  0  0  0  0  0  0
   -4.9274    0.6515    0.6050 O   0  0  0  0  0  0  0  0  0  0  0  0
   -1.1930   -2.1165   -0.1930 C   0  0  0  0  0  0  0  0  0  0  0  0
   -0.2669   -2.4949   -0.3004 H   0  0  0  0  0  0  0  0  0  0  0  0
   -1.7709   -2.3594   -1.0846 H   0  0  0  0  0  0  0  0  0  0  0  0
   -1.6203   -2.5843    0.6939 H   0  0  0  0  0  0  0  0  0  0  0  0
   -1.1421   -0.6983    0.0000 N   0  0  0  0  0  0  0  0  0  0  0  0
   -1.9942   -0.1002    0.1559 H   0  0  0  0  0  0  0  0  0  0  0  0
    0.0000    0.0000    0.0000 C   0  0  0  0  0  0  0  0  0  0  0  0
    1.1421   -0.5087   -0.0000 O   0  0  0  0  0  0  0  0  0  0  0  0
   -0.1773    1.5270    0.0571 C   0  0  0  0  0  0  0  0  0  0  0  0
   -1.1251    1.7210    0.3045 H   0  0  0  0  0  0  0  0  0  0  0  0
    0.4795    1.9367    0.8245 H   0  0  0  0  0  0  0  0  0  0  0  0
    0.1045    1.9558   -0.9046 H   0  0  0  0  0  0  0  0  0  0  0  0
  1  5  1  0
  5  6  1  0
  5  9  2  0
  1  2  1  0
  1  3  1  0
  1  4  1  0
  6  7  1  0
  6  8  1  0
 10 14  1  0
 14 16  1  0
 16 17  2  0
 16 18  1  0
 10 11  1  0
 10 12  1  0
 10 13  1  0
 14 15  1  0
 18 19  1  0
 18 20  1  0
 18 21  1  0
M  END
>  <PDB_ID>  (718) 
pdb3zh2

>  <RESIDUE_NAME>  (718) 
GLN   LEU

>  <FRAG_NAME>  (718) 
ACEM   NMA

>  <FRAG_ATOM_NUM>  (718) 
fragi: 9  fragj: 12

>  <atom.prop.CHAIN_ID>  (718) 
A A A A A A A A A Z Z Z Z Z Z Z Z Z Z Z Z

>  <atom.prop.IS_HEAVY_ATOM>  (718) 
1 0 0 0 1 1 0 0 1 1 0 0 0 1 0 1 1 1 0 0 0

>  <DIFUSE_FUNC_ATOM>  (718) 
n/a

>  <FINAL_SINGLE_POINT_ENERGY>  (718) 
0

>  <NONCOV_INTER_ENERGY_QM>  (718) 
0

>  <FF_Energy>  (718) 
18.6

>  <QM_Energy>  (718) 
46.89

>  <source>  (718) 
ACEM_nNMA_51

>  <Index>  (718) 
1844

$$$$
ACEM-pdb3zge-D-GLN-405:NMA-pdb3zge-D-TYR-400
     RDKit          3D

 21 19  0  0  0  0  0  0  0  0999 V2000
   -5.2173    1.7072   -1.6779 C   0  0  0  0  0  0  0  0  0  0  0  0
   -6.0353    2.0793   -1.2657 H   0  0  0  0  0  0  0  0  0  0  0  0
   -5.4358    1.0715   -2.4028 H   0  0  0  0  0  0  0  0  0  0  0  0
   -4.6371    2.5278   -2.0998 H   0  0  0  0  0  0  0  0  0  0  0  0
   -4.4159    0.9748   -0.6048 C   0  0  0  0  0  0  0  0  0  0  0  0
   -3.2561    0.4586   -0.9846 N   0  0  0  0  0  0  0  0  0  0  0  0
   -2.6620   -0.0311   -0.3213 H   0  0  0  0  0  0  0  0  0  0  0  0
   -2.9665    0.5594   -1.9569 H   0  0  0  0  0  0  0  0  0  0  0  0
   -4.8543    0.8397    0.5490 O   0  0  0  0  0  0  0  0  0  0  0  0
   -1.1402   -2.1865   -0.1932 C   0  0  0  0  0  0  0  0  0  0  0  0
   -0.1969   -2.5162   -0.1178 H   0  0  0  0  0  0  0  0  0  0  0  0
   -1.5181   -2.4399   -1.1837 H   0  0  0  0  0  0  0  0  0  0  0  0
   -1.7387   -2.6904    0.5657 H   0  0  0  0  0  0  0  0  0  0  0  0
   -1.1294   -0.7145   -0.0000 N   0  0  0  0  0  0  0  0  0  0  0  0
   -1.9960   -0.1618    0.1457 H   0  0  0  0  0  0  0  0  0  0  0  0
    0.0000    0.0000    0.0000 C   0  0  0  0  0  0  0  0  0  0  0  0
    1.1294   -0.4904    0.0000 O   0  0  0  0  0  0  0  0  0  0  0  0
   -0.1557    1.4825    0.0653 C   0  0  0  0  0  0  0  0  0  0  0  0
   -1.1136    1.7033    0.2174 H   0  0  0  0  0  0  0  0  0  0  0  0
    0.4119    1.8206    0.9323 H   0  0  0  0  0  0  0  0  0  0  0  0
    0.1755    1.9627   -0.8556 H   0  0  0  0  0  0  0  0  0  0  0  0
  1  5  1  0
  5  6  1  0
  5  9  2  0
  1  2  1  0
  1  3  1  0
  1  4  1  0
  6  7  1  0
  6  8  1  0
 10 14  1  0
 14 16  1  0
 16 17  2  0
 16 18  1  0
 10 11  1  0
 10 12  1  0
 10 13  1  0
 14 15  1  0
 18 19  1  0
 18 20  1  0
 18 21  1  0
M  END
>  <PDB_ID>  (719) 
pdb3zge

>  <RESIDUE_NAME>  (719) 
GLN   TYR

>  <FRAG_NAME>  (719) 
ACEM   NMA

>  <FRAG_ATOM_NUM>  (719) 
fragi: 9  fragj: 12

>  <atom.prop.CHAIN_ID>  (719) 
A A A A A A A A A Z Z Z Z Z Z Z Z Z Z Z Z

>  <atom.prop.IS_HEAVY_ATOM>  (719) 
1 0 0 0 1 1 0 0 1 1 0 0 0 1 0 1 1 1 0 0 0

>  <DIFUSE_FUNC_ATOM>  (719) 
n/a

>  <FINAL_SINGLE_POINT_ENERGY>  (719) 
0

>  <NONCOV_INTER_ENERGY_QM>  (719) 
0

>  <FF_Energy>  (719) 
19.87

>  <QM_Energy>  (719) 
49.29

>  <source>  (719) 
ACEM_nNMA_51

>  <Index>  (719) 
2193

$$$$
ACEM-pdb4ywe-A-GLN-98:NMA-pdb4ywe-A-GLN-276
     RDKit          3D

 21 19  0  0  0  0  0  0  0  0999 V2000
   -5.3804    1.3163   -1.6232 C   0  0  0  0  0  0  0  0  0  0  0  0
   -4.9326    2.0306   -2.1623 H   0  0  0  0  0  0  0  0  0  0  0  0
   -6.1453    1.7127   -1.1151 H   0  0  0  0  0  0  0  0  0  0  0  0
   -5.7691    0.5585   -2.3034 H   0  0  0  0  0  0  0  0  0  0  0  0
   -4.3765    0.7591   -0.6305 C   0  0  0  0  0  0  0  0  0  0  0  0
   -3.6654   -0.2864   -1.0328 N   0  0  0  0  0  0  0  0  0  0  0  0
   -2.9637   -0.7049   -0.4271 H   0  0  0  0  0  0  0  0  0  0  0  0
   -3.8328   -0.6673   -1.9626 H   0  0  0  0  0  0  0  0  0  0  0  0
   -4.2411    1.2633    0.4843 O   0  0  0  0  0  0  0  0  0  0  0  0
   -1.1551   -2.1734   -0.0018 C   0  0  0  0  0  0  0  0  0  0  0  0
   -2.1166   -2.4520    0.1217 H   0  0  0  0  0  0  0  0  0  0  0  0
   -0.5948   -2.5883    0.8361 H   0  0  0  0  0  0  0  0  0  0  0  0
   -0.7652   -2.5634   -0.9420 H   0  0  0  0  0  0  0  0  0  0  0  0
   -1.1254   -0.7115   -0.0000 N   0  0  0  0  0  0  0  0  0  0  0  0
   -1.9985   -0.1286    0.0012 H   0  0  0  0  0  0  0  0  0  0  0  0
    0.0000    0.0000    0.0000 C   0  0  0  0  0  0  0  0  0  0  0  0
    1.1254   -0.5014    0.0000 O   0  0  0  0  0  0  0  0  0  0  0  0
   -0.1769    1.5151    0.0083 C   0  0  0  0  0  0  0  0  0  0  0  0
   -1.1524    1.7101    0.1823 H   0  0  0  0  0  0  0  0  0  0  0  0
    0.4043    1.9904    0.7985 H   0  0  0  0  0  0  0  0  0  0  0  0
    0.1005    1.9216   -0.9642 H   0  0  0  0  0  0  0  0  0  0  0  0
  1  5  1  0
  5  6  1  0
  5  9  2  0
  1  2  1  0
  1  3  1  0
  1  4  1  0
  6  7  1  0
  6  8  1  0
 10 14  1  0
 14 16  1  0
 16 17  2  0
 16 18  1  0
 10 11  1  0
 10 12  1  0
 10 13  1  0
 14 15  1  0
 18 19  1  0
 18 20  1  0
 18 21  1  0
M  END
>  <PDB_ID>  (720) 
pdb4ywe

>  <RESIDUE_NAME>  (720) 
GLN   GLN

>  <FRAG_NAME>  (720) 
ACEM   NMA

>  <FRAG_ATOM_NUM>  (720) 
fragi: 9  fragj: 12

>  <atom.prop.CHAIN_ID>  (720) 
A A A A A A A A A Z Z Z Z Z Z Z Z Z Z Z Z

>  <atom.prop.IS_HEAVY_ATOM>  (720) 
1 0 0 0 1 1 0 0 1 1 0 0 0 1 0 1 1 1 0 0 0

>  <DIFUSE_FUNC_ATOM>  (720) 
n/a

>  <FINAL_SINGLE_POINT_ENERGY>  (720) 
0

>  <NONCOV_INTER_ENERGY_QM>  (720) 
0

>  <FF_Energy>  (720) 
1.89

>  <QM_Energy>  (720) 
14.82

>  <source>  (720) 
ACEM_nNMA_51

>  <Index>  (720) 
6147

$$$$
ACEM-pdb3zpc-B-GLN-334:NMA-pdb3zpc-B-GLU-330
     RDKit          3D

 21 19  0  0  0  0  0  0  0  0999 V2000
   -5.4939   -0.3246    0.4424 C   0  0  0  0  0  0  0  0  0  0  0  0
   -6.3501   -0.1546    0.9146 H   0  0  0  0  0  0  0  0  0  0  0  0
   -5.0801   -1.1696    0.7591 H   0  0  0  0  0  0  0  0  0  0  0  0
   -5.6967   -0.4141   -0.6249 H   0  0  0  0  0  0  0  0  0  0  0  0
   -4.5452    0.8210    0.7192 C   0  0  0  0  0  0  0  0  0  0  0  0
   -3.2542    0.5560    0.6194 N   0  0  0  0  0  0  0  0  0  0  0  0
   -2.5533    1.2796    0.7776 H   0  0  0  0  0  0  0  0  0  0  0  0
   -2.9603   -0.3925    0.3804 H   0  0  0  0  0  0  0  0  0  0  0  0
   -4.9675    1.9226    1.0470 O   0  0  0  0  0  0  0  0  0  0  0  0
   -1.1493   -2.1550    0.1527 C   0  0  0  0  0  0  0  0  0  0  0  0
   -0.2065   -2.4940    0.1172 H   0  0  0  0  0  0  0  0  0  0  0  0
   -1.7046   -2.6001   -0.6729 H   0  0  0  0  0  0  0  0  0  0  0  0
   -1.6279   -2.4180    1.0960 H   0  0  0  0  0  0  0  0  0  0  0  0
   -1.1239   -0.7093    0.0000 N   0  0  0  0  0  0  0  0  0  0  0  0
   -1.9927   -0.1332   -0.1197 H   0  0  0  0  0  0  0  0  0  0  0  0
    0.0000    0.0000    0.0000 C   0  0  0  0  0  0  0  0  0  0  0  0
    1.1239   -0.5131    0.0000 O   0  0  0  0  0  0  0  0  0  0  0  0
   -0.1626    1.5205   -0.0380 C   0  0  0  0  0  0  0  0  0  0  0  0
    0.6429    1.9304   -0.4870 H   0  0  0  0  0  0  0  0  0  0  0  0
   -1.0674    1.8146   -0.5698 H   0  0  0  0  0  0  0  0  0  0  0  0
   -0.1816    1.9294    0.9722 H   0  0  0  0  0  0  0  0  0  0  0  0
  1  5  1  0
  5  6  1  0
  5  9  2  0
  1  2  1  0
  1  3  1  0
  1  4  1  0
  6  7  1  0
  6  8  1  0
 10 14  1  0
 14 16  1  0
 16 17  2  0
 16 18  1  0
 10 11  1  0
 10 12  1  0
 10 13  1  0
 14 15  1  0
 18 19  1  0
 18 20  1  0
 18 21  1  0
M  END
>  <PDB_ID>  (721) 
pdb3zpc

>  <RESIDUE_NAME>  (721) 
GLN   GLU

>  <FRAG_NAME>  (721) 
ACEM   NMA

>  <FRAG_ATOM_NUM>  (721) 
fragi: 9  fragj: 12

>  <atom.prop.CHAIN_ID>  (721) 
A A A A A A A A A Z Z Z Z Z Z Z Z Z Z Z Z

>  <atom.prop.IS_HEAVY_ATOM>  (721) 
1 0 0 0 1 1 0 0 1 1 0 0 0 1 0 1 1 1 0 0 0

>  <DIFUSE_FUNC_ATOM>  (721) 
n/a

>  <FINAL_SINGLE_POINT_ENERGY>  (721) 
0

>  <NONCOV_INTER_ENERGY_QM>  (721) 
0

>  <FF_Energy>  (721) 
17.51

>  <QM_Energy>  (721) 
29.25

>  <source>  (721) 
ACEM_nNMA_51

>  <Index>  (721) 
8014

$$$$
ACEM-pdb4z3e-A-ASN-3:NMA-pdb4z3e-A-ASN-45
     RDKit          3D

 21 19  0  0  0  0  0  0  0  0999 V2000
   -6.1019    0.0665    1.4047 C   0  0  0  0  0  0  0  0  0  0  0  0
   -6.5629   -0.6590    1.9221 H   0  0  0  0  0  0  0  0  0  0  0  0
   -6.7361    0.4310    0.7177 H   0  0  0  0  0  0  0  0  0  0  0  0
   -5.8065    0.8655    2.0847 H   0  0  0  0  0  0  0  0  0  0  0  0
   -4.9295   -0.5737    0.6575 C   0  0  0  0  0  0  0  0  0  0  0  0
   -3.7864    0.0582    0.7723 N   0  0  0  0  0  0  0  0  0  0  0  0
   -3.6984    0.8926    1.3161 H   0  0  0  0  0  0  0  0  0  0  0  0
   -2.9633   -0.2992    0.3029 H   0  0  0  0  0  0  0  0  0  0  0  0
   -5.0076   -1.6398    0.0459 O   0  0  0  0  0  0  0  0  0  0  0  0
   -1.1100   -2.2126    0.1742 C   0  0  0  0  0  0  0  0  0  0  0  0
   -0.1551   -2.5137    0.3444 H   0  0  0  0  0  0  0  0  0  0  0  0
   -1.6485   -2.4587    0.9998 H   0  0  0  0  0  0  0  0  0  0  0  0
   -1.5067   -2.7559   -0.6834 H   0  0  0  0  0  0  0  0  0  0  0  0
   -1.1327   -0.7611   -0.0000 N   0  0  0  0  0  0  0  0  0  0  0  0
   -2.0034   -0.2079   -0.1350 H   0  0  0  0  0  0  0  0  0  0  0  0
    0.0000    0.0000    0.0000 C   0  0  0  0  0  0  0  0  0  0  0  0
    1.1327   -0.4993    0.0000 O   0  0  0  0  0  0  0  0  0  0  0  0
   -0.1088    1.4820   -0.1743 C   0  0  0  0  0  0  0  0  0  0  0  0
    0.1104    1.6918   -1.1374 H   0  0  0  0  0  0  0  0  0  0  0  0
   -1.1304    1.8189    0.0018 H   0  0  0  0  0  0  0  0  0  0  0  0
    0.6003    1.9843    0.4838 H   0  0  0  0  0  0  0  0  0  0  0  0
  1  5  1  0
  5  6  1  0
  5  9  2  0
  1  2  1  0
  1  3  1  0
  1  4  1  0
  6  7  1  0
  6  8  1  0
 10 14  1  0
 14 16  1  0
 16 17  2  0
 16 18  1  0
 10 11  1  0
 10 12  1  0
 10 13  1  0
 14 15  1  0
 18 19  1  0
 18 20  1  0
 18 21  1  0
M  END
>  <PDB_ID>  (722) 
pdb4z3e

>  <RESIDUE_NAME>  (722) 
ASN   ASN

>  <FRAG_NAME>  (722) 
ACEM   NMA

>  <FRAG_ATOM_NUM>  (722) 
fragi: 9  fragj: 12

>  <atom.prop.CHAIN_ID>  (722) 
A A A A A A A A A Z Z Z Z Z Z Z Z Z Z Z Z

>  <atom.prop.IS_HEAVY_ATOM>  (722) 
1 0 0 0 1 1 0 0 1 1 0 0 0 1 0 1 1 1 0 0 0

>  <DIFUSE_FUNC_ATOM>  (722) 
n/a

>  <FINAL_SINGLE_POINT_ENERGY>  (722) 
0

>  <NONCOV_INTER_ENERGY_QM>  (722) 
0

>  <FF_Energy>  (722) 
8.77

>  <QM_Energy>  (722) 
20.66

>  <source>  (722) 
ACEM_nNMA_51

>  <Index>  (722) 
9508

$$$$
ACEM-pdb4z45-A-ASN-112:NMA-pdb4z45-A-SER-2
     RDKit          3D

 21 19  0  0  0  0  0  0  0  0999 V2000
   -4.8035    2.1316    2.0121 C   0  0  0  0  0  0  0  0  0  0  0  0
   -5.7675    1.9362    2.1818 H   0  0  0  0  0  0  0  0  0  0  0  0
   -4.7066    3.0444    1.6197 H   0  0  0  0  0  0  0  0  0  0  0  0
   -4.2681    2.1014    2.9610 H   0  0  0  0  0  0  0  0  0  0  0  0
   -4.2771    1.1236    1.0198 C   0  0  0  0  0  0  0  0  0  0  0  0
   -3.0734    0.7051    1.2223 N   0  0  0  0  0  0  0  0  0  0  0  0
   -2.5220    1.0274    1.9999 H   0  0  0  0  0  0  0  0  0  0  0  0
   -2.6483    0.0301    0.5925 H   0  0  0  0  0  0  0  0  0  0  0  0
   -4.9584    0.7424    0.0727 O   0  0  0  0  0  0  0  0  0  0  0  0
   -1.1109   -2.1440   -0.0296 C   0  0  0  0  0  0  0  0  0  0  0  0
   -0.2520   -2.4750    0.3838 H   0  0  0  0  0  0  0  0  0  0  0  0
   -1.1406   -2.5455   -1.0425 H   0  0  0  0  0  0  0  0  0  0  0  0
   -1.9630   -2.5198    0.5368 H   0  0  0  0  0  0  0  0  0  0  0  0
   -1.1227   -0.6909   -0.0000 N   0  0  0  0  0  0  0  0  0  0  0  0
   -1.9915   -0.1250    0.0228 H   0  0  0  0  0  0  0  0  0  0  0  0
    0.0000    0.0000    0.0000 C   0  0  0  0  0  0  0  0  0  0  0  0
    1.1227   -0.5268   -0.0000 O   0  0  0  0  0  0  0  0  0  0  0  0
   -0.1487    1.5209    0.0028 C   0  0  0  0  0  0  0  0  0  0  0  0
   -0.6509    1.7723    0.8260 H   0  0  0  0  0  0  0  0  0  0  0  0
    0.8497    1.9557    0.0503 H   0  0  0  0  0  0  0  0  0  0  0  0
   -0.6715    1.8712   -0.8871 H   0  0  0  0  0  0  0  0  0  0  0  0
  1  5  1  0
  5  6  1  0
  5  9  2  0
  1  2  1  0
  1  3  1  0
  1  4  1  0
  6  7  1  0
  6  8  1  0
 10 14  1  0
 14 16  1  0
 16 17  2  0
 16 18  1  0
 10 11  1  0
 10 12  1  0
 10 13  1  0
 14 15  1  0
 18 19  1  0
 18 20  1  0
 18 21  1  0
M  END
>  <PDB_ID>  (723) 
pdb4z45

>  <RESIDUE_NAME>  (723) 
ASN   SER

>  <FRAG_NAME>  (723) 
ACEM   NMA

>  <FRAG_ATOM_NUM>  (723) 
fragi: 9  fragj: 12

>  <atom.prop.CHAIN_ID>  (723) 
A A A A A A A A A Z Z Z Z Z Z Z Z Z Z Z Z

>  <atom.prop.IS_HEAVY_ATOM>  (723) 
1 0 0 0 1 1 0 0 1 1 0 0 0 1 0 1 1 1 0 0 0

>  <DIFUSE_FUNC_ATOM>  (723) 
n/a

>  <FINAL_SINGLE_POINT_ENERGY>  (723) 
0

>  <NONCOV_INTER_ENERGY_QM>  (723) 
0

>  <FF_Energy>  (723) 
15.43

>  <QM_Energy>  (723) 
39.65

>  <source>  (723) 
ACEM_nNMA_51

>  <Index>  (723) 
9680

$$$$
ACEM-pdb4ywe-B-GLN-98:NMA-pdb4ywe-B-GLN-276
     RDKit          3D

 21 19  0  0  0  0  0  0  0  0999 V2000
   -5.4957    1.2171   -1.6174 C   0  0  0  0  0  0  0  0  0  0  0  0
   -5.1300    1.9759   -2.1552 H   0  0  0  0  0  0  0  0  0  0  0  0
   -6.2550    1.5408   -1.0545 H   0  0  0  0  0  0  0  0  0  0  0  0
   -5.8670    0.4519   -2.2990 H   0  0  0  0  0  0  0  0  0  0  0  0
   -4.4007    0.7022   -0.7034 C   0  0  0  0  0  0  0  0  0  0  0  0
   -3.7071   -0.3409   -1.1412 N   0  0  0  0  0  0  0  0  0  0  0  0
   -2.9482   -0.7332   -0.5885 H   0  0  0  0  0  0  0  0  0  0  0  0
   -3.9474   -0.7477   -2.0438 H   0  0  0  0  0  0  0  0  0  0  0  0
   -4.1783    1.2396    0.3816 O   0  0  0  0  0  0  0  0  0  0  0  0
   -1.1463   -2.1726    0.0026 C   0  0  0  0  0  0  0  0  0  0  0  0
   -2.1034   -2.4565    0.1330 H   0  0  0  0  0  0  0  0  0  0  0  0
   -0.5789   -2.5751    0.8417 H   0  0  0  0  0  0  0  0  0  0  0  0
   -0.7572   -2.5642   -0.9373 H   0  0  0  0  0  0  0  0  0  0  0  0
   -1.1253   -0.7118   -0.0000 N   0  0  0  0  0  0  0  0  0  0  0  0
   -1.9982   -0.1315   -0.0021 H   0  0  0  0  0  0  0  0  0  0  0  0
    0.0000    0.0000    0.0000 C   0  0  0  0  0  0  0  0  0  0  0  0
    1.1253   -0.5039    0.0000 O   0  0  0  0  0  0  0  0  0  0  0  0
   -0.1747    1.5145    0.0137 C   0  0  0  0  0  0  0  0  0  0  0  0
   -1.1366    1.7123    0.2491 H   0  0  0  0  0  0  0  0  0  0  0  0
    0.4566    1.9885    0.7652 H   0  0  0  0  0  0  0  0  0  0  0  0
    0.0403    1.9185   -0.9755 H   0  0  0  0  0  0  0  0  0  0  0  0
  1  5  1  0
  5  6  1  0
  5  9  2  0
  1  2  1  0
  1  3  1  0
  1  4  1  0
  6  7  1  0
  6  8  1  0
 10 14  1  0
 14 16  1  0
 16 17  2  0
 16 18  1  0
 10 11  1  0
 10 12  1  0
 10 13  1  0
 14 15  1  0
 18 19  1  0
 18 20  1  0
 18 21  1  0
M  END
>  <PDB_ID>  (724) 
pdb4ywe

>  <RESIDUE_NAME>  (724) 
GLN   GLN

>  <FRAG_NAME>  (724) 
ACEM   NMA

>  <FRAG_ATOM_NUM>  (724) 
fragi: 9  fragj: 12

>  <atom.prop.CHAIN_ID>  (724) 
A A A A A A A A A Z Z Z Z Z Z Z Z Z Z Z Z

>  <atom.prop.IS_HEAVY_ATOM>  (724) 
1 0 0 0 1 1 0 0 1 1 0 0 0 1 0 1 1 1 0 0 0

>  <DIFUSE_FUNC_ATOM>  (724) 
n/a

>  <FINAL_SINGLE_POINT_ENERGY>  (724) 
0

>  <NONCOV_INTER_ENERGY_QM>  (724) 
0

>  <FF_Energy>  (724) 
-0.56

>  <QM_Energy>  (724) 
10.43

>  <source>  (724) 
ACEM_nNMA_51

>  <Index>  (724) 
9813

$$$$
ACEM-pdb4z45-D-ASN-112:NMA-pdb4z45-D-SER-2
     RDKit          3D

 21 19  0  0  0  0  0  0  0  0999 V2000
   -4.8439    1.8893    2.1879 C   0  0  0  0  0  0  0  0  0  0  0  0
   -5.8193    1.7097    2.3154 H   0  0  0  0  0  0  0  0  0  0  0  0
   -4.7167    2.8130    1.8282 H   0  0  0  0  0  0  0  0  0  0  0  0
   -4.3216    1.7880    3.1392 H   0  0  0  0  0  0  0  0  0  0  0  0
   -4.3225    0.9162    1.1644 C   0  0  0  0  0  0  0  0  0  0  0  0
   -3.0984    0.5149    1.3150 N   0  0  0  0  0  0  0  0  0  0  0  0
   -2.5351    0.8396    2.0847 H   0  0  0  0  0  0  0  0  0  0  0  0
   -2.6830   -0.1334    0.6613 H   0  0  0  0  0  0  0  0  0  0  0  0
   -5.0399    0.4966    0.2915 O   0  0  0  0  0  0  0  0  0  0  0  0
   -1.1592   -2.1165   -0.1308 C   0  0  0  0  0  0  0  0  0  0  0  0
   -0.2869   -2.4951    0.2171 H   0  0  0  0  0  0  0  0  0  0  0  0
   -1.2566   -2.4364   -1.1683 H   0  0  0  0  0  0  0  0  0  0  0  0
   -1.9983   -2.5427    0.4191 H   0  0  0  0  0  0  0  0  0  0  0  0
   -1.1299   -0.6829    0.0000 N   0  0  0  0  0  0  0  0  0  0  0  0
   -1.9903   -0.0951    0.1024 H   0  0  0  0  0  0  0  0  0  0  0  0
    0.0000    0.0000    0.0000 C   0  0  0  0  0  0  0  0  0  0  0  0
    1.1299   -0.5337   -0.0000 O   0  0  0  0  0  0  0  0  0  0  0  0
   -0.1534    1.5223    0.0893 C   0  0  0  0  0  0  0  0  0  0  0  0
   -0.6439    1.7313    0.9270 H   0  0  0  0  0  0  0  0  0  0  0  0
    0.8442    1.9557    0.1611 H   0  0  0  0  0  0  0  0  0  0  0  0
   -0.6983    1.9411   -0.7567 H   0  0  0  0  0  0  0  0  0  0  0  0
  1  5  1  0
  5  6  1  0
  5  9  2  0
  1  2  1  0
  1  3  1  0
  1  4  1  0
  6  7  1  0
  6  8  1  0
 10 14  1  0
 14 16  1  0
 16 17  2  0
 16 18  1  0
 10 11  1  0
 10 12  1  0
 10 13  1  0
 14 15  1  0
 18 19  1  0
 18 20  1  0
 18 21  1  0
M  END
>  <PDB_ID>  (725) 
pdb4z45

>  <RESIDUE_NAME>  (725) 
ASN   SER

>  <FRAG_NAME>  (725) 
ACEM   NMA

>  <FRAG_ATOM_NUM>  (725) 
fragi: 9  fragj: 12

>  <atom.prop.CHAIN_ID>  (725) 
A A A A A A A A A Z Z Z Z Z Z Z Z Z Z Z Z

>  <atom.prop.IS_HEAVY_ATOM>  (725) 
1 0 0 0 1 1 0 0 1 1 0 0 0 1 0 1 1 1 0 0 0

>  <DIFUSE_FUNC_ATOM>  (725) 
n/a

>  <FINAL_SINGLE_POINT_ENERGY>  (725) 
0

>  <NONCOV_INTER_ENERGY_QM>  (725) 
0

>  <FF_Energy>  (725) 
15.95

>  <QM_Energy>  (725) 
39.88

>  <source>  (725) 
ACEM_nNMA_51

>  <Index>  (725) 
10864

$$$$
ACEM-pdb4ywe-C-GLN-98:NMA-pdb4ywe-C-GLN-276
     RDKit          3D

 21 19  0  0  0  0  0  0  0  0999 V2000
   -5.4675    1.2858   -1.9029 C   0  0  0  0  0  0  0  0  0  0  0  0
   -5.0848    2.0682   -2.3934 H   0  0  0  0  0  0  0  0  0  0  0  0
   -6.2836    1.5722   -1.4019 H   0  0  0  0  0  0  0  0  0  0  0  0
   -5.7520    0.5239   -2.6287 H   0  0  0  0  0  0  0  0  0  0  0  0
   -4.4371    0.7879   -0.9079 C   0  0  0  0  0  0  0  0  0  0  0  0
   -3.6211   -0.1716   -1.3327 N   0  0  0  0  0  0  0  0  0  0  0  0
   -2.8957   -0.5458   -0.7258 H   0  0  0  0  0  0  0  0  0  0  0  0
   -3.7347   -0.5289   -2.2794 H   0  0  0  0  0  0  0  0  0  0  0  0
   -4.3711    1.2626    0.2267 O   0  0  0  0  0  0  0  0  0  0  0  0
   -1.1564   -2.1714   -0.0300 C   0  0  0  0  0  0  0  0  0  0  0  0
   -2.1221   -2.4507    0.0597 H   0  0  0  0  0  0  0  0  0  0  0  0
   -0.6212   -2.6075    0.8135 H   0  0  0  0  0  0  0  0  0  0  0  0
   -0.7451   -2.5437   -0.9683 H   0  0  0  0  0  0  0  0  0  0  0  0
   -1.1252   -0.7107   -0.0000 N   0  0  0  0  0  0  0  0  0  0  0  0
   -1.9986   -0.1268    0.0238 H   0  0  0  0  0  0  0  0  0  0  0  0
    0.0000    0.0000    0.0000 C   0  0  0  0  0  0  0  0  0  0  0  0
    1.1252   -0.5019    0.0000 O   0  0  0  0  0  0  0  0  0  0  0  0
   -0.1785    1.5163    0.0255 C   0  0  0  0  0  0  0  0  0  0  0  0
   -1.1559    1.7086    0.1965 H   0  0  0  0  0  0  0  0  0  0  0  0
    0.3979    1.9839    0.8238 H   0  0  0  0  0  0  0  0  0  0  0  0
    0.0995    1.9315   -0.9432 H   0  0  0  0  0  0  0  0  0  0  0  0
  1  5  1  0
  5  6  1  0
  5  9  2  0
  1  2  1  0
  1  3  1  0
  1  4  1  0
  6  7  1  0
  6  8  1  0
 10 14  1  0
 14 16  1  0
 16 17  2  0
 16 18  1  0
 10 11  1  0
 10 12  1  0
 10 13  1  0
 14 15  1  0
 18 19  1  0
 18 20  1  0
 18 21  1  0
M  END
>  <PDB_ID>  (726) 
pdb4ywe

>  <RESIDUE_NAME>  (726) 
GLN   GLN

>  <FRAG_NAME>  (726) 
ACEM   NMA

>  <FRAG_ATOM_NUM>  (726) 
fragi: 9  fragj: 12

>  <atom.prop.CHAIN_ID>  (726) 
A A A A A A A A A Z Z Z Z Z Z Z Z Z Z Z Z

>  <atom.prop.IS_HEAVY_ATOM>  (726) 
1 0 0 0 1 1 0 0 1 1 0 0 0 1 0 1 1 1 0 0 0

>  <DIFUSE_FUNC_ATOM>  (726) 
n/a

>  <FINAL_SINGLE_POINT_ENERGY>  (726) 
0

>  <NONCOV_INTER_ENERGY_QM>  (726) 
0

>  <FF_Energy>  (726) 
0.34

>  <QM_Energy>  (726) 
10.67

>  <source>  (726) 
ACEM_nNMA_51

>  <Index>  (726) 
11861

$$$$
ACEM-pdb4yw1-A-ASN-725:NMA-pdb4yw1-A-THR-279
     RDKit          3D

 21 19  0  0  0  0  0  0  0  0999 V2000
   -5.5335    1.9846    0.8697 C   0  0  0  0  0  0  0  0  0  0  0  0
   -6.4116    1.5366    0.7684 H   0  0  0  0  0  0  0  0  0  0  0  0
   -5.5655    2.9114    0.5186 H   0  0  0  0  0  0  0  0  0  0  0  0
   -5.2997    2.0347    1.9331 H   0  0  0  0  0  0  0  0  0  0  0  0
   -4.4881    1.1995    0.0913 C   0  0  0  0  0  0  0  0  0  0  0  0
   -3.3926    0.8940    0.7343 N   0  0  0  0  0  0  0  0  0  0  0  0
   -3.2671    1.1660    1.6945 H   0  0  0  0  0  0  0  0  0  0  0  0
   -2.6572    0.3798    0.2777 H   0  0  0  0  0  0  0  0  0  0  0  0
   -4.6808    0.8687   -1.0814 O   0  0  0  0  0  0  0  0  0  0  0  0
   -1.1154   -2.1387    0.1854 C   0  0  0  0  0  0  0  0  0  0  0  0
   -0.6747   -2.3536    1.0670 H   0  0  0  0  0  0  0  0  0  0  0  0
   -0.5541   -2.6233   -0.6135 H   0  0  0  0  0  0  0  0  0  0  0  0
   -2.1334   -2.5265    0.2240 H   0  0  0  0  0  0  0  0  0  0  0  0
   -1.1236   -0.7111   -0.0000 N   0  0  0  0  0  0  0  0  0  0  0  0
   -1.9885   -0.1485   -0.1431 H   0  0  0  0  0  0  0  0  0  0  0  0
    0.0000    0.0000    0.0000 C   0  0  0  0  0  0  0  0  0  0  0  0
    1.1236   -0.4983   -0.0000 O   0  0  0  0  0  0  0  0  0  0  0  0
   -0.2001    1.4937   -0.0260 C   0  0  0  0  0  0  0  0  0  0  0  0
   -1.0022    1.7226    0.5425 H   0  0  0  0  0  0  0  0  0  0  0  0
    0.6683    2.0103    0.3831 H   0  0  0  0  0  0  0  0  0  0  0  0
   -0.4138    1.7726   -1.0577 H   0  0  0  0  0  0  0  0  0  0  0  0
  1  5  1  0
  5  6  1  0
  5  9  2  0
  1  2  1  0
  1  3  1  0
  1  4  1  0
  6  7  1  0
  6  8  1  0
 10 14  1  0
 14 16  1  0
 16 17  2  0
 16 18  1  0
 10 11  1  0
 10 12  1  0
 10 13  1  0
 14 15  1  0
 18 19  1  0
 18 20  1  0
 18 21  1  0
M  END
>  <PDB_ID>  (727) 
pdb4yw1

>  <RESIDUE_NAME>  (727) 
ASN   THR

>  <FRAG_NAME>  (727) 
ACEM   NMA

>  <FRAG_ATOM_NUM>  (727) 
fragi: 9  fragj: 12

>  <atom.prop.CHAIN_ID>  (727) 
A A A A A A A A A Z Z Z Z Z Z Z Z Z Z Z Z

>  <atom.prop.IS_HEAVY_ATOM>  (727) 
1 0 0 0 1 1 0 0 1 1 0 0 0 1 0 1 1 1 0 0 0

>  <DIFUSE_FUNC_ATOM>  (727) 
n/a

>  <FINAL_SINGLE_POINT_ENERGY>  (727) 
0

>  <NONCOV_INTER_ENERGY_QM>  (727) 
0

>  <FF_Energy>  (727) 
10.63

>  <QM_Energy>  (727) 
29.09

>  <source>  (727) 
ACEM_nNMA_51

>  <Index>  (727) 
12857

$$$$
ACEM-pdb4ywe-D-GLN-98:NMA-pdb4ywe-D-GLN-276
     RDKit          3D

 21 19  0  0  0  0  0  0  0  0999 V2000
   -5.4507    1.2699   -1.6425 C   0  0  0  0  0  0  0  0  0  0  0  0
   -5.0266    1.9284   -2.2652 H   0  0  0  0  0  0  0  0  0  0  0  0
   -6.1570    1.7299   -1.1036 H   0  0  0  0  0  0  0  0  0  0  0  0
   -5.9189    0.4819   -2.2324 H   0  0  0  0  0  0  0  0  0  0  0  0
   -4.3871    0.7440   -0.6988 C   0  0  0  0  0  0  0  0  0  0  0  0
   -3.6957   -0.3084   -1.1176 N   0  0  0  0  0  0  0  0  0  0  0  0
   -2.9557   -0.7093   -0.5454 H   0  0  0  0  0  0  0  0  0  0  0  0
   -3.9182   -0.7138   -2.0257 H   0  0  0  0  0  0  0  0  0  0  0  0
   -4.1878    1.2793    0.3937 O   0  0  0  0  0  0  0  0  0  0  0  0
   -1.1592   -2.1716   -0.0404 C   0  0  0  0  0  0  0  0  0  0  0  0
   -2.1237   -2.4515    0.0753 H   0  0  0  0  0  0  0  0  0  0  0  0
   -0.5984   -2.6233    0.7779 H   0  0  0  0  0  0  0  0  0  0  0  0
   -0.7800   -2.5330   -0.9963 H   0  0  0  0  0  0  0  0  0  0  0  0
   -1.1264   -0.7108   -0.0000 N   0  0  0  0  0  0  0  0  0  0  0  0
   -1.9986   -0.1257    0.0317 H   0  0  0  0  0  0  0  0  0  0  0  0
    0.0000    0.0000    0.0000 C   0  0  0  0  0  0  0  0  0  0  0  0
    1.1264   -0.5025   -0.0000 O   0  0  0  0  0  0  0  0  0  0  0  0
   -0.1791    1.5134    0.0336 C   0  0  0  0  0  0  0  0  0  0  0  0
   -1.1422    1.7053    0.2650 H   0  0  0  0  0  0  0  0  0  0  0  0
    0.4460    1.9746    0.7981 H   0  0  0  0  0  0  0  0  0  0  0  0
    0.0390    1.9307   -0.9494 H   0  0  0  0  0  0  0  0  0  0  0  0
  1  5  1  0
  5  6  1  0
  5  9  2  0
  1  2  1  0
  1  3  1  0
  1  4  1  0
  6  7  1  0
  6  8  1  0
 10 14  1  0
 14 16  1  0
 16 17  2  0
 16 18  1  0
 10 11  1  0
 10 12  1  0
 10 13  1  0
 14 15  1  0
 18 19  1  0
 18 20  1  0
 18 21  1  0
M  END
>  <PDB_ID>  (728) 
pdb4ywe

>  <RESIDUE_NAME>  (728) 
GLN   GLN

>  <FRAG_NAME>  (728) 
ACEM   NMA

>  <FRAG_ATOM_NUM>  (728) 
fragi: 9  fragj: 12

>  <atom.prop.CHAIN_ID>  (728) 
A A A A A A A A A Z Z Z Z Z Z Z Z Z Z Z Z

>  <atom.prop.IS_HEAVY_ATOM>  (728) 
1 0 0 0 1 1 0 0 1 1 0 0 0 1 0 1 1 1 0 0 0

>  <DIFUSE_FUNC_ATOM>  (728) 
n/a

>  <FINAL_SINGLE_POINT_ENERGY>  (728) 
0

>  <NONCOV_INTER_ENERGY_QM>  (728) 
0

>  <FF_Energy>  (728) 
-0.13

>  <QM_Energy>  (728) 
11.09

>  <source>  (728) 
ACEM_nNMA_51

>  <Index>  (728) 
13065

$$$$
ACEM-pdb4zch-B-ASN-394:NMA-pdb4zch-B-ALA-99
     RDKit          3D

 21 19  0  0  0  0  0  0  0  0999 V2000
   -5.1986    2.4119   -1.5450 C   0  0  0  0  0  0  0  0  0  0  0  0
   -5.1251    2.2174   -2.5264 H   0  0  0  0  0  0  0  0  0  0  0  0
   -5.4015    3.3863   -1.4190 H   0  0  0  0  0  0  0  0  0  0  0  0
   -6.0361    1.8385   -1.1476 H   0  0  0  0  0  0  0  0  0  0  0  0
   -3.8845    2.1009   -0.8888 C   0  0  0  0  0  0  0  0  0  0  0  0
   -3.3752    0.8927   -1.1020 N   0  0  0  0  0  0  0  0  0  0  0  0
   -3.8702    0.2441   -1.6857 H   0  0  0  0  0  0  0  0  0  0  0  0
   -2.5077    0.6305   -0.6865 H   0  0  0  0  0  0  0  0  0  0  0  0
   -3.3318    2.9204   -0.1598 O   0  0  0  0  0  0  0  0  0  0  0  0
   -1.1897   -2.1730   -0.0583 C   0  0  0  0  0  0  0  0  0  0  0  0
   -0.3660   -2.5100   -0.4924 H   0  0  0  0  0  0  0  0  0  0  0  0
   -2.0351   -2.4303   -0.6964 H   0  0  0  0  0  0  0  0  0  0  0  0
   -1.3094   -2.6123    0.9320 H   0  0  0  0  0  0  0  0  0  0  0  0
   -1.1303   -0.7181   -0.0000 N   0  0  0  0  0  0  0  0  0  0  0  0
   -2.0019   -0.1178    0.0472 H   0  0  0  0  0  0  0  0  0  0  0  0
    0.0000    0.0000    0.0000 C   0  0  0  0  0  0  0  0  0  0  0  0
    1.1303   -0.5044    0.0000 O   0  0  0  0  0  0  0  0  0  0  0  0
   -0.1808    1.5104    0.0442 C   0  0  0  0  0  0  0  0  0  0  0  0
   -1.1719    1.7147    0.0903 H   0  0  0  0  0  0  0  0  0  0  0  0
    0.3086    1.9575    0.9094 H   0  0  0  0  0  0  0  0  0  0  0  0
    0.1879    1.9633   -0.8761 H   0  0  0  0  0  0  0  0  0  0  0  0
  1  5  1  0
  5  6  1  0
  5  9  2  0
  1  2  1  0
  1  3  1  0
  1  4  1  0
  6  7  1  0
  6  8  1  0
 10 14  1  0
 14 16  1  0
 16 17  2  0
 16 18  1  0
 10 11  1  0
 10 12  1  0
 10 13  1  0
 14 15  1  0
 18 19  1  0
 18 20  1  0
 18 21  1  0
M  END
>  <PDB_ID>  (729) 
pdb4zch

>  <RESIDUE_NAME>  (729) 
ASN   ALA

>  <FRAG_NAME>  (729) 
ACEM   NMA

>  <FRAG_ATOM_NUM>  (729) 
fragi: 9  fragj: 12

>  <atom.prop.CHAIN_ID>  (729) 
A A A A A A A A A Z Z Z Z Z Z Z Z Z Z Z Z

>  <atom.prop.IS_HEAVY_ATOM>  (729) 
1 0 0 0 1 1 0 0 1 1 0 0 0 1 0 1 1 1 0 0 0

>  <DIFUSE_FUNC_ATOM>  (729) 
n/a

>  <FINAL_SINGLE_POINT_ENERGY>  (729) 
0

>  <NONCOV_INTER_ENERGY_QM>  (729) 
0

>  <FF_Energy>  (729) 
3.47

>  <QM_Energy>  (729) 
14.42

>  <source>  (729) 
ACEM_nNMA_51

>  <Index>  (729) 
15170

$$$$
ACEM-pdb4ywe-G-GLN-98:NMA-pdb4ywe-G-GLN-276
     RDKit          3D

 21 19  0  0  0  0  0  0  0  0999 V2000
   -5.4661    1.1276   -1.7567 C   0  0  0  0  0  0  0  0  0  0  0  0
   -5.0495    1.8403   -2.3212 H   0  0  0  0  0  0  0  0  0  0  0  0
   -6.2437    1.5102   -1.2566 H   0  0  0  0  0  0  0  0  0  0  0  0
   -5.8277    0.3325   -2.4087 H   0  0  0  0  0  0  0  0  0  0  0  0
   -4.4359    0.6422   -0.7541 C   0  0  0  0  0  0  0  0  0  0  0  0
   -3.7330   -0.4311   -1.0996 N   0  0  0  0  0  0  0  0  0  0  0  0
   -3.0156   -0.8054   -0.4855 H   0  0  0  0  0  0  0  0  0  0  0  0
   -3.9267   -0.8764   -1.9958 H   0  0  0  0  0  0  0  0  0  0  0  0
   -4.2716    1.2261    0.3157 O   0  0  0  0  0  0  0  0  0  0  0  0
   -1.1508   -2.1709   -0.0213 C   0  0  0  0  0  0  0  0  0  0  0  0
   -2.1113   -2.4534    0.0936 H   0  0  0  0  0  0  0  0  0  0  0  0
   -0.5931   -2.5925    0.8149 H   0  0  0  0  0  0  0  0  0  0  0  0
   -0.7564   -2.5476   -0.9649 H   0  0  0  0  0  0  0  0  0  0  0  0
   -1.1260   -0.7105   -0.0000 N   0  0  0  0  0  0  0  0  0  0  0  0
   -1.9987   -0.1284    0.0169 H   0  0  0  0  0  0  0  0  0  0  0  0
    0.0000    0.0000    0.0000 C   0  0  0  0  0  0  0  0  0  0  0  0
    1.1260   -0.5025    0.0000 O   0  0  0  0  0  0  0  0  0  0  0  0
   -0.1782    1.5153    0.0112 C   0  0  0  0  0  0  0  0  0  0  0  0
   -1.1532    1.7092    0.1994 H   0  0  0  0  0  0  0  0  0  0  0  0
    0.4137    2.0002    0.7874 H   0  0  0  0  0  0  0  0  0  0  0  0
    0.0770    1.9188   -0.9688 H   0  0  0  0  0  0  0  0  0  0  0  0
  1  5  1  0
  5  6  1  0
  5  9  2  0
  1  2  1  0
  1  3  1  0
  1  4  1  0
  6  7  1  0
  6  8  1  0
 10 14  1  0
 14 16  1  0
 16 17  2  0
 16 18  1  0
 10 11  1  0
 10 12  1  0
 10 13  1  0
 14 15  1  0
 18 19  1  0
 18 20  1  0
 18 21  1  0
M  END
>  <PDB_ID>  (730) 
pdb4ywe

>  <RESIDUE_NAME>  (730) 
GLN   GLN

>  <FRAG_NAME>  (730) 
ACEM   NMA

>  <FRAG_ATOM_NUM>  (730) 
fragi: 9  fragj: 12

>  <atom.prop.CHAIN_ID>  (730) 
A A A A A A A A A Z Z Z Z Z Z Z Z Z Z Z Z

>  <atom.prop.IS_HEAVY_ATOM>  (730) 
1 0 0 0 1 1 0 0 1 1 0 0 0 1 0 1 1 1 0 0 0

>  <DIFUSE_FUNC_ATOM>  (730) 
n/a

>  <FINAL_SINGLE_POINT_ENERGY>  (730) 
0

>  <NONCOV_INTER_ENERGY_QM>  (730) 
0

>  <FF_Energy>  (730) 
-0.62

>  <QM_Energy>  (730) 
9.44

>  <source>  (730) 
ACEM_nNMA_51

>  <Index>  (730) 
18378

$$$$
ACEM-pdb4zjn-C-ASN-322:NMA-pdb4zjn-B-PHE-316
     RDKit          3D

 21 19  0  0  0  0  0  0  0  0999 V2000
   -4.9203    2.8147    0.9284 C   0  0  0  0  0  0  0  0  0  0  0  0
   -5.7399    3.0562    0.4183 H   0  0  0  0  0  0  0  0  0  0  0  0
   -4.2725    3.5698    0.9212 H   0  0  0  0  0  0  0  0  0  0  0  0
   -5.2121    2.6370    1.9634 H   0  0  0  0  0  0  0  0  0  0  0  0
   -4.2778    1.6050    0.2863 C   0  0  0  0  0  0  0  0  0  0  0  0
   -3.1778    1.1538    0.8451 N   0  0  0  0  0  0  0  0  0  0  0  0
   -2.8037    1.6035    1.6631 H   0  0  0  0  0  0  0  0  0  0  0  0
   -2.7015    0.3577    0.4639 H   0  0  0  0  0  0  0  0  0  0  0  0
   -4.7764    1.0871   -0.7143 O   0  0  0  0  0  0  0  0  0  0  0  0
   -1.1514   -2.1722    0.1181 C   0  0  0  0  0  0  0  0  0  0  0  0
   -0.4054   -2.4224    0.7236 H   0  0  0  0  0  0  0  0  0  0  0  0
   -0.9191   -2.5894   -0.8617 H   0  0  0  0  0  0  0  0  0  0  0  0
   -2.1137   -2.5237    0.4905 H   0  0  0  0  0  0  0  0  0  0  0  0
   -1.1434   -0.7048    0.0000 N   0  0  0  0  0  0  0  0  0  0  0  0
   -2.0032   -0.1356   -0.0885 H   0  0  0  0  0  0  0  0  0  0  0  0
    0.0000    0.0000    0.0000 C   0  0  0  0  0  0  0  0  0  0  0  0
    1.1434   -0.5325    0.0000 O   0  0  0  0  0  0  0  0  0  0  0  0
   -0.1137    1.5317    0.0263 C   0  0  0  0  0  0  0  0  0  0  0  0
   -0.8287    1.7568    0.6779 H   0  0  0  0  0  0  0  0  0  0  0  0
    0.8152    1.9360    0.4286 H   0  0  0  0  0  0  0  0  0  0  0  0
   -0.3591    1.9201   -0.9621 H   0  0  0  0  0  0  0  0  0  0  0  0
  1  5  1  0
  5  6  1  0
  5  9  2  0
  1  2  1  0
  1  3  1  0
  1  4  1  0
  6  7  1  0
  6  8  1  0
 10 14  1  0
 14 16  1  0
 16 17  2  0
 16 18  1  0
 10 11  1  0
 10 12  1  0
 10 13  1  0
 14 15  1  0
 18 19  1  0
 18 20  1  0
 18 21  1  0
M  END
>  <PDB_ID>  (731) 
pdb4zjn

>  <RESIDUE_NAME>  (731) 
ASN   PHE

>  <FRAG_NAME>  (731) 
ACEM   NMA

>  <FRAG_ATOM_NUM>  (731) 
fragi: 9  fragj: 12

>  <atom.prop.CHAIN_ID>  (731) 
A A A A A A A A A Z Z Z Z Z Z Z Z Z Z Z Z

>  <atom.prop.IS_HEAVY_ATOM>  (731) 
1 0 0 0 1 1 0 0 1 1 0 0 0 1 0 1 1 1 0 0 0

>  <DIFUSE_FUNC_ATOM>  (731) 
n/a

>  <FINAL_SINGLE_POINT_ENERGY>  (731) 
0

>  <NONCOV_INTER_ENERGY_QM>  (731) 
0

>  <FF_Energy>  (731) 
10.19

>  <QM_Energy>  (731) 
24.15

>  <source>  (731) 
ACEM_nNMA_51

>  <Index>  (731) 
19086

$$$$
ACEM-pdb4zl4-B-ASN-204:NMA-pdb4zl4-B-LEU-193
     RDKit          3D

 21 19  0  0  0  0  0  0  0  0999 V2000
   -5.4406    0.3842    1.8215 C   0  0  0  0  0  0  0  0  0  0  0  0
   -4.9196   -0.1301    2.4971 H   0  0  0  0  0  0  0  0  0  0  0  0
   -6.1904   -0.1702    1.4717 H   0  0  0  0  0  0  0  0  0  0  0  0
   -5.8598    1.2656    2.3066 H   0  0  0  0  0  0  0  0  0  0  0  0
   -4.5317    0.7464    0.6811 C   0  0  0  0  0  0  0  0  0  0  0  0
   -3.3414    0.1782    0.6777 N   0  0  0  0  0  0  0  0  0  0  0  0
   -3.0816   -0.4619    1.4052 H   0  0  0  0  0  0  0  0  0  0  0  0
   -2.6848    0.3827   -0.0536 H   0  0  0  0  0  0  0  0  0  0  0  0
   -4.8946    1.5075   -0.1946 O   0  0  0  0  0  0  0  0  0  0  0  0
   -1.1529   -2.1614    0.0998 C   0  0  0  0  0  0  0  0  0  0  0  0
   -0.4968   -2.4385    0.8155 H   0  0  0  0  0  0  0  0  0  0  0  0
   -0.8490   -2.6319   -0.8353 H   0  0  0  0  0  0  0  0  0  0  0  0
   -2.1513   -2.4986    0.3785 H   0  0  0  0  0  0  0  0  0  0  0  0
   -1.1244   -0.7091   -0.0000 N   0  0  0  0  0  0  0  0  0  0  0  0
   -1.9955   -0.1281   -0.0784 H   0  0  0  0  0  0  0  0  0  0  0  0
    0.0000    0.0000    0.0000 C   0  0  0  0  0  0  0  0  0  0  0  0
    1.1244   -0.4976   -0.0000 O   0  0  0  0  0  0  0  0  0  0  0  0
   -0.1840    1.5051   -0.0595 C   0  0  0  0  0  0  0  0  0  0  0  0
   -0.9897    1.7505    0.5151 H   0  0  0  0  0  0  0  0  0  0  0  0
    0.6794    2.0651    0.2997 H   0  0  0  0  0  0  0  0  0  0  0  0
   -0.4033    1.7936   -1.0875 H   0  0  0  0  0  0  0  0  0  0  0  0
  1  5  1  0
  5  6  1  0
  5  9  2  0
  1  2  1  0
  1  3  1  0
  1  4  1  0
  6  7  1  0
  6  8  1  0
 10 14  1  0
 14 16  1  0
 16 17  2  0
 16 18  1  0
 10 11  1  0
 10 12  1  0
 10 13  1  0
 14 15  1  0
 18 19  1  0
 18 20  1  0
 18 21  1  0
M  END
>  <PDB_ID>  (732) 
pdb4zl4

>  <RESIDUE_NAME>  (732) 
ASN   LEU

>  <FRAG_NAME>  (732) 
ACEM   NMA

>  <FRAG_ATOM_NUM>  (732) 
fragi: 9  fragj: 12

>  <atom.prop.CHAIN_ID>  (732) 
A A A A A A A A A Z Z Z Z Z Z Z Z Z Z Z Z

>  <atom.prop.IS_HEAVY_ATOM>  (732) 
1 0 0 0 1 1 0 0 1 1 0 0 0 1 0 1 1 1 0 0 0

>  <DIFUSE_FUNC_ATOM>  (732) 
n/a

>  <FINAL_SINGLE_POINT_ENERGY>  (732) 
0

>  <NONCOV_INTER_ENERGY_QM>  (732) 
0

>  <FF_Energy>  (732) 
29.44

>  <QM_Energy>  (732) 
51.65

>  <source>  (732) 
ACEM_nNMA_51

>  <Index>  (732) 
19156

$$$$
ACEM-pdb4zw2-A-GLN-247:NMA-pdb4zw2-A-ILE-242
     RDKit          3D

 21 19  0  0  0  0  0  0  0  0999 V2000
   -4.9631    1.7663   -2.1552 C   0  0  0  0  0  0  0  0  0  0  0  0
   -5.7919    2.2488   -1.9086 H   0  0  0  0  0  0  0  0  0  0  0  0
   -5.1647    0.9636   -2.6988 H   0  0  0  0  0  0  0  0  0  0  0  0
   -4.3193    2.4329   -2.7292 H   0  0  0  0  0  0  0  0  0  0  0  0
   -4.2601    1.3305   -0.8845 C   0  0  0  0  0  0  0  0  0  0  0  0
   -3.5039    0.2265   -0.9855 N   0  0  0  0  0  0  0  0  0  0  0  0
   -2.9909   -0.1191   -0.1789 H   0  0  0  0  0  0  0  0  0  0  0  0
   -3.4577   -0.2514   -1.8773 H   0  0  0  0  0  0  0  0  0  0  0  0
   -4.5326    1.8560    0.2015 O   0  0  0  0  0  0  0  0  0  0  0  0
   -1.1102   -2.1634   -0.0934 C   0  0  0  0  0  0  0  0  0  0  0  0
   -0.1309   -2.4487    0.0171 H   0  0  0  0  0  0  0  0  0  0  0  0
   -1.4722   -2.5819   -1.0325 H   0  0  0  0  0  0  0  0  0  0  0  0
   -1.7214   -2.5774    0.7085 H   0  0  0  0  0  0  0  0  0  0  0  0
   -1.1169   -0.6874    0.0000 N   0  0  0  0  0  0  0  0  0  0  0  0
   -1.9894   -0.1357    0.0687 H   0  0  0  0  0  0  0  0  0  0  0  0
    0.0000    0.0000    0.0000 C   0  0  0  0  0  0  0  0  0  0  0  0
    1.1169   -0.5707    0.0000 O   0  0  0  0  0  0  0  0  0  0  0  0
   -0.1941    1.5169    0.0379 C   0  0  0  0  0  0  0  0  0  0  0  0
   -1.1663    1.6810   -0.1828 H   0  0  0  0  0  0  0  0  0  0  0  0
   -0.0220    1.9305    1.0317 H   0  0  0  0  0  0  0  0  0  0  0  0
    0.4314    1.9542   -0.7403 H   0  0  0  0  0  0  0  0  0  0  0  0
  1  5  1  0
  5  6  1  0
  5  9  2  0
  1  2  1  0
  1  3  1  0
  1  4  1  0
  6  7  1  0
  6  8  1  0
 10 14  1  0
 14 16  1  0
 16 17  2  0
 16 18  1  0
 10 11  1  0
 10 12  1  0
 10 13  1  0
 14 15  1  0
 18 19  1  0
 18 20  1  0
 18 21  1  0
M  END
>  <PDB_ID>  (733) 
pdb4zw2

>  <RESIDUE_NAME>  (733) 
GLN   ILE

>  <FRAG_NAME>  (733) 
ACEM   NMA

>  <FRAG_ATOM_NUM>  (733) 
fragi: 9  fragj: 12

>  <atom.prop.CHAIN_ID>  (733) 
A A A A A A A A A Z Z Z Z Z Z Z Z Z Z Z Z

>  <atom.prop.IS_HEAVY_ATOM>  (733) 
1 0 0 0 1 1 0 0 1 1 0 0 0 1 0 1 1 1 0 0 0

>  <DIFUSE_FUNC_ATOM>  (733) 
n/a

>  <FINAL_SINGLE_POINT_ENERGY>  (733) 
0

>  <NONCOV_INTER_ENERGY_QM>  (733) 
0

>  <FF_Energy>  (733) 
8.94

>  <QM_Energy>  (733) 
25.16

>  <source>  (733) 
ACEM_nNMA_51

>  <Index>  (733) 
22905

$$$$
ACEM-pdb5a69-A-ASN-376:NMA-pdb5a69-A-GLN-613
     RDKit          3D

 21 19  0  0  0  0  0  0  0  0999 V2000
   -5.0149    2.6096    1.1001 C   0  0  0  0  0  0  0  0  0  0  0  0
   -4.6073    3.5189    1.0230 H   0  0  0  0  0  0  0  0  0  0  0  0
   -4.9261    2.2804    2.0399 H   0  0  0  0  0  0  0  0  0  0  0  0
   -6.0781    2.7001    0.8776 H   0  0  0  0  0  0  0  0  0  0  0  0
   -4.2770    1.6626    0.1779 C   0  0  0  0  0  0  0  0  0  0  0  0
   -3.3634    0.8251    0.7332 N   0  0  0  0  0  0  0  0  0  0  0  0
   -3.2324    0.8757    1.7256 H   0  0  0  0  0  0  0  0  0  0  0  0
   -2.8604    0.1988    0.1707 H   0  0  0  0  0  0  0  0  0  0  0  0
   -4.5408    1.6435   -1.0193 O   0  0  0  0  0  0  0  0  0  0  0  0
   -1.1579   -2.0998    0.1791 C   0  0  0  0  0  0  0  0  0  0  0  0
   -0.7519   -2.3089    1.0789 H   0  0  0  0  0  0  0  0  0  0  0  0
   -0.5431   -2.5774   -0.5838 H   0  0  0  0  0  0  0  0  0  0  0  0
   -2.1722   -2.4959    0.1295 H   0  0  0  0  0  0  0  0  0  0  0  0
   -1.1396   -0.6884    0.0000 N   0  0  0  0  0  0  0  0  0  0  0  0
   -1.9910   -0.1005   -0.1410 H   0  0  0  0  0  0  0  0  0  0  0  0
    0.0000    0.0000    0.0000 C   0  0  0  0  0  0  0  0  0  0  0  0
    1.1396   -0.5256    0.0000 O   0  0  0  0  0  0  0  0  0  0  0  0
   -0.1954    1.5185   -0.0523 C   0  0  0  0  0  0  0  0  0  0  0  0
   -1.1698    1.6946   -0.0540 H   0  0  0  0  0  0  0  0  0  0  0  0
    0.2296    1.9172    0.8689 H   0  0  0  0  0  0  0  0  0  0  0  0
    0.2709    1.9490   -0.9385 H   0  0  0  0  0  0  0  0  0  0  0  0
  1  5  1  0
  5  6  1  0
  5  9  2  0
  1  2  1  0
  1  3  1  0
  1  4  1  0
  6  7  1  0
  6  8  1  0
 10 14  1  0
 14 16  1  0
 16 17  2  0
 16 18  1  0
 10 11  1  0
 10 12  1  0
 10 13  1  0
 14 15  1  0
 18 19  1  0
 18 20  1  0
 18 21  1  0
M  END
>  <PDB_ID>  (734) 
pdb5a69

>  <RESIDUE_NAME>  (734) 
ASN   GLN

>  <FRAG_NAME>  (734) 
ACEM   NMA

>  <FRAG_ATOM_NUM>  (734) 
fragi: 9  fragj: 12

>  <atom.prop.CHAIN_ID>  (734) 
A A A A A A A A A Z Z Z Z Z Z Z Z Z Z Z Z

>  <atom.prop.IS_HEAVY_ATOM>  (734) 
1 0 0 0 1 1 0 0 1 1 0 0 0 1 0 1 1 1 0 0 0

>  <DIFUSE_FUNC_ATOM>  (734) 
n/a

>  <FINAL_SINGLE_POINT_ENERGY>  (734) 
0

>  <NONCOV_INTER_ENERGY_QM>  (734) 
0

>  <FF_Energy>  (734) 
10.55

>  <QM_Energy>  (734) 
29.14

>  <source>  (734) 
ACEM_nNMA_52

>  <Index>  (734) 
829

$$$$
ACEM-pdb5agr-B-ASN-488:NMA-pdb5agr-B-ASN-483
     RDKit          3D

 21 19  0  0  0  0  0  0  0  0999 V2000
   -6.1650   -0.1619   -0.3745 C   0  0  0  0  0  0  0  0  0  0  0  0
   -6.7735   -0.5162   -1.0838 H   0  0  0  0  0  0  0  0  0  0  0  0
   -6.3905    0.7939   -0.1857 H   0  0  0  0  0  0  0  0  0  0  0  0
   -6.3262   -0.7385    0.5363 H   0  0  0  0  0  0  0  0  0  0  0  0
   -4.7346   -0.2255   -0.8925 C   0  0  0  0  0  0  0  0  0  0  0  0
   -3.8278   -0.7026   -0.0649 N   0  0  0  0  0  0  0  0  0  0  0  0
   -4.0945   -1.0084    0.8542 H   0  0  0  0  0  0  0  0  0  0  0  0
   -2.8675   -0.7655   -0.3442 H   0  0  0  0  0  0  0  0  0  0  0  0
   -4.4548    0.1802   -2.0366 O   0  0  0  0  0  0  0  0  0  0  0  0
   -1.1383   -2.1566    0.2454 C   0  0  0  0  0  0  0  0  0  0  0  0
   -0.2029   -2.5090    0.0889 H   0  0  0  0  0  0  0  0  0  0  0  0
   -1.8107   -2.6845   -0.4309 H   0  0  0  0  0  0  0  0  0  0  0  0
   -1.4031   -2.3655    1.2818 H   0  0  0  0  0  0  0  0  0  0  0  0
   -1.1246   -0.7184    0.0000 N   0  0  0  0  0  0  0  0  0  0  0  0
   -1.9885   -0.1636   -0.1902 H   0  0  0  0  0  0  0  0  0  0  0  0
    0.0000    0.0000    0.0000 C   0  0  0  0  0  0  0  0  0  0  0  0
    1.1246   -0.5025    0.0000 O   0  0  0  0  0  0  0  0  0  0  0  0
   -0.1839    1.5237   -0.0317 C   0  0  0  0  0  0  0  0  0  0  0  0
   -0.2994    1.7850   -1.0029 H   0  0  0  0  0  0  0  0  0  0  0  0
   -1.0775    1.8568    0.4960 H   0  0  0  0  0  0  0  0  0  0  0  0
    0.7012    2.0329    0.3495 H   0  0  0  0  0  0  0  0  0  0  0  0
  1  5  1  0
  5  6  1  0
  5  9  2  0
  1  2  1  0
  1  3  1  0
  1  4  1  0
  6  7  1  0
  6  8  1  0
 10 14  1  0
 14 16  1  0
 16 17  2  0
 16 18  1  0
 10 11  1  0
 10 12  1  0
 10 13  1  0
 14 15  1  0
 18 19  1  0
 18 20  1  0
 18 21  1  0
M  END
>  <PDB_ID>  (735) 
pdb5agr

>  <RESIDUE_NAME>  (735) 
ASN   ASN

>  <FRAG_NAME>  (735) 
ACEM   NMA

>  <FRAG_ATOM_NUM>  (735) 
fragi: 9  fragj: 12

>  <atom.prop.CHAIN_ID>  (735) 
A A A A A A A A A Z Z Z Z Z Z Z Z Z Z Z Z

>  <atom.prop.IS_HEAVY_ATOM>  (735) 
1 0 0 0 1 1 0 0 1 1 0 0 0 1 0 1 1 1 0 0 0

>  <DIFUSE_FUNC_ATOM>  (735) 
n/a

>  <FINAL_SINGLE_POINT_ENERGY>  (735) 
0

>  <NONCOV_INTER_ENERGY_QM>  (735) 
0

>  <FF_Energy>  (735) 
8.25

>  <QM_Energy>  (735) 
23.11

>  <source>  (735) 
ACEM_nNMA_52

>  <Index>  (735) 
4007

$$$$
ACEM-pdb6aii-A-GLN-196:NMA-pdb6aii-A-ARG-174
     RDKit          3D

 21 19  0  0  0  0  0  0  0  0999 V2000
   -5.1427    1.6860    2.1233 C   0  0  0  0  0  0  0  0  0  0  0  0
   -5.2076    0.9914    2.8383 H   0  0  0  0  0  0  0  0  0  0  0  0
   -6.0570    1.9090    1.7887 H   0  0  0  0  0  0  0  0  0  0  0  0
   -4.7283    2.5869    2.5757 H   0  0  0  0  0  0  0  0  0  0  0  0
   -4.3071    1.1652    0.9927 C   0  0  0  0  0  0  0  0  0  0  0  0
   -2.9795    0.9666    1.2696 N   0  0  0  0  0  0  0  0  0  0  0  0
   -2.3645    0.6050    0.5603 H   0  0  0  0  0  0  0  0  0  0  0  0
   -2.6537    1.1940    2.1986 H   0  0  0  0  0  0  0  0  0  0  0  0
   -4.7891    0.8934   -0.1334 O   0  0  0  0  0  0  0  0  0  0  0  0
   -1.1298   -2.1616    0.1633 C   0  0  0  0  0  0  0  0  0  0  0  0
   -0.2595   -2.3913    0.5935 H   0  0  0  0  0  0  0  0  0  0  0  0
   -1.1551   -2.6485   -0.8116 H   0  0  0  0  0  0  0  0  0  0  0  0
   -1.9418   -2.5077    0.8028 H   0  0  0  0  0  0  0  0  0  0  0  0
   -1.1308   -0.6583    0.0000 N   0  0  0  0  0  0  0  0  0  0  0  0
   -1.9907   -0.1221   -0.1131 H   0  0  0  0  0  0  0  0  0  0  0  0
    0.0000    0.0000    0.0000 C   0  0  0  0  0  0  0  0  0  0  0  0
    1.1308   -0.5169   -0.0000 O   0  0  0  0  0  0  0  0  0  0  0  0
   -0.1400    1.5015   -0.1969 C   0  0  0  0  0  0  0  0  0  0  0  0
   -1.1019    1.7272   -0.3426 H   0  0  0  0  0  0  0  0  0  0  0  0
    0.1967    2.0179    0.7020 H   0  0  0  0  0  0  0  0  0  0  0  0
    0.3875    1.8784   -1.0732 H   0  0  0  0  0  0  0  0  0  0  0  0
  1  5  1  0
  5  6  1  0
  5  9  2  0
  1  2  1  0
  1  3  1  0
  1  4  1  0
  6  7  1  0
  6  8  1  0
 10 14  1  0
 14 16  1  0
 16 17  2  0
 16 18  1  0
 10 11  1  0
 10 12  1  0
 10 13  1  0
 14 15  1  0
 18 19  1  0
 18 20  1  0
 18 21  1  0
M  END
>  <PDB_ID>  (736) 
pdb6aii

>  <RESIDUE_NAME>  (736) 
GLN   ARG

>  <FRAG_NAME>  (736) 
ACEM   NMA

>  <FRAG_ATOM_NUM>  (736) 
fragi: 9  fragj: 12

>  <atom.prop.CHAIN_ID>  (736) 
A A A A A A A A A Z Z Z Z Z Z Z Z Z Z Z Z

>  <atom.prop.IS_HEAVY_ATOM>  (736) 
1 0 0 0 1 1 0 0 1 1 0 0 0 1 0 1 1 1 0 0 0

>  <DIFUSE_FUNC_ATOM>  (736) 
n/a

>  <FINAL_SINGLE_POINT_ENERGY>  (736) 
0

>  <NONCOV_INTER_ENERGY_QM>  (736) 
0

>  <FF_Energy>  (736) 
10.73

>  <QM_Energy>  (736) 
23.25

>  <source>  (736) 
ACEM_nNMA_52

>  <Index>  (736) 
9210

$$$$
ACEM-pdb5ar6-A-ASN-26:NMA-pdb5ar6-A-ARG-93
     RDKit          3D

 21 19  0  0  0  0  0  0  0  0999 V2000
   -4.9186    2.1596    2.0232 C   0  0  0  0  0  0  0  0  0  0  0  0
   -5.8971    2.1567    1.8455 H   0  0  0  0  0  0  0  0  0  0  0  0
   -4.5872    3.0920    2.1202 H   0  0  0  0  0  0  0  0  0  0  0  0
   -4.7370    1.6314    2.9592 H   0  0  0  0  0  0  0  0  0  0  0  0
   -4.2107    1.5087    0.8635 C   0  0  0  0  0  0  0  0  0  0  0  0
   -3.2213    0.6842    1.1543 N   0  0  0  0  0  0  0  0  0  0  0  0
   -2.9783    0.5127    2.1128 H   0  0  0  0  0  0  0  0  0  0  0  0
   -2.7120    0.2273    0.4249 H   0  0  0  0  0  0  0  0  0  0  0  0
   -4.5820    1.7239   -0.2863 O   0  0  0  0  0  0  0  0  0  0  0  0
   -1.2053   -2.1305    0.2439 C   0  0  0  0  0  0  0  0  0  0  0  0
   -0.2664   -2.5134    0.1649 H   0  0  0  0  0  0  0  0  0  0  0  0
   -1.8451   -2.6518   -0.4681 H   0  0  0  0  0  0  0  0  0  0  0  0
   -1.5822   -2.3134    1.2502 H   0  0  0  0  0  0  0  0  0  0  0  0
   -1.1338   -0.7042    0.0000 N   0  0  0  0  0  0  0  0  0  0  0  0
   -1.9897   -0.1154   -0.1975 H   0  0  0  0  0  0  0  0  0  0  0  0
    0.0000    0.0000    0.0000 C   0  0  0  0  0  0  0  0  0  0  0  0
    1.1338   -0.5001   -0.0000 O   0  0  0  0  0  0  0  0  0  0  0  0
   -0.1718    1.5044   -0.0540 C   0  0  0  0  0  0  0  0  0  0  0  0
   -1.0771    1.7416    0.3078 H   0  0  0  0  0  0  0  0  0  0  0  0
    0.5893    1.9847    0.5610 H   0  0  0  0  0  0  0  0  0  0  0  0
   -0.0942    1.8550   -1.0832 H   0  0  0  0  0  0  0  0  0  0  0  0
  1  5  1  0
  5  6  1  0
  5  9  2  0
  1  2  1  0
  1  3  1  0
  1  4  1  0
  6  7  1  0
  6  8  1  0
 10 14  1  0
 14 16  1  0
 16 17  2  0
 16 18  1  0
 10 11  1  0
 10 12  1  0
 10 13  1  0
 14 15  1  0
 18 19  1  0
 18 20  1  0
 18 21  1  0
M  END
>  <PDB_ID>  (737) 
pdb5ar6

>  <RESIDUE_NAME>  (737) 
ASN   ARG

>  <FRAG_NAME>  (737) 
ACEM   NMA

>  <FRAG_ATOM_NUM>  (737) 
fragi: 9  fragj: 12

>  <atom.prop.CHAIN_ID>  (737) 
A A A A A A A A A Z Z Z Z Z Z Z Z Z Z Z Z

>  <atom.prop.IS_HEAVY_ATOM>  (737) 
1 0 0 0 1 1 0 0 1 1 0 0 0 1 0 1 1 1 0 0 0

>  <DIFUSE_FUNC_ATOM>  (737) 
n/a

>  <FINAL_SINGLE_POINT_ENERGY>  (737) 
0

>  <NONCOV_INTER_ENERGY_QM>  (737) 
0

>  <FF_Energy>  (737) 
9.64

>  <QM_Energy>  (737) 
25.78

>  <source>  (737) 
ACEM_nNMA_52

>  <Index>  (737) 
10706

$$$$
ACEM-pdb6aii-A-ASN-361:NMA-pdb6aii-A-ASN-364
     RDKit          3D

 21 19  0  0  0  0  0  0  0  0999 V2000
   -5.1514    1.6140   -1.8787 C   0  0  0  0  0  0  0  0  0  0  0  0
   -5.6689    0.8775   -2.2870 H   0  0  0  0  0  0  0  0  0  0  0  0
   -5.2043    2.4379   -2.4221 H   0  0  0  0  0  0  0  0  0  0  0  0
   -5.5608    1.8216   -0.8900 H   0  0  0  0  0  0  0  0  0  0  0  0
   -3.7007    1.1911   -1.7762 C   0  0  0  0  0  0  0  0  0  0  0  0
   -3.2436    0.9038   -0.5676 N   0  0  0  0  0  0  0  0  0  0  0  0
   -3.8590    0.9679    0.2234 H   0  0  0  0  0  0  0  0  0  0  0  0
   -2.2944    0.6248   -0.4389 H   0  0  0  0  0  0  0  0  0  0  0  0
   -3.0268    1.0325   -2.7973 O   0  0  0  0  0  0  0  0  0  0  0  0
   -1.1819   -2.1374   -0.1828 C   0  0  0  0  0  0  0  0  0  0  0  0
   -2.1336   -2.4134   -0.4556 H   0  0  0  0  0  0  0  0  0  0  0  0
   -0.5854   -2.4184   -0.9713 H   0  0  0  0  0  0  0  0  0  0  0  0
   -0.8938   -2.7272    0.6874 H   0  0  0  0  0  0  0  0  0  0  0  0
   -1.1158   -0.7323   -0.0000 N   0  0  0  0  0  0  0  0  0  0  0  0
   -1.9878   -0.1280    0.1580 H   0  0  0  0  0  0  0  0  0  0  0  0
    0.0000    0.0000    0.0000 C   0  0  0  0  0  0  0  0  0  0  0  0
    1.1158   -0.4785    0.0000 O   0  0  0  0  0  0  0  0  0  0  0  0
   -0.1826    1.5162    0.0681 C   0  0  0  0  0  0  0  0  0  0  0  0
   -0.6332    1.7920   -0.7836 H   0  0  0  0  0  0  0  0  0  0  0  0
   -0.8502    1.7694    0.8917 H   0  0  0  0  0  0  0  0  0  0  0  0
    0.7492    2.0726    0.1686 H   0  0  0  0  0  0  0  0  0  0  0  0
  1  5  1  0
  5  6  1  0
  5  9  2  0
  1  2  1  0
  1  3  1  0
  1  4  1  0
  6  7  1  0
  6  8  1  0
 10 14  1  0
 14 16  1  0
 16 17  2  0
 16 18  1  0
 10 11  1  0
 10 12  1  0
 10 13  1  0
 14 15  1  0
 18 19  1  0
 18 20  1  0
 18 21  1  0
M  END
>  <PDB_ID>  (738) 
pdb6aii

>  <RESIDUE_NAME>  (738) 
ASN   ASN

>  <FRAG_NAME>  (738) 
ACEM   NMA

>  <FRAG_ATOM_NUM>  (738) 
fragi: 9  fragj: 12

>  <atom.prop.CHAIN_ID>  (738) 
A A A A A A A A A Z Z Z Z Z Z Z Z Z Z Z Z

>  <atom.prop.IS_HEAVY_ATOM>  (738) 
1 0 0 0 1 1 0 0 1 1 0 0 0 1 0 1 1 1 0 0 0

>  <DIFUSE_FUNC_ATOM>  (738) 
n/a

>  <FINAL_SINGLE_POINT_ENERGY>  (738) 
0

>  <NONCOV_INTER_ENERGY_QM>  (738) 
0

>  <FF_Energy>  (738) 
12.74

>  <QM_Energy>  (738) 
29.61

>  <source>  (738) 
ACEM_nNMA_52

>  <Index>  (738) 
10861

$$$$
ACEM-pdb5az4-A-ASN-130:NMA-pdb5az4-A-GLY-133
     RDKit          3D

 21 19  0  0  0  0  0  0  0  0999 V2000
   -5.4458    0.1749   -1.7358 C   0  0  0  0  0  0  0  0  0  0  0  0
   -6.2524    0.7026   -1.4872 H   0  0  0  0  0  0  0  0  0  0  0  0
   -5.7140   -0.6734   -2.1837 H   0  0  0  0  0  0  0  0  0  0  0  0
   -4.8517    0.7621   -2.4360 H   0  0  0  0  0  0  0  0  0  0  0  0
   -4.6818   -0.1671   -0.4696 C   0  0  0  0  0  0  0  0  0  0  0  0
   -3.3566   -0.1340   -0.5453 N   0  0  0  0  0  0  0  0  0  0  0  0
   -2.9157    0.1151   -1.4101 H   0  0  0  0  0  0  0  0  0  0  0  0
   -2.8007   -0.3545    0.2537 H   0  0  0  0  0  0  0  0  0  0  0  0
   -5.2782   -0.4507    0.5671 O   0  0  0  0  0  0  0  0  0  0  0  0
   -1.0777   -2.1719    0.0069 C   0  0  0  0  0  0  0  0  0  0  0  0
   -0.1887   -2.4381    0.3520 H   0  0  0  0  0  0  0  0  0  0  0  0
   -1.1182   -2.4816   -1.0374 H   0  0  0  0  0  0  0  0  0  0  0  0
   -1.9172   -2.6007    0.5540 H   0  0  0  0  0  0  0  0  0  0  0  0
   -1.1185   -0.7163    0.0000 N   0  0  0  0  0  0  0  0  0  0  0  0
   -1.9943   -0.1649   -0.0051 H   0  0  0  0  0  0  0  0  0  0  0  0
    0.0000    0.0000    0.0000 C   0  0  0  0  0  0  0  0  0  0  0  0
    1.1185   -0.5117    0.0000 O   0  0  0  0  0  0  0  0  0  0  0  0
   -0.1588    1.5066   -0.0114 C   0  0  0  0  0  0  0  0  0  0  0  0
   -0.0111    1.8494   -0.9646 H   0  0  0  0  0  0  0  0  0  0  0  0
    0.5880    1.9245    0.5514 H   0  0  0  0  0  0  0  0  0  0  0  0
   -1.1229    1.8626    0.3517 H   0  0  0  0  0  0  0  0  0  0  0  0
  1  5  1  0
  5  6  1  0
  5  9  2  0
  1  2  1  0
  1  3  1  0
  1  4  1  0
  6  7  1  0
  6  8  1  0
 10 14  1  0
 14 16  1  0
 16 17  2  0
 16 18  1  0
 10 11  1  0
 10 12  1  0
 10 13  1  0
 14 15  1  0
 18 19  1  0
 18 20  1  0
 18 21  1  0
M  END
>  <PDB_ID>  (739) 
pdb5az4

>  <RESIDUE_NAME>  (739) 
ASN   GLY

>  <FRAG_NAME>  (739) 
ACEM   NMA

>  <FRAG_ATOM_NUM>  (739) 
fragi: 9  fragj: 12

>  <atom.prop.CHAIN_ID>  (739) 
A A A A A A A A A Z Z Z Z Z Z Z Z Z Z Z Z

>  <atom.prop.IS_HEAVY_ATOM>  (739) 
1 0 0 0 1 1 0 0 1 1 0 0 0 1 0 1 1 1 0 0 0

>  <DIFUSE_FUNC_ATOM>  (739) 
n/a

>  <FINAL_SINGLE_POINT_ENERGY>  (739) 
0

>  <NONCOV_INTER_ENERGY_QM>  (739) 
0

>  <FF_Energy>  (739) 
47.25

>  <QM_Energy>  (739) 
59.69

>  <source>  (739) 
ACEM_nNMA_52

>  <Index>  (739) 
15220

$$$$
ACEM-pdb5b0h-A-ASN-70:NMA-pdb5b0h-A-PRO-62
     RDKit          3D

 21 19  0  0  0  0  0  0  0  0999 V2000
   -5.7696   -0.1769    1.7994 C   0  0  0  0  0  0  0  0  0  0  0  0
   -5.5778   -0.7447    2.5893 H   0  0  0  0  0  0  0  0  0  0  0  0
   -6.7122   -0.2804    1.5093 H   0  0  0  0  0  0  0  0  0  0  0  0
   -5.6216    0.8633    2.0898 H   0  0  0  0  0  0  0  0  0  0  0  0
   -4.8584   -0.5571    0.6796 C   0  0  0  0  0  0  0  0  0  0  0  0
   -3.7307    0.1032    0.5431 N   0  0  0  0  0  0  0  0  0  0  0  0
   -3.5118    0.8393    1.1993 H   0  0  0  0  0  0  0  0  0  0  0  0
   -3.0941   -0.1106   -0.1912 H   0  0  0  0  0  0  0  0  0  0  0  0
   -5.2394   -1.4458   -0.1217 O   0  0  0  0  0  0  0  0  0  0  0  0
   -1.0476   -2.1833    0.1503 C   0  0  0  0  0  0  0  0  0  0  0  0
   -0.0762   -2.4730    0.1472 H   0  0  0  0  0  0  0  0  0  0  0  0
   -1.5493   -2.7169   -0.6569 H   0  0  0  0  0  0  0  0  0  0  0  0
   -1.4576   -2.5004    1.1092 H   0  0  0  0  0  0  0  0  0  0  0  0
   -1.0982   -0.7325    0.0000 N   0  0  0  0  0  0  0  0  0  0  0  0
   -1.9832   -0.2018   -0.1137 H   0  0  0  0  0  0  0  0  0  0  0  0
    0.0000    0.0000    0.0000 C   0  0  0  0  0  0  0  0  0  0  0  0
    1.0982   -0.4732   -0.0000 O   0  0  0  0  0  0  0  0  0  0  0  0
   -0.1486    1.5451    0.0615 C   0  0  0  0  0  0  0  0  0  0  0  0
    0.6712    1.9796   -0.3660 H   0  0  0  0  0  0  0  0  0  0  0  0
   -1.0721    1.9255   -0.3750 H   0  0  0  0  0  0  0  0  0  0  0  0
   -0.2007    1.8824    1.0966 H   0  0  0  0  0  0  0  0  0  0  0  0
  1  5  1  0
  5  6  1  0
  5  9  2  0
  1  2  1  0
  1  3  1  0
  1  4  1  0
  6  7  1  0
  6  8  1  0
 10 14  1  0
 14 16  1  0
 16 17  2  0
 16 18  1  0
 10 11  1  0
 10 12  1  0
 10 13  1  0
 14 15  1  0
 18 19  1  0
 18 20  1  0
 18 21  1  0
M  END
>  <PDB_ID>  (740) 
pdb5b0h

>  <RESIDUE_NAME>  (740) 
ASN   PRO

>  <FRAG_NAME>  (740) 
ACEM   NMA

>  <FRAG_ATOM_NUM>  (740) 
fragi: 9  fragj: 12

>  <atom.prop.CHAIN_ID>  (740) 
A A A A A A A A A Z Z Z Z Z Z Z Z Z Z Z Z

>  <atom.prop.IS_HEAVY_ATOM>  (740) 
1 0 0 0 1 1 0 0 1 1 0 0 0 1 0 1 1 1 0 0 0

>  <DIFUSE_FUNC_ATOM>  (740) 
n/a

>  <FINAL_SINGLE_POINT_ENERGY>  (740) 
0

>  <NONCOV_INTER_ENERGY_QM>  (740) 
0

>  <FF_Energy>  (740) 
9.52

>  <QM_Energy>  (740) 
19.97

>  <source>  (740) 
ACEM_nNMA_52

>  <Index>  (740) 
15537

$$$$
ACEM-pdb5b55-B-ASN-212:NMA-pdb5b55-B-ASP-251
     RDKit          3D

 21 19  0  0  0  0  0  0  0  0999 V2000
   -6.0591    1.1228    0.5052 C   0  0  0  0  0  0  0  0  0  0  0  0
   -6.2672    0.5162    1.2641 H   0  0  0  0  0  0  0  0  0  0  0  0
   -6.7621    1.0587   -0.1945 H   0  0  0  0  0  0  0  0  0  0  0  0
   -6.0489    2.1456    0.8817 H   0  0  0  0  0  0  0  0  0  0  0  0
   -4.7152    0.6822   -0.1144 C   0  0  0  0  0  0  0  0  0  0  0  0
   -3.6554    0.5380    0.7189 N   0  0  0  0  0  0  0  0  0  0  0  0
   -3.8069    0.7205    1.6938 H   0  0  0  0  0  0  0  0  0  0  0  0
   -2.7820    0.2646    0.3683 H   0  0  0  0  0  0  0  0  0  0  0  0
   -4.6433    0.4385   -1.3255 O   0  0  0  0  0  0  0  0  0  0  0  0
   -1.0556   -2.1397    0.1843 C   0  0  0  0  0  0  0  0  0  0  0  0
   -0.5200   -2.3278    1.0328 H   0  0  0  0  0  0  0  0  0  0  0  0
   -0.5475   -2.6834   -0.6121 H   0  0  0  0  0  0  0  0  0  0  0  0
   -2.0324   -2.5435    0.4506 H   0  0  0  0  0  0  0  0  0  0  0  0
   -1.1126   -0.7201    0.0000 N   0  0  0  0  0  0  0  0  0  0  0  0
   -1.9836   -0.1800   -0.1394 H   0  0  0  0  0  0  0  0  0  0  0  0
    0.0000    0.0000    0.0000 C   0  0  0  0  0  0  0  0  0  0  0  0
    1.1126   -0.5207    0.0000 O   0  0  0  0  0  0  0  0  0  0  0  0
   -0.1548    1.5459   -0.0663 C   0  0  0  0  0  0  0  0  0  0  0  0
   -1.0763    1.7455    0.2737 H   0  0  0  0  0  0  0  0  0  0  0  0
    0.5658    2.0192    0.6007 H   0  0  0  0  0  0  0  0  0  0  0  0
   -0.0139    1.9081   -1.0847 H   0  0  0  0  0  0  0  0  0  0  0  0
  1  5  1  0
  5  6  1  0
  5  9  2  0
  1  2  1  0
  1  3  1  0
  1  4  1  0
  6  7  1  0
  6  8  1  0
 10 14  1  0
 14 16  1  0
 16 17  2  0
 16 18  1  0
 10 11  1  0
 10 12  1  0
 10 13  1  0
 14 15  1  0
 18 19  1  0
 18 20  1  0
 18 21  1  0
M  END
>  <PDB_ID>  (741) 
pdb5b55

>  <RESIDUE_NAME>  (741) 
ASN   ASP

>  <FRAG_NAME>  (741) 
ACEM   NMA

>  <FRAG_ATOM_NUM>  (741) 
fragi: 9  fragj: 12

>  <atom.prop.CHAIN_ID>  (741) 
A A A A A A A A A Z Z Z Z Z Z Z Z Z Z Z Z

>  <atom.prop.IS_HEAVY_ATOM>  (741) 
1 0 0 0 1 1 0 0 1 1 0 0 0 1 0 1 1 1 0 0 0

>  <DIFUSE_FUNC_ATOM>  (741) 
n/a

>  <FINAL_SINGLE_POINT_ENERGY>  (741) 
0

>  <NONCOV_INTER_ENERGY_QM>  (741) 
0

>  <FF_Energy>  (741) 
7.01

>  <QM_Energy>  (741) 
20.69

>  <source>  (741) 
ACEM_nNMA_52

>  <Index>  (741) 
24105

$$$$
ACEM-pdb6b8d-A-GLN-78:NMA-pdb6b8d-A-MET-75
     RDKit          3D

 21 19  0  0  0  0  0  0  0  0999 V2000
   -6.2459   -0.8092    0.0825 C   0  0  0  0  0  0  0  0  0  0  0  0
   -6.7613   -0.3069   -0.6210 H   0  0  0  0  0  0  0  0  0  0  0  0
   -6.7700   -0.7829    0.9413 H   0  0  0  0  0  0  0  0  0  0  0  0
   -6.1523   -1.8484   -0.2331 H   0  0  0  0  0  0  0  0  0  0  0  0
   -4.9182   -0.0924    0.3069 C   0  0  0  0  0  0  0  0  0  0  0  0
   -3.9055   -0.4907   -0.4738 N   0  0  0  0  0  0  0  0  0  0  0  0
   -2.9934   -0.0502   -0.3914 H   0  0  0  0  0  0  0  0  0  0  0  0
   -4.0672   -1.2359   -1.1408 H   0  0  0  0  0  0  0  0  0  0  0  0
   -4.8015    0.8043    1.1469 O   0  0  0  0  0  0  0  0  0  0  0  0
   -1.1210   -2.1749    0.0137 C   0  0  0  0  0  0  0  0  0  0  0  0
   -0.1548   -2.4865    0.0392 H   0  0  0  0  0  0  0  0  0  0  0  0
   -1.5874   -2.6141   -0.8682 H   0  0  0  0  0  0  0  0  0  0  0  0
   -1.6399   -2.5309    0.9037 H   0  0  0  0  0  0  0  0  0  0  0  0
   -1.1235   -0.7205   -0.0000 N   0  0  0  0  0  0  0  0  0  0  0  0
   -1.9974   -0.1483   -0.0109 H   0  0  0  0  0  0  0  0  0  0  0  0
    0.0000    0.0000    0.0000 C   0  0  0  0  0  0  0  0  0  0  0  0
    1.1235   -0.4944    0.0000 O   0  0  0  0  0  0  0  0  0  0  0  0
   -0.1807    1.5101    0.0125 C   0  0  0  0  0  0  0  0  0  0  0  0
    0.5819    1.9243   -0.5071 H   0  0  0  0  0  0  0  0  0  0  0  0
   -1.1107    1.8245   -0.4613 H   0  0  0  0  0  0  0  0  0  0  0  0
   -0.1334    1.8270    1.0544 H   0  0  0  0  0  0  0  0  0  0  0  0
  1  5  1  0
  5  6  1  0
  5  9  2  0
  1  2  1  0
  1  3  1  0
  1  4  1  0
  6  7  1  0
  6  8  1  0
 10 14  1  0
 14 16  1  0
 16 17  2  0
 16 18  1  0
 10 11  1  0
 10 12  1  0
 10 13  1  0
 14 15  1  0
 18 19  1  0
 18 20  1  0
 18 21  1  0
M  END
>  <PDB_ID>  (742) 
pdb6b8d

>  <RESIDUE_NAME>  (742) 
GLN   MET

>  <FRAG_NAME>  (742) 
ACEM   NMA

>  <FRAG_ATOM_NUM>  (742) 
fragi: 9  fragj: 12

>  <atom.prop.CHAIN_ID>  (742) 
A A A A A A A A A Z Z Z Z Z Z Z Z Z Z Z Z

>  <atom.prop.IS_HEAVY_ATOM>  (742) 
1 0 0 0 1 1 0 0 1 1 0 0 0 1 0 1 1 1 0 0 0

>  <DIFUSE_FUNC_ATOM>  (742) 
n/a

>  <FINAL_SINGLE_POINT_ENERGY>  (742) 
0

>  <NONCOV_INTER_ENERGY_QM>  (742) 
0

>  <FF_Energy>  (742) 
8.08

>  <QM_Energy>  (742) 
20.63

>  <source>  (742) 
ACEM_nNMA_52

>  <Index>  (742) 
24913

$$$$
ACEM-pdb5bow-A-GLN-130:NMA-pdb5bow-A-PRO-125
     RDKit          3D

 21 19  0  0  0  0  0  0  0  0999 V2000
   -4.2060    2.7143   -1.9011 C   0  0  0  0  0  0  0  0  0  0  0  0
   -3.8121    3.5386   -1.5085 H   0  0  0  0  0  0  0  0  0  0  0  0
   -5.1505    2.8757   -2.1691 H   0  0  0  0  0  0  0  0  0  0  0  0
   -3.6306    2.4318   -2.7828 H   0  0  0  0  0  0  0  0  0  0  0  0
   -4.1804    1.6194   -0.8506 C   0  0  0  0  0  0  0  0  0  0  0  0
   -3.1122    0.8225   -0.8354 N   0  0  0  0  0  0  0  0  0  0  0  0
   -3.0228    0.0818   -0.1535 H   0  0  0  0  0  0  0  0  0  0  0  0
   -2.3809    0.9760   -1.5304 H   0  0  0  0  0  0  0  0  0  0  0  0
   -5.1156    1.4949   -0.0571 O   0  0  0  0  0  0  0  0  0  0  0  0
   -1.1355   -2.1533   -0.0936 C   0  0  0  0  0  0  0  0  0  0  0  0
   -0.1999   -2.4939    0.0541 H   0  0  0  0  0  0  0  0  0  0  0  0
   -1.4690   -2.4767   -1.0796 H   0  0  0  0  0  0  0  0  0  0  0  0
   -1.7753   -2.5807    0.6784 H   0  0  0  0  0  0  0  0  0  0  0  0
   -1.1284   -0.6989    0.0000 N   0  0  0  0  0  0  0  0  0  0  0  0
   -1.9955   -0.1263    0.0713 H   0  0  0  0  0  0  0  0  0  0  0  0
    0.0000    0.0000    0.0000 C   0  0  0  0  0  0  0  0  0  0  0  0
    1.1284   -0.5182    0.0000 O   0  0  0  0  0  0  0  0  0  0  0  0
   -0.1609    1.5143   -0.0218 C   0  0  0  0  0  0  0  0  0  0  0  0
   -1.0268    1.7884    0.4265 H   0  0  0  0  0  0  0  0  0  0  0  0
    0.6860    2.0256    0.4357 H   0  0  0  0  0  0  0  0  0  0  0  0
   -0.1441    1.8781   -1.0492 H   0  0  0  0  0  0  0  0  0  0  0  0
  1  5  1  0
  5  6  1  0
  5  9  2  0
  1  2  1  0
  1  3  1  0
  1  4  1  0
  6  7  1  0
  6  8  1  0
 10 14  1  0
 14 16  1  0
 16 17  2  0
 16 18  1  0
 10 11  1  0
 10 12  1  0
 10 13  1  0
 14 15  1  0
 18 19  1  0
 18 20  1  0
 18 21  1  0
M  END
>  <PDB_ID>  (743) 
pdb5bow

>  <RESIDUE_NAME>  (743) 
GLN   PRO

>  <FRAG_NAME>  (743) 
ACEM   NMA

>  <FRAG_ATOM_NUM>  (743) 
fragi: 9  fragj: 12

>  <atom.prop.CHAIN_ID>  (743) 
A A A A A A A A A Z Z Z Z Z Z Z Z Z Z Z Z

>  <atom.prop.IS_HEAVY_ATOM>  (743) 
1 0 0 0 1 1 0 0 1 1 0 0 0 1 0 1 1 1 0 0 0

>  <DIFUSE_FUNC_ATOM>  (743) 
n/a

>  <FINAL_SINGLE_POINT_ENERGY>  (743) 
0

>  <NONCOV_INTER_ENERGY_QM>  (743) 
0

>  <FF_Energy>  (743) 
15.3

>  <QM_Energy>  (743) 
26.27

>  <source>  (743) 
ACEM_nNMA_52

>  <Index>  (743) 
28697

$$$$
ACEM-pdb5az4-C-GLN-253:NMA-pdb5az4-C-LEU-249
     RDKit          3D

 21 19  0  0  0  0  0  0  0  0999 V2000
   -5.0335   -0.9225    0.3767 C   0  0  0  0  0  0  0  0  0  0  0  0
   -5.9626   -1.0120    0.7335 H   0  0  0  0  0  0  0  0  0  0  0  0
   -4.6137   -1.8267    0.3023 H   0  0  0  0  0  0  0  0  0  0  0  0
   -5.0826   -0.4770   -0.6169 H   0  0  0  0  0  0  0  0  0  0  0  0
   -4.2195   -0.0886    1.3507 C   0  0  0  0  0  0  0  0  0  0  0  0
   -3.1048    0.4587    0.8764 N   0  0  0  0  0  0  0  0  0  0  0  0
   -2.5174    1.0397    1.4654 H   0  0  0  0  0  0  0  0  0  0  0  0
   -2.8468    0.2836   -0.0943 H   0  0  0  0  0  0  0  0  0  0  0  0
   -4.5882    0.0646    2.5139 O   0  0  0  0  0  0  0  0  0  0  0  0
   -1.0923   -2.1634    0.0723 C   0  0  0  0  0  0  0  0  0  0  0  0
   -0.1302   -2.4698    0.0961 H   0  0  0  0  0  0  0  0  0  0  0  0
   -1.5805   -2.6138   -0.7920 H   0  0  0  0  0  0  0  0  0  0  0  0
   -1.5750   -2.5057    0.9876 H   0  0  0  0  0  0  0  0  0  0  0  0
   -1.1203   -0.7112   -0.0000 N   0  0  0  0  0  0  0  0  0  0  0  0
   -1.9927   -0.1544   -0.0549 H   0  0  0  0  0  0  0  0  0  0  0  0
    0.0000    0.0000    0.0000 C   0  0  0  0  0  0  0  0  0  0  0  0
    1.1203   -0.5108    0.0000 O   0  0  0  0  0  0  0  0  0  0  0  0
   -0.1683    1.5128    0.0011 C   0  0  0  0  0  0  0  0  0  0  0  0
   -1.0918    1.7287    0.3249 H   0  0  0  0  0  0  0  0  0  0  0  0
    0.5562    1.9614    0.6809 H   0  0  0  0  0  0  0  0  0  0  0  0
   -0.0543    1.9171   -1.0047 H   0  0  0  0  0  0  0  0  0  0  0  0
  1  5  1  0
  5  6  1  0
  5  9  2  0
  1  2  1  0
  1  3  1  0
  1  4  1  0
  6  7  1  0
  6  8  1  0
 10 14  1  0
 14 16  1  0
 16 17  2  0
 16 18  1  0
 10 11  1  0
 10 12  1  0
 10 13  1  0
 14 15  1  0
 18 19  1  0
 18 20  1  0
 18 21  1  0
M  END
>  <PDB_ID>  (744) 
pdb5az4

>  <RESIDUE_NAME>  (744) 
GLN   LEU

>  <FRAG_NAME>  (744) 
ACEM   NMA

>  <FRAG_ATOM_NUM>  (744) 
fragi: 9  fragj: 12

>  <atom.prop.CHAIN_ID>  (744) 
A A A A A A A A A Z Z Z Z Z Z Z Z Z Z Z Z

>  <atom.prop.IS_HEAVY_ATOM>  (744) 
1 0 0 0 1 1 0 0 1 1 0 0 0 1 0 1 1 1 0 0 0

>  <DIFUSE_FUNC_ATOM>  (744) 
n/a

>  <FINAL_SINGLE_POINT_ENERGY>  (744) 
0

>  <NONCOV_INTER_ENERGY_QM>  (744) 
0

>  <FF_Energy>  (744) 
33.13

>  <QM_Energy>  (744) 
45.19

>  <source>  (744) 
ACEM_nNMA_53

>  <Index>  (744) 
1829

$$$$
ACEM-pdb5bxg-A-ASN-117:NMA-pdb5bxg-A-ASP-120
     RDKit          3D

 21 19  0  0  0  0  0  0  0  0999 V2000
   -5.9031    0.4271   -1.3067 C   0  0  0  0  0  0  0  0  0  0  0  0
   -6.3654   -0.2344   -1.8944 H   0  0  0  0  0  0  0  0  0  0  0  0
   -6.1500    1.3547   -1.5831 H   0  0  0  0  0  0  0  0  0  0  0  0
   -6.2518    0.2746   -0.2853 H   0  0  0  0  0  0  0  0  0  0  0  0
   -4.4095    0.2543   -1.4599 C   0  0  0  0  0  0  0  0  0  0  0  0
   -3.7310   -0.0165   -0.3829 N   0  0  0  0  0  0  0  0  0  0  0  0
   -4.1987   -0.1092    0.5058 H   0  0  0  0  0  0  0  0  0  0  0  0
   -2.7333   -0.1380   -0.4183 H   0  0  0  0  0  0  0  0  0  0  0  0
   -3.8519    0.3299   -2.5445 O   0  0  0  0  0  0  0  0  0  0  0  0
   -1.0709   -2.1817   -0.0846 C   0  0  0  0  0  0  0  0  0  0  0  0
   -1.4420   -2.4655   -1.0245 H   0  0  0  0  0  0  0  0  0  0  0  0
   -0.0630   -2.4693   -0.1505 H   0  0  0  0  0  0  0  0  0  0  0  0
   -1.5551   -2.7929    0.6770 H   0  0  0  0  0  0  0  0  0  0  0  0
   -1.1213   -0.7293    0.0000 N   0  0  0  0  0  0  0  0  0  0  0  0
   -1.9959   -0.1825    0.0634 H   0  0  0  0  0  0  0  0  0  0  0  0
    0.0000    0.0000    0.0000 C   0  0  0  0  0  0  0  0  0  0  0  0
    1.1213   -0.5092   -0.0000 O   0  0  0  0  0  0  0  0  0  0  0  0
   -0.1573    1.5578   -0.0815 C   0  0  0  0  0  0  0  0  0  0  0  0
   -0.7763    1.7325   -0.8658 H   0  0  0  0  0  0  0  0  0  0  0  0
   -0.6092    2.0026    0.8052 H   0  0  0  0  0  0  0  0  0  0  0  0
    0.8033    2.0309   -0.2855 H   0  0  0  0  0  0  0  0  0  0  0  0
  1  5  1  0
  5  6  1  0
  5  9  2  0
  1  2  1  0
  1  3  1  0
  1  4  1  0
  6  7  1  0
  6  8  1  0
 10 14  1  0
 14 16  1  0
 16 17  2  0
 16 18  1  0
 10 11  1  0
 10 12  1  0
 10 13  1  0
 14 15  1  0
 18 19  1  0
 18 20  1  0
 18 21  1  0
M  END
>  <PDB_ID>  (745) 
pdb5bxg

>  <RESIDUE_NAME>  (745) 
ASN   ASP

>  <FRAG_NAME>  (745) 
ACEM   NMA

>  <FRAG_ATOM_NUM>  (745) 
fragi: 9  fragj: 12

>  <atom.prop.CHAIN_ID>  (745) 
A A A A A A A A A Z Z Z Z Z Z Z Z Z Z Z Z

>  <atom.prop.IS_HEAVY_ATOM>  (745) 
1 0 0 0 1 1 0 0 1 1 0 0 0 1 0 1 1 1 0 0 0

>  <DIFUSE_FUNC_ATOM>  (745) 
n/a

>  <FINAL_SINGLE_POINT_ENERGY>  (745) 
0

>  <NONCOV_INTER_ENERGY_QM>  (745) 
0

>  <FF_Energy>  (745) 
13.5

>  <QM_Energy>  (745) 
38.85

>  <source>  (745) 
ACEM_nNMA_53

>  <Index>  (745) 
7349

$$$$
ACEM-pdb5az4-D-GLN-253:NMA-pdb5az4-D-LEU-249
     RDKit          3D

 21 19  0  0  0  0  0  0  0  0999 V2000
   -4.9413   -0.9485    0.6450 C   0  0  0  0  0  0  0  0  0  0  0  0
   -5.8463   -1.0665    1.0496 H   0  0  0  0  0  0  0  0  0  0  0  0
   -4.5001   -1.8378    0.5381 H   0  0  0  0  0  0  0  0  0  0  0  0
   -5.0536   -0.4917   -0.3384 H   0  0  0  0  0  0  0  0  0  0  0  0
   -4.1003   -0.1004    1.5814 C   0  0  0  0  0  0  0  0  0  0  0  0
   -3.0345    0.4846    1.0514 N   0  0  0  0  0  0  0  0  0  0  0  0
   -2.4302    1.0796    1.6142 H   0  0  0  0  0  0  0  0  0  0  0  0
   -2.8252    0.3290    0.0665 H   0  0  0  0  0  0  0  0  0  0  0  0
   -4.4073    0.0276    2.7664 O   0  0  0  0  0  0  0  0  0  0  0  0
   -1.0973   -2.1641    0.0995 C   0  0  0  0  0  0  0  0  0  0  0  0
   -0.1364   -2.4755    0.1144 H   0  0  0  0  0  0  0  0  0  0  0  0
   -1.6008   -2.6306   -0.7473 H   0  0  0  0  0  0  0  0  0  0  0  0
   -1.5680   -2.4787    1.0310 H   0  0  0  0  0  0  0  0  0  0  0  0
   -1.1195   -0.7135   -0.0000 N   0  0  0  0  0  0  0  0  0  0  0  0
   -1.9922   -0.1564   -0.0753 H   0  0  0  0  0  0  0  0  0  0  0  0
    0.0000    0.0000    0.0000 C   0  0  0  0  0  0  0  0  0  0  0  0
    1.1195   -0.5079    0.0000 O   0  0  0  0  0  0  0  0  0  0  0  0
   -0.1707    1.5099   -0.0057 C   0  0  0  0  0  0  0  0  0  0  0  0
   -1.1028    1.7264    0.2942 H   0  0  0  0  0  0  0  0  0  0  0  0
    0.5348    1.9626    0.6910 H   0  0  0  0  0  0  0  0  0  0  0  0
   -0.0341    1.9138   -1.0089 H   0  0  0  0  0  0  0  0  0  0  0  0
  1  5  1  0
  5  6  1  0
  5  9  2  0
  1  2  1  0
  1  3  1  0
  1  4  1  0
  6  7  1  0
  6  8  1  0
 10 14  1  0
 14 16  1  0
 16 17  2  0
 16 18  1  0
 10 11  1  0
 10 12  1  0
 10 13  1  0
 14 15  1  0
 18 19  1  0
 18 20  1  0
 18 21  1  0
M  END
>  <PDB_ID>  (746) 
pdb5az4

>  <RESIDUE_NAME>  (746) 
GLN   LEU

>  <FRAG_NAME>  (746) 
ACEM   NMA

>  <FRAG_ATOM_NUM>  (746) 
fragi: 9  fragj: 12

>  <atom.prop.CHAIN_ID>  (746) 
A A A A A A A A A Z Z Z Z Z Z Z Z Z Z Z Z

>  <atom.prop.IS_HEAVY_ATOM>  (746) 
1 0 0 0 1 1 0 0 1 1 0 0 0 1 0 1 1 1 0 0 0

>  <DIFUSE_FUNC_ATOM>  (746) 
n/a

>  <FINAL_SINGLE_POINT_ENERGY>  (746) 
0

>  <NONCOV_INTER_ENERGY_QM>  (746) 
0

>  <FF_Energy>  (746) 
30.15

>  <QM_Energy>  (746) 
42.15

>  <source>  (746) 
ACEM_nNMA_53

>  <Index>  (746) 
8083

$$$$
ACEM-pdb5c2z-A-ASN-218:NMA-pdb5c2z-A-THR-214
     RDKit          3D

 21 19  0  0  0  0  0  0  0  0999 V2000
   -4.4842    0.5739   -1.0772 C   0  0  0  0  0  0  0  0  0  0  0  0
   -3.6813    0.0271   -1.3001 H   0  0  0  0  0  0  0  0  0  0  0  0
   -4.5162    1.3841   -1.6568 H   0  0  0  0  0  0  0  0  0  0  0  0
   -5.3762   -0.0236   -1.2652 H   0  0  0  0  0  0  0  0  0  0  0  0
   -4.3714    1.0236    0.3709 C   0  0  0  0  0  0  0  0  0  0  0  0
   -3.3573    0.5339    1.0673 N   0  0  0  0  0  0  0  0  0  0  0  0
   -2.7087   -0.0951    0.6300 H   0  0  0  0  0  0  0  0  0  0  0  0
   -3.2330    0.7884    2.0252 H   0  0  0  0  0  0  0  0  0  0  0  0
   -5.1981    1.7958    0.8570 O   0  0  0  0  0  0  0  0  0  0  0  0
   -1.1760   -2.1548    0.0983 C   0  0  0  0  0  0  0  0  0  0  0  0
   -0.2527   -2.5328    0.0137 H   0  0  0  0  0  0  0  0  0  0  0  0
   -1.8051   -2.5555   -0.6967 H   0  0  0  0  0  0  0  0  0  0  0  0
   -1.5569   -2.4527    1.0751 H   0  0  0  0  0  0  0  0  0  0  0  0
   -1.1282   -0.6999   -0.0000 N   0  0  0  0  0  0  0  0  0  0  0  0
   -1.9959   -0.1098   -0.0774 H   0  0  0  0  0  0  0  0  0  0  0  0
    0.0000    0.0000    0.0000 C   0  0  0  0  0  0  0  0  0  0  0  0
    1.1282   -0.5151    0.0000 O   0  0  0  0  0  0  0  0  0  0  0  0
   -0.1859    1.5153   -0.0380 C   0  0  0  0  0  0  0  0  0  0  0  0
   -0.9010    1.7615    0.6325 H   0  0  0  0  0  0  0  0  0  0  0  0
    0.7319    2.0418    0.2238 H   0  0  0  0  0  0  0  0  0  0  0  0
   -0.5519    1.7683   -1.0330 H   0  0  0  0  0  0  0  0  0  0  0  0
  1  5  1  0
  5  6  1  0
  5  9  2  0
  1  2  1  0
  1  3  1  0
  1  4  1  0
  6  7  1  0
  6  8  1  0
 10 14  1  0
 14 16  1  0
 16 17  2  0
 16 18  1  0
 10 11  1  0
 10 12  1  0
 10 13  1  0
 14 15  1  0
 18 19  1  0
 18 20  1  0
 18 21  1  0
M  END
>  <PDB_ID>  (747) 
pdb5c2z

>  <RESIDUE_NAME>  (747) 
ASN   THR

>  <FRAG_NAME>  (747) 
ACEM   NMA

>  <FRAG_ATOM_NUM>  (747) 
fragi: 9  fragj: 12

>  <atom.prop.CHAIN_ID>  (747) 
A A A A A A A A A Z Z Z Z Z Z Z Z Z Z Z Z

>  <atom.prop.IS_HEAVY_ATOM>  (747) 
1 0 0 0 1 1 0 0 1 1 0 0 0 1 0 1 1 1 0 0 0

>  <DIFUSE_FUNC_ATOM>  (747) 
n/a

>  <FINAL_SINGLE_POINT_ENERGY>  (747) 
0

>  <NONCOV_INTER_ENERGY_QM>  (747) 
0

>  <FF_Energy>  (747) 
10.18

>  <QM_Energy>  (747) 
27.06

>  <source>  (747) 
ACEM_nNMA_53

>  <Index>  (747) 
12342

$$$$
ACEM-pdb5c07-I-GLN-64:NMA-pdb5c07-D-ALA-17
     RDKit          3D

 21 19  0  0  0  0  0  0  0  0999 V2000
   -5.8479    1.2113   -0.8907 C   0  0  0  0  0  0  0  0  0  0  0  0
   -6.0950    1.0851    0.0668 H   0  0  0  0  0  0  0  0  0  0  0  0
   -6.4563    0.6770   -1.4717 H   0  0  0  0  0  0  0  0  0  0  0  0
   -5.8754    2.2660   -1.1646 H   0  0  0  0  0  0  0  0  0  0  0  0
   -4.4166    0.6072   -1.0657 C   0  0  0  0  0  0  0  0  0  0  0  0
   -3.9060    0.0110   -0.0159 N   0  0  0  0  0  0  0  0  0  0  0  0
   -2.9874   -0.4149   -0.0612 H   0  0  0  0  0  0  0  0  0  0  0  0
   -4.4424   -0.0201    0.8515 H   0  0  0  0  0  0  0  0  0  0  0  0
   -3.7923    0.7275   -2.1277 O   0  0  0  0  0  0  0  0  0  0  0  0
   -1.1262   -2.1498   -0.2681 C   0  0  0  0  0  0  0  0  0  0  0  0
   -0.2927   -2.5152    0.1343 H   0  0  0  0  0  0  0  0  0  0  0  0
   -1.0477   -2.2917   -1.3459 H   0  0  0  0  0  0  0  0  0  0  0  0
   -2.0434   -2.6313    0.0712 H   0  0  0  0  0  0  0  0  0  0  0  0
   -1.1127   -0.7141   -0.0000 N   0  0  0  0  0  0  0  0  0  0  0  0
   -1.9801   -0.1681    0.2067 H   0  0  0  0  0  0  0  0  0  0  0  0
    0.0000    0.0000    0.0000 C   0  0  0  0  0  0  0  0  0  0  0  0
    1.1127   -0.5342    0.0000 O   0  0  0  0  0  0  0  0  0  0  0  0
   -0.1693    1.5084    0.0348 C   0  0  0  0  0  0  0  0  0  0  0  0
   -1.0769    1.7207    0.4706 H   0  0  0  0  0  0  0  0  0  0  0  0
    0.6022    2.0634    0.5684 H   0  0  0  0  0  0  0  0  0  0  0  0
   -0.2617    1.9115   -0.9737 H   0  0  0  0  0  0  0  0  0  0  0  0
  1  5  1  0
  5  6  1  0
  5  9  2  0
  1  2  1  0
  1  3  1  0
  1  4  1  0
  6  7  1  0
  6  8  1  0
 10 14  1  0
 14 16  1  0
 16 17  2  0
 16 18  1  0
 10 11  1  0
 10 12  1  0
 10 13  1  0
 14 15  1  0
 18 19  1  0
 18 20  1  0
 18 21  1  0
M  END
>  <PDB_ID>  (748) 
pdb5c07

>  <RESIDUE_NAME>  (748) 
GLN   ALA

>  <FRAG_NAME>  (748) 
ACEM   NMA

>  <FRAG_ATOM_NUM>  (748) 
fragi: 9  fragj: 12

>  <atom.prop.CHAIN_ID>  (748) 
A A A A A A A A A Z Z Z Z Z Z Z Z Z Z Z Z

>  <atom.prop.IS_HEAVY_ATOM>  (748) 
1 0 0 0 1 1 0 0 1 1 0 0 0 1 0 1 1 1 0 0 0

>  <DIFUSE_FUNC_ATOM>  (748) 
n/a

>  <FINAL_SINGLE_POINT_ENERGY>  (748) 
0

>  <NONCOV_INTER_ENERGY_QM>  (748) 
0

>  <FF_Energy>  (748) 
5.6

>  <QM_Energy>  (748) 
19.73

>  <source>  (748) 
ACEM_nNMA_53

>  <Index>  (748) 
13148

$$$$
ACEM-pdb5cvm-A-GLN-118:NMA-pdb5cvm-A-ARG-311
     RDKit          3D

 21 19  0  0  0  0  0  0  0  0999 V2000
   -5.0023    2.1786    1.7768 C   0  0  0  0  0  0  0  0  0  0  0  0
   -5.7595    1.6642    2.1979 H   0  0  0  0  0  0  0  0  0  0  0  0
   -5.3846    3.0017    1.3379 H   0  0  0  0  0  0  0  0  0  0  0  0
   -4.3394    2.5072    2.5773 H   0  0  0  0  0  0  0  0  0  0  0  0
   -4.3411    1.3295    0.7469 C   0  0  0  0  0  0  0  0  0  0  0  0
   -3.0125    1.2239    0.8181 N   0  0  0  0  0  0  0  0  0  0  0  0
   -2.4912    0.6501    0.1580 H   0  0  0  0  0  0  0  0  0  0  0  0
   -2.5211    1.7324    1.5527 H   0  0  0  0  0  0  0  0  0  0  0  0
   -4.9708    0.8672   -0.1875 O   0  0  0  0  0  0  0  0  0  0  0  0
   -1.0980   -2.1398    0.0414 C   0  0  0  0  0  0  0  0  0  0  0  0
   -0.8751   -2.4947   -0.8875 H   0  0  0  0  0  0  0  0  0  0  0  0
   -0.3414   -2.4421    0.6532 H   0  0  0  0  0  0  0  0  0  0  0  0
   -2.0382   -2.5736    0.3819 H   0  0  0  0  0  0  0  0  0  0  0  0
   -1.1218   -0.6884    0.0000 N   0  0  0  0  0  0  0  0  0  0  0  0
   -1.9901   -0.1284   -0.0308 H   0  0  0  0  0  0  0  0  0  0  0  0
    0.0000    0.0000    0.0000 C   0  0  0  0  0  0  0  0  0  0  0  0
    1.1218   -0.5243    0.0000 O   0  0  0  0  0  0  0  0  0  0  0  0
   -0.1650    1.4967   -0.1156 C   0  0  0  0  0  0  0  0  0  0  0  0
   -0.9056    1.7885    0.4843 H   0  0  0  0  0  0  0  0  0  0  0  0
    0.7660    1.9575    0.2146 H   0  0  0  0  0  0  0  0  0  0  0  0
   -0.3678    1.7425   -1.1579 H   0  0  0  0  0  0  0  0  0  0  0  0
  1  5  1  0
  5  6  1  0
  5  9  2  0
  1  2  1  0
  1  3  1  0
  1  4  1  0
  6  7  1  0
  6  8  1  0
 10 14  1  0
 14 16  1  0
 16 17  2  0
 16 18  1  0
 10 11  1  0
 10 12  1  0
 10 13  1  0
 14 15  1  0
 18 19  1  0
 18 20  1  0
 18 21  1  0
M  END
>  <PDB_ID>  (749) 
pdb5cvm

>  <RESIDUE_NAME>  (749) 
GLN   ARG

>  <FRAG_NAME>  (749) 
ACEM   NMA

>  <FRAG_ATOM_NUM>  (749) 
fragi: 9  fragj: 12

>  <atom.prop.CHAIN_ID>  (749) 
A A A A A A A A A Z Z Z Z Z Z Z Z Z Z Z Z

>  <atom.prop.IS_HEAVY_ATOM>  (749) 
1 0 0 0 1 1 0 0 1 1 0 0 0 1 0 1 1 1 0 0 0

>  <DIFUSE_FUNC_ATOM>  (749) 
n/a

>  <FINAL_SINGLE_POINT_ENERGY>  (749) 
0

>  <NONCOV_INTER_ENERGY_QM>  (749) 
0

>  <FF_Energy>  (749) 
19.58

>  <QM_Energy>  (749) 
34.27

>  <source>  (749) 
ACEM_nNMA_54

>  <Index>  (749) 
6171

$$$$
ACEM-pdb5cxm-A-GLN-69:NMA-pdb5cxm-A-ASN-66
     RDKit          3D

 21 19  0  0  0  0  0  0  0  0999 V2000
   -6.0331   -0.9729   -0.8086 C   0  0  0  0  0  0  0  0  0  0  0  0
   -6.8869   -0.7541   -0.3483 H   0  0  0  0  0  0  0  0  0  0  0  0
   -5.9857   -1.9457   -1.0072 H   0  0  0  0  0  0  0  0  0  0  0  0
   -5.9951   -0.4237   -1.7493 H   0  0  0  0  0  0  0  0  0  0  0  0
   -4.8776   -0.6027    0.1047 C   0  0  0  0  0  0  0  0  0  0  0  0
   -3.7639   -0.3125   -0.3566 N   0  0  0  0  0  0  0  0  0  0  0  0
   -2.9493   -0.0415    0.1974 H   0  0  0  0  0  0  0  0  0  0  0  0
   -3.6102   -0.3392   -1.4010 H   0  0  0  0  0  0  0  0  0  0  0  0
   -5.1344   -0.6085    1.4092 O   0  0  0  0  0  0  0  0  0  0  0  0
   -1.0610   -2.1593    0.0484 C   0  0  0  0  0  0  0  0  0  0  0  0
   -0.0883   -2.4326    0.1249 H   0  0  0  0  0  0  0  0  0  0  0  0
   -1.4683   -2.6175   -0.8529 H   0  0  0  0  0  0  0  0  0  0  0  0
   -1.5863   -2.5217    0.9321 H   0  0  0  0  0  0  0  0  0  0  0  0
   -1.1175   -0.7101    0.0000 N   0  0  0  0  0  0  0  0  0  0  0  0
   -1.9916   -0.1647   -0.0359 H   0  0  0  0  0  0  0  0  0  0  0  0
    0.0000    0.0000    0.0000 C   0  0  0  0  0  0  0  0  0  0  0  0
    1.1175   -0.5168    0.0000 O   0  0  0  0  0  0  0  0  0  0  0  0
   -0.1523    1.5025   -0.0503 C   0  0  0  0  0  0  0  0  0  0  0  0
    0.1717    1.8033   -0.9787 H   0  0  0  0  0  0  0  0  0  0  0  0
   -1.1668    1.8819    0.0718 H   0  0  0  0  0  0  0  0  0  0  0  0
    0.4848    1.9900    0.6876 H   0  0  0  0  0  0  0  0  0  0  0  0
  1  5  1  0
  5  6  1  0
  5  9  2  0
  1  2  1  0
  1  3  1  0
  1  4  1  0
  6  7  1  0
  6  8  1  0
 10 14  1  0
 14 16  1  0
 16 17  2  0
 16 18  1  0
 10 11  1  0
 10 12  1  0
 10 13  1  0
 14 15  1  0
 18 19  1  0
 18 20  1  0
 18 21  1  0
M  END
>  <PDB_ID>  (750) 
pdb5cxm

>  <RESIDUE_NAME>  (750) 
GLN   ASN

>  <FRAG_NAME>  (750) 
ACEM   NMA

>  <FRAG_ATOM_NUM>  (750) 
fragi: 9  fragj: 12

>  <atom.prop.CHAIN_ID>  (750) 
A A A A A A A A A Z Z Z Z Z Z Z Z Z Z Z Z

>  <atom.prop.IS_HEAVY_ATOM>  (750) 
1 0 0 0 1 1 0 0 1 1 0 0 0 1 0 1 1 1 0 0 0

>  <DIFUSE_FUNC_ATOM>  (750) 
n/a

>  <FINAL_SINGLE_POINT_ENERGY>  (750) 
0

>  <NONCOV_INTER_ENERGY_QM>  (750) 
0

>  <FF_Energy>  (750) 
14.53

>  <QM_Energy>  (750) 
30.02

>  <source>  (750) 
ACEM_nNMA_54

>  <Index>  (750) 
6295

$$$$
ACEM-pdb5cy0-A-ASN-21:NMA-pdb5cy0-A-TYR-37
     RDKit          3D

 21 19  0  0  0  0  0  0  0  0999 V2000
   -4.5109    1.6554    1.1026 C   0  0  0  0  0  0  0  0  0  0  0  0
   -5.4314    1.9087    1.3794 H   0  0  0  0  0  0  0  0  0  0  0  0
   -3.9481    2.4666    0.9852 H   0  0  0  0  0  0  0  0  0  0  0  0
   -4.0724    1.0497    1.8957 H   0  0  0  0  0  0  0  0  0  0  0  0
   -4.5862    0.9165   -0.2246 C   0  0  0  0  0  0  0  0  0  0  0  0
   -3.6091    0.0491   -0.4815 N   0  0  0  0  0  0  0  0  0  0  0  0
   -2.8809   -0.0882    0.1930 H   0  0  0  0  0  0  0  0  0  0  0  0
   -3.6029   -0.4610   -1.3376 H   0  0  0  0  0  0  0  0  0  0  0  0
   -5.5117    1.1205   -1.0070 O   0  0  0  0  0  0  0  0  0  0  0  0
   -1.0854   -2.1620   -0.1188 C   0  0  0  0  0  0  0  0  0  0  0  0
   -0.1986   -2.4894    0.2259 H   0  0  0  0  0  0  0  0  0  0  0  0
   -1.1745   -2.4615   -1.1630 H   0  0  0  0  0  0  0  0  0  0  0  0
   -1.8889   -2.6141    0.4627 H   0  0  0  0  0  0  0  0  0  0  0  0
   -1.1194   -0.7160   -0.0000 N   0  0  0  0  0  0  0  0  0  0  0  0
   -1.9915   -0.1636    0.0898 H   0  0  0  0  0  0  0  0  0  0  0  0
    0.0000    0.0000    0.0000 C   0  0  0  0  0  0  0  0  0  0  0  0
    1.1194   -0.5078    0.0000 O   0  0  0  0  0  0  0  0  0  0  0  0
   -0.1585    1.5093    0.0254 C   0  0  0  0  0  0  0  0  0  0  0  0
   -0.7643    1.7487    0.7907 H   0  0  0  0  0  0  0  0  0  0  0  0
    0.8093    1.9830    0.1902 H   0  0  0  0  0  0  0  0  0  0  0  0
   -0.6097    1.8710   -0.8985 H   0  0  0  0  0  0  0  0  0  0  0  0
  1  5  1  0
  5  6  1  0
  5  9  2  0
  1  2  1  0
  1  3  1  0
  1  4  1  0
  6  7  1  0
  6  8  1  0
 10 14  1  0
 14 16  1  0
 16 17  2  0
 16 18  1  0
 10 11  1  0
 10 12  1  0
 10 13  1  0
 14 15  1  0
 18 19  1  0
 18 20  1  0
 18 21  1  0
M  END
>  <PDB_ID>  (751) 
pdb5cy0

>  <RESIDUE_NAME>  (751) 
ASN   TYR

>  <FRAG_NAME>  (751) 
ACEM   NMA

>  <FRAG_ATOM_NUM>  (751) 
fragi: 9  fragj: 12

>  <atom.prop.CHAIN_ID>  (751) 
A A A A A A A A A Z Z Z Z Z Z Z Z Z Z Z Z

>  <atom.prop.IS_HEAVY_ATOM>  (751) 
1 0 0 0 1 1 0 0 1 1 0 0 0 1 0 1 1 1 0 0 0

>  <DIFUSE_FUNC_ATOM>  (751) 
n/a

>  <FINAL_SINGLE_POINT_ENERGY>  (751) 
0

>  <NONCOV_INTER_ENERGY_QM>  (751) 
0

>  <FF_Energy>  (751) 
17.76

>  <QM_Energy>  (751) 
39.39

>  <source>  (751) 
ACEM_nNMA_54

>  <Index>  (751) 
6693

$$$$
ACEM-pdb5cxk-A-ASN-204:NMA-pdb5cxk-A-GLY-192
     RDKit          3D

 21 19  0  0  0  0  0  0  0  0999 V2000
   -5.3791    0.2556   -1.1434 C   0  0  0  0  0  0  0  0  0  0  0  0
   -5.4215   -0.7376   -1.0750 H   0  0  0  0  0  0  0  0  0  0  0  0
   -6.2151    0.6047   -1.5595 H   0  0  0  0  0  0  0  0  0  0  0  0
   -5.3059    0.6630   -0.1351 H   0  0  0  0  0  0  0  0  0  0  0  0
   -4.2029    0.6339   -2.0202 C   0  0  0  0  0  0  0  0  0  0  0  0
   -2.9974    0.4898   -1.4765 N   0  0  0  0  0  0  0  0  0  0  0  0
   -2.9066    0.1427   -0.5438 H   0  0  0  0  0  0  0  0  0  0  0  0
   -2.1804    0.7275   -2.0028 H   0  0  0  0  0  0  0  0  0  0  0  0
   -4.3695    1.0686   -3.1630 O   0  0  0  0  0  0  0  0  0  0  0  0
   -1.1243   -2.1734    0.0947 C   0  0  0  0  0  0  0  0  0  0  0  0
   -0.1659   -2.4830    0.1444 H   0  0  0  0  0  0  0  0  0  0  0  0
   -1.5810   -2.6284   -0.7843 H   0  0  0  0  0  0  0  0  0  0  0  0
   -1.6438   -2.5179    0.9888 H   0  0  0  0  0  0  0  0  0  0  0  0
   -1.1221   -0.7121   -0.0000 N   0  0  0  0  0  0  0  0  0  0  0  0
   -1.9954   -0.1469   -0.0724 H   0  0  0  0  0  0  0  0  0  0  0  0
    0.0000    0.0000    0.0000 C   0  0  0  0  0  0  0  0  0  0  0  0
    1.1221   -0.5088    0.0000 O   0  0  0  0  0  0  0  0  0  0  0  0
   -0.1776    1.5077   -0.0005 C   0  0  0  0  0  0  0  0  0  0  0  0
   -0.3539    1.8236    0.9602 H   0  0  0  0  0  0  0  0  0  0  0  0
   -1.0288    1.7440   -0.5234 H   0  0  0  0  0  0  0  0  0  0  0  0
    0.6562    2.0775   -0.4105 H   0  0  0  0  0  0  0  0  0  0  0  0
  1  5  1  0
  5  6  1  0
  5  9  2  0
  1  2  1  0
  1  3  1  0
  1  4  1  0
  6  7  1  0
  6  8  1  0
 10 14  1  0
 14 16  1  0
 16 17  2  0
 16 18  1  0
 10 11  1  0
 10 12  1  0
 10 13  1  0
 14 15  1  0
 18 19  1  0
 18 20  1  0
 18 21  1  0
M  END
>  <PDB_ID>  (752) 
pdb5cxk

>  <RESIDUE_NAME>  (752) 
ASN   GLY

>  <FRAG_NAME>  (752) 
ACEM   NMA

>  <FRAG_ATOM_NUM>  (752) 
fragi: 9  fragj: 12

>  <atom.prop.CHAIN_ID>  (752) 
A A A A A A A A A Z Z Z Z Z Z Z Z Z Z Z Z

>  <atom.prop.IS_HEAVY_ATOM>  (752) 
1 0 0 0 1 1 0 0 1 1 0 0 0 1 0 1 1 1 0 0 0

>  <DIFUSE_FUNC_ATOM>  (752) 
n/a

>  <FINAL_SINGLE_POINT_ENERGY>  (752) 
0

>  <NONCOV_INTER_ENERGY_QM>  (752) 
0

>  <FF_Energy>  (752) 
15.56

>  <QM_Energy>  (752) 
26.29

>  <source>  (752) 
ACEM_nNMA_54

>  <Index>  (752) 
8213

$$$$
ACEM-pdb5cxk-E-GLN-154:NMA-pdb5cxk-E-GLN-69
     RDKit          3D

 21 19  0  0  0  0  0  0  0  0999 V2000
   -3.5173    1.9281    1.7628 C   0  0  0  0  0  0  0  0  0  0  0  0
   -4.1893    2.6116    2.0738 H   0  0  0  0  0  0  0  0  0  0  0  0
   -2.5937    2.2814    1.9549 H   0  0  0  0  0  0  0  0  0  0  0  0
   -3.6630    1.0152    2.3403 H   0  0  0  0  0  0  0  0  0  0  0  0
   -3.6644    1.7619    0.2557 C   0  0  0  0  0  0  0  0  0  0  0  0
   -3.1956    0.6281   -0.2541 N   0  0  0  0  0  0  0  0  0  0  0  0
   -3.2707    0.4388   -1.2520 H   0  0  0  0  0  0  0  0  0  0  0  0
   -2.7599   -0.0489    0.3673 H   0  0  0  0  0  0  0  0  0  0  0  0
   -4.2007    2.6284   -0.4412 O   0  0  0  0  0  0  0  0  0  0  0  0
   -1.1756   -2.0913   -0.3932 C   0  0  0  0  0  0  0  0  0  0  0  0
   -0.2855   -2.3746   -0.6851 H   0  0  0  0  0  0  0  0  0  0  0  0
   -1.8247   -2.0784   -1.2688 H   0  0  0  0  0  0  0  0  0  0  0  0
   -1.5302   -2.7265    0.4185 H   0  0  0  0  0  0  0  0  0  0  0  0
   -1.1218   -0.6979    0.0000 N   0  0  0  0  0  0  0  0  0  0  0  0
   -1.9659   -0.1585    0.3079 H   0  0  0  0  0  0  0  0  0  0  0  0
    0.0000    0.0000    0.0000 C   0  0  0  0  0  0  0  0  0  0  0  0
    1.1218   -0.5207   -0.0000 O   0  0  0  0  0  0  0  0  0  0  0  0
   -0.1876    1.5075    0.0422 C   0  0  0  0  0  0  0  0  0  0  0  0
   -1.0521    1.6991    0.5247 H   0  0  0  0  0  0  0  0  0  0  0  0
    0.6178    1.9914    0.5947 H   0  0  0  0  0  0  0  0  0  0  0  0
   -0.2644    1.8998   -0.9718 H   0  0  0  0  0  0  0  0  0  0  0  0
  1  5  1  0
  5  6  1  0
  5  9  2  0
  1  2  1  0
  1  3  1  0
  1  4  1  0
  6  7  1  0
  6  8  1  0
 10 14  1  0
 14 16  1  0
 16 17  2  0
 16 18  1  0
 10 11  1  0
 10 12  1  0
 10 13  1  0
 14 15  1  0
 18 19  1  0
 18 20  1  0
 18 21  1  0
M  END
>  <PDB_ID>  (753) 
pdb5cxk

>  <RESIDUE_NAME>  (753) 
GLN   GLN

>  <FRAG_NAME>  (753) 
ACEM   NMA

>  <FRAG_ATOM_NUM>  (753) 
fragi: 9  fragj: 12

>  <atom.prop.CHAIN_ID>  (753) 
A A A A A A A A A Z Z Z Z Z Z Z Z Z Z Z Z

>  <atom.prop.IS_HEAVY_ATOM>  (753) 
1 0 0 0 1 1 0 0 1 1 0 0 0 1 0 1 1 1 0 0 0

>  <DIFUSE_FUNC_ATOM>  (753) 
n/a

>  <FINAL_SINGLE_POINT_ENERGY>  (753) 
0

>  <NONCOV_INTER_ENERGY_QM>  (753) 
0

>  <FF_Energy>  (753) 
33.96

>  <QM_Energy>  (753) 
62.86

>  <source>  (753) 
ACEM_nNMA_54

>  <Index>  (753) 
14039

$$$$
ACEM-pdb5cxk-F-GLN-154:NMA-pdb5cxk-F-GLN-69
     RDKit          3D

 21 19  0  0  0  0  0  0  0  0999 V2000
   -3.2861    2.0294    1.5379 C   0  0  0  0  0  0  0  0  0  0  0  0
   -3.6541    2.9355    1.7369 H   0  0  0  0  0  0  0  0  0  0  0  0
   -2.2926    2.0388    1.6409 H   0  0  0  0  0  0  0  0  0  0  0  0
   -3.7028    1.3208    2.2536 H   0  0  0  0  0  0  0  0  0  0  0  0
   -3.6258    1.6685    0.1101 C   0  0  0  0  0  0  0  0  0  0  0  0
   -3.2438    0.4668   -0.2942 N   0  0  0  0  0  0  0  0  0  0  0  0
   -3.4490    0.1421   -1.2418 H   0  0  0  0  0  0  0  0  0  0  0  0
   -2.7395   -0.1367    0.3537 H   0  0  0  0  0  0  0  0  0  0  0  0
   -4.2266    2.4618   -0.6246 O   0  0  0  0  0  0  0  0  0  0  0  0
   -1.2015   -2.1375   -0.3558 C   0  0  0  0  0  0  0  0  0  0  0  0
   -0.3024   -2.4536   -0.5807 H   0  0  0  0  0  0  0  0  0  0  0  0
   -1.7999   -2.1459   -1.2668 H   0  0  0  0  0  0  0  0  0  0  0  0
   -1.6472   -2.7286    0.4442 H   0  0  0  0  0  0  0  0  0  0  0  0
   -1.1192   -0.7178   -0.0000 N   0  0  0  0  0  0  0  0  0  0  0  0
   -1.9746   -0.1636    0.2875 H   0  0  0  0  0  0  0  0  0  0  0  0
    0.0000    0.0000    0.0000 C   0  0  0  0  0  0  0  0  0  0  0  0
    1.1192   -0.4871    0.0000 O   0  0  0  0  0  0  0  0  0  0  0  0
   -0.1796    1.5213    0.0221 C   0  0  0  0  0  0  0  0  0  0  0  0
   -1.0737    1.7114    0.4340 H   0  0  0  0  0  0  0  0  0  0  0  0
    0.5935    1.9716    0.6449 H   0  0  0  0  0  0  0  0  0  0  0  0
   -0.0542    1.8513   -1.0091 H   0  0  0  0  0  0  0  0  0  0  0  0
  1  5  1  0
  5  6  1  0
  5  9  2  0
  1  2  1  0
  1  3  1  0
  1  4  1  0
  6  7  1  0
  6  8  1  0
 10 14  1  0
 14 16  1  0
 16 17  2  0
 16 18  1  0
 10 11  1  0
 10 12  1  0
 10 13  1  0
 14 15  1  0
 18 19  1  0
 18 20  1  0
 18 21  1  0
M  END
>  <PDB_ID>  (754) 
pdb5cxk

>  <RESIDUE_NAME>  (754) 
GLN   GLN

>  <FRAG_NAME>  (754) 
ACEM   NMA

>  <FRAG_ATOM_NUM>  (754) 
fragi: 9  fragj: 12

>  <atom.prop.CHAIN_ID>  (754) 
A A A A A A A A A Z Z Z Z Z Z Z Z Z Z Z Z

>  <atom.prop.IS_HEAVY_ATOM>  (754) 
1 0 0 0 1 1 0 0 1 1 0 0 0 1 0 1 1 1 0 0 0

>  <DIFUSE_FUNC_ATOM>  (754) 
n/a

>  <FINAL_SINGLE_POINT_ENERGY>  (754) 
0

>  <NONCOV_INTER_ENERGY_QM>  (754) 
0

>  <FF_Energy>  (754) 
43.08

>  <QM_Energy>  (754) 
73.03

>  <source>  (754) 
ACEM_nNMA_54

>  <Index>  (754) 
15870

$$$$
ACEM-pdb5dcq-F-GLN-128:NMA-pdb5dcq-F-TYR-37
     RDKit          3D

 21 19  0  0  0  0  0  0  0  0999 V2000
   -5.5082    0.6482   -2.1949 C   0  0  0  0  0  0  0  0  0  0  0  0
   -6.0757    0.5117   -1.3888 H   0  0  0  0  0  0  0  0  0  0  0  0
   -5.8527    0.1052   -2.9550 H   0  0  0  0  0  0  0  0  0  0  0  0
   -5.5373    1.7019   -2.4723 H   0  0  0  0  0  0  0  0  0  0  0  0
   -4.0894    0.1810   -1.8706 C   0  0  0  0  0  0  0  0  0  0  0  0
   -3.6491    0.4078   -0.6314 N   0  0  0  0  0  0  0  0  0  0  0  0
   -2.7277    0.1121   -0.3480 H   0  0  0  0  0  0  0  0  0  0  0  0
   -4.2665    0.8869    0.0227 H   0  0  0  0  0  0  0  0  0  0  0  0
   -3.4041   -0.3688   -2.7237 O   0  0  0  0  0  0  0  0  0  0  0  0
   -1.0342   -2.1699   -0.0918 C   0  0  0  0  0  0  0  0  0  0  0  0
   -0.3556   -2.4934    0.5735 H   0  0  0  0  0  0  0  0  0  0  0  0
   -0.7016   -2.4669   -1.0865 H   0  0  0  0  0  0  0  0  0  0  0  0
   -2.0049   -2.6147    0.1269 H   0  0  0  0  0  0  0  0  0  0  0  0
   -1.1142   -0.7209    0.0000 N   0  0  0  0  0  0  0  0  0  0  0  0
   -1.9897   -0.1906    0.0672 H   0  0  0  0  0  0  0  0  0  0  0  0
    0.0000    0.0000    0.0000 C   0  0  0  0  0  0  0  0  0  0  0  0
    1.1142   -0.4985    0.0000 O   0  0  0  0  0  0  0  0  0  0  0  0
   -0.1739    1.5031   -0.0427 C   0  0  0  0  0  0  0  0  0  0  0  0
   -0.9899    1.7430    0.5083 H   0  0  0  0  0  0  0  0  0  0  0  0
    0.6842    2.0308    0.3734 H   0  0  0  0  0  0  0  0  0  0  0  0
   -0.3411    1.8157   -1.0735 H   0  0  0  0  0  0  0  0  0  0  0  0
  1  5  1  0
  5  6  1  0
  5  9  2  0
  1  2  1  0
  1  3  1  0
  1  4  1  0
  6  7  1  0
  6  8  1  0
 10 14  1  0
 14 16  1  0
 16 17  2  0
 16 18  1  0
 10 11  1  0
 10 12  1  0
 10 13  1  0
 14 15  1  0
 18 19  1  0
 18 20  1  0
 18 21  1  0
M  END
>  <PDB_ID>  (755) 
pdb5dcq

>  <RESIDUE_NAME>  (755) 
GLN   TYR

>  <FRAG_NAME>  (755) 
ACEM   NMA

>  <FRAG_ATOM_NUM>  (755) 
fragi: 9  fragj: 12

>  <atom.prop.CHAIN_ID>  (755) 
A A A A A A A A A Z Z Z Z Z Z Z Z Z Z Z Z

>  <atom.prop.IS_HEAVY_ATOM>  (755) 
1 0 0 0 1 1 0 0 1 1 0 0 0 1 0 1 1 1 0 0 0

>  <DIFUSE_FUNC_ATOM>  (755) 
n/a

>  <FINAL_SINGLE_POINT_ENERGY>  (755) 
0

>  <NONCOV_INTER_ENERGY_QM>  (755) 
0

>  <FF_Energy>  (755) 
13.81

>  <QM_Energy>  (755) 
34.74

>  <source>  (755) 
ACEM_nNMA_54

>  <Index>  (755) 
23999

$$$$
ACEM-pdb5drb-A-GLN-430:NMA-pdb5drb-A-CYS-425
     RDKit          3D

 21 19  0  0  0  0  0  0  0  0999 V2000
   -5.0251    1.3172   -2.1473 C   0  0  0  0  0  0  0  0  0  0  0  0
   -5.7254    1.9926   -1.9375 H   0  0  0  0  0  0  0  0  0  0  0  0
   -5.4090    0.5825   -2.6976 H   0  0  0  0  0  0  0  0  0  0  0  0
   -4.2399    1.8048   -2.7250 H   0  0  0  0  0  0  0  0  0  0  0  0
   -4.4976    0.7381   -0.8508 C   0  0  0  0  0  0  0  0  0  0  0  0
   -3.3511    0.0651   -0.9208 N   0  0  0  0  0  0  0  0  0  0  0  0
   -2.9306   -0.3388   -0.0904 H   0  0  0  0  0  0  0  0  0  0  0  0
   -2.8997   -0.0393   -1.8291 H   0  0  0  0  0  0  0  0  0  0  0  0
   -5.1163    0.8882    0.2055 O   0  0  0  0  0  0  0  0  0  0  0  0
   -1.0694   -2.1732    0.0615 C   0  0  0  0  0  0  0  0  0  0  0  0
   -0.1428   -2.4384    0.3765 H   0  0  0  0  0  0  0  0  0  0  0  0
   -1.2376   -2.6464   -0.9058 H   0  0  0  0  0  0  0  0  0  0  0  0
   -1.7663   -2.5604    0.8049 H   0  0  0  0  0  0  0  0  0  0  0  0
   -1.1203   -0.7153    0.0000 N   0  0  0  0  0  0  0  0  0  0  0  0
   -1.9940   -0.1715   -0.0459 H   0  0  0  0  0  0  0  0  0  0  0  0
    0.0000    0.0000    0.0000 C   0  0  0  0  0  0  0  0  0  0  0  0
    1.1203   -0.5180   -0.0000 O   0  0  0  0  0  0  0  0  0  0  0  0
   -0.1509    1.5199    0.0035 C   0  0  0  0  0  0  0  0  0  0  0  0
   -1.0075    1.7470    0.4751 H   0  0  0  0  0  0  0  0  0  0  0  0
    0.6726    1.9836    0.5466 H   0  0  0  0  0  0  0  0  0  0  0  0
   -0.2023    1.8995   -1.0169 H   0  0  0  0  0  0  0  0  0  0  0  0
  1  5  1  0
  5  6  1  0
  5  9  2  0
  1  2  1  0
  1  3  1  0
  1  4  1  0
  6  7  1  0
  6  8  1  0
 10 14  1  0
 14 16  1  0
 16 17  2  0
 16 18  1  0
 10 11  1  0
 10 12  1  0
 10 13  1  0
 14 15  1  0
 18 19  1  0
 18 20  1  0
 18 21  1  0
M  END
>  <PDB_ID>  (756) 
pdb5drb

>  <RESIDUE_NAME>  (756) 
GLN   CYS

>  <FRAG_NAME>  (756) 
ACEM   NMA

>  <FRAG_ATOM_NUM>  (756) 
fragi: 9  fragj: 12

>  <atom.prop.CHAIN_ID>  (756) 
A A A A A A A A A Z Z Z Z Z Z Z Z Z Z Z Z

>  <atom.prop.IS_HEAVY_ATOM>  (756) 
1 0 0 0 1 1 0 0 1 1 0 0 0 1 0 1 1 1 0 0 0

>  <DIFUSE_FUNC_ATOM>  (756) 
n/a

>  <FINAL_SINGLE_POINT_ENERGY>  (756) 
0

>  <NONCOV_INTER_ENERGY_QM>  (756) 
0

>  <FF_Energy>  (756) 
20.49

>  <QM_Energy>  (756) 
37.86

>  <source>  (756) 
ACEM_nNMA_55

>  <Index>  (756) 
49

$$$$
ACEM-pdb5do8-A-GLN-315:NMA-pdb5do8-A-ASN-479
     RDKit          3D

 21 19  0  0  0  0  0  0  0  0999 V2000
   -4.5618    2.6267    1.7416 C   0  0  0  0  0  0  0  0  0  0  0  0
   -5.5345    2.5356    1.9469 H   0  0  0  0  0  0  0  0  0  0  0  0
   -4.3832    3.5242    1.3434 H   0  0  0  0  0  0  0  0  0  0  0  0
   -3.9871    2.5188    2.6615 H   0  0  0  0  0  0  0  0  0  0  0  0
   -4.1925    1.5670    0.7107 C   0  0  0  0  0  0  0  0  0  0  0  0
   -3.2203    0.7489    1.0614 N   0  0  0  0  0  0  0  0  0  0  0  0
   -2.9197   -0.0028    0.4307 H   0  0  0  0  0  0  0  0  0  0  0  0
   -2.7678    0.8653    1.9636 H   0  0  0  0  0  0  0  0  0  0  0  0
   -4.7680    1.4923   -0.3919 O   0  0  0  0  0  0  0  0  0  0  0  0
   -1.1511   -2.1619    0.0774 C   0  0  0  0  0  0  0  0  0  0  0  0
   -0.2367   -2.5084   -0.1435 H   0  0  0  0  0  0  0  0  0  0  0  0
   -1.8518   -2.5616   -0.6555 H   0  0  0  0  0  0  0  0  0  0  0  0
   -1.4630   -2.4523    1.0806 H   0  0  0  0  0  0  0  0  0  0  0  0
   -1.1207   -0.7008    0.0000 N   0  0  0  0  0  0  0  0  0  0  0  0
   -1.9939   -0.1224   -0.0607 H   0  0  0  0  0  0  0  0  0  0  0  0
    0.0000    0.0000    0.0000 C   0  0  0  0  0  0  0  0  0  0  0  0
    1.1207   -0.5156    0.0000 O   0  0  0  0  0  0  0  0  0  0  0  0
   -0.1636    1.5264    0.0342 C   0  0  0  0  0  0  0  0  0  0  0  0
   -0.6045    1.7464    0.9077 H   0  0  0  0  0  0  0  0  0  0  0  0
    0.8167    2.0027    0.0254 H   0  0  0  0  0  0  0  0  0  0  0  0
   -0.7712    1.8976   -0.7912 H   0  0  0  0  0  0  0  0  0  0  0  0
  1  5  1  0
  5  6  1  0
  5  9  2  0
  1  2  1  0
  1  3  1  0
  1  4  1  0
  6  7  1  0
  6  8  1  0
 10 14  1  0
 14 16  1  0
 16 17  2  0
 16 18  1  0
 10 11  1  0
 10 12  1  0
 10 13  1  0
 14 15  1  0
 18 19  1  0
 18 20  1  0
 18 21  1  0
M  END
>  <PDB_ID>  (757) 
pdb5do8

>  <RESIDUE_NAME>  (757) 
GLN   ASN

>  <FRAG_NAME>  (757) 
ACEM   NMA

>  <FRAG_ATOM_NUM>  (757) 
fragi: 9  fragj: 12

>  <atom.prop.CHAIN_ID>  (757) 
A A A A A A A A A Z Z Z Z Z Z Z Z Z Z Z Z

>  <atom.prop.IS_HEAVY_ATOM>  (757) 
1 0 0 0 1 1 0 0 1 1 0 0 0 1 0 1 1 1 0 0 0

>  <DIFUSE_FUNC_ATOM>  (757) 
n/a

>  <FINAL_SINGLE_POINT_ENERGY>  (757) 
0

>  <NONCOV_INTER_ENERGY_QM>  (757) 
0

>  <FF_Energy>  (757) 
9.1

>  <QM_Energy>  (757) 
23.25

>  <source>  (757) 
ACEM_nNMA_55

>  <Index>  (757) 
2395

$$$$
ACEM-pdb5dz7-A-ASN-223:NMA-pdb5dz7-A-HIE-86
     RDKit          3D

 21 19  0  0  0  0  0  0  0  0999 V2000
   -6.0161    0.1228    0.7543 C   0  0  0  0  0  0  0  0  0  0  0  0
   -6.2066   -0.6034    1.4100 H   0  0  0  0  0  0  0  0  0  0  0  0
   -6.1211   -0.2209   -0.1757 H   0  0  0  0  0  0  0  0  0  0  0  0
   -6.7328    0.9291    0.9100 H   0  0  0  0  0  0  0  0  0  0  0  0
   -4.5887    0.5785    0.9410 C   0  0  0  0  0  0  0  0  0  0  0  0
   -3.6517   -0.3379    0.7462 N   0  0  0  0  0  0  0  0  0  0  0  0
   -3.9040   -1.2699    0.4848 H   0  0  0  0  0  0  0  0  0  0  0  0
   -2.6845   -0.0997    0.8598 H   0  0  0  0  0  0  0  0  0  0  0  0
   -4.3248    1.7512    1.2455 O   0  0  0  0  0  0  0  0  0  0  0  0
   -1.1215   -2.1604    0.0292 C   0  0  0  0  0  0  0  0  0  0  0  0
   -2.0603   -2.4781    0.1470 H   0  0  0  0  0  0  0  0  0  0  0  0
   -0.5480   -2.4940    0.8941 H   0  0  0  0  0  0  0  0  0  0  0  0
   -0.7441   -2.5584   -0.9127 H   0  0  0  0  0  0  0  0  0  0  0  0
   -1.1294   -0.7020    0.0000 N   0  0  0  0  0  0  0  0  0  0  0  0
   -1.9973   -0.1339   -0.0216 H   0  0  0  0  0  0  0  0  0  0  0  0
    0.0000    0.0000    0.0000 C   0  0  0  0  0  0  0  0  0  0  0  0
    1.1294   -0.5245   -0.0000 O   0  0  0  0  0  0  0  0  0  0  0  0
   -0.1379    1.4956   -0.0496 C   0  0  0  0  0  0  0  0  0  0  0  0
   -1.1108    1.7259   -0.1887 H   0  0  0  0  0  0  0  0  0  0  0  0
    0.1898    1.9449    0.8879 H   0  0  0  0  0  0  0  0  0  0  0  0
    0.4543    1.8926   -0.8740 H   0  0  0  0  0  0  0  0  0  0  0  0
  1  5  1  0
  5  6  1  0
  5  9  2  0
  1  2  1  0
  1  3  1  0
  1  4  1  0
  6  7  1  0
  6  8  1  0
 10 14  1  0
 14 16  1  0
 16 17  2  0
 16 18  1  0
 10 11  1  0
 10 12  1  0
 10 13  1  0
 14 15  1  0
 18 19  1  0
 18 20  1  0
 18 21  1  0
M  END
>  <PDB_ID>  (758) 
pdb5dz7

>  <RESIDUE_NAME>  (758) 
ASN   HIE

>  <FRAG_NAME>  (758) 
ACEM   NMA

>  <FRAG_ATOM_NUM>  (758) 
fragi: 9  fragj: 12

>  <atom.prop.CHAIN_ID>  (758) 
A A A A A A A A A Z Z Z Z Z Z Z Z Z Z Z Z

>  <atom.prop.IS_HEAVY_ATOM>  (758) 
1 0 0 0 1 1 0 0 1 1 0 0 0 1 0 1 1 1 0 0 0

>  <DIFUSE_FUNC_ATOM>  (758) 
n/a

>  <FINAL_SINGLE_POINT_ENERGY>  (758) 
0

>  <NONCOV_INTER_ENERGY_QM>  (758) 
0

>  <FF_Energy>  (758) 
9.0

>  <QM_Energy>  (758) 
20.85

>  <source>  (758) 
ACEM_nNMA_55

>  <Index>  (758) 
2551

$$$$
ACEM-pdb5e09-A-GLN-160:NMA-pdb5e09-A-ASP-155
     RDKit          3D

 21 19  0  0  0  0  0  0  0  0999 V2000
   -6.1656    0.4869   -0.9381 C   0  0  0  0  0  0  0  0  0  0  0  0
   -6.1087    0.5005   -1.9358 H   0  0  0  0  0  0  0  0  0  0  0  0
   -6.7814    1.2104   -0.6284 H   0  0  0  0  0  0  0  0  0  0  0  0
   -6.5722   -0.4747   -0.6253 H   0  0  0  0  0  0  0  0  0  0  0  0
   -4.7734    0.7617   -0.3716 C   0  0  0  0  0  0  0  0  0  0  0  0
   -3.8606   -0.1912   -0.5404 N   0  0  0  0  0  0  0  0  0  0  0  0
   -2.9149   -0.0694   -0.2032 H   0  0  0  0  0  0  0  0  0  0  0  0
   -4.1328   -1.0497   -1.0180 H   0  0  0  0  0  0  0  0  0  0  0  0
   -4.5301    1.8146    0.2198 O   0  0  0  0  0  0  0  0  0  0  0  0
   -1.1355   -2.1805    0.0022 C   0  0  0  0  0  0  0  0  0  0  0  0
   -0.1870   -2.4941    0.1542 H   0  0  0  0  0  0  0  0  0  0  0  0
   -1.4677   -2.5918   -0.9510 H   0  0  0  0  0  0  0  0  0  0  0  0
   -1.7812   -2.5458    0.8007 H   0  0  0  0  0  0  0  0  0  0  0  0
   -1.1223   -0.7173    0.0000 N   0  0  0  0  0  0  0  0  0  0  0  0
   -1.9982   -0.1430   -0.0021 H   0  0  0  0  0  0  0  0  0  0  0  0
    0.0000    0.0000    0.0000 C   0  0  0  0  0  0  0  0  0  0  0  0
    1.1223   -0.4970    0.0000 O   0  0  0  0  0  0  0  0  0  0  0  0
   -0.1880    1.5106   -0.0107 C   0  0  0  0  0  0  0  0  0  0  0  0
    0.7207    1.9215   -0.0740 H   0  0  0  0  0  0  0  0  0  0  0  0
   -0.7333    1.7945   -0.9107 H   0  0  0  0  0  0  0  0  0  0  0  0
   -0.7104    1.8220    0.8939 H   0  0  0  0  0  0  0  0  0  0  0  0
  1  5  1  0
  5  6  1  0
  5  9  2  0
  1  2  1  0
  1  3  1  0
  1  4  1  0
  6  7  1  0
  6  8  1  0
 10 14  1  0
 14 16  1  0
 16 17  2  0
 16 18  1  0
 10 11  1  0
 10 12  1  0
 10 13  1  0
 14 15  1  0
 18 19  1  0
 18 20  1  0
 18 21  1  0
M  END
>  <PDB_ID>  (759) 
pdb5e09

>  <RESIDUE_NAME>  (759) 
GLN   ASP

>  <FRAG_NAME>  (759) 
ACEM   NMA

>  <FRAG_ATOM_NUM>  (759) 
fragi: 9  fragj: 12

>  <atom.prop.CHAIN_ID>  (759) 
A A A A A A A A A Z Z Z Z Z Z Z Z Z Z Z Z

>  <atom.prop.IS_HEAVY_ATOM>  (759) 
1 0 0 0 1 1 0 0 1 1 0 0 0 1 0 1 1 1 0 0 0

>  <DIFUSE_FUNC_ATOM>  (759) 
n/a

>  <FINAL_SINGLE_POINT_ENERGY>  (759) 
0

>  <NONCOV_INTER_ENERGY_QM>  (759) 
0

>  <FF_Energy>  (759) 
9.38

>  <QM_Energy>  (759) 
29.92

>  <source>  (759) 
ACEM_nNMA_55

>  <Index>  (759) 
5161

$$$$
ACEM-pdb6epg-B-GLN-266:NMA-pdb6epg-B-GLY-182
     RDKit          3D

 21 19  0  0  0  0  0  0  0  0999 V2000
   -4.3029    2.2906   -2.8645 C   0  0  0  0  0  0  0  0  0  0  0  0
   -3.6606    3.0437   -3.0356 H   0  0  0  0  0  0  0  0  0  0  0  0
   -5.2265    2.6708   -2.7596 H   0  0  0  0  0  0  0  0  0  0  0  0
   -4.3013    1.6370   -3.7367 H   0  0  0  0  0  0  0  0  0  0  0  0
   -3.9080    1.6052   -1.5563 C   0  0  0  0  0  0  0  0  0  0  0  0
   -2.9228    0.7247   -1.6343 N   0  0  0  0  0  0  0  0  0  0  0  0
   -2.5942    0.2369   -0.8028 H   0  0  0  0  0  0  0  0  0  0  0  0
   -2.4951    0.5383   -2.5393 H   0  0  0  0  0  0  0  0  0  0  0  0
   -4.4640    1.8853   -0.4905 O   0  0  0  0  0  0  0  0  0  0  0  0
   -1.1363   -2.1346    0.1697 C   0  0  0  0  0  0  0  0  0  0  0  0
   -0.5507   -2.5524   -0.5285 H   0  0  0  0  0  0  0  0  0  0  0  0
   -2.1534   -2.5038    0.0391 H   0  0  0  0  0  0  0  0  0  0  0  0
   -0.7731   -2.3876    1.1658 H   0  0  0  0  0  0  0  0  0  0  0  0
   -1.1323   -0.7042   -0.0000 N   0  0  0  0  0  0  0  0  0  0  0  0
   -1.9925   -0.1315   -0.1318 H   0  0  0  0  0  0  0  0  0  0  0  0
    0.0000    0.0000    0.0000 C   0  0  0  0  0  0  0  0  0  0  0  0
    1.1323   -0.5206    0.0000 O   0  0  0  0  0  0  0  0  0  0  0  0
   -0.1643    1.5098   -0.0162 C   0  0  0  0  0  0  0  0  0  0  0  0
    0.2849    1.9004    0.7874 H   0  0  0  0  0  0  0  0  0  0  0  0
   -1.1375    1.7373    0.0048 H   0  0  0  0  0  0  0  0  0  0  0  0
    0.2904    1.9037   -0.9251 H   0  0  0  0  0  0  0  0  0  0  0  0
  1  5  1  0
  5  6  1  0
  5  9  2  0
  1  2  1  0
  1  3  1  0
  1  4  1  0
  6  7  1  0
  6  8  1  0
 10 14  1  0
 14 16  1  0
 16 17  2  0
 16 18  1  0
 10 11  1  0
 10 12  1  0
 10 13  1  0
 14 15  1  0
 18 19  1  0
 18 20  1  0
 18 21  1  0
M  END
>  <PDB_ID>  (760) 
pdb6epg

>  <RESIDUE_NAME>  (760) 
GLN   GLY

>  <FRAG_NAME>  (760) 
ACEM   NMA

>  <FRAG_ATOM_NUM>  (760) 
fragi: 9  fragj: 12

>  <atom.prop.CHAIN_ID>  (760) 
A A A A A A A A A Z Z Z Z Z Z Z Z Z Z Z Z

>  <atom.prop.IS_HEAVY_ATOM>  (760) 
1 0 0 0 1 1 0 0 1 1 0 0 0 1 0 1 1 1 0 0 0

>  <DIFUSE_FUNC_ATOM>  (760) 
n/a

>  <FINAL_SINGLE_POINT_ENERGY>  (760) 
0

>  <NONCOV_INTER_ENERGY_QM>  (760) 
0

>  <FF_Energy>  (760) 
10.44

>  <QM_Energy>  (760) 
27.54

>  <source>  (760) 
ACEM_nNMA_55

>  <Index>  (760) 
18802

$$$$
ACEM-pdb5ege-C-ASN-92:NMA-pdb5ege-C-SER-71
     RDKit          3D

 21 19  0  0  0  0  0  0  0  0999 V2000
   -5.9544    0.1844   -1.9211 C   0  0  0  0  0  0  0  0  0  0  0  0
   -6.2194    0.7224   -2.7183 H   0  0  0  0  0  0  0  0  0  0  0  0
   -6.6519    0.2620   -1.2125 H   0  0  0  0  0  0  0  0  0  0  0  0
   -5.8820   -0.8615   -2.2194 H   0  0  0  0  0  0  0  0  0  0  0  0
   -4.6454    0.7501   -1.3724 C   0  0  0  0  0  0  0  0  0  0  0  0
   -3.7235   -0.1362   -1.0179 N   0  0  0  0  0  0  0  0  0  0  0  0
   -3.9048   -1.1155   -1.1230 H   0  0  0  0  0  0  0  0  0  0  0  0
   -2.8476    0.1713   -0.6470 H   0  0  0  0  0  0  0  0  0  0  0  0
   -4.4651    1.9639   -1.2838 O   0  0  0  0  0  0  0  0  0  0  0  0
   -1.0415   -2.1822    0.0298 C   0  0  0  0  0  0  0  0  0  0  0  0
   -0.6119   -2.4576    0.9064 H   0  0  0  0  0  0  0  0  0  0  0  0
   -0.4397   -2.5909   -0.7819 H   0  0  0  0  0  0  0  0  0  0  0  0
   -2.0412   -2.6161    0.0457 H   0  0  0  0  0  0  0  0  0  0  0  0
   -1.1196   -0.7236   -0.0000 N   0  0  0  0  0  0  0  0  0  0  0  0
   -1.9941   -0.1911   -0.0220 H   0  0  0  0  0  0  0  0  0  0  0  0
    0.0000    0.0000    0.0000 C   0  0  0  0  0  0  0  0  0  0  0  0
    1.1196   -0.5139   -0.0000 O   0  0  0  0  0  0  0  0  0  0  0  0
   -0.1312    1.5106    0.0471 C   0  0  0  0  0  0  0  0  0  0  0  0
    0.8030    1.9034    0.1371 H   0  0  0  0  0  0  0  0  0  0  0  0
   -0.5846    1.9367   -0.8478 H   0  0  0  0  0  0  0  0  0  0  0  0
   -0.6932    1.7874    0.9391 H   0  0  0  0  0  0  0  0  0  0  0  0
  1  5  1  0
  5  6  1  0
  5  9  2  0
  1  2  1  0
  1  3  1  0
  1  4  1  0
  6  7  1  0
  6  8  1  0
 10 14  1  0
 14 16  1  0
 16 17  2  0
 16 18  1  0
 10 11  1  0
 10 12  1  0
 10 13  1  0
 14 15  1  0
 18 19  1  0
 18 20  1  0
 18 21  1  0
M  END
>  <PDB_ID>  (761) 
pdb5ege

>  <RESIDUE_NAME>  (761) 
ASN   SER

>  <FRAG_NAME>  (761) 
ACEM   NMA

>  <FRAG_ATOM_NUM>  (761) 
fragi: 9  fragj: 12

>  <atom.prop.CHAIN_ID>  (761) 
A A A A A A A A A Z Z Z Z Z Z Z Z Z Z Z Z

>  <atom.prop.IS_HEAVY_ATOM>  (761) 
1 0 0 0 1 1 0 0 1 1 0 0 0 1 0 1 1 1 0 0 0

>  <DIFUSE_FUNC_ATOM>  (761) 
n/a

>  <FINAL_SINGLE_POINT_ENERGY>  (761) 
0

>  <NONCOV_INTER_ENERGY_QM>  (761) 
0

>  <FF_Energy>  (761) 
5.79

>  <QM_Energy>  (761) 
18.17

>  <source>  (761) 
ACEM_nNMA_55

>  <Index>  (761) 
22934

$$$$
ACEM-pdb6f2c-G-GLN-48:NMA-pdb6f2c-A-GLY-35
     RDKit          3D

 21 19  0  0  0  0  0  0  0  0999 V2000
   -5.4760    1.3665    1.2063 C   0  0  0  0  0  0  0  0  0  0  0  0
   -6.3167    1.3361    0.6726 H   0  0  0  0  0  0  0  0  0  0  0  0
   -5.3333    2.2851    1.5657 H   0  0  0  0  0  0  0  0  0  0  0  0
   -5.5520    0.6637    2.0361 H   0  0  0  0  0  0  0  0  0  0  0  0
   -4.3101    1.0291    0.2796 C   0  0  0  0  0  0  0  0  0  0  0  0
   -3.1006    0.9556    0.8414 N   0  0  0  0  0  0  0  0  0  0  0  0
   -2.2885    0.7230    0.2892 H   0  0  0  0  0  0  0  0  0  0  0  0
   -3.0163    1.1400    1.8395 H   0  0  0  0  0  0  0  0  0  0  0  0
   -4.4942    0.8559   -0.9251 O   0  0  0  0  0  0  0  0  0  0  0  0
   -1.1600   -2.1590    0.1470 C   0  0  0  0  0  0  0  0  0  0  0  0
   -0.7070   -2.4043    1.0149 H   0  0  0  0  0  0  0  0  0  0  0  0
   -0.6322   -2.6617   -0.6635 H   0  0  0  0  0  0  0  0  0  0  0  0
   -2.1892   -2.5133    0.2048 H   0  0  0  0  0  0  0  0  0  0  0  0
   -1.1272   -0.7061    0.0000 N   0  0  0  0  0  0  0  0  0  0  0  0
   -1.9944   -0.1287   -0.1148 H   0  0  0  0  0  0  0  0  0  0  0  0
    0.0000    0.0000    0.0000 C   0  0  0  0  0  0  0  0  0  0  0  0
    1.1272   -0.5097    0.0000 O   0  0  0  0  0  0  0  0  0  0  0  0
   -0.1781    1.5084   -0.0280 C   0  0  0  0  0  0  0  0  0  0  0  0
   -0.3246    1.8425    0.9284 H   0  0  0  0  0  0  0  0  0  0  0  0
   -1.0387    1.7316   -0.5350 H   0  0  0  0  0  0  0  0  0  0  0  0
    0.6522    2.0549   -0.4751 H   0  0  0  0  0  0  0  0  0  0  0  0
  1  5  1  0
  5  6  1  0
  5  9  2  0
  1  2  1  0
  1  3  1  0
  1  4  1  0
  6  7  1  0
  6  8  1  0
 10 14  1  0
 14 16  1  0
 16 17  2  0
 16 18  1  0
 10 11  1  0
 10 12  1  0
 10 13  1  0
 14 15  1  0
 18 19  1  0
 18 20  1  0
 18 21  1  0
M  END
>  <PDB_ID>  (762) 
pdb6f2c

>  <RESIDUE_NAME>  (762) 
GLN   GLY

>  <FRAG_NAME>  (762) 
ACEM   NMA

>  <FRAG_ATOM_NUM>  (762) 
fragi: 9  fragj: 12

>  <atom.prop.CHAIN_ID>  (762) 
A A A A A A A A A Z Z Z Z Z Z Z Z Z Z Z Z

>  <atom.prop.IS_HEAVY_ATOM>  (762) 
1 0 0 0 1 1 0 0 1 1 0 0 0 1 0 1 1 1 0 0 0

>  <DIFUSE_FUNC_ATOM>  (762) 
n/a

>  <FINAL_SINGLE_POINT_ENERGY>  (762) 
0

>  <NONCOV_INTER_ENERGY_QM>  (762) 
0

>  <FF_Energy>  (762) 
14.3

>  <QM_Energy>  (762) 
31.39

>  <source>  (762) 
ACEM_nNMA_55

>  <Index>  (762) 
27616

$$$$
ACEM-pdb5eyg-A-GLN-51:NMA-pdb5eyg-A-GLU-70
     RDKit          3D

 21 19  0  0  0  0  0  0  0  0999 V2000
   -5.9744   -1.2610   -1.4690 C   0  0  0  0  0  0  0  0  0  0  0  0
   -6.2911   -2.0081   -2.0584 H   0  0  0  0  0  0  0  0  0  0  0  0
   -6.3217   -0.3913   -1.8291 H   0  0  0  0  0  0  0  0  0  0  0  0
   -6.4305   -1.4089   -0.4902 H   0  0  0  0  0  0  0  0  0  0  0  0
   -4.4867   -1.2378   -1.4358 C   0  0  0  0  0  0  0  0  0  0  0  0
   -3.9271   -0.4018   -0.5946 N   0  0  0  0  0  0  0  0  0  0  0  0
   -2.9049   -0.3338   -0.4995 H   0  0  0  0  0  0  0  0  0  0  0  0
   -4.5205    0.2005   -0.0162 H   0  0  0  0  0  0  0  0  0  0  0  0
   -3.8345   -1.9722   -2.1788 O   0  0  0  0  0  0  0  0  0  0  0  0
   -1.0487   -2.1712    0.2684 C   0  0  0  0  0  0  0  0  0  0  0  0
   -0.2571   -2.3768    0.8790 H   0  0  0  0  0  0  0  0  0  0  0  0
   -0.9790   -2.7956   -0.6223 H   0  0  0  0  0  0  0  0  0  0  0  0
   -1.8998   -2.4563    0.8868 H   0  0  0  0  0  0  0  0  0  0  0  0
   -1.0913   -0.7322   -0.0000 N   0  0  0  0  0  0  0  0  0  0  0  0
   -1.9721   -0.2207   -0.2021 H   0  0  0  0  0  0  0  0  0  0  0  0
    0.0000    0.0000    0.0000 C   0  0  0  0  0  0  0  0  0  0  0  0
    1.0913   -0.4964    0.0000 O   0  0  0  0  0  0  0  0  0  0  0  0
   -0.1389    1.5194   -0.0530 C   0  0  0  0  0  0  0  0  0  0  0  0
    0.7356    1.9279   -0.3577 H   0  0  0  0  0  0  0  0  0  0  0  0
   -0.9362    1.8434   -0.7219 H   0  0  0  0  0  0  0  0  0  0  0  0
   -0.2305    1.9387    0.9489 H   0  0  0  0  0  0  0  0  0  0  0  0
  1  5  1  0
  5  6  1  0
  5  9  2  0
  1  2  1  0
  1  3  1  0
  1  4  1  0
  6  7  1  0
  6  8  1  0
 10 14  1  0
 14 16  1  0
 16 17  2  0
 16 18  1  0
 10 11  1  0
 10 12  1  0
 10 13  1  0
 14 15  1  0
 18 19  1  0
 18 20  1  0
 18 21  1  0
M  END
>  <PDB_ID>  (763) 
pdb5eyg

>  <RESIDUE_NAME>  (763) 
GLN   GLU

>  <FRAG_NAME>  (763) 
ACEM   NMA

>  <FRAG_ATOM_NUM>  (763) 
fragi: 9  fragj: 12

>  <atom.prop.CHAIN_ID>  (763) 
A A A A A A A A A Z Z Z Z Z Z Z Z Z Z Z Z

>  <atom.prop.IS_HEAVY_ATOM>  (763) 
1 0 0 0 1 1 0 0 1 1 0 0 0 1 0 1 1 1 0 0 0

>  <DIFUSE_FUNC_ATOM>  (763) 
n/a

>  <FINAL_SINGLE_POINT_ENERGY>  (763) 
0

>  <NONCOV_INTER_ENERGY_QM>  (763) 
0

>  <FF_Energy>  (763) 
11.31

>  <QM_Energy>  (763) 
25.36

>  <source>  (763) 
ACEM_nNMA_55

>  <Index>  (763) 
28726

$$$$
ACEM-pdb6f5z-B-GLN-153:NMA-pdb6f5z-B-ASP-159
     RDKit          3D

 21 19  0  0  0  0  0  0  0  0999 V2000
   -5.7277    0.9698    0.2738 C   0  0  0  0  0  0  0  0  0  0  0  0
   -5.7192    0.9833   -0.7252 H   0  0  0  0  0  0  0  0  0  0  0  0
   -5.8603    1.8960    0.6226 H   0  0  0  0  0  0  0  0  0  0  0  0
   -6.5635    0.3531    0.6040 H   0  0  0  0  0  0  0  0  0  0  0  0
   -4.3922    0.4496    0.7648 C   0  0  0  0  0  0  0  0  0  0  0  0
   -3.7812   -0.3635   -0.0696 N   0  0  0  0  0  0  0  0  0  0  0  0
   -2.8533   -0.7586    0.1747 H   0  0  0  0  0  0  0  0  0  0  0  0
   -4.2141   -0.6053   -0.9524 H   0  0  0  0  0  0  0  0  0  0  0  0
   -3.9032    0.7604    1.8739 O   0  0  0  0  0  0  0  0  0  0  0  0
   -1.2164   -2.1557    0.0158 C   0  0  0  0  0  0  0  0  0  0  0  0
   -0.3901   -2.5181    0.4641 H   0  0  0  0  0  0  0  0  0  0  0  0
   -1.2498   -2.5697   -0.9919 H   0  0  0  0  0  0  0  0  0  0  0  0
   -2.1130   -2.4406    0.5663 H   0  0  0  0  0  0  0  0  0  0  0  0
   -1.1290   -0.6937   -0.0000 N   0  0  0  0  0  0  0  0  0  0  0  0
   -1.9978   -0.0844   -0.0123 H   0  0  0  0  0  0  0  0  0  0  0  0
    0.0000    0.0000    0.0000 C   0  0  0  0  0  0  0  0  0  0  0  0
    1.1290   -0.5178    0.0000 O   0  0  0  0  0  0  0  0  0  0  0  0
   -0.1658    1.5212    0.0239 C   0  0  0  0  0  0  0  0  0  0  0  0
   -1.1401    1.7065    0.0174 H   0  0  0  0  0  0  0  0  0  0  0  0
    0.2273    1.8674    0.9798 H   0  0  0  0  0  0  0  0  0  0  0  0
    0.3885    1.9608   -0.8054 H   0  0  0  0  0  0  0  0  0  0  0  0
  1  5  1  0
  5  6  1  0
  5  9  2  0
  1  2  1  0
  1  3  1  0
  1  4  1  0
  6  7  1  0
  6  8  1  0
 10 14  1  0
 14 16  1  0
 16 17  2  0
 16 18  1  0
 10 11  1  0
 10 12  1  0
 10 13  1  0
 14 15  1  0
 18 19  1  0
 18 20  1  0
 18 21  1  0
M  END
>  <PDB_ID>  (764) 
pdb6f5z

>  <RESIDUE_NAME>  (764) 
GLN   ASP

>  <FRAG_NAME>  (764) 
ACEM   NMA

>  <FRAG_ATOM_NUM>  (764) 
fragi: 9  fragj: 12

>  <atom.prop.CHAIN_ID>  (764) 
A A A A A A A A A Z Z Z Z Z Z Z Z Z Z Z Z

>  <atom.prop.IS_HEAVY_ATOM>  (764) 
1 0 0 0 1 1 0 0 1 1 0 0 0 1 0 1 1 1 0 0 0

>  <DIFUSE_FUNC_ATOM>  (764) 
n/a

>  <FINAL_SINGLE_POINT_ENERGY>  (764) 
0

>  <NONCOV_INTER_ENERGY_QM>  (764) 
0

>  <FF_Energy>  (764) 
6.88

>  <QM_Energy>  (764) 
23.66

>  <source>  (764) 
ACEM_nNMA_56

>  <Index>  (764) 
3052

$$$$
ACEM-pdb5fa0-B-ASN-397:NMA-pdb5fa0-B-ILE-197
     RDKit          3D

 21 19  0  0  0  0  0  0  0  0999 V2000
   -5.9239    0.3577   -0.7701 C   0  0  0  0  0  0  0  0  0  0  0  0
   -6.5245    0.9467   -0.2353 H   0  0  0  0  0  0  0  0  0  0  0  0
   -6.2147   -0.5921   -0.6889 H   0  0  0  0  0  0  0  0  0  0  0  0
   -5.9970    0.6511   -1.8173 H   0  0  0  0  0  0  0  0  0  0  0  0
   -4.5149    0.4807   -0.2244 C   0  0  0  0  0  0  0  0  0  0  0  0
   -3.5283    0.2459   -1.0805 N   0  0  0  0  0  0  0  0  0  0  0  0
   -3.7360    0.0085   -2.0312 H   0  0  0  0  0  0  0  0  0  0  0  0
   -2.5765    0.3064   -0.7798 H   0  0  0  0  0  0  0  0  0  0  0  0
   -4.3144    0.7882    0.9498 O   0  0  0  0  0  0  0  0  0  0  0  0
   -1.1250   -2.1682   -0.0688 C   0  0  0  0  0  0  0  0  0  0  0  0
   -0.2718   -2.5163    0.3420 H   0  0  0  0  0  0  0  0  0  0  0  0
   -1.1810   -2.5157   -1.1004 H   0  0  0  0  0  0  0  0  0  0  0  0
   -1.9583   -2.5777    0.5023 H   0  0  0  0  0  0  0  0  0  0  0  0
   -1.1230   -0.7122    0.0000 N   0  0  0  0  0  0  0  0  0  0  0  0
   -1.9956   -0.1419    0.0529 H   0  0  0  0  0  0  0  0  0  0  0  0
    0.0000    0.0000    0.0000 C   0  0  0  0  0  0  0  0  0  0  0  0
    1.1230   -0.5060   -0.0000 O   0  0  0  0  0  0  0  0  0  0  0  0
   -0.1810    1.5141   -0.0036 C   0  0  0  0  0  0  0  0  0  0  0  0
   -1.1656    1.6868    0.1582 H   0  0  0  0  0  0  0  0  0  0  0  0
    0.3530    2.0094    0.8073 H   0  0  0  0  0  0  0  0  0  0  0  0
    0.1334    1.9037   -0.9718 H   0  0  0  0  0  0  0  0  0  0  0  0
  1  5  1  0
  5  6  1  0
  5  9  2  0
  1  2  1  0
  1  3  1  0
  1  4  1  0
  6  7  1  0
  6  8  1  0
 10 14  1  0
 14 16  1  0
 16 17  2  0
 16 18  1  0
 10 11  1  0
 10 12  1  0
 10 13  1  0
 14 15  1  0
 18 19  1  0
 18 20  1  0
 18 21  1  0
M  END
>  <PDB_ID>  (765) 
pdb5fa0

>  <RESIDUE_NAME>  (765) 
ASN   ILE

>  <FRAG_NAME>  (765) 
ACEM   NMA

>  <FRAG_ATOM_NUM>  (765) 
fragi: 9  fragj: 12

>  <atom.prop.CHAIN_ID>  (765) 
A A A A A A A A A Z Z Z Z Z Z Z Z Z Z Z Z

>  <atom.prop.IS_HEAVY_ATOM>  (765) 
1 0 0 0 1 1 0 0 1 1 0 0 0 1 0 1 1 1 0 0 0

>  <DIFUSE_FUNC_ATOM>  (765) 
n/a

>  <FINAL_SINGLE_POINT_ENERGY>  (765) 
0

>  <NONCOV_INTER_ENERGY_QM>  (765) 
0

>  <FF_Energy>  (765) 
5.3

>  <QM_Energy>  (765) 
17.57

>  <source>  (765) 
ACEM_nNMA_56

>  <Index>  (765) 
12071

$$$$
ACEM-pdb5fbk-B-GLN-193:NMA-pdb5fbk-B-SER-296
     RDKit          3D

 21 19  0  0  0  0  0  0  0  0999 V2000
   -5.3392    1.8395    1.4841 C   0  0  0  0  0  0  0  0  0  0  0  0
   -4.8255    2.6769    1.6795 H   0  0  0  0  0  0  0  0  0  0  0  0
   -5.5218    1.3563    2.3420 H   0  0  0  0  0  0  0  0  0  0  0  0
   -6.2909    2.1129    1.0286 H   0  0  0  0  0  0  0  0  0  0  0  0
   -4.5047    0.9554    0.5969 C   0  0  0  0  0  0  0  0  0  0  0  0
   -3.2577    0.8903    0.8922 N   0  0  0  0  0  0  0  0  0  0  0  0
   -2.5994    0.2920    0.3430 H   0  0  0  0  0  0  0  0  0  0  0  0
   -2.8770    1.4282    1.6754 H   0  0  0  0  0  0  0  0  0  0  0  0
   -4.9913    0.3342   -0.3524 O   0  0  0  0  0  0  0  0  0  0  0  0
   -1.1691   -2.0659    0.3994 C   0  0  0  0  0  0  0  0  0  0  0  0
   -0.7740   -2.1796    1.3291 H   0  0  0  0  0  0  0  0  0  0  0  0
   -0.6362   -2.7231   -0.2877 H   0  0  0  0  0  0  0  0  0  0  0  0
   -2.2253   -2.3239    0.4776 H   0  0  0  0  0  0  0  0  0  0  0  0
   -1.1126   -0.6964    0.0000 N   0  0  0  0  0  0  0  0  0  0  0  0
   -1.9573   -0.1535   -0.3211 H   0  0  0  0  0  0  0  0  0  0  0  0
    0.0000    0.0000    0.0000 C   0  0  0  0  0  0  0  0  0  0  0  0
    1.1126   -0.5308   -0.0000 O   0  0  0  0  0  0  0  0  0  0  0  0
   -0.2042    1.5247   -0.1268 C   0  0  0  0  0  0  0  0  0  0  0  0
   -0.9276    1.7804    0.5163 H   0  0  0  0  0  0  0  0  0  0  0  0
    0.7158    2.0391    0.1508 H   0  0  0  0  0  0  0  0  0  0  0  0
   -0.5492    1.7913   -1.1258 H   0  0  0  0  0  0  0  0  0  0  0  0
  1  5  1  0
  5  6  1  0
  5  9  2  0
  1  2  1  0
  1  3  1  0
  1  4  1  0
  6  7  1  0
  6  8  1  0
 10 14  1  0
 14 16  1  0
 16 17  2  0
 16 18  1  0
 10 11  1  0
 10 12  1  0
 10 13  1  0
 14 15  1  0
 18 19  1  0
 18 20  1  0
 18 21  1  0
M  END
>  <PDB_ID>  (766) 
pdb5fbk

>  <RESIDUE_NAME>  (766) 
GLN   SER

>  <FRAG_NAME>  (766) 
ACEM   NMA

>  <FRAG_ATOM_NUM>  (766) 
fragi: 9  fragj: 12

>  <atom.prop.CHAIN_ID>  (766) 
A A A A A A A A A Z Z Z Z Z Z Z Z Z Z Z Z

>  <atom.prop.IS_HEAVY_ATOM>  (766) 
1 0 0 0 1 1 0 0 1 1 0 0 0 1 0 1 1 1 0 0 0

>  <DIFUSE_FUNC_ATOM>  (766) 
n/a

>  <FINAL_SINGLE_POINT_ENERGY>  (766) 
0

>  <NONCOV_INTER_ENERGY_QM>  (766) 
0

>  <FF_Energy>  (766) 
10.85

>  <QM_Energy>  (766) 
23.35

>  <source>  (766) 
ACEM_nNMA_56

>  <Index>  (766) 
16525

$$$$
ACEM-pdb5fkq-A-ASN-95:NMA-pdb5fkq-A-VAL-91
     RDKit          3D

 21 19  0  0  0  0  0  0  0  0999 V2000
   -5.4614    0.8812   -2.3550 C   0  0  0  0  0  0  0  0  0  0  0  0
   -5.4632    1.7993   -2.7258 H   0  0  0  0  0  0  0  0  0  0  0  0
   -6.3577    0.6338   -2.0133 H   0  0  0  0  0  0  0  0  0  0  0  0
   -5.1918    0.1871   -3.1511 H   0  0  0  0  0  0  0  0  0  0  0  0
   -4.4654    0.8401   -1.1733 C   0  0  0  0  0  0  0  0  0  0  0  0
   -3.6072   -0.1424   -1.1624 N   0  0  0  0  0  0  0  0  0  0  0  0
   -3.6072   -0.8262   -1.9031 H   0  0  0  0  0  0  0  0  0  0  0  0
   -2.9353   -0.2309   -0.4215 H   0  0  0  0  0  0  0  0  0  0  0  0
   -4.4327    1.7445   -0.3210 O   0  0  0  0  0  0  0  0  0  0  0  0
   -1.0534   -2.1721    0.0832 C   0  0  0  0  0  0  0  0  0  0  0  0
   -0.0701   -2.4569    0.1966 H   0  0  0  0  0  0  0  0  0  0  0  0
   -1.5168   -2.4783    0.9506 H   0  0  0  0  0  0  0  0  0  0  0  0
   -1.4810   -2.7239   -0.7540 H   0  0  0  0  0  0  0  0  0  0  0  0
   -1.1183   -0.7214    0.0000 N   0  0  0  0  0  0  0  0  0  0  0  0
   -1.9923   -0.1823   -0.0609 H   0  0  0  0  0  0  0  0  0  0  0  0
    0.0000    0.0000    0.0000 C   0  0  0  0  0  0  0  0  0  0  0  0
    1.1183   -0.5196   -0.0000 O   0  0  0  0  0  0  0  0  0  0  0  0
   -0.1776    1.5128    0.0728 C   0  0  0  0  0  0  0  0  0  0  0  0
   -1.1235    1.7095    0.2956 H   0  0  0  0  0  0  0  0  0  0  0  0
    0.4366    1.8803    0.8948 H   0  0  0  0  0  0  0  0  0  0  0  0
    0.1076    1.9528   -0.8828 H   0  0  0  0  0  0  0  0  0  0  0  0
  1  5  1  0
  5  6  1  0
  5  9  2  0
  1  2  1  0
  1  3  1  0
  1  4  1  0
  6  7  1  0
  6  8  1  0
 10 14  1  0
 14 16  1  0
 16 17  2  0
 16 18  1  0
 10 11  1  0
 10 12  1  0
 10 13  1  0
 14 15  1  0
 18 19  1  0
 18 20  1  0
 18 21  1  0
M  END
>  <PDB_ID>  (767) 
pdb5fkq

>  <RESIDUE_NAME>  (767) 
ASN   VAL

>  <FRAG_NAME>  (767) 
ACEM   NMA

>  <FRAG_ATOM_NUM>  (767) 
fragi: 9  fragj: 12

>  <atom.prop.CHAIN_ID>  (767) 
A A A A A A A A A Z Z Z Z Z Z Z Z Z Z Z Z

>  <atom.prop.IS_HEAVY_ATOM>  (767) 
1 0 0 0 1 1 0 0 1 1 0 0 0 1 0 1 1 1 0 0 0

>  <DIFUSE_FUNC_ATOM>  (767) 
n/a

>  <FINAL_SINGLE_POINT_ENERGY>  (767) 
0

>  <NONCOV_INTER_ENERGY_QM>  (767) 
0

>  <FF_Energy>  (767) 
6.53

>  <QM_Energy>  (767) 
24.7

>  <source>  (767) 
ACEM_nNMA_56

>  <Index>  (767) 
17083

$$$$
ACEM-pdb5fid-B-ASN-145:NMA-pdb5fid-B-GLN-19
     RDKit          3D

 21 19  0  0  0  0  0  0  0  0999 V2000
   -5.3172   -0.2799   -0.3577 C   0  0  0  0  0  0  0  0  0  0  0  0
   -6.2962   -0.0932   -0.3159 H   0  0  0  0  0  0  0  0  0  0  0  0
   -5.1526   -1.2566   -0.2339 H   0  0  0  0  0  0  0  0  0  0  0  0
   -4.9559    0.0055   -1.3457 H   0  0  0  0  0  0  0  0  0  0  0  0
   -4.6297    0.4740    0.7394 C   0  0  0  0  0  0  0  0  0  0  0  0
   -3.3050    0.4402    0.7380 N   0  0  0  0  0  0  0  0  0  0  0  0
   -2.8150   -0.0640    0.0253 H   0  0  0  0  0  0  0  0  0  0  0  0
   -2.7890    0.9207    1.4490 H   0  0  0  0  0  0  0  0  0  0  0  0
   -5.2825    1.0599    1.6059 O   0  0  0  0  0  0  0  0  0  0  0  0
   -1.1158   -2.1662    0.1911 C   0  0  0  0  0  0  0  0  0  0  0  0
   -0.1522   -2.4612    0.2703 H   0  0  0  0  0  0  0  0  0  0  0  0
   -1.5582   -2.6929   -0.6545 H   0  0  0  0  0  0  0  0  0  0  0  0
   -1.6972   -2.4274    1.0754 H   0  0  0  0  0  0  0  0  0  0  0  0
   -1.1241   -0.7153    0.0000 N   0  0  0  0  0  0  0  0  0  0  0  0
   -1.9912   -0.1635   -0.1450 H   0  0  0  0  0  0  0  0  0  0  0  0
    0.0000    0.0000    0.0000 C   0  0  0  0  0  0  0  0  0  0  0  0
    1.1241   -0.5180   -0.0000 O   0  0  0  0  0  0  0  0  0  0  0  0
   -0.1614    1.5244   -0.0059 C   0  0  0  0  0  0  0  0  0  0  0  0
   -1.0570    1.7365    0.3927 H   0  0  0  0  0  0  0  0  0  0  0  0
    0.6047    1.9886    0.6152 H   0  0  0  0  0  0  0  0  0  0  0  0
   -0.0868    1.9014   -1.0260 H   0  0  0  0  0  0  0  0  0  0  0  0
  1  5  1  0
  5  6  1  0
  5  9  2  0
  1  2  1  0
  1  3  1  0
  1  4  1  0
  6  7  1  0
  6  8  1  0
 10 14  1  0
 14 16  1  0
 16 17  2  0
 16 18  1  0
 10 11  1  0
 10 12  1  0
 10 13  1  0
 14 15  1  0
 18 19  1  0
 18 20  1  0
 18 21  1  0
M  END
>  <PDB_ID>  (768) 
pdb5fid

>  <RESIDUE_NAME>  (768) 
ASN   GLN

>  <FRAG_NAME>  (768) 
ACEM   NMA

>  <FRAG_ATOM_NUM>  (768) 
fragi: 9  fragj: 12

>  <atom.prop.CHAIN_ID>  (768) 
A A A A A A A A A Z Z Z Z Z Z Z Z Z Z Z Z

>  <atom.prop.IS_HEAVY_ATOM>  (768) 
1 0 0 0 1 1 0 0 1 1 0 0 0 1 0 1 1 1 0 0 0

>  <DIFUSE_FUNC_ATOM>  (768) 
n/a

>  <FINAL_SINGLE_POINT_ENERGY>  (768) 
0

>  <NONCOV_INTER_ENERGY_QM>  (768) 
0

>  <FF_Energy>  (768) 
24.3

>  <QM_Energy>  (768) 
49.97

>  <source>  (768) 
ACEM_nNMA_56

>  <Index>  (768) 
18870

$$$$
ACEM-pdb6fx6-A-GLN-101:NMA-pdb6fx6-A-PHE-46
     RDKit          3D

 21 19  0  0  0  0  0  0  0  0999 V2000
   -5.3226    1.1188   -2.1310 C   0  0  0  0  0  0  0  0  0  0  0  0
   -5.8592    1.0067   -1.2932 H   0  0  0  0  0  0  0  0  0  0  0  0
   -5.7465    0.5893   -2.8676 H   0  0  0  0  0  0  0  0  0  0  0  0
   -5.3415    2.1719   -2.4113 H   0  0  0  0  0  0  0  0  0  0  0  0
   -3.9275    0.5935   -1.8913 C   0  0  0  0  0  0  0  0  0  0  0  0
   -3.4781    0.6400   -0.6386 N   0  0  0  0  0  0  0  0  0  0  0  0
   -2.5547    0.2909   -0.3996 H   0  0  0  0  0  0  0  0  0  0  0  0
   -4.0812    1.0346    0.0833 H   0  0  0  0  0  0  0  0  0  0  0  0
   -3.2585    0.1438   -2.8263 O   0  0  0  0  0  0  0  0  0  0  0  0
   -1.1167   -2.1585   -0.2096 C   0  0  0  0  0  0  0  0  0  0  0  0
   -0.4200   -2.5590    0.3791 H   0  0  0  0  0  0  0  0  0  0  0  0
   -0.8413   -2.3497   -1.2467 H   0  0  0  0  0  0  0  0  0  0  0  0
   -2.1013   -2.5850   -0.0175 H   0  0  0  0  0  0  0  0  0  0  0  0
   -1.1234   -0.7163    0.0000 N   0  0  0  0  0  0  0  0  0  0  0  0
   -1.9894   -0.1637    0.1602 H   0  0  0  0  0  0  0  0  0  0  0  0
    0.0000    0.0000    0.0000 C   0  0  0  0  0  0  0  0  0  0  0  0
    1.1234   -0.4993   -0.0000 O   0  0  0  0  0  0  0  0  0  0  0  0
   -0.1635    1.5060    0.0068 C   0  0  0  0  0  0  0  0  0  0  0  0
   -1.0136    1.7070    0.4995 H   0  0  0  0  0  0  0  0  0  0  0  0
    0.6470    1.9626    0.5749 H   0  0  0  0  0  0  0  0  0  0  0  0
   -0.1585    1.8763   -1.0184 H   0  0  0  0  0  0  0  0  0  0  0  0
  1  5  1  0
  5  6  1  0
  5  9  2  0
  1  2  1  0
  1  3  1  0
  1  4  1  0
  6  7  1  0
  6  8  1  0
 10 14  1  0
 14 16  1  0
 16 17  2  0
 16 18  1  0
 10 11  1  0
 10 12  1  0
 10 13  1  0
 14 15  1  0
 18 19  1  0
 18 20  1  0
 18 21  1  0
M  END
>  <PDB_ID>  (769) 
pdb6fx6

>  <RESIDUE_NAME>  (769) 
GLN   PHE

>  <FRAG_NAME>  (769) 
ACEM   NMA

>  <FRAG_ATOM_NUM>  (769) 
fragi: 9  fragj: 12

>  <atom.prop.CHAIN_ID>  (769) 
A A A A A A A A A Z Z Z Z Z Z Z Z Z Z Z Z

>  <atom.prop.IS_HEAVY_ATOM>  (769) 
1 0 0 0 1 1 0 0 1 1 0 0 0 1 0 1 1 1 0 0 0

>  <DIFUSE_FUNC_ATOM>  (769) 
n/a

>  <FINAL_SINGLE_POINT_ENERGY>  (769) 
0

>  <NONCOV_INTER_ENERGY_QM>  (769) 
0

>  <FF_Energy>  (769) 
14.16

>  <QM_Energy>  (769) 
34.09

>  <source>  (769) 
ACEM_nNMA_56

>  <Index>  (769) 
19696

$$$$
ACEM-pdb5fkq-B-ASN-95:NMA-pdb5fkq-B-VAL-91
     RDKit          3D

 21 19  0  0  0  0  0  0  0  0999 V2000
   -5.4727    0.6338   -2.3589 C   0  0  0  0  0  0  0  0  0  0  0  0
   -5.5203    1.5400   -2.7558 H   0  0  0  0  0  0  0  0  0  0  0  0
   -6.3554    0.3541   -2.0046 H   0  0  0  0  0  0  0  0  0  0  0  0
   -5.1753   -0.0684   -3.1377 H   0  0  0  0  0  0  0  0  0  0  0  0
   -4.4719    0.6695   -1.1901 C   0  0  0  0  0  0  0  0  0  0  0  0
   -3.6037   -0.3115   -1.1247 N   0  0  0  0  0  0  0  0  0  0  0  0
   -3.6100   -1.0376   -1.8217 H   0  0  0  0  0  0  0  0  0  0  0  0
   -2.9293   -0.3493   -0.3845 H   0  0  0  0  0  0  0  0  0  0  0  0
   -4.4897    1.5799   -0.3717 O   0  0  0  0  0  0  0  0  0  0  0  0
   -1.1759   -2.1414    0.1665 C   0  0  0  0  0  0  0  0  0  0  0  0
   -0.2415   -2.4836    0.4429 H   0  0  0  0  0  0  0  0  0  0  0  0
   -1.7812   -2.3702    0.9716 H   0  0  0  0  0  0  0  0  0  0  0  0
   -1.5130   -2.7268   -0.6890 H   0  0  0  0  0  0  0  0  0  0  0  0
   -1.1274   -0.7066    0.0000 N   0  0  0  0  0  0  0  0  0  0  0  0
   -1.9923   -0.1165   -0.1345 H   0  0  0  0  0  0  0  0  0  0  0  0
    0.0000    0.0000    0.0000 C   0  0  0  0  0  0  0  0  0  0  0  0
    1.1274   -0.5107   -0.0000 O   0  0  0  0  0  0  0  0  0  0  0  0
   -0.1896    1.5166    0.0450 C   0  0  0  0  0  0  0  0  0  0  0  0
   -1.1469    1.7027    0.2447 H   0  0  0  0  0  0  0  0  0  0  0  0
    0.4112    1.9158    0.8623 H   0  0  0  0  0  0  0  0  0  0  0  0
    0.0370    1.9497   -0.9293 H   0  0  0  0  0  0  0  0  0  0  0  0
  1  5  1  0
  5  6  1  0
  5  9  2  0
  1  2  1  0
  1  3  1  0
  1  4  1  0
  6  7  1  0
  6  8  1  0
 10 14  1  0
 14 16  1  0
 16 17  2  0
 16 18  1  0
 10 11  1  0
 10 12  1  0
 10 13  1  0
 14 15  1  0
 18 19  1  0
 18 20  1  0
 18 21  1  0
M  END
>  <PDB_ID>  (770) 
pdb5fkq

>  <RESIDUE_NAME>  (770) 
ASN   VAL

>  <FRAG_NAME>  (770) 
ACEM   NMA

>  <FRAG_ATOM_NUM>  (770) 
fragi: 9  fragj: 12

>  <atom.prop.CHAIN_ID>  (770) 
A A A A A A A A A Z Z Z Z Z Z Z Z Z Z Z Z

>  <atom.prop.IS_HEAVY_ATOM>  (770) 
1 0 0 0 1 1 0 0 1 1 0 0 0 1 0 1 1 1 0 0 0

>  <DIFUSE_FUNC_ATOM>  (770) 
n/a

>  <FINAL_SINGLE_POINT_ENERGY>  (770) 
0

>  <NONCOV_INTER_ENERGY_QM>  (770) 
0

>  <FF_Energy>  (770) 
7.42

>  <QM_Energy>  (770) 
26.65

>  <source>  (770) 
ACEM_nNMA_56

>  <Index>  (770) 
23421

$$$$
ACEM-pdb5g2f-B-GLN-44:NMA-pdb5g2f-A-PHE-76
     RDKit          3D

 21 19  0  0  0  0  0  0  0  0999 V2000
   -5.4832    0.7093   -1.5813 C   0  0  0  0  0  0  0  0  0  0  0  0
   -6.4118    0.8475   -1.2355 H   0  0  0  0  0  0  0  0  0  0  0  0
   -5.5221    0.2423   -2.4644 H   0  0  0  0  0  0  0  0  0  0  0  0
   -5.0007    1.6782   -1.7090 H   0  0  0  0  0  0  0  0  0  0  0  0
   -4.7397   -0.1882   -0.6004 C   0  0  0  0  0  0  0  0  0  0  0  0
   -3.4410    0.0524   -0.4325 N   0  0  0  0  0  0  0  0  0  0  0  0
   -2.8894   -0.4962    0.2132 H   0  0  0  0  0  0  0  0  0  0  0  0
   -3.0103    0.8036   -0.9711 H   0  0  0  0  0  0  0  0  0  0  0  0
   -5.3220   -1.0581    0.0157 O   0  0  0  0  0  0  0  0  0  0  0  0
   -1.0927   -2.1462   -0.0552 C   0  0  0  0  0  0  0  0  0  0  0  0
   -1.9680   -2.4949   -0.3920 H   0  0  0  0  0  0  0  0  0  0  0  0
   -0.3602   -2.4463   -0.6672 H   0  0  0  0  0  0  0  0  0  0  0  0
   -0.9093   -2.5244    0.9504 H   0  0  0  0  0  0  0  0  0  0  0  0
   -1.1272   -0.7075    0.0000 N   0  0  0  0  0  0  0  0  0  0  0  0
   -1.9941   -0.1443    0.0420 H   0  0  0  0  0  0  0  0  0  0  0  0
    0.0000    0.0000    0.0000 C   0  0  0  0  0  0  0  0  0  0  0  0
    1.1272   -0.5362   -0.0000 O   0  0  0  0  0  0  0  0  0  0  0  0
   -0.1718    1.4982   -0.0204 C   0  0  0  0  0  0  0  0  0  0  0  0
   -0.4271    1.7535   -0.9768 H   0  0  0  0  0  0  0  0  0  0  0  0
   -0.9653    1.8700    0.6278 H   0  0  0  0  0  0  0  0  0  0  0  0
    0.7744    1.9818    0.2227 H   0  0  0  0  0  0  0  0  0  0  0  0
  1  5  1  0
  5  6  1  0
  5  9  2  0
  1  2  1  0
  1  3  1  0
  1  4  1  0
  6  7  1  0
  6  8  1  0
 10 14  1  0
 14 16  1  0
 16 17  2  0
 16 18  1  0
 10 11  1  0
 10 12  1  0
 10 13  1  0
 14 15  1  0
 18 19  1  0
 18 20  1  0
 18 21  1  0
M  END
>  <PDB_ID>  (771) 
pdb5g2f

>  <RESIDUE_NAME>  (771) 
GLN   PHE

>  <FRAG_NAME>  (771) 
ACEM   NMA

>  <FRAG_ATOM_NUM>  (771) 
fragi: 9  fragj: 12

>  <atom.prop.CHAIN_ID>  (771) 
A A A A A A A A A Z Z Z Z Z Z Z Z Z Z Z Z

>  <atom.prop.IS_HEAVY_ATOM>  (771) 
1 0 0 0 1 1 0 0 1 1 0 0 0 1 0 1 1 1 0 0 0

>  <DIFUSE_FUNC_ATOM>  (771) 
n/a

>  <FINAL_SINGLE_POINT_ENERGY>  (771) 
0

>  <NONCOV_INTER_ENERGY_QM>  (771) 
0

>  <FF_Energy>  (771) 
29.41

>  <QM_Energy>  (771) 
43.94

>  <source>  (771) 
ACEM_nNMA_56

>  <Index>  (771) 
26979

$$$$
ACEM-pdb5fzp-A-ASN-216:NMA-pdb5fzp-A-MET-187
     RDKit          3D

 21 19  0  0  0  0  0  0  0  0999 V2000
   -5.1780    1.5894   -0.2223 C   0  0  0  0  0  0  0  0  0  0  0  0
   -6.1528    1.5129   -0.4226 H   0  0  0  0  0  0  0  0  0  0  0  0
   -4.9175    2.5508   -0.1672 H   0  0  0  0  0  0  0  0  0  0  0  0
   -4.9950    1.1326    0.7503 H   0  0  0  0  0  0  0  0  0  0  0  0
   -4.3984    0.9341   -1.3309 C   0  0  0  0  0  0  0  0  0  0  0  0
   -3.2402    0.3743   -0.9901 N   0  0  0  0  0  0  0  0  0  0  0  0
   -2.9354    0.4003   -0.0380 H   0  0  0  0  0  0  0  0  0  0  0  0
   -2.6759   -0.0714   -1.6841 H   0  0  0  0  0  0  0  0  0  0  0  0
   -4.8415    0.9128   -2.4810 O   0  0  0  0  0  0  0  0  0  0  0  0
   -1.2636   -2.1768    0.0800 C   0  0  0  0  0  0  0  0  0  0  0  0
   -2.2291   -2.4164   -0.1105 H   0  0  0  0  0  0  0  0  0  0  0  0
   -1.0022   -2.5711    1.0621 H   0  0  0  0  0  0  0  0  0  0  0  0
   -0.6839   -2.6973   -0.6824 H   0  0  0  0  0  0  0  0  0  0  0  0
   -1.1278   -0.7189    0.0000 N   0  0  0  0  0  0  0  0  0  0  0  0
   -2.0023   -0.0899   -0.0689 H   0  0  0  0  0  0  0  0  0  0  0  0
    0.0000    0.0000    0.0000 C   0  0  0  0  0  0  0  0  0  0  0  0
    1.1278   -0.5037    0.0000 O   0  0  0  0  0  0  0  0  0  0  0  0
   -0.1726    1.5171    0.0184 C   0  0  0  0  0  0  0  0  0  0  0  0
   -1.1402    1.7195   -0.1087 H   0  0  0  0  0  0  0  0  0  0  0  0
    0.1296    1.8877    0.9978 H   0  0  0  0  0  0  0  0  0  0  0  0
    0.4254    2.0013   -0.7536 H   0  0  0  0  0  0  0  0  0  0  0  0
  1  5  1  0
  5  6  1  0
  5  9  2  0
  1  2  1  0
  1  3  1  0
  1  4  1  0
  6  7  1  0
  6  8  1  0
 10 14  1  0
 14 16  1  0
 16 17  2  0
 16 18  1  0
 10 11  1  0
 10 12  1  0
 10 13  1  0
 14 15  1  0
 18 19  1  0
 18 20  1  0
 18 21  1  0
M  END
>  <PDB_ID>  (772) 
pdb5fzp

>  <RESIDUE_NAME>  (772) 
ASN   MET

>  <FRAG_NAME>  (772) 
ACEM   NMA

>  <FRAG_ATOM_NUM>  (772) 
fragi: 9  fragj: 12

>  <atom.prop.CHAIN_ID>  (772) 
A A A A A A A A A Z Z Z Z Z Z Z Z Z Z Z Z

>  <atom.prop.IS_HEAVY_ATOM>  (772) 
1 0 0 0 1 1 0 0 1 1 0 0 0 1 0 1 1 1 0 0 0

>  <DIFUSE_FUNC_ATOM>  (772) 
n/a

>  <FINAL_SINGLE_POINT_ENERGY>  (772) 
0

>  <NONCOV_INTER_ENERGY_QM>  (772) 
0

>  <FF_Energy>  (772) 
19.86

>  <QM_Energy>  (772) 
30.62

>  <source>  (772) 
ACEM_nNMA_56

>  <Index>  (772) 
27099

$$$$
ACEM-pdb6g3d-A-GLN-412:NMA-pdb6g3d-A-GLY-422
     RDKit          3D

 21 19  0  0  0  0  0  0  0  0999 V2000
   -5.0175    0.3299    2.3407 C   0  0  0  0  0  0  0  0  0  0  0  0
   -5.0184   -0.6034    2.6868 H   0  0  0  0  0  0  0  0  0  0  0  0
   -5.9235    0.5739    2.0078 H   0  0  0  0  0  0  0  0  0  0  0  0
   -4.7432    1.0074    3.1492 H   0  0  0  0  0  0  0  0  0  0  0  0
   -4.0377    0.4200    1.1935 C   0  0  0  0  0  0  0  0  0  0  0  0
   -2.7357    0.3951    1.5041 N   0  0  0  0  0  0  0  0  0  0  0  0
   -2.0274    0.4376    0.7860 H   0  0  0  0  0  0  0  0  0  0  0  0
   -2.4742    0.3328    2.4882 H   0  0  0  0  0  0  0  0  0  0  0  0
   -4.4440    0.5313    0.0406 O   0  0  0  0  0  0  0  0  0  0  0  0
   -1.1129   -2.1728    0.0428 C   0  0  0  0  0  0  0  0  0  0  0  0
   -0.2332   -2.4596   -0.3173 H   0  0  0  0  0  0  0  0  0  0  0  0
   -1.8674   -2.5264   -0.6599 H   0  0  0  0  0  0  0  0  0  0  0  0
   -1.2741   -2.5221    1.0627 H   0  0  0  0  0  0  0  0  0  0  0  0
   -1.1210   -0.7146    0.0000 N   0  0  0  0  0  0  0  0  0  0  0  0
   -1.9957   -0.1495   -0.0325 H   0  0  0  0  0  0  0  0  0  0  0  0
    0.0000    0.0000    0.0000 C   0  0  0  0  0  0  0  0  0  0  0  0
    1.1210   -0.5206    0.0000 O   0  0  0  0  0  0  0  0  0  0  0  0
   -0.1464    1.5071   -0.0107 C   0  0  0  0  0  0  0  0  0  0  0  0
   -0.4804    1.8164    0.8918 H   0  0  0  0  0  0  0  0  0  0  0  0
   -0.8362    1.7703   -0.7004 H   0  0  0  0  0  0  0  0  0  0  0  0
    0.8016    1.9954   -0.2363 H   0  0  0  0  0  0  0  0  0  0  0  0
  1  5  1  0
  5  6  1  0
  5  9  2  0
  1  2  1  0
  1  3  1  0
  1  4  1  0
  6  7  1  0
  6  8  1  0
 10 14  1  0
 14 16  1  0
 16 17  2  0
 16 18  1  0
 10 11  1  0
 10 12  1  0
 10 13  1  0
 14 15  1  0
 18 19  1  0
 18 20  1  0
 18 21  1  0
M  END
>  <PDB_ID>  (773) 
pdb6g3d

>  <RESIDUE_NAME>  (773) 
GLN   GLY

>  <FRAG_NAME>  (773) 
ACEM   NMA

>  <FRAG_ATOM_NUM>  (773) 
fragi: 9  fragj: 12

>  <atom.prop.CHAIN_ID>  (773) 
A A A A A A A A A Z Z Z Z Z Z Z Z Z Z Z Z

>  <atom.prop.IS_HEAVY_ATOM>  (773) 
1 0 0 0 1 1 0 0 1 1 0 0 0 1 0 1 1 1 0 0 0

>  <DIFUSE_FUNC_ATOM>  (773) 
n/a

>  <FINAL_SINGLE_POINT_ENERGY>  (773) 
0

>  <NONCOV_INTER_ENERGY_QM>  (773) 
0

>  <FF_Energy>  (773) 
27.03

>  <QM_Energy>  (773) 
38.62

>  <source>  (773) 
ACEM_nNMA_56

>  <Index>  (773) 
27956

$$$$
ACEM-pdb6g4b-B-GLN-274:NMA-pdb6g4b-B-MET-270
     RDKit          3D

 21 19  0  0  0  0  0  0  0  0999 V2000
   -5.4122   -0.5912    1.1609 C   0  0  0  0  0  0  0  0  0  0  0  0
   -6.2894   -0.4414    1.6286 H   0  0  0  0  0  0  0  0  0  0  0  0
   -5.0112   -1.4499    1.4978 H   0  0  0  0  0  0  0  0  0  0  0  0
   -5.6017   -0.6925    0.0924 H   0  0  0  0  0  0  0  0  0  0  0  0
   -4.4861    0.5401    1.4970 C   0  0  0  0  0  0  0  0  0  0  0  0
   -3.3622    0.5924    0.8176 N   0  0  0  0  0  0  0  0  0  0  0  0
   -2.6775    1.3437    0.9756 H   0  0  0  0  0  0  0  0  0  0  0  0
   -3.1644   -0.1262    0.1195 H   0  0  0  0  0  0  0  0  0  0  0  0
   -4.7760    1.3671    2.3527 O   0  0  0  0  0  0  0  0  0  0  0  0
   -1.1028   -2.1731    0.0369 C   0  0  0  0  0  0  0  0  0  0  0  0
   -0.1355   -2.4605   -0.0910 H   0  0  0  0  0  0  0  0  0  0  0  0
   -1.6814   -2.6271   -0.7676 H   0  0  0  0  0  0  0  0  0  0  0  0
   -1.4699   -2.5167    1.0040 H   0  0  0  0  0  0  0  0  0  0  0  0
   -1.1128   -0.7179   -0.0000 N   0  0  0  0  0  0  0  0  0  0  0  0
   -1.9921   -0.1549   -0.0285 H   0  0  0  0  0  0  0  0  0  0  0  0
    0.0000    0.0000    0.0000 C   0  0  0  0  0  0  0  0  0  0  0  0
    1.1128   -0.4948    0.0000 O   0  0  0  0  0  0  0  0  0  0  0  0
   -0.1651    1.5288   -0.0314 C   0  0  0  0  0  0  0  0  0  0  0  0
    0.6973    1.9193   -0.3654 H   0  0  0  0  0  0  0  0  0  0  0  0
   -0.9643    1.8134   -0.7158 H   0  0  0  0  0  0  0  0  0  0  0  0
   -0.3336    1.9298    0.9680 H   0  0  0  0  0  0  0  0  0  0  0  0
  1  5  1  0
  5  6  1  0
  5  9  2  0
  1  2  1  0
  1  3  1  0
  1  4  1  0
  6  7  1  0
  6  8  1  0
 10 14  1  0
 14 16  1  0
 16 17  2  0
 16 18  1  0
 10 11  1  0
 10 12  1  0
 10 13  1  0
 14 15  1  0
 18 19  1  0
 18 20  1  0
 18 21  1  0
M  END
>  <PDB_ID>  (774) 
pdb6g4b

>  <RESIDUE_NAME>  (774) 
GLN   MET

>  <FRAG_NAME>  (774) 
ACEM   NMA

>  <FRAG_ATOM_NUM>  (774) 
fragi: 9  fragj: 12

>  <atom.prop.CHAIN_ID>  (774) 
A A A A A A A A A Z Z Z Z Z Z Z Z Z Z Z Z

>  <atom.prop.IS_HEAVY_ATOM>  (774) 
1 0 0 0 1 1 0 0 1 1 0 0 0 1 0 1 1 1 0 0 0

>  <DIFUSE_FUNC_ATOM>  (774) 
n/a

>  <FINAL_SINGLE_POINT_ENERGY>  (774) 
0

>  <NONCOV_INTER_ENERGY_QM>  (774) 
0

>  <FF_Energy>  (774) 
10.1

>  <QM_Energy>  (774) 
20.13

>  <source>  (774) 
ACEM_nNMA_57

>  <Index>  (774) 
3113

$$$$
ACEM-pdb5ggf-B-GLN-408:NMA-pdb5ggf-B-GLN-529
     RDKit          3D

 21 19  0  0  0  0  0  0  0  0999 V2000
   -5.7362    1.4601   -0.4603 C   0  0  0  0  0  0  0  0  0  0  0  0
   -5.8368    2.0066   -1.2868 H   0  0  0  0  0  0  0  0  0  0  0  0
   -6.0303    1.9825    0.3349 H   0  0  0  0  0  0  0  0  0  0  0  0
   -6.3675    0.5760   -0.5489 H   0  0  0  0  0  0  0  0  0  0  0  0
   -4.2884    1.0869   -0.2938 C   0  0  0  0  0  0  0  0  0  0  0  0
   -4.0056   -0.1933   -0.4077 N   0  0  0  0  0  0  0  0  0  0  0  0
   -3.0385   -0.5319   -0.3216 H   0  0  0  0  0  0  0  0  0  0  0  0
   -4.7574   -0.8594   -0.5832 H   0  0  0  0  0  0  0  0  0  0  0  0
   -3.4306    1.9345   -0.0820 O   0  0  0  0  0  0  0  0  0  0  0  0
   -1.0812   -2.1654    0.0600 C   0  0  0  0  0  0  0  0  0  0  0  0
   -0.3073   -2.4430    0.6395 H   0  0  0  0  0  0  0  0  0  0  0  0
   -0.9364   -2.5877   -0.9343 H   0  0  0  0  0  0  0  0  0  0  0  0
   -2.0024   -2.5585    0.4902 H   0  0  0  0  0  0  0  0  0  0  0  0
   -1.1204   -0.7115   -0.0000 N   0  0  0  0  0  0  0  0  0  0  0  0
   -1.9932   -0.1595   -0.0451 H   0  0  0  0  0  0  0  0  0  0  0  0
    0.0000    0.0000    0.0000 C   0  0  0  0  0  0  0  0  0  0  0  0
    1.1204   -0.5146   -0.0000 O   0  0  0  0  0  0  0  0  0  0  0  0
   -0.1515    1.5166    0.0151 C   0  0  0  0  0  0  0  0  0  0  0  0
   -1.1294    1.7255    0.0426 H   0  0  0  0  0  0  0  0  0  0  0  0
    0.3080    1.9101    0.9218 H   0  0  0  0  0  0  0  0  0  0  0  0
    0.3111    1.9722   -0.8604 H   0  0  0  0  0  0  0  0  0  0  0  0
  1  5  1  0
  5  6  1  0
  5  9  2  0
  1  2  1  0
  1  3  1  0
  1  4  1  0
  6  7  1  0
  6  8  1  0
 10 14  1  0
 14 16  1  0
 16 17  2  0
 16 18  1  0
 10 11  1  0
 10 12  1  0
 10 13  1  0
 14 15  1  0
 18 19  1  0
 18 20  1  0
 18 21  1  0
M  END
>  <PDB_ID>  (775) 
pdb5ggf

>  <RESIDUE_NAME>  (775) 
GLN   GLN

>  <FRAG_NAME>  (775) 
ACEM   NMA

>  <FRAG_ATOM_NUM>  (775) 
fragi: 9  fragj: 12

>  <atom.prop.CHAIN_ID>  (775) 
A A A A A A A A A Z Z Z Z Z Z Z Z Z Z Z Z

>  <atom.prop.IS_HEAVY_ATOM>  (775) 
1 0 0 0 1 1 0 0 1 1 0 0 0 1 0 1 1 1 0 0 0

>  <DIFUSE_FUNC_ATOM>  (775) 
n/a

>  <FINAL_SINGLE_POINT_ENERGY>  (775) 
0

>  <NONCOV_INTER_ENERGY_QM>  (775) 
0

>  <FF_Energy>  (775) 
-0.35

>  <QM_Energy>  (775) 
13.25

>  <source>  (775) 
ACEM_nNMA_57

>  <Index>  (775) 
9349

$$$$
ACEM-pdb5giv-B-ASN-126:NMA-pdb5giv-B-SER-399
     RDKit          3D

 21 19  0  0  0  0  0  0  0  0999 V2000
   -5.3629    0.3900   -2.7033 C   0  0  0  0  0  0  0  0  0  0  0  0
   -4.8033    0.6778   -3.4731 H   0  0  0  0  0  0  0  0  0  0  0  0
   -6.1527    0.9855   -2.6053 H   0  0  0  0  0  0  0  0  0  0  0  0
   -5.7129   -0.6256   -2.8877 H   0  0  0  0  0  0  0  0  0  0  0  0
   -4.5254    0.4894   -1.4358 C   0  0  0  0  0  0  0  0  0  0  0  0
   -3.5970   -0.4432   -1.2571 N   0  0  0  0  0  0  0  0  0  0  0  0
   -3.4763   -1.1598   -1.9492 H   0  0  0  0  0  0  0  0  0  0  0  0
   -3.0210   -0.4326   -0.4440 H   0  0  0  0  0  0  0  0  0  0  0  0
   -4.6863    1.4235   -0.6478 O   0  0  0  0  0  0  0  0  0  0  0  0
   -1.0969   -2.1793   -0.0452 C   0  0  0  0  0  0  0  0  0  0  0  0
   -0.2636   -2.4754    0.4512 H   0  0  0  0  0  0  0  0  0  0  0  0
   -1.0215   -2.5693   -1.0602 H   0  0  0  0  0  0  0  0  0  0  0  0
   -1.9848   -2.5941    0.4320 H   0  0  0  0  0  0  0  0  0  0  0  0
   -1.1242   -0.7208    0.0000 N   0  0  0  0  0  0  0  0  0  0  0  0
   -1.9976   -0.1635    0.0343 H   0  0  0  0  0  0  0  0  0  0  0  0
    0.0000    0.0000    0.0000 C   0  0  0  0  0  0  0  0  0  0  0  0
    1.1242   -0.5133    0.0000 O   0  0  0  0  0  0  0  0  0  0  0  0
   -0.1632    1.5141   -0.0345 C   0  0  0  0  0  0  0  0  0  0  0  0
   -0.3952    1.8198    0.8835 H   0  0  0  0  0  0  0  0  0  0  0  0
    0.7977    1.9503   -0.3074 H   0  0  0  0  0  0  0  0  0  0  0  0
   -0.9324    1.8331   -0.7378 H   0  0  0  0  0  0  0  0  0  0  0  0
  1  5  1  0
  5  6  1  0
  5  9  2  0
  1  2  1  0
  1  3  1  0
  1  4  1  0
  6  7  1  0
  6  8  1  0
 10 14  1  0
 14 16  1  0
 16 17  2  0
 16 18  1  0
 10 11  1  0
 10 12  1  0
 10 13  1  0
 14 15  1  0
 18 19  1  0
 18 20  1  0
 18 21  1  0
M  END
>  <PDB_ID>  (776) 
pdb5giv

>  <RESIDUE_NAME>  (776) 
ASN   SER

>  <FRAG_NAME>  (776) 
ACEM   NMA

>  <FRAG_ATOM_NUM>  (776) 
fragi: 9  fragj: 12

>  <atom.prop.CHAIN_ID>  (776) 
A A A A A A A A A Z Z Z Z Z Z Z Z Z Z Z Z

>  <atom.prop.IS_HEAVY_ATOM>  (776) 
1 0 0 0 1 1 0 0 1 1 0 0 0 1 0 1 1 1 0 0 0

>  <DIFUSE_FUNC_ATOM>  (776) 
n/a

>  <FINAL_SINGLE_POINT_ENERGY>  (776) 
0

>  <NONCOV_INTER_ENERGY_QM>  (776) 
0

>  <FF_Energy>  (776) 
4.67

>  <QM_Energy>  (776) 
16.47

>  <source>  (776) 
ACEM_nNMA_57

>  <Index>  (776) 
11958

$$$$
ACEM-pdb5gkd-B-ASN-29:NMA-pdb5gkd-B-GLN-54
     RDKit          3D

 21 19  0  0  0  0  0  0  0  0999 V2000
   -4.9924    0.7513    3.0188 C   0  0  0  0  0  0  0  0  0  0  0  0
   -4.8604    1.0514    3.9568 H   0  0  0  0  0  0  0  0  0  0  0  0
   -5.7327    0.0901    2.9655 H   0  0  0  0  0  0  0  0  0  0  0  0
   -5.2589    1.6173    2.4130 H   0  0  0  0  0  0  0  0  0  0  0  0
   -3.7093    0.0810    2.5400 C   0  0  0  0  0  0  0  0  0  0  0  0
   -3.3673    0.2730    1.2794 N   0  0  0  0  0  0  0  0  0  0  0  0
   -3.9443    0.8471    0.6889 H   0  0  0  0  0  0  0  0  0  0  0  0
   -2.5396   -0.1448    0.9081 H   0  0  0  0  0  0  0  0  0  0  0  0
   -3.0336   -0.5948    3.3069 O   0  0  0  0  0  0  0  0  0  0  0  0
   -1.1262   -2.1650   -0.1634 C   0  0  0  0  0  0  0  0  0  0  0  0
   -0.1885   -2.4722   -0.3281 H   0  0  0  0  0  0  0  0  0  0  0  0
   -1.7340   -2.4255   -1.0299 H   0  0  0  0  0  0  0  0  0  0  0  0
   -1.5295   -2.6521    0.7244 H   0  0  0  0  0  0  0  0  0  0  0  0
   -1.1169   -0.7131   -0.0000 N   0  0  0  0  0  0  0  0  0  0  0  0
   -1.9903   -0.1514    0.1263 H   0  0  0  0  0  0  0  0  0  0  0  0
    0.0000    0.0000    0.0000 C   0  0  0  0  0  0  0  0  0  0  0  0
    1.1169   -0.5265    0.0000 O   0  0  0  0  0  0  0  0  0  0  0  0
   -0.1539    1.5166   -0.0129 C   0  0  0  0  0  0  0  0  0  0  0  0
    0.7667    1.9195   -0.0744 H   0  0  0  0  0  0  0  0  0  0  0  0
   -0.7225    1.8481   -0.8818 H   0  0  0  0  0  0  0  0  0  0  0  0
   -0.6350    1.8636    0.9016 H   0  0  0  0  0  0  0  0  0  0  0  0
  1  5  1  0
  5  6  1  0
  5  9  2  0
  1  2  1  0
  1  3  1  0
  1  4  1  0
  6  7  1  0
  6  8  1  0
 10 14  1  0
 14 16  1  0
 16 17  2  0
 16 18  1  0
 10 11  1  0
 10 12  1  0
 10 13  1  0
 14 15  1  0
 18 19  1  0
 18 20  1  0
 18 21  1  0
M  END
>  <PDB_ID>  (777) 
pdb5gkd

>  <RESIDUE_NAME>  (777) 
ASN   GLN

>  <FRAG_NAME>  (777) 
ACEM   NMA

>  <FRAG_ATOM_NUM>  (777) 
fragi: 9  fragj: 12

>  <atom.prop.CHAIN_ID>  (777) 
A A A A A A A A A Z Z Z Z Z Z Z Z Z Z Z Z

>  <atom.prop.IS_HEAVY_ATOM>  (777) 
1 0 0 0 1 1 0 0 1 1 0 0 0 1 0 1 1 1 0 0 0

>  <DIFUSE_FUNC_ATOM>  (777) 
n/a

>  <FINAL_SINGLE_POINT_ENERGY>  (777) 
0

>  <NONCOV_INTER_ENERGY_QM>  (777) 
0

>  <FF_Energy>  (777) 
12.24

>  <QM_Energy>  (777) 
31.14

>  <source>  (777) 
ACEM_nNMA_57

>  <Index>  (777) 
12695

$$$$
ACEM-pdb6gwu-D-GLN-67:NMA-pdb6gwu-C-ASP-78
     RDKit          3D

 21 19  0  0  0  0  0  0  0  0999 V2000
   -5.6896    0.7397   -2.0221 C   0  0  0  0  0  0  0  0  0  0  0  0
   -6.0417    1.5971   -2.3844 H   0  0  0  0  0  0  0  0  0  0  0  0
   -6.3794    0.2950   -1.4579 H   0  0  0  0  0  0  0  0  0  0  0  0
   -5.4590    0.0832   -2.8611 H   0  0  0  0  0  0  0  0  0  0  0  0
   -4.4669    1.0347   -1.1636 C   0  0  0  0  0  0  0  0  0  0  0  0
   -3.8823   -0.0285   -0.6471 N   0  0  0  0  0  0  0  0  0  0  0  0
   -3.0380    0.0774   -0.0636 H   0  0  0  0  0  0  0  0  0  0  0  0
   -4.2638   -0.9498   -0.8244 H   0  0  0  0  0  0  0  0  0  0  0  0
   -4.0293    2.2025   -0.9827 O   0  0  0  0  0  0  0  0  0  0  0  0
   -1.1260   -2.1927   -0.0323 C   0  0  0  0  0  0  0  0  0  0  0  0
   -0.5492   -2.5163    0.7413 H   0  0  0  0  0  0  0  0  0  0  0  0
   -0.7236   -2.6551   -0.9337 H   0  0  0  0  0  0  0  0  0  0  0  0
   -2.1201   -2.6122    0.1223 H   0  0  0  0  0  0  0  0  0  0  0  0
   -1.1356   -0.6950    0.0000 N   0  0  0  0  0  0  0  0  0  0  0  0
   -2.0022   -0.1435    0.0232 H   0  0  0  0  0  0  0  0  0  0  0  0
    0.0000    0.0000    0.0000 C   0  0  0  0  0  0  0  0  0  0  0  0
    1.1356   -0.5143   -0.0000 O   0  0  0  0  0  0  0  0  0  0  0  0
   -0.1885    1.5525    0.1111 C   0  0  0  0  0  0  0  0  0  0  0  0
   -1.1338    1.6814    0.4251 H   0  0  0  0  0  0  0  0  0  0  0  0
    0.4945    1.9580    0.8576 H   0  0  0  0  0  0  0  0  0  0  0  0
   -0.0164    2.0534   -0.8415 H   0  0  0  0  0  0  0  0  0  0  0  0
  1  5  1  0
  5  6  1  0
  5  9  2  0
  1  2  1  0
  1  3  1  0
  1  4  1  0
  6  7  1  0
  6  8  1  0
 10 14  1  0
 14 16  1  0
 16 17  2  0
 16 18  1  0
 10 11  1  0
 10 12  1  0
 10 13  1  0
 14 15  1  0
 18 19  1  0
 18 20  1  0
 18 21  1  0
M  END
>  <PDB_ID>  (778) 
pdb6gwu

>  <RESIDUE_NAME>  (778) 
GLN   ASP

>  <FRAG_NAME>  (778) 
ACEM   NMA

>  <FRAG_ATOM_NUM>  (778) 
fragi: 9  fragj: 12

>  <atom.prop.CHAIN_ID>  (778) 
A A A A A A A A A Z Z Z Z Z Z Z Z Z Z Z Z

>  <atom.prop.IS_HEAVY_ATOM>  (778) 
1 0 0 0 1 1 0 0 1 1 0 0 0 1 0 1 1 1 0 0 0

>  <DIFUSE_FUNC_ATOM>  (778) 
n/a

>  <FINAL_SINGLE_POINT_ENERGY>  (778) 
0

>  <NONCOV_INTER_ENERGY_QM>  (778) 
0

>  <FF_Energy>  (778) 
6.13

>  <QM_Energy>  (778) 
20.92

>  <source>  (778) 
ACEM_nNMA_57

>  <Index>  (778) 
18981

$$$$
ACEM-pdb6h1j-B-ASN-13:NMA-pdb6h1j-B-THR-10
     RDKit          3D

 21 19  0  0  0  0  0  0  0  0999 V2000
   -5.5190    0.9181   -1.6086 C   0  0  0  0  0  0  0  0  0  0  0  0
   -5.0573    1.1848   -2.4488 H   0  0  0  0  0  0  0  0  0  0  0  0
   -6.2570    1.5534   -1.4037 H   0  0  0  0  0  0  0  0  0  0  0  0
   -5.9503   -0.0725   -1.7528 H   0  0  0  0  0  0  0  0  0  0  0  0
   -4.5198    0.9488   -0.4738 C   0  0  0  0  0  0  0  0  0  0  0  0
   -3.3018    0.5337   -0.7723 N   0  0  0  0  0  0  0  0  0  0  0  0
   -3.0747    0.2291   -1.6968 H   0  0  0  0  0  0  0  0  0  0  0  0
   -2.5873    0.5218   -0.0626 H   0  0  0  0  0  0  0  0  0  0  0  0
   -4.8335    1.3635    0.6455 O   0  0  0  0  0  0  0  0  0  0  0  0
   -1.1693   -2.1571   -0.1540 C   0  0  0  0  0  0  0  0  0  0  0  0
   -0.6446   -2.3814   -0.9712 H   0  0  0  0  0  0  0  0  0  0  0  0
   -2.1997   -2.4517   -0.3529 H   0  0  0  0  0  0  0  0  0  0  0  0
   -0.7964   -2.6730    0.7307 H   0  0  0  0  0  0  0  0  0  0  0  0
   -1.1299   -0.7095    0.0000 N   0  0  0  0  0  0  0  0  0  0  0  0
   -1.9960   -0.1264    0.1218 H   0  0  0  0  0  0  0  0  0  0  0  0
    0.0000    0.0000    0.0000 C   0  0  0  0  0  0  0  0  0  0  0  0
    1.1299   -0.4975   -0.0000 O   0  0  0  0  0  0  0  0  0  0  0  0
   -0.1910    1.5171   -0.0607 C   0  0  0  0  0  0  0  0  0  0  0  0
   -0.9981    1.7586    0.4798 H   0  0  0  0  0  0  0  0  0  0  0  0
    0.6713    2.0222    0.3744 H   0  0  0  0  0  0  0  0  0  0  0  0
   -0.3755    1.8364   -1.0866 H   0  0  0  0  0  0  0  0  0  0  0  0
  1  5  1  0
  5  6  1  0
  5  9  2  0
  1  2  1  0
  1  3  1  0
  1  4  1  0
  6  7  1  0
  6  8  1  0
 10 14  1  0
 14 16  1  0
 16 17  2  0
 16 18  1  0
 10 11  1  0
 10 12  1  0
 10 13  1  0
 14 15  1  0
 18 19  1  0
 18 20  1  0
 18 21  1  0
M  END
>  <PDB_ID>  (779) 
pdb6h1j

>  <RESIDUE_NAME>  (779) 
ASN   THR

>  <FRAG_NAME>  (779) 
ACEM   NMA

>  <FRAG_ATOM_NUM>  (779) 
fragi: 9  fragj: 12

>  <atom.prop.CHAIN_ID>  (779) 
A A A A A A A A A Z Z Z Z Z Z Z Z Z Z Z Z

>  <atom.prop.IS_HEAVY_ATOM>  (779) 
1 0 0 0 1 1 0 0 1 1 0 0 0 1 0 1 1 1 0 0 0

>  <DIFUSE_FUNC_ATOM>  (779) 
n/a

>  <FINAL_SINGLE_POINT_ENERGY>  (779) 
0

>  <NONCOV_INTER_ENERGY_QM>  (779) 
0

>  <FF_Energy>  (779) 
18.32

>  <QM_Energy>  (779) 
40.81

>  <source>  (779) 
ACEM_nNMA_57

>  <Index>  (779) 
19086

$$$$
ACEM-pdb5gqc-A-ASN-493:NMA-pdb5gqc-A-PRO-466
     RDKit          3D

 21 19  0  0  0  0  0  0  0  0999 V2000
   -5.5473    1.1444   -0.4891 C   0  0  0  0  0  0  0  0  0  0  0  0
   -6.3998    0.6735   -0.6893 H   0  0  0  0  0  0  0  0  0  0  0  0
   -5.4233    1.9143   -1.1059 H   0  0  0  0  0  0  0  0  0  0  0  0
   -5.5910    1.5223    0.5323 H   0  0  0  0  0  0  0  0  0  0  0  0
   -4.3959    0.1688   -0.6975 C   0  0  0  0  0  0  0  0  0  0  0  0
   -3.7909   -0.1995    0.3822 N   0  0  0  0  0  0  0  0  0  0  0  0
   -4.0601    0.1243    1.2921 H   0  0  0  0  0  0  0  0  0  0  0  0
   -3.0036   -0.8480    0.3321 H   0  0  0  0  0  0  0  0  0  0  0  0
   -4.0749   -0.2738   -1.8274 O   0  0  0  0  0  0  0  0  0  0  0  0
   -1.0931   -2.2026   -0.1465 C   0  0  0  0  0  0  0  0  0  0  0  0
   -2.0421   -2.5311   -0.0041 H   0  0  0  0  0  0  0  0  0  0  0  0
   -0.4531   -2.7122    0.5738 H   0  0  0  0  0  0  0  0  0  0  0  0
   -0.7860   -2.4692   -1.1578 H   0  0  0  0  0  0  0  0  0  0  0  0
   -1.1057   -0.7283   -0.0000 N   0  0  0  0  0  0  0  0  0  0  0  0
   -1.9895   -0.1873    0.1114 H   0  0  0  0  0  0  0  0  0  0  0  0
    0.0000    0.0000    0.0000 C   0  0  0  0  0  0  0  0  0  0  0  0
    1.1057   -0.4925    0.0000 O   0  0  0  0  0  0  0  0  0  0  0  0
   -0.1765    1.5085    0.0400 C   0  0  0  0  0  0  0  0  0  0  0  0
   -1.1196    1.7677   -0.2448 H   0  0  0  0  0  0  0  0  0  0  0  0
    0.0591    1.9455    1.0103 H   0  0  0  0  0  0  0  0  0  0  0  0
    0.5312    2.0041   -0.6245 H   0  0  0  0  0  0  0  0  0  0  0  0
  1  5  1  0
  5  6  1  0
  5  9  2  0
  1  2  1  0
  1  3  1  0
  1  4  1  0
  6  7  1  0
  6  8  1  0
 10 14  1  0
 14 16  1  0
 16 17  2  0
 16 18  1  0
 10 11  1  0
 10 12  1  0
 10 13  1  0
 14 15  1  0
 18 19  1  0
 18 20  1  0
 18 21  1  0
M  END
>  <PDB_ID>  (780) 
pdb5gqc

>  <RESIDUE_NAME>  (780) 
ASN   PRO

>  <FRAG_NAME>  (780) 
ACEM   NMA

>  <FRAG_ATOM_NUM>  (780) 
fragi: 9  fragj: 12

>  <atom.prop.CHAIN_ID>  (780) 
A A A A A A A A A Z Z Z Z Z Z Z Z Z Z Z Z

>  <atom.prop.IS_HEAVY_ATOM>  (780) 
1 0 0 0 1 1 0 0 1 1 0 0 0 1 0 1 1 1 0 0 0

>  <DIFUSE_FUNC_ATOM>  (780) 
n/a

>  <FINAL_SINGLE_POINT_ENERGY>  (780) 
0

>  <NONCOV_INTER_ENERGY_QM>  (780) 
0

>  <FF_Energy>  (780) 
4.44

>  <QM_Energy>  (780) 
15.04

>  <source>  (780) 
ACEM_nNMA_57

>  <Index>  (780) 
19647

$$$$
ACEM-pdb5gkd-C-ASN-29:NMA-pdb5gkd-C-GLN-54
     RDKit          3D

 21 19  0  0  0  0  0  0  0  0999 V2000
   -5.2962    0.8293    2.6453 C   0  0  0  0  0  0  0  0  0  0  0  0
   -5.2479    1.1656    3.5839 H   0  0  0  0  0  0  0  0  0  0  0  0
   -6.0487    0.1793    2.5568 H   0  0  0  0  0  0  0  0  0  0  0  0
   -5.4953    1.6755    1.9876 H   0  0  0  0  0  0  0  0  0  0  0  0
   -4.0055    0.1275    2.3138 C   0  0  0  0  0  0  0  0  0  0  0  0
   -3.5367    0.3047    1.0893 N   0  0  0  0  0  0  0  0  0  0  0  0
   -4.0310    0.8854    0.4398 H   0  0  0  0  0  0  0  0  0  0  0  0
   -2.6850   -0.1404    0.8065 H   0  0  0  0  0  0  0  0  0  0  0  0
   -3.4333   -0.5652    3.1454 O   0  0  0  0  0  0  0  0  0  0  0  0
   -1.1094   -2.1790   -0.0575 C   0  0  0  0  0  0  0  0  0  0  0  0
   -0.1621   -2.4894   -0.1111 H   0  0  0  0  0  0  0  0  0  0  0  0
   -1.6296   -2.4949   -0.9618 H   0  0  0  0  0  0  0  0  0  0  0  0
   -1.5850   -2.6079    0.8245 H   0  0  0  0  0  0  0  0  0  0  0  0
   -1.1185   -0.7188    0.0000 N   0  0  0  0  0  0  0  0  0  0  0  0
   -1.9951   -0.1564    0.0446 H   0  0  0  0  0  0  0  0  0  0  0  0
    0.0000    0.0000    0.0000 C   0  0  0  0  0  0  0  0  0  0  0  0
    1.1185   -0.5264   -0.0000 O   0  0  0  0  0  0  0  0  0  0  0  0
   -0.1564    1.5176   -0.0076 C   0  0  0  0  0  0  0  0  0  0  0  0
    0.7668    1.9218    0.0395 H   0  0  0  0  0  0  0  0  0  0  0  0
   -0.6306    1.8678   -0.9244 H   0  0  0  0  0  0  0  0  0  0  0  0
   -0.7426    1.8593    0.8455 H   0  0  0  0  0  0  0  0  0  0  0  0
  1  5  1  0
  5  6  1  0
  5  9  2  0
  1  2  1  0
  1  3  1  0
  1  4  1  0
  6  7  1  0
  6  8  1  0
 10 14  1  0
 14 16  1  0
 16 17  2  0
 16 18  1  0
 10 11  1  0
 10 12  1  0
 10 13  1  0
 14 15  1  0
 18 19  1  0
 18 20  1  0
 18 21  1  0
M  END
>  <PDB_ID>  (781) 
pdb5gkd

>  <RESIDUE_NAME>  (781) 
ASN   GLN

>  <FRAG_NAME>  (781) 
ACEM   NMA

>  <FRAG_ATOM_NUM>  (781) 
fragi: 9  fragj: 12

>  <atom.prop.CHAIN_ID>  (781) 
A A A A A A A A A Z Z Z Z Z Z Z Z Z Z Z Z

>  <atom.prop.IS_HEAVY_ATOM>  (781) 
1 0 0 0 1 1 0 0 1 1 0 0 0 1 0 1 1 1 0 0 0

>  <DIFUSE_FUNC_ATOM>  (781) 
n/a

>  <FINAL_SINGLE_POINT_ENERGY>  (781) 
0

>  <NONCOV_INTER_ENERGY_QM>  (781) 
0

>  <FF_Energy>  (781) 
9.5

>  <QM_Energy>  (781) 
23.89

>  <source>  (781) 
ACEM_nNMA_57

>  <Index>  (781) 
20043

$$$$
ACEM-pdb5gz8-A-GLN-257:NMA-pdb5gz8-A-VAL-253
     RDKit          3D

 21 19  0  0  0  0  0  0  0  0999 V2000
   -4.0624   -0.4009   -2.8955 C   0  0  0  0  0  0  0  0  0  0  0  0
   -4.9389   -0.5104   -3.3636 H   0  0  0  0  0  0  0  0  0  0  0  0
   -3.8245   -1.2530   -2.4289 H   0  0  0  0  0  0  0  0  0  0  0  0
   -3.2948   -0.1829   -3.6380 H   0  0  0  0  0  0  0  0  0  0  0  0
   -4.2020    0.6969   -1.8596 C   0  0  0  0  0  0  0  0  0  0  0  0
   -3.4318    0.5944   -0.7827 N   0  0  0  0  0  0  0  0  0  0  0  0
   -3.4595    1.3002   -0.0511 H   0  0  0  0  0  0  0  0  0  0  0  0
   -2.8084   -0.2081   -0.6988 H   0  0  0  0  0  0  0  0  0  0  0  0
   -4.9912    1.6258   -2.0240 O   0  0  0  0  0  0  0  0  0  0  0  0
   -1.0631   -2.1561   -0.1279 C   0  0  0  0  0  0  0  0  0  0  0  0
   -0.4548   -2.5246    0.5772 H   0  0  0  0  0  0  0  0  0  0  0  0
   -0.6582   -2.4180   -1.1054 H   0  0  0  0  0  0  0  0  0  0  0  0
   -2.0533   -2.5927    0.0024 H   0  0  0  0  0  0  0  0  0  0  0  0
   -1.1206   -0.7109   -0.0000 N   0  0  0  0  0  0  0  0  0  0  0  0
   -1.9902   -0.1701    0.0945 H   0  0  0  0  0  0  0  0  0  0  0  0
    0.0000    0.0000    0.0000 C   0  0  0  0  0  0  0  0  0  0  0  0
    1.1206   -0.5242    0.0000 O   0  0  0  0  0  0  0  0  0  0  0  0
   -0.1857    1.5131    0.0207 C   0  0  0  0  0  0  0  0  0  0  0  0
   -0.9522    1.7221    0.6323 H   0  0  0  0  0  0  0  0  0  0  0  0
    0.7109    1.9875    0.4197 H   0  0  0  0  0  0  0  0  0  0  0  0
   -0.4194    1.8942   -0.9735 H   0  0  0  0  0  0  0  0  0  0  0  0
  1  5  1  0
  5  6  1  0
  5  9  2  0
  1  2  1  0
  1  3  1  0
  1  4  1  0
  6  7  1  0
  6  8  1  0
 10 14  1  0
 14 16  1  0
 16 17  2  0
 16 18  1  0
 10 11  1  0
 10 12  1  0
 10 13  1  0
 14 15  1  0
 18 19  1  0
 18 20  1  0
 18 21  1  0
M  END
>  <PDB_ID>  (782) 
pdb5gz8

>  <RESIDUE_NAME>  (782) 
GLN   VAL

>  <FRAG_NAME>  (782) 
ACEM   NMA

>  <FRAG_ATOM_NUM>  (782) 
fragi: 9  fragj: 12

>  <atom.prop.CHAIN_ID>  (782) 
A A A A A A A A A Z Z Z Z Z Z Z Z Z Z Z Z

>  <atom.prop.IS_HEAVY_ATOM>  (782) 
1 0 0 0 1 1 0 0 1 1 0 0 0 1 0 1 1 1 0 0 0

>  <DIFUSE_FUNC_ATOM>  (782) 
n/a

>  <FINAL_SINGLE_POINT_ENERGY>  (782) 
0

>  <NONCOV_INTER_ENERGY_QM>  (782) 
0

>  <FF_Energy>  (782) 
7.15

>  <QM_Energy>  (782) 
20.11

>  <source>  (782) 
ACEM_nNMA_57

>  <Index>  (782) 
22678

$$$$
ACEM-pdb5gkd-C-ASN-511:NMA-pdb5gkd-C-TYR-544
     RDKit          3D

 21 19  0  0  0  0  0  0  0  0999 V2000
   -5.1289   -0.1196    1.1393 C   0  0  0  0  0  0  0  0  0  0  0  0
   -5.9802   -0.0754    1.6535 H   0  0  0  0  0  0  0  0  0  0  0  0
   -4.7704   -1.0482    1.1435 H   0  0  0  0  0  0  0  0  0  0  0  0
   -5.3354    0.1637    0.1073 H   0  0  0  0  0  0  0  0  0  0  0  0
   -4.1088    0.7960    1.8151 C   0  0  0  0  0  0  0  0  0  0  0  0
   -2.8472    0.7106    1.3846 N   0  0  0  0  0  0  0  0  0  0  0  0
   -2.6237    0.0699    0.6478 H   0  0  0  0  0  0  0  0  0  0  0  0
   -2.1402    1.2791    1.7915 H   0  0  0  0  0  0  0  0  0  0  0  0
   -4.4555    1.5819    2.6946 O   0  0  0  0  0  0  0  0  0  0  0  0
   -1.1390   -2.1784   -0.0575 C   0  0  0  0  0  0  0  0  0  0  0  0
   -0.2100   -2.5105   -0.2173 H   0  0  0  0  0  0  0  0  0  0  0  0
   -1.7717   -2.4892   -0.8889 H   0  0  0  0  0  0  0  0  0  0  0  0
   -1.5261   -2.6229    0.8594 H   0  0  0  0  0  0  0  0  0  0  0  0
   -1.1190   -0.7224   -0.0000 N   0  0  0  0  0  0  0  0  0  0  0  0
   -1.9965   -0.1447    0.0452 H   0  0  0  0  0  0  0  0  0  0  0  0
    0.0000    0.0000    0.0000 C   0  0  0  0  0  0  0  0  0  0  0  0
    1.1190   -0.5042    0.0000 O   0  0  0  0  0  0  0  0  0  0  0  0
   -0.1843    1.5121   -0.0184 C   0  0  0  0  0  0  0  0  0  0  0  0
   -0.8638    1.7517    0.6742 H   0  0  0  0  0  0  0  0  0  0  0  0
    0.7612    1.9862    0.2450 H   0  0  0  0  0  0  0  0  0  0  0  0
   -0.5446    1.8308   -0.9965 H   0  0  0  0  0  0  0  0  0  0  0  0
  1  5  1  0
  5  6  1  0
  5  9  2  0
  1  2  1  0
  1  3  1  0
  1  4  1  0
  6  7  1  0
  6  8  1  0
 10 14  1  0
 14 16  1  0
 16 17  2  0
 16 18  1  0
 10 11  1  0
 10 12  1  0
 10 13  1  0
 14 15  1  0
 18 19  1  0
 18 20  1  0
 18 21  1  0
M  END
>  <PDB_ID>  (783) 
pdb5gkd

>  <RESIDUE_NAME>  (783) 
ASN   TYR

>  <FRAG_NAME>  (783) 
ACEM   NMA

>  <FRAG_ATOM_NUM>  (783) 
fragi: 9  fragj: 12

>  <atom.prop.CHAIN_ID>  (783) 
A A A A A A A A A Z Z Z Z Z Z Z Z Z Z Z Z

>  <atom.prop.IS_HEAVY_ATOM>  (783) 
1 0 0 0 1 1 0 0 1 1 0 0 0 1 0 1 1 1 0 0 0

>  <DIFUSE_FUNC_ATOM>  (783) 
n/a

>  <FINAL_SINGLE_POINT_ENERGY>  (783) 
0

>  <NONCOV_INTER_ENERGY_QM>  (783) 
0

>  <FF_Energy>  (783) 
22.42

>  <QM_Energy>  (783) 
43.83

>  <source>  (783) 
ACEM_nNMA_57

>  <Index>  (783) 
25592

$$$$
ACEM-pdb6hdw-A-GLN-70:NMA-pdb6hdw-A-PHE-66
     RDKit          3D

 21 19  0  0  0  0  0  0  0  0999 V2000
   -5.3861    0.0164    1.1037 C   0  0  0  0  0  0  0  0  0  0  0  0
   -6.2116    0.1864    1.6262 H   0  0  0  0  0  0  0  0  0  0  0  0
   -5.1014   -0.9295    1.1921 H   0  0  0  0  0  0  0  0  0  0  0  0
   -5.5923    0.2206    0.0530 H   0  0  0  0  0  0  0  0  0  0  0  0
   -4.2898    0.9122    1.6091 C   0  0  0  0  0  0  0  0  0  0  0  0
   -3.0738    0.6837    1.1604 N   0  0  0  0  0  0  0  0  0  0  0  0
   -2.2799    1.2583    1.4464 H   0  0  0  0  0  0  0  0  0  0  0  0
   -2.9235   -0.0917    0.5067 H   0  0  0  0  0  0  0  0  0  0  0  0
   -4.5149    1.8086    2.4189 O   0  0  0  0  0  0  0  0  0  0  0  0
   -1.2343   -2.1672    0.0066 C   0  0  0  0  0  0  0  0  0  0  0  0
   -0.3523   -2.5497   -0.2102 H   0  0  0  0  0  0  0  0  0  0  0  0
   -1.9071   -2.4170   -0.8138 H   0  0  0  0  0  0  0  0  0  0  0  0
   -1.6518   -2.4936    0.9592 H   0  0  0  0  0  0  0  0  0  0  0  0
   -1.1277   -0.7152   -0.0000 N   0  0  0  0  0  0  0  0  0  0  0  0
   -2.0009   -0.0918   -0.0057 H   0  0  0  0  0  0  0  0  0  0  0  0
    0.0000    0.0000    0.0000 C   0  0  0  0  0  0  0  0  0  0  0  0
    1.1277   -0.4976   -0.0000 O   0  0  0  0  0  0  0  0  0  0  0  0
   -0.2008    1.5190   -0.0750 C   0  0  0  0  0  0  0  0  0  0  0  0
   -1.1639    1.6952    0.1952 H   0  0  0  0  0  0  0  0  0  0  0  0
    0.4307    2.0791    0.6147 H   0  0  0  0  0  0  0  0  0  0  0  0
   -0.1047    1.8756   -1.1005 H   0  0  0  0  0  0  0  0  0  0  0  0
  1  5  1  0
  5  6  1  0
  5  9  2  0
  1  2  1  0
  1  3  1  0
  1  4  1  0
  6  7  1  0
  6  8  1  0
 10 14  1  0
 14 16  1  0
 16 17  2  0
 16 18  1  0
 10 11  1  0
 10 12  1  0
 10 13  1  0
 14 15  1  0
 18 19  1  0
 18 20  1  0
 18 21  1  0
M  END
>  <PDB_ID>  (784) 
pdb6hdw

>  <RESIDUE_NAME>  (784) 
GLN   PHE

>  <FRAG_NAME>  (784) 
ACEM   NMA

>  <FRAG_ATOM_NUM>  (784) 
fragi: 9  fragj: 12

>  <atom.prop.CHAIN_ID>  (784) 
A A A A A A A A A Z Z Z Z Z Z Z Z Z Z Z Z

>  <atom.prop.IS_HEAVY_ATOM>  (784) 
1 0 0 0 1 1 0 0 1 1 0 0 0 1 0 1 1 1 0 0 0

>  <DIFUSE_FUNC_ATOM>  (784) 
n/a

>  <FINAL_SINGLE_POINT_ENERGY>  (784) 
0

>  <NONCOV_INTER_ENERGY_QM>  (784) 
0

>  <FF_Energy>  (784) 
16.04

>  <QM_Energy>  (784) 
29.84

>  <source>  (784) 
ACEM_nNMA_57

>  <Index>  (784) 
27796

$$$$
ACEM-pdb5gz5-A-ASN-772:NMA-pdb5gz5-A-LYS-768
     RDKit          3D

 21 19  0  0  0  0  0  0  0  0999 V2000
   -5.5211    1.0986   -1.5635 C   0  0  0  0  0  0  0  0  0  0  0  0
   -5.6704    2.0677   -1.7274 H   0  0  0  0  0  0  0  0  0  0  0  0
   -6.3291    0.6887   -1.1512 H   0  0  0  0  0  0  0  0  0  0  0  0
   -5.3419    0.6125   -2.5225 H   0  0  0  0  0  0  0  0  0  0  0  0
   -4.3571    0.9353   -0.6248 C   0  0  0  0  0  0  0  0  0  0  0  0
   -3.3024    0.3001   -1.0942 N   0  0  0  0  0  0  0  0  0  0  0  0
   -3.2984   -0.0430   -2.0377 H   0  0  0  0  0  0  0  0  0  0  0  0
   -2.4983    0.1553   -0.5148 H   0  0  0  0  0  0  0  0  0  0  0  0
   -4.4209    1.3476    0.5308 O   0  0  0  0  0  0  0  0  0  0  0  0
   -1.2213   -2.1459   -0.0368 C   0  0  0  0  0  0  0  0  0  0  0  0
   -0.3687   -2.5350    0.3200 H   0  0  0  0  0  0  0  0  0  0  0  0
   -1.3479   -2.4773   -1.0674 H   0  0  0  0  0  0  0  0  0  0  0  0
   -2.0814   -2.4666    0.5509 H   0  0  0  0  0  0  0  0  0  0  0  0
   -1.1214   -0.6948   -0.0000 N   0  0  0  0  0  0  0  0  0  0  0  0
   -1.9938   -0.0780    0.0303 H   0  0  0  0  0  0  0  0  0  0  0  0
    0.0000    0.0000    0.0000 C   0  0  0  0  0  0  0  0  0  0  0  0
    1.1214   -0.5160    0.0000 O   0  0  0  0  0  0  0  0  0  0  0  0
   -0.1912    1.5129   -0.0035 C   0  0  0  0  0  0  0  0  0  0  0  0
   -0.9485    1.7421    0.6197 H   0  0  0  0  0  0  0  0  0  0  0  0
    0.7140    2.0168    0.3352 H   0  0  0  0  0  0  0  0  0  0  0  0
   -0.4714    1.8449   -1.0032 H   0  0  0  0  0  0  0  0  0  0  0  0
  1  5  1  0
  5  6  1  0
  5  9  2  0
  1  2  1  0
  1  3  1  0
  1  4  1  0
  6  7  1  0
  6  8  1  0
 10 14  1  0
 14 16  1  0
 16 17  2  0
 16 18  1  0
 10 11  1  0
 10 12  1  0
 10 13  1  0
 14 15  1  0
 18 19  1  0
 18 20  1  0
 18 21  1  0
M  END
>  <PDB_ID>  (785) 
pdb5gz5

>  <RESIDUE_NAME>  (785) 
ASN   LYS

>  <FRAG_NAME>  (785) 
ACEM   NMA

>  <FRAG_ATOM_NUM>  (785) 
fragi: 9  fragj: 12

>  <atom.prop.CHAIN_ID>  (785) 
A A A A A A A A A Z Z Z Z Z Z Z Z Z Z Z Z

>  <atom.prop.IS_HEAVY_ATOM>  (785) 
1 0 0 0 1 1 0 0 1 1 0 0 0 1 0 1 1 1 0 0 0

>  <DIFUSE_FUNC_ATOM>  (785) 
n/a

>  <FINAL_SINGLE_POINT_ENERGY>  (785) 
0

>  <NONCOV_INTER_ENERGY_QM>  (785) 
0

>  <FF_Energy>  (785) 
18.92

>  <QM_Energy>  (785) 
55.56

>  <source>  (785) 
ACEM_nNMA_57

>  <Index>  (785) 
28188

$$$$
ACEM-pdb5gkd-D-ASN-511:NMA-pdb5gkd-D-TYR-544
     RDKit          3D

 21 19  0  0  0  0  0  0  0  0999 V2000
   -5.2012   -0.2341    0.8758 C   0  0  0  0  0  0  0  0  0  0  0  0
   -6.0946   -0.1657    1.3123 H   0  0  0  0  0  0  0  0  0  0  0  0
   -4.8577   -1.1672    0.9453 H   0  0  0  0  0  0  0  0  0  0  0  0
   -5.3178    0.0081   -0.1804 H   0  0  0  0  0  0  0  0  0  0  0  0
   -4.2380    0.6940    1.5949 C   0  0  0  0  0  0  0  0  0  0  0  0
   -2.9552    0.4894    1.3610 N   0  0  0  0  0  0  0  0  0  0  0  0
   -2.6595   -0.2359    0.7381 H   0  0  0  0  0  0  0  0  0  0  0  0
   -2.2631    1.0642    1.8086 H   0  0  0  0  0  0  0  0  0  0  0  0
   -4.6422    1.5845    2.3587 O   0  0  0  0  0  0  0  0  0  0  0  0
   -1.1079   -2.1761   -0.0562 C   0  0  0  0  0  0  0  0  0  0  0  0
   -0.1553   -2.4896   -0.1275 H   0  0  0  0  0  0  0  0  0  0  0  0
   -1.6589   -2.5249   -0.9296 H   0  0  0  0  0  0  0  0  0  0  0  0
   -1.5532   -2.6161    0.8361 H   0  0  0  0  0  0  0  0  0  0  0  0
   -1.1209   -0.7205    0.0000 N   0  0  0  0  0  0  0  0  0  0  0  0
   -1.9957   -0.1568    0.0435 H   0  0  0  0  0  0  0  0  0  0  0  0
    0.0000    0.0000    0.0000 C   0  0  0  0  0  0  0  0  0  0  0  0
    1.1209   -0.5126    0.0000 O   0  0  0  0  0  0  0  0  0  0  0  0
   -0.1810    1.5113   -0.0098 C   0  0  0  0  0  0  0  0  0  0  0  0
   -0.9026    1.7450    0.6453 H   0  0  0  0  0  0  0  0  0  0  0  0
    0.7428    1.9936    0.3096 H   0  0  0  0  0  0  0  0  0  0  0  0
   -0.4884    1.8488   -0.9996 H   0  0  0  0  0  0  0  0  0  0  0  0
  1  5  1  0
  5  6  1  0
  5  9  2  0
  1  2  1  0
  1  3  1  0
  1  4  1  0
  6  7  1  0
  6  8  1  0
 10 14  1  0
 14 16  1  0
 16 17  2  0
 16 18  1  0
 10 11  1  0
 10 12  1  0
 10 13  1  0
 14 15  1  0
 18 19  1  0
 18 20  1  0
 18 21  1  0
M  END
>  <PDB_ID>  (786) 
pdb5gkd

>  <RESIDUE_NAME>  (786) 
ASN   TYR

>  <FRAG_NAME>  (786) 
ACEM   NMA

>  <FRAG_ATOM_NUM>  (786) 
fragi: 9  fragj: 12

>  <atom.prop.CHAIN_ID>  (786) 
A A A A A A A A A Z Z Z Z Z Z Z Z Z Z Z Z

>  <atom.prop.IS_HEAVY_ATOM>  (786) 
1 0 0 0 1 1 0 0 1 1 0 0 0 1 0 1 1 1 0 0 0

>  <DIFUSE_FUNC_ATOM>  (786) 
n/a

>  <FINAL_SINGLE_POINT_ENERGY>  (786) 
0

>  <NONCOV_INTER_ENERGY_QM>  (786) 
0

>  <FF_Energy>  (786) 
19.54

>  <QM_Energy>  (786) 
37.17

>  <source>  (786) 
ACEM_nNMA_58

>  <Index>  (786) 
2807

$$$$
ACEM-pdb6hpf-A-ASN-260:NMA-pdb6hpf-A-ALA-230
     RDKit          3D

 21 19  0  0  0  0  0  0  0  0999 V2000
   -5.1659    0.2589    2.7926 C   0  0  0  0  0  0  0  0  0  0  0  0
   -5.1694    0.4826    3.7593 H   0  0  0  0  0  0  0  0  0  0  0  0
   -5.1751   -0.7239    2.6582 H   0  0  0  0  0  0  0  0  0  0  0  0
   -6.0623    0.6789    2.3361 H   0  0  0  0  0  0  0  0  0  0  0  0
   -3.9094    0.8235    2.1680 C   0  0  0  0  0  0  0  0  0  0  0  0
   -3.5314    0.2722    0.9875 N   0  0  0  0  0  0  0  0  0  0  0  0
   -4.0846   -0.4552    0.5941 H   0  0  0  0  0  0  0  0  0  0  0  0
   -2.7117    0.5997    0.5353 H   0  0  0  0  0  0  0  0  0  0  0  0
   -3.3236    1.7410    2.7657 O   0  0  0  0  0  0  0  0  0  0  0  0
   -1.1718   -2.1458    0.0762 C   0  0  0  0  0  0  0  0  0  0  0  0
   -1.9804   -2.4908   -0.4549 H   0  0  0  0  0  0  0  0  0  0  0  0
   -0.3485   -2.5132   -0.4164 H   0  0  0  0  0  0  0  0  0  0  0  0
   -1.2013   -2.5631    1.0828 H   0  0  0  0  0  0  0  0  0  0  0  0
   -1.1504   -0.6862    0.0000 N   0  0  0  0  0  0  0  0  0  0  0  0
   -2.0035   -0.1016   -0.0578 H   0  0  0  0  0  0  0  0  0  0  0  0
    0.0000    0.0000    0.0000 C   0  0  0  0  0  0  0  0  0  0  0  0
    1.1504   -0.5175   -0.0000 O   0  0  0  0  0  0  0  0  0  0  0  0
   -0.1615    1.5024   -0.1843 C   0  0  0  0  0  0  0  0  0  0  0  0
   -1.1328    1.7317   -0.1080 H   0  0  0  0  0  0  0  0  0  0  0  0
    0.3888    2.0212    0.6005 H   0  0  0  0  0  0  0  0  0  0  0  0
    0.1145    1.8616   -1.1757 H   0  0  0  0  0  0  0  0  0  0  0  0
  1  5  1  0
  5  6  1  0
  5  9  2  0
  1  2  1  0
  1  3  1  0
  1  4  1  0
  6  7  1  0
  6  8  1  0
 10 14  1  0
 14 16  1  0
 16 17  2  0
 16 18  1  0
 10 11  1  0
 10 12  1  0
 10 13  1  0
 14 15  1  0
 18 19  1  0
 18 20  1  0
 18 21  1  0
M  END
>  <PDB_ID>  (787) 
pdb6hpf

>  <RESIDUE_NAME>  (787) 
ASN   ALA

>  <FRAG_NAME>  (787) 
ACEM   NMA

>  <FRAG_ATOM_NUM>  (787) 
fragi: 9  fragj: 12

>  <atom.prop.CHAIN_ID>  (787) 
A A A A A A A A A Z Z Z Z Z Z Z Z Z Z Z Z

>  <atom.prop.IS_HEAVY_ATOM>  (787) 
1 0 0 0 1 1 0 0 1 1 0 0 0 1 0 1 1 1 0 0 0

>  <DIFUSE_FUNC_ATOM>  (787) 
n/a

>  <FINAL_SINGLE_POINT_ENERGY>  (787) 
0

>  <NONCOV_INTER_ENERGY_QM>  (787) 
0

>  <FF_Energy>  (787) 
8.84

>  <QM_Energy>  (787) 
20.47

>  <source>  (787) 
ACEM_nNMA_58

>  <Index>  (787) 
6466

$$$$
ACEM-pdb5hdq-L-ASN-31:NMA-pdb5hdq-L-SER-67
     RDKit          3D

 21 19  0  0  0  0  0  0  0  0999 V2000
   -4.3606    2.0329    2.7125 C   0  0  0  0  0  0  0  0  0  0  0  0
   -4.2830    3.0118    2.8765 H   0  0  0  0  0  0  0  0  0  0  0  0
   -3.9028    1.5243    3.4364 H   0  0  0  0  0  0  0  0  0  0  0  0
   -5.4175    1.7663    2.7210 H   0  0  0  0  0  0  0  0  0  0  0  0
   -3.7111    1.7046    1.3998 C   0  0  0  0  0  0  0  0  0  0  0  0
   -3.2500    0.4667    1.2669 N   0  0  0  0  0  0  0  0  0  0  0  0
   -3.3497   -0.1908    2.0137 H   0  0  0  0  0  0  0  0  0  0  0  0
   -2.8008    0.1881    0.4155 H   0  0  0  0  0  0  0  0  0  0  0  0
   -3.5594    2.5732    0.5238 O   0  0  0  0  0  0  0  0  0  0  0  0
   -1.1710   -2.1409   -0.0840 C   0  0  0  0  0  0  0  0  0  0  0  0
   -2.1324   -2.4362   -0.2736 H   0  0  0  0  0  0  0  0  0  0  0  0
   -0.6234   -2.4441   -0.8943 H   0  0  0  0  0  0  0  0  0  0  0  0
   -0.8077   -2.6534    0.8067 H   0  0  0  0  0  0  0  0  0  0  0  0
   -1.1285   -0.6928   -0.0000 N   0  0  0  0  0  0  0  0  0  0  0  0
   -1.9948   -0.1004    0.0664 H   0  0  0  0  0  0  0  0  0  0  0  0
    0.0000    0.0000    0.0000 C   0  0  0  0  0  0  0  0  0  0  0  0
    1.1285   -0.5060    0.0000 O   0  0  0  0  0  0  0  0  0  0  0  0
   -0.1620    1.4942    0.0607 C   0  0  0  0  0  0  0  0  0  0  0  0
   -0.9308    1.7050    0.6657 H   0  0  0  0  0  0  0  0  0  0  0  0
    0.7376    1.9287    0.4966 H   0  0  0  0  0  0  0  0  0  0  0  0
   -0.3377    1.8884   -0.9402 H   0  0  0  0  0  0  0  0  0  0  0  0
  1  5  1  0
  5  6  1  0
  5  9  2  0
  1  2  1  0
  1  3  1  0
  1  4  1  0
  6  7  1  0
  6  8  1  0
 10 14  1  0
 14 16  1  0
 16 17  2  0
 16 18  1  0
 10 11  1  0
 10 12  1  0
 10 13  1  0
 14 15  1  0
 18 19  1  0
 18 20  1  0
 18 21  1  0
M  END
>  <PDB_ID>  (788) 
pdb5hdq

>  <RESIDUE_NAME>  (788) 
ASN   SER

>  <FRAG_NAME>  (788) 
ACEM   NMA

>  <FRAG_ATOM_NUM>  (788) 
fragi: 9  fragj: 12

>  <atom.prop.CHAIN_ID>  (788) 
A A A A A A A A A Z Z Z Z Z Z Z Z Z Z Z Z

>  <atom.prop.IS_HEAVY_ATOM>  (788) 
1 0 0 0 1 1 0 0 1 1 0 0 0 1 0 1 1 1 0 0 0

>  <DIFUSE_FUNC_ATOM>  (788) 
n/a

>  <FINAL_SINGLE_POINT_ENERGY>  (788) 
0

>  <NONCOV_INTER_ENERGY_QM>  (788) 
0

>  <FF_Energy>  (788) 
10.41

>  <QM_Energy>  (788) 
34.36

>  <source>  (788) 
ACEM_nNMA_58

>  <Index>  (788) 
10613

$$$$
ACEM-pdb6hrv-B-GLN-51:NMA-pdb6hrv-B-ALA-106
     RDKit          3D

 21 19  0  0  0  0  0  0  0  0999 V2000
   -5.3067    1.5096   -1.6250 C   0  0  0  0  0  0  0  0  0  0  0  0
   -6.0651    2.0519   -1.2597 H   0  0  0  0  0  0  0  0  0  0  0  0
   -5.6677    0.8149   -2.2494 H   0  0  0  0  0  0  0  0  0  0  0  0
   -4.6556    2.1735   -2.1937 H   0  0  0  0  0  0  0  0  0  0  0  0
   -4.6010    0.8233   -0.4817 C   0  0  0  0  0  0  0  0  0  0  0  0
   -3.4534    0.2214   -0.7956 N   0  0  0  0  0  0  0  0  0  0  0  0
   -2.9053   -0.2566   -0.0737 H   0  0  0  0  0  0  0  0  0  0  0  0
   -3.1321    0.2418   -1.7560 H   0  0  0  0  0  0  0  0  0  0  0  0
   -5.0639    0.8396    0.6797 O   0  0  0  0  0  0  0  0  0  0  0  0
   -1.1473   -2.1754   -0.1082 C   0  0  0  0  0  0  0  0  0  0  0  0
   -0.2143   -2.5035    0.1150 H   0  0  0  0  0  0  0  0  0  0  0  0
   -1.3812   -2.5177   -1.1163 H   0  0  0  0  0  0  0  0  0  0  0  0
   -1.8902   -2.5772    0.5808 H   0  0  0  0  0  0  0  0  0  0  0  0
   -1.1165   -0.7117   -0.0000 N   0  0  0  0  0  0  0  0  0  0  0  0
   -1.9934   -0.1383    0.0848 H   0  0  0  0  0  0  0  0  0  0  0  0
    0.0000    0.0000    0.0000 C   0  0  0  0  0  0  0  0  0  0  0  0
    1.1165   -0.4898   -0.0000 O   0  0  0  0  0  0  0  0  0  0  0  0
   -0.1983    1.4977   -0.0231 C   0  0  0  0  0  0  0  0  0  0  0  0
   -0.9594    1.7312    0.5817 H   0  0  0  0  0  0  0  0  0  0  0  0
    0.7127    1.9680    0.3472 H   0  0  0  0  0  0  0  0  0  0  0  0
   -0.4298    1.8356   -1.0333 H   0  0  0  0  0  0  0  0  0  0  0  0
  1  5  1  0
  5  6  1  0
  5  9  2  0
  1  2  1  0
  1  3  1  0
  1  4  1  0
  6  7  1  0
  6  8  1  0
 10 14  1  0
 14 16  1  0
 16 17  2  0
 16 18  1  0
 10 11  1  0
 10 12  1  0
 10 13  1  0
 14 15  1  0
 18 19  1  0
 18 20  1  0
 18 21  1  0
M  END
>  <PDB_ID>  (789) 
pdb6hrv

>  <RESIDUE_NAME>  (789) 
GLN   ALA

>  <FRAG_NAME>  (789) 
ACEM   NMA

>  <FRAG_ATOM_NUM>  (789) 
fragi: 9  fragj: 12

>  <atom.prop.CHAIN_ID>  (789) 
A A A A A A A A A Z Z Z Z Z Z Z Z Z Z Z Z

>  <atom.prop.IS_HEAVY_ATOM>  (789) 
1 0 0 0 1 1 0 0 1 1 0 0 0 1 0 1 1 1 0 0 0

>  <DIFUSE_FUNC_ATOM>  (789) 
n/a

>  <FINAL_SINGLE_POINT_ENERGY>  (789) 
0

>  <NONCOV_INTER_ENERGY_QM>  (789) 
0

>  <FF_Energy>  (789) 
15.18

>  <QM_Energy>  (789) 
35.79

>  <source>  (789) 
ACEM_nNMA_58

>  <Index>  (789) 
10663

$$$$
ACEM-pdb5h9f-D-ASN-3:NMA-pdb5h9f-D-LEU-232
     RDKit          3D

 21 19  0  0  0  0  0  0  0  0999 V2000
   -5.6973    1.2660    1.5475 C   0  0  0  0  0  0  0  0  0  0  0  0
   -5.9131    0.6135    2.2696 H   0  0  0  0  0  0  0  0  0  0  0  0
   -6.5268    1.5113    1.0503 H   0  0  0  0  0  0  0  0  0  0  0  0
   -5.2945    2.1677    2.0087 H   0  0  0  0  0  0  0  0  0  0  0  0
   -4.7270    0.6244    0.5874 C   0  0  0  0  0  0  0  0  0  0  0  0
   -3.6197    0.1195    1.1138 N   0  0  0  0  0  0  0  0  0  0  0  0
   -3.4671    0.1711    2.1032 H   0  0  0  0  0  0  0  0  0  0  0  0
   -2.9358   -0.3147    0.5277 H   0  0  0  0  0  0  0  0  0  0  0  0
   -4.9679    0.5792   -0.6160 O   0  0  0  0  0  0  0  0  0  0  0  0
   -1.0910   -2.1700    0.0263 C   0  0  0  0  0  0  0  0  0  0  0  0
   -0.5593   -2.4703    0.8294 H   0  0  0  0  0  0  0  0  0  0  0  0
   -0.6202   -2.5692   -0.8720 H   0  0  0  0  0  0  0  0  0  0  0  0
   -2.1000   -2.5683    0.1336 H   0  0  0  0  0  0  0  0  0  0  0  0
   -1.1196   -0.7144    0.0000 N   0  0  0  0  0  0  0  0  0  0  0  0
   -1.9947   -0.1574   -0.0201 H   0  0  0  0  0  0  0  0  0  0  0  0
    0.0000    0.0000    0.0000 C   0  0  0  0  0  0  0  0  0  0  0  0
    1.1196   -0.5062   -0.0000 O   0  0  0  0  0  0  0  0  0  0  0  0
   -0.1629    1.5114   -0.0131 C   0  0  0  0  0  0  0  0  0  0  0  0
    0.7312    1.9258   -0.2471 H   0  0  0  0  0  0  0  0  0  0  0  0
   -0.8995    1.8438   -0.7444 H   0  0  0  0  0  0  0  0  0  0  0  0
   -0.4364    1.8688    0.9797 H   0  0  0  0  0  0  0  0  0  0  0  0
  1  5  1  0
  5  6  1  0
  5  9  2  0
  1  2  1  0
  1  3  1  0
  1  4  1  0
  6  7  1  0
  6  8  1  0
 10 14  1  0
 14 16  1  0
 16 17  2  0
 16 18  1  0
 10 11  1  0
 10 12  1  0
 10 13  1  0
 14 15  1  0
 18 19  1  0
 18 20  1  0
 18 21  1  0
M  END
>  <PDB_ID>  (790) 
pdb5h9f

>  <RESIDUE_NAME>  (790) 
ASN   LEU

>  <FRAG_NAME>  (790) 
ACEM   NMA

>  <FRAG_ATOM_NUM>  (790) 
fragi: 9  fragj: 12

>  <atom.prop.CHAIN_ID>  (790) 
A A A A A A A A A Z Z Z Z Z Z Z Z Z Z Z Z

>  <atom.prop.IS_HEAVY_ATOM>  (790) 
1 0 0 0 1 1 0 0 1 1 0 0 0 1 0 1 1 1 0 0 0

>  <DIFUSE_FUNC_ATOM>  (790) 
n/a

>  <FINAL_SINGLE_POINT_ENERGY>  (790) 
0

>  <NONCOV_INTER_ENERGY_QM>  (790) 
0

>  <FF_Energy>  (790) 
5.14

>  <QM_Energy>  (790) 
17.91

>  <source>  (790) 
ACEM_nNMA_58

>  <Index>  (790) 
10976

$$$$
ACEM-pdb5gqc-F-ASN-76:NMA-pdb5gqc-F-LEU-101
     RDKit          3D

 21 19  0  0  0  0  0  0  0  0999 V2000
   -5.9085    1.2391   -0.2635 C   0  0  0  0  0  0  0  0  0  0  0  0
   -6.2158    2.1304    0.0670 H   0  0  0  0  0  0  0  0  0  0  0  0
   -6.4861    0.5200    0.1215 H   0  0  0  0  0  0  0  0  0  0  0  0
   -6.0109    1.2198   -1.3486 H   0  0  0  0  0  0  0  0  0  0  0  0
   -4.5036    1.0184    0.1682 C   0  0  0  0  0  0  0  0  0  0  0  0
   -3.9063   -0.0918   -0.2321 N   0  0  0  0  0  0  0  0  0  0  0  0
   -4.4108   -0.7403   -0.8120 H   0  0  0  0  0  0  0  0  0  0  0  0
   -2.9675   -0.2883    0.0352 H   0  0  0  0  0  0  0  0  0  0  0  0
   -3.9547    1.8486    0.8745 O   0  0  0  0  0  0  0  0  0  0  0  0
   -1.1377   -2.1653   -0.0917 C   0  0  0  0  0  0  0  0  0  0  0  0
   -0.1953   -2.4966   -0.0944 H   0  0  0  0  0  0  0  0  0  0  0  0
   -1.5999   -2.4563   -1.0350 H   0  0  0  0  0  0  0  0  0  0  0  0
   -1.6802   -2.5867    0.7547 H   0  0  0  0  0  0  0  0  0  0  0  0
   -1.1283   -0.7189   -0.0000 N   0  0  0  0  0  0  0  0  0  0  0  0
   -1.9984   -0.1405    0.0722 H   0  0  0  0  0  0  0  0  0  0  0  0
    0.0000    0.0000    0.0000 C   0  0  0  0  0  0  0  0  0  0  0  0
    1.1283   -0.4980   -0.0000 O   0  0  0  0  0  0  0  0  0  0  0  0
   -0.1778    1.5231    0.0496 C   0  0  0  0  0  0  0  0  0  0  0  0
   -1.1543    1.7228   -0.0433 H   0  0  0  0  0  0  0  0  0  0  0  0
    0.1778    1.8979    1.0094 H   0  0  0  0  0  0  0  0  0  0  0  0
    0.3513    2.0321   -0.7562 H   0  0  0  0  0  0  0  0  0  0  0  0
  1  5  1  0
  5  6  1  0
  5  9  2  0
  1  2  1  0
  1  3  1  0
  1  4  1  0
  6  7  1  0
  6  8  1  0
 10 14  1  0
 14 16  1  0
 16 17  2  0
 16 18  1  0
 10 11  1  0
 10 12  1  0
 10 13  1  0
 14 15  1  0
 18 19  1  0
 18 20  1  0
 18 21  1  0
M  END
>  <PDB_ID>  (791) 
pdb5gqc

>  <RESIDUE_NAME>  (791) 
ASN   LEU

>  <FRAG_NAME>  (791) 
ACEM   NMA

>  <FRAG_ATOM_NUM>  (791) 
fragi: 9  fragj: 12

>  <atom.prop.CHAIN_ID>  (791) 
A A A A A A A A A Z Z Z Z Z Z Z Z Z Z Z Z

>  <atom.prop.IS_HEAVY_ATOM>  (791) 
1 0 0 0 1 1 0 0 1 1 0 0 0 1 0 1 1 1 0 0 0

>  <DIFUSE_FUNC_ATOM>  (791) 
n/a

>  <FINAL_SINGLE_POINT_ENERGY>  (791) 
0

>  <NONCOV_INTER_ENERGY_QM>  (791) 
0

>  <FF_Energy>  (791) 
5.11

>  <QM_Energy>  (791) 
25.6

>  <source>  (791) 
ACEM_nNMA_58

>  <Index>  (791) 
14676

$$$$
ACEM-pdb5hsz-A-GLN-198:NMA-pdb5hsz-A-TYR-151
     RDKit          3D

 21 19  0  0  0  0  0  0  0  0999 V2000
   -4.1738    1.4105   -2.2782 C   0  0  0  0  0  0  0  0  0  0  0  0
   -3.9695    1.2339   -3.2413 H   0  0  0  0  0  0  0  0  0  0  0  0
   -3.9943    2.3724   -2.0718 H   0  0  0  0  0  0  0  0  0  0  0  0
   -5.2327    1.2144   -2.1097 H   0  0  0  0  0  0  0  0  0  0  0  0
   -3.2937    0.5521   -1.4252 C   0  0  0  0  0  0  0  0  0  0  0  0
   -3.3703    0.7371   -0.1152 N   0  0  0  0  0  0  0  0  0  0  0  0
   -2.8117    0.1801    0.5340 H   0  0  0  0  0  0  0  0  0  0  0  0
   -4.0031    1.4533    0.2456 H   0  0  0  0  0  0  0  0  0  0  0  0
   -2.5685   -0.2924   -1.9350 O   0  0  0  0  0  0  0  0  0  0  0  0
   -1.1209   -2.1694   -0.0696 C   0  0  0  0  0  0  0  0  0  0  0  0
   -0.4754   -2.5243    0.6183 H   0  0  0  0  0  0  0  0  0  0  0  0
   -0.7984   -2.5187   -1.0505 H   0  0  0  0  0  0  0  0  0  0  0  0
   -2.1140   -2.5687    0.1364 H   0  0  0  0  0  0  0  0  0  0  0  0
   -1.1201   -0.7133   -0.0000 N   0  0  0  0  0  0  0  0  0  0  0  0
   -1.9944   -0.1443    0.0536 H   0  0  0  0  0  0  0  0  0  0  0  0
    0.0000    0.0000    0.0000 C   0  0  0  0  0  0  0  0  0  0  0  0
    1.1201   -0.5085   -0.0000 O   0  0  0  0  0  0  0  0  0  0  0  0
   -0.1720    1.5165    0.0046 C   0  0  0  0  0  0  0  0  0  0  0  0
   -1.0695    1.7268    0.4064 H   0  0  0  0  0  0  0  0  0  0  0  0
    0.5978    1.9892    0.6146 H   0  0  0  0  0  0  0  0  0  0  0  0
   -0.1463    1.8948   -1.0174 H   0  0  0  0  0  0  0  0  0  0  0  0
  1  5  1  0
  5  6  1  0
  5  9  2  0
  1  2  1  0
  1  3  1  0
  1  4  1  0
  6  7  1  0
  6  8  1  0
 10 14  1  0
 14 16  1  0
 16 17  2  0
 16 18  1  0
 10 11  1  0
 10 12  1  0
 10 13  1  0
 14 15  1  0
 18 19  1  0
 18 20  1  0
 18 21  1  0
M  END
>  <PDB_ID>  (792) 
pdb5hsz

>  <RESIDUE_NAME>  (792) 
GLN   TYR

>  <FRAG_NAME>  (792) 
ACEM   NMA

>  <FRAG_ATOM_NUM>  (792) 
fragi: 9  fragj: 12

>  <atom.prop.CHAIN_ID>  (792) 
A A A A A A A A A Z Z Z Z Z Z Z Z Z Z Z Z

>  <atom.prop.IS_HEAVY_ATOM>  (792) 
1 0 0 0 1 1 0 0 1 1 0 0 0 1 0 1 1 1 0 0 0

>  <DIFUSE_FUNC_ATOM>  (792) 
n/a

>  <FINAL_SINGLE_POINT_ENERGY>  (792) 
0

>  <NONCOV_INTER_ENERGY_QM>  (792) 
0

>  <FF_Energy>  (792) 
28.78

>  <QM_Energy>  (792) 
39.26

>  <source>  (792) 
ACEM_nNMA_58

>  <Index>  (792) 
17134

$$$$
ACEM-pdb6i96-A-GLN-537:NMA-pdb6i96-A-GLY-271
     RDKit          3D

 21 19  0  0  0  0  0  0  0  0999 V2000
   -5.5953    1.9473    0.5302 C   0  0  0  0  0  0  0  0  0  0  0  0
   -5.5377    2.9288    0.3945 H   0  0  0  0  0  0  0  0  0  0  0  0
   -5.6291    1.7278    1.4979 H   0  0  0  0  0  0  0  0  0  0  0  0
   -6.5162    1.5922    0.0678 H   0  0  0  0  0  0  0  0  0  0  0  0
   -4.3796    1.2902   -0.0870 C   0  0  0  0  0  0  0  0  0  0  0  0
   -3.8563    0.2344    0.5872 N   0  0  0  0  0  0  0  0  0  0  0  0
   -3.0574   -0.2555    0.2248 H   0  0  0  0  0  0  0  0  0  0  0  0
   -4.2967   -0.0368    1.4601 H   0  0  0  0  0  0  0  0  0  0  0  0
   -3.9425    1.7036   -1.2062 O   0  0  0  0  0  0  0  0  0  0  0  0
   -1.1350   -2.1364    0.2238 C   0  0  0  0  0  0  0  0  0  0  0  0
   -0.7415   -2.3431    1.1300 H   0  0  0  0  0  0  0  0  0  0  0  0
   -0.5307   -2.6433   -0.5286 H   0  0  0  0  0  0  0  0  0  0  0  0
   -2.1373   -2.5629    0.1827 H   0  0  0  0  0  0  0  0  0  0  0  0
   -1.1259   -0.7382   -0.0000 N   0  0  0  0  0  0  0  0  0  0  0  0
   -1.9895   -0.1613   -0.1834 H   0  0  0  0  0  0  0  0  0  0  0  0
    0.0000    0.0000    0.0000 C   0  0  0  0  0  0  0  0  0  0  0  0
    1.1259   -0.4879    0.0000 O   0  0  0  0  0  0  0  0  0  0  0  0
   -0.1780    1.5524    0.0253 C   0  0  0  0  0  0  0  0  0  0  0  0
   -0.0103    1.8748    0.9646 H   0  0  0  0  0  0  0  0  0  0  0  0
   -1.1321    1.7661   -0.2164 H   0  0  0  0  0  0  0  0  0  0  0  0
    0.4998    2.0543   -0.6653 H   0  0  0  0  0  0  0  0  0  0  0  0
  1  5  1  0
  5  6  1  0
  5  9  2  0
  1  2  1  0
  1  3  1  0
  1  4  1  0
  6  7  1  0
  6  8  1  0
 10 14  1  0
 14 16  1  0
 16 17  2  0
 16 18  1  0
 10 11  1  0
 10 12  1  0
 10 13  1  0
 14 15  1  0
 18 19  1  0
 18 20  1  0
 18 21  1  0
M  END
>  <PDB_ID>  (793) 
pdb6i96

>  <RESIDUE_NAME>  (793) 
GLN   GLY

>  <FRAG_NAME>  (793) 
ACEM   NMA

>  <FRAG_ATOM_NUM>  (793) 
fragi: 9  fragj: 12

>  <atom.prop.CHAIN_ID>  (793) 
A A A A A A A A A Z Z Z Z Z Z Z Z Z Z Z Z

>  <atom.prop.IS_HEAVY_ATOM>  (793) 
1 0 0 0 1 1 0 0 1 1 0 0 0 1 0 1 1 1 0 0 0

>  <DIFUSE_FUNC_ATOM>  (793) 
n/a

>  <FINAL_SINGLE_POINT_ENERGY>  (793) 
0

>  <NONCOV_INTER_ENERGY_QM>  (793) 
0

>  <FF_Energy>  (793) 
2.06

>  <QM_Energy>  (793) 
13.95

>  <source>  (793) 
ACEM_nNMA_58

>  <Index>  (793) 
17429

$$$$
ACEM-pdb6hzf-C-GLN-826:NMA-pdb6hzf-C-ASH-823
     RDKit          3D

 21 19  0  0  0  0  0  0  0  0999 V2000
   -6.2001   -0.5373    0.1548 C   0  0  0  0  0  0  0  0  0  0  0  0
   -6.6324    0.1844   -0.4011 H   0  0  0  0  0  0  0  0  0  0  0  0
   -6.7583   -0.6713    0.9841 H   0  0  0  0  0  0  0  0  0  0  0  0
   -6.2258   -1.4631   -0.4198 H   0  0  0  0  0  0  0  0  0  0  0  0
   -4.8239   -0.0850    0.5585 C   0  0  0  0  0  0  0  0  0  0  0  0
   -3.8328   -0.3954   -0.2942 N   0  0  0  0  0  0  0  0  0  0  0  0
   -2.8748   -0.1111   -0.0970 H   0  0  0  0  0  0  0  0  0  0  0  0
   -4.0590   -0.9161   -1.1336 H   0  0  0  0  0  0  0  0  0  0  0  0
   -4.6272    0.4638    1.6515 O   0  0  0  0  0  0  0  0  0  0  0  0
   -1.1812   -2.2089   -0.1309 C   0  0  0  0  0  0  0  0  0  0  0  0
   -0.2413   -2.5495   -0.0905 H   0  0  0  0  0  0  0  0  0  0  0  0
   -1.6137   -2.4916   -1.0906 H   0  0  0  0  0  0  0  0  0  0  0  0
   -1.7753   -2.6068    0.6919 H   0  0  0  0  0  0  0  0  0  0  0  0
   -1.1230   -0.7141    0.0000 N   0  0  0  0  0  0  0  0  0  0  0  0
   -1.9996   -0.1432    0.1016 H   0  0  0  0  0  0  0  0  0  0  0  0
    0.0000    0.0000    0.0000 C   0  0  0  0  0  0  0  0  0  0  0  0
    1.1230   -0.5028    0.0000 O   0  0  0  0  0  0  0  0  0  0  0  0
   -0.0969    1.5330    0.1440 C   0  0  0  0  0  0  0  0  0  0  0  0
    0.6073    1.9260   -0.4501 H   0  0  0  0  0  0  0  0  0  0  0  0
   -1.0600    1.8887   -0.2221 H   0  0  0  0  0  0  0  0  0  0  0  0
    0.0455    1.7944    1.1926 H   0  0  0  0  0  0  0  0  0  0  0  0
  1  5  1  0
  5  6  1  0
  5  9  2  0
  1  2  1  0
  1  3  1  0
  1  4  1  0
  6  7  1  0
  6  8  1  0
 10 14  1  0
 14 16  1  0
 16 17  2  0
 16 18  1  0
 10 11  1  0
 10 12  1  0
 10 13  1  0
 14 15  1  0
 18 19  1  0
 18 20  1  0
 18 21  1  0
M  END
>  <PDB_ID>  (794) 
pdb6hzf

>  <RESIDUE_NAME>  (794) 
GLN   ASH

>  <FRAG_NAME>  (794) 
ACEM   NMA

>  <FRAG_ATOM_NUM>  (794) 
fragi: 9  fragj: 12

>  <atom.prop.CHAIN_ID>  (794) 
A A A A A A A A A Z Z Z Z Z Z Z Z Z Z Z Z

>  <atom.prop.IS_HEAVY_ATOM>  (794) 
1 0 0 0 1 1 0 0 1 1 0 0 0 1 0 1 1 1 0 0 0

>  <DIFUSE_FUNC_ATOM>  (794) 
n/a

>  <FINAL_SINGLE_POINT_ENERGY>  (794) 
0

>  <NONCOV_INTER_ENERGY_QM>  (794) 
0

>  <FF_Energy>  (794) 
13.9

>  <QM_Energy>  (794) 
36.09

>  <source>  (794) 
ACEM_nNMA_58

>  <Index>  (794) 
17969

$$$$
ACEM-pdb5gqc-G-GLN-456:NMA-pdb5gqc-G-SER-559
     RDKit          3D

 21 19  0  0  0  0  0  0  0  0999 V2000
   -5.3196   -0.0780   -2.7451 C   0  0  0  0  0  0  0  0  0  0  0  0
   -5.1740    0.1669   -3.6900 H   0  0  0  0  0  0  0  0  0  0  0  0
   -5.8260    0.6181   -2.2620 H   0  0  0  0  0  0  0  0  0  0  0  0
   -5.8976   -1.0016   -2.7172 H   0  0  0  0  0  0  0  0  0  0  0  0
   -3.9575   -0.2648   -2.0658 C   0  0  0  0  0  0  0  0  0  0  0  0
   -3.8935   -0.0152   -0.7507 N   0  0  0  0  0  0  0  0  0  0  0  0
   -3.0348   -0.1318   -0.2465 H   0  0  0  0  0  0  0  0  0  0  0  0
   -4.7413    0.2970   -0.2788 H   0  0  0  0  0  0  0  0  0  0  0  0
   -2.9742   -0.5764   -2.7197 O   0  0  0  0  0  0  0  0  0  0  0  0
   -1.0297   -2.1914   -0.0590 C   0  0  0  0  0  0  0  0  0  0  0  0
   -0.4019   -2.5082    0.6578 H   0  0  0  0  0  0  0  0  0  0  0  0
   -0.6428   -2.5142   -1.0256 H   0  0  0  0  0  0  0  0  0  0  0  0
   -1.9879   -2.6506    0.1840 H   0  0  0  0  0  0  0  0  0  0  0  0
   -1.1142   -0.7283    0.0000 N   0  0  0  0  0  0  0  0  0  0  0  0
   -1.9926   -0.2033    0.0427 H   0  0  0  0  0  0  0  0  0  0  0  0
    0.0000    0.0000    0.0000 C   0  0  0  0  0  0  0  0  0  0  0  0
    1.1142   -0.5151   -0.0000 O   0  0  0  0  0  0  0  0  0  0  0  0
   -0.1073    1.5121   -0.0372 C   0  0  0  0  0  0  0  0  0  0  0  0
    0.2835    1.8288   -0.9175 H   0  0  0  0  0  0  0  0  0  0  0  0
   -1.1409    1.8538    0.0195 H   0  0  0  0  0  0  0  0  0  0  0  0
    0.4820    1.9557    0.7652 H   0  0  0  0  0  0  0  0  0  0  0  0
  1  5  1  0
  5  6  1  0
  5  9  2  0
  1  2  1  0
  1  3  1  0
  1  4  1  0
  6  7  1  0
  6  8  1  0
 10 14  1  0
 14 16  1  0
 16 17  2  0
 16 18  1  0
 10 11  1  0
 10 12  1  0
 10 13  1  0
 14 15  1  0
 18 19  1  0
 18 20  1  0
 18 21  1  0
M  END
>  <PDB_ID>  (795) 
pdb5gqc

>  <RESIDUE_NAME>  (795) 
GLN   SER

>  <FRAG_NAME>  (795) 
ACEM   NMA

>  <FRAG_ATOM_NUM>  (795) 
fragi: 9  fragj: 12

>  <atom.prop.CHAIN_ID>  (795) 
A A A A A A A A A Z Z Z Z Z Z Z Z Z Z Z Z

>  <atom.prop.IS_HEAVY_ATOM>  (795) 
1 0 0 0 1 1 0 0 1 1 0 0 0 1 0 1 1 1 0 0 0

>  <DIFUSE_FUNC_ATOM>  (795) 
n/a

>  <FINAL_SINGLE_POINT_ENERGY>  (795) 
0

>  <NONCOV_INTER_ENERGY_QM>  (795) 
0

>  <FF_Energy>  (795) 
8.5

>  <QM_Energy>  (795) 
19.14

>  <source>  (795) 
ACEM_nNMA_58

>  <Index>  (795) 
25225

$$$$
ACEM-pdb5i0n-A-GLN-289:NMA-pdb5i0n-A-PRO-338
     RDKit          3D

 21 19  0  0  0  0  0  0  0  0999 V2000
   -4.9465    1.8926   -2.2522 C   0  0  0  0  0  0  0  0  0  0  0  0
   -4.7965    2.8735   -2.3643 H   0  0  0  0  0  0  0  0  0  0  0  0
   -5.8907    1.7276   -1.9707 H   0  0  0  0  0  0  0  0  0  0  0  0
   -4.7754    1.4005   -3.2096 H   0  0  0  0  0  0  0  0  0  0  0  0
   -4.0200    1.3835   -1.1634 C   0  0  0  0  0  0  0  0  0  0  0  0
   -3.3785    0.2487   -1.4161 N   0  0  0  0  0  0  0  0  0  0  0  0
   -2.7302   -0.1468   -0.7388 H   0  0  0  0  0  0  0  0  0  0  0  0
   -3.5458   -0.2239   -2.3034 H   0  0  0  0  0  0  0  0  0  0  0  0
   -3.8866    2.0000   -0.1057 O   0  0  0  0  0  0  0  0  0  0  0  0
   -1.1087   -2.1691    0.0298 C   0  0  0  0  0  0  0  0  0  0  0  0
   -0.3859   -2.4645    0.6707 H   0  0  0  0  0  0  0  0  0  0  0  0
   -0.8809   -2.5936   -0.9479 H   0  0  0  0  0  0  0  0  0  0  0  0
   -2.0623   -2.5609    0.3837 H   0  0  0  0  0  0  0  0  0  0  0  0
   -1.1218   -0.7107   -0.0000 N   0  0  0  0  0  0  0  0  0  0  0  0
   -1.9955   -0.1467   -0.0231 H   0  0  0  0  0  0  0  0  0  0  0  0
    0.0000    0.0000    0.0000 C   0  0  0  0  0  0  0  0  0  0  0  0
    1.1218   -0.5059    0.0000 O   0  0  0  0  0  0  0  0  0  0  0  0
   -0.1506    1.5185    0.0043 C   0  0  0  0  0  0  0  0  0  0  0  0
   -1.0868    1.7837    0.2733 H   0  0  0  0  0  0  0  0  0  0  0  0
    0.5855    1.9930    0.6532 H   0  0  0  0  0  0  0  0  0  0  0  0
    0.0722    1.9394   -0.9761 H   0  0  0  0  0  0  0  0  0  0  0  0
  1  5  1  0
  5  6  1  0
  5  9  2  0
  1  2  1  0
  1  3  1  0
  1  4  1  0
  6  7  1  0
  6  8  1  0
 10 14  1  0
 14 16  1  0
 16 17  2  0
 16 18  1  0
 10 11  1  0
 10 12  1  0
 10 13  1  0
 14 15  1  0
 18 19  1  0
 18 20  1  0
 18 21  1  0
M  END
>  <PDB_ID>  (796) 
pdb5i0n

>  <RESIDUE_NAME>  (796) 
GLN   PRO

>  <FRAG_NAME>  (796) 
ACEM   NMA

>  <FRAG_ATOM_NUM>  (796) 
fragi: 9  fragj: 12

>  <atom.prop.CHAIN_ID>  (796) 
A A A A A A A A A Z Z Z Z Z Z Z Z Z Z Z Z

>  <atom.prop.IS_HEAVY_ATOM>  (796) 
1 0 0 0 1 1 0 0 1 1 0 0 0 1 0 1 1 1 0 0 0

>  <DIFUSE_FUNC_ATOM>  (796) 
n/a

>  <FINAL_SINGLE_POINT_ENERGY>  (796) 
0

>  <NONCOV_INTER_ENERGY_QM>  (796) 
0

>  <FF_Energy>  (796) 
4.88

>  <QM_Energy>  (796) 
22.0

>  <source>  (796) 
ACEM_nNMA_58

>  <Index>  (796) 
26429

$$$$
ACEM-pdb6inr-A-ASN-17:NMA-pdb6inr-A-LEU-82
     RDKit          3D

 21 19  0  0  0  0  0  0  0  0999 V2000
   -5.5889    0.5711   -1.6261 C   0  0  0  0  0  0  0  0  0  0  0  0
   -6.2927   -0.1259   -1.7222 H   0  0  0  0  0  0  0  0  0  0  0  0
   -5.5247    1.1128   -2.4587 H   0  0  0  0  0  0  0  0  0  0  0  0
   -5.8695    1.2329   -0.8069 H   0  0  0  0  0  0  0  0  0  0  0  0
   -4.2672   -0.1018   -1.3789 C   0  0  0  0  0  0  0  0  0  0  0  0
   -3.9281   -0.2540   -0.1149 N   0  0  0  0  0  0  0  0  0  0  0  0
   -4.5295    0.0592    0.6217 H   0  0  0  0  0  0  0  0  0  0  0  0
   -3.0531   -0.6926    0.1230 H   0  0  0  0  0  0  0  0  0  0  0  0
   -3.5597   -0.5099   -2.3202 O   0  0  0  0  0  0  0  0  0  0  0  0
   -1.2307   -2.2011    0.0242 C   0  0  0  0  0  0  0  0  0  0  0  0
   -2.0507   -2.4417   -0.5171 H   0  0  0  0  0  0  0  0  0  0  0  0
   -1.3704   -2.6085    1.0255 H   0  0  0  0  0  0  0  0  0  0  0  0
   -0.3597   -2.6660   -0.4378 H   0  0  0  0  0  0  0  0  0  0  0  0
   -1.1367   -0.7096    0.0000 N   0  0  0  0  0  0  0  0  0  0  0  0
   -2.0081   -0.1082   -0.0190 H   0  0  0  0  0  0  0  0  0  0  0  0
    0.0000    0.0000    0.0000 C   0  0  0  0  0  0  0  0  0  0  0  0
    1.1367   -0.4858   -0.0000 O   0  0  0  0  0  0  0  0  0  0  0  0
   -0.2006    1.5258   -0.0002 C   0  0  0  0  0  0  0  0  0  0  0  0
   -1.1672    1.7194    0.2186 H   0  0  0  0  0  0  0  0  0  0  0  0
    0.4190    2.0364    0.7371 H   0  0  0  0  0  0  0  0  0  0  0  0
   -0.0620    1.9180   -1.0076 H   0  0  0  0  0  0  0  0  0  0  0  0
  1  5  1  0
  5  6  1  0
  5  9  2  0
  1  2  1  0
  1  3  1  0
  1  4  1  0
  6  7  1  0
  6  8  1  0
 10 14  1  0
 14 16  1  0
 16 17  2  0
 16 18  1  0
 10 11  1  0
 10 12  1  0
 10 13  1  0
 14 15  1  0
 18 19  1  0
 18 20  1  0
 18 21  1  0
M  END
>  <PDB_ID>  (797) 
pdb6inr

>  <RESIDUE_NAME>  (797) 
ASN   LEU

>  <FRAG_NAME>  (797) 
ACEM   NMA

>  <FRAG_ATOM_NUM>  (797) 
fragi: 9  fragj: 12

>  <atom.prop.CHAIN_ID>  (797) 
A A A A A A A A A Z Z Z Z Z Z Z Z Z Z Z Z

>  <atom.prop.IS_HEAVY_ATOM>  (797) 
1 0 0 0 1 1 0 0 1 1 0 0 0 1 0 1 1 1 0 0 0

>  <DIFUSE_FUNC_ATOM>  (797) 
n/a

>  <FINAL_SINGLE_POINT_ENERGY>  (797) 
0

>  <NONCOV_INTER_ENERGY_QM>  (797) 
0

>  <FF_Energy>  (797) 
4.21

>  <QM_Energy>  (797) 
14.24

>  <source>  (797) 
ACEM_nNMA_58

>  <Index>  (797) 
28298

$$$$
ACEM-pdb5i33-A-GLN-425:NMA-pdb5i33-A-PRO-421
     RDKit          3D

 21 19  0  0  0  0  0  0  0  0999 V2000
   -4.6735   -1.5669   -2.0973 C   0  0  0  0  0  0  0  0  0  0  0  0
   -5.5992   -1.8010   -2.3994 H   0  0  0  0  0  0  0  0  0  0  0  0
   -4.2241   -2.3879   -1.7409 H   0  0  0  0  0  0  0  0  0  0  0  0
   -4.1070   -1.1987   -2.9526 H   0  0  0  0  0  0  0  0  0  0  0  0
   -4.7799   -0.5500   -0.9700 C   0  0  0  0  0  0  0  0  0  0  0  0
   -3.6588   -0.2902   -0.3029 N   0  0  0  0  0  0  0  0  0  0  0  0
   -3.6503    0.3878    0.4529 H   0  0  0  0  0  0  0  0  0  0  0  0
   -2.8076   -0.7845   -0.5636 H   0  0  0  0  0  0  0  0  0  0  0  0
   -5.8589   -0.0219   -0.6888 O   0  0  0  0  0  0  0  0  0  0  0  0
   -1.1066   -2.1704    0.0291 C   0  0  0  0  0  0  0  0  0  0  0  0
   -0.5329   -2.4867    0.8116 H   0  0  0  0  0  0  0  0  0  0  0  0
   -2.0514   -2.5083    0.2143 H   0  0  0  0  0  0  0  0  0  0  0  0
   -0.7381   -2.6255   -0.8903 H   0  0  0  0  0  0  0  0  0  0  0  0
   -1.1165   -0.7189   -0.0000 N   0  0  0  0  0  0  0  0  0  0  0  0
   -1.9936   -0.1523   -0.0224 H   0  0  0  0  0  0  0  0  0  0  0  0
    0.0000    0.0000    0.0000 C   0  0  0  0  0  0  0  0  0  0  0  0
    1.1165   -0.4930    0.0000 O   0  0  0  0  0  0  0  0  0  0  0  0
   -0.1615    1.5160    0.0147 C   0  0  0  0  0  0  0  0  0  0  0  0
    0.6110    1.9616   -0.4654 H   0  0  0  0  0  0  0  0  0  0  0  0
   -1.1127    1.8362   -0.4105 H   0  0  0  0  0  0  0  0  0  0  0  0
   -0.2099    1.8957    1.0352 H   0  0  0  0  0  0  0  0  0  0  0  0
  1  5  1  0
  5  6  1  0
  5  9  2  0
  1  2  1  0
  1  3  1  0
  1  4  1  0
  6  7  1  0
  6  8  1  0
 10 14  1  0
 14 16  1  0
 16 17  2  0
 16 18  1  0
 10 11  1  0
 10 12  1  0
 10 13  1  0
 14 15  1  0
 18 19  1  0
 18 20  1  0
 18 21  1  0
M  END
>  <PDB_ID>  (798) 
pdb5i33

>  <RESIDUE_NAME>  (798) 
GLN   PRO

>  <FRAG_NAME>  (798) 
ACEM   NMA

>  <FRAG_ATOM_NUM>  (798) 
fragi: 9  fragj: 12

>  <atom.prop.CHAIN_ID>  (798) 
A A A A A A A A A Z Z Z Z Z Z Z Z Z Z Z Z

>  <atom.prop.IS_HEAVY_ATOM>  (798) 
1 0 0 0 1 1 0 0 1 1 0 0 0 1 0 1 1 1 0 0 0

>  <DIFUSE_FUNC_ATOM>  (798) 
n/a

>  <FINAL_SINGLE_POINT_ENERGY>  (798) 
0

>  <NONCOV_INTER_ENERGY_QM>  (798) 
0

>  <FF_Energy>  (798) 
12.41

>  <QM_Energy>  (798) 
25.53

>  <source>  (798) 
ACEM_nNMA_58

>  <Index>  (798) 
28356

$$$$
ACEM-pdb5i4q-C-GLN-291:NMA-pdb5i4q-C-ILE-287
     RDKit          3D

 21 19  0  0  0  0  0  0  0  0999 V2000
   -5.1217   -0.4182    1.5072 C   0  0  0  0  0  0  0  0  0  0  0  0
   -5.7073   -0.4829    2.3064 H   0  0  0  0  0  0  0  0  0  0  0  0
   -4.5695   -1.2375    1.4092 H   0  0  0  0  0  0  0  0  0  0  0  0
   -5.7392   -0.2914    0.6179 H   0  0  0  0  0  0  0  0  0  0  0  0
   -4.2090    0.7644    1.6708 C   0  0  0  0  0  0  0  0  0  0  0  0
   -3.0668    0.7642    0.9369 N   0  0  0  0  0  0  0  0  0  0  0  0
   -2.4218    1.5318    0.9897 H   0  0  0  0  0  0  0  0  0  0  0  0
   -2.8908   -0.0360    0.3365 H   0  0  0  0  0  0  0  0  0  0  0  0
   -4.4932    1.6436    2.4960 O   0  0  0  0  0  0  0  0  0  0  0  0
   -1.0622   -2.1889   -0.0212 C   0  0  0  0  0  0  0  0  0  0  0  0
   -0.2276   -2.4909   -0.5097 H   0  0  0  0  0  0  0  0  0  0  0  0
   -1.9337   -2.6388   -0.4968 H   0  0  0  0  0  0  0  0  0  0  0  0
   -0.8780   -2.6024    0.9703 H   0  0  0  0  0  0  0  0  0  0  0  0
   -1.1120   -0.7209    0.0000 N   0  0  0  0  0  0  0  0  0  0  0  0
   -1.9926   -0.1820    0.0156 H   0  0  0  0  0  0  0  0  0  0  0  0
    0.0000    0.0000    0.0000 C   0  0  0  0  0  0  0  0  0  0  0  0
    1.1120   -0.5272    0.0000 O   0  0  0  0  0  0  0  0  0  0  0  0
   -0.1446    1.5304    0.0606 C   0  0  0  0  0  0  0  0  0  0  0  0
   -0.9301    1.7105    0.6484 H   0  0  0  0  0  0  0  0  0  0  0  0
    0.7291    1.9496    0.5595 H   0  0  0  0  0  0  0  0  0  0  0  0
   -0.2405    2.0096   -0.9136 H   0  0  0  0  0  0  0  0  0  0  0  0
  1  5  1  0
  5  6  1  0
  5  9  2  0
  1  2  1  0
  1  3  1  0
  1  4  1  0
  6  7  1  0
  6  8  1  0
 10 14  1  0
 14 16  1  0
 16 17  2  0
 16 18  1  0
 10 11  1  0
 10 12  1  0
 10 13  1  0
 14 15  1  0
 18 19  1  0
 18 20  1  0
 18 21  1  0
M  END
>  <PDB_ID>  (799) 
pdb5i4q

>  <RESIDUE_NAME>  (799) 
GLN   ILE

>  <FRAG_NAME>  (799) 
ACEM   NMA

>  <FRAG_ATOM_NUM>  (799) 
fragi: 9  fragj: 12

>  <atom.prop.CHAIN_ID>  (799) 
A A A A A A A A A Z Z Z Z Z Z Z Z Z Z Z Z

>  <atom.prop.IS_HEAVY_ATOM>  (799) 
1 0 0 0 1 1 0 0 1 1 0 0 0 1 0 1 1 1 0 0 0

>  <DIFUSE_FUNC_ATOM>  (799) 
n/a

>  <FINAL_SINGLE_POINT_ENERGY>  (799) 
0

>  <NONCOV_INTER_ENERGY_QM>  (799) 
0

>  <FF_Energy>  (799) 
20.54

>  <QM_Energy>  (799) 
40.29

>  <source>  (799) 
ACEM_nNMA_58

>  <Index>  (799) 
28880

$$$$
ACEM-pdb5ie0-A-GLN-118:NMA-pdb5ie0-A-GLY-113
     RDKit          3D

 21 19  0  0  0  0  0  0  0  0999 V2000
   -5.4170    0.2632   -0.2080 C   0  0  0  0  0  0  0  0  0  0  0  0
   -5.9457    0.9328    0.3129 H   0  0  0  0  0  0  0  0  0  0  0  0
   -4.8486   -0.2730    0.4168 H   0  0  0  0  0  0  0  0  0  0  0  0
   -6.1085   -0.4095   -0.7155 H   0  0  0  0  0  0  0  0  0  0  0  0
   -4.5117    1.0063   -1.1702 C   0  0  0  0  0  0  0  0  0  0  0  0
   -3.2066    0.8169   -1.0231 N   0  0  0  0  0  0  0  0  0  0  0  0
   -2.5383    1.2711   -1.6393 H   0  0  0  0  0  0  0  0  0  0  0  0
   -2.8795    0.2053   -0.2755 H   0  0  0  0  0  0  0  0  0  0  0  0
   -4.9820    1.7493   -2.0298 O   0  0  0  0  0  0  0  0  0  0  0  0
   -1.1634   -2.1601    0.0295 C   0  0  0  0  0  0  0  0  0  0  0  0
   -0.3706   -2.4914   -0.4778 H   0  0  0  0  0  0  0  0  0  0  0  0
   -2.0503   -2.4933   -0.5095 H   0  0  0  0  0  0  0  0  0  0  0  0
   -1.1704   -2.5226    1.0575 H   0  0  0  0  0  0  0  0  0  0  0  0
   -1.1235   -0.7065   -0.0000 N   0  0  0  0  0  0  0  0  0  0  0  0
   -1.9963   -0.1156   -0.0238 H   0  0  0  0  0  0  0  0  0  0  0  0
    0.0000    0.0000    0.0000 C   0  0  0  0  0  0  0  0  0  0  0  0
    1.1235   -0.5056    0.0000 O   0  0  0  0  0  0  0  0  0  0  0  0
   -0.1949    1.5029    0.0045 C   0  0  0  0  0  0  0  0  0  0  0  0
   -0.6585    1.7750    0.8777 H   0  0  0  0  0  0  0  0  0  0  0  0
   -0.8511    1.7555   -0.7422 H   0  0  0  0  0  0  0  0  0  0  0  0
    0.7194    2.0850   -0.1112 H   0  0  0  0  0  0  0  0  0  0  0  0
  1  5  1  0
  5  6  1  0
  5  9  2  0
  1  2  1  0
  1  3  1  0
  1  4  1  0
  6  7  1  0
  6  8  1  0
 10 14  1  0
 14 16  1  0
 16 17  2  0
 16 18  1  0
 10 11  1  0
 10 12  1  0
 10 13  1  0
 14 15  1  0
 18 19  1  0
 18 20  1  0
 18 21  1  0
M  END
>  <PDB_ID>  (800) 
pdb5ie0

>  <RESIDUE_NAME>  (800) 
GLN   GLY

>  <FRAG_NAME>  (800) 
ACEM   NMA

>  <FRAG_ATOM_NUM>  (800) 
fragi: 9  fragj: 12

>  <atom.prop.CHAIN_ID>  (800) 
A A A A A A A A A Z Z Z Z Z Z Z Z Z Z Z Z

>  <atom.prop.IS_HEAVY_ATOM>  (800) 
1 0 0 0 1 1 0 0 1 1 0 0 0 1 0 1 1 1 0 0 0

>  <DIFUSE_FUNC_ATOM>  (800) 
n/a

>  <FINAL_SINGLE_POINT_ENERGY>  (800) 
0

>  <NONCOV_INTER_ENERGY_QM>  (800) 
0

>  <FF_Energy>  (800) 
13.76

>  <QM_Energy>  (800) 
31.1

>  <source>  (800) 
ACEM_nNMA_59

>  <Index>  (800) 
4118

$$$$
ACEM-pdb6ist-C-GLN-71:NMA-pdb6ist-C-THR-66
     RDKit          3D

 21 19  0  0  0  0  0  0  0  0999 V2000
   -4.4465    1.8845   -2.7461 C   0  0  0  0  0  0  0  0  0  0  0  0
   -5.3719    2.2309   -2.6434 H   0  0  0  0  0  0  0  0  0  0  0  0
   -4.4430    1.0545   -3.2922 H   0  0  0  0  0  0  0  0  0  0  0  0
   -3.8400    2.6396   -3.2463 H   0  0  0  0  0  0  0  0  0  0  0  0
   -3.8965    1.5555   -1.3600 C   0  0  0  0  0  0  0  0  0  0  0  0
   -3.1204    0.4821   -1.2501 N   0  0  0  0  0  0  0  0  0  0  0  0
   -2.7143    0.2179   -0.3671 H   0  0  0  0  0  0  0  0  0  0  0  0
   -2.9418   -0.0759   -2.0886 H   0  0  0  0  0  0  0  0  0  0  0  0
   -4.2465    2.2030   -0.4028 O   0  0  0  0  0  0  0  0  0  0  0  0
   -1.2095   -2.1556   -0.1130 C   0  0  0  0  0  0  0  0  0  0  0  0
   -0.3802   -2.5630    0.2838 H   0  0  0  0  0  0  0  0  0  0  0  0
   -1.2632   -2.4630   -1.1574 H   0  0  0  0  0  0  0  0  0  0  0  0
   -2.0589   -2.5066    0.4731 H   0  0  0  0  0  0  0  0  0  0  0  0
   -1.1263   -0.7099   -0.0000 N   0  0  0  0  0  0  0  0  0  0  0  0
   -1.9965   -0.1017    0.0931 H   0  0  0  0  0  0  0  0  0  0  0  0
    0.0000    0.0000    0.0000 C   0  0  0  0  0  0  0  0  0  0  0  0
    1.1263   -0.4722    0.0000 O   0  0  0  0  0  0  0  0  0  0  0  0
   -0.1861    1.5019   -0.0421 C   0  0  0  0  0  0  0  0  0  0  0  0
   -1.1674    1.7003    0.0639 H   0  0  0  0  0  0  0  0  0  0  0  0
    0.3621    1.9674    0.7769 H   0  0  0  0  0  0  0  0  0  0  0  0
    0.1008    1.8952   -1.0173 H   0  0  0  0  0  0  0  0  0  0  0  0
  1  5  1  0
  5  6  1  0
  5  9  2  0
  1  2  1  0
  1  3  1  0
  1  4  1  0
  6  7  1  0
  6  8  1  0
 10 14  1  0
 14 16  1  0
 16 17  2  0
 16 18  1  0
 10 11  1  0
 10 12  1  0
 10 13  1  0
 14 15  1  0
 18 19  1  0
 18 20  1  0
 18 21  1  0
M  END
>  <PDB_ID>  (801) 
pdb6ist

>  <RESIDUE_NAME>  (801) 
GLN   THR

>  <FRAG_NAME>  (801) 
ACEM   NMA

>  <FRAG_ATOM_NUM>  (801) 
fragi: 9  fragj: 12

>  <atom.prop.CHAIN_ID>  (801) 
A A A A A A A A A Z Z Z Z Z Z Z Z Z Z Z Z

>  <atom.prop.IS_HEAVY_ATOM>  (801) 
1 0 0 0 1 1 0 0 1 1 0 0 0 1 0 1 1 1 0 0 0

>  <DIFUSE_FUNC_ATOM>  (801) 
n/a

>  <FINAL_SINGLE_POINT_ENERGY>  (801) 
0

>  <NONCOV_INTER_ENERGY_QM>  (801) 
0

>  <FF_Energy>  (801) 
16.44

>  <QM_Energy>  (801) 
38.28

>  <source>  (801) 
ACEM_nNMA_59

>  <Index>  (801) 
6129

$$$$
ACEM-pdb6isv-A-GLN-243:NMA-pdb6isv-A-LEU-269
     RDKit          3D

 21 19  0  0  0  0  0  0  0  0999 V2000
   -4.8318    1.9374    1.6892 C   0  0  0  0  0  0  0  0  0  0  0  0
   -4.1109    2.6304    1.6261 H   0  0  0  0  0  0  0  0  0  0  0  0
   -4.8700    1.5871    2.6268 H   0  0  0  0  0  0  0  0  0  0  0  0
   -5.7914    2.3815    1.4244 H   0  0  0  0  0  0  0  0  0  0  0  0
   -4.4354    0.7706    0.7712 C   0  0  0  0  0  0  0  0  0  0  0  0
   -3.1558    0.3720    0.7919 N   0  0  0  0  0  0  0  0  0  0  0  0
   -2.8437   -0.3892    0.2280 H   0  0  0  0  0  0  0  0  0  0  0  0
   -2.5083    0.8732    1.4033 H   0  0  0  0  0  0  0  0  0  0  0  0
   -5.2886    0.2267    0.0652 O   0  0  0  0  0  0  0  0  0  0  0  0
   -1.1084   -2.1468    0.0522 C   0  0  0  0  0  0  0  0  0  0  0  0
   -0.1735   -2.4695   -0.0810 H   0  0  0  0  0  0  0  0  0  0  0  0
   -1.7205   -2.5258   -0.7662 H   0  0  0  0  0  0  0  0  0  0  0  0
   -1.4952   -2.5107    1.0042 H   0  0  0  0  0  0  0  0  0  0  0  0
   -1.1212   -0.7012   -0.0000 N   0  0  0  0  0  0  0  0  0  0  0  0
   -1.9920   -0.1334   -0.0397 H   0  0  0  0  0  0  0  0  0  0  0  0
    0.0000    0.0000    0.0000 C   0  0  0  0  0  0  0  0  0  0  0  0
    1.1212   -0.5136   -0.0000 O   0  0  0  0  0  0  0  0  0  0  0  0
   -0.1732    1.5042    0.0139 C   0  0  0  0  0  0  0  0  0  0  0  0
   -1.0238    1.7237    0.4874 H   0  0  0  0  0  0  0  0  0  0  0  0
    0.6591    1.9409    0.5658 H   0  0  0  0  0  0  0  0  0  0  0  0
   -0.2379    1.8711   -1.0104 H   0  0  0  0  0  0  0  0  0  0  0  0
  1  5  1  0
  5  6  1  0
  5  9  2  0
  1  2  1  0
  1  3  1  0
  1  4  1  0
  6  7  1  0
  6  8  1  0
 10 14  1  0
 14 16  1  0
 16 17  2  0
 16 18  1  0
 10 11  1  0
 10 12  1  0
 10 13  1  0
 14 15  1  0
 18 19  1  0
 18 20  1  0
 18 21  1  0
M  END
>  <PDB_ID>  (802) 
pdb6isv

>  <RESIDUE_NAME>  (802) 
GLN   LEU

>  <FRAG_NAME>  (802) 
ACEM   NMA

>  <FRAG_ATOM_NUM>  (802) 
fragi: 9  fragj: 12

>  <atom.prop.CHAIN_ID>  (802) 
A A A A A A A A A Z Z Z Z Z Z Z Z Z Z Z Z

>  <atom.prop.IS_HEAVY_ATOM>  (802) 
1 0 0 0 1 1 0 0 1 1 0 0 0 1 0 1 1 1 0 0 0

>  <DIFUSE_FUNC_ATOM>  (802) 
n/a

>  <FINAL_SINGLE_POINT_ENERGY>  (802) 
0

>  <NONCOV_INTER_ENERGY_QM>  (802) 
0

>  <FF_Energy>  (802) 
35.56

>  <QM_Energy>  (802) 
49.54

>  <source>  (802) 
ACEM_nNMA_59

>  <Index>  (802) 
6421

$$$$
ACEM-pdb5i2a-B-GLN-789:NMA-pdb5i2a-B-ALA-816
     RDKit          3D

 21 19  0  0  0  0  0  0  0  0999 V2000
   -5.5617    0.5282   -1.5856 C   0  0  0  0  0  0  0  0  0  0  0  0
   -5.5191    0.5945   -2.5847 H   0  0  0  0  0  0  0  0  0  0  0  0
   -5.5603    1.4509   -1.1942 H   0  0  0  0  0  0  0  0  0  0  0  0
   -6.4742    0.0087   -1.2932 H   0  0  0  0  0  0  0  0  0  0  0  0
   -4.3116   -0.1872   -1.1085 C   0  0  0  0  0  0  0  0  0  0  0  0
   -3.2544    0.5723   -0.8574 N   0  0  0  0  0  0  0  0  0  0  0  0
   -2.3844    0.1655   -0.5211 H   0  0  0  0  0  0  0  0  0  0  0  0
   -3.3237    1.5787   -1.0082 H   0  0  0  0  0  0  0  0  0  0  0  0
   -4.3031   -1.4061   -0.9612 O   0  0  0  0  0  0  0  0  0  0  0  0
   -1.0907   -2.1623   -0.0248 C   0  0  0  0  0  0  0  0  0  0  0  0
   -1.9124   -2.5096   -0.4902 H   0  0  0  0  0  0  0  0  0  0  0  0
   -0.2813   -2.4743   -0.5335 H   0  0  0  0  0  0  0  0  0  0  0  0
   -1.0552   -2.5552    0.9913 H   0  0  0  0  0  0  0  0  0  0  0  0
   -1.1210   -0.7132    0.0000 N   0  0  0  0  0  0  0  0  0  0  0  0
   -1.9937   -0.1535    0.0187 H   0  0  0  0  0  0  0  0  0  0  0  0
    0.0000    0.0000    0.0000 C   0  0  0  0  0  0  0  0  0  0  0  0
    1.1210   -0.5077   -0.0000 O   0  0  0  0  0  0  0  0  0  0  0  0
   -0.1601    1.5114    0.0008 C   0  0  0  0  0  0  0  0  0  0  0  0
   -1.0831    1.7403   -0.3252 H   0  0  0  0  0  0  0  0  0  0  0  0
   -0.0406    1.9067    1.0096 H   0  0  0  0  0  0  0  0  0  0  0  0
    0.5529    1.9645   -0.6879 H   0  0  0  0  0  0  0  0  0  0  0  0
  1  5  1  0
  5  6  1  0
  5  9  2  0
  1  2  1  0
  1  3  1  0
  1  4  1  0
  6  7  1  0
  6  8  1  0
 10 14  1  0
 14 16  1  0
 16 17  2  0
 16 18  1  0
 10 11  1  0
 10 12  1  0
 10 13  1  0
 14 15  1  0
 18 19  1  0
 18 20  1  0
 18 21  1  0
M  END
>  <PDB_ID>  (803) 
pdb5i2a

>  <RESIDUE_NAME>  (803) 
GLN   ALA

>  <FRAG_NAME>  (803) 
ACEM   NMA

>  <FRAG_ATOM_NUM>  (803) 
fragi: 9  fragj: 12

>  <atom.prop.CHAIN_ID>  (803) 
A A A A A A A A A Z Z Z Z Z Z Z Z Z Z Z Z

>  <atom.prop.IS_HEAVY_ATOM>  (803) 
1 0 0 0 1 1 0 0 1 1 0 0 0 1 0 1 1 1 0 0 0

>  <DIFUSE_FUNC_ATOM>  (803) 
n/a

>  <FINAL_SINGLE_POINT_ENERGY>  (803) 
0

>  <NONCOV_INTER_ENERGY_QM>  (803) 
0

>  <FF_Energy>  (803) 
27.23

>  <QM_Energy>  (803) 
63.28

>  <source>  (803) 
ACEM_nNMA_59

>  <Index>  (803) 
10958

$$$$
ACEM-pdb6j4j-A-ASN-58:NMA-pdb6j4j-A-ILE-114
     RDKit          3D

 21 19  0  0  0  0  0  0  0  0999 V2000
   -5.0311    1.5929   -2.5443 C   0  0  0  0  0  0  0  0  0  0  0  0
   -5.7498    2.2524   -2.3561 H   0  0  0  0  0  0  0  0  0  0  0  0
   -5.4206    0.7179   -2.8091 H   0  0  0  0  0  0  0  0  0  0  0  0
   -4.4236    1.9663   -3.3688 H   0  0  0  0  0  0  0  0  0  0  0  0
   -4.2134    1.3940   -1.2756 C   0  0  0  0  0  0  0  0  0  0  0  0
   -3.3917    0.3527   -1.2495 N   0  0  0  0  0  0  0  0  0  0  0  0
   -3.3331   -0.2510   -2.0492 H   0  0  0  0  0  0  0  0  0  0  0  0
   -2.8349    0.1686   -0.4433 H   0  0  0  0  0  0  0  0  0  0  0  0
   -4.3219    2.1758   -0.3312 O   0  0  0  0  0  0  0  0  0  0  0  0
   -1.1280   -2.1645    0.0135 C   0  0  0  0  0  0  0  0  0  0  0  0
   -0.5709   -2.4773    0.7942 H   0  0  0  0  0  0  0  0  0  0  0  0
   -0.6965   -2.5721   -0.9007 H   0  0  0  0  0  0  0  0  0  0  0  0
   -2.1533   -2.5180    0.1225 H   0  0  0  0  0  0  0  0  0  0  0  0
   -1.1260   -0.7054   -0.0000 N   0  0  0  0  0  0  0  0  0  0  0  0
   -1.9962   -0.1340   -0.0103 H   0  0  0  0  0  0  0  0  0  0  0  0
    0.0000    0.0000    0.0000 C   0  0  0  0  0  0  0  0  0  0  0  0
    1.1260   -0.5139   -0.0000 O   0  0  0  0  0  0  0  0  0  0  0  0
   -0.1659    1.5117    0.0426 C   0  0  0  0  0  0  0  0  0  0  0  0
   -1.1366    1.6894    0.1561 H   0  0  0  0  0  0  0  0  0  0  0  0
    0.3213    1.8688    0.9500 H   0  0  0  0  0  0  0  0  0  0  0  0
    0.2316    1.9918   -0.8515 H   0  0  0  0  0  0  0  0  0  0  0  0
  1  5  1  0
  5  6  1  0
  5  9  2  0
  1  2  1  0
  1  3  1  0
  1  4  1  0
  6  7  1  0
  6  8  1  0
 10 14  1  0
 14 16  1  0
 16 17  2  0
 16 18  1  0
 10 11  1  0
 10 12  1  0
 10 13  1  0
 14 15  1  0
 18 19  1  0
 18 20  1  0
 18 21  1  0
M  END
>  <PDB_ID>  (804) 
pdb6j4j

>  <RESIDUE_NAME>  (804) 
ASN   ILE

>  <FRAG_NAME>  (804) 
ACEM   NMA

>  <FRAG_ATOM_NUM>  (804) 
fragi: 9  fragj: 12

>  <atom.prop.CHAIN_ID>  (804) 
A A A A A A A A A Z Z Z Z Z Z Z Z Z Z Z Z

>  <atom.prop.IS_HEAVY_ATOM>  (804) 
1 0 0 0 1 1 0 0 1 1 0 0 0 1 0 1 1 1 0 0 0

>  <DIFUSE_FUNC_ATOM>  (804) 
n/a

>  <FINAL_SINGLE_POINT_ENERGY>  (804) 
0

>  <NONCOV_INTER_ENERGY_QM>  (804) 
0

>  <FF_Energy>  (804) 
8.32

>  <QM_Energy>  (804) 
26.8

>  <source>  (804) 
ACEM_nNMA_59

>  <Index>  (804) 
13769

$$$$
ACEM-pdb6jo7-A-GLN-74:NMA-pdb6jo7-A-LEU-86
     RDKit          3D

 21 19  0  0  0  0  0  0  0  0999 V2000
   -5.6877    0.6335    1.7836 C   0  0  0  0  0  0  0  0  0  0  0  0
   -6.3508    0.8590    1.0663 H   0  0  0  0  0  0  0  0  0  0  0  0
   -5.7711    1.3002    2.5283 H   0  0  0  0  0  0  0  0  0  0  0  0
   -5.9278   -0.3542    2.1770 H   0  0  0  0  0  0  0  0  0  0  0  0
   -4.2878    0.7336    1.1979 C   0  0  0  0  0  0  0  0  0  0  0  0
   -3.9459   -0.2045    0.3183 N   0  0  0  0  0  0  0  0  0  0  0  0
   -3.0327   -0.1938   -0.1253 H   0  0  0  0  0  0  0  0  0  0  0  0
   -4.6191   -0.9367    0.0963 H   0  0  0  0  0  0  0  0  0  0  0  0
   -3.5220    1.6381    1.5353 O   0  0  0  0  0  0  0  0  0  0  0  0
   -1.1633   -2.1487   -0.1868 C   0  0  0  0  0  0  0  0  0  0  0  0
   -0.2289   -2.5046   -0.1549 H   0  0  0  0  0  0  0  0  0  0  0  0
   -1.5837   -2.3734   -1.1671 H   0  0  0  0  0  0  0  0  0  0  0  0
   -1.7553   -2.6333    0.5896 H   0  0  0  0  0  0  0  0  0  0  0  0
   -1.1249   -0.7083    0.0000 N   0  0  0  0  0  0  0  0  0  0  0  0
   -1.9910   -0.1303    0.1482 H   0  0  0  0  0  0  0  0  0  0  0  0
    0.0000    0.0000    0.0000 C   0  0  0  0  0  0  0  0  0  0  0  0
    1.1249   -0.5095   -0.0000 O   0  0  0  0  0  0  0  0  0  0  0  0
   -0.1720    1.5118   -0.0005 C   0  0  0  0  0  0  0  0  0  0  0  0
   -1.1188    1.7241    0.2668 H   0  0  0  0  0  0  0  0  0  0  0  0
    0.5058    1.9767    0.7155 H   0  0  0  0  0  0  0  0  0  0  0  0
   -0.0026    1.8985   -1.0054 H   0  0  0  0  0  0  0  0  0  0  0  0
  1  5  1  0
  5  6  1  0
  5  9  2  0
  1  2  1  0
  1  3  1  0
  1  4  1  0
  6  7  1  0
  6  8  1  0
 10 14  1  0
 14 16  1  0
 16 17  2  0
 16 18  1  0
 10 11  1  0
 10 12  1  0
 10 13  1  0
 14 15  1  0
 18 19  1  0
 18 20  1  0
 18 21  1  0
M  END
>  <PDB_ID>  (805) 
pdb6jo7

>  <RESIDUE_NAME>  (805) 
GLN   LEU

>  <FRAG_NAME>  (805) 
ACEM   NMA

>  <FRAG_ATOM_NUM>  (805) 
fragi: 9  fragj: 12

>  <atom.prop.CHAIN_ID>  (805) 
A A A A A A A A A Z Z Z Z Z Z Z Z Z Z Z Z

>  <atom.prop.IS_HEAVY_ATOM>  (805) 
1 0 0 0 1 1 0 0 1 1 0 0 0 1 0 1 1 1 0 0 0

>  <DIFUSE_FUNC_ATOM>  (805) 
n/a

>  <FINAL_SINGLE_POINT_ENERGY>  (805) 
0

>  <NONCOV_INTER_ENERGY_QM>  (805) 
0

>  <FF_Energy>  (805) 
3.16

>  <QM_Energy>  (805) 
17.73

>  <source>  (805) 
ACEM_nNMA_59

>  <Index>  (805) 
21645

$$$$
ACEM-pdb5j1d-A-GLN-130:NMA-pdb5j1d-A-ILE-125
     RDKit          3D

 21 19  0  0  0  0  0  0  0  0999 V2000
   -4.8400    1.3612   -2.9555 C   0  0  0  0  0  0  0  0  0  0  0  0
   -5.6002    2.0019   -2.8395 H   0  0  0  0  0  0  0  0  0  0  0  0
   -5.1698    0.5348   -3.4140 H   0  0  0  0  0  0  0  0  0  0  0  0
   -4.0790    1.8292   -3.5800 H   0  0  0  0  0  0  0  0  0  0  0  0
   -4.3257    0.9713   -1.5722 C   0  0  0  0  0  0  0  0  0  0  0  0
   -3.0676    0.5639   -1.4991 N   0  0  0  0  0  0  0  0  0  0  0  0
   -2.6547    0.3019   -0.6109 H   0  0  0  0  0  0  0  0  0  0  0  0
   -2.5154    0.5156   -2.3552 H   0  0  0  0  0  0  0  0  0  0  0  0
   -5.0553    1.0500   -0.5788 O   0  0  0  0  0  0  0  0  0  0  0  0
   -1.1157   -2.1422    0.1739 C   0  0  0  0  0  0  0  0  0  0  0  0
   -0.1492   -2.4381    0.3511 H   0  0  0  0  0  0  0  0  0  0  0  0
   -1.4918   -2.7105   -0.6769 H   0  0  0  0  0  0  0  0  0  0  0  0
   -1.7102   -2.4484    1.0346 H   0  0  0  0  0  0  0  0  0  0  0  0
   -1.1260   -0.7062    0.0000 N   0  0  0  0  0  0  0  0  0  0  0  0
   -1.9903   -0.1451   -0.1335 H   0  0  0  0  0  0  0  0  0  0  0  0
    0.0000    0.0000    0.0000 C   0  0  0  0  0  0  0  0  0  0  0  0
    1.1260   -0.5231    0.0000 O   0  0  0  0  0  0  0  0  0  0  0  0
   -0.1637    1.5174    0.0268 C   0  0  0  0  0  0  0  0  0  0  0  0
   -1.1353    1.6980    0.0954 H   0  0  0  0  0  0  0  0  0  0  0  0
    0.2787    1.8701    0.9585 H   0  0  0  0  0  0  0  0  0  0  0  0
    0.3124    1.9823   -0.8364 H   0  0  0  0  0  0  0  0  0  0  0  0
  1  5  1  0
  5  6  1  0
  5  9  2  0
  1  2  1  0
  1  3  1  0
  1  4  1  0
  6  7  1  0
  6  8  1  0
 10 14  1  0
 14 16  1  0
 16 17  2  0
 16 18  1  0
 10 11  1  0
 10 12  1  0
 10 13  1  0
 14 15  1  0
 18 19  1  0
 18 20  1  0
 18 21  1  0
M  END
>  <PDB_ID>  (806) 
pdb5j1d

>  <RESIDUE_NAME>  (806) 
GLN   ILE

>  <FRAG_NAME>  (806) 
ACEM   NMA

>  <FRAG_ATOM_NUM>  (806) 
fragi: 9  fragj: 12

>  <atom.prop.CHAIN_ID>  (806) 
A A A A A A A A A Z Z Z Z Z Z Z Z Z Z Z Z

>  <atom.prop.IS_HEAVY_ATOM>  (806) 
1 0 0 0 1 1 0 0 1 1 0 0 0 1 0 1 1 1 0 0 0

>  <DIFUSE_FUNC_ATOM>  (806) 
n/a

>  <FINAL_SINGLE_POINT_ENERGY>  (806) 
0

>  <NONCOV_INTER_ENERGY_QM>  (806) 
0

>  <FF_Energy>  (806) 
13.62

>  <QM_Energy>  (806) 
32.94

>  <source>  (806) 
ACEM_nNMA_59

>  <Index>  (806) 
22165

$$$$
ACEM-pdb6j9s-C-GLN-267:NMA-pdb6j9s-C-MET-264
     RDKit          3D

 21 19  0  0  0  0  0  0  0  0999 V2000
   -5.6847    1.0716   -1.5702 C   0  0  0  0  0  0  0  0  0  0  0  0
   -6.2218    1.7966   -1.1337 H   0  0  0  0  0  0  0  0  0  0  0  0
   -6.3082    0.3915   -1.9607 H   0  0  0  0  0  0  0  0  0  0  0  0
   -5.0951    1.5091   -2.3760 H   0  0  0  0  0  0  0  0  0  0  0  0
   -4.8401    0.3899   -0.4983 C   0  0  0  0  0  0  0  0  0  0  0  0
   -3.5340    0.3165   -0.7337 N   0  0  0  0  0  0  0  0  0  0  0  0
   -2.9082   -0.1105   -0.0592 H   0  0  0  0  0  0  0  0  0  0  0  0
   -3.1705    0.6978   -1.6054 H   0  0  0  0  0  0  0  0  0  0  0  0
   -5.3532   -0.0329    0.5468 O   0  0  0  0  0  0  0  0  0  0  0  0
   -1.1415   -2.1668   -0.0791 C   0  0  0  0  0  0  0  0  0  0  0  0
   -0.2067   -2.4630   -0.2846 H   0  0  0  0  0  0  0  0  0  0  0  0
   -1.7686   -2.4778   -0.9146 H   0  0  0  0  0  0  0  0  0  0  0  0
   -1.5183   -2.5914    0.8514 H   0  0  0  0  0  0  0  0  0  0  0  0
   -1.1279   -0.7122    0.0000 N   0  0  0  0  0  0  0  0  0  0  0  0
   -1.9982   -0.1355    0.0615 H   0  0  0  0  0  0  0  0  0  0  0  0
    0.0000    0.0000    0.0000 C   0  0  0  0  0  0  0  0  0  0  0  0
    1.1279   -0.5107   -0.0000 O   0  0  0  0  0  0  0  0  0  0  0  0
   -0.1763    1.5166   -0.0396 C   0  0  0  0  0  0  0  0  0  0  0  0
   -1.1697    1.7123   -0.0166 H   0  0  0  0  0  0  0  0  0  0  0  0
    0.2897    2.0111    0.8127 H   0  0  0  0  0  0  0  0  0  0  0  0
    0.2484    1.8869   -0.9726 H   0  0  0  0  0  0  0  0  0  0  0  0
  1  5  1  0
  5  6  1  0
  5  9  2  0
  1  2  1  0
  1  3  1  0
  1  4  1  0
  6  7  1  0
  6  8  1  0
 10 14  1  0
 14 16  1  0
 16 17  2  0
 16 18  1  0
 10 11  1  0
 10 12  1  0
 10 13  1  0
 14 15  1  0
 18 19  1  0
 18 20  1  0
 18 21  1  0
M  END
>  <PDB_ID>  (807) 
pdb6j9s

>  <RESIDUE_NAME>  (807) 
GLN   MET

>  <FRAG_NAME>  (807) 
ACEM   NMA

>  <FRAG_ATOM_NUM>  (807) 
fragi: 9  fragj: 12

>  <atom.prop.CHAIN_ID>  (807) 
A A A A A A A A A Z Z Z Z Z Z Z Z Z Z Z Z

>  <atom.prop.IS_HEAVY_ATOM>  (807) 
1 0 0 0 1 1 0 0 1 1 0 0 0 1 0 1 1 1 0 0 0

>  <DIFUSE_FUNC_ATOM>  (807) 
n/a

>  <FINAL_SINGLE_POINT_ENERGY>  (807) 
0

>  <NONCOV_INTER_ENERGY_QM>  (807) 
0

>  <FF_Energy>  (807) 
14.82

>  <QM_Energy>  (807) 
35.5

>  <source>  (807) 
ACEM_nNMA_59

>  <Index>  (807) 
23089

$$$$
ACEM-pdb5j7x-A-GLN-256:NMA-pdb5j7x-A-THR-249
     RDKit          3D

 21 19  0  0  0  0  0  0  0  0999 V2000
   -5.1911    1.3644    0.2243 C   0  0  0  0  0  0  0  0  0  0  0  0
   -5.1307    2.3122   -0.1249 H   0  0  0  0  0  0  0  0  0  0  0  0
   -6.1463    1.2089    0.5215 H   0  0  0  0  0  0  0  0  0  0  0  0
   -4.9551    0.6735   -0.5851 H   0  0  0  0  0  0  0  0  0  0  0  0
   -4.2967    1.2494    1.4323 C   0  0  0  0  0  0  0  0  0  0  0  0
   -3.1611    0.6029    1.1857 N   0  0  0  0  0  0  0  0  0  0  0  0
   -2.4666    0.4831    1.9549 H   0  0  0  0  0  0  0  0  0  0  0  0
   -2.9772    0.2361    0.2689 H   0  0  0  0  0  0  0  0  0  0  0  0
   -4.6161    1.5805    2.5562 O   0  0  0  0  0  0  0  0  0  0  0  0
   -1.1586   -2.1296    0.0902 C   0  0  0  0  0  0  0  0  0  0  0  0
   -0.7934   -2.3920    0.9922 H   0  0  0  0  0  0  0  0  0  0  0  0
   -0.4922   -2.5970   -0.6346 H   0  0  0  0  0  0  0  0  0  0  0  0
   -2.1849   -2.4794   -0.0211 H   0  0  0  0  0  0  0  0  0  0  0  0
   -1.1391   -0.6873    0.0000 N   0  0  0  0  0  0  0  0  0  0  0  0
   -1.9968   -0.0998   -0.0696 H   0  0  0  0  0  0  0  0  0  0  0  0
    0.0000    0.0000    0.0000 C   0  0  0  0  0  0  0  0  0  0  0  0
    1.1391   -0.5525   -0.0000 O   0  0  0  0  0  0  0  0  0  0  0  0
   -0.1763    1.5202   -0.0108 C   0  0  0  0  0  0  0  0  0  0  0  0
   -0.8673    1.7604    0.7091 H   0  0  0  0  0  0  0  0  0  0  0  0
    0.7262    2.1022    0.1759 H   0  0  0  0  0  0  0  0  0  0  0  0
   -0.6030    1.8015   -0.9735 H   0  0  0  0  0  0  0  0  0  0  0  0
  1  5  1  0
  5  6  1  0
  5  9  2  0
  1  2  1  0
  1  3  1  0
  1  4  1  0
  6  7  1  0
  6  8  1  0
 10 14  1  0
 14 16  1  0
 16 17  2  0
 16 18  1  0
 10 11  1  0
 10 12  1  0
 10 13  1  0
 14 15  1  0
 18 19  1  0
 18 20  1  0
 18 21  1  0
M  END
>  <PDB_ID>  (808) 
pdb5j7x

>  <RESIDUE_NAME>  (808) 
GLN   THR

>  <FRAG_NAME>  (808) 
ACEM   NMA

>  <FRAG_ATOM_NUM>  (808) 
fragi: 9  fragj: 12

>  <atom.prop.CHAIN_ID>  (808) 
A A A A A A A A A Z Z Z Z Z Z Z Z Z Z Z Z

>  <atom.prop.IS_HEAVY_ATOM>  (808) 
1 0 0 0 1 1 0 0 1 1 0 0 0 1 0 1 1 1 0 0 0

>  <DIFUSE_FUNC_ATOM>  (808) 
n/a

>  <FINAL_SINGLE_POINT_ENERGY>  (808) 
0

>  <NONCOV_INTER_ENERGY_QM>  (808) 
0

>  <FF_Energy>  (808) 
13.26

>  <QM_Energy>  (808) 
23.56

>  <source>  (808) 
ACEM_nNMA_59

>  <Index>  (808) 
28431

$$$$
ACEM-pdb5jft-A-GLN-266:NMA-pdb5jft-A-SER-210
     RDKit          3D

 21 19  0  0  0  0  0  0  0  0999 V2000
   -4.9717    2.2532    1.1339 C   0  0  0  0  0  0  0  0  0  0  0  0
   -5.7355    2.6354    0.6320 H   0  0  0  0  0  0  0  0  0  0  0  0
   -4.3936    2.9702    1.5000 H   0  0  0  0  0  0  0  0  0  0  0  0
   -5.3544    1.6512    1.9581 H   0  0  0  0  0  0  0  0  0  0  0  0
   -4.1419    1.4002    0.1779 C   0  0  0  0  0  0  0  0  0  0  0  0
   -3.3677    0.4823    0.7279 N   0  0  0  0  0  0  0  0  0  0  0  0
   -2.7965   -0.1332    0.1539 H   0  0  0  0  0  0  0  0  0  0  0  0
   -3.3474    0.3966    1.7445 H   0  0  0  0  0  0  0  0  0  0  0  0
   -4.1912    1.5827   -1.0448 O   0  0  0  0  0  0  0  0  0  0  0  0
   -1.1170   -2.1570    0.2192 C   0  0  0  0  0  0  0  0  0  0  0  0
   -0.1955   -2.4151    0.5489 H   0  0  0  0  0  0  0  0  0  0  0  0
   -1.3047   -2.7201   -0.6951 H   0  0  0  0  0  0  0  0  0  0  0  0
   -1.8533   -2.4363    0.9727 H   0  0  0  0  0  0  0  0  0  0  0  0
   -1.1215   -0.7151    0.0000 N   0  0  0  0  0  0  0  0  0  0  0  0
   -1.9884   -0.1643   -0.1678 H   0  0  0  0  0  0  0  0  0  0  0  0
    0.0000    0.0000    0.0000 C   0  0  0  0  0  0  0  0  0  0  0  0
    1.1215   -0.5168    0.0000 O   0  0  0  0  0  0  0  0  0  0  0  0
   -0.1507    1.5147    0.0190 C   0  0  0  0  0  0  0  0  0  0  0  0
   -1.0316    1.7296    0.4324 H   0  0  0  0  0  0  0  0  0  0  0  0
    0.6370    1.9236    0.6520 H   0  0  0  0  0  0  0  0  0  0  0  0
   -0.0792    1.9262   -0.9878 H   0  0  0  0  0  0  0  0  0  0  0  0
  1  5  1  0
  5  6  1  0
  5  9  2  0
  1  2  1  0
  1  3  1  0
  1  4  1  0
  6  7  1  0
  6  8  1  0
 10 14  1  0
 14 16  1  0
 16 17  2  0
 16 18  1  0
 10 11  1  0
 10 12  1  0
 10 13  1  0
 14 15  1  0
 18 19  1  0
 18 20  1  0
 18 21  1  0
M  END
>  <PDB_ID>  (809) 
pdb5jft

>  <RESIDUE_NAME>  (809) 
GLN   SER

>  <FRAG_NAME>  (809) 
ACEM   NMA

>  <FRAG_ATOM_NUM>  (809) 
fragi: 9  fragj: 12

>  <atom.prop.CHAIN_ID>  (809) 
A A A A A A A A A Z Z Z Z Z Z Z Z Z Z Z Z

>  <atom.prop.IS_HEAVY_ATOM>  (809) 
1 0 0 0 1 1 0 0 1 1 0 0 0 1 0 1 1 1 0 0 0

>  <DIFUSE_FUNC_ATOM>  (809) 
n/a

>  <FINAL_SINGLE_POINT_ENERGY>  (809) 
0

>  <NONCOV_INTER_ENERGY_QM>  (809) 
0

>  <FF_Energy>  (809) 
15.51

>  <QM_Energy>  (809) 
42.67

>  <source>  (809) 
ACEM_nNMA_60

>  <Index>  (809) 
4592

$$$$
ACEM-pdb5jcb-B-ASN-249:NMA-pdb5jcb-B-PRO-245
     RDKit          3D

 21 19  0  0  0  0  0  0  0  0999 V2000
   -4.9971    1.3633    2.5883 C   0  0  0  0  0  0  0  0  0  0  0  0
   -5.8366    1.0272    2.1750 H   0  0  0  0  0  0  0  0  0  0  0  0
   -5.1111    2.3045    2.8900 H   0  0  0  0  0  0  0  0  0  0  0  0
   -4.7601    0.7441    3.4535 H   0  0  0  0  0  0  0  0  0  0  0  0
   -3.8930    1.3372    1.5142 C   0  0  0  0  0  0  0  0  0  0  0  0
   -2.8873    0.4811    1.7150 N   0  0  0  0  0  0  0  0  0  0  0  0
   -2.8921   -0.0989    2.5313 H   0  0  0  0  0  0  0  0  0  0  0  0
   -2.1422    0.4226    1.0585 H   0  0  0  0  0  0  0  0  0  0  0  0
   -3.9493    2.0772    0.5243 O   0  0  0  0  0  0  0  0  0  0  0  0
   -1.0504   -2.1463   -0.1650 C   0  0  0  0  0  0  0  0  0  0  0  0
   -0.7027   -2.3636   -1.0914 H   0  0  0  0  0  0  0  0  0  0  0  0
   -0.3941   -2.5320    0.5027 H   0  0  0  0  0  0  0  0  0  0  0  0
   -2.0238   -2.6166   -0.0259 H   0  0  0  0  0  0  0  0  0  0  0  0
   -1.1202   -0.7103   -0.0000 N   0  0  0  0  0  0  0  0  0  0  0  0
   -1.9873   -0.1775    0.1206 H   0  0  0  0  0  0  0  0  0  0  0  0
    0.0000    0.0000    0.0000 C   0  0  0  0  0  0  0  0  0  0  0  0
    1.1202   -0.5161    0.0000 O   0  0  0  0  0  0  0  0  0  0  0  0
   -0.1814    1.5048    0.0353 C   0  0  0  0  0  0  0  0  0  0  0  0
   -1.0412    1.7541    0.4967 H   0  0  0  0  0  0  0  0  0  0  0  0
    0.6692    1.9837    0.5205 H   0  0  0  0  0  0  0  0  0  0  0  0
   -0.1643    1.9300   -0.9683 H   0  0  0  0  0  0  0  0  0  0  0  0
  1  5  1  0
  5  6  1  0
  5  9  2  0
  1  2  1  0
  1  3  1  0
  1  4  1  0
  6  7  1  0
  6  8  1  0
 10 14  1  0
 14 16  1  0
 16 17  2  0
 16 18  1  0
 10 11  1  0
 10 12  1  0
 10 13  1  0
 14 15  1  0
 18 19  1  0
 18 20  1  0
 18 21  1  0
M  END
>  <PDB_ID>  (810) 
pdb5jcb

>  <RESIDUE_NAME>  (810) 
ASN   PRO

>  <FRAG_NAME>  (810) 
ACEM   NMA

>  <FRAG_ATOM_NUM>  (810) 
fragi: 9  fragj: 12

>  <atom.prop.CHAIN_ID>  (810) 
A A A A A A A A A Z Z Z Z Z Z Z Z Z Z Z Z

>  <atom.prop.IS_HEAVY_ATOM>  (810) 
1 0 0 0 1 1 0 0 1 1 0 0 0 1 0 1 1 1 0 0 0

>  <DIFUSE_FUNC_ATOM>  (810) 
n/a

>  <FINAL_SINGLE_POINT_ENERGY>  (810) 
0

>  <NONCOV_INTER_ENERGY_QM>  (810) 
0

>  <FF_Energy>  (810) 
7.1

>  <QM_Energy>  (810) 
19.74

>  <source>  (810) 
ACEM_nNMA_60

>  <Index>  (810) 
9305

$$$$
ACEM-pdb6mhp-A-ASN-223:NMA-pdb6mhp-A-HIE-86
     RDKit          3D

 21 19  0  0  0  0  0  0  0  0999 V2000
   -6.2527   -0.0798    0.3489 C   0  0  0  0  0  0  0  0  0  0  0  0
   -6.4535   -0.9005    0.8908 H   0  0  0  0  0  0  0  0  0  0  0  0
   -6.3571   -0.2995   -0.6257 H   0  0  0  0  0  0  0  0  0  0  0  0
   -6.9822    0.6878    0.6072 H   0  0  0  0  0  0  0  0  0  0  0  0
   -4.7951    0.3104    0.5964 C   0  0  0  0  0  0  0  0  0  0  0  0
   -3.8545   -0.6142    0.3981 N   0  0  0  0  0  0  0  0  0  0  0  0
   -4.1459   -1.5275    0.0881 H   0  0  0  0  0  0  0  0  0  0  0  0
   -2.9022   -0.4087    0.5502 H   0  0  0  0  0  0  0  0  0  0  0  0
   -4.5559    1.4431    1.0065 O   0  0  0  0  0  0  0  0  0  0  0  0
   -1.2024   -2.1509   -0.1195 C   0  0  0  0  0  0  0  0  0  0  0  0
   -2.1381   -2.4298   -0.0098 H   0  0  0  0  0  0  0  0  0  0  0  0
   -0.6389   -2.5309    0.7326 H   0  0  0  0  0  0  0  0  0  0  0  0
   -0.9058   -2.5206   -1.1011 H   0  0  0  0  0  0  0  0  0  0  0  0
   -1.1341   -0.6953    0.0000 N   0  0  0  0  0  0  0  0  0  0  0  0
   -1.9978   -0.0973    0.0956 H   0  0  0  0  0  0  0  0  0  0  0  0
    0.0000    0.0000    0.0000 C   0  0  0  0  0  0  0  0  0  0  0  0
    1.1341   -0.5136   -0.0000 O   0  0  0  0  0  0  0  0  0  0  0  0
   -0.1746    1.5135    0.0602 C   0  0  0  0  0  0  0  0  0  0  0  0
   -1.1377    1.7278   -0.0882 H   0  0  0  0  0  0  0  0  0  0  0  0
    0.1051    1.8632    1.0539 H   0  0  0  0  0  0  0  0  0  0  0  0
    0.4829    1.9655   -0.6823 H   0  0  0  0  0  0  0  0  0  0  0  0
  1  5  1  0
  5  6  1  0
  5  9  2  0
  1  2  1  0
  1  3  1  0
  1  4  1  0
  6  7  1  0
  6  8  1  0
 10 14  1  0
 14 16  1  0
 16 17  2  0
 16 18  1  0
 10 11  1  0
 10 12  1  0
 10 13  1  0
 14 15  1  0
 18 19  1  0
 18 20  1  0
 18 21  1  0
M  END
>  <PDB_ID>  (811) 
pdb6mhp

>  <RESIDUE_NAME>  (811) 
ASN   HIE

>  <FRAG_NAME>  (811) 
ACEM   NMA

>  <FRAG_ATOM_NUM>  (811) 
fragi: 9  fragj: 12

>  <atom.prop.CHAIN_ID>  (811) 
A A A A A A A A A Z Z Z Z Z Z Z Z Z Z Z Z

>  <atom.prop.IS_HEAVY_ATOM>  (811) 
1 0 0 0 1 1 0 0 1 1 0 0 0 1 0 1 1 1 0 0 0

>  <DIFUSE_FUNC_ATOM>  (811) 
n/a

>  <FINAL_SINGLE_POINT_ENERGY>  (811) 
0

>  <NONCOV_INTER_ENERGY_QM>  (811) 
0

>  <FF_Energy>  (811) 
7.93

>  <QM_Energy>  (811) 
22.58

>  <source>  (811) 
ACEM_nNMA_60

>  <Index>  (811) 
14089

$$$$
ACEM-pdb6mro-A-ASN-46:NMA-pdb6mro-A-PRO-18
     RDKit          3D

 21 19  0  0  0  0  0  0  0  0999 V2000
   -5.1585    2.4516   -0.7649 C   0  0  0  0  0  0  0  0  0  0  0  0
   -5.8867    2.6608   -0.1179 H   0  0  0  0  0  0  0  0  0  0  0  0
   -5.5395    2.3061   -1.6742 H   0  0  0  0  0  0  0  0  0  0  0  0
   -4.4775    3.3015   -0.8071 H   0  0  0  0  0  0  0  0  0  0  0  0
   -4.4695    1.1766   -0.3202 C   0  0  0  0  0  0  0  0  0  0  0  0
   -3.2157    0.9891   -0.7426 N   0  0  0  0  0  0  0  0  0  0  0  0
   -2.7852    1.6860   -1.3189 H   0  0  0  0  0  0  0  0  0  0  0  0
   -2.7186    0.1680   -0.4845 H   0  0  0  0  0  0  0  0  0  0  0  0
   -5.0408    0.3979    0.4422 O   0  0  0  0  0  0  0  0  0  0  0  0
   -1.0423   -2.1681   -0.1297 C   0  0  0  0  0  0  0  0  0  0  0  0
   -0.4289   -2.5139    0.5844 H   0  0  0  0  0  0  0  0  0  0  0  0
   -0.6090   -2.4318   -1.0945 H   0  0  0  0  0  0  0  0  0  0  0  0
   -2.0265   -2.6260   -0.0311 H   0  0  0  0  0  0  0  0  0  0  0  0
   -1.1206   -0.7202   -0.0000 N   0  0  0  0  0  0  0  0  0  0  0  0
   -1.9909   -0.1907    0.0943 H   0  0  0  0  0  0  0  0  0  0  0  0
    0.0000    0.0000    0.0000 C   0  0  0  0  0  0  0  0  0  0  0  0
    1.1206   -0.5048    0.0000 O   0  0  0  0  0  0  0  0  0  0  0  0
   -0.1790    1.5050    0.0060 C   0  0  0  0  0  0  0  0  0  0  0  0
   -1.0243    1.7673    0.4770 H   0  0  0  0  0  0  0  0  0  0  0  0
    0.6852    1.9787    0.4718 H   0  0  0  0  0  0  0  0  0  0  0  0
   -0.1765    1.9048   -1.0081 H   0  0  0  0  0  0  0  0  0  0  0  0
  1  5  1  0
  5  6  1  0
  5  9  2  0
  1  2  1  0
  1  3  1  0
  1  4  1  0
  6  7  1  0
  6  8  1  0
 10 14  1  0
 14 16  1  0
 16 17  2  0
 16 18  1  0
 10 11  1  0
 10 12  1  0
 10 13  1  0
 14 15  1  0
 18 19  1  0
 18 20  1  0
 18 21  1  0
M  END
>  <PDB_ID>  (812) 
pdb6mro

>  <RESIDUE_NAME>  (812) 
ASN   PRO

>  <FRAG_NAME>  (812) 
ACEM   NMA

>  <FRAG_ATOM_NUM>  (812) 
fragi: 9  fragj: 12

>  <atom.prop.CHAIN_ID>  (812) 
A A A A A A A A A Z Z Z Z Z Z Z Z Z Z Z Z

>  <atom.prop.IS_HEAVY_ATOM>  (812) 
1 0 0 0 1 1 0 0 1 1 0 0 0 1 0 1 1 1 0 0 0

>  <DIFUSE_FUNC_ATOM>  (812) 
n/a

>  <FINAL_SINGLE_POINT_ENERGY>  (812) 
0

>  <NONCOV_INTER_ENERGY_QM>  (812) 
0

>  <FF_Energy>  (812) 
11.07

>  <QM_Energy>  (812) 
25.9

>  <source>  (812) 
ACEM_nNMA_60

>  <Index>  (812) 
19813

$$$$
ACEM-pdb5jys-A-GLN-253:NMA-pdb5jys-A-ALA-284
     RDKit          3D

 21 19  0  0  0  0  0  0  0  0999 V2000
   -5.7074   -1.1302    1.9831 C   0  0  0  0  0  0  0  0  0  0  0  0
   -6.2575   -0.4478    1.5027 H   0  0  0  0  0  0  0  0  0  0  0  0
   -5.8822   -1.0675    2.9653 H   0  0  0  0  0  0  0  0  0  0  0  0
   -6.0078   -2.1204    1.6406 H   0  0  0  0  0  0  0  0  0  0  0  0
   -4.2340   -0.8276    1.7320 C   0  0  0  0  0  0  0  0  0  0  0  0
   -3.9345   -0.2324    0.5820 N   0  0  0  0  0  0  0  0  0  0  0  0
   -2.9785    0.0102    0.3546 H   0  0  0  0  0  0  0  0  0  0  0  0
   -4.6892   -0.0240   -0.0727 H   0  0  0  0  0  0  0  0  0  0  0  0
   -3.3777   -1.1305    2.5626 O   0  0  0  0  0  0  0  0  0  0  0  0
   -1.1222   -2.1479   -0.1908 C   0  0  0  0  0  0  0  0  0  0  0  0
   -0.2027   -2.5202    0.0145 H   0  0  0  0  0  0  0  0  0  0  0  0
   -1.7735   -2.5783    0.4534 H   0  0  0  0  0  0  0  0  0  0  0  0
   -1.3971   -2.4195   -1.2099 H   0  0  0  0  0  0  0  0  0  0  0  0
   -1.1217   -0.7177    0.0000 N   0  0  0  0  0  0  0  0  0  0  0  0
   -1.9895   -0.1532    0.1493 H   0  0  0  0  0  0  0  0  0  0  0  0
    0.0000    0.0000    0.0000 C   0  0  0  0  0  0  0  0  0  0  0  0
    1.1217   -0.5136    0.0000 O   0  0  0  0  0  0  0  0  0  0  0  0
   -0.1878    1.5120    0.0233 C   0  0  0  0  0  0  0  0  0  0  0  0
   -1.0224    1.7217    0.5447 H   0  0  0  0  0  0  0  0  0  0  0  0
    0.6622    1.9955    0.5046 H   0  0  0  0  0  0  0  0  0  0  0  0
   -0.3186    1.8893   -0.9909 H   0  0  0  0  0  0  0  0  0  0  0  0
  1  5  1  0
  5  6  1  0
  5  9  2  0
  1  2  1  0
  1  3  1  0
  1  4  1  0
  6  7  1  0
  6  8  1  0
 10 14  1  0
 14 16  1  0
 16 17  2  0
 16 18  1  0
 10 11  1  0
 10 12  1  0
 10 13  1  0
 14 15  1  0
 18 19  1  0
 18 20  1  0
 18 21  1  0
M  END
>  <PDB_ID>  (813) 
pdb5jys

>  <RESIDUE_NAME>  (813) 
GLN   ALA

>  <FRAG_NAME>  (813) 
ACEM   NMA

>  <FRAG_ATOM_NUM>  (813) 
fragi: 9  fragj: 12

>  <atom.prop.CHAIN_ID>  (813) 
A A A A A A A A A Z Z Z Z Z Z Z Z Z Z Z Z

>  <atom.prop.IS_HEAVY_ATOM>  (813) 
1 0 0 0 1 1 0 0 1 1 0 0 0 1 0 1 1 1 0 0 0

>  <DIFUSE_FUNC_ATOM>  (813) 
n/a

>  <FINAL_SINGLE_POINT_ENERGY>  (813) 
0

>  <NONCOV_INTER_ENERGY_QM>  (813) 
0

>  <FF_Energy>  (813) 
10.57

>  <QM_Energy>  (813) 
22.98

>  <source>  (813) 
ACEM_nNMA_60

>  <Index>  (813) 
20676

$$$$
ACEM-pdb5jqp-B-GLN-56:NMA-pdb5jqp-B-LEU-52
     RDKit          3D

 21 19  0  0  0  0  0  0  0  0999 V2000
   -4.5482   -0.4211   -2.5163 C   0  0  0  0  0  0  0  0  0  0  0  0
   -5.5061   -0.6095   -2.7087 H   0  0  0  0  0  0  0  0  0  0  0  0
   -4.0830   -1.2532   -2.2309 H   0  0  0  0  0  0  0  0  0  0  0  0
   -4.0816   -0.0747   -3.4386 H   0  0  0  0  0  0  0  0  0  0  0  0
   -4.4532    0.6067   -1.4191 C   0  0  0  0  0  0  0  0  0  0  0  0
   -3.5631    0.3713   -0.4870 N   0  0  0  0  0  0  0  0  0  0  0  0
   -3.4226    1.0305    0.2930 H   0  0  0  0  0  0  0  0  0  0  0  0
   -2.9991   -0.4774   -0.5314 H   0  0  0  0  0  0  0  0  0  0  0  0
   -5.2064    1.5695   -1.3786 O   0  0  0  0  0  0  0  0  0  0  0  0
   -1.1077   -2.1371   -0.3235 C   0  0  0  0  0  0  0  0  0  0  0  0
   -0.3442   -2.5589    0.1731 H   0  0  0  0  0  0  0  0  0  0  0  0
   -0.9393   -2.2754   -1.3915 H   0  0  0  0  0  0  0  0  0  0  0  0
   -2.0367   -2.6244   -0.0277 H   0  0  0  0  0  0  0  0  0  0  0  0
   -1.1214   -0.7122    0.0000 N   0  0  0  0  0  0  0  0  0  0  0  0
   -1.9780   -0.1866    0.2412 H   0  0  0  0  0  0  0  0  0  0  0  0
    0.0000    0.0000    0.0000 C   0  0  0  0  0  0  0  0  0  0  0  0
    1.1214   -0.4934   -0.0000 O   0  0  0  0  0  0  0  0  0  0  0  0
   -0.1847    1.4702   -0.1554 C   0  0  0  0  0  0  0  0  0  0  0  0
   -0.8904    1.7816    0.4830 H   0  0  0  0  0  0  0  0  0  0  0  0
    0.7551    1.9628    0.0945 H   0  0  0  0  0  0  0  0  0  0  0  0
   -0.4440    1.6498   -1.1987 H   0  0  0  0  0  0  0  0  0  0  0  0
  1  5  1  0
  5  6  1  0
  5  9  2  0
  1  2  1  0
  1  3  1  0
  1  4  1  0
  6  7  1  0
  6  8  1  0
 10 14  1  0
 14 16  1  0
 16 17  2  0
 16 18  1  0
 10 11  1  0
 10 12  1  0
 10 13  1  0
 14 15  1  0
 18 19  1  0
 18 20  1  0
 18 21  1  0
M  END
>  <PDB_ID>  (814) 
pdb5jqp

>  <RESIDUE_NAME>  (814) 
GLN   LEU

>  <FRAG_NAME>  (814) 
ACEM   NMA

>  <FRAG_ATOM_NUM>  (814) 
fragi: 9  fragj: 12

>  <atom.prop.CHAIN_ID>  (814) 
A A A A A A A A A Z Z Z Z Z Z Z Z Z Z Z Z

>  <atom.prop.IS_HEAVY_ATOM>  (814) 
1 0 0 0 1 1 0 0 1 1 0 0 0 1 0 1 1 1 0 0 0

>  <DIFUSE_FUNC_ATOM>  (814) 
n/a

>  <FINAL_SINGLE_POINT_ENERGY>  (814) 
0

>  <NONCOV_INTER_ENERGY_QM>  (814) 
0

>  <FF_Energy>  (814) 
6.21

>  <QM_Energy>  (814) 
16.4

>  <source>  (814) 
ACEM_nNMA_60

>  <Index>  (814) 
22300

$$$$
ACEM-pdb5js4-B-ASN-330:NMA-pdb5js4-B-THR-360
     RDKit          3D

 21 19  0  0  0  0  0  0  0  0999 V2000
   -6.1143   -1.0974   -0.7251 C   0  0  0  0  0  0  0  0  0  0  0  0
   -6.5267   -1.0061   -1.6273 H   0  0  0  0  0  0  0  0  0  0  0  0
   -6.7716   -0.8472   -0.0196 H   0  0  0  0  0  0  0  0  0  0  0  0
   -5.8386   -2.1419   -0.5799 H   0  0  0  0  0  0  0  0  0  0  0  0
   -4.9254   -0.1554   -0.6372 C   0  0  0  0  0  0  0  0  0  0  0  0
   -3.8511   -0.6237   -0.0165 N   0  0  0  0  0  0  0  0  0  0  0  0
   -3.8515   -1.5521    0.3569 H   0  0  0  0  0  0  0  0  0  0  0  0
   -3.0362   -0.0497    0.0795 H   0  0  0  0  0  0  0  0  0  0  0  0
   -4.9652    0.9717   -1.1334 O   0  0  0  0  0  0  0  0  0  0  0  0
   -1.1296   -2.1868   -0.0054 C   0  0  0  0  0  0  0  0  0  0  0  0
   -2.1063   -2.4760   -0.0297 H   0  0  0  0  0  0  0  0  0  0  0  0
   -0.6865   -2.6461    0.8782 H   0  0  0  0  0  0  0  0  0  0  0  0
   -0.6596   -2.5860   -0.9042 H   0  0  0  0  0  0  0  0  0  0  0  0
   -1.1217   -0.7175    0.0000 N   0  0  0  0  0  0  0  0  0  0  0  0
   -1.9984   -0.1490    0.0046 H   0  0  0  0  0  0  0  0  0  0  0  0
    0.0000    0.0000    0.0000 C   0  0  0  0  0  0  0  0  0  0  0  0
    1.1217   -0.5059   -0.0000 O   0  0  0  0  0  0  0  0  0  0  0  0
   -0.1640    1.5228    0.0089 C   0  0  0  0  0  0  0  0  0  0  0  0
   -0.8286    1.7609    0.7153 H   0  0  0  0  0  0  0  0  0  0  0  0
    0.7940    1.9788    0.2584 H   0  0  0  0  0  0  0  0  0  0  0  0
   -0.5268    1.8870   -0.9523 H   0  0  0  0  0  0  0  0  0  0  0  0
  1  5  1  0
  5  6  1  0
  5  9  2  0
  1  2  1  0
  1  3  1  0
  1  4  1  0
  6  7  1  0
  6  8  1  0
 10 14  1  0
 14 16  1  0
 16 17  2  0
 16 18  1  0
 10 11  1  0
 10 12  1  0
 10 13  1  0
 14 15  1  0
 18 19  1  0
 18 20  1  0
 18 21  1  0
M  END
>  <PDB_ID>  (815) 
pdb5js4

>  <RESIDUE_NAME>  (815) 
ASN   THR

>  <FRAG_NAME>  (815) 
ACEM   NMA

>  <FRAG_ATOM_NUM>  (815) 
fragi: 9  fragj: 12

>  <atom.prop.CHAIN_ID>  (815) 
A A A A A A A A A Z Z Z Z Z Z Z Z Z Z Z Z

>  <atom.prop.IS_HEAVY_ATOM>  (815) 
1 0 0 0 1 1 0 0 1 1 0 0 0 1 0 1 1 1 0 0 0

>  <DIFUSE_FUNC_ATOM>  (815) 
n/a

>  <FINAL_SINGLE_POINT_ENERGY>  (815) 
0

>  <NONCOV_INTER_ENERGY_QM>  (815) 
0

>  <FF_Energy>  (815) 
11.14

>  <QM_Energy>  (815) 
25.69

>  <source>  (815) 
ACEM_nNMA_60

>  <Index>  (815) 
23746

$$$$
ACEM-pdb5jia-N-GLN-219:NMA-pdb5jia-N-ASN-216
     RDKit          3D

 21 19  0  0  0  0  0  0  0  0999 V2000
   -4.4272    1.9775   -2.7184 C   0  0  0  0  0  0  0  0  0  0  0  0
   -3.9467    2.5633   -3.3732 H   0  0  0  0  0  0  0  0  0  0  0  0
   -5.1415    2.5101   -2.2609 H   0  0  0  0  0  0  0  0  0  0  0  0
   -4.8834    1.1414   -3.2486 H   0  0  0  0  0  0  0  0  0  0  0  0
   -3.4267    1.5264   -1.6664 C   0  0  0  0  0  0  0  0  0  0  0  0
   -3.2492    0.2032   -1.5212 N   0  0  0  0  0  0  0  0  0  0  0  0
   -2.5921   -0.1595   -0.8526 H   0  0  0  0  0  0  0  0  0  0  0  0
   -3.7997   -0.4221   -2.1073 H   0  0  0  0  0  0  0  0  0  0  0  0
   -2.8258    2.3593   -0.9831 O   0  0  0  0  0  0  0  0  0  0  0  0
   -1.0907   -2.1779   -0.0349 C   0  0  0  0  0  0  0  0  0  0  0  0
   -0.1881   -2.4642    0.3070 H   0  0  0  0  0  0  0  0  0  0  0  0
   -1.1693   -2.5487   -1.0569 H   0  0  0  0  0  0  0  0  0  0  0  0
   -1.8967   -2.5814    0.5781 H   0  0  0  0  0  0  0  0  0  0  0  0
   -1.1182   -0.7186    0.0000 N   0  0  0  0  0  0  0  0  0  0  0  0
   -1.9946   -0.1631    0.0262 H   0  0  0  0  0  0  0  0  0  0  0  0
    0.0000    0.0000    0.0000 C   0  0  0  0  0  0  0  0  0  0  0  0
    1.1182   -0.5068   -0.0000 O   0  0  0  0  0  0  0  0  0  0  0  0
   -0.1692    1.5118    0.0138 C   0  0  0  0  0  0  0  0  0  0  0  0
   -1.1371    1.7017   -0.1403 H   0  0  0  0  0  0  0  0  0  0  0  0
    0.0783    1.8846    1.0077 H   0  0  0  0  0  0  0  0  0  0  0  0
    0.4491    1.9950   -0.7428 H   0  0  0  0  0  0  0  0  0  0  0  0
  1  5  1  0
  5  6  1  0
  5  9  2  0
  1  2  1  0
  1  3  1  0
  1  4  1  0
  6  7  1  0
  6  8  1  0
 10 14  1  0
 14 16  1  0
 16 17  2  0
 16 18  1  0
 10 11  1  0
 10 12  1  0
 10 13  1  0
 14 15  1  0
 18 19  1  0
 18 20  1  0
 18 21  1  0
M  END
>  <PDB_ID>  (816) 
pdb5jia

>  <RESIDUE_NAME>  (816) 
GLN   ASN

>  <FRAG_NAME>  (816) 
ACEM   NMA

>  <FRAG_ATOM_NUM>  (816) 
fragi: 9  fragj: 12

>  <atom.prop.CHAIN_ID>  (816) 
A A A A A A A A A Z Z Z Z Z Z Z Z Z Z Z Z

>  <atom.prop.IS_HEAVY_ATOM>  (816) 
1 0 0 0 1 1 0 0 1 1 0 0 0 1 0 1 1 1 0 0 0

>  <DIFUSE_FUNC_ATOM>  (816) 
n/a

>  <FINAL_SINGLE_POINT_ENERGY>  (816) 
0

>  <NONCOV_INTER_ENERGY_QM>  (816) 
0

>  <FF_Energy>  (816) 
10.66

>  <QM_Energy>  (816) 
22.97

>  <source>  (816) 
ACEM_nNMA_61

>  <Index>  (816) 
366

$$$$
ACEM-pdb5k1a-B-GLN-644:NMA-pdb5k1a-B-TRP-662
     RDKit          3D

 21 19  0  0  0  0  0  0  0  0999 V2000
   -4.9786    0.0964    2.0073 C   0  0  0  0  0  0  0  0  0  0  0  0
   -4.3182   -0.5529    2.3894 H   0  0  0  0  0  0  0  0  0  0  0  0
   -5.8942   -0.1277    2.3470 H   0  0  0  0  0  0  0  0  0  0  0  0
   -4.7173    1.0999    2.3433 H   0  0  0  0  0  0  0  0  0  0  0  0
   -4.9771   -0.0536    0.4916 C   0  0  0  0  0  0  0  0  0  0  0  0
   -3.7857   -0.0749   -0.0976 N   0  0  0  0  0  0  0  0  0  0  0  0
   -3.7061   -0.1855   -1.1039 H   0  0  0  0  0  0  0  0  0  0  0  0
   -2.9516    0.0238    0.4769 H   0  0  0  0  0  0  0  0  0  0  0  0
   -6.0281   -0.1448   -0.1387 O   0  0  0  0  0  0  0  0  0  0  0  0
   -1.0796   -2.1671   -0.1198 C   0  0  0  0  0  0  0  0  0  0  0  0
   -0.1191   -2.4717   -0.1013 H   0  0  0  0  0  0  0  0  0  0  0  0
   -1.5330   -2.4900   -1.0570 H   0  0  0  0  0  0  0  0  0  0  0  0
   -1.5866   -2.6356    0.7236 H   0  0  0  0  0  0  0  0  0  0  0  0
   -1.1161   -0.7166    0.0000 N   0  0  0  0  0  0  0  0  0  0  0  0
   -1.9907   -0.1688    0.0902 H   0  0  0  0  0  0  0  0  0  0  0  0
    0.0000    0.0000    0.0000 C   0  0  0  0  0  0  0  0  0  0  0  0
    1.1161   -0.5100   -0.0000 O   0  0  0  0  0  0  0  0  0  0  0  0
   -0.1843    1.5135    0.0249 C   0  0  0  0  0  0  0  0  0  0  0  0
   -1.1395    1.6909    0.0719 H   0  0  0  0  0  0  0  0  0  0  0  0
    0.2611    1.7607    0.9886 H   0  0  0  0  0  0  0  0  0  0  0  0
    0.2739    2.0985   -0.7725 H   0  0  0  0  0  0  0  0  0  0  0  0
  1  5  1  0
  5  6  1  0
  5  9  2  0
  1  2  1  0
  1  3  1  0
  1  4  1  0
  6  7  1  0
  6  8  1  0
 10 14  1  0
 14 16  1  0
 16 17  2  0
 16 18  1  0
 10 11  1  0
 10 12  1  0
 10 13  1  0
 14 15  1  0
 18 19  1  0
 18 20  1  0
 18 21  1  0
M  END
>  <PDB_ID>  (817) 
pdb5k1a

>  <RESIDUE_NAME>  (817) 
GLN   TRP

>  <FRAG_NAME>  (817) 
ACEM   NMA

>  <FRAG_ATOM_NUM>  (817) 
fragi: 9  fragj: 12

>  <atom.prop.CHAIN_ID>  (817) 
A A A A A A A A A Z Z Z Z Z Z Z Z Z Z Z Z

>  <atom.prop.IS_HEAVY_ATOM>  (817) 
1 0 0 0 1 1 0 0 1 1 0 0 0 1 0 1 1 1 0 0 0

>  <DIFUSE_FUNC_ATOM>  (817) 
n/a

>  <FINAL_SINGLE_POINT_ENERGY>  (817) 
0

>  <NONCOV_INTER_ENERGY_QM>  (817) 
0

>  <FF_Energy>  (817) 
11.39

>  <QM_Energy>  (817) 
24.22

>  <source>  (817) 
ACEM_nNMA_61

>  <Index>  (817) 
715

$$$$
ACEM-pdb6n2c-B-ASN-199:NMA-pdb6n2c-B-ASP-218
     RDKit          3D

 21 19  0  0  0  0  0  0  0  0999 V2000
   -5.2831    2.1691   -0.8597 C   0  0  0  0  0  0  0  0  0  0  0  0
   -6.0381    2.3047   -0.2355 H   0  0  0  0  0  0  0  0  0  0  0  0
   -5.6010    1.8902   -1.7536 H   0  0  0  0  0  0  0  0  0  0  0  0
   -4.7525    3.1153   -0.9656 H   0  0  0  0  0  0  0  0  0  0  0  0
   -4.3700    1.1176   -0.3091 C   0  0  0  0  0  0  0  0  0  0  0  0
   -3.3596    0.7326   -1.1144 N   0  0  0  0  0  0  0  0  0  0  0  0
   -3.2584    1.1512   -2.0110 H   0  0  0  0  0  0  0  0  0  0  0  0
   -2.7238    0.0323   -0.8038 H   0  0  0  0  0  0  0  0  0  0  0  0
   -4.6182    0.5627    0.7732 O   0  0  0  0  0  0  0  0  0  0  0  0
   -1.0413   -2.2220   -0.0276 C   0  0  0  0  0  0  0  0  0  0  0  0
   -0.1538   -2.4409   -0.4095 H   0  0  0  0  0  0  0  0  0  0  0  0
   -1.8050   -2.5877   -0.7140 H   0  0  0  0  0  0  0  0  0  0  0  0
   -1.1750   -2.6182    0.9790 H   0  0  0  0  0  0  0  0  0  0  0  0
   -1.1148   -0.7034   -0.0000 N   0  0  0  0  0  0  0  0  0  0  0  0
   -1.9935   -0.1984    0.0190 H   0  0  0  0  0  0  0  0  0  0  0  0
    0.0000    0.0000    0.0000 C   0  0  0  0  0  0  0  0  0  0  0  0
    1.1148   -0.5344    0.0000 O   0  0  0  0  0  0  0  0  0  0  0  0
   -0.1516    1.5111   -0.2200 C   0  0  0  0  0  0  0  0  0  0  0  0
   -1.0517    1.7660    0.1594 H   0  0  0  0  0  0  0  0  0  0  0  0
    0.6109    2.0689    0.3237 H   0  0  0  0  0  0  0  0  0  0  0  0
   -0.0457    1.6907   -1.2899 H   0  0  0  0  0  0  0  0  0  0  0  0
  1  5  1  0
  5  6  1  0
  5  9  2  0
  1  2  1  0
  1  3  1  0
  1  4  1  0
  6  7  1  0
  6  8  1  0
 10 14  1  0
 14 16  1  0
 16 17  2  0
 16 18  1  0
 10 11  1  0
 10 12  1  0
 10 13  1  0
 14 15  1  0
 18 19  1  0
 18 20  1  0
 18 21  1  0
M  END
>  <PDB_ID>  (818) 
pdb6n2c

>  <RESIDUE_NAME>  (818) 
ASN   ASP

>  <FRAG_NAME>  (818) 
ACEM   NMA

>  <FRAG_ATOM_NUM>  (818) 
fragi: 9  fragj: 12

>  <atom.prop.CHAIN_ID>  (818) 
A A A A A A A A A Z Z Z Z Z Z Z Z Z Z Z Z

>  <atom.prop.IS_HEAVY_ATOM>  (818) 
1 0 0 0 1 1 0 0 1 1 0 0 0 1 0 1 1 1 0 0 0

>  <DIFUSE_FUNC_ATOM>  (818) 
n/a

>  <FINAL_SINGLE_POINT_ENERGY>  (818) 
0

>  <NONCOV_INTER_ENERGY_QM>  (818) 
0

>  <FF_Energy>  (818) 
5.07

>  <QM_Energy>  (818) 
15.55

>  <source>  (818) 
ACEM_nNMA_61

>  <Index>  (818) 
2577

$$$$
ACEM-pdb5kd2-A-GLN-383:NMA-pdb5kd2-A-SER-398
     RDKit          3D

 21 19  0  0  0  0  0  0  0  0999 V2000
   -3.9914   -0.3615    2.7183 C   0  0  0  0  0  0  0  0  0  0  0  0
   -3.1746   -0.6845    3.2155 H   0  0  0  0  0  0  0  0  0  0  0  0
   -4.2248   -1.0511    2.0195 H   0  0  0  0  0  0  0  0  0  0  0  0
   -4.8195   -0.2909    3.4236 H   0  0  0  0  0  0  0  0  0  0  0  0
   -3.6279    0.9404    2.0009 C   0  0  0  0  0  0  0  0  0  0  0  0
   -3.1180    0.8410    0.7716 N   0  0  0  0  0  0  0  0  0  0  0  0
   -2.8727    1.6588    0.2436 H   0  0  0  0  0  0  0  0  0  0  0  0
   -2.9825   -0.0923    0.3792 H   0  0  0  0  0  0  0  0  0  0  0  0
   -3.7955    2.0347    2.5644 O   0  0  0  0  0  0  0  0  0  0  0  0
   -1.0831   -2.1674    0.0947 C   0  0  0  0  0  0  0  0  0  0  0  0
   -0.3632   -2.5281   -0.4985 H   0  0  0  0  0  0  0  0  0  0  0  0
   -0.9017   -2.4406    1.0396 H   0  0  0  0  0  0  0  0  0  0  0  0
   -2.0470   -2.5672   -0.2201 H   0  0  0  0  0  0  0  0  0  0  0  0
   -1.1194   -0.7202   -0.0000 N   0  0  0  0  0  0  0  0  0  0  0  0
   -1.9937   -0.1673   -0.0720 H   0  0  0  0  0  0  0  0  0  0  0  0
    0.0000    0.0000    0.0000 C   0  0  0  0  0  0  0  0  0  0  0  0
    1.1194   -0.5043    0.0000 O   0  0  0  0  0  0  0  0  0  0  0  0
   -0.1612    1.5123    0.0259 C   0  0  0  0  0  0  0  0  0  0  0  0
   -0.7237    1.7427    0.8168 H   0  0  0  0  0  0  0  0  0  0  0  0
    0.8300    1.9467    0.1558 H   0  0  0  0  0  0  0  0  0  0  0  0
   -0.6008    1.8988   -0.8936 H   0  0  0  0  0  0  0  0  0  0  0  0
  1  5  1  0
  5  6  1  0
  5  9  2  0
  1  2  1  0
  1  3  1  0
  1  4  1  0
  6  7  1  0
  6  8  1  0
 10 14  1  0
 14 16  1  0
 16 17  2  0
 16 18  1  0
 10 11  1  0
 10 12  1  0
 10 13  1  0
 14 15  1  0
 18 19  1  0
 18 20  1  0
 18 21  1  0
M  END
>  <PDB_ID>  (819) 
pdb5kd2

>  <RESIDUE_NAME>  (819) 
GLN   SER

>  <FRAG_NAME>  (819) 
ACEM   NMA

>  <FRAG_ATOM_NUM>  (819) 
fragi: 9  fragj: 12

>  <atom.prop.CHAIN_ID>  (819) 
A A A A A A A A A Z Z Z Z Z Z Z Z Z Z Z Z

>  <atom.prop.IS_HEAVY_ATOM>  (819) 
1 0 0 0 1 1 0 0 1 1 0 0 0 1 0 1 1 1 0 0 0

>  <DIFUSE_FUNC_ATOM>  (819) 
n/a

>  <FINAL_SINGLE_POINT_ENERGY>  (819) 
0

>  <NONCOV_INTER_ENERGY_QM>  (819) 
0

>  <FF_Energy>  (819) 
13.54

>  <QM_Energy>  (819) 
27.76

>  <source>  (819) 
ACEM_nNMA_61

>  <Index>  (819) 
3656

$$$$
ACEM-pdb5kdv-A-GLN-671:NMA-pdb5kdv-A-ILE-486
     RDKit          3D

 21 19  0  0  0  0  0  0  0  0999 V2000
   -5.7901   -1.5752   -0.6219 C   0  0  0  0  0  0  0  0  0  0  0  0
   -6.5527   -0.9191   -0.5664 H   0  0  0  0  0  0  0  0  0  0  0  0
   -6.1056   -2.4583   -0.2532 H   0  0  0  0  0  0  0  0  0  0  0  0
   -5.5290   -1.7133   -1.6712 H   0  0  0  0  0  0  0  0  0  0  0  0
   -4.6574   -1.0707    0.2349 C   0  0  0  0  0  0  0  0  0  0  0  0
   -3.8016   -0.2305   -0.3616 N   0  0  0  0  0  0  0  0  0  0  0  0
   -3.0185    0.1643    0.1556 H   0  0  0  0  0  0  0  0  0  0  0  0
   -3.9497    0.0042   -1.3376 H   0  0  0  0  0  0  0  0  0  0  0  0
   -4.5579   -1.3678    1.4141 O   0  0  0  0  0  0  0  0  0  0  0  0
   -1.0685   -2.1623   -0.0788 C   0  0  0  0  0  0  0  0  0  0  0  0
   -0.4996   -2.5256    0.7005 H   0  0  0  0  0  0  0  0  0  0  0  0
   -2.0125   -2.5426    0.0886 H   0  0  0  0  0  0  0  0  0  0  0  0
   -0.6865   -2.5766   -1.0119 H   0  0  0  0  0  0  0  0  0  0  0  0
   -1.1166   -0.7250    0.0000 N   0  0  0  0  0  0  0  0  0  0  0  0
   -1.9921   -0.1729    0.0602 H   0  0  0  0  0  0  0  0  0  0  0  0
    0.0000    0.0000    0.0000 C   0  0  0  0  0  0  0  0  0  0  0  0
    1.1166   -0.5148    0.0000 O   0  0  0  0  0  0  0  0  0  0  0  0
   -0.1395    1.5394   -0.0539 C   0  0  0  0  0  0  0  0  0  0  0  0
    0.6023    1.8666   -0.6738 H   0  0  0  0  0  0  0  0  0  0  0  0
   -1.0736    1.9177   -0.4691 H   0  0  0  0  0  0  0  0  0  0  0  0
    0.1104    1.9854    0.9087 H   0  0  0  0  0  0  0  0  0  0  0  0
  1  5  1  0
  5  6  1  0
  5  9  2  0
  1  2  1  0
  1  3  1  0
  1  4  1  0
  6  7  1  0
  6  8  1  0
 10 14  1  0
 14 16  1  0
 16 17  2  0
 16 18  1  0
 10 11  1  0
 10 12  1  0
 10 13  1  0
 14 15  1  0
 18 19  1  0
 18 20  1  0
 18 21  1  0
M  END
>  <PDB_ID>  (820) 
pdb5kdv

>  <RESIDUE_NAME>  (820) 
GLN   ILE

>  <FRAG_NAME>  (820) 
ACEM   NMA

>  <FRAG_ATOM_NUM>  (820) 
fragi: 9  fragj: 12

>  <atom.prop.CHAIN_ID>  (820) 
A A A A A A A A A Z Z Z Z Z Z Z Z Z Z Z Z

>  <atom.prop.IS_HEAVY_ATOM>  (820) 
1 0 0 0 1 1 0 0 1 1 0 0 0 1 0 1 1 1 0 0 0

>  <DIFUSE_FUNC_ATOM>  (820) 
n/a

>  <FINAL_SINGLE_POINT_ENERGY>  (820) 
0

>  <NONCOV_INTER_ENERGY_QM>  (820) 
0

>  <FF_Energy>  (820) 
11.68

>  <QM_Energy>  (820) 
21.72

>  <source>  (820) 
ACEM_nNMA_61

>  <Index>  (820) 
7656

$$$$
ACEM-pdb5kha-B-ASN-116:NMA-pdb5kha-B-GLH-122
     RDKit          3D

 21 19  0  0  0  0  0  0  0  0999 V2000
   -5.3852    0.2289    1.0080 C   0  0  0  0  0  0  0  0  0  0  0  0
   -4.6897   -0.0844    1.6447 H   0  0  0  0  0  0  0  0  0  0  0  0
   -6.2563   -0.2105    1.1982 H   0  0  0  0  0  0  0  0  0  0  0  0
   -5.5075    1.3049    1.1312 H   0  0  0  0  0  0  0  0  0  0  0  0
   -4.9510   -0.1504   -0.4063 C   0  0  0  0  0  0  0  0  0  0  0  0
   -3.6443   -0.1363   -0.6519 N   0  0  0  0  0  0  0  0  0  0  0  0
   -3.0064    0.1097    0.0798 H   0  0  0  0  0  0  0  0  0  0  0  0
   -3.3010   -0.3696   -1.5590 H   0  0  0  0  0  0  0  0  0  0  0  0
   -5.7863   -0.4754   -1.2607 O   0  0  0  0  0  0  0  0  0  0  0  0
   -1.0310   -2.1820   -0.0807 C   0  0  0  0  0  0  0  0  0  0  0  0
   -0.2794   -2.4959    0.5233 H   0  0  0  0  0  0  0  0  0  0  0  0
   -0.8337   -2.5327   -1.0937 H   0  0  0  0  0  0  0  0  0  0  0  0
   -1.9437   -2.6266    0.3159 H   0  0  0  0  0  0  0  0  0  0  0  0
   -1.1173   -0.7253    0.0000 N   0  0  0  0  0  0  0  0  0  0  0  0
   -1.9926   -0.1994    0.0587 H   0  0  0  0  0  0  0  0  0  0  0  0
    0.0000    0.0000    0.0000 C   0  0  0  0  0  0  0  0  0  0  0  0
    1.1173   -0.5211   -0.0000 O   0  0  0  0  0  0  0  0  0  0  0  0
   -0.1005    1.5183   -0.0280 C   0  0  0  0  0  0  0  0  0  0  0  0
    0.6407    1.8917   -0.6183 H   0  0  0  0  0  0  0  0  0  0  0  0
   -1.0645    1.8836   -0.3821 H   0  0  0  0  0  0  0  0  0  0  0  0
    0.1126    1.9378    0.9552 H   0  0  0  0  0  0  0  0  0  0  0  0
  1  5  1  0
  5  6  1  0
  5  9  2  0
  1  2  1  0
  1  3  1  0
  1  4  1  0
  6  7  1  0
  6  8  1  0
 10 14  1  0
 14 16  1  0
 16 17  2  0
 16 18  1  0
 10 11  1  0
 10 12  1  0
 10 13  1  0
 14 15  1  0
 18 19  1  0
 18 20  1  0
 18 21  1  0
M  END
>  <PDB_ID>  (821) 
pdb5kha

>  <RESIDUE_NAME>  (821) 
ASN   GLH

>  <FRAG_NAME>  (821) 
ACEM   NMA

>  <FRAG_ATOM_NUM>  (821) 
fragi: 9  fragj: 12

>  <atom.prop.CHAIN_ID>  (821) 
A A A A A A A A A Z Z Z Z Z Z Z Z Z Z Z Z

>  <atom.prop.IS_HEAVY_ATOM>  (821) 
1 0 0 0 1 1 0 0 1 1 0 0 0 1 0 1 1 1 0 0 0

>  <DIFUSE_FUNC_ATOM>  (821) 
n/a

>  <FINAL_SINGLE_POINT_ENERGY>  (821) 
0

>  <NONCOV_INTER_ENERGY_QM>  (821) 
0

>  <FF_Energy>  (821) 
14.61

>  <QM_Energy>  (821) 
25.18

>  <source>  (821) 
ACEM_nNMA_61

>  <Index>  (821) 
10648

$$$$
ACEM-pdb5kvm-A-GLN-296:NMA-pdb5kvm-A-GLN-306
     RDKit          3D

 21 19  0  0  0  0  0  0  0  0999 V2000
   -4.9780    1.1232    2.9743 C   0  0  0  0  0  0  0  0  0  0  0  0
   -5.7070    1.1184    2.2956 H   0  0  0  0  0  0  0  0  0  0  0  0
   -5.0523    1.9319    3.5515 H   0  0  0  0  0  0  0  0  0  0  0  0
   -5.0754    0.2357    3.5996 H   0  0  0  0  0  0  0  0  0  0  0  0
   -3.6384    1.1693    2.2444 C   0  0  0  0  0  0  0  0  0  0  0  0
   -3.5044    0.3601    1.1979 N   0  0  0  0  0  0  0  0  0  0  0  0
   -2.6473    0.3475    0.6580 H   0  0  0  0  0  0  0  0  0  0  0  0
   -4.2816   -0.2504    0.9486 H   0  0  0  0  0  0  0  0  0  0  0  0
   -2.7370    1.9200    2.6196 O   0  0  0  0  0  0  0  0  0  0  0  0
   -1.1511   -2.1668   -0.0041 C   0  0  0  0  0  0  0  0  0  0  0  0
   -0.2152   -2.4987   -0.1082 H   0  0  0  0  0  0  0  0  0  0  0  0
   -1.7259   -2.5010   -0.8678 H   0  0  0  0  0  0  0  0  0  0  0  0
   -1.5731   -2.5616    0.9201 H   0  0  0  0  0  0  0  0  0  0  0  0
   -1.1243   -0.7113   -0.0000 N   0  0  0  0  0  0  0  0  0  0  0  0
   -1.9974   -0.1265    0.0029 H   0  0  0  0  0  0  0  0  0  0  0  0
    0.0000    0.0000    0.0000 C   0  0  0  0  0  0  0  0  0  0  0  0
    1.1243   -0.5117    0.0000 O   0  0  0  0  0  0  0  0  0  0  0  0
   -0.1906    1.5102    0.0000 C   0  0  0  0  0  0  0  0  0  0  0  0
   -1.0284    1.7142    0.5214 H   0  0  0  0  0  0  0  0  0  0  0  0
    0.6442    2.0086    0.4928 H   0  0  0  0  0  0  0  0  0  0  0  0
   -0.3055    1.8708   -1.0222 H   0  0  0  0  0  0  0  0  0  0  0  0
  1  5  1  0
  5  6  1  0
  5  9  2  0
  1  2  1  0
  1  3  1  0
  1  4  1  0
  6  7  1  0
  6  8  1  0
 10 14  1  0
 14 16  1  0
 16 17  2  0
 16 18  1  0
 10 11  1  0
 10 12  1  0
 10 13  1  0
 14 15  1  0
 18 19  1  0
 18 20  1  0
 18 21  1  0
M  END
>  <PDB_ID>  (822) 
pdb5kvm

>  <RESIDUE_NAME>  (822) 
GLN   GLN

>  <FRAG_NAME>  (822) 
ACEM   NMA

>  <FRAG_ATOM_NUM>  (822) 
fragi: 9  fragj: 12

>  <atom.prop.CHAIN_ID>  (822) 
A A A A A A A A A Z Z Z Z Z Z Z Z Z Z Z Z

>  <atom.prop.IS_HEAVY_ATOM>  (822) 
1 0 0 0 1 1 0 0 1 1 0 0 0 1 0 1 1 1 0 0 0

>  <DIFUSE_FUNC_ATOM>  (822) 
n/a

>  <FINAL_SINGLE_POINT_ENERGY>  (822) 
0

>  <NONCOV_INTER_ENERGY_QM>  (822) 
0

>  <FF_Energy>  (822) 
7.83

>  <QM_Energy>  (822) 
23.09

>  <source>  (822) 
ACEM_nNMA_61

>  <Index>  (822) 
15653

$$$$
ACEM-pdb5lhc-A-GLN-168:NMA-pdb5lhc-A-ALA-163
     RDKit          3D

 21 19  0  0  0  0  0  0  0  0999 V2000
   -4.8977    1.2729   -2.5529 C   0  0  0  0  0  0  0  0  0  0  0  0
   -5.8376    1.5451   -2.4050 H   0  0  0  0  0  0  0  0  0  0  0  0
   -4.8458    0.3887   -2.9928 H   0  0  0  0  0  0  0  0  0  0  0  0
   -4.4001    2.0165   -3.1755 H   0  0  0  0  0  0  0  0  0  0  0  0
   -4.2053    1.1791   -1.1993 C   0  0  0  0  0  0  0  0  0  0  0  0
   -3.6014    0.0385   -0.9111 N   0  0  0  0  0  0  0  0  0  0  0  0
   -3.1097   -0.0898   -0.0342 H   0  0  0  0  0  0  0  0  0  0  0  0
   -3.6388   -0.7232   -1.5915 H   0  0  0  0  0  0  0  0  0  0  0  0
   -4.2681    2.0945   -0.4031 O   0  0  0  0  0  0  0  0  0  0  0  0
   -1.0500   -2.1970   -0.0681 C   0  0  0  0  0  0  0  0  0  0  0  0
   -0.0653   -2.4693    0.0067 H   0  0  0  0  0  0  0  0  0  0  0  0
   -1.4535   -2.6486   -0.9744 H   0  0  0  0  0  0  0  0  0  0  0  0
   -1.5660   -2.6605    0.7727 H   0  0  0  0  0  0  0  0  0  0  0  0
   -1.1216   -0.7308   -0.0000 N   0  0  0  0  0  0  0  0  0  0  0  0
   -1.9968   -0.1994    0.0497 H   0  0  0  0  0  0  0  0  0  0  0  0
    0.0000    0.0000    0.0000 C   0  0  0  0  0  0  0  0  0  0  0  0
    1.1216   -0.5198    0.0000 O   0  0  0  0  0  0  0  0  0  0  0  0
   -0.1389    1.5491    0.0656 C   0  0  0  0  0  0  0  0  0  0  0  0
   -1.1134    1.7721    0.2017 H   0  0  0  0  0  0  0  0  0  0  0  0
    0.4317    1.9933    0.8812 H   0  0  0  0  0  0  0  0  0  0  0  0
    0.1271    1.9938   -0.8934 H   0  0  0  0  0  0  0  0  0  0  0  0
  1  5  1  0
  5  6  1  0
  5  9  2  0
  1  2  1  0
  1  3  1  0
  1  4  1  0
  6  7  1  0
  6  8  1  0
 10 14  1  0
 14 16  1  0
 16 17  2  0
 16 18  1  0
 10 11  1  0
 10 12  1  0
 10 13  1  0
 14 15  1  0
 18 19  1  0
 18 20  1  0
 18 21  1  0
M  END
>  <PDB_ID>  (823) 
pdb5lhc

>  <RESIDUE_NAME>  (823) 
GLN   ALA

>  <FRAG_NAME>  (823) 
ACEM   NMA

>  <FRAG_ATOM_NUM>  (823) 
fragi: 9  fragj: 12

>  <atom.prop.CHAIN_ID>  (823) 
A A A A A A A A A Z Z Z Z Z Z Z Z Z Z Z Z

>  <atom.prop.IS_HEAVY_ATOM>  (823) 
1 0 0 0 1 1 0 0 1 1 0 0 0 1 0 1 1 1 0 0 0

>  <DIFUSE_FUNC_ATOM>  (823) 
n/a

>  <FINAL_SINGLE_POINT_ENERGY>  (823) 
0

>  <NONCOV_INTER_ENERGY_QM>  (823) 
0

>  <FF_Energy>  (823) 
6.65

>  <QM_Energy>  (823) 
19.64

>  <source>  (823) 
ACEM_nNMA_61

>  <Index>  (823) 
28093

$$$$
ACEM-pdb6osu-A-GLN-371:NMA-pdb6osu-A-VAL-438
     RDKit          3D

 21 19  0  0  0  0  0  0  0  0999 V2000
   -4.5034    2.2906   -1.0128 C   0  0  0  0  0  0  0  0  0  0  0  0
   -5.3596    1.8481   -1.2792 H   0  0  0  0  0  0  0  0  0  0  0  0
   -4.0437    2.6464   -1.8266 H   0  0  0  0  0  0  0  0  0  0  0  0
   -4.7325    3.1237   -0.3482 H   0  0  0  0  0  0  0  0  0  0  0  0
   -3.6081    1.2595   -0.3613 C   0  0  0  0  0  0  0  0  0  0  0  0
   -3.1397    0.2983   -1.1477 N   0  0  0  0  0  0  0  0  0  0  0  0
   -2.5211   -0.4224   -0.7847 H   0  0  0  0  0  0  0  0  0  0  0  0
   -3.4121    0.2909   -2.1313 H   0  0  0  0  0  0  0  0  0  0  0  0
   -3.3392    1.3262    0.8384 O   0  0  0  0  0  0  0  0  0  0  0  0
   -1.1602   -2.1623    0.0813 C   0  0  0  0  0  0  0  0  0  0  0  0
   -0.2587   -2.4804    0.3785 H   0  0  0  0  0  0  0  0  0  0  0  0
   -1.3531   -2.5731   -0.9097 H   0  0  0  0  0  0  0  0  0  0  0  0
   -1.9283   -2.4882    0.7827 H   0  0  0  0  0  0  0  0  0  0  0  0
   -1.1259   -0.7090   -0.0000 N   0  0  0  0  0  0  0  0  0  0  0  0
   -1.9966   -0.1228   -0.0640 H   0  0  0  0  0  0  0  0  0  0  0  0
    0.0000    0.0000    0.0000 C   0  0  0  0  0  0  0  0  0  0  0  0
    1.1259   -0.5106    0.0000 O   0  0  0  0  0  0  0  0  0  0  0  0
   -0.1669    1.5100    0.0090 C   0  0  0  0  0  0  0  0  0  0  0  0
   -1.1002    1.7177    0.2947 H   0  0  0  0  0  0  0  0  0  0  0  0
    0.5178    1.9275    0.7472 H   0  0  0  0  0  0  0  0  0  0  0  0
   -0.0056    1.9243   -0.9861 H   0  0  0  0  0  0  0  0  0  0  0  0
  1  5  1  0
  5  6  1  0
  5  9  2  0
  1  2  1  0
  1  3  1  0
  1  4  1  0
  6  7  1  0
  6  8  1  0
 10 14  1  0
 14 16  1  0
 16 17  2  0
 16 18  1  0
 10 11  1  0
 10 12  1  0
 10 13  1  0
 14 15  1  0
 18 19  1  0
 18 20  1  0
 18 21  1  0
M  END
>  <PDB_ID>  (824) 
pdb6osu

>  <RESIDUE_NAME>  (824) 
GLN   VAL

>  <FRAG_NAME>  (824) 
ACEM   NMA

>  <FRAG_ATOM_NUM>  (824) 
fragi: 9  fragj: 12

>  <atom.prop.CHAIN_ID>  (824) 
A A A A A A A A A Z Z Z Z Z Z Z Z Z Z Z Z

>  <atom.prop.IS_HEAVY_ATOM>  (824) 
1 0 0 0 1 1 0 0 1 1 0 0 0 1 0 1 1 1 0 0 0

>  <DIFUSE_FUNC_ATOM>  (824) 
n/a

>  <FINAL_SINGLE_POINT_ENERGY>  (824) 
0

>  <NONCOV_INTER_ENERGY_QM>  (824) 
0

>  <FF_Energy>  (824) 
17.65

>  <QM_Energy>  (824) 
41.78

>  <source>  (824) 
ACEM_nNMA_62

>  <Index>  (824) 
1575

$$$$
ACEM-pdb5lhc-B-GLN-117:NMA-pdb5lhc-B-VAL-277
     RDKit          3D

 21 19  0  0  0  0  0  0  0  0999 V2000
   -3.6123    2.6053   -2.8579 C   0  0  0  0  0  0  0  0  0  0  0  0
   -4.5590    2.2754   -2.8456 H   0  0  0  0  0  0  0  0  0  0  0  0
   -3.3545    2.8256   -3.8015 H   0  0  0  0  0  0  0  0  0  0  0  0
   -3.5529    3.5141   -2.2592 H   0  0  0  0  0  0  0  0  0  0  0  0
   -2.7008    1.4603   -2.3679 C   0  0  0  0  0  0  0  0  0  0  0  0
   -3.0408    0.8641   -1.2190 N   0  0  0  0  0  0  0  0  0  0  0  0
   -2.4977    0.1050   -0.8551 H   0  0  0  0  0  0  0  0  0  0  0  0
   -3.8665    1.2034   -0.7255 H   0  0  0  0  0  0  0  0  0  0  0  0
   -1.6906    1.1076   -3.0443 O   0  0  0  0  0  0  0  0  0  0  0  0
   -1.1175   -2.1547   -0.0096 C   0  0  0  0  0  0  0  0  0  0  0  0
   -0.3912   -2.4813    0.5960 H   0  0  0  0  0  0  0  0  0  0  0  0
   -0.8897   -2.5095   -1.0147 H   0  0  0  0  0  0  0  0  0  0  0  0
   -2.0477   -2.5711    0.3770 H   0  0  0  0  0  0  0  0  0  0  0  0
   -1.1172   -0.7081    0.0000 N   0  0  0  0  0  0  0  0  0  0  0  0
   -1.9921   -0.1345    0.0077 H   0  0  0  0  0  0  0  0  0  0  0  0
    0.0000    0.0000    0.0000 C   0  0  0  0  0  0  0  0  0  0  0  0
    1.1172   -0.5102    0.0000 O   0  0  0  0  0  0  0  0  0  0  0  0
   -0.1720    1.5175    0.0781 C   0  0  0  0  0  0  0  0  0  0  0  0
   -1.1278    1.7145    0.0105 H   0  0  0  0  0  0  0  0  0  0  0  0
    0.1673    1.7463    1.0884 H   0  0  0  0  0  0  0  0  0  0  0  0
    0.4021    2.0491   -0.6808 H   0  0  0  0  0  0  0  0  0  0  0  0
  1  5  1  0
  5  6  1  0
  5  9  2  0
  1  2  1  0
  1  3  1  0
  1  4  1  0
  6  7  1  0
  6  8  1  0
 10 14  1  0
 14 16  1  0
 16 17  2  0
 16 18  1  0
 10 11  1  0
 10 12  1  0
 10 13  1  0
 14 15  1  0
 18 19  1  0
 18 20  1  0
 18 21  1  0
M  END
>  <PDB_ID>  (825) 
pdb5lhc

>  <RESIDUE_NAME>  (825) 
GLN   VAL

>  <FRAG_NAME>  (825) 
ACEM   NMA

>  <FRAG_ATOM_NUM>  (825) 
fragi: 9  fragj: 12

>  <atom.prop.CHAIN_ID>  (825) 
A A A A A A A A A Z Z Z Z Z Z Z Z Z Z Z Z

>  <atom.prop.IS_HEAVY_ATOM>  (825) 
1 0 0 0 1 1 0 0 1 1 0 0 0 1 0 1 1 1 0 0 0

>  <DIFUSE_FUNC_ATOM>  (825) 
n/a

>  <FINAL_SINGLE_POINT_ENERGY>  (825) 
0

>  <NONCOV_INTER_ENERGY_QM>  (825) 
0

>  <FF_Energy>  (825) 
11.78

>  <QM_Energy>  (825) 
25.86

>  <source>  (825) 
ACEM_nNMA_62

>  <Index>  (825) 
5008

$$$$
ACEM-pdb6q20-A-ASN-221:NMA-pdb6q20-H-TRP-98
     RDKit          3D

 21 19  0  0  0  0  0  0  0  0999 V2000
   -5.4049    1.4013   -0.9182 C   0  0  0  0  0  0  0  0  0  0  0  0
   -5.2046    2.2394   -1.4164 H   0  0  0  0  0  0  0  0  0  0  0  0
   -6.0932    1.5732   -0.2192 H   0  0  0  0  0  0  0  0  0  0  0  0
   -5.8045    0.6704   -1.6212 H   0  0  0  0  0  0  0  0  0  0  0  0
   -4.1350    0.9239   -0.2427 C   0  0  0  0  0  0  0  0  0  0  0  0
   -3.6993   -0.2840   -0.5825 N   0  0  0  0  0  0  0  0  0  0  0  0
   -4.2048   -0.8230   -1.2597 H   0  0  0  0  0  0  0  0  0  0  0  0
   -2.8708   -0.6546   -0.1673 H   0  0  0  0  0  0  0  0  0  0  0  0
   -3.5547    1.6320    0.5815 O   0  0  0  0  0  0  0  0  0  0  0  0
   -1.1204   -2.1543   -0.1635 C   0  0  0  0  0  0  0  0  0  0  0  0
   -2.0855   -2.4755   -0.3198 H   0  0  0  0  0  0  0  0  0  0  0  0
   -0.6186   -2.3896   -1.0301 H   0  0  0  0  0  0  0  0  0  0  0  0
   -0.6876   -2.7202    0.6615 H   0  0  0  0  0  0  0  0  0  0  0  0
   -1.1258   -0.7122    0.0000 N   0  0  0  0  0  0  0  0  0  0  0  0
   -1.9927   -0.1496    0.1261 H   0  0  0  0  0  0  0  0  0  0  0  0
    0.0000    0.0000    0.0000 C   0  0  0  0  0  0  0  0  0  0  0  0
    1.1258   -0.5050    0.0000 O   0  0  0  0  0  0  0  0  0  0  0  0
   -0.1722    1.5121   -0.0140 C   0  0  0  0  0  0  0  0  0  0  0  0
   -1.1015    1.7146    0.2994 H   0  0  0  0  0  0  0  0  0  0  0  0
    0.5254    1.9626    0.6921 H   0  0  0  0  0  0  0  0  0  0  0  0
   -0.0390    1.8868   -1.0288 H   0  0  0  0  0  0  0  0  0  0  0  0
  1  5  1  0
  5  6  1  0
  5  9  2  0
  1  2  1  0
  1  3  1  0
  1  4  1  0
  6  7  1  0
  6  8  1  0
 10 14  1  0
 14 16  1  0
 16 17  2  0
 16 18  1  0
 10 11  1  0
 10 12  1  0
 10 13  1  0
 14 15  1  0
 18 19  1  0
 18 20  1  0
 18 21  1  0
M  END
>  <PDB_ID>  (826) 
pdb6q20

>  <RESIDUE_NAME>  (826) 
ASN   TRP

>  <FRAG_NAME>  (826) 
ACEM   NMA

>  <FRAG_ATOM_NUM>  (826) 
fragi: 9  fragj: 12

>  <atom.prop.CHAIN_ID>  (826) 
A A A A A A A A A Z Z Z Z Z Z Z Z Z Z Z Z

>  <atom.prop.IS_HEAVY_ATOM>  (826) 
1 0 0 0 1 1 0 0 1 1 0 0 0 1 0 1 1 1 0 0 0

>  <DIFUSE_FUNC_ATOM>  (826) 
n/a

>  <FINAL_SINGLE_POINT_ENERGY>  (826) 
0

>  <NONCOV_INTER_ENERGY_QM>  (826) 
0

>  <FF_Energy>  (826) 
4.96

>  <QM_Energy>  (826) 
24.45

>  <source>  (826) 
ACEM_nNMA_62

>  <Index>  (826) 
17578

$$$$
ACEM-pdb6qmn-C-ASN-27:NMA-pdb6qmn-C-ALA-96
     RDKit          3D

 21 19  0  0  0  0  0  0  0  0999 V2000
   -5.1447    1.8761    1.9285 C   0  0  0  0  0  0  0  0  0  0  0  0
   -6.1198    1.8512    1.6890 H   0  0  0  0  0  0  0  0  0  0  0  0
   -4.8801    2.8276    2.1108 H   0  0  0  0  0  0  0  0  0  0  0  0
   -5.0045    1.3032    2.8452 H   0  0  0  0  0  0  0  0  0  0  0  0
   -4.3448    1.3742    0.7401 C   0  0  0  0  0  0  0  0  0  0  0  0
   -3.1787    0.8133    1.0033 N   0  0  0  0  0  0  0  0  0  0  0  0
   -2.8659    0.7309    1.9543 H   0  0  0  0  0  0  0  0  0  0  0  0
   -2.6036    0.4676    0.2616 H   0  0  0  0  0  0  0  0  0  0  0  0
   -4.7679    1.4835   -0.4075 O   0  0  0  0  0  0  0  0  0  0  0  0
   -1.3101   -2.1757    0.1726 C   0  0  0  0  0  0  0  0  0  0  0  0
   -0.4049   -2.5897    0.0461 H   0  0  0  0  0  0  0  0  0  0  0  0
   -1.9888   -2.5871   -0.5745 H   0  0  0  0  0  0  0  0  0  0  0  0
   -1.7158   -2.4428    1.1483 H   0  0  0  0  0  0  0  0  0  0  0  0
   -1.1551   -0.6992   -0.0000 N   0  0  0  0  0  0  0  0  0  0  0  0
   -2.0087   -0.0757   -0.1421 H   0  0  0  0  0  0  0  0  0  0  0  0
    0.0000    0.0000    0.0000 C   0  0  0  0  0  0  0  0  0  0  0  0
    1.1551   -0.5042   -0.0000 O   0  0  0  0  0  0  0  0  0  0  0  0
   -0.1117    1.5344   -0.0548 C   0  0  0  0  0  0  0  0  0  0  0  0
   -1.0063    1.8033    0.3024 H   0  0  0  0  0  0  0  0  0  0  0  0
    0.6586    1.9931    0.5653 H   0  0  0  0  0  0  0  0  0  0  0  0
   -0.0277    1.9082   -1.0753 H   0  0  0  0  0  0  0  0  0  0  0  0
  1  5  1  0
  5  6  1  0
  5  9  2  0
  1  2  1  0
  1  3  1  0
  1  4  1  0
  6  7  1  0
  6  8  1  0
 10 14  1  0
 14 16  1  0
 16 17  2  0
 16 18  1  0
 10 11  1  0
 10 12  1  0
 10 13  1  0
 14 15  1  0
 18 19  1  0
 18 20  1  0
 18 21  1  0
M  END
>  <PDB_ID>  (827) 
pdb6qmn

>  <RESIDUE_NAME>  (827) 
ASN   ALA

>  <FRAG_NAME>  (827) 
ACEM   NMA

>  <FRAG_ATOM_NUM>  (827) 
fragi: 9  fragj: 12

>  <atom.prop.CHAIN_ID>  (827) 
A A A A A A A A A Z Z Z Z Z Z Z Z Z Z Z Z

>  <atom.prop.IS_HEAVY_ATOM>  (827) 
1 0 0 0 1 1 0 0 1 1 0 0 0 1 0 1 1 1 0 0 0

>  <DIFUSE_FUNC_ATOM>  (827) 
n/a

>  <FINAL_SINGLE_POINT_ENERGY>  (827) 
0

>  <NONCOV_INTER_ENERGY_QM>  (827) 
0

>  <FF_Energy>  (827) 
14.94

>  <QM_Energy>  (827) 
37.43

>  <source>  (827) 
ACEM_nNMA_62

>  <Index>  (827) 
23452

$$$$
ACEM-pdb5mj7-B-ASN-168:NMA-pdb5mj7-B-GLU-176
     RDKit          3D

 21 19  0  0  0  0  0  0  0  0999 V2000
   -4.9044    2.1440    2.1535 C   0  0  0  0  0  0  0  0  0  0  0  0
   -5.8164    1.7966    2.3833 H   0  0  0  0  0  0  0  0  0  0  0  0
   -4.9915    3.0712    1.7813 H   0  0  0  0  0  0  0  0  0  0  0  0
   -4.3209    2.2008    3.0724 H   0  0  0  0  0  0  0  0  0  0  0  0
   -4.3011    1.2524    1.0945 C   0  0  0  0  0  0  0  0  0  0  0  0
   -3.0048    0.9527    1.2390 N   0  0  0  0  0  0  0  0  0  0  0  0
   -2.4994    1.3123    2.0221 H   0  0  0  0  0  0  0  0  0  0  0  0
   -2.5507    0.3719    0.5686 H   0  0  0  0  0  0  0  0  0  0  0  0
   -4.9515    0.8947    0.1207 O   0  0  0  0  0  0  0  0  0  0  0  0
   -1.1636   -2.1514    0.2210 C   0  0  0  0  0  0  0  0  0  0  0  0
   -0.8847   -2.3434    1.1883 H   0  0  0  0  0  0  0  0  0  0  0  0
   -0.5154   -2.7528   -0.4164 H   0  0  0  0  0  0  0  0  0  0  0  0
   -2.2050   -2.4481    0.0961 H   0  0  0  0  0  0  0  0  0  0  0  0
   -1.1177   -0.7204   -0.0000 N   0  0  0  0  0  0  0  0  0  0  0  0
   -1.9874   -0.1447   -0.1795 H   0  0  0  0  0  0  0  0  0  0  0  0
    0.0000    0.0000    0.0000 C   0  0  0  0  0  0  0  0  0  0  0  0
    1.1177   -0.5116    0.0000 O   0  0  0  0  0  0  0  0  0  0  0  0
   -0.1838    1.5219   -0.0008 C   0  0  0  0  0  0  0  0  0  0  0  0
   -0.9995    1.7571    0.5294 H   0  0  0  0  0  0  0  0  0  0  0  0
    0.6944    1.9967    0.4369 H   0  0  0  0  0  0  0  0  0  0  0  0
   -0.3077    1.9037   -1.0142 H   0  0  0  0  0  0  0  0  0  0  0  0
  1  5  1  0
  5  6  1  0
  5  9  2  0
  1  2  1  0
  1  3  1  0
  1  4  1  0
  6  7  1  0
  6  8  1  0
 10 14  1  0
 14 16  1  0
 16 17  2  0
 16 18  1  0
 10 11  1  0
 10 12  1  0
 10 13  1  0
 14 15  1  0
 18 19  1  0
 18 20  1  0
 18 21  1  0
M  END
>  <PDB_ID>  (828) 
pdb5mj7

>  <RESIDUE_NAME>  (828) 
ASN   GLU

>  <FRAG_NAME>  (828) 
ACEM   NMA

>  <FRAG_ATOM_NUM>  (828) 
fragi: 9  fragj: 12

>  <atom.prop.CHAIN_ID>  (828) 
A A A A A A A A A Z Z Z Z Z Z Z Z Z Z Z Z

>  <atom.prop.IS_HEAVY_ATOM>  (828) 
1 0 0 0 1 1 0 0 1 1 0 0 0 1 0 1 1 1 0 0 0

>  <DIFUSE_FUNC_ATOM>  (828) 
n/a

>  <FINAL_SINGLE_POINT_ENERGY>  (828) 
0

>  <NONCOV_INTER_ENERGY_QM>  (828) 
0

>  <FF_Energy>  (828) 
12.31

>  <QM_Energy>  (828) 
22.45

>  <source>  (828) 
ACEM_nNMA_62

>  <Index>  (828) 
23942

$$$$
ACEM-pdb5mqm-A-GLN-365:NMA-pdb5mqm-A-TYR-361
     RDKit          3D

 21 19  0  0  0  0  0  0  0  0999 V2000
   -4.5974   -0.1931   -2.2838 C   0  0  0  0  0  0  0  0  0  0  0  0
   -5.5562   -0.0995   -2.5458 H   0  0  0  0  0  0  0  0  0  0  0  0
   -4.4124   -1.1348   -2.0076 H   0  0  0  0  0  0  0  0  0  0  0  0
   -3.9694    0.0563   -3.1390 H   0  0  0  0  0  0  0  0  0  0  0  0
   -4.3344    0.7165   -1.0968 C   0  0  0  0  0  0  0  0  0  0  0  0
   -3.1807    0.5465   -0.4579 N   0  0  0  0  0  0  0  0  0  0  0  0
   -2.9321    1.1276    0.3351 H   0  0  0  0  0  0  0  0  0  0  0  0
   -2.5456   -0.1835   -0.7800 H   0  0  0  0  0  0  0  0  0  0  0  0
   -5.1484    1.5742   -0.7690 O   0  0  0  0  0  0  0  0  0  0  0  0
   -1.0928   -2.1792   -0.2500 C   0  0  0  0  0  0  0  0  0  0  0  0
   -0.4076   -2.5934    0.3463 H   0  0  0  0  0  0  0  0  0  0  0  0
   -0.8086   -2.3642   -1.2859 H   0  0  0  0  0  0  0  0  0  0  0  0
   -2.0614   -2.6265   -0.0267 H   0  0  0  0  0  0  0  0  0  0  0  0
   -1.1212   -0.7245    0.0000 N   0  0  0  0  0  0  0  0  0  0  0  0
   -1.9882   -0.1971    0.1843 H   0  0  0  0  0  0  0  0  0  0  0  0
    0.0000    0.0000    0.0000 C   0  0  0  0  0  0  0  0  0  0  0  0
    1.1212   -0.5173   -0.0000 O   0  0  0  0  0  0  0  0  0  0  0  0
   -0.1342    1.5222   -0.0377 C   0  0  0  0  0  0  0  0  0  0  0  0
   -1.1160    1.7581    0.0519 H   0  0  0  0  0  0  0  0  0  0  0  0
    0.3974    2.0264    0.7693 H   0  0  0  0  0  0  0  0  0  0  0  0
    0.2403    1.8440   -1.0094 H   0  0  0  0  0  0  0  0  0  0  0  0
  1  5  1  0
  5  6  1  0
  5  9  2  0
  1  2  1  0
  1  3  1  0
  1  4  1  0
  6  7  1  0
  6  8  1  0
 10 14  1  0
 14 16  1  0
 16 17  2  0
 16 18  1  0
 10 11  1  0
 10 12  1  0
 10 13  1  0
 14 15  1  0
 18 19  1  0
 18 20  1  0
 18 21  1  0
M  END
>  <PDB_ID>  (829) 
pdb5mqm

>  <RESIDUE_NAME>  (829) 
GLN   TYR

>  <FRAG_NAME>  (829) 
ACEM   NMA

>  <FRAG_ATOM_NUM>  (829) 
fragi: 9  fragj: 12

>  <atom.prop.CHAIN_ID>  (829) 
A A A A A A A A A Z Z Z Z Z Z Z Z Z Z Z Z

>  <atom.prop.IS_HEAVY_ATOM>  (829) 
1 0 0 0 1 1 0 0 1 1 0 0 0 1 0 1 1 1 0 0 0

>  <DIFUSE_FUNC_ATOM>  (829) 
n/a

>  <FINAL_SINGLE_POINT_ENERGY>  (829) 
0

>  <NONCOV_INTER_ENERGY_QM>  (829) 
0

>  <FF_Energy>  (829) 
27.03

>  <QM_Energy>  (829) 
37.52

>  <source>  (829) 
ACEM_nNMA_62

>  <Index>  (829) 
28067

$$$$
ACEM-pdb5mus-A-GLN-1898:NMA-pdb5mus-A-GLY-1895
     RDKit          3D

 21 19  0  0  0  0  0  0  0  0999 V2000
   -5.9217   -0.1077   -1.3381 C   0  0  0  0  0  0  0  0  0  0  0  0
   -6.6446    0.4643   -0.9374 H   0  0  0  0  0  0  0  0  0  0  0  0
   -6.1989   -1.0713   -1.2680 H   0  0  0  0  0  0  0  0  0  0  0  0
   -5.8315    0.1464   -2.3942 H   0  0  0  0  0  0  0  0  0  0  0  0
   -4.6495    0.0911   -0.5439 C   0  0  0  0  0  0  0  0  0  0  0  0
   -3.5161    0.1315   -1.2436 N   0  0  0  0  0  0  0  0  0  0  0  0
   -2.6225    0.2762   -0.7800 H   0  0  0  0  0  0  0  0  0  0  0  0
   -3.5594    0.0143   -2.2537 H   0  0  0  0  0  0  0  0  0  0  0  0
   -4.6755    0.2144    0.6698 O   0  0  0  0  0  0  0  0  0  0  0  0
   -1.0753   -2.1702   -0.0388 C   0  0  0  0  0  0  0  0  0  0  0  0
   -0.1090   -2.4688    0.0115 H   0  0  0  0  0  0  0  0  0  0  0  0
   -1.5076   -2.5679   -0.9569 H   0  0  0  0  0  0  0  0  0  0  0  0
   -1.5905   -2.5842    0.8279 H   0  0  0  0  0  0  0  0  0  0  0  0
   -1.1090   -0.7177    0.0000 N   0  0  0  0  0  0  0  0  0  0  0  0
   -1.9900   -0.1660    0.0295 H   0  0  0  0  0  0  0  0  0  0  0  0
    0.0000    0.0000    0.0000 C   0  0  0  0  0  0  0  0  0  0  0  0
    1.1090   -0.5203   -0.0000 O   0  0  0  0  0  0  0  0  0  0  0  0
   -0.1836    1.5033    0.0332 C   0  0  0  0  0  0  0  0  0  0  0  0
   -0.9262    1.7355    0.6796 H   0  0  0  0  0  0  0  0  0  0  0  0
   -0.4650    1.8264   -0.8835 H   0  0  0  0  0  0  0  0  0  0  0  0
    0.7317    2.0137    0.3328 H   0  0  0  0  0  0  0  0  0  0  0  0
  1  5  1  0
  5  6  1  0
  5  9  2  0
  1  2  1  0
  1  3  1  0
  1  4  1  0
  6  7  1  0
  6  8  1  0
 10 14  1  0
 14 16  1  0
 16 17  2  0
 16 18  1  0
 10 11  1  0
 10 12  1  0
 10 13  1  0
 14 15  1  0
 18 19  1  0
 18 20  1  0
 18 21  1  0
M  END
>  <PDB_ID>  (830) 
pdb5mus

>  <RESIDUE_NAME>  (830) 
GLN   GLY

>  <FRAG_NAME>  (830) 
ACEM   NMA

>  <FRAG_ATOM_NUM>  (830) 
fragi: 9  fragj: 12

>  <atom.prop.CHAIN_ID>  (830) 
A A A A A A A A A Z Z Z Z Z Z Z Z Z Z Z Z

>  <atom.prop.IS_HEAVY_ATOM>  (830) 
1 0 0 0 1 1 0 0 1 1 0 0 0 1 0 1 1 1 0 0 0

>  <DIFUSE_FUNC_ATOM>  (830) 
n/a

>  <FINAL_SINGLE_POINT_ENERGY>  (830) 
0

>  <NONCOV_INTER_ENERGY_QM>  (830) 
0

>  <FF_Energy>  (830) 
6.62

>  <QM_Energy>  (830) 
17.07

>  <source>  (830) 
ACEM_nNMA_63

>  <Index>  (830) 
765

$$$$
ACEM-pdb5n29-A-GLN-352:NMA-pdb5n29-A-ARG-358
     RDKit          3D

 21 19  0  0  0  0  0  0  0  0999 V2000
   -4.6427    0.4218    1.8794 C   0  0  0  0  0  0  0  0  0  0  0  0
   -4.5872    1.4169    2.0104 H   0  0  0  0  0  0  0  0  0  0  0  0
   -3.7430    0.0213    2.0802 H   0  0  0  0  0  0  0  0  0  0  0  0
   -5.3750    0.0139    2.5760 H   0  0  0  0  0  0  0  0  0  0  0  0
   -4.9725    0.1504    0.4258 C   0  0  0  0  0  0  0  0  0  0  0  0
   -3.9492   -0.0768   -0.4013 N   0  0  0  0  0  0  0  0  0  0  0  0
   -4.1000   -0.2768   -1.3779 H   0  0  0  0  0  0  0  0  0  0  0  0
   -3.0019   -0.0410   -0.0209 H   0  0  0  0  0  0  0  0  0  0  0  0
   -6.1454    0.1302    0.0551 O   0  0  0  0  0  0  0  0  0  0  0  0
   -1.1074   -2.1766   -0.1273 C   0  0  0  0  0  0  0  0  0  0  0  0
   -0.3614   -2.5415    0.4385 H   0  0  0  0  0  0  0  0  0  0  0  0
   -0.9293   -2.4726   -1.1612 H   0  0  0  0  0  0  0  0  0  0  0  0
   -2.0487   -2.5969    0.2266 H   0  0  0  0  0  0  0  0  0  0  0  0
   -1.1203   -0.7185   -0.0000 N   0  0  0  0  0  0  0  0  0  0  0  0
   -1.9937   -0.1631    0.0971 H   0  0  0  0  0  0  0  0  0  0  0  0
    0.0000    0.0000    0.0000 C   0  0  0  0  0  0  0  0  0  0  0  0
    1.1203   -0.5040   -0.0000 O   0  0  0  0  0  0  0  0  0  0  0  0
   -0.1603    1.5173    0.0539 C   0  0  0  0  0  0  0  0  0  0  0  0
   -1.1113    1.7443   -0.1225 H   0  0  0  0  0  0  0  0  0  0  0  0
    0.1038    1.8391    1.0613 H   0  0  0  0  0  0  0  0  0  0  0  0
    0.4640    2.0172   -0.6866 H   0  0  0  0  0  0  0  0  0  0  0  0
  1  5  1  0
  5  6  1  0
  5  9  2  0
  1  2  1  0
  1  3  1  0
  1  4  1  0
  6  7  1  0
  6  8  1  0
 10 14  1  0
 14 16  1  0
 16 17  2  0
 16 18  1  0
 10 11  1  0
 10 12  1  0
 10 13  1  0
 14 15  1  0
 18 19  1  0
 18 20  1  0
 18 21  1  0
M  END
>  <PDB_ID>  (831) 
pdb5n29

>  <RESIDUE_NAME>  (831) 
GLN   ARG

>  <FRAG_NAME>  (831) 
ACEM   NMA

>  <FRAG_ATOM_NUM>  (831) 
fragi: 9  fragj: 12

>  <atom.prop.CHAIN_ID>  (831) 
A A A A A A A A A Z Z Z Z Z Z Z Z Z Z Z Z

>  <atom.prop.IS_HEAVY_ATOM>  (831) 
1 0 0 0 1 1 0 0 1 1 0 0 0 1 0 1 1 1 0 0 0

>  <DIFUSE_FUNC_ATOM>  (831) 
n/a

>  <FINAL_SINGLE_POINT_ENERGY>  (831) 
0

>  <NONCOV_INTER_ENERGY_QM>  (831) 
0

>  <FF_Energy>  (831) 
9.41

>  <QM_Energy>  (831) 
22.83

>  <source>  (831) 
ACEM_nNMA_63

>  <Index>  (831) 
6034

$$$$
ACEM-pdb5mwn-C-GLN-157:NMA-pdb5mwn-C-ARG-153
     RDKit          3D

 21 19  0  0  0  0  0  0  0  0999 V2000
   -5.3987   -0.8513    0.5337 C   0  0  0  0  0  0  0  0  0  0  0  0
   -6.2590   -1.0728    0.9742 H   0  0  0  0  0  0  0  0  0  0  0  0
   -4.7554   -1.6014    0.6153 H   0  0  0  0  0  0  0  0  0  0  0  0
   -5.5857   -0.6649   -0.5239 H   0  0  0  0  0  0  0  0  0  0  0  0
   -4.8122    0.3741    1.1900 C   0  0  0  0  0  0  0  0  0  0  0  0
   -3.5153    0.5692    1.0597 N   0  0  0  0  0  0  0  0  0  0  0  0
   -3.0533    1.3799    1.4629 H   0  0  0  0  0  0  0  0  0  0  0  0
   -2.9628   -0.1186    0.5380 H   0  0  0  0  0  0  0  0  0  0  0  0
   -5.5219    1.1880    1.7792 O   0  0  0  0  0  0  0  0  0  0  0  0
   -1.1327   -2.1671   -0.0369 C   0  0  0  0  0  0  0  0  0  0  0  0
   -0.1845   -2.4851   -0.0673 H   0  0  0  0  0  0  0  0  0  0  0  0
   -1.6330   -2.4965   -0.9476 H   0  0  0  0  0  0  0  0  0  0  0  0
   -1.5764   -2.5784    0.8697 H   0  0  0  0  0  0  0  0  0  0  0  0
   -1.1242   -0.7116    0.0000 N   0  0  0  0  0  0  0  0  0  0  0  0
   -1.9971   -0.1361    0.0294 H   0  0  0  0  0  0  0  0  0  0  0  0
    0.0000    0.0000    0.0000 C   0  0  0  0  0  0  0  0  0  0  0  0
    1.1242   -0.5146   -0.0000 O   0  0  0  0  0  0  0  0  0  0  0  0
   -0.1481    1.5129    0.0316 C   0  0  0  0  0  0  0  0  0  0  0  0
   -0.6266    1.7728    0.8700 H   0  0  0  0  0  0  0  0  0  0  0  0
    0.8431    1.9664    0.0355 H   0  0  0  0  0  0  0  0  0  0  0  0
   -0.7402    1.8816   -0.8059 H   0  0  0  0  0  0  0  0  0  0  0  0
  1  5  1  0
  5  6  1  0
  5  9  2  0
  1  2  1  0
  1  3  1  0
  1  4  1  0
  6  7  1  0
  6  8  1  0
 10 14  1  0
 14 16  1  0
 16 17  2  0
 16 18  1  0
 10 11  1  0
 10 12  1  0
 10 13  1  0
 14 15  1  0
 18 19  1  0
 18 20  1  0
 18 21  1  0
M  END
>  <PDB_ID>  (832) 
pdb5mwn

>  <RESIDUE_NAME>  (832) 
GLN   ARG

>  <FRAG_NAME>  (832) 
ACEM   NMA

>  <FRAG_ATOM_NUM>  (832) 
fragi: 9  fragj: 12

>  <atom.prop.CHAIN_ID>  (832) 
A A A A A A A A A Z Z Z Z Z Z Z Z Z Z Z Z

>  <atom.prop.IS_HEAVY_ATOM>  (832) 
1 0 0 0 1 1 0 0 1 1 0 0 0 1 0 1 1 1 0 0 0

>  <DIFUSE_FUNC_ATOM>  (832) 
n/a

>  <FINAL_SINGLE_POINT_ENERGY>  (832) 
0

>  <NONCOV_INTER_ENERGY_QM>  (832) 
0

>  <FF_Energy>  (832) 
7.44

>  <QM_Energy>  (832) 
19.5

>  <source>  (832) 
ACEM_nNMA_63

>  <Index>  (832) 
8501

$$$$
ACEM-pdb6rzd-B-ASN-131:NMA-pdb6rzd-B-ALA-168
     RDKit          3D

 21 19  0  0  0  0  0  0  0  0999 V2000
   -4.9858    1.1167   -2.7271 C   0  0  0  0  0  0  0  0  0  0  0  0
   -5.3903    0.4185   -3.3179 H   0  0  0  0  0  0  0  0  0  0  0  0
   -4.6928    1.8961   -3.2811 H   0  0  0  0  0  0  0  0  0  0  0  0
   -5.7584    1.4644   -2.0413 H   0  0  0  0  0  0  0  0  0  0  0  0
   -3.7698    0.5255   -2.0359 C   0  0  0  0  0  0  0  0  0  0  0  0
   -3.6953    0.7084   -0.7379 N   0  0  0  0  0  0  0  0  0  0  0  0
   -4.4148    1.2075   -0.2475 H   0  0  0  0  0  0  0  0  0  0  0  0
   -2.9126    0.3467   -0.2179 H   0  0  0  0  0  0  0  0  0  0  0  0
   -2.8776   -0.0660   -2.6565 O   0  0  0  0  0  0  0  0  0  0  0  0
   -1.1057   -2.1731   -0.0925 C   0  0  0  0  0  0  0  0  0  0  0  0
   -0.4572   -2.4975    0.5937 H   0  0  0  0  0  0  0  0  0  0  0  0
   -0.7110   -2.4752   -1.0626 H   0  0  0  0  0  0  0  0  0  0  0  0
   -2.0981   -2.5920    0.0742 H   0  0  0  0  0  0  0  0  0  0  0  0
   -1.1263   -0.7009   -0.0000 N   0  0  0  0  0  0  0  0  0  0  0  0
   -1.9951   -0.1496    0.0678 H   0  0  0  0  0  0  0  0  0  0  0  0
    0.0000    0.0000    0.0000 C   0  0  0  0  0  0  0  0  0  0  0  0
    1.1263   -0.5223    0.0000 O   0  0  0  0  0  0  0  0  0  0  0  0
   -0.1213    1.5242   -0.0578 C   0  0  0  0  0  0  0  0  0  0  0  0
   -0.8896    1.8086    0.5083 H   0  0  0  0  0  0  0  0  0  0  0  0
    0.7898    1.9635    0.3483 H   0  0  0  0  0  0  0  0  0  0  0  0
   -0.2348    1.8482   -1.0923 H   0  0  0  0  0  0  0  0  0  0  0  0
  1  5  1  0
  5  6  1  0
  5  9  2  0
  1  2  1  0
  1  3  1  0
  1  4  1  0
  6  7  1  0
  6  8  1  0
 10 14  1  0
 14 16  1  0
 16 17  2  0
 16 18  1  0
 10 11  1  0
 10 12  1  0
 10 13  1  0
 14 15  1  0
 18 19  1  0
 18 20  1  0
 18 21  1  0
M  END
>  <PDB_ID>  (833) 
pdb6rzd

>  <RESIDUE_NAME>  (833) 
ASN   ALA

>  <FRAG_NAME>  (833) 
ACEM   NMA

>  <FRAG_ATOM_NUM>  (833) 
fragi: 9  fragj: 12

>  <atom.prop.CHAIN_ID>  (833) 
A A A A A A A A A Z Z Z Z Z Z Z Z Z Z Z Z

>  <atom.prop.IS_HEAVY_ATOM>  (833) 
1 0 0 0 1 1 0 0 1 1 0 0 0 1 0 1 1 1 0 0 0

>  <DIFUSE_FUNC_ATOM>  (833) 
n/a

>  <FINAL_SINGLE_POINT_ENERGY>  (833) 
0

>  <NONCOV_INTER_ENERGY_QM>  (833) 
0

>  <FF_Energy>  (833) 
7.88

>  <QM_Energy>  (833) 
19.15

>  <source>  (833) 
ACEM_nNMA_63

>  <Index>  (833) 
10402

$$$$
ACEM-pdb6sw3-B-GLN-1152:NMA-pdb6sw3-B-TYR-1147
     RDKit          3D

 21 19  0  0  0  0  0  0  0  0999 V2000
   -4.7459    0.9875   -2.7921 C   0  0  0  0  0  0  0  0  0  0  0  0
   -5.6605    1.3864   -2.7398 H   0  0  0  0  0  0  0  0  0  0  0  0
   -4.7165    0.3134   -3.5299 H   0  0  0  0  0  0  0  0  0  0  0  0
   -4.0286    1.7790   -3.0090 H   0  0  0  0  0  0  0  0  0  0  0  0
   -4.4529    0.2823   -1.4812 C   0  0  0  0  0  0  0  0  0  0  0  0
   -3.1851    0.2677   -1.0838 N   0  0  0  0  0  0  0  0  0  0  0  0
   -2.9162   -0.1736   -0.2099 H   0  0  0  0  0  0  0  0  0  0  0  0
   -2.4807    0.7092   -1.6745 H   0  0  0  0  0  0  0  0  0  0  0  0
   -5.3576   -0.2403   -0.8321 O   0  0  0  0  0  0  0  0  0  0  0  0
   -1.0957   -2.1692   -0.0573 C   0  0  0  0  0  0  0  0  0  0  0  0
   -0.3066   -2.4842    0.4896 H   0  0  0  0  0  0  0  0  0  0  0  0
   -0.9612   -2.5319   -1.0765 H   0  0  0  0  0  0  0  0  0  0  0  0
   -2.0211   -2.5862    0.3400 H   0  0  0  0  0  0  0  0  0  0  0  0
   -1.1276   -0.7133   -0.0000 N   0  0  0  0  0  0  0  0  0  0  0  0
   -1.9970   -0.1564    0.0429 H   0  0  0  0  0  0  0  0  0  0  0  0
    0.0000    0.0000    0.0000 C   0  0  0  0  0  0  0  0  0  0  0  0
    1.1276   -0.5057    0.0000 O   0  0  0  0  0  0  0  0  0  0  0  0
   -0.1599    1.5145    0.0085 C   0  0  0  0  0  0  0  0  0  0  0  0
   -1.1351    1.7246    0.0539 H   0  0  0  0  0  0  0  0  0  0  0  0
    0.3233    1.9110    0.9016 H   0  0  0  0  0  0  0  0  0  0  0  0
    0.2761    1.9448   -0.8930 H   0  0  0  0  0  0  0  0  0  0  0  0
  1  5  1  0
  5  6  1  0
  5  9  2  0
  1  2  1  0
  1  3  1  0
  1  4  1  0
  6  7  1  0
  6  8  1  0
 10 14  1  0
 14 16  1  0
 16 17  2  0
 16 18  1  0
 10 11  1  0
 10 12  1  0
 10 13  1  0
 14 15  1  0
 18 19  1  0
 18 20  1  0
 18 21  1  0
M  END
>  <PDB_ID>  (834) 
pdb6sw3

>  <RESIDUE_NAME>  (834) 
GLN   TYR

>  <FRAG_NAME>  (834) 
ACEM   NMA

>  <FRAG_ATOM_NUM>  (834) 
fragi: 9  fragj: 12

>  <atom.prop.CHAIN_ID>  (834) 
A A A A A A A A A Z Z Z Z Z Z Z Z Z Z Z Z

>  <atom.prop.IS_HEAVY_ATOM>  (834) 
1 0 0 0 1 1 0 0 1 1 0 0 0 1 0 1 1 1 0 0 0

>  <DIFUSE_FUNC_ATOM>  (834) 
n/a

>  <FINAL_SINGLE_POINT_ENERGY>  (834) 
0

>  <NONCOV_INTER_ENERGY_QM>  (834) 
0

>  <FF_Energy>  (834) 
24.68

>  <QM_Energy>  (834) 
39.44

>  <source>  (834) 
ACEM_nNMA_63

>  <Index>  (834) 
11465

$$$$
ACEM-pdb6ude-A-GLN-358:NMA-pdb6ude-A-ASP-134
     RDKit          3D

 21 19  0  0  0  0  0  0  0  0999 V2000
   -5.0689    1.3728   -0.0505 C   0  0  0  0  0  0  0  0  0  0  0  0
   -4.6187    0.8002   -0.7344 H   0  0  0  0  0  0  0  0  0  0  0  0
   -5.0417    2.3280   -0.3413 H   0  0  0  0  0  0  0  0  0  0  0  0
   -6.1130    1.0669    0.0141 H   0  0  0  0  0  0  0  0  0  0  0  0
   -4.3387    1.2360    1.2640 C   0  0  0  0  0  0  0  0  0  0  0  0
   -3.2483    0.4660    1.2624 N   0  0  0  0  0  0  0  0  0  0  0  0
   -2.6980    0.3383    2.1058 H   0  0  0  0  0  0  0  0  0  0  0  0
   -2.9770    0.0060    0.3947 H   0  0  0  0  0  0  0  0  0  0  0  0
   -4.7636    1.7878    2.2863 O   0  0  0  0  0  0  0  0  0  0  0  0
   -1.1515   -2.1803   -0.1456 C   0  0  0  0  0  0  0  0  0  0  0  0
   -0.7193   -2.5888    0.6778 H   0  0  0  0  0  0  0  0  0  0  0  0
   -0.6194   -2.5358   -1.0279 H   0  0  0  0  0  0  0  0  0  0  0  0
   -2.1796   -2.5382   -0.2009 H   0  0  0  0  0  0  0  0  0  0  0  0
   -1.1306   -0.7171   -0.0000 N   0  0  0  0  0  0  0  0  0  0  0  0
   -1.9990   -0.1474    0.1129 H   0  0  0  0  0  0  0  0  0  0  0  0
    0.0000    0.0000    0.0000 C   0  0  0  0  0  0  0  0  0  0  0  0
    1.1306   -0.5015   -0.0000 O   0  0  0  0  0  0  0  0  0  0  0  0
   -0.1717    1.5154    0.0280 C   0  0  0  0  0  0  0  0  0  0  0  0
   -0.9366    1.7126    0.6333 H   0  0  0  0  0  0  0  0  0  0  0  0
    0.7217    1.9427    0.4834 H   0  0  0  0  0  0  0  0  0  0  0  0
   -0.3220    1.9124   -0.9760 H   0  0  0  0  0  0  0  0  0  0  0  0
  1  5  1  0
  5  6  1  0
  5  9  2  0
  1  2  1  0
  1  3  1  0
  1  4  1  0
  6  7  1  0
  6  8  1  0
 10 14  1  0
 14 16  1  0
 16 17  2  0
 16 18  1  0
 10 11  1  0
 10 12  1  0
 10 13  1  0
 14 15  1  0
 18 19  1  0
 18 20  1  0
 18 21  1  0
M  END
>  <PDB_ID>  (835) 
pdb6ude

>  <RESIDUE_NAME>  (835) 
GLN   ASP

>  <FRAG_NAME>  (835) 
ACEM   NMA

>  <FRAG_ATOM_NUM>  (835) 
fragi: 9  fragj: 12

>  <atom.prop.CHAIN_ID>  (835) 
A A A A A A A A A Z Z Z Z Z Z Z Z Z Z Z Z

>  <atom.prop.IS_HEAVY_ATOM>  (835) 
1 0 0 0 1 1 0 0 1 1 0 0 0 1 0 1 1 1 0 0 0

>  <DIFUSE_FUNC_ATOM>  (835) 
n/a

>  <FINAL_SINGLE_POINT_ENERGY>  (835) 
0

>  <NONCOV_INTER_ENERGY_QM>  (835) 
0

>  <FF_Energy>  (835) 
11.25

>  <QM_Energy>  (835) 
25.63

>  <source>  (835) 
ACEM_nNMA_63

>  <Index>  (835) 
15809

$$$$
ACEM-pdb6tyb-L-GLN-166:NMA-pdb6tyb-L-GLU-105
     RDKit          3D

 21 19  0  0  0  0  0  0  0  0999 V2000
   -5.4139    0.2607   -2.4954 C   0  0  0  0  0  0  0  0  0  0  0  0
   -6.0800   -0.3025   -2.0071 H   0  0  0  0  0  0  0  0  0  0  0  0
   -5.4804    0.0821   -3.4761 H   0  0  0  0  0  0  0  0  0  0  0  0
   -5.6428    1.3109   -2.3141 H   0  0  0  0  0  0  0  0  0  0  0  0
   -4.0229   -0.1206   -2.0271 C   0  0  0  0  0  0  0  0  0  0  0  0
   -3.8877   -0.3915   -0.7334 N   0  0  0  0  0  0  0  0  0  0  0  0
   -2.9880   -0.6672   -0.3481 H   0  0  0  0  0  0  0  0  0  0  0  0
   -4.7042   -0.3155   -0.1276 H   0  0  0  0  0  0  0  0  0  0  0  0
   -3.0824   -0.1761   -2.8190 O   0  0  0  0  0  0  0  0  0  0  0  0
   -1.0880   -2.1685    0.1071 C   0  0  0  0  0  0  0  0  0  0  0  0
   -0.3862   -2.3850    0.7863 H   0  0  0  0  0  0  0  0  0  0  0  0
   -0.7509   -2.5984   -0.8361 H   0  0  0  0  0  0  0  0  0  0  0  0
   -2.0665   -2.5566    0.3899 H   0  0  0  0  0  0  0  0  0  0  0  0
   -1.1253   -0.7168    0.0000 N   0  0  0  0  0  0  0  0  0  0  0  0
   -1.9952   -0.1655   -0.0802 H   0  0  0  0  0  0  0  0  0  0  0  0
    0.0000    0.0000    0.0000 C   0  0  0  0  0  0  0  0  0  0  0  0
    1.1253   -0.5062   -0.0000 O   0  0  0  0  0  0  0  0  0  0  0  0
   -0.1981    1.5102    0.0100 C   0  0  0  0  0  0  0  0  0  0  0  0
   -0.9213    1.7486    0.6662 H   0  0  0  0  0  0  0  0  0  0  0  0
    0.7292    2.0139    0.2832 H   0  0  0  0  0  0  0  0  0  0  0  0
   -0.5656    1.8453   -0.9599 H   0  0  0  0  0  0  0  0  0  0  0  0
  1  5  1  0
  5  6  1  0
  5  9  2  0
  1  2  1  0
  1  3  1  0
  1  4  1  0
  6  7  1  0
  6  8  1  0
 10 14  1  0
 14 16  1  0
 16 17  2  0
 16 18  1  0
 10 11  1  0
 10 12  1  0
 10 13  1  0
 14 15  1  0
 18 19  1  0
 18 20  1  0
 18 21  1  0
M  END
>  <PDB_ID>  (836) 
pdb6tyb

>  <RESIDUE_NAME>  (836) 
GLN   GLU

>  <FRAG_NAME>  (836) 
ACEM   NMA

>  <FRAG_ATOM_NUM>  (836) 
fragi: 9  fragj: 12

>  <atom.prop.CHAIN_ID>  (836) 
A A A A A A A A A Z Z Z Z Z Z Z Z Z Z Z Z

>  <atom.prop.IS_HEAVY_ATOM>  (836) 
1 0 0 0 1 1 0 0 1 1 0 0 0 1 0 1 1 1 0 0 0

>  <DIFUSE_FUNC_ATOM>  (836) 
n/a

>  <FINAL_SINGLE_POINT_ENERGY>  (836) 
0

>  <NONCOV_INTER_ENERGY_QM>  (836) 
0

>  <FF_Energy>  (836) 
4.9

>  <QM_Energy>  (836) 
16.49

>  <source>  (836) 
ACEM_nNMA_63

>  <Index>  (836) 
18106

$$$$
ACEM-pdb5nh0-A-GLN-192:NMA-pdb5nh0-A-PHE-185
     RDKit          3D

 21 19  0  0  0  0  0  0  0  0999 V2000
   -5.3148    1.4993    1.4821 C   0  0  0  0  0  0  0  0  0  0  0  0
   -4.9302    1.9181    2.2902 H   0  0  0  0  0  0  0  0  0  0  0  0
   -5.9388    0.7693    1.7160 H   0  0  0  0  0  0  0  0  0  0  0  0
   -5.8223    2.2487    0.8747 H   0  0  0  0  0  0  0  0  0  0  0  0
   -4.1798    0.9090    0.6715 C   0  0  0  0  0  0  0  0  0  0  0  0
   -2.9224    0.8468    1.1892 N   0  0  0  0  0  0  0  0  0  0  0  0
   -2.1733    0.4619    0.7036 H   0  0  0  0  0  0  0  0  0  0  0  0
   -2.8023    1.2355    2.1382 H   0  0  0  0  0  0  0  0  0  0  0  0
   -4.4734    0.4400   -0.3766 O   0  0  0  0  0  0  0  0  0  0  0  0
   -1.2025   -2.0954    0.1307 C   0  0  0  0  0  0  0  0  0  0  0  0
   -0.2908   -2.4468    0.3347 H   0  0  0  0  0  0  0  0  0  0  0  0
   -1.4873   -2.4767   -0.8499 H   0  0  0  0  0  0  0  0  0  0  0  0
   -2.0216   -2.3683    0.7961 H   0  0  0  0  0  0  0  0  0  0  0  0
   -1.1106   -0.6871   -0.0000 N   0  0  0  0  0  0  0  0  0  0  0  0
   -1.9806   -0.0662   -0.1121 H   0  0  0  0  0  0  0  0  0  0  0  0
    0.0000    0.0000    0.0000 C   0  0  0  0  0  0  0  0  0  0  0  0
    1.1106   -0.5127   -0.0000 O   0  0  0  0  0  0  0  0  0  0  0  0
   -0.1904    1.5245   -0.0433 C   0  0  0  0  0  0  0  0  0  0  0  0
   -0.8105    1.7461    0.7116 H   0  0  0  0  0  0  0  0  0  0  0  0
    0.7677    2.0070    0.1501 H   0  0  0  0  0  0  0  0  0  0  0  0
   -0.6281    1.8587   -0.9839 H   0  0  0  0  0  0  0  0  0  0  0  0
  1  5  1  0
  5  6  1  0
  5  9  2  0
  1  2  1  0
  1  3  1  0
  1  4  1  0
  6  7  1  0
  6  8  1  0
 10 14  1  0
 14 16  1  0
 16 17  2  0
 16 18  1  0
 10 11  1  0
 10 12  1  0
 10 13  1  0
 14 15  1  0
 18 19  1  0
 18 20  1  0
 18 21  1  0
M  END
>  <PDB_ID>  (837) 
pdb5nh0

>  <RESIDUE_NAME>  (837) 
GLN   PHE

>  <FRAG_NAME>  (837) 
ACEM   NMA

>  <FRAG_ATOM_NUM>  (837) 
fragi: 9  fragj: 12

>  <atom.prop.CHAIN_ID>  (837) 
A A A A A A A A A Z Z Z Z Z Z Z Z Z Z Z Z

>  <atom.prop.IS_HEAVY_ATOM>  (837) 
1 0 0 0 1 1 0 0 1 1 0 0 0 1 0 1 1 1 0 0 0

>  <DIFUSE_FUNC_ATOM>  (837) 
n/a

>  <FINAL_SINGLE_POINT_ENERGY>  (837) 
0

>  <NONCOV_INTER_ENERGY_QM>  (837) 
0

>  <FF_Energy>  (837) 
16.23

>  <QM_Energy>  (837) 
31.43

>  <source>  (837) 
ACEM_nNMA_63

>  <Index>  (837) 
18237

$$$$
ACEM-pdb5nh0-C-GLN-192:NMA-pdb5nh0-C-PHE-185
     RDKit          3D

 21 19  0  0  0  0  0  0  0  0999 V2000
   -5.3314    1.6647    1.0984 C   0  0  0  0  0  0  0  0  0  0  0  0
   -4.9522    2.1672    1.8741 H   0  0  0  0  0  0  0  0  0  0  0  0
   -5.9810    0.9806    1.4261 H   0  0  0  0  0  0  0  0  0  0  0  0
   -5.8412    2.3587    0.4301 H   0  0  0  0  0  0  0  0  0  0  0  0
   -4.2059    0.9558    0.3950 C   0  0  0  0  0  0  0  0  0  0  0  0
   -3.0754    1.0613    1.0534 N   0  0  0  0  0  0  0  0  0  0  0  0
   -2.2094    0.5874    0.6596 H   0  0  0  0  0  0  0  0  0  0  0  0
   -3.0157    1.5745    1.9098 H   0  0  0  0  0  0  0  0  0  0  0  0
   -4.2936    0.3722   -0.7422 O   0  0  0  0  0  0  0  0  0  0  0  0
   -1.2325   -2.0790    0.1945 C   0  0  0  0  0  0  0  0  0  0  0  0
   -0.3283   -2.4358    0.4298 H   0  0  0  0  0  0  0  0  0  0  0  0
   -1.5140   -2.4990   -0.7712 H   0  0  0  0  0  0  0  0  0  0  0  0
   -2.0606   -2.3079    0.8652 H   0  0  0  0  0  0  0  0  0  0  0  0
   -1.1117   -0.6849    0.0000 N   0  0  0  0  0  0  0  0  0  0  0  0
   -1.9761   -0.0573   -0.1708 H   0  0  0  0  0  0  0  0  0  0  0  0
    0.0000    0.0000    0.0000 C   0  0  0  0  0  0  0  0  0  0  0  0
    1.1117   -0.5324    0.0000 O   0  0  0  0  0  0  0  0  0  0  0  0
   -0.1852    1.5360   -0.0914 C   0  0  0  0  0  0  0  0  0  0  0  0
   -0.7941    1.7797    0.6591 H   0  0  0  0  0  0  0  0  0  0  0  0
    0.7818    2.0059    0.0875 H   0  0  0  0  0  0  0  0  0  0  0  0
   -0.5944    1.8410   -1.0545 H   0  0  0  0  0  0  0  0  0  0  0  0
  1  5  1  0
  5  6  1  0
  5  9  2  0
  1  2  1  0
  1  3  1  0
  1  4  1  0
  6  7  1  0
  6  8  1  0
 10 14  1  0
 14 16  1  0
 16 17  2  0
 16 18  1  0
 10 11  1  0
 10 12  1  0
 10 13  1  0
 14 15  1  0
 18 19  1  0
 18 20  1  0
 18 21  1  0
M  END
>  <PDB_ID>  (838) 
pdb5nh0

>  <RESIDUE_NAME>  (838) 
GLN   PHE

>  <FRAG_NAME>  (838) 
ACEM   NMA

>  <FRAG_ATOM_NUM>  (838) 
fragi: 9  fragj: 12

>  <atom.prop.CHAIN_ID>  (838) 
A A A A A A A A A Z Z Z Z Z Z Z Z Z Z Z Z

>  <atom.prop.IS_HEAVY_ATOM>  (838) 
1 0 0 0 1 1 0 0 1 1 0 0 0 1 0 1 1 1 0 0 0

>  <DIFUSE_FUNC_ATOM>  (838) 
n/a

>  <FINAL_SINGLE_POINT_ENERGY>  (838) 
0

>  <NONCOV_INTER_ENERGY_QM>  (838) 
0

>  <FF_Energy>  (838) 
8.85

>  <QM_Energy>  (838) 
19.17

>  <source>  (838) 
ACEM_nNMA_63

>  <Index>  (838) 
22167

$$$$
ACEM-pdb5nsj-A-ASN-120:NMA-pdb5nsj-A-VAL-116
     RDKit          3D

 21 19  0  0  0  0  0  0  0  0999 V2000
   -4.3668   -0.8452    3.0637 C   0  0  0  0  0  0  0  0  0  0  0  0
   -4.5163   -0.1577    3.7734 H   0  0  0  0  0  0  0  0  0  0  0  0
   -4.0966   -1.7094    3.4860 H   0  0  0  0  0  0  0  0  0  0  0  0
   -5.3111   -1.0045    2.5431 H   0  0  0  0  0  0  0  0  0  0  0  0
   -3.2692   -0.3803    2.1552 C   0  0  0  0  0  0  0  0  0  0  0  0
   -3.5791   -0.2652    0.8722 N   0  0  0  0  0  0  0  0  0  0  0  0
   -4.5047   -0.4763    0.5553 H   0  0  0  0  0  0  0  0  0  0  0  0
   -2.8862    0.0368    0.2138 H   0  0  0  0  0  0  0  0  0  0  0  0
   -2.1404   -0.1612    2.5850 O   0  0  0  0  0  0  0  0  0  0  0  0
   -1.1855   -2.1723   -0.1379 C   0  0  0  0  0  0  0  0  0  0  0  0
   -0.3457   -2.4621   -0.5878 H   0  0  0  0  0  0  0  0  0  0  0  0
   -2.0085   -2.4143   -0.8104 H   0  0  0  0  0  0  0  0  0  0  0  0
   -1.3180   -2.6715    0.8220 H   0  0  0  0  0  0  0  0  0  0  0  0
   -1.1282   -0.7201   -0.0000 N   0  0  0  0  0  0  0  0  0  0  0  0
   -1.9978   -0.1291    0.1117 H   0  0  0  0  0  0  0  0  0  0  0  0
    0.0000    0.0000    0.0000 C   0  0  0  0  0  0  0  0  0  0  0  0
    1.1282   -0.5150   -0.0000 O   0  0  0  0  0  0  0  0  0  0  0  0
   -0.1769    1.5154    0.0080 C   0  0  0  0  0  0  0  0  0  0  0  0
   -1.1088    1.7160    0.3356 H   0  0  0  0  0  0  0  0  0  0  0  0
    0.5315    1.9924    0.6852 H   0  0  0  0  0  0  0  0  0  0  0  0
   -0.0549    1.9375   -0.9895 H   0  0  0  0  0  0  0  0  0  0  0  0
  1  5  1  0
  5  6  1  0
  5  9  2  0
  1  2  1  0
  1  3  1  0
  1  4  1  0
  6  7  1  0
  6  8  1  0
 10 14  1  0
 14 16  1  0
 16 17  2  0
 16 18  1  0
 10 11  1  0
 10 12  1  0
 10 13  1  0
 14 15  1  0
 18 19  1  0
 18 20  1  0
 18 21  1  0
M  END
>  <PDB_ID>  (839) 
pdb5nsj

>  <RESIDUE_NAME>  (839) 
ASN   VAL

>  <FRAG_NAME>  (839) 
ACEM   NMA

>  <FRAG_ATOM_NUM>  (839) 
fragi: 9  fragj: 12

>  <atom.prop.CHAIN_ID>  (839) 
A A A A A A A A A Z Z Z Z Z Z Z Z Z Z Z Z

>  <atom.prop.IS_HEAVY_ATOM>  (839) 
1 0 0 0 1 1 0 0 1 1 0 0 0 1 0 1 1 1 0 0 0

>  <DIFUSE_FUNC_ATOM>  (839) 
n/a

>  <FINAL_SINGLE_POINT_ENERGY>  (839) 
0

>  <NONCOV_INTER_ENERGY_QM>  (839) 
0

>  <FF_Energy>  (839) 
19.49

>  <QM_Energy>  (839) 
40.37

>  <source>  (839) 
ACEM_nNMA_63

>  <Index>  (839) 
23474

$$$$
ACEM-pdb5nsj-B-ASN-215:NMA-pdb5nsj-A-SER-203
     RDKit          3D

 21 19  0  0  0  0  0  0  0  0999 V2000
   -5.7446    0.6550    0.6099 C   0  0  0  0  0  0  0  0  0  0  0  0
   -6.4235    0.6502   -0.1183 H   0  0  0  0  0  0  0  0  0  0  0  0
   -5.8473    1.4718    1.1708 H   0  0  0  0  0  0  0  0  0  0  0  0
   -5.9075   -0.2192    1.2402 H   0  0  0  0  0  0  0  0  0  0  0  0
   -4.3684    0.6639   -0.0116 C   0  0  0  0  0  0  0  0  0  0  0  0
   -3.3569    0.3814    0.7980 N   0  0  0  0  0  0  0  0  0  0  0  0
   -3.5270    0.1724    1.7625 H   0  0  0  0  0  0  0  0  0  0  0  0
   -2.4189    0.3767    0.4480 H   0  0  0  0  0  0  0  0  0  0  0  0
   -4.2088    0.9635   -1.1914 O   0  0  0  0  0  0  0  0  0  0  0  0
   -1.1357   -2.1352    0.2485 C   0  0  0  0  0  0  0  0  0  0  0  0
   -0.1952   -2.4454    0.4044 H   0  0  0  0  0  0  0  0  0  0  0  0
   -1.5265   -2.6487   -0.6299 H   0  0  0  0  0  0  0  0  0  0  0  0
   -1.7391   -2.3593    1.1281 H   0  0  0  0  0  0  0  0  0  0  0  0
   -1.1197   -0.7079   -0.0000 N   0  0  0  0  0  0  0  0  0  0  0  0
   -1.9831   -0.1499   -0.1938 H   0  0  0  0  0  0  0  0  0  0  0  0
    0.0000    0.0000    0.0000 C   0  0  0  0  0  0  0  0  0  0  0  0
    1.1197   -0.5205    0.0000 O   0  0  0  0  0  0  0  0  0  0  0  0
   -0.1917    1.5131   -0.0363 C   0  0  0  0  0  0  0  0  0  0  0  0
   -0.9770    1.7374    0.5485 H   0  0  0  0  0  0  0  0  0  0  0  0
    0.6885    2.0157    0.3646 H   0  0  0  0  0  0  0  0  0  0  0  0
   -0.3885    1.8315   -1.0601 H   0  0  0  0  0  0  0  0  0  0  0  0
  1  5  1  0
  5  6  1  0
  5  9  2  0
  1  2  1  0
  1  3  1  0
  1  4  1  0
  6  7  1  0
  6  8  1  0
 10 14  1  0
 14 16  1  0
 16 17  2  0
 16 18  1  0
 10 11  1  0
 10 12  1  0
 10 13  1  0
 14 15  1  0
 18 19  1  0
 18 20  1  0
 18 21  1  0
M  END
>  <PDB_ID>  (840) 
pdb5nsj

>  <RESIDUE_NAME>  (840) 
ASN   SER

>  <FRAG_NAME>  (840) 
ACEM   NMA

>  <FRAG_ATOM_NUM>  (840) 
fragi: 9  fragj: 12

>  <atom.prop.CHAIN_ID>  (840) 
A A A A A A A A A Z Z Z Z Z Z Z Z Z Z Z Z

>  <atom.prop.IS_HEAVY_ATOM>  (840) 
1 0 0 0 1 1 0 0 1 1 0 0 0 1 0 1 1 1 0 0 0

>  <DIFUSE_FUNC_ATOM>  (840) 
n/a

>  <FINAL_SINGLE_POINT_ENERGY>  (840) 
0

>  <NONCOV_INTER_ENERGY_QM>  (840) 
0

>  <FF_Energy>  (840) 
15.12

>  <QM_Energy>  (840) 
36.52

>  <source>  (840) 
ACEM_nNMA_63

>  <Index>  (840) 
23858

$$$$
ACEM-pdb5nop-B-ASN-359:NMA-pdb5nop-B-LEU-420
     RDKit          3D

 21 19  0  0  0  0  0  0  0  0999 V2000
   -5.6238    1.5698    0.5682 C   0  0  0  0  0  0  0  0  0  0  0  0
   -6.2762    0.9288    0.9642 H   0  0  0  0  0  0  0  0  0  0  0  0
   -6.0604    2.0957   -0.1580 H   0  0  0  0  0  0  0  0  0  0  0  0
   -5.3119    2.2636    1.3489 H   0  0  0  0  0  0  0  0  0  0  0  0
   -4.4702    0.7867   -0.0234 C   0  0  0  0  0  0  0  0  0  0  0  0
   -3.5551    0.3653    0.8340 N   0  0  0  0  0  0  0  0  0  0  0  0
   -3.6464    0.5595    1.8112 H   0  0  0  0  0  0  0  0  0  0  0  0
   -2.7621   -0.1555    0.5071 H   0  0  0  0  0  0  0  0  0  0  0  0
   -4.4096    0.5477   -1.2321 O   0  0  0  0  0  0  0  0  0  0  0  0
   -1.0765   -2.1679    0.1160 C   0  0  0  0  0  0  0  0  0  0  0  0
   -0.6181   -2.4125    0.9867 H   0  0  0  0  0  0  0  0  0  0  0  0
   -0.5323   -2.6378   -0.7032 H   0  0  0  0  0  0  0  0  0  0  0  0
   -2.0913   -2.5619    0.1711 H   0  0  0  0  0  0  0  0  0  0  0  0
   -1.1171   -0.7183    0.0000 N   0  0  0  0  0  0  0  0  0  0  0  0
   -1.9910   -0.1711   -0.0872 H   0  0  0  0  0  0  0  0  0  0  0  0
    0.0000    0.0000    0.0000 C   0  0  0  0  0  0  0  0  0  0  0  0
    1.1171   -0.5254    0.0000 O   0  0  0  0  0  0  0  0  0  0  0  0
   -0.1534    1.5155   -0.0319 C   0  0  0  0  0  0  0  0  0  0  0  0
    0.7523    1.9235   -0.1991 H   0  0  0  0  0  0  0  0  0  0  0  0
   -0.8262    1.8265   -0.8311 H   0  0  0  0  0  0  0  0  0  0  0  0
   -0.5254    1.8773    0.9267 H   0  0  0  0  0  0  0  0  0  0  0  0
  1  5  1  0
  5  6  1  0
  5  9  2  0
  1  2  1  0
  1  3  1  0
  1  4  1  0
  6  7  1  0
  6  8  1  0
 10 14  1  0
 14 16  1  0
 16 17  2  0
 16 18  1  0
 10 11  1  0
 10 12  1  0
 10 13  1  0
 14 15  1  0
 18 19  1  0
 18 20  1  0
 18 21  1  0
M  END
>  <PDB_ID>  (841) 
pdb5nop

>  <RESIDUE_NAME>  (841) 
ASN   LEU

>  <FRAG_NAME>  (841) 
ACEM   NMA

>  <FRAG_ATOM_NUM>  (841) 
fragi: 9  fragj: 12

>  <atom.prop.CHAIN_ID>  (841) 
A A A A A A A A A Z Z Z Z Z Z Z Z Z Z Z Z

>  <atom.prop.IS_HEAVY_ATOM>  (841) 
1 0 0 0 1 1 0 0 1 1 0 0 0 1 0 1 1 1 0 0 0

>  <DIFUSE_FUNC_ATOM>  (841) 
n/a

>  <FINAL_SINGLE_POINT_ENERGY>  (841) 
0

>  <NONCOV_INTER_ENERGY_QM>  (841) 
0

>  <FF_Energy>  (841) 
7.72

>  <QM_Energy>  (841) 
26.83

>  <source>  (841) 
ACEM_nNMA_63

>  <Index>  (841) 
24563

$$$$
ACEM-pdb5nv8-A-GLN-197:NMA-pdb5nv8-A-ASP-333
     RDKit          3D

 21 19  0  0  0  0  0  0  0  0999 V2000
   -4.2144    0.9129    3.2141 C   0  0  0  0  0  0  0  0  0  0  0  0
   -4.9260    1.6160    3.2669 H   0  0  0  0  0  0  0  0  0  0  0  0
   -3.6202    0.9846    4.0177 H   0  0  0  0  0  0  0  0  0  0  0  0
   -4.6884   -0.0686    3.2120 H   0  0  0  0  0  0  0  0  0  0  0  0
   -3.3825    1.1641    1.9763 C   0  0  0  0  0  0  0  0  0  0  0  0
   -3.3173    0.1687    1.1023 N   0  0  0  0  0  0  0  0  0  0  0  0
   -2.7865    0.2672    0.2359 H   0  0  0  0  0  0  0  0  0  0  0  0
   -3.8058   -0.7008    1.3065 H   0  0  0  0  0  0  0  0  0  0  0  0
   -2.7622    2.2175    1.8307 O   0  0  0  0  0  0  0  0  0  0  0  0
   -1.1049   -2.1723    0.0142 C   0  0  0  0  0  0  0  0  0  0  0  0
   -0.4321   -2.4703    0.7106 H   0  0  0  0  0  0  0  0  0  0  0  0
   -0.8028   -2.5942   -0.9444 H   0  0  0  0  0  0  0  0  0  0  0  0
   -2.0845   -2.5569    0.2983 H   0  0  0  0  0  0  0  0  0  0  0  0
   -1.1272   -0.7156   -0.0000 N   0  0  0  0  0  0  0  0  0  0  0  0
   -1.9982   -0.1533   -0.0104 H   0  0  0  0  0  0  0  0  0  0  0  0
    0.0000    0.0000    0.0000 C   0  0  0  0  0  0  0  0  0  0  0  0
    1.1272   -0.5047    0.0000 O   0  0  0  0  0  0  0  0  0  0  0  0
   -0.1815    1.5103   -0.0168 C   0  0  0  0  0  0  0  0  0  0  0  0
   -1.1750    1.6907    0.0056 H   0  0  0  0  0  0  0  0  0  0  0  0
    0.2490    1.9813    0.8670 H   0  0  0  0  0  0  0  0  0  0  0  0
    0.2579    1.9306   -0.9214 H   0  0  0  0  0  0  0  0  0  0  0  0
  1  5  1  0
  5  6  1  0
  5  9  2  0
  1  2  1  0
  1  3  1  0
  1  4  1  0
  6  7  1  0
  6  8  1  0
 10 14  1  0
 14 16  1  0
 16 17  2  0
 16 18  1  0
 10 11  1  0
 10 12  1  0
 10 13  1  0
 14 15  1  0
 18 19  1  0
 18 20  1  0
 18 21  1  0
M  END
>  <PDB_ID>  (842) 
pdb5nv8

>  <RESIDUE_NAME>  (842) 
GLN   ASP

>  <FRAG_NAME>  (842) 
ACEM   NMA

>  <FRAG_ATOM_NUM>  (842) 
fragi: 9  fragj: 12

>  <atom.prop.CHAIN_ID>  (842) 
A A A A A A A A A Z Z Z Z Z Z Z Z Z Z Z Z

>  <atom.prop.IS_HEAVY_ATOM>  (842) 
1 0 0 0 1 1 0 0 1 1 0 0 0 1 0 1 1 1 0 0 0

>  <DIFUSE_FUNC_ATOM>  (842) 
n/a

>  <FINAL_SINGLE_POINT_ENERGY>  (842) 
0

>  <NONCOV_INTER_ENERGY_QM>  (842) 
0

>  <FF_Energy>  (842) 
16.41

>  <QM_Energy>  (842) 
39.68

>  <source>  (842) 
ACEM_nNMA_63

>  <Index>  (842) 
24978

$$$$
ACEM-pdb5o5c-D-ASN-127:NMA-pdb5o5c-C-THR-333
     RDKit          3D

 21 19  0  0  0  0  0  0  0  0999 V2000
   -4.9302    2.7638   -0.3737 C   0  0  0  0  0  0  0  0  0  0  0  0
   -4.4217    3.3929   -0.9657 H   0  0  0  0  0  0  0  0  0  0  0  0
   -5.3547    3.2838    0.3714 H   0  0  0  0  0  0  0  0  0  0  0  0
   -5.7270    2.3143   -0.9663 H   0  0  0  0  0  0  0  0  0  0  0  0
   -3.9398    1.7684    0.2355 C   0  0  0  0  0  0  0  0  0  0  0  0
   -3.4415    0.8824   -0.6071 N   0  0  0  0  0  0  0  0  0  0  0  0
   -3.7000    0.8835   -1.5723 H   0  0  0  0  0  0  0  0  0  0  0  0
   -2.7858    0.1902   -0.2781 H   0  0  0  0  0  0  0  0  0  0  0  0
   -3.6692    1.7580    1.4325 O   0  0  0  0  0  0  0  0  0  0  0  0
   -1.1479   -2.1119   -0.2672 C   0  0  0  0  0  0  0  0  0  0  0  0
   -0.5043   -2.5436    0.3564 H   0  0  0  0  0  0  0  0  0  0  0  0
   -0.7923   -2.2789   -1.2839 H   0  0  0  0  0  0  0  0  0  0  0  0
   -2.1114   -2.5760   -0.0569 H   0  0  0  0  0  0  0  0  0  0  0  0
   -1.1467   -0.6638    0.0000 N   0  0  0  0  0  0  0  0  0  0  0  0
   -1.9881   -0.1167    0.1904 H   0  0  0  0  0  0  0  0  0  0  0  0
    0.0000    0.0000    0.0000 C   0  0  0  0  0  0  0  0  0  0  0  0
    1.1467   -0.5847   -0.0000 O   0  0  0  0  0  0  0  0  0  0  0  0
   -0.1526    1.5092    0.0344 C   0  0  0  0  0  0  0  0  0  0  0  0
   -0.9862    1.7387    0.5424 H   0  0  0  0  0  0  0  0  0  0  0  0
    0.6926    1.9631    0.5518 H   0  0  0  0  0  0  0  0  0  0  0  0
   -0.3110    1.8924   -0.9736 H   0  0  0  0  0  0  0  0  0  0  0  0
  1  5  1  0
  5  6  1  0
  5  9  2  0
  1  2  1  0
  1  3  1  0
  1  4  1  0
  6  7  1  0
  6  8  1  0
 10 14  1  0
 14 16  1  0
 16 17  2  0
 16 18  1  0
 10 11  1  0
 10 12  1  0
 10 13  1  0
 14 15  1  0
 18 19  1  0
 18 20  1  0
 18 21  1  0
M  END
>  <PDB_ID>  (843) 
pdb5o5c

>  <RESIDUE_NAME>  (843) 
ASN   THR

>  <FRAG_NAME>  (843) 
ACEM   NMA

>  <FRAG_ATOM_NUM>  (843) 
fragi: 9  fragj: 12

>  <atom.prop.CHAIN_ID>  (843) 
A A A A A A A A A Z Z Z Z Z Z Z Z Z Z Z Z

>  <atom.prop.IS_HEAVY_ATOM>  (843) 
1 0 0 0 1 1 0 0 1 1 0 0 0 1 0 1 1 1 0 0 0

>  <DIFUSE_FUNC_ATOM>  (843) 
n/a

>  <FINAL_SINGLE_POINT_ENERGY>  (843) 
0

>  <NONCOV_INTER_ENERGY_QM>  (843) 
0

>  <FF_Energy>  (843) 
6.82

>  <QM_Energy>  (843) 
26.36

>  <source>  (843) 
ACEM_nNMA_64

>  <Index>  (843) 
2442

$$$$
ACEM-pdb5o9c-C-GLN-204:NMA-pdb5o9c-C-ARG-200
     RDKit          3D

 21 19  0  0  0  0  0  0  0  0999 V2000
   -5.4751    0.0069    0.4060 C   0  0  0  0  0  0  0  0  0  0  0  0
   -6.3149    0.5556    0.3808 H   0  0  0  0  0  0  0  0  0  0  0  0
   -5.6798   -0.8839    0.8209 H   0  0  0  0  0  0  0  0  0  0  0  0
   -5.1407   -0.1584   -0.6182 H   0  0  0  0  0  0  0  0  0  0  0  0
   -4.4545    0.7322    1.3023 C   0  0  0  0  0  0  0  0  0  0  0  0
   -3.1761    0.5914    0.9763 N   0  0  0  0  0  0  0  0  0  0  0  0
   -2.4522    1.0515    1.5136 H   0  0  0  0  0  0  0  0  0  0  0  0
   -2.9349    0.0099    0.1752 H   0  0  0  0  0  0  0  0  0  0  0  0
   -4.8134    1.3973    2.2683 O   0  0  0  0  0  0  0  0  0  0  0  0
   -1.0865   -2.1744    0.1245 C   0  0  0  0  0  0  0  0  0  0  0  0
   -0.1267   -2.4765    0.1416 H   0  0  0  0  0  0  0  0  0  0  0  0
   -1.5789   -2.6406   -0.7289 H   0  0  0  0  0  0  0  0  0  0  0  0
   -1.5709   -2.5093    1.0417 H   0  0  0  0  0  0  0  0  0  0  0  0
   -1.1138   -0.7240    0.0000 N   0  0  0  0  0  0  0  0  0  0  0  0
   -1.9909   -0.1735   -0.0944 H   0  0  0  0  0  0  0  0  0  0  0  0
    0.0000    0.0000    0.0000 C   0  0  0  0  0  0  0  0  0  0  0  0
    1.1138   -0.5304   -0.0000 O   0  0  0  0  0  0  0  0  0  0  0  0
   -0.1709    1.5294    0.0232 C   0  0  0  0  0  0  0  0  0  0  0  0
   -0.6611    1.7770    0.8572 H   0  0  0  0  0  0  0  0  0  0  0  0
    0.8126    1.9993    0.0294 H   0  0  0  0  0  0  0  0  0  0  0  0
   -0.7581    1.9072   -0.8138 H   0  0  0  0  0  0  0  0  0  0  0  0
  1  5  1  0
  5  6  1  0
  5  9  2  0
  1  2  1  0
  1  3  1  0
  1  4  1  0
  6  7  1  0
  6  8  1  0
 10 14  1  0
 14 16  1  0
 16 17  2  0
 16 18  1  0
 10 11  1  0
 10 12  1  0
 10 13  1  0
 14 15  1  0
 18 19  1  0
 18 20  1  0
 18 21  1  0
M  END
>  <PDB_ID>  (844) 
pdb5o9c

>  <RESIDUE_NAME>  (844) 
GLN   ARG

>  <FRAG_NAME>  (844) 
ACEM   NMA

>  <FRAG_ATOM_NUM>  (844) 
fragi: 9  fragj: 12

>  <atom.prop.CHAIN_ID>  (844) 
A A A A A A A A A Z Z Z Z Z Z Z Z Z Z Z Z

>  <atom.prop.IS_HEAVY_ATOM>  (844) 
1 0 0 0 1 1 0 0 1 1 0 0 0 1 0 1 1 1 0 0 0

>  <DIFUSE_FUNC_ATOM>  (844) 
n/a

>  <FINAL_SINGLE_POINT_ENERGY>  (844) 
0

>  <NONCOV_INTER_ENERGY_QM>  (844) 
0

>  <FF_Energy>  (844) 
16.98

>  <QM_Energy>  (844) 
32.52

>  <source>  (844) 
ACEM_nNMA_64

>  <Index>  (844) 
2875

$$$$
ACEM-pdb5oez-A-GLN-316:NMA-pdb5oez-A-ILE-311
     RDKit          3D

 21 19  0  0  0  0  0  0  0  0999 V2000
   -5.4981    1.7926   -1.1571 C   0  0  0  0  0  0  0  0  0  0  0  0
   -5.1167    2.5519   -1.6767 H   0  0  0  0  0  0  0  0  0  0  0  0
   -6.2717    2.1050   -0.6121 H   0  0  0  0  0  0  0  0  0  0  0  0
   -5.8346    1.0189   -1.8474 H   0  0  0  0  0  0  0  0  0  0  0  0
   -4.4187    1.2775   -0.2033 C   0  0  0  0  0  0  0  0  0  0  0  0
   -3.4571    0.5352   -0.7311 N   0  0  0  0  0  0  0  0  0  0  0  0
   -2.7043    0.1732   -0.1613 H   0  0  0  0  0  0  0  0  0  0  0  0
   -3.4882    0.3308   -1.7320 H   0  0  0  0  0  0  0  0  0  0  0  0
   -4.4626    1.5397    1.0053 O   0  0  0  0  0  0  0  0  0  0  0  0
   -1.1724   -2.1660   -0.1669 C   0  0  0  0  0  0  0  0  0  0  0  0
   -0.2647   -2.5407    0.0442 H   0  0  0  0  0  0  0  0  0  0  0  0
   -1.4179   -2.4310   -1.1953 H   0  0  0  0  0  0  0  0  0  0  0  0
   -1.9162   -2.6048    0.4981 H   0  0  0  0  0  0  0  0  0  0  0  0
   -1.1261   -0.7104   -0.0000 N   0  0  0  0  0  0  0  0  0  0  0  0
   -1.9949   -0.1318    0.1321 H   0  0  0  0  0  0  0  0  0  0  0  0
    0.0000    0.0000    0.0000 C   0  0  0  0  0  0  0  0  0  0  0  0
    1.1261   -0.5109    0.0000 O   0  0  0  0  0  0  0  0  0  0  0  0
   -0.1828    1.5231    0.0751 C   0  0  0  0  0  0  0  0  0  0  0  0
   -1.1640    1.6913    0.0247 H   0  0  0  0  0  0  0  0  0  0  0  0
    0.1418    1.8743    1.0545 H   0  0  0  0  0  0  0  0  0  0  0  0
    0.3441    2.0316   -0.7324 H   0  0  0  0  0  0  0  0  0  0  0  0
  1  5  1  0
  5  6  1  0
  5  9  2  0
  1  2  1  0
  1  3  1  0
  1  4  1  0
  6  7  1  0
  6  8  1  0
 10 14  1  0
 14 16  1  0
 16 17  2  0
 16 18  1  0
 10 11  1  0
 10 12  1  0
 10 13  1  0
 14 15  1  0
 18 19  1  0
 18 20  1  0
 18 21  1  0
M  END
>  <PDB_ID>  (845) 
pdb5oez

>  <RESIDUE_NAME>  (845) 
GLN   ILE

>  <FRAG_NAME>  (845) 
ACEM   NMA

>  <FRAG_ATOM_NUM>  (845) 
fragi: 9  fragj: 12

>  <atom.prop.CHAIN_ID>  (845) 
A A A A A A A A A Z Z Z Z Z Z Z Z Z Z Z Z

>  <atom.prop.IS_HEAVY_ATOM>  (845) 
1 0 0 0 1 1 0 0 1 1 0 0 0 1 0 1 1 1 0 0 0

>  <DIFUSE_FUNC_ATOM>  (845) 
n/a

>  <FINAL_SINGLE_POINT_ENERGY>  (845) 
0

>  <NONCOV_INTER_ENERGY_QM>  (845) 
0

>  <FF_Energy>  (845) 
15.73

>  <QM_Energy>  (845) 
45.55

>  <source>  (845) 
ACEM_nNMA_64

>  <Index>  (845) 
3872

$$$$
ACEM-pdb5oez-C-GLN-316:NMA-pdb5oez-C-ILE-311
     RDKit          3D

 21 19  0  0  0  0  0  0  0  0999 V2000
   -5.4540    1.8215   -1.2847 C   0  0  0  0  0  0  0  0  0  0  0  0
   -5.0601    2.5659   -1.8143 H   0  0  0  0  0  0  0  0  0  0  0  0
   -6.2310    2.1469   -0.7549 H   0  0  0  0  0  0  0  0  0  0  0  0
   -5.7857    1.0346   -1.9621 H   0  0  0  0  0  0  0  0  0  0  0  0
   -4.3894    1.3135   -0.3111 C   0  0  0  0  0  0  0  0  0  0  0  0
   -3.4166    0.5764   -0.8202 N   0  0  0  0  0  0  0  0  0  0  0  0
   -2.6709    0.2174   -0.2367 H   0  0  0  0  0  0  0  0  0  0  0  0
   -3.4286    0.3696   -1.8211 H   0  0  0  0  0  0  0  0  0  0  0  0
   -4.4423    1.5950    0.8895 O   0  0  0  0  0  0  0  0  0  0  0  0
   -1.1615   -2.1624   -0.1600 C   0  0  0  0  0  0  0  0  0  0  0  0
   -0.2626   -2.5361    0.0767 H   0  0  0  0  0  0  0  0  0  0  0  0
   -1.3741   -2.4212   -1.1973 H   0  0  0  0  0  0  0  0  0  0  0  0
   -1.9230   -2.5942    0.4894 H   0  0  0  0  0  0  0  0  0  0  0  0
   -1.1213   -0.7077    0.0000 N   0  0  0  0  0  0  0  0  0  0  0  0
   -1.9915   -0.1317    0.1256 H   0  0  0  0  0  0  0  0  0  0  0  0
    0.0000    0.0000    0.0000 C   0  0  0  0  0  0  0  0  0  0  0  0
    1.1213   -0.5089   -0.0000 O   0  0  0  0  0  0  0  0  0  0  0  0
   -0.1789    1.5180    0.0445 C   0  0  0  0  0  0  0  0  0  0  0  0
   -1.1577    1.6864   -0.0196 H   0  0  0  0  0  0  0  0  0  0  0  0
    0.1366    1.8672    1.0277 H   0  0  0  0  0  0  0  0  0  0  0  0
    0.3597    2.0207   -0.7588 H   0  0  0  0  0  0  0  0  0  0  0  0
  1  5  1  0
  5  6  1  0
  5  9  2  0
  1  2  1  0
  1  3  1  0
  1  4  1  0
  6  7  1  0
  6  8  1  0
 10 14  1  0
 14 16  1  0
 16 17  2  0
 16 18  1  0
 10 11  1  0
 10 12  1  0
 10 13  1  0
 14 15  1  0
 18 19  1  0
 18 20  1  0
 18 21  1  0
M  END
>  <PDB_ID>  (846) 
pdb5oez

>  <RESIDUE_NAME>  (846) 
GLN   ILE

>  <FRAG_NAME>  (846) 
ACEM   NMA

>  <FRAG_ATOM_NUM>  (846) 
fragi: 9  fragj: 12

>  <atom.prop.CHAIN_ID>  (846) 
A A A A A A A A A Z Z Z Z Z Z Z Z Z Z Z Z

>  <atom.prop.IS_HEAVY_ATOM>  (846) 
1 0 0 0 1 1 0 0 1 1 0 0 0 1 0 1 1 1 0 0 0

>  <DIFUSE_FUNC_ATOM>  (846) 
n/a

>  <FINAL_SINGLE_POINT_ENERGY>  (846) 
0

>  <NONCOV_INTER_ENERGY_QM>  (846) 
0

>  <FF_Energy>  (846) 
14.79

>  <QM_Energy>  (846) 
42.53

>  <source>  (846) 
ACEM_nNMA_64

>  <Index>  (846) 
6248

$$$$
ACEM-pdb5oo7-A-ASN-137:NMA-pdb5oo7-A-PHE-140
     RDKit          3D

 21 19  0  0  0  0  0  0  0  0999 V2000
   -5.6198    1.3853   -1.5843 C   0  0  0  0  0  0  0  0  0  0  0  0
   -6.5212    1.4785   -1.1632 H   0  0  0  0  0  0  0  0  0  0  0  0
   -5.7067    0.9221   -2.4660 H   0  0  0  0  0  0  0  0  0  0  0  0
   -5.2258    2.3853   -1.7656 H   0  0  0  0  0  0  0  0  0  0  0  0
   -4.7436    0.5375   -0.6741 C   0  0  0  0  0  0  0  0  0  0  0  0
   -3.4395    0.7788   -0.7413 N   0  0  0  0  0  0  0  0  0  0  0  0
   -3.0844    1.4833   -1.3544 H   0  0  0  0  0  0  0  0  0  0  0  0
   -2.8037    0.2522   -0.1711 H   0  0  0  0  0  0  0  0  0  0  0  0
   -5.2206   -0.3012    0.0887 O   0  0  0  0  0  0  0  0  0  0  0  0
   -1.1497   -2.1620   -0.2071 C   0  0  0  0  0  0  0  0  0  0  0  0
   -0.6292   -2.6124    0.5050 H   0  0  0  0  0  0  0  0  0  0  0  0
   -0.6893   -2.3484   -1.1773 H   0  0  0  0  0  0  0  0  0  0  0  0
   -2.1752   -2.5315   -0.2051 H   0  0  0  0  0  0  0  0  0  0  0  0
   -1.1276   -0.7157   -0.0000 N   0  0  0  0  0  0  0  0  0  0  0  0
   -1.9931   -0.1505    0.1611 H   0  0  0  0  0  0  0  0  0  0  0  0
    0.0000    0.0000    0.0000 C   0  0  0  0  0  0  0  0  0  0  0  0
    1.1276   -0.5057   -0.0000 O   0  0  0  0  0  0  0  0  0  0  0  0
   -0.1888    1.5245    0.0210 C   0  0  0  0  0  0  0  0  0  0  0  0
   -0.5539    1.7812   -0.8842 H   0  0  0  0  0  0  0  0  0  0  0  0
   -0.9241    1.8399    0.7613 H   0  0  0  0  0  0  0  0  0  0  0  0
    0.7522    2.0550    0.1672 H   0  0  0  0  0  0  0  0  0  0  0  0
  1  5  1  0
  5  6  1  0
  5  9  2  0
  1  2  1  0
  1  3  1  0
  1  4  1  0
  6  7  1  0
  6  8  1  0
 10 14  1  0
 14 16  1  0
 16 17  2  0
 16 18  1  0
 10 11  1  0
 10 12  1  0
 10 13  1  0
 14 15  1  0
 18 19  1  0
 18 20  1  0
 18 21  1  0
M  END
>  <PDB_ID>  (847) 
pdb5oo7

>  <RESIDUE_NAME>  (847) 
ASN   PHE

>  <FRAG_NAME>  (847) 
ACEM   NMA

>  <FRAG_ATOM_NUM>  (847) 
fragi: 9  fragj: 12

>  <atom.prop.CHAIN_ID>  (847) 
A A A A A A A A A Z Z Z Z Z Z Z Z Z Z Z Z

>  <atom.prop.IS_HEAVY_ATOM>  (847) 
1 0 0 0 1 1 0 0 1 1 0 0 0 1 0 1 1 1 0 0 0

>  <DIFUSE_FUNC_ATOM>  (847) 
n/a

>  <FINAL_SINGLE_POINT_ENERGY>  (847) 
0

>  <NONCOV_INTER_ENERGY_QM>  (847) 
0

>  <FF_Energy>  (847) 
11.7

>  <QM_Energy>  (847) 
28.24

>  <source>  (847) 
ACEM_nNMA_64

>  <Index>  (847) 
7791

$$$$
ACEM-pdb5t99-A-ASN-56:NMA-pdb5t99-A-ASN-196
     RDKit          3D

 21 19  0  0  0  0  0  0  0  0999 V2000
   -5.8727    1.0017    1.3971 C   0  0  0  0  0  0  0  0  0  0  0  0
   -6.5256    1.2291    0.6768 H   0  0  0  0  0  0  0  0  0  0  0  0
   -5.9893    1.6258    2.1686 H   0  0  0  0  0  0  0  0  0  0  0  0
   -6.0882   -0.0091    1.7435 H   0  0  0  0  0  0  0  0  0  0  0  0
   -4.4697    1.1609    0.8497 C   0  0  0  0  0  0  0  0  0  0  0  0
   -3.6618    0.1402    1.0371 N   0  0  0  0  0  0  0  0  0  0  0  0
   -3.9755   -0.6852    1.5097 H   0  0  0  0  0  0  0  0  0  0  0  0
   -2.7116    0.1802    0.7037 H   0  0  0  0  0  0  0  0  0  0  0  0
   -4.1177    2.1737    0.2560 O   0  0  0  0  0  0  0  0  0  0  0  0
   -1.1814   -2.1531   -0.0496 C   0  0  0  0  0  0  0  0  0  0  0  0
   -0.2626   -2.4946   -0.2001 H   0  0  0  0  0  0  0  0  0  0  0  0
   -1.7880   -2.4193   -0.9152 H   0  0  0  0  0  0  0  0  0  0  0  0
   -1.6018   -2.5578    0.8710 H   0  0  0  0  0  0  0  0  0  0  0  0
   -1.1304   -0.6993    0.0000 N   0  0  0  0  0  0  0  0  0  0  0  0
   -1.9976   -0.1029    0.0391 H   0  0  0  0  0  0  0  0  0  0  0  0
    0.0000    0.0000    0.0000 C   0  0  0  0  0  0  0  0  0  0  0  0
    1.1304   -0.5088    0.0000 O   0  0  0  0  0  0  0  0  0  0  0  0
   -0.1925    1.5162    0.0152 C   0  0  0  0  0  0  0  0  0  0  0  0
   -0.9557    1.7088    0.6492 H   0  0  0  0  0  0  0  0  0  0  0  0
    0.6835    2.0397    0.3982 H   0  0  0  0  0  0  0  0  0  0  0  0
   -0.4492    1.8604   -0.9867 H   0  0  0  0  0  0  0  0  0  0  0  0
  1  5  1  0
  5  6  1  0
  5  9  2  0
  1  2  1  0
  1  3  1  0
  1  4  1  0
  6  7  1  0
  6  8  1  0
 10 14  1  0
 14 16  1  0
 16 17  2  0
 16 18  1  0
 10 11  1  0
 10 12  1  0
 10 13  1  0
 14 15  1  0
 18 19  1  0
 18 20  1  0
 18 21  1  0
M  END
>  <PDB_ID>  (848) 
pdb5t99

>  <RESIDUE_NAME>  (848) 
ASN   ASN

>  <FRAG_NAME>  (848) 
ACEM   NMA

>  <FRAG_ATOM_NUM>  (848) 
fragi: 9  fragj: 12

>  <atom.prop.CHAIN_ID>  (848) 
A A A A A A A A A Z Z Z Z Z Z Z Z Z Z Z Z

>  <atom.prop.IS_HEAVY_ATOM>  (848) 
1 0 0 0 1 1 0 0 1 1 0 0 0 1 0 1 1 1 0 0 0

>  <DIFUSE_FUNC_ATOM>  (848) 
n/a

>  <FINAL_SINGLE_POINT_ENERGY>  (848) 
0

>  <NONCOV_INTER_ENERGY_QM>  (848) 
0

>  <FF_Energy>  (848) 
5.9

>  <QM_Energy>  (848) 
23.09

>  <source>  (848) 
ACEM_nNMA_64

>  <Index>  (848) 
16037

$$$$
ACEM-pdb5tdr-A-ASN-10:NMA-pdb5tdr-A-THR-4
     RDKit          3D

 21 19  0  0  0  0  0  0  0  0999 V2000
   -4.6740    2.5136    1.5035 C   0  0  0  0  0  0  0  0  0  0  0  0
   -5.2555    3.2068    1.0906 H   0  0  0  0  0  0  0  0  0  0  0  0
   -3.9192    2.9406    1.9904 H   0  0  0  0  0  0  0  0  0  0  0  0
   -5.2682    1.9444    2.2184 H   0  0  0  0  0  0  0  0  0  0  0  0
   -4.1098    1.6377    0.4056 C   0  0  0  0  0  0  0  0  0  0  0  0
   -3.4718    0.5366    0.7888 N   0  0  0  0  0  0  0  0  0  0  0  0
   -3.3924    0.3246    1.7644 H   0  0  0  0  0  0  0  0  0  0  0  0
   -3.0742   -0.0767    0.1090 H   0  0  0  0  0  0  0  0  0  0  0  0
   -4.2286    1.9616   -0.7864 O   0  0  0  0  0  0  0  0  0  0  0  0
   -1.1288   -2.1409    0.2403 C   0  0  0  0  0  0  0  0  0  0  0  0
   -0.1744   -2.4579    0.2718 H   0  0  0  0  0  0  0  0  0  0  0  0
   -1.6341   -2.6696   -0.5680 H   0  0  0  0  0  0  0  0  0  0  0  0
   -1.6008   -2.3625    1.1975 H   0  0  0  0  0  0  0  0  0  0  0  0
   -1.1264   -0.7024   -0.0000 N   0  0  0  0  0  0  0  0  0  0  0  0
   -1.9860   -0.1511   -0.1820 H   0  0  0  0  0  0  0  0  0  0  0  0
    0.0000    0.0000    0.0000 C   0  0  0  0  0  0  0  0  0  0  0  0
    1.1264   -0.5214   -0.0000 O   0  0  0  0  0  0  0  0  0  0  0  0
   -0.1731    1.5123    0.0170 C   0  0  0  0  0  0  0  0  0  0  0  0
   -1.1138    1.7240   -0.2416 H   0  0  0  0  0  0  0  0  0  0  0  0
    0.0034    1.8669    1.0325 H   0  0  0  0  0  0  0  0  0  0  0  0
    0.5009    1.9810   -0.6999 H   0  0  0  0  0  0  0  0  0  0  0  0
  1  5  1  0
  5  6  1  0
  5  9  2  0
  1  2  1  0
  1  3  1  0
  1  4  1  0
  6  7  1  0
  6  8  1  0
 10 14  1  0
 14 16  1  0
 16 17  2  0
 16 18  1  0
 10 11  1  0
 10 12  1  0
 10 13  1  0
 14 15  1  0
 18 19  1  0
 18 20  1  0
 18 21  1  0
M  END
>  <PDB_ID>  (849) 
pdb5tdr

>  <RESIDUE_NAME>  (849) 
ASN   THR

>  <FRAG_NAME>  (849) 
ACEM   NMA

>  <FRAG_ATOM_NUM>  (849) 
fragi: 9  fragj: 12

>  <atom.prop.CHAIN_ID>  (849) 
A A A A A A A A A Z Z Z Z Z Z Z Z Z Z Z Z

>  <atom.prop.IS_HEAVY_ATOM>  (849) 
1 0 0 0 1 1 0 0 1 1 0 0 0 1 0 1 1 1 0 0 0

>  <DIFUSE_FUNC_ATOM>  (849) 
n/a

>  <FINAL_SINGLE_POINT_ENERGY>  (849) 
0

>  <NONCOV_INTER_ENERGY_QM>  (849) 
0

>  <FF_Energy>  (849) 
5.68

>  <QM_Energy>  (849) 
18.78

>  <source>  (849) 
ACEM_nNMA_64

>  <Index>  (849) 
16047

$$$$
ACEM-pdb5the-A-ASN-955:NMA-pdb5the-A-PRO-737
     RDKit          3D

 21 19  0  0  0  0  0  0  0  0999 V2000
   -4.7063    1.8149   -2.0590 C   0  0  0  0  0  0  0  0  0  0  0  0
   -4.7332    1.0191   -2.6586 H   0  0  0  0  0  0  0  0  0  0  0  0
   -4.1852    2.5484   -2.4894 H   0  0  0  0  0  0  0  0  0  0  0  0
   -5.7275    2.1639   -1.9060 H   0  0  0  0  0  0  0  0  0  0  0  0
   -4.0147    1.4240   -0.7664 C   0  0  0  0  0  0  0  0  0  0  0  0
   -3.6770    0.1458   -0.6335 N   0  0  0  0  0  0  0  0  0  0  0  0
   -3.8783   -0.4995   -1.3731 H   0  0  0  0  0  0  0  0  0  0  0  0
   -3.2243   -0.1710    0.1971 H   0  0  0  0  0  0  0  0  0  0  0  0
   -3.8094    2.2555    0.1078 O   0  0  0  0  0  0  0  0  0  0  0  0
   -1.0943   -2.1498   -0.1655 C   0  0  0  0  0  0  0  0  0  0  0  0
   -0.3436   -2.5165    0.3787 H   0  0  0  0  0  0  0  0  0  0  0  0
   -0.8895   -2.3676   -1.2137 H   0  0  0  0  0  0  0  0  0  0  0  0
   -2.0386   -2.5929    0.1509 H   0  0  0  0  0  0  0  0  0  0  0  0
   -1.1189   -0.7043   -0.0000 N   0  0  0  0  0  0  0  0  0  0  0  0
   -1.9880   -0.1552    0.1243 H   0  0  0  0  0  0  0  0  0  0  0  0
    0.0000    0.0000    0.0000 C   0  0  0  0  0  0  0  0  0  0  0  0
    1.1189   -0.5246    0.0000 O   0  0  0  0  0  0  0  0  0  0  0  0
   -0.1941    1.5038   -0.0377 C   0  0  0  0  0  0  0  0  0  0  0  0
   -0.9096    1.7914    0.6019 H   0  0  0  0  0  0  0  0  0  0  0  0
    0.7495    2.0011    0.1868 H   0  0  0  0  0  0  0  0  0  0  0  0
   -0.4388    1.8417   -1.0446 H   0  0  0  0  0  0  0  0  0  0  0  0
  1  5  1  0
  5  6  1  0
  5  9  2  0
  1  2  1  0
  1  3  1  0
  1  4  1  0
  6  7  1  0
  6  8  1  0
 10 14  1  0
 14 16  1  0
 16 17  2  0
 16 18  1  0
 10 11  1  0
 10 12  1  0
 10 13  1  0
 14 15  1  0
 18 19  1  0
 18 20  1  0
 18 21  1  0
M  END
>  <PDB_ID>  (850) 
pdb5the

>  <RESIDUE_NAME>  (850) 
ASN   PRO

>  <FRAG_NAME>  (850) 
ACEM   NMA

>  <FRAG_ATOM_NUM>  (850) 
fragi: 9  fragj: 12

>  <atom.prop.CHAIN_ID>  (850) 
A A A A A A A A A Z Z Z Z Z Z Z Z Z Z Z Z

>  <atom.prop.IS_HEAVY_ATOM>  (850) 
1 0 0 0 1 1 0 0 1 1 0 0 0 1 0 1 1 1 0 0 0

>  <DIFUSE_FUNC_ATOM>  (850) 
n/a

>  <FINAL_SINGLE_POINT_ENERGY>  (850) 
0

>  <NONCOV_INTER_ENERGY_QM>  (850) 
0

>  <FF_Energy>  (850) 
2.77

>  <QM_Energy>  (850) 
13.89

>  <source>  (850) 
ACEM_nNMA_64

>  <Index>  (850) 
18024

$$$$
ACEM-pdb5thw-A-ASN-411:NMA-pdb5thw-A-LYS-18
     RDKit          3D

 21 19  0  0  0  0  0  0  0  0999 V2000
   -5.4229    1.6134    1.7442 C   0  0  0  0  0  0  0  0  0  0  0  0
   -6.3583    1.5367    1.4168 H   0  0  0  0  0  0  0  0  0  0  0  0
   -5.2064    2.5592    1.9589 H   0  0  0  0  0  0  0  0  0  0  0  0
   -5.3231    1.0201    2.6532 H   0  0  0  0  0  0  0  0  0  0  0  0
   -4.4845    1.1424    0.6360 C   0  0  0  0  0  0  0  0  0  0  0  0
   -3.3242    0.6224    1.0165 N   0  0  0  0  0  0  0  0  0  0  0  0
   -3.1105    0.5513    1.9947 H   0  0  0  0  0  0  0  0  0  0  0  0
   -2.6681    0.3019    0.3383 H   0  0  0  0  0  0  0  0  0  0  0  0
   -4.8052    1.2474   -0.5477 O   0  0  0  0  0  0  0  0  0  0  0  0
   -1.0892   -2.1680    0.0404 C   0  0  0  0  0  0  0  0  0  0  0  0
   -0.2553   -2.4507    0.5115 H   0  0  0  0  0  0  0  0  0  0  0  0
   -1.0441   -2.5442   -0.9816 H   0  0  0  0  0  0  0  0  0  0  0  0
   -1.9449   -2.5836    0.5724 H   0  0  0  0  0  0  0  0  0  0  0  0
   -1.1224   -0.7140    0.0000 N   0  0  0  0  0  0  0  0  0  0  0  0
   -1.9951   -0.1572   -0.0301 H   0  0  0  0  0  0  0  0  0  0  0  0
    0.0000    0.0000    0.0000 C   0  0  0  0  0  0  0  0  0  0  0  0
    1.1224   -0.5138    0.0000 O   0  0  0  0  0  0  0  0  0  0  0  0
   -0.1750    1.5118    0.0014 C   0  0  0  0  0  0  0  0  0  0  0  0
   -0.8667    1.7547    0.6784 H   0  0  0  0  0  0  0  0  0  0  0  0
    0.7761    1.9657    0.2798 H   0  0  0  0  0  0  0  0  0  0  0  0
   -0.5161    1.8810   -0.9658 H   0  0  0  0  0  0  0  0  0  0  0  0
  1  5  1  0
  5  6  1  0
  5  9  2  0
  1  2  1  0
  1  3  1  0
  1  4  1  0
  6  7  1  0
  6  8  1  0
 10 14  1  0
 14 16  1  0
 16 17  2  0
 16 18  1  0
 10 11  1  0
 10 12  1  0
 10 13  1  0
 14 15  1  0
 18 19  1  0
 18 20  1  0
 18 21  1  0
M  END
>  <PDB_ID>  (851) 
pdb5thw

>  <RESIDUE_NAME>  (851) 
ASN   LYS

>  <FRAG_NAME>  (851) 
ACEM   NMA

>  <FRAG_ATOM_NUM>  (851) 
fragi: 9  fragj: 12

>  <atom.prop.CHAIN_ID>  (851) 
A A A A A A A A A Z Z Z Z Z Z Z Z Z Z Z Z

>  <atom.prop.IS_HEAVY_ATOM>  (851) 
1 0 0 0 1 1 0 0 1 1 0 0 0 1 0 1 1 1 0 0 0

>  <DIFUSE_FUNC_ATOM>  (851) 
n/a

>  <FINAL_SINGLE_POINT_ENERGY>  (851) 
0

>  <NONCOV_INTER_ENERGY_QM>  (851) 
0

>  <FF_Energy>  (851) 
12.93

>  <QM_Energy>  (851) 
36.52

>  <source>  (851) 
ACEM_nNMA_64

>  <Index>  (851) 
18085

$$$$
ACEM-pdb5tmb-A-ASN-219:NMA-pdb5tmb-A-PRO-243
     RDKit          3D

 21 19  0  0  0  0  0  0  0  0999 V2000
   -5.6283    0.3945    2.0153 C   0  0  0  0  0  0  0  0  0  0  0  0
   -5.8469   -0.5176    2.3329 H   0  0  0  0  0  0  0  0  0  0  0  0
   -6.4246    0.8421    1.6345 H   0  0  0  0  0  0  0  0  0  0  0  0
   -5.2604    0.9828    2.8559 H   0  0  0  0  0  0  0  0  0  0  0  0
   -4.5710    0.2664    0.8910 C   0  0  0  0  0  0  0  0  0  0  0  0
   -3.3120    0.5751    1.2064 N   0  0  0  0  0  0  0  0  0  0  0  0
   -3.1048    0.8668    2.1455 H   0  0  0  0  0  0  0  0  0  0  0  0
   -2.5930    0.5165    0.5253 H   0  0  0  0  0  0  0  0  0  0  0  0
   -4.9083   -0.0821   -0.2537 O   0  0  0  0  0  0  0  0  0  0  0  0
   -1.0490   -2.1441    0.0848 C   0  0  0  0  0  0  0  0  0  0  0  0
   -0.2068   -2.4011    0.5732 H   0  0  0  0  0  0  0  0  0  0  0  0
   -0.9978   -2.5817   -0.9122 H   0  0  0  0  0  0  0  0  0  0  0  0
   -1.8989   -2.5349    0.6444 H   0  0  0  0  0  0  0  0  0  0  0  0
   -1.1128   -0.7095   -0.0000 N   0  0  0  0  0  0  0  0  0  0  0  0
   -1.9864   -0.1660   -0.0628 H   0  0  0  0  0  0  0  0  0  0  0  0
    0.0000    0.0000    0.0000 C   0  0  0  0  0  0  0  0  0  0  0  0
    1.1128   -0.5068    0.0000 O   0  0  0  0  0  0  0  0  0  0  0  0
   -0.1687    1.5110    0.0449 C   0  0  0  0  0  0  0  0  0  0  0  0
   -1.1369    1.7617    0.1703 H   0  0  0  0  0  0  0  0  0  0  0  0
    0.4454    1.9549    0.8284 H   0  0  0  0  0  0  0  0  0  0  0  0
    0.2035    1.9783   -0.8668 H   0  0  0  0  0  0  0  0  0  0  0  0
  1  5  1  0
  5  6  1  0
  5  9  2  0
  1  2  1  0
  1  3  1  0
  1  4  1  0
  6  7  1  0
  6  8  1  0
 10 14  1  0
 14 16  1  0
 16 17  2  0
 16 18  1  0
 10 11  1  0
 10 12  1  0
 10 13  1  0
 14 15  1  0
 18 19  1  0
 18 20  1  0
 18 21  1  0
M  END
>  <PDB_ID>  (852) 
pdb5tmb

>  <RESIDUE_NAME>  (852) 
ASN   PRO

>  <FRAG_NAME>  (852) 
ACEM   NMA

>  <FRAG_ATOM_NUM>  (852) 
fragi: 9  fragj: 12

>  <atom.prop.CHAIN_ID>  (852) 
A A A A A A A A A Z Z Z Z Z Z Z Z Z Z Z Z

>  <atom.prop.IS_HEAVY_ATOM>  (852) 
1 0 0 0 1 1 0 0 1 1 0 0 0 1 0 1 1 1 0 0 0

>  <DIFUSE_FUNC_ATOM>  (852) 
n/a

>  <FINAL_SINGLE_POINT_ENERGY>  (852) 
0

>  <NONCOV_INTER_ENERGY_QM>  (852) 
0

>  <FF_Energy>  (852) 
9.01

>  <QM_Energy>  (852) 
20.86

>  <source>  (852) 
ACEM_nNMA_64

>  <Index>  (852) 
20135

$$$$
ACEM-pdb5the-C-ASN-955:NMA-pdb5the-C-PRO-737
     RDKit          3D

 21 19  0  0  0  0  0  0  0  0999 V2000
   -4.7162    1.8625   -2.0570 C   0  0  0  0  0  0  0  0  0  0  0  0
   -4.7420    1.0994   -2.6953 H   0  0  0  0  0  0  0  0  0  0  0  0
   -4.2104    2.6249   -2.4506 H   0  0  0  0  0  0  0  0  0  0  0  0
   -5.7391    2.1884   -1.8683 H   0  0  0  0  0  0  0  0  0  0  0  0
   -4.0114    1.4143   -0.7931 C   0  0  0  0  0  0  0  0  0  0  0  0
   -3.6519    0.1446   -0.7448 N   0  0  0  0  0  0  0  0  0  0  0  0
   -3.8402   -0.4655   -1.5170 H   0  0  0  0  0  0  0  0  0  0  0  0
   -3.1849   -0.2174    0.0664 H   0  0  0  0  0  0  0  0  0  0  0  0
   -3.7911    2.1989    0.1215 O   0  0  0  0  0  0  0  0  0  0  0  0
   -1.1096   -2.1524   -0.1617 C   0  0  0  0  0  0  0  0  0  0  0  0
   -0.3426   -2.5194    0.3571 H   0  0  0  0  0  0  0  0  0  0  0  0
   -0.9420   -2.3720   -1.2161 H   0  0  0  0  0  0  0  0  0  0  0  0
   -2.0462   -2.5944    0.1781 H   0  0  0  0  0  0  0  0  0  0  0  0
   -1.1215   -0.7040   -0.0000 N   0  0  0  0  0  0  0  0  0  0  0  0
   -1.9893   -0.1485    0.1218 H   0  0  0  0  0  0  0  0  0  0  0  0
    0.0000    0.0000    0.0000 C   0  0  0  0  0  0  0  0  0  0  0  0
    1.1215   -0.5183    0.0000 O   0  0  0  0  0  0  0  0  0  0  0  0
   -0.1975    1.5043   -0.0353 C   0  0  0  0  0  0  0  0  0  0  0  0
   -0.9140    1.7880    0.6059 H   0  0  0  0  0  0  0  0  0  0  0  0
    0.7452    2.0039    0.1878 H   0  0  0  0  0  0  0  0  0  0  0  0
   -0.4408    1.8495   -1.0402 H   0  0  0  0  0  0  0  0  0  0  0  0
  1  5  1  0
  5  6  1  0
  5  9  2  0
  1  2  1  0
  1  3  1  0
  1  4  1  0
  6  7  1  0
  6  8  1  0
 10 14  1  0
 14 16  1  0
 16 17  2  0
 16 18  1  0
 10 11  1  0
 10 12  1  0
 10 13  1  0
 14 15  1  0
 18 19  1  0
 18 20  1  0
 18 21  1  0
M  END
>  <PDB_ID>  (853) 
pdb5the

>  <RESIDUE_NAME>  (853) 
ASN   PRO

>  <FRAG_NAME>  (853) 
ACEM   NMA

>  <FRAG_ATOM_NUM>  (853) 
fragi: 9  fragj: 12

>  <atom.prop.CHAIN_ID>  (853) 
A A A A A A A A A Z Z Z Z Z Z Z Z Z Z Z Z

>  <atom.prop.IS_HEAVY_ATOM>  (853) 
1 0 0 0 1 1 0 0 1 1 0 0 0 1 0 1 1 1 0 0 0

>  <DIFUSE_FUNC_ATOM>  (853) 
n/a

>  <FINAL_SINGLE_POINT_ENERGY>  (853) 
0

>  <NONCOV_INTER_ENERGY_QM>  (853) 
0

>  <FF_Energy>  (853) 
2.95

>  <QM_Energy>  (853) 
15.32

>  <source>  (853) 
ACEM_nNMA_64

>  <Index>  (853) 
20427

$$$$
ACEM-pdb5tv2-A-GLN-78:NMA-pdb5tv2-A-MET-75
     RDKit          3D

 21 19  0  0  0  0  0  0  0  0999 V2000
   -6.2653   -0.4914   -0.3869 C   0  0  0  0  0  0  0  0  0  0  0  0
   -6.6288    0.0353   -1.1622 H   0  0  0  0  0  0  0  0  0  0  0  0
   -6.9077   -0.4175    0.3823 H   0  0  0  0  0  0  0  0  0  0  0  0
   -6.2182   -1.5388   -0.6853 H   0  0  0  0  0  0  0  0  0  0  0  0
   -4.9298    0.1139    0.0311 C   0  0  0  0  0  0  0  0  0  0  0  0
   -3.8512   -0.3656   -0.5965 N   0  0  0  0  0  0  0  0  0  0  0  0
   -2.9280   -0.0007   -0.3808 H   0  0  0  0  0  0  0  0  0  0  0  0
   -3.9735   -1.0969   -1.2885 H   0  0  0  0  0  0  0  0  0  0  0  0
   -4.8476    0.9771    0.9210 O   0  0  0  0  0  0  0  0  0  0  0  0
   -1.1925   -2.2045   -0.1153 C   0  0  0  0  0  0  0  0  0  0  0  0
   -0.2518   -2.5659   -0.0003 H   0  0  0  0  0  0  0  0  0  0  0  0
   -1.6136   -2.5509   -1.0590 H   0  0  0  0  0  0  0  0  0  0  0  0
   -1.8080   -2.6378    0.6731 H   0  0  0  0  0  0  0  0  0  0  0  0
   -1.1372   -0.7080    0.0000 N   0  0  0  0  0  0  0  0  0  0  0  0
   -2.0051   -0.1328    0.0878 H   0  0  0  0  0  0  0  0  0  0  0  0
    0.0000    0.0000    0.0000 C   0  0  0  0  0  0  0  0  0  0  0  0
    1.1372   -0.5067   -0.0000 O   0  0  0  0  0  0  0  0  0  0  0  0
   -0.1295    1.5249    0.0811 C   0  0  0  0  0  0  0  0  0  0  0  0
    0.6958    1.9266   -0.3523 H   0  0  0  0  0  0  0  0  0  0  0  0
   -1.0075    1.9117   -0.4362 H   0  0  0  0  0  0  0  0  0  0  0  0
   -0.1038    1.8121    1.1322 H   0  0  0  0  0  0  0  0  0  0  0  0
  1  5  1  0
  5  6  1  0
  5  9  2  0
  1  2  1  0
  1  3  1  0
  1  4  1  0
  6  7  1  0
  6  8  1  0
 10 14  1  0
 14 16  1  0
 16 17  2  0
 16 18  1  0
 10 11  1  0
 10 12  1  0
 10 13  1  0
 14 15  1  0
 18 19  1  0
 18 20  1  0
 18 21  1  0
M  END
>  <PDB_ID>  (854) 
pdb5tv2

>  <RESIDUE_NAME>  (854) 
GLN   MET

>  <FRAG_NAME>  (854) 
ACEM   NMA

>  <FRAG_ATOM_NUM>  (854) 
fragi: 9  fragj: 12

>  <atom.prop.CHAIN_ID>  (854) 
A A A A A A A A A Z Z Z Z Z Z Z Z Z Z Z Z

>  <atom.prop.IS_HEAVY_ATOM>  (854) 
1 0 0 0 1 1 0 0 1 1 0 0 0 1 0 1 1 1 0 0 0

>  <DIFUSE_FUNC_ATOM>  (854) 
n/a

>  <FINAL_SINGLE_POINT_ENERGY>  (854) 
0

>  <NONCOV_INTER_ENERGY_QM>  (854) 
0

>  <FF_Energy>  (854) 
8.71

>  <QM_Energy>  (854) 
22.51

>  <source>  (854) 
ACEM_nNMA_64

>  <Index>  (854) 
22709

$$$$
ACEM-pdb5u1a-B-ASN-19:NMA-pdb5u1a-B-ILE-88
     RDKit          3D

 21 19  0  0  0  0  0  0  0  0999 V2000
   -4.8464    1.0751   -3.1251 C   0  0  0  0  0  0  0  0  0  0  0  0
   -5.5361    1.7833   -3.0315 H   0  0  0  0  0  0  0  0  0  0  0  0
   -5.2651    0.2120   -3.3863 H   0  0  0  0  0  0  0  0  0  0  0  0
   -4.1196    1.3713   -3.8816 H   0  0  0  0  0  0  0  0  0  0  0  0
   -4.1982    0.8710   -1.7264 C   0  0  0  0  0  0  0  0  0  0  0  0
   -3.2683   -0.0341   -1.6765 N   0  0  0  0  0  0  0  0  0  0  0  0
   -2.9889   -0.5553   -2.4862 H   0  0  0  0  0  0  0  0  0  0  0  0
   -2.7973   -0.2345   -0.7993 H   0  0  0  0  0  0  0  0  0  0  0  0
   -4.5461    1.4926   -0.7289 O   0  0  0  0  0  0  0  0  0  0  0  0
   -1.0889   -2.1872   -0.0211 C   0  0  0  0  0  0  0  0  0  0  0  0
   -0.5761   -2.5085    0.7888 H   0  0  0  0  0  0  0  0  0  0  0  0
   -0.5922   -2.5840   -0.9065 H   0  0  0  0  0  0  0  0  0  0  0  0
   -2.1224   -2.5332   -0.0307 H   0  0  0  0  0  0  0  0  0  0  0  0
   -1.1006   -0.7290   -0.0000 N   0  0  0  0  0  0  0  0  0  0  0  0
   -1.9893   -0.1716    0.0169 H   0  0  0  0  0  0  0  0  0  0  0  0
    0.0000    0.0000    0.0000 C   0  0  0  0  0  0  0  0  0  0  0  0
    1.1006   -0.5049    0.0000 O   0  0  0  0  0  0  0  0  0  0  0  0
   -0.2207    1.5072    0.1397 C   0  0  0  0  0  0  0  0  0  0  0  0
   -1.1657    1.6254    0.3784 H   0  0  0  0  0  0  0  0  0  0  0  0
    0.3658    1.7747    1.0187 H   0  0  0  0  0  0  0  0  0  0  0  0
    0.1669    1.9635   -0.7711 H   0  0  0  0  0  0  0  0  0  0  0  0
  1  5  1  0
  5  6  1  0
  5  9  2  0
  1  2  1  0
  1  3  1  0
  1  4  1  0
  6  7  1  0
  6  8  1  0
 10 14  1  0
 14 16  1  0
 16 17  2  0
 16 18  1  0
 10 11  1  0
 10 12  1  0
 10 13  1  0
 14 15  1  0
 18 19  1  0
 18 20  1  0
 18 21  1  0
M  END
>  <PDB_ID>  (855) 
pdb5u1a

>  <RESIDUE_NAME>  (855) 
ASN   ILE

>  <FRAG_NAME>  (855) 
ACEM   NMA

>  <FRAG_ATOM_NUM>  (855) 
fragi: 9  fragj: 12

>  <atom.prop.CHAIN_ID>  (855) 
A A A A A A A A A Z Z Z Z Z Z Z Z Z Z Z Z

>  <atom.prop.IS_HEAVY_ATOM>  (855) 
1 0 0 0 1 1 0 0 1 1 0 0 0 1 0 1 1 1 0 0 0

>  <DIFUSE_FUNC_ATOM>  (855) 
n/a

>  <FINAL_SINGLE_POINT_ENERGY>  (855) 
0

>  <NONCOV_INTER_ENERGY_QM>  (855) 
0

>  <FF_Energy>  (855) 
4.04

>  <QM_Energy>  (855) 
15.73

>  <source>  (855) 
ACEM_nNMA_64

>  <Index>  (855) 
27168

$$$$
ACEM-pdb5uao-A-GLN-505:NMA-pdb5uao-A-THR-100
     RDKit          3D

 21 19  0  0  0  0  0  0  0  0999 V2000
   -5.7379    0.6215    1.2967 C   0  0  0  0  0  0  0  0  0  0  0  0
   -5.3823    1.5161    1.6378 H   0  0  0  0  0  0  0  0  0  0  0  0
   -5.6577   -0.0339    2.0743 H   0  0  0  0  0  0  0  0  0  0  0  0
   -6.7850    0.7286    1.0134 H   0  0  0  0  0  0  0  0  0  0  0  0
   -4.7657    0.1416    0.2037 C   0  0  0  0  0  0  0  0  0  0  0  0
   -3.7003   -0.3366    0.6804 N   0  0  0  0  0  0  0  0  0  0  0  0
   -2.9518   -0.7165    0.0166 H   0  0  0  0  0  0  0  0  0  0  0  0
   -3.5151   -0.3775    1.6743 H   0  0  0  0  0  0  0  0  0  0  0  0
   -4.9545    0.2803   -1.0377 O   0  0  0  0  0  0  0  0  0  0  0  0
   -1.1604   -2.0721    0.2267 C   0  0  0  0  0  0  0  0  0  0  0  0
   -0.2337   -2.3774    0.4934 H   0  0  0  0  0  0  0  0  0  0  0  0
   -1.4237   -2.6035   -0.6879 H   0  0  0  0  0  0  0  0  0  0  0  0
   -1.8473   -2.3678    1.0198 H   0  0  0  0  0  0  0  0  0  0  0  0
   -1.1325   -0.6815   -0.0000 N   0  0  0  0  0  0  0  0  0  0  0  0
   -1.9814   -0.0925   -0.1816 H   0  0  0  0  0  0  0  0  0  0  0  0
    0.0000    0.0000    0.0000 C   0  0  0  0  0  0  0  0  0  0  0  0
    1.1325   -0.5497    0.0000 O   0  0  0  0  0  0  0  0  0  0  0  0
   -0.1545    1.5201    0.0280 C   0  0  0  0  0  0  0  0  0  0  0  0
   -0.7075    1.7617    0.8408 H   0  0  0  0  0  0  0  0  0  0  0  0
    0.8079    2.0277    0.0925 H   0  0  0  0  0  0  0  0  0  0  0  0
   -0.7151    1.8238   -0.8560 H   0  0  0  0  0  0  0  0  0  0  0  0
  1  5  1  0
  5  6  1  0
  5  9  2  0
  1  2  1  0
  1  3  1  0
  1  4  1  0
  6  7  1  0
  6  8  1  0
 10 14  1  0
 14 16  1  0
 16 17  2  0
 16 18  1  0
 10 11  1  0
 10 12  1  0
 10 13  1  0
 14 15  1  0
 18 19  1  0
 18 20  1  0
 18 21  1  0
M  END
>  <PDB_ID>  (856) 
pdb5uao

>  <RESIDUE_NAME>  (856) 
GLN   THR

>  <FRAG_NAME>  (856) 
ACEM   NMA

>  <FRAG_ATOM_NUM>  (856) 
fragi: 9  fragj: 12

>  <atom.prop.CHAIN_ID>  (856) 
A A A A A A A A A Z Z Z Z Z Z Z Z Z Z Z Z

>  <atom.prop.IS_HEAVY_ATOM>  (856) 
1 0 0 0 1 1 0 0 1 1 0 0 0 1 0 1 1 1 0 0 0

>  <DIFUSE_FUNC_ATOM>  (856) 
n/a

>  <FINAL_SINGLE_POINT_ENERGY>  (856) 
0

>  <NONCOV_INTER_ENERGY_QM>  (856) 
0

>  <FF_Energy>  (856) 
7.7

>  <QM_Energy>  (856) 
19.93

>  <source>  (856) 
ACEM_nNMA_65

>  <Index>  (856) 
954

$$$$
ACEM-pdb5u1a-H-ASN-19:NMA-pdb5u1a-H-ILE-88
     RDKit          3D

 21 19  0  0  0  0  0  0  0  0999 V2000
   -5.0273    1.1183   -2.7854 C   0  0  0  0  0  0  0  0  0  0  0  0
   -5.7847    1.7519   -2.6381 H   0  0  0  0  0  0  0  0  0  0  0  0
   -5.3816    0.2300   -3.0722 H   0  0  0  0  0  0  0  0  0  0  0  0
   -4.3729    1.5126   -3.5629 H   0  0  0  0  0  0  0  0  0  0  0  0
   -4.3107    0.9278   -1.4501 C   0  0  0  0  0  0  0  0  0  0  0  0
   -3.2396    0.2624   -1.5455 N   0  0  0  0  0  0  0  0  0  0  0  0
   -2.8633   -0.1119   -2.3959 H   0  0  0  0  0  0  0  0  0  0  0  0
   -2.6749    0.0684   -0.6933 H   0  0  0  0  0  0  0  0  0  0  0  0
   -4.6197    1.4816   -0.4593 O   0  0  0  0  0  0  0  0  0  0  0  0
   -1.0995   -2.1923   -0.1279 C   0  0  0  0  0  0  0  0  0  0  0  0
   -0.6448   -2.5795    0.7029 H   0  0  0  0  0  0  0  0  0  0  0  0
   -0.5711   -2.5714   -1.0027 H   0  0  0  0  0  0  0  0  0  0  0  0
   -2.1442   -2.4934   -0.2054 H   0  0  0  0  0  0  0  0  0  0  0  0
   -1.1000   -0.7463    0.0000 N   0  0  0  0  0  0  0  0  0  0  0  0
   -1.9894   -0.1859    0.1031 H   0  0  0  0  0  0  0  0  0  0  0  0
    0.0000    0.0000    0.0000 C   0  0  0  0  0  0  0  0  0  0  0  0
    1.1000   -0.5069   -0.0000 O   0  0  0  0  0  0  0  0  0  0  0  0
   -0.2264    1.4861    0.2112 C   0  0  0  0  0  0  0  0  0  0  0  0
   -1.1624    1.5951    0.4980 H   0  0  0  0  0  0  0  0  0  0  0  0
    0.3883    1.7467    1.0729 H   0  0  0  0  0  0  0  0  0  0  0  0
    0.0947    1.9975   -0.6962 H   0  0  0  0  0  0  0  0  0  0  0  0
  1  5  1  0
  5  6  1  0
  5  9  2  0
  1  2  1  0
  1  3  1  0
  1  4  1  0
  6  7  1  0
  6  8  1  0
 10 14  1  0
 14 16  1  0
 16 17  2  0
 16 18  1  0
 10 11  1  0
 10 12  1  0
 10 13  1  0
 14 15  1  0
 18 19  1  0
 18 20  1  0
 18 21  1  0
M  END
>  <PDB_ID>  (857) 
pdb5u1a

>  <RESIDUE_NAME>  (857) 
ASN   ILE

>  <FRAG_NAME>  (857) 
ACEM   NMA

>  <FRAG_ATOM_NUM>  (857) 
fragi: 9  fragj: 12

>  <atom.prop.CHAIN_ID>  (857) 
A A A A A A A A A Z Z Z Z Z Z Z Z Z Z Z Z

>  <atom.prop.IS_HEAVY_ATOM>  (857) 
1 0 0 0 1 1 0 0 1 1 0 0 0 1 0 1 1 1 0 0 0

>  <DIFUSE_FUNC_ATOM>  (857) 
n/a

>  <FINAL_SINGLE_POINT_ENERGY>  (857) 
0

>  <NONCOV_INTER_ENERGY_QM>  (857) 
0

>  <FF_Energy>  (857) 
5.98

>  <QM_Energy>  (857) 
18.95

>  <source>  (857) 
ACEM_nNMA_65

>  <Index>  (857) 
1184

$$$$
ACEM-pdb5ujk-A-GLN-263:NMA-pdb5ujk-A-LEU-260
     RDKit          3D

 21 19  0  0  0  0  0  0  0  0999 V2000
   -5.1486    1.2851   -2.5179 C   0  0  0  0  0  0  0  0  0  0  0  0
   -5.8696    1.9375   -2.3142 H   0  0  0  0  0  0  0  0  0  0  0  0
   -5.5244    0.4767   -2.9564 H   0  0  0  0  0  0  0  0  0  0  0  0
   -4.4500    1.7551   -3.2101 H   0  0  0  0  0  0  0  0  0  0  0  0
   -4.4661    0.8836   -1.2351 C   0  0  0  0  0  0  0  0  0  0  0  0
   -3.2013    0.4911   -1.3153 N   0  0  0  0  0  0  0  0  0  0  0  0
   -2.6764    0.2211   -0.4924 H   0  0  0  0  0  0  0  0  0  0  0  0
   -2.7552    0.4649   -2.2366 H   0  0  0  0  0  0  0  0  0  0  0  0
   -5.0866    0.8999   -0.1689 O   0  0  0  0  0  0  0  0  0  0  0  0
   -1.2579   -2.1559   -0.0420 C   0  0  0  0  0  0  0  0  0  0  0  0
   -0.3457   -2.5381    0.0520 H   0  0  0  0  0  0  0  0  0  0  0  0
   -1.6177   -2.4396   -1.0311 H   0  0  0  0  0  0  0  0  0  0  0  0
   -2.0063   -2.4708    0.6852 H   0  0  0  0  0  0  0  0  0  0  0  0
   -1.1238   -0.6863   -0.0000 N   0  0  0  0  0  0  0  0  0  0  0  0
   -1.9957   -0.0626    0.0349 H   0  0  0  0  0  0  0  0  0  0  0  0
    0.0000    0.0000    0.0000 C   0  0  0  0  0  0  0  0  0  0  0  0
    1.1238   -0.4930    0.0000 O   0  0  0  0  0  0  0  0  0  0  0  0
   -0.1861    1.5237   -0.0012 C   0  0  0  0  0  0  0  0  0  0  0  0
   -1.1578    1.7160    0.1712 H   0  0  0  0  0  0  0  0  0  0  0  0
    0.4153    1.9851    0.7821 H   0  0  0  0  0  0  0  0  0  0  0  0
    0.1113    1.9154   -0.9739 H   0  0  0  0  0  0  0  0  0  0  0  0
  1  5  1  0
  5  6  1  0
  5  9  2  0
  1  2  1  0
  1  3  1  0
  1  4  1  0
  6  7  1  0
  6  8  1  0
 10 14  1  0
 14 16  1  0
 16 17  2  0
 16 18  1  0
 10 11  1  0
 10 12  1  0
 10 13  1  0
 14 15  1  0
 18 19  1  0
 18 20  1  0
 18 21  1  0
M  END
>  <PDB_ID>  (858) 
pdb5ujk

>  <RESIDUE_NAME>  (858) 
GLN   LEU

>  <FRAG_NAME>  (858) 
ACEM   NMA

>  <FRAG_ATOM_NUM>  (858) 
fragi: 9  fragj: 12

>  <atom.prop.CHAIN_ID>  (858) 
A A A A A A A A A Z Z Z Z Z Z Z Z Z Z Z Z

>  <atom.prop.IS_HEAVY_ATOM>  (858) 
1 0 0 0 1 1 0 0 1 1 0 0 0 1 0 1 1 1 0 0 0

>  <DIFUSE_FUNC_ATOM>  (858) 
n/a

>  <FINAL_SINGLE_POINT_ENERGY>  (858) 
0

>  <NONCOV_INTER_ENERGY_QM>  (858) 
0

>  <FF_Energy>  (858) 
14.79

>  <QM_Energy>  (858) 
35.66

>  <source>  (858) 
ACEM_nNMA_65

>  <Index>  (858) 
4721

$$$$
ACEM-pdb5uxs-A-GLN-232:NMA-pdb5uxs-A-ASN-228
     RDKit          3D

 21 19  0  0  0  0  0  0  0  0999 V2000
   -4.9597    1.2557    0.4781 C   0  0  0  0  0  0  0  0  0  0  0  0
   -4.4265    1.6826    1.2090 H   0  0  0  0  0  0  0  0  0  0  0  0
   -4.9609    0.2635    0.6037 H   0  0  0  0  0  0  0  0  0  0  0  0
   -5.9864    1.6166    0.5391 H   0  0  0  0  0  0  0  0  0  0  0  0
   -4.3045    1.5758   -0.8485 C   0  0  0  0  0  0  0  0  0  0  0  0
   -3.0534    1.1550   -1.0140 N   0  0  0  0  0  0  0  0  0  0  0  0
   -2.5562    1.3217   -1.8834 H   0  0  0  0  0  0  0  0  0  0  0  0
   -2.5984    0.6595   -0.2476 H   0  0  0  0  0  0  0  0  0  0  0  0
   -4.9147    2.1988   -1.7153 O   0  0  0  0  0  0  0  0  0  0  0  0
   -1.1685   -2.1665    0.0308 C   0  0  0  0  0  0  0  0  0  0  0  0
   -0.5997   -2.5229   -0.7178 H   0  0  0  0  0  0  0  0  0  0  0  0
   -2.1889   -2.5240   -0.1075 H   0  0  0  0  0  0  0  0  0  0  0  0
   -0.7757   -2.5448    0.9745 H   0  0  0  0  0  0  0  0  0  0  0  0
   -1.1301   -0.7097   -0.0000 N   0  0  0  0  0  0  0  0  0  0  0  0
   -1.9996   -0.1192   -0.0240 H   0  0  0  0  0  0  0  0  0  0  0  0
    0.0000    0.0000    0.0000 C   0  0  0  0  0  0  0  0  0  0  0  0
    1.1301   -0.5083    0.0000 O   0  0  0  0  0  0  0  0  0  0  0  0
   -0.1774    1.5149    0.0022 C   0  0  0  0  0  0  0  0  0  0  0  0
   -1.1317    1.6978    0.2482 H   0  0  0  0  0  0  0  0  0  0  0  0
    0.4480    1.9593    0.7765 H   0  0  0  0  0  0  0  0  0  0  0  0
    0.0904    1.9124   -0.9768 H   0  0  0  0  0  0  0  0  0  0  0  0
  1  5  1  0
  5  6  1  0
  5  9  2  0
  1  2  1  0
  1  3  1  0
  1  4  1  0
  6  7  1  0
  6  8  1  0
 10 14  1  0
 14 16  1  0
 16 17  2  0
 16 18  1  0
 10 11  1  0
 10 12  1  0
 10 13  1  0
 14 15  1  0
 18 19  1  0
 18 20  1  0
 18 21  1  0
M  END
>  <PDB_ID>  (859) 
pdb5uxs

>  <RESIDUE_NAME>  (859) 
GLN   ASN

>  <FRAG_NAME>  (859) 
ACEM   NMA

>  <FRAG_ATOM_NUM>  (859) 
fragi: 9  fragj: 12

>  <atom.prop.CHAIN_ID>  (859) 
A A A A A A A A A Z Z Z Z Z Z Z Z Z Z Z Z

>  <atom.prop.IS_HEAVY_ATOM>  (859) 
1 0 0 0 1 1 0 0 1 1 0 0 0 1 0 1 1 1 0 0 0

>  <DIFUSE_FUNC_ATOM>  (859) 
n/a

>  <FINAL_SINGLE_POINT_ENERGY>  (859) 
0

>  <NONCOV_INTER_ENERGY_QM>  (859) 
0

>  <FF_Energy>  (859) 
14.24

>  <QM_Energy>  (859) 
27.69

>  <source>  (859) 
ACEM_nNMA_65

>  <Index>  (859) 
9388

$$$$
ACEM-pdb5v47-B-ASN-168:NMA-pdb5v47-B-ALA-133
     RDKit          3D

 21 19  0  0  0  0  0  0  0  0999 V2000
   -5.3291    1.5849   -1.6682 C   0  0  0  0  0  0  0  0  0  0  0  0
   -6.0157    1.7829   -0.9712 H   0  0  0  0  0  0  0  0  0  0  0  0
   -5.7697    1.2064   -2.4799 H   0  0  0  0  0  0  0  0  0  0  0  0
   -4.8556    2.5250   -1.9510 H   0  0  0  0  0  0  0  0  0  0  0  0
   -4.3555    0.5667   -1.1193 C   0  0  0  0  0  0  0  0  0  0  0  0
   -3.0676    0.8926   -1.1684 N   0  0  0  0  0  0  0  0  0  0  0  0
   -2.7908    1.7758   -1.5491 H   0  0  0  0  0  0  0  0  0  0  0  0
   -2.3769    0.2581   -0.8259 H   0  0  0  0  0  0  0  0  0  0  0  0
   -4.7430   -0.4848   -0.6395 O   0  0  0  0  0  0  0  0  0  0  0  0
   -1.0717   -2.1827   -0.0712 C   0  0  0  0  0  0  0  0  0  0  0  0
   -0.1780   -2.4919    0.2840 H   0  0  0  0  0  0  0  0  0  0  0  0
   -1.1748   -2.5476   -1.0932 H   0  0  0  0  0  0  0  0  0  0  0  0
   -1.8032   -2.6656    0.5766 H   0  0  0  0  0  0  0  0  0  0  0  0
   -1.1179   -0.7218    0.0000 N   0  0  0  0  0  0  0  0  0  0  0  0
   -1.9939   -0.1781    0.0529 H   0  0  0  0  0  0  0  0  0  0  0  0
    0.0000    0.0000    0.0000 C   0  0  0  0  0  0  0  0  0  0  0  0
    1.1179   -0.5121   -0.0000 O   0  0  0  0  0  0  0  0  0  0  0  0
   -0.1710    1.5297   -0.0063 C   0  0  0  0  0  0  0  0  0  0  0  0
   -1.0968    1.7423    0.3571 H   0  0  0  0  0  0  0  0  0  0  0  0
    0.5727    2.0544    0.5936 H   0  0  0  0  0  0  0  0  0  0  0  0
   -0.1646    1.9122   -1.0270 H   0  0  0  0  0  0  0  0  0  0  0  0
  1  5  1  0
  5  6  1  0
  5  9  2  0
  1  2  1  0
  1  3  1  0
  1  4  1  0
  6  7  1  0
  6  8  1  0
 10 14  1  0
 14 16  1  0
 16 17  2  0
 16 18  1  0
 10 11  1  0
 10 12  1  0
 10 13  1  0
 14 15  1  0
 18 19  1  0
 18 20  1  0
 18 21  1  0
M  END
>  <PDB_ID>  (860) 
pdb5v47

>  <RESIDUE_NAME>  (860) 
ASN   ALA

>  <FRAG_NAME>  (860) 
ACEM   NMA

>  <FRAG_ATOM_NUM>  (860) 
fragi: 9  fragj: 12

>  <atom.prop.CHAIN_ID>  (860) 
A A A A A A A A A Z Z Z Z Z Z Z Z Z Z Z Z

>  <atom.prop.IS_HEAVY_ATOM>  (860) 
1 0 0 0 1 1 0 0 1 1 0 0 0 1 0 1 1 1 0 0 0

>  <DIFUSE_FUNC_ATOM>  (860) 
n/a

>  <FINAL_SINGLE_POINT_ENERGY>  (860) 
0

>  <NONCOV_INTER_ENERGY_QM>  (860) 
0

>  <FF_Energy>  (860) 
10.21

>  <QM_Energy>  (860) 
21.22

>  <source>  (860) 
ACEM_nNMA_65

>  <Index>  (860) 
12261

$$$$
ACEM-pdb5vaw-B-ASN-272:NMA-pdb5vaw-B-GLU-4
     RDKit          3D

 21 19  0  0  0  0  0  0  0  0999 V2000
   -5.5107    1.2044    1.6813 C   0  0  0  0  0  0  0  0  0  0  0  0
   -5.5085    1.5972    2.5984 H   0  0  0  0  0  0  0  0  0  0  0  0
   -6.0314    0.3538    1.6767 H   0  0  0  0  0  0  0  0  0  0  0  0
   -5.9940    1.9091    1.0047 H   0  0  0  0  0  0  0  0  0  0  0  0
   -4.0799    0.8967    1.2857 C   0  0  0  0  0  0  0  0  0  0  0  0
   -3.8929   -0.1891    0.5441 N   0  0  0  0  0  0  0  0  0  0  0  0
   -4.6769   -0.7500    0.2725 H   0  0  0  0  0  0  0  0  0  0  0  0
   -2.9715   -0.4477    0.2560 H   0  0  0  0  0  0  0  0  0  0  0  0
   -3.1541    1.6333    1.6320 O   0  0  0  0  0  0  0  0  0  0  0  0
   -1.1281   -2.1660   -0.0307 C   0  0  0  0  0  0  0  0  0  0  0  0
   -1.7760   -2.4829   -0.7622 H   0  0  0  0  0  0  0  0  0  0  0  0
   -0.2024   -2.4967   -0.3293 H   0  0  0  0  0  0  0  0  0  0  0  0
   -1.3910   -2.6501    0.9099 H   0  0  0  0  0  0  0  0  0  0  0  0
   -1.1234   -0.7161    0.0000 N   0  0  0  0  0  0  0  0  0  0  0  0
   -1.9964   -0.1397    0.0237 H   0  0  0  0  0  0  0  0  0  0  0  0
    0.0000    0.0000    0.0000 C   0  0  0  0  0  0  0  0  0  0  0  0
    1.1234   -0.5122    0.0000 O   0  0  0  0  0  0  0  0  0  0  0  0
   -0.1773    1.5141    0.0057 C   0  0  0  0  0  0  0  0  0  0  0  0
   -1.0945    1.7417    0.3489 H   0  0  0  0  0  0  0  0  0  0  0  0
    0.5795    1.9837    0.6341 H   0  0  0  0  0  0  0  0  0  0  0  0
   -0.1181    1.9033   -1.0106 H   0  0  0  0  0  0  0  0  0  0  0  0
  1  5  1  0
  5  6  1  0
  5  9  2  0
  1  2  1  0
  1  3  1  0
  1  4  1  0
  6  7  1  0
  6  8  1  0
 10 14  1  0
 14 16  1  0
 16 17  2  0
 16 18  1  0
 10 11  1  0
 10 12  1  0
 10 13  1  0
 14 15  1  0
 18 19  1  0
 18 20  1  0
 18 21  1  0
M  END
>  <PDB_ID>  (861) 
pdb5vaw

>  <RESIDUE_NAME>  (861) 
ASN   GLU

>  <FRAG_NAME>  (861) 
ACEM   NMA

>  <FRAG_ATOM_NUM>  (861) 
fragi: 9  fragj: 12

>  <atom.prop.CHAIN_ID>  (861) 
A A A A A A A A A Z Z Z Z Z Z Z Z Z Z Z Z

>  <atom.prop.IS_HEAVY_ATOM>  (861) 
1 0 0 0 1 1 0 0 1 1 0 0 0 1 0 1 1 1 0 0 0

>  <DIFUSE_FUNC_ATOM>  (861) 
n/a

>  <FINAL_SINGLE_POINT_ENERGY>  (861) 
0

>  <NONCOV_INTER_ENERGY_QM>  (861) 
0

>  <FF_Energy>  (861) 
2.37

>  <QM_Energy>  (861) 
20.12

>  <source>  (861) 
ACEM_nNMA_65

>  <Index>  (861) 
13188

$$$$
ACEM-pdb5v4p-B-ASN-199:NMA-pdb5v4p-B-ASN-194
     RDKit          3D

 21 19  0  0  0  0  0  0  0  0999 V2000
   -4.5563   -1.1514    1.5084 C   0  0  0  0  0  0  0  0  0  0  0  0
   -4.3279   -0.3425    2.0455 H   0  0  0  0  0  0  0  0  0  0  0  0
   -3.7897   -1.7889    1.5094 H   0  0  0  0  0  0  0  0  0  0  0  0
   -5.4170   -1.6416    1.9634 H   0  0  0  0  0  0  0  0  0  0  0  0
   -4.7865   -0.6912    0.0363 C   0  0  0  0  0  0  0  0  0  0  0  0
   -3.8352    0.0275   -0.5492 N   0  0  0  0  0  0  0  0  0  0  0  0
   -3.0031    0.2390   -0.0166 H   0  0  0  0  0  0  0  0  0  0  0  0
   -3.9354    0.3473   -1.4779 H   0  0  0  0  0  0  0  0  0  0  0  0
   -5.7972   -1.0585   -0.5695 O   0  0  0  0  0  0  0  0  0  0  0  0
   -1.1633   -2.1581   -0.0327 C   0  0  0  0  0  0  0  0  0  0  0  0
   -2.0973   -2.4628   -0.3471 H   0  0  0  0  0  0  0  0  0  0  0  0
   -0.5217   -2.4863   -0.7709 H   0  0  0  0  0  0  0  0  0  0  0  0
   -0.9204   -2.6693    0.8988 H   0  0  0  0  0  0  0  0  0  0  0  0
   -1.1327   -0.7029   -0.0000 N   0  0  0  0  0  0  0  0  0  0  0  0
   -1.9992   -0.1146    0.0261 H   0  0  0  0  0  0  0  0  0  0  0  0
    0.0000    0.0000    0.0000 C   0  0  0  0  0  0  0  0  0  0  0  0
    1.1327   -0.5328    0.0000 O   0  0  0  0  0  0  0  0  0  0  0  0
   -0.1458    1.5217   -0.1107 C   0  0  0  0  0  0  0  0  0  0  0  0
   -0.0778    1.7518   -1.0944 H   0  0  0  0  0  0  0  0  0  0  0  0
   -1.1133    1.8851    0.2356 H   0  0  0  0  0  0  0  0  0  0  0  0
    0.6576    2.0513    0.4013 H   0  0  0  0  0  0  0  0  0  0  0  0
  1  5  1  0
  5  6  1  0
  5  9  2  0
  1  2  1  0
  1  3  1  0
  1  4  1  0
  6  7  1  0
  6  8  1  0
 10 14  1  0
 14 16  1  0
 16 17  2  0
 16 18  1  0
 10 11  1  0
 10 12  1  0
 10 13  1  0
 14 15  1  0
 18 19  1  0
 18 20  1  0
 18 21  1  0
M  END
>  <PDB_ID>  (862) 
pdb5v4p

>  <RESIDUE_NAME>  (862) 
ASN   ASN

>  <FRAG_NAME>  (862) 
ACEM   NMA

>  <FRAG_ATOM_NUM>  (862) 
fragi: 9  fragj: 12

>  <atom.prop.CHAIN_ID>  (862) 
A A A A A A A A A Z Z Z Z Z Z Z Z Z Z Z Z

>  <atom.prop.IS_HEAVY_ATOM>  (862) 
1 0 0 0 1 1 0 0 1 1 0 0 0 1 0 1 1 1 0 0 0

>  <DIFUSE_FUNC_ATOM>  (862) 
n/a

>  <FINAL_SINGLE_POINT_ENERGY>  (862) 
0

>  <NONCOV_INTER_ENERGY_QM>  (862) 
0

>  <FF_Energy>  (862) 
10.7

>  <QM_Energy>  (862) 
21.42

>  <source>  (862) 
ACEM_nNMA_65

>  <Index>  (862) 
14141

$$$$
ACEM-pdb5vak-A-GLN-227:NMA-pdb5vak-B-ILE-101
     RDKit          3D

 21 19  0  0  0  0  0  0  0  0999 V2000
   -5.0295    2.2565    1.3846 C   0  0  0  0  0  0  0  0  0  0  0  0
   -5.0030    2.9560    2.0988 H   0  0  0  0  0  0  0  0  0  0  0  0
   -5.8538    1.7012    1.4938 H   0  0  0  0  0  0  0  0  0  0  0  0
   -5.0632    2.7479    0.4122 H   0  0  0  0  0  0  0  0  0  0  0  0
   -3.8200    1.3620    1.5411 C   0  0  0  0  0  0  0  0  0  0  0  0
   -3.5278    0.5833    0.5002 N   0  0  0  0  0  0  0  0  0  0  0  0
   -2.7200   -0.0363    0.5249 H   0  0  0  0  0  0  0  0  0  0  0  0
   -4.1259    0.6169   -0.3217 H   0  0  0  0  0  0  0  0  0  0  0  0
   -3.1632    1.3565    2.5838 O   0  0  0  0  0  0  0  0  0  0  0  0
   -1.1204   -2.1710    0.2022 C   0  0  0  0  0  0  0  0  0  0  0  0
   -0.3706   -2.3794    0.8297 H   0  0  0  0  0  0  0  0  0  0  0  0
   -0.8937   -2.6685   -0.7407 H   0  0  0  0  0  0  0  0  0  0  0  0
   -2.0619   -2.5190    0.6270 H   0  0  0  0  0  0  0  0  0  0  0  0
   -1.1275   -0.7214   -0.0000 N   0  0  0  0  0  0  0  0  0  0  0  0
   -1.9930   -0.1689   -0.1536 H   0  0  0  0  0  0  0  0  0  0  0  0
    0.0000    0.0000    0.0000 C   0  0  0  0  0  0  0  0  0  0  0  0
    1.1275   -0.5164    0.0000 O   0  0  0  0  0  0  0  0  0  0  0  0
   -0.1698    1.5103    0.0168 C   0  0  0  0  0  0  0  0  0  0  0  0
   -1.1137    1.6928    0.2946 H   0  0  0  0  0  0  0  0  0  0  0  0
    0.4637    1.9435    0.7909 H   0  0  0  0  0  0  0  0  0  0  0  0
    0.0667    1.9502   -0.9521 H   0  0  0  0  0  0  0  0  0  0  0  0
  1  5  1  0
  5  6  1  0
  5  9  2  0
  1  2  1  0
  1  3  1  0
  1  4  1  0
  6  7  1  0
  6  8  1  0
 10 14  1  0
 14 16  1  0
 16 17  2  0
 16 18  1  0
 10 11  1  0
 10 12  1  0
 10 13  1  0
 14 15  1  0
 18 19  1  0
 18 20  1  0
 18 21  1  0
M  END
>  <PDB_ID>  (863) 
pdb5vak

>  <RESIDUE_NAME>  (863) 
GLN   ILE

>  <FRAG_NAME>  (863) 
ACEM   NMA

>  <FRAG_ATOM_NUM>  (863) 
fragi: 9  fragj: 12

>  <atom.prop.CHAIN_ID>  (863) 
A A A A A A A A A Z Z Z Z Z Z Z Z Z Z Z Z

>  <atom.prop.IS_HEAVY_ATOM>  (863) 
1 0 0 0 1 1 0 0 1 1 0 0 0 1 0 1 1 1 0 0 0

>  <DIFUSE_FUNC_ATOM>  (863) 
n/a

>  <FINAL_SINGLE_POINT_ENERGY>  (863) 
0

>  <NONCOV_INTER_ENERGY_QM>  (863) 
0

>  <FF_Energy>  (863) 
9.19

>  <QM_Energy>  (863) 
26.01

>  <source>  (863) 
ACEM_nNMA_65

>  <Index>  (863) 
15402

$$$$
ACEM-pdb5voh-B-ASN-310:NMA-pdb5voh-B-PRO-314
     RDKit          3D

 21 19  0  0  0  0  0  0  0  0999 V2000
   -3.9086    1.8422    0.2627 C   0  0  0  0  0  0  0  0  0  0  0  0
   -4.5573    2.5496   -0.0062 H   0  0  0  0  0  0  0  0  0  0  0  0
   -2.9877    2.2213    0.3059 H   0  0  0  0  0  0  0  0  0  0  0  0
   -4.1805    1.4875    1.2569 H   0  0  0  0  0  0  0  0  0  0  0  0
   -3.9324    0.7416   -0.7760 C   0  0  0  0  0  0  0  0  0  0  0  0
   -2.9635   -0.1645   -0.6990 N   0  0  0  0  0  0  0  0  0  0  0  0
   -2.2735   -0.0979    0.0231 H   0  0  0  0  0  0  0  0  0  0  0  0
   -2.9232   -0.9122   -1.3603 H   0  0  0  0  0  0  0  0  0  0  0  0
   -4.8151    0.6983   -1.6313 O   0  0  0  0  0  0  0  0  0  0  0  0
   -1.1418   -2.1735    0.0251 C   0  0  0  0  0  0  0  0  0  0  0  0
   -0.1980   -2.5022    0.2046 H   0  0  0  0  0  0  0  0  0  0  0  0
   -1.4816   -2.6082   -0.9149 H   0  0  0  0  0  0  0  0  0  0  0  0
   -1.7755   -2.5209    0.8412 H   0  0  0  0  0  0  0  0  0  0  0  0
   -1.1225   -0.7167    0.0000 N   0  0  0  0  0  0  0  0  0  0  0  0
   -1.9975   -0.1368   -0.0199 H   0  0  0  0  0  0  0  0  0  0  0  0
    0.0000    0.0000    0.0000 C   0  0  0  0  0  0  0  0  0  0  0  0
    1.1225   -0.5149    0.0000 O   0  0  0  0  0  0  0  0  0  0  0  0
   -0.1577    1.5114   -0.0016 C   0  0  0  0  0  0  0  0  0  0  0  0
   -1.1006    1.7745   -0.2678 H   0  0  0  0  0  0  0  0  0  0  0  0
    0.1063    1.9619    0.9551 H   0  0  0  0  0  0  0  0  0  0  0  0
    0.5314    1.9864   -0.6999 H   0  0  0  0  0  0  0  0  0  0  0  0
  1  5  1  0
  5  6  1  0
  5  9  2  0
  1  2  1  0
  1  3  1  0
  1  4  1  0
  6  7  1  0
  6  8  1  0
 10 14  1  0
 14 16  1  0
 16 17  2  0
 16 18  1  0
 10 11  1  0
 10 12  1  0
 10 13  1  0
 14 15  1  0
 18 19  1  0
 18 20  1  0
 18 21  1  0
M  END
>  <PDB_ID>  (864) 
pdb5voh

>  <RESIDUE_NAME>  (864) 
ASN   PRO

>  <FRAG_NAME>  (864) 
ACEM   NMA

>  <FRAG_ATOM_NUM>  (864) 
fragi: 9  fragj: 12

>  <atom.prop.CHAIN_ID>  (864) 
A A A A A A A A A Z Z Z Z Z Z Z Z Z Z Z Z

>  <atom.prop.IS_HEAVY_ATOM>  (864) 
1 0 0 0 1 1 0 0 1 1 0 0 0 1 0 1 1 1 0 0 0

>  <DIFUSE_FUNC_ATOM>  (864) 
n/a

>  <FINAL_SINGLE_POINT_ENERGY>  (864) 
0

>  <NONCOV_INTER_ENERGY_QM>  (864) 
0

>  <FF_Energy>  (864) 
423.53

>  <QM_Energy>  (864) 
580.51

>  <source>  (864) 
ACEM_nNMA_65

>  <Index>  (864) 
20788

$$$$
ACEM-pdb5voh-B-ASN-310:NMA-pdb5voh-B-THR-315
     RDKit          3D

 21 19  0  0  0  0  0  0  0  0999 V2000
   -4.7670    2.0589   -1.4345 C   0  0  0  0  0  0  0  0  0  0  0  0
   -5.6767    1.8272   -1.7696 H   0  0  0  0  0  0  0  0  0  0  0  0
   -4.2720    2.5829   -2.1230 H   0  0  0  0  0  0  0  0  0  0  0  0
   -4.8767    2.6790   -0.5448 H   0  0  0  0  0  0  0  0  0  0  0  0
   -4.0091    0.7773   -1.1623 C   0  0  0  0  0  0  0  0  0  0  0  0
   -2.7056    0.8987   -0.9349 N   0  0  0  0  0  0  0  0  0  0  0  0
   -2.2790    1.8042   -0.9439 H   0  0  0  0  0  0  0  0  0  0  0  0
   -2.1509    0.0877   -0.7543 H   0  0  0  0  0  0  0  0  0  0  0  0
   -4.5874   -0.3080   -1.1460 O   0  0  0  0  0  0  0  0  0  0  0  0
   -1.1241   -2.1799   -0.0567 C   0  0  0  0  0  0  0  0  0  0  0  0
   -0.1776   -2.4972   -0.0801 H   0  0  0  0  0  0  0  0  0  0  0  0
   -1.6085   -2.4905   -0.9824 H   0  0  0  0  0  0  0  0  0  0  0  0
   -1.6228   -2.6207    0.8065 H   0  0  0  0  0  0  0  0  0  0  0  0
   -1.1189   -0.7240    0.0000 N   0  0  0  0  0  0  0  0  0  0  0  0
   -1.9959   -0.1524    0.0444 H   0  0  0  0  0  0  0  0  0  0  0  0
    0.0000    0.0000    0.0000 C   0  0  0  0  0  0  0  0  0  0  0  0
    1.1189   -0.5225   -0.0000 O   0  0  0  0  0  0  0  0  0  0  0  0
   -0.1339    1.5147    0.0065 C   0  0  0  0  0  0  0  0  0  0  0  0
    0.7906    1.9162   -0.1160 H   0  0  0  0  0  0  0  0  0  0  0  0
   -0.7771    1.8858   -0.7914 H   0  0  0  0  0  0  0  0  0  0  0  0
   -0.5147    1.8461    0.9727 H   0  0  0  0  0  0  0  0  0  0  0  0
  1  5  1  0
  5  6  1  0
  5  9  2  0
  1  2  1  0
  1  3  1  0
  1  4  1  0
  6  7  1  0
  6  8  1  0
 10 14  1  0
 14 16  1  0
 16 17  2  0
 16 18  1  0
 10 11  1  0
 10 12  1  0
 10 13  1  0
 14 15  1  0
 18 19  1  0
 18 20  1  0
 18 21  1  0
M  END
>  <PDB_ID>  (865) 
pdb5voh

>  <RESIDUE_NAME>  (865) 
ASN   THR

>  <FRAG_NAME>  (865) 
ACEM   NMA

>  <FRAG_ATOM_NUM>  (865) 
fragi: 9  fragj: 12

>  <atom.prop.CHAIN_ID>  (865) 
A A A A A A A A A Z Z Z Z Z Z Z Z Z Z Z Z

>  <atom.prop.IS_HEAVY_ATOM>  (865) 
1 0 0 0 1 1 0 0 1 1 0 0 0 1 0 1 1 1 0 0 0

>  <DIFUSE_FUNC_ATOM>  (865) 
n/a

>  <FINAL_SINGLE_POINT_ENERGY>  (865) 
0

>  <NONCOV_INTER_ENERGY_QM>  (865) 
0

>  <FF_Energy>  (865) 
46.58

>  <QM_Energy>  (865) 
61.75

>  <source>  (865) 
ACEM_nNMA_65

>  <Index>  (865) 
20798

$$$$
ACEM-pdb5vmt-C-GLN-164:NMA-pdb5vmt-C-GLY-168
     RDKit          3D

 21 19  0  0  0  0  0  0  0  0999 V2000
   -4.5009    2.0197    2.2736 C   0  0  0  0  0  0  0  0  0  0  0  0
   -5.4672    1.7712    2.3369 H   0  0  0  0  0  0  0  0  0  0  0  0
   -4.4114    3.0152    2.2759 H   0  0  0  0  0  0  0  0  0  0  0  0
   -3.9788    1.6194    3.1427 H   0  0  0  0  0  0  0  0  0  0  0  0
   -3.9529    1.4885    0.9503 C   0  0  0  0  0  0  0  0  0  0  0  0
   -3.4538    0.2544    0.9686 N   0  0  0  0  0  0  0  0  0  0  0  0
   -3.0862   -0.1679    0.1246 H   0  0  0  0  0  0  0  0  0  0  0  0
   -3.4488   -0.2579    1.8489 H   0  0  0  0  0  0  0  0  0  0  0  0
   -3.9882    2.1724   -0.0750 O   0  0  0  0  0  0  0  0  0  0  0  0
   -1.1242   -2.1676    0.0900 C   0  0  0  0  0  0  0  0  0  0  0  0
   -0.1882   -2.4771    0.2519 H   0  0  0  0  0  0  0  0  0  0  0  0
   -1.4527   -2.5781   -0.8648 H   0  0  0  0  0  0  0  0  0  0  0  0
   -1.7697   -2.5137    0.8973 H   0  0  0  0  0  0  0  0  0  0  0  0
   -1.1202   -0.7156   -0.0000 N   0  0  0  0  0  0  0  0  0  0  0  0
   -1.9942   -0.1449   -0.0702 H   0  0  0  0  0  0  0  0  0  0  0  0
    0.0000    0.0000    0.0000 C   0  0  0  0  0  0  0  0  0  0  0  0
    1.1202   -0.5162    0.0000 O   0  0  0  0  0  0  0  0  0  0  0  0
   -0.1468    1.5048   -0.0091 C   0  0  0  0  0  0  0  0  0  0  0  0
   -1.0922    1.7507    0.2622 H   0  0  0  0  0  0  0  0  0  0  0  0
   -0.0077    1.8495   -0.9527 H   0  0  0  0  0  0  0  0  0  0  0  0
    0.5617    1.9892    0.6628 H   0  0  0  0  0  0  0  0  0  0  0  0
  1  5  1  0
  5  6  1  0
  5  9  2  0
  1  2  1  0
  1  3  1  0
  1  4  1  0
  6  7  1  0
  6  8  1  0
 10 14  1  0
 14 16  1  0
 16 17  2  0
 16 18  1  0
 10 11  1  0
 10 12  1  0
 10 13  1  0
 14 15  1  0
 18 19  1  0
 18 20  1  0
 18 21  1  0
M  END
>  <PDB_ID>  (866) 
pdb5vmt

>  <RESIDUE_NAME>  (866) 
GLN   GLY

>  <FRAG_NAME>  (866) 
ACEM   NMA

>  <FRAG_ATOM_NUM>  (866) 
fragi: 9  fragj: 12

>  <atom.prop.CHAIN_ID>  (866) 
A A A A A A A A A Z Z Z Z Z Z Z Z Z Z Z Z

>  <atom.prop.IS_HEAVY_ATOM>  (866) 
1 0 0 0 1 1 0 0 1 1 0 0 0 1 0 1 1 1 0 0 0

>  <DIFUSE_FUNC_ATOM>  (866) 
n/a

>  <FINAL_SINGLE_POINT_ENERGY>  (866) 
0

>  <NONCOV_INTER_ENERGY_QM>  (866) 
0

>  <FF_Energy>  (866) 
7.03

>  <QM_Energy>  (866) 
21.09

>  <source>  (866) 
ACEM_nNMA_65

>  <Index>  (866) 
21667

$$$$
ACEM-pdb5w5p-A-ASN-337:NMA-pdb5w5p-A-SER-314
     RDKit          3D

 21 19  0  0  0  0  0  0  0  0999 V2000
   -4.3963   -0.3407   -1.9384 C   0  0  0  0  0  0  0  0  0  0  0  0
   -5.2673   -0.3156   -2.4186 H   0  0  0  0  0  0  0  0  0  0  0  0
   -4.0285   -1.2660   -1.9377 H   0  0  0  0  0  0  0  0  0  0  0  0
   -3.6943    0.3095   -2.4605 H   0  0  0  0  0  0  0  0  0  0  0  0
   -4.6248    0.0906   -0.5006 C   0  0  0  0  0  0  0  0  0  0  0  0
   -3.6223   -0.1107    0.3539 N   0  0  0  0  0  0  0  0  0  0  0  0
   -2.7717   -0.5248    0.0234 H   0  0  0  0  0  0  0  0  0  0  0  0
   -3.7187    0.1470    1.3102 H   0  0  0  0  0  0  0  0  0  0  0  0
   -5.6947    0.5965   -0.1623 O   0  0  0  0  0  0  0  0  0  0  0  0
   -1.1225   -2.1424    0.2467 C   0  0  0  0  0  0  0  0  0  0  0  0
   -0.1723   -2.4481    0.3594 H   0  0  0  0  0  0  0  0  0  0  0  0
   -1.5423   -2.6735   -0.6076 H   0  0  0  0  0  0  0  0  0  0  0  0
   -1.6727   -2.3514    1.1642 H   0  0  0  0  0  0  0  0  0  0  0  0
   -1.1159   -0.7102    0.0000 N   0  0  0  0  0  0  0  0  0  0  0  0
   -1.9821   -0.1596   -0.1903 H   0  0  0  0  0  0  0  0  0  0  0  0
    0.0000    0.0000    0.0000 C   0  0  0  0  0  0  0  0  0  0  0  0
    1.1159   -0.5210   -0.0000 O   0  0  0  0  0  0  0  0  0  0  0  0
   -0.1739    1.5135   -0.0114 C   0  0  0  0  0  0  0  0  0  0  0  0
   -0.3738    1.7964   -0.9566 H   0  0  0  0  0  0  0  0  0  0  0  0
   -1.0139    1.8162    0.6139 H   0  0  0  0  0  0  0  0  0  0  0  0
    0.7455    2.0109    0.2973 H   0  0  0  0  0  0  0  0  0  0  0  0
  1  5  1  0
  5  6  1  0
  5  9  2  0
  1  2  1  0
  1  3  1  0
  1  4  1  0
  6  7  1  0
  6  8  1  0
 10 14  1  0
 14 16  1  0
 16 17  2  0
 16 18  1  0
 10 11  1  0
 10 12  1  0
 10 13  1  0
 14 15  1  0
 18 19  1  0
 18 20  1  0
 18 21  1  0
M  END
>  <PDB_ID>  (867) 
pdb5w5p

>  <RESIDUE_NAME>  (867) 
ASN   SER

>  <FRAG_NAME>  (867) 
ACEM   NMA

>  <FRAG_ATOM_NUM>  (867) 
fragi: 9  fragj: 12

>  <atom.prop.CHAIN_ID>  (867) 
A A A A A A A A A Z Z Z Z Z Z Z Z Z Z Z Z

>  <atom.prop.IS_HEAVY_ATOM>  (867) 
1 0 0 0 1 1 0 0 1 1 0 0 0 1 0 1 1 1 0 0 0

>  <DIFUSE_FUNC_ATOM>  (867) 
n/a

>  <FINAL_SINGLE_POINT_ENERGY>  (867) 
0

>  <NONCOV_INTER_ENERGY_QM>  (867) 
0

>  <FF_Energy>  (867) 
17.67

>  <QM_Energy>  (867) 
42.25

>  <source>  (867) 
ACEM_nNMA_65

>  <Index>  (867) 
24781

$$$$
ACEM-pdb5vvw-E-ASN-190:NMA-pdb5vvw-E-THR-123
     RDKit          3D

 21 19  0  0  0  0  0  0  0  0999 V2000
   -5.8765    1.0785    0.9322 C   0  0  0  0  0  0  0  0  0  0  0  0
   -6.1566    1.3318    1.8563 H   0  0  0  0  0  0  0  0  0  0  0  0
   -6.4604    0.3424    0.5928 H   0  0  0  0  0  0  0  0  0  0  0  0
   -6.0089    1.9455    0.2848 H   0  0  0  0  0  0  0  0  0  0  0  0
   -4.4696    0.6173    0.9557 C   0  0  0  0  0  0  0  0  0  0  0  0
   -4.0775   -0.1155   -0.0026 N   0  0  0  0  0  0  0  0  0  0  0  0
   -4.6966   -0.3753   -0.7638 H   0  0  0  0  0  0  0  0  0  0  0  0
   -3.1260   -0.4702   -0.0443 H   0  0  0  0  0  0  0  0  0  0  0  0
   -3.7487    0.9725    1.8047 O   0  0  0  0  0  0  0  0  0  0  0  0
   -1.1354   -2.1782   -0.0143 C   0  0  0  0  0  0  0  0  0  0  0  0
   -0.2002   -2.5050   -0.1519 H   0  0  0  0  0  0  0  0  0  0  0  0
   -1.7443   -2.5245   -0.8494 H   0  0  0  0  0  0  0  0  0  0  0  0
   -1.5336   -2.5865    0.9147 H   0  0  0  0  0  0  0  0  0  0  0  0
   -1.1231   -0.7211   -0.0000 N   0  0  0  0  0  0  0  0  0  0  0  0
   -1.9983   -0.1438    0.0111 H   0  0  0  0  0  0  0  0  0  0  0  0
    0.0000    0.0000    0.0000 C   0  0  0  0  0  0  0  0  0  0  0  0
    1.1231   -0.5264   -0.0000 O   0  0  0  0  0  0  0  0  0  0  0  0
   -0.1367    1.5190   -0.0033 C   0  0  0  0  0  0  0  0  0  0  0  0
    0.7010    1.9110   -0.4068 H   0  0  0  0  0  0  0  0  0  0  0  0
   -0.9907    1.8418   -0.5987 H   0  0  0  0  0  0  0  0  0  0  0  0
   -0.2378    1.9049    1.0111 H   0  0  0  0  0  0  0  0  0  0  0  0
  1  5  1  0
  5  6  1  0
  5  9  2  0
  1  2  1  0
  1  3  1  0
  1  4  1  0
  6  7  1  0
  6  8  1  0
 10 14  1  0
 14 16  1  0
 16 17  2  0
 16 18  1  0
 10 11  1  0
 10 12  1  0
 10 13  1  0
 14 15  1  0
 18 19  1  0
 18 20  1  0
 18 21  1  0
M  END
>  <PDB_ID>  (868) 
pdb5vvw

>  <RESIDUE_NAME>  (868) 
ASN   THR

>  <FRAG_NAME>  (868) 
ACEM   NMA

>  <FRAG_ATOM_NUM>  (868) 
fragi: 9  fragj: 12

>  <atom.prop.CHAIN_ID>  (868) 
A A A A A A A A A Z Z Z Z Z Z Z Z Z Z Z Z

>  <atom.prop.IS_HEAVY_ATOM>  (868) 
1 0 0 0 1 1 0 0 1 1 0 0 0 1 0 1 1 1 0 0 0

>  <DIFUSE_FUNC_ATOM>  (868) 
n/a

>  <FINAL_SINGLE_POINT_ENERGY>  (868) 
0

>  <NONCOV_INTER_ENERGY_QM>  (868) 
0

>  <FF_Energy>  (868) 
1.14

>  <QM_Energy>  (868) 
12.67

>  <source>  (868) 
ACEM_nNMA_65

>  <Index>  (868) 
25136

$$$$
ACEM-pdb5w6h-C-GLN-896:NMA-pdb5w6h-C-GLY-893
     RDKit          3D

 21 19  0  0  0  0  0  0  0  0999 V2000
   -6.3452   -0.3022    0.8103 C   0  0  0  0  0  0  0  0  0  0  0  0
   -6.6347    0.1396   -0.0398 H   0  0  0  0  0  0  0  0  0  0  0  0
   -6.9012    0.0388    1.5693 H   0  0  0  0  0  0  0  0  0  0  0  0
   -6.5066   -1.3761    0.7166 H   0  0  0  0  0  0  0  0  0  0  0  0
   -4.8946    0.0552    1.0716 C   0  0  0  0  0  0  0  0  0  0  0  0
   -3.9854   -0.6219    0.3799 N   0  0  0  0  0  0  0  0  0  0  0  0
   -2.9930   -0.4283    0.4914 H   0  0  0  0  0  0  0  0  0  0  0  0
   -4.2985   -1.3435   -0.2681 H   0  0  0  0  0  0  0  0  0  0  0  0
   -4.5939    0.9361    1.8761 O   0  0  0  0  0  0  0  0  0  0  0  0
   -1.0996   -2.1822   -0.0259 C   0  0  0  0  0  0  0  0  0  0  0  0
   -0.1703   -2.4785   -0.2839 H   0  0  0  0  0  0  0  0  0  0  0  0
   -1.7932   -2.5792   -0.7671 H   0  0  0  0  0  0  0  0  0  0  0  0
   -1.3244   -2.5863    0.9612 H   0  0  0  0  0  0  0  0  0  0  0  0
   -1.1203   -0.7252    0.0000 N   0  0  0  0  0  0  0  0  0  0  0  0
   -1.9968   -0.1637    0.0200 H   0  0  0  0  0  0  0  0  0  0  0  0
    0.0000    0.0000    0.0000 C   0  0  0  0  0  0  0  0  0  0  0  0
    1.1203   -0.5179   -0.0000 O   0  0  0  0  0  0  0  0  0  0  0  0
   -0.1296    1.5017    0.0030 C   0  0  0  0  0  0  0  0  0  0  0  0
    0.4309    1.8885   -0.7708 H   0  0  0  0  0  0  0  0  0  0  0  0
    0.3104    1.8743    0.8568 H   0  0  0  0  0  0  0  0  0  0  0  0
   -1.1460    1.8887   -0.0689 H   0  0  0  0  0  0  0  0  0  0  0  0
  1  5  1  0
  5  6  1  0
  5  9  2  0
  1  2  1  0
  1  3  1  0
  1  4  1  0
  6  7  1  0
  6  8  1  0
 10 14  1  0
 14 16  1  0
 16 17  2  0
 16 18  1  0
 10 11  1  0
 10 12  1  0
 10 13  1  0
 14 15  1  0
 18 19  1  0
 18 20  1  0
 18 21  1  0
M  END
>  <PDB_ID>  (869) 
pdb5w6h

>  <RESIDUE_NAME>  (869) 
GLN   GLY

>  <FRAG_NAME>  (869) 
ACEM   NMA

>  <FRAG_ATOM_NUM>  (869) 
fragi: 9  fragj: 12

>  <atom.prop.CHAIN_ID>  (869) 
A A A A A A A A A Z Z Z Z Z Z Z Z Z Z Z Z

>  <atom.prop.IS_HEAVY_ATOM>  (869) 
1 0 0 0 1 1 0 0 1 1 0 0 0 1 0 1 1 1 0 0 0

>  <DIFUSE_FUNC_ATOM>  (869) 
n/a

>  <FINAL_SINGLE_POINT_ENERGY>  (869) 
0

>  <NONCOV_INTER_ENERGY_QM>  (869) 
0

>  <FF_Energy>  (869) 
5.2

>  <QM_Energy>  (869) 
16.11

>  <source>  (869) 
ACEM_nNMA_66

>  <Index>  (869) 
1466

$$$$
ACEM-pdb5wjc-A-GLN-242:NMA-pdb5wjc-A-ALA-288
     RDKit          3D

 21 19  0  0  0  0  0  0  0  0999 V2000
   -5.4181    1.5246    1.5562 C   0  0  0  0  0  0  0  0  0  0  0  0
   -6.0009    0.7530    1.8163 H   0  0  0  0  0  0  0  0  0  0  0  0
   -5.9753    2.2228    1.1041 H   0  0  0  0  0  0  0  0  0  0  0  0
   -5.0111    1.9599    2.4689 H   0  0  0  0  0  0  0  0  0  0  0  0
   -4.3581    1.0250    0.5661 C   0  0  0  0  0  0  0  0  0  0  0  0
   -3.1327    0.9025    1.0288 N   0  0  0  0  0  0  0  0  0  0  0  0
   -2.3799    0.5631    0.4349 H   0  0  0  0  0  0  0  0  0  0  0  0
   -2.9404    1.1530    1.9996 H   0  0  0  0  0  0  0  0  0  0  0  0
   -4.6372    0.7805   -0.5955 O   0  0  0  0  0  0  0  0  0  0  0  0
   -1.1460   -2.1744    0.0413 C   0  0  0  0  0  0  0  0  0  0  0  0
   -0.2402   -2.4599    0.3412 H   0  0  0  0  0  0  0  0  0  0  0  0
   -1.2721   -2.5493   -0.9744 H   0  0  0  0  0  0  0  0  0  0  0  0
   -1.9365   -2.5314    0.7013 H   0  0  0  0  0  0  0  0  0  0  0  0
   -1.1237   -0.7136   -0.0000 N   0  0  0  0  0  0  0  0  0  0  0  0
   -1.9977   -0.1342   -0.0322 H   0  0  0  0  0  0  0  0  0  0  0  0
    0.0000    0.0000    0.0000 C   0  0  0  0  0  0  0  0  0  0  0  0
    1.1237   -0.5078    0.0000 O   0  0  0  0  0  0  0  0  0  0  0  0
   -0.1445    1.5143    0.0248 C   0  0  0  0  0  0  0  0  0  0  0  0
   -1.1135    1.7435    0.0655 H   0  0  0  0  0  0  0  0  0  0  0  0
    0.3464    1.8847    0.9247 H   0  0  0  0  0  0  0  0  0  0  0  0
    0.2908    1.9634   -0.8680 H   0  0  0  0  0  0  0  0  0  0  0  0
  1  5  1  0
  5  6  1  0
  5  9  2  0
  1  2  1  0
  1  3  1  0
  1  4  1  0
  6  7  1  0
  6  8  1  0
 10 14  1  0
 14 16  1  0
 16 17  2  0
 16 18  1  0
 10 11  1  0
 10 12  1  0
 10 13  1  0
 14 15  1  0
 18 19  1  0
 18 20  1  0
 18 21  1  0
M  END
>  <PDB_ID>  (870) 
pdb5wjc

>  <RESIDUE_NAME>  (870) 
GLN   ALA

>  <FRAG_NAME>  (870) 
ACEM   NMA

>  <FRAG_ATOM_NUM>  (870) 
fragi: 9  fragj: 12

>  <atom.prop.CHAIN_ID>  (870) 
A A A A A A A A A Z Z Z Z Z Z Z Z Z Z Z Z

>  <atom.prop.IS_HEAVY_ATOM>  (870) 
1 0 0 0 1 1 0 0 1 1 0 0 0 1 0 1 1 1 0 0 0

>  <DIFUSE_FUNC_ATOM>  (870) 
n/a

>  <FINAL_SINGLE_POINT_ENERGY>  (870) 
0

>  <NONCOV_INTER_ENERGY_QM>  (870) 
0

>  <FF_Energy>  (870) 
15.13

>  <QM_Energy>  (870) 
35.12

>  <source>  (870) 
ACEM_nNMA_66

>  <Index>  (870) 
1930

$$$$
ACEM-pdb5whu-F-GLN-34:NMA-pdb5whu-F-ARG-59
     RDKit          3D

 21 19  0  0  0  0  0  0  0  0999 V2000
   -5.9350    0.8343    0.1819 C   0  0  0  0  0  0  0  0  0  0  0  0
   -6.3687   -0.0002    0.5095 H   0  0  0  0  0  0  0  0  0  0  0  0
   -6.4488    1.2100   -0.5846 H   0  0  0  0  0  0  0  0  0  0  0  0
   -5.9159    1.5660    0.9896 H   0  0  0  0  0  0  0  0  0  0  0  0
   -4.5329    0.4891   -0.3008 C   0  0  0  0  0  0  0  0  0  0  0  0
   -3.6233    0.2163    0.6409 N   0  0  0  0  0  0  0  0  0  0  0  0
   -2.6778   -0.0343    0.3901 H   0  0  0  0  0  0  0  0  0  0  0  0
   -3.9073    0.2676    1.6179 H   0  0  0  0  0  0  0  0  0  0  0  0
   -4.2737    0.4583   -1.5086 O   0  0  0  0  0  0  0  0  0  0  0  0
   -1.1306   -2.1176    0.2922 C   0  0  0  0  0  0  0  0  0  0  0  0
   -2.0497   -2.4875    0.1765 H   0  0  0  0  0  0  0  0  0  0  0  0
   -0.4976   -2.5937   -0.3139 H   0  0  0  0  0  0  0  0  0  0  0  0
   -0.8135   -2.2559    1.3259 H   0  0  0  0  0  0  0  0  0  0  0  0
   -1.1257   -0.7012   -0.0000 N   0  0  0  0  0  0  0  0  0  0  0  0
   -1.9798   -0.1537   -0.2228 H   0  0  0  0  0  0  0  0  0  0  0  0
    0.0000    0.0000    0.0000 C   0  0  0  0  0  0  0  0  0  0  0  0
    1.1257   -0.5111    0.0000 O   0  0  0  0  0  0  0  0  0  0  0  0
   -0.1658    1.5019    0.0052 C   0  0  0  0  0  0  0  0  0  0  0  0
   -1.0655    1.7313   -0.3513 H   0  0  0  0  0  0  0  0  0  0  0  0
   -0.1003    1.8301    1.0424 H   0  0  0  0  0  0  0  0  0  0  0  0
    0.6011    1.9812   -0.6032 H   0  0  0  0  0  0  0  0  0  0  0  0
  1  5  1  0
  5  6  1  0
  5  9  2  0
  1  2  1  0
  1  3  1  0
  1  4  1  0
  6  7  1  0
  6  8  1  0
 10 14  1  0
 14 16  1  0
 16 17  2  0
 16 18  1  0
 10 11  1  0
 10 12  1  0
 10 13  1  0
 14 15  1  0
 18 19  1  0
 18 20  1  0
 18 21  1  0
M  END
>  <PDB_ID>  (871) 
pdb5whu

>  <RESIDUE_NAME>  (871) 
GLN   ARG

>  <FRAG_NAME>  (871) 
ACEM   NMA

>  <FRAG_ATOM_NUM>  (871) 
fragi: 9  fragj: 12

>  <atom.prop.CHAIN_ID>  (871) 
A A A A A A A A A Z Z Z Z Z Z Z Z Z Z Z Z

>  <atom.prop.IS_HEAVY_ATOM>  (871) 
1 0 0 0 1 1 0 0 1 1 0 0 0 1 0 1 1 1 0 0 0

>  <DIFUSE_FUNC_ATOM>  (871) 
n/a

>  <FINAL_SINGLE_POINT_ENERGY>  (871) 
0

>  <NONCOV_INTER_ENERGY_QM>  (871) 
0

>  <FF_Energy>  (871) 
10.59

>  <QM_Energy>  (871) 
30.8

>  <source>  (871) 
ACEM_nNMA_66

>  <Index>  (871) 
3368

$$$$
ACEM-pdb5w6p-D-GLN-283:NMA-pdb5w6p-D-PRO-278
     RDKit          3D

 21 19  0  0  0  0  0  0  0  0999 V2000
   -4.8411    2.1608   -1.7992 C   0  0  0  0  0  0  0  0  0  0  0  0
   -4.9364    3.1344   -1.6090 H   0  0  0  0  0  0  0  0  0  0  0  0
   -5.7372    1.7250   -1.8040 H   0  0  0  0  0  0  0  0  0  0  0  0
   -4.3748    2.0313   -2.7759 H   0  0  0  0  0  0  0  0  0  0  0  0
   -4.0078    1.5363   -0.7024 C   0  0  0  0  0  0  0  0  0  0  0  0
   -3.4412    0.3681   -0.9803 N   0  0  0  0  0  0  0  0  0  0  0  0
   -2.8553   -0.1067   -0.2968 H   0  0  0  0  0  0  0  0  0  0  0  0
   -3.6037   -0.0518   -1.8944 H   0  0  0  0  0  0  0  0  0  0  0  0
   -3.8883    2.0904    0.3952 O   0  0  0  0  0  0  0  0  0  0  0  0
   -1.0980   -2.1708   -0.0451 C   0  0  0  0  0  0  0  0  0  0  0  0
   -0.1445   -2.4817    0.1068 H   0  0  0  0  0  0  0  0  0  0  0  0
   -1.4361   -2.5711   -1.0009 H   0  0  0  0  0  0  0  0  0  0  0  0
   -1.6960   -2.5815    0.7685 H   0  0  0  0  0  0  0  0  0  0  0  0
   -1.1212   -0.7145   -0.0000 N   0  0  0  0  0  0  0  0  0  0  0  0
   -1.9950   -0.1555    0.0342 H   0  0  0  0  0  0  0  0  0  0  0  0
    0.0000    0.0000    0.0000 C   0  0  0  0  0  0  0  0  0  0  0  0
    1.1212   -0.5126    0.0000 O   0  0  0  0  0  0  0  0  0  0  0  0
   -0.1757    1.5041    0.0098 C   0  0  0  0  0  0  0  0  0  0  0  0
   -1.0413    1.7639    0.4480 H   0  0  0  0  0  0  0  0  0  0  0  0
    0.6680    1.9789    0.5107 H   0  0  0  0  0  0  0  0  0  0  0  0
   -0.1303    1.9093   -1.0011 H   0  0  0  0  0  0  0  0  0  0  0  0
  1  5  1  0
  5  6  1  0
  5  9  2  0
  1  2  1  0
  1  3  1  0
  1  4  1  0
  6  7  1  0
  6  8  1  0
 10 14  1  0
 14 16  1  0
 16 17  2  0
 16 18  1  0
 10 11  1  0
 10 12  1  0
 10 13  1  0
 14 15  1  0
 18 19  1  0
 18 20  1  0
 18 21  1  0
M  END
>  <PDB_ID>  (872) 
pdb5w6p

>  <RESIDUE_NAME>  (872) 
GLN   PRO

>  <FRAG_NAME>  (872) 
ACEM   NMA

>  <FRAG_ATOM_NUM>  (872) 
fragi: 9  fragj: 12

>  <atom.prop.CHAIN_ID>  (872) 
A A A A A A A A A Z Z Z Z Z Z Z Z Z Z Z Z

>  <atom.prop.IS_HEAVY_ATOM>  (872) 
1 0 0 0 1 1 0 0 1 1 0 0 0 1 0 1 1 1 0 0 0

>  <DIFUSE_FUNC_ATOM>  (872) 
n/a

>  <FINAL_SINGLE_POINT_ENERGY>  (872) 
0

>  <NONCOV_INTER_ENERGY_QM>  (872) 
0

>  <FF_Energy>  (872) 
9.81

>  <QM_Energy>  (872) 
33.46

>  <source>  (872) 
ACEM_nNMA_66

>  <Index>  (872) 
3964

$$$$
ACEM-pdb5wx6-D-ASN-85:NMA-pdb5wx6-A-ARG-253
     RDKit          3D

 21 19  0  0  0  0  0  0  0  0999 V2000
   -5.2817    1.5042    1.6172 C   0  0  0  0  0  0  0  0  0  0  0  0
   -6.0330    0.8613    1.7490 H   0  0  0  0  0  0  0  0  0  0  0  0
   -5.6150    2.3285    1.1644 H   0  0  0  0  0  0  0  0  0  0  0  0
   -4.8852    1.7808    2.5942 H   0  0  0  0  0  0  0  0  0  0  0  0
   -4.2429    0.8462    0.7109 C   0  0  0  0  0  0  0  0  0  0  0  0
   -2.9850    1.0175    1.0670 N   0  0  0  0  0  0  0  0  0  0  0  0
   -2.7491    1.5429    1.8852 H   0  0  0  0  0  0  0  0  0  0  0  0
   -2.2454    0.6162    0.5132 H   0  0  0  0  0  0  0  0  0  0  0  0
   -4.5662    0.1732   -0.2664 O   0  0  0  0  0  0  0  0  0  0  0  0
   -1.0923   -2.1782    0.0327 C   0  0  0  0  0  0  0  0  0  0  0  0
   -0.5394   -2.4859    0.8265 H   0  0  0  0  0  0  0  0  0  0  0  0
   -0.6834   -2.6129   -0.8794 H   0  0  0  0  0  0  0  0  0  0  0  0
   -2.0979   -2.5456    0.2370 H   0  0  0  0  0  0  0  0  0  0  0  0
   -1.1248   -0.7186    0.0000 N   0  0  0  0  0  0  0  0  0  0  0  0
   -1.9976   -0.1634   -0.0242 H   0  0  0  0  0  0  0  0  0  0  0  0
    0.0000    0.0000    0.0000 C   0  0  0  0  0  0  0  0  0  0  0  0
    1.1248   -0.5108   -0.0000 O   0  0  0  0  0  0  0  0  0  0  0  0
   -0.1867    1.5088   -0.0753 C   0  0  0  0  0  0  0  0  0  0  0  0
   -0.7378    1.8037    0.7059 H   0  0  0  0  0  0  0  0  0  0  0  0
    0.7881    1.9939   -0.0260 H   0  0  0  0  0  0  0  0  0  0  0  0
   -0.7150    1.7653   -0.9936 H   0  0  0  0  0  0  0  0  0  0  0  0
  1  5  1  0
  5  6  1  0
  5  9  2  0
  1  2  1  0
  1  3  1  0
  1  4  1  0
  6  7  1  0
  6  8  1  0
 10 14  1  0
 14 16  1  0
 16 17  2  0
 16 18  1  0
 10 11  1  0
 10 12  1  0
 10 13  1  0
 14 15  1  0
 18 19  1  0
 18 20  1  0
 18 21  1  0
M  END
>  <PDB_ID>  (873) 
pdb5wx6

>  <RESIDUE_NAME>  (873) 
ASN   ARG

>  <FRAG_NAME>  (873) 
ACEM   NMA

>  <FRAG_ATOM_NUM>  (873) 
fragi: 9  fragj: 12

>  <atom.prop.CHAIN_ID>  (873) 
A A A A A A A A A Z Z Z Z Z Z Z Z Z Z Z Z

>  <atom.prop.IS_HEAVY_ATOM>  (873) 
1 0 0 0 1 1 0 0 1 1 0 0 0 1 0 1 1 1 0 0 0

>  <DIFUSE_FUNC_ATOM>  (873) 
n/a

>  <FINAL_SINGLE_POINT_ENERGY>  (873) 
0

>  <NONCOV_INTER_ENERGY_QM>  (873) 
0

>  <FF_Energy>  (873) 
13.87

>  <QM_Energy>  (873) 
30.3

>  <source>  (873) 
ACEM_nNMA_66

>  <Index>  (873) 
7325

$$$$
ACEM-pdb5wx3-D-ASN-85:NMA-pdb5wx3-B-ARG-253
     RDKit          3D

 21 19  0  0  0  0  0  0  0  0999 V2000
   -5.2983    1.5231    1.8149 C   0  0  0  0  0  0  0  0  0  0  0  0
   -5.9972    0.8393    2.0122 H   0  0  0  0  0  0  0  0  0  0  0  0
   -5.7234    2.3418    1.4343 H   0  0  0  0  0  0  0  0  0  0  0  0
   -4.8106    1.7953    2.7510 H   0  0  0  0  0  0  0  0  0  0  0  0
   -4.3392    0.9546    0.7936 C   0  0  0  0  0  0  0  0  0  0  0  0
   -3.0515    1.0513    1.0857 N   0  0  0  0  0  0  0  0  0  0  0  0
   -2.7571    1.4755    1.9436 H   0  0  0  0  0  0  0  0  0  0  0  0
   -2.3632    0.6990    0.4476 H   0  0  0  0  0  0  0  0  0  0  0  0
   -4.7485    0.4318   -0.2434 O   0  0  0  0  0  0  0  0  0  0  0  0
   -1.0871   -2.1877    0.0232 C   0  0  0  0  0  0  0  0  0  0  0  0
   -0.5368   -2.4986    0.8153 H   0  0  0  0  0  0  0  0  0  0  0  0
   -0.6706   -2.6127   -0.8901 H   0  0  0  0  0  0  0  0  0  0  0  0
   -2.0921   -2.5698    0.2026 H   0  0  0  0  0  0  0  0  0  0  0  0
   -1.1267   -0.7259   -0.0000 N   0  0  0  0  0  0  0  0  0  0  0  0
   -1.9993   -0.1736   -0.0169 H   0  0  0  0  0  0  0  0  0  0  0  0
    0.0000    0.0000    0.0000 C   0  0  0  0  0  0  0  0  0  0  0  0
    1.1267   -0.5113    0.0000 O   0  0  0  0  0  0  0  0  0  0  0  0
   -0.1835    1.5142   -0.0549 C   0  0  0  0  0  0  0  0  0  0  0  0
   -0.7170    1.8006    0.7417 H   0  0  0  0  0  0  0  0  0  0  0  0
    0.7940    1.9951   -0.0209 H   0  0  0  0  0  0  0  0  0  0  0  0
   -0.7234    1.8081   -0.9550 H   0  0  0  0  0  0  0  0  0  0  0  0
  1  5  1  0
  5  6  1  0
  5  9  2  0
  1  2  1  0
  1  3  1  0
  1  4  1  0
  6  7  1  0
  6  8  1  0
 10 14  1  0
 14 16  1  0
 16 17  2  0
 16 18  1  0
 10 11  1  0
 10 12  1  0
 10 13  1  0
 14 15  1  0
 18 19  1  0
 18 20  1  0
 18 21  1  0
M  END
>  <PDB_ID>  (874) 
pdb5wx3

>  <RESIDUE_NAME>  (874) 
ASN   ARG

>  <FRAG_NAME>  (874) 
ACEM   NMA

>  <FRAG_ATOM_NUM>  (874) 
fragi: 9  fragj: 12

>  <atom.prop.CHAIN_ID>  (874) 
A A A A A A A A A Z Z Z Z Z Z Z Z Z Z Z Z

>  <atom.prop.IS_HEAVY_ATOM>  (874) 
1 0 0 0 1 1 0 0 1 1 0 0 0 1 0 1 1 1 0 0 0

>  <DIFUSE_FUNC_ATOM>  (874) 
n/a

>  <FINAL_SINGLE_POINT_ENERGY>  (874) 
0

>  <NONCOV_INTER_ENERGY_QM>  (874) 
0

>  <FF_Energy>  (874) 
10.72

>  <QM_Energy>  (874) 
23.31

>  <source>  (874) 
ACEM_nNMA_66

>  <Index>  (874) 
8330

$$$$
ACEM-pdb5wx6-C-ASN-85:NMA-pdb5wx6-B-ARG-253
     RDKit          3D

 21 19  0  0  0  0  0  0  0  0999 V2000
   -5.2436    1.5220    1.8200 C   0  0  0  0  0  0  0  0  0  0  0  0
   -6.0226    0.9210    1.9832 H   0  0  0  0  0  0  0  0  0  0  0  0
   -5.5574    2.3858    1.4320 H   0  0  0  0  0  0  0  0  0  0  0  0
   -4.7654    1.7309    2.7770 H   0  0  0  0  0  0  0  0  0  0  0  0
   -4.3163    0.8503    0.8201 C   0  0  0  0  0  0  0  0  0  0  0  0
   -3.0222    0.8350    1.1198 N   0  0  0  0  0  0  0  0  0  0  0  0
   -2.7084    1.2516    1.9770 H   0  0  0  0  0  0  0  0  0  0  0  0
   -2.3660    0.4127    0.4992 H   0  0  0  0  0  0  0  0  0  0  0  0
   -4.7597    0.3371   -0.1984 O   0  0  0  0  0  0  0  0  0  0  0  0
   -1.1152   -2.1819   -0.0534 C   0  0  0  0  0  0  0  0  0  0  0  0
   -0.5823   -2.5452    0.7268 H   0  0  0  0  0  0  0  0  0  0  0  0
   -0.6950   -2.5632   -0.9840 H   0  0  0  0  0  0  0  0  0  0  0  0
   -2.1309   -2.5473    0.0983 H   0  0  0  0  0  0  0  0  0  0  0  0
   -1.1208   -0.7186   -0.0000 N   0  0  0  0  0  0  0  0  0  0  0  0
   -1.9969   -0.1548    0.0406 H   0  0  0  0  0  0  0  0  0  0  0  0
    0.0000    0.0000    0.0000 C   0  0  0  0  0  0  0  0  0  0  0  0
    1.1208   -0.5103   -0.0000 O   0  0  0  0  0  0  0  0  0  0  0  0
   -0.1903    1.5180   -0.0156 C   0  0  0  0  0  0  0  0  0  0  0  0
   -0.6935    1.7857    0.8080 H   0  0  0  0  0  0  0  0  0  0  0  0
    0.7798    2.0149   -0.0137 H   0  0  0  0  0  0  0  0  0  0  0  0
   -0.7856    1.8219   -0.8767 H   0  0  0  0  0  0  0  0  0  0  0  0
  1  5  1  0
  5  6  1  0
  5  9  2  0
  1  2  1  0
  1  3  1  0
  1  4  1  0
  6  7  1  0
  6  8  1  0
 10 14  1  0
 14 16  1  0
 16 17  2  0
 16 18  1  0
 10 11  1  0
 10 12  1  0
 10 13  1  0
 14 15  1  0
 18 19  1  0
 18 20  1  0
 18 21  1  0
M  END
>  <PDB_ID>  (875) 
pdb5wx6

>  <RESIDUE_NAME>  (875) 
ASN   ARG

>  <FRAG_NAME>  (875) 
ACEM   NMA

>  <FRAG_ATOM_NUM>  (875) 
fragi: 9  fragj: 12

>  <atom.prop.CHAIN_ID>  (875) 
A A A A A A A A A Z Z Z Z Z Z Z Z Z Z Z Z

>  <atom.prop.IS_HEAVY_ATOM>  (875) 
1 0 0 0 1 1 0 0 1 1 0 0 0 1 0 1 1 1 0 0 0

>  <DIFUSE_FUNC_ATOM>  (875) 
n/a

>  <FINAL_SINGLE_POINT_ENERGY>  (875) 
0

>  <NONCOV_INTER_ENERGY_QM>  (875) 
0

>  <FF_Energy>  (875) 
19.01

>  <QM_Energy>  (875) 
49.05

>  <source>  (875) 
ACEM_nNMA_66

>  <Index>  (875) 
8571

$$$$
ACEM-pdb5xc3-A-GLN-65:NMA-pdb5xc3-A-THR-62
     RDKit          3D

 21 19  0  0  0  0  0  0  0  0999 V2000
   -5.2920    1.4180   -1.5094 C   0  0  0  0  0  0  0  0  0  0  0  0
   -4.8245    2.0234   -2.1591 H   0  0  0  0  0  0  0  0  0  0  0  0
   -6.0121    1.9374   -1.0418 H   0  0  0  0  0  0  0  0  0  0  0  0
   -5.7545    0.6011   -2.0633 H   0  0  0  0  0  0  0  0  0  0  0  0
   -4.2800    0.9569   -0.4714 C   0  0  0  0  0  0  0  0  0  0  0  0
   -3.5759   -0.1407   -0.7688 N   0  0  0  0  0  0  0  0  0  0  0  0
   -2.8761   -0.4947   -0.1311 H   0  0  0  0  0  0  0  0  0  0  0  0
   -3.7607   -0.6113   -1.6522 H   0  0  0  0  0  0  0  0  0  0  0  0
   -4.1327    1.5691    0.5825 O   0  0  0  0  0  0  0  0  0  0  0  0
   -1.1508   -2.1646   -0.1307 C   0  0  0  0  0  0  0  0  0  0  0  0
   -0.2125   -2.5179   -0.0193 H   0  0  0  0  0  0  0  0  0  0  0  0
   -1.5193   -2.4667   -1.1110 H   0  0  0  0  0  0  0  0  0  0  0  0
   -1.7450   -2.6163    0.6638 H   0  0  0  0  0  0  0  0  0  0  0  0
   -1.1271   -0.7146    0.0000 N   0  0  0  0  0  0  0  0  0  0  0  0
   -1.9963   -0.1374    0.1027 H   0  0  0  0  0  0  0  0  0  0  0  0
    0.0000    0.0000    0.0000 C   0  0  0  0  0  0  0  0  0  0  0  0
    1.1271   -0.5120   -0.0000 O   0  0  0  0  0  0  0  0  0  0  0  0
   -0.2087    1.5107   -0.0159 C   0  0  0  0  0  0  0  0  0  0  0  0
   -0.9286    1.7365    0.6518 H   0  0  0  0  0  0  0  0  0  0  0  0
    0.7061    2.0311    0.2679 H   0  0  0  0  0  0  0  0  0  0  0  0
   -0.5402    1.7996   -1.0132 H   0  0  0  0  0  0  0  0  0  0  0  0
  1  5  1  0
  5  6  1  0
  5  9  2  0
  1  2  1  0
  1  3  1  0
  1  4  1  0
  6  7  1  0
  6  8  1  0
 10 14  1  0
 14 16  1  0
 16 17  2  0
 16 18  1  0
 10 11  1  0
 10 12  1  0
 10 13  1  0
 14 15  1  0
 18 19  1  0
 18 20  1  0
 18 21  1  0
M  END
>  <PDB_ID>  (876) 
pdb5xc3

>  <RESIDUE_NAME>  (876) 
GLN   THR

>  <FRAG_NAME>  (876) 
ACEM   NMA

>  <FRAG_ATOM_NUM>  (876) 
fragi: 9  fragj: 12

>  <atom.prop.CHAIN_ID>  (876) 
A A A A A A A A A Z Z Z Z Z Z Z Z Z Z Z Z

>  <atom.prop.IS_HEAVY_ATOM>  (876) 
1 0 0 0 1 1 0 0 1 1 0 0 0 1 0 1 1 1 0 0 0

>  <DIFUSE_FUNC_ATOM>  (876) 
n/a

>  <FINAL_SINGLE_POINT_ENERGY>  (876) 
0

>  <NONCOV_INTER_ENERGY_QM>  (876) 
0

>  <FF_Energy>  (876) 
10.86

>  <QM_Energy>  (876) 
32.21

>  <source>  (876) 
ACEM_nNMA_66

>  <Index>  (876) 
12433

$$$$
ACEM-pdb5xc7-A-ASN-279:NMA-pdb5xc7-A-LEU-216
     RDKit          3D

 21 19  0  0  0  0  0  0  0  0999 V2000
   -5.7275    0.9456   -1.2789 C   0  0  0  0  0  0  0  0  0  0  0  0
   -5.8163    1.8638   -1.6629 H   0  0  0  0  0  0  0  0  0  0  0  0
   -6.5106    0.7480   -0.6919 H   0  0  0  0  0  0  0  0  0  0  0  0
   -5.7402    0.2343   -2.1048 H   0  0  0  0  0  0  0  0  0  0  0  0
   -4.4772    0.8640   -0.4789 C   0  0  0  0  0  0  0  0  0  0  0  0
   -3.3839    0.4881   -1.1345 N   0  0  0  0  0  0  0  0  0  0  0  0
   -3.4283    0.2848   -2.1121 H   0  0  0  0  0  0  0  0  0  0  0  0
   -2.5123    0.4098   -0.6488 H   0  0  0  0  0  0  0  0  0  0  0  0
   -4.4714    1.1440    0.7167 O   0  0  0  0  0  0  0  0  0  0  0  0
   -1.1095   -2.1713   -0.1262 C   0  0  0  0  0  0  0  0  0  0  0  0
   -0.2334   -2.5178    0.1886 H   0  0  0  0  0  0  0  0  0  0  0  0
   -1.2240   -2.4111   -1.1833 H   0  0  0  0  0  0  0  0  0  0  0  0
   -1.8950   -2.6265    0.4769 H   0  0  0  0  0  0  0  0  0  0  0  0
   -1.1195   -0.7157    0.0000 N   0  0  0  0  0  0  0  0  0  0  0  0
   -1.9926   -0.1581    0.0962 H   0  0  0  0  0  0  0  0  0  0  0  0
    0.0000    0.0000    0.0000 C   0  0  0  0  0  0  0  0  0  0  0  0
    1.1195   -0.5147    0.0000 O   0  0  0  0  0  0  0  0  0  0  0  0
   -0.1767    1.5160    0.0325 C   0  0  0  0  0  0  0  0  0  0  0  0
   -0.9762    1.7284    0.6015 H   0  0  0  0  0  0  0  0  0  0  0  0
    0.7007    1.9920    0.4702 H   0  0  0  0  0  0  0  0  0  0  0  0
   -0.3477    1.8971   -0.9742 H   0  0  0  0  0  0  0  0  0  0  0  0
  1  5  1  0
  5  6  1  0
  5  9  2  0
  1  2  1  0
  1  3  1  0
  1  4  1  0
  6  7  1  0
  6  8  1  0
 10 14  1  0
 14 16  1  0
 16 17  2  0
 16 18  1  0
 10 11  1  0
 10 12  1  0
 10 13  1  0
 14 15  1  0
 18 19  1  0
 18 20  1  0
 18 21  1  0
M  END
>  <PDB_ID>  (877) 
pdb5xc7

>  <RESIDUE_NAME>  (877) 
ASN   LEU

>  <FRAG_NAME>  (877) 
ACEM   NMA

>  <FRAG_ATOM_NUM>  (877) 
fragi: 9  fragj: 12

>  <atom.prop.CHAIN_ID>  (877) 
A A A A A A A A A Z Z Z Z Z Z Z Z Z Z Z Z

>  <atom.prop.IS_HEAVY_ATOM>  (877) 
1 0 0 0 1 1 0 0 1 1 0 0 0 1 0 1 1 1 0 0 0

>  <DIFUSE_FUNC_ATOM>  (877) 
n/a

>  <FINAL_SINGLE_POINT_ENERGY>  (877) 
0

>  <NONCOV_INTER_ENERGY_QM>  (877) 
0

>  <FF_Energy>  (877) 
6.6

>  <QM_Energy>  (877) 
20.19

>  <source>  (877) 
ACEM_nNMA_66

>  <Index>  (877) 
12566

$$$$
ACEM-pdb5xi0-B-ASN-109:NMA-pdb5xi0-B-PHE-74
     RDKit          3D

 21 19  0  0  0  0  0  0  0  0999 V2000
   -5.6193    1.8782    0.6937 C   0  0  0  0  0  0  0  0  0  0  0  0
   -5.9416    1.5477    1.5796 H   0  0  0  0  0  0  0  0  0  0  0  0
   -6.3972    2.0063    0.0796 H   0  0  0  0  0  0  0  0  0  0  0  0
   -5.1461    2.8480    0.8472 H   0  0  0  0  0  0  0  0  0  0  0  0
   -4.6881    0.8798    0.1056 C   0  0  0  0  0  0  0  0  0  0  0  0
   -3.3950    1.1954    0.1135 N   0  0  0  0  0  0  0  0  0  0  0  0
   -3.0969    2.0650    0.5078 H   0  0  0  0  0  0  0  0  0  0  0  0
   -2.7235    0.5647   -0.2735 H   0  0  0  0  0  0  0  0  0  0  0  0
   -5.1158   -0.1757   -0.3477 O   0  0  0  0  0  0  0  0  0  0  0  0
   -1.1713   -2.1496    0.1385 C   0  0  0  0  0  0  0  0  0  0  0  0
   -0.2656   -2.5389   -0.0280 H   0  0  0  0  0  0  0  0  0  0  0  0
   -1.8785   -2.5508   -0.5875 H   0  0  0  0  0  0  0  0  0  0  0  0
   -1.4487   -2.4490    1.1492 H   0  0  0  0  0  0  0  0  0  0  0  0
   -1.1263   -0.7074    0.0000 N   0  0  0  0  0  0  0  0  0  0  0  0
   -1.9943   -0.1178   -0.1110 H   0  0  0  0  0  0  0  0  0  0  0  0
    0.0000    0.0000    0.0000 C   0  0  0  0  0  0  0  0  0  0  0  0
    1.1263   -0.5138   -0.0000 O   0  0  0  0  0  0  0  0  0  0  0  0
   -0.1790    1.5211   -0.0201 C   0  0  0  0  0  0  0  0  0  0  0  0
   -1.1445    1.6952   -0.2013 H   0  0  0  0  0  0  0  0  0  0  0  0
    0.0343    1.9151    0.9736 H   0  0  0  0  0  0  0  0  0  0  0  0
    0.4428    1.9791   -0.7894 H   0  0  0  0  0  0  0  0  0  0  0  0
  1  5  1  0
  5  6  1  0
  5  9  2  0
  1  2  1  0
  1  3  1  0
  1  4  1  0
  6  7  1  0
  6  8  1  0
 10 14  1  0
 14 16  1  0
 16 17  2  0
 16 18  1  0
 10 11  1  0
 10 12  1  0
 10 13  1  0
 14 15  1  0
 18 19  1  0
 18 20  1  0
 18 21  1  0
M  END
>  <PDB_ID>  (878) 
pdb5xi0

>  <RESIDUE_NAME>  (878) 
ASN   PHE

>  <FRAG_NAME>  (878) 
ACEM   NMA

>  <FRAG_ATOM_NUM>  (878) 
fragi: 9  fragj: 12

>  <atom.prop.CHAIN_ID>  (878) 
A A A A A A A A A Z Z Z Z Z Z Z Z Z Z Z Z

>  <atom.prop.IS_HEAVY_ATOM>  (878) 
1 0 0 0 1 1 0 0 1 1 0 0 0 1 0 1 1 1 0 0 0

>  <DIFUSE_FUNC_ATOM>  (878) 
n/a

>  <FINAL_SINGLE_POINT_ENERGY>  (878) 
0

>  <NONCOV_INTER_ENERGY_QM>  (878) 
0

>  <FF_Energy>  (878) 
12.95

>  <QM_Energy>  (878) 
24.77

>  <source>  (878) 
ACEM_nNMA_66

>  <Index>  (878) 
17001

$$$$
ACEM-pdb5xm6-B-ASN-175:NMA-pdb5xm6-B-GLY-195
     RDKit          3D

 21 19  0  0  0  0  0  0  0  0999 V2000
   -5.3726    0.7466   -2.6463 C   0  0  0  0  0  0  0  0  0  0  0  0
   -5.4003    1.4339   -3.3686 H   0  0  0  0  0  0  0  0  0  0  0  0
   -5.7848    1.1128   -1.8139 H   0  0  0  0  0  0  0  0  0  0  0  0
   -5.9630   -0.1109   -2.9689 H   0  0  0  0  0  0  0  0  0  0  0  0
   -3.9130    0.4084   -2.3563 C   0  0  0  0  0  0  0  0  0  0  0  0
   -3.6492   -0.1088   -1.1626 N   0  0  0  0  0  0  0  0  0  0  0  0
   -4.3967   -0.2623   -0.5111 H   0  0  0  0  0  0  0  0  0  0  0  0
   -2.7125   -0.3458   -0.9118 H   0  0  0  0  0  0  0  0  0  0  0  0
   -3.0393    0.5691   -3.2128 O   0  0  0  0  0  0  0  0  0  0  0  0
   -1.0906   -2.1375    0.2058 C   0  0  0  0  0  0  0  0  0  0  0  0
   -0.2761   -2.3477    0.7614 H   0  0  0  0  0  0  0  0  0  0  0  0
   -0.9679   -2.6704   -0.7372 H   0  0  0  0  0  0  0  0  0  0  0  0
   -2.0194   -2.4463    0.6855 H   0  0  0  0  0  0  0  0  0  0  0  0
   -1.1145   -0.7083   -0.0000 N   0  0  0  0  0  0  0  0  0  0  0  0
   -1.9822   -0.1609   -0.1568 H   0  0  0  0  0  0  0  0  0  0  0  0
    0.0000    0.0000    0.0000 C   0  0  0  0  0  0  0  0  0  0  0  0
    1.1145   -0.5059   -0.0000 O   0  0  0  0  0  0  0  0  0  0  0  0
   -0.1829    1.4924   -0.0617 C   0  0  0  0  0  0  0  0  0  0  0  0
    0.5968    1.9444    0.3482 H   0  0  0  0  0  0  0  0  0  0  0  0
   -1.0223    1.7479    0.3967 H   0  0  0  0  0  0  0  0  0  0  0  0
   -0.2445    1.7413   -1.1211 H   0  0  0  0  0  0  0  0  0  0  0  0
  1  5  1  0
  5  6  1  0
  5  9  2  0
  1  2  1  0
  1  3  1  0
  1  4  1  0
  6  7  1  0
  6  8  1  0
 10 14  1  0
 14 16  1  0
 16 17  2  0
 16 18  1  0
 10 11  1  0
 10 12  1  0
 10 13  1  0
 14 15  1  0
 18 19  1  0
 18 20  1  0
 18 21  1  0
M  END
>  <PDB_ID>  (879) 
pdb5xm6

>  <RESIDUE_NAME>  (879) 
ASN   GLY

>  <FRAG_NAME>  (879) 
ACEM   NMA

>  <FRAG_ATOM_NUM>  (879) 
fragi: 9  fragj: 12

>  <atom.prop.CHAIN_ID>  (879) 
A A A A A A A A A Z Z Z Z Z Z Z Z Z Z Z Z

>  <atom.prop.IS_HEAVY_ATOM>  (879) 
1 0 0 0 1 1 0 0 1 1 0 0 0 1 0 1 1 1 0 0 0

>  <DIFUSE_FUNC_ATOM>  (879) 
n/a

>  <FINAL_SINGLE_POINT_ENERGY>  (879) 
0

>  <NONCOV_INTER_ENERGY_QM>  (879) 
0

>  <FF_Energy>  (879) 
6.26

>  <QM_Energy>  (879) 
20.5

>  <source>  (879) 
ACEM_nNMA_66

>  <Index>  (879) 
19763

$$$$
ACEM-pdb5y1d-B-GLN-126:NMA-pdb5y1d-B-TYR-233
     RDKit          3D

 21 19  0  0  0  0  0  0  0  0999 V2000
   -5.5695    1.0919    1.2378 C   0  0  0  0  0  0  0  0  0  0  0  0
   -5.8316    1.7792    0.5579 H   0  0  0  0  0  0  0  0  0  0  0  0
   -5.6214    1.4975    2.1526 H   0  0  0  0  0  0  0  0  0  0  0  0
   -6.2882    0.2739    1.1880 H   0  0  0  0  0  0  0  0  0  0  0  0
   -4.1401    0.6615    0.9725 C   0  0  0  0  0  0  0  0  0  0  0  0
   -3.9523   -0.1729   -0.0490 N   0  0  0  0  0  0  0  0  0  0  0  0
   -3.0205   -0.4931   -0.2950 H   0  0  0  0  0  0  0  0  0  0  0  0
   -4.7622   -0.4845   -0.5813 H   0  0  0  0  0  0  0  0  0  0  0  0
   -3.2045    1.0795    1.6884 O   0  0  0  0  0  0  0  0  0  0  0  0
   -1.0739   -2.1634   -0.2423 C   0  0  0  0  0  0  0  0  0  0  0  0
   -0.4442   -2.5600    0.4123 H   0  0  0  0  0  0  0  0  0  0  0  0
   -0.6381   -2.2943   -1.2328 H   0  0  0  0  0  0  0  0  0  0  0  0
   -2.0754   -2.5937   -0.2527 H   0  0  0  0  0  0  0  0  0  0  0  0
   -1.1078   -0.7318   -0.0000 N   0  0  0  0  0  0  0  0  0  0  0  0
   -1.9818   -0.1999    0.1847 H   0  0  0  0  0  0  0  0  0  0  0  0
    0.0000    0.0000    0.0000 C   0  0  0  0  0  0  0  0  0  0  0  0
    1.1078   -0.4942    0.0000 O   0  0  0  0  0  0  0  0  0  0  0  0
   -0.1685    1.5270   -0.1090 C   0  0  0  0  0  0  0  0  0  0  0  0
   -1.1601    1.7243   -0.0846 H   0  0  0  0  0  0  0  0  0  0  0  0
    0.3152    2.0551    0.7128 H   0  0  0  0  0  0  0  0  0  0  0  0
    0.2288    1.8379   -1.0753 H   0  0  0  0  0  0  0  0  0  0  0  0
  1  5  1  0
  5  6  1  0
  5  9  2  0
  1  2  1  0
  1  3  1  0
  1  4  1  0
  6  7  1  0
  6  8  1  0
 10 14  1  0
 14 16  1  0
 16 17  2  0
 16 18  1  0
 10 11  1  0
 10 12  1  0
 10 13  1  0
 14 15  1  0
 18 19  1  0
 18 20  1  0
 18 21  1  0
M  END
>  <PDB_ID>  (880) 
pdb5y1d

>  <RESIDUE_NAME>  (880) 
GLN   TYR

>  <FRAG_NAME>  (880) 
ACEM   NMA

>  <FRAG_ATOM_NUM>  (880) 
fragi: 9  fragj: 12

>  <atom.prop.CHAIN_ID>  (880) 
A A A A A A A A A Z Z Z Z Z Z Z Z Z Z Z Z

>  <atom.prop.IS_HEAVY_ATOM>  (880) 
1 0 0 0 1 1 0 0 1 1 0 0 0 1 0 1 1 1 0 0 0

>  <DIFUSE_FUNC_ATOM>  (880) 
n/a

>  <FINAL_SINGLE_POINT_ENERGY>  (880) 
0

>  <NONCOV_INTER_ENERGY_QM>  (880) 
0

>  <FF_Energy>  (880) 
-0.26

>  <QM_Energy>  (880) 
12.02

>  <source>  (880) 
ACEM_nNMA_66

>  <Index>  (880) 
26011

$$$$
ACEM-pdb5ymu-A-GLN-26:NMA-pdb5ymu-A-PRO-23
     RDKit          3D

 21 19  0  0  0  0  0  0  0  0999 V2000
   -5.6389    1.6887   -0.9694 C   0  0  0  0  0  0  0  0  0  0  0  0
   -6.0607    2.4704   -0.5120 H   0  0  0  0  0  0  0  0  0  0  0  0
   -6.3043    0.9474   -1.0467 H   0  0  0  0  0  0  0  0  0  0  0  0
   -5.3391    1.9927   -1.9723 H   0  0  0  0  0  0  0  0  0  0  0  0
   -4.4699    1.2050   -0.1222 C   0  0  0  0  0  0  0  0  0  0  0  0
   -3.3827    0.8188   -0.7783 N   0  0  0  0  0  0  0  0  0  0  0  0
   -2.5596    0.4973   -0.2793 H   0  0  0  0  0  0  0  0  0  0  0  0
   -3.3875    0.8491   -1.7971 H   0  0  0  0  0  0  0  0  0  0  0  0
   -4.5500    1.1710    1.1052 O   0  0  0  0  0  0  0  0  0  0  0  0
   -1.1330   -2.1246   -0.3305 C   0  0  0  0  0  0  0  0  0  0  0  0
   -0.2078   -2.4851   -0.2285 H   0  0  0  0  0  0  0  0  0  0  0  0
   -1.4313   -2.2354   -1.3730 H   0  0  0  0  0  0  0  0  0  0  0  0
   -1.8005   -2.6922    0.3179 H   0  0  0  0  0  0  0  0  0  0  0  0
   -1.1243   -0.7079   -0.0000 N   0  0  0  0  0  0  0  0  0  0  0  0
   -1.9776   -0.1716    0.2513 H   0  0  0  0  0  0  0  0  0  0  0  0
    0.0000    0.0000    0.0000 C   0  0  0  0  0  0  0  0  0  0  0  0
    1.1243   -0.5058   -0.0000 O   0  0  0  0  0  0  0  0  0  0  0  0
   -0.1692    1.5136   -0.0036 C   0  0  0  0  0  0  0  0  0  0  0  0
   -1.0022    1.7813    0.5198 H   0  0  0  0  0  0  0  0  0  0  0  0
    0.7009    2.0548    0.3681 H   0  0  0  0  0  0  0  0  0  0  0  0
   -0.2626    1.8696   -1.0296 H   0  0  0  0  0  0  0  0  0  0  0  0
  1  5  1  0
  5  6  1  0
  5  9  2  0
  1  2  1  0
  1  3  1  0
  1  4  1  0
  6  7  1  0
  6  8  1  0
 10 14  1  0
 14 16  1  0
 16 17  2  0
 16 18  1  0
 10 11  1  0
 10 12  1  0
 10 13  1  0
 14 15  1  0
 18 19  1  0
 18 20  1  0
 18 21  1  0
M  END
>  <PDB_ID>  (881) 
pdb5ymu

>  <RESIDUE_NAME>  (881) 
GLN   PRO

>  <FRAG_NAME>  (881) 
ACEM   NMA

>  <FRAG_ATOM_NUM>  (881) 
fragi: 9  fragj: 12

>  <atom.prop.CHAIN_ID>  (881) 
A A A A A A A A A Z Z Z Z Z Z Z Z Z Z Z Z

>  <atom.prop.IS_HEAVY_ATOM>  (881) 
1 0 0 0 1 1 0 0 1 1 0 0 0 1 0 1 1 1 0 0 0

>  <DIFUSE_FUNC_ATOM>  (881) 
n/a

>  <FINAL_SINGLE_POINT_ENERGY>  (881) 
0

>  <NONCOV_INTER_ENERGY_QM>  (881) 
0

>  <FF_Energy>  (881) 
8.86

>  <QM_Energy>  (881) 
22.91

>  <source>  (881) 
ACEM_nNMA_67

>  <Index>  (881) 
3336

$$$$
ACEM-pdb5ykr-A-GLN-335:NMA-pdb5ykr-A-ALA-330
     RDKit          3D

 21 19  0  0  0  0  0  0  0  0999 V2000
   -4.7771   -0.0841    3.4232 C   0  0  0  0  0  0  0  0  0  0  0  0
   -5.6283    0.3812    3.5272 H   0  0  0  0  0  0  0  0  0  0  0  0
   -4.1554    0.0713    4.1589 H   0  0  0  0  0  0  0  0  0  0  0  0
   -4.9650   -1.1542    3.3367 H   0  0  0  0  0  0  0  0  0  0  0  0
   -4.1152    0.3948    2.1117 C   0  0  0  0  0  0  0  0  0  0  0  0
   -3.1030   -0.2986    1.6384 N   0  0  0  0  0  0  0  0  0  0  0  0
   -2.6416   -0.0454    0.7853 H   0  0  0  0  0  0  0  0  0  0  0  0
   -2.7824   -1.1204    2.1673 H   0  0  0  0  0  0  0  0  0  0  0  0
   -4.5032    1.4553    1.5750 O   0  0  0  0  0  0  0  0  0  0  0  0
   -1.0618   -2.1600    0.0667 C   0  0  0  0  0  0  0  0  0  0  0  0
   -1.9883   -2.5446   -0.1463 H   0  0  0  0  0  0  0  0  0  0  0  0
   -0.4439   -2.5126   -0.6723 H   0  0  0  0  0  0  0  0  0  0  0  0
   -0.7269   -2.5526    1.0268 H   0  0  0  0  0  0  0  0  0  0  0  0
   -1.1141   -0.7282    0.0000 N   0  0  0  0  0  0  0  0  0  0  0  0
   -1.9913   -0.1753   -0.0511 H   0  0  0  0  0  0  0  0  0  0  0  0
    0.0000    0.0000    0.0000 C   0  0  0  0  0  0  0  0  0  0  0  0
    1.1141   -0.4910    0.0000 O   0  0  0  0  0  0  0  0  0  0  0  0
   -0.1974    1.5151   -0.1081 C   0  0  0  0  0  0  0  0  0  0  0  0
   -1.1543    1.7295    0.1407 H   0  0  0  0  0  0  0  0  0  0  0  0
    0.4695    2.0656    0.5553 H   0  0  0  0  0  0  0  0  0  0  0  0
   -0.0219    1.8346   -1.1354 H   0  0  0  0  0  0  0  0  0  0  0  0
  1  5  1  0
  5  6  1  0
  5  9  2  0
  1  2  1  0
  1  3  1  0
  1  4  1  0
  6  7  1  0
  6  8  1  0
 10 14  1  0
 14 16  1  0
 16 17  2  0
 16 18  1  0
 10 11  1  0
 10 12  1  0
 10 13  1  0
 14 15  1  0
 18 19  1  0
 18 20  1  0
 18 21  1  0
M  END
>  <PDB_ID>  (882) 
pdb5ykr

>  <RESIDUE_NAME>  (882) 
GLN   ALA

>  <FRAG_NAME>  (882) 
ACEM   NMA

>  <FRAG_ATOM_NUM>  (882) 
fragi: 9  fragj: 12

>  <atom.prop.CHAIN_ID>  (882) 
A A A A A A A A A Z Z Z Z Z Z Z Z Z Z Z Z

>  <atom.prop.IS_HEAVY_ATOM>  (882) 
1 0 0 0 1 1 0 0 1 1 0 0 0 1 0 1 1 1 0 0 0

>  <DIFUSE_FUNC_ATOM>  (882) 
n/a

>  <FINAL_SINGLE_POINT_ENERGY>  (882) 
0

>  <NONCOV_INTER_ENERGY_QM>  (882) 
0

>  <FF_Energy>  (882) 
13.78

>  <QM_Energy>  (882) 
25.11

>  <source>  (882) 
ACEM_nNMA_67

>  <Index>  (882) 
3819

$$$$
ACEM-pdb5ymu-B-GLN-26:NMA-pdb5ymu-B-PRO-23
     RDKit          3D

 21 19  0  0  0  0  0  0  0  0999 V2000
   -5.6383    1.6305   -0.6831 C   0  0  0  0  0  0  0  0  0  0  0  0
   -5.9531    2.4404   -0.1868 H   0  0  0  0  0  0  0  0  0  0  0  0
   -6.3598    0.9380   -0.6822 H   0  0  0  0  0  0  0  0  0  0  0  0
   -5.4383    1.9166   -1.7157 H   0  0  0  0  0  0  0  0  0  0  0  0
   -4.4191    1.0663    0.0298 C   0  0  0  0  0  0  0  0  0  0  0  0
   -3.3581    0.8042   -0.7282 N   0  0  0  0  0  0  0  0  0  0  0  0
   -2.5040    0.4389   -0.3200 H   0  0  0  0  0  0  0  0  0  0  0  0
   -3.4171    0.9762   -1.7306 H   0  0  0  0  0  0  0  0  0  0  0  0
   -4.4334    0.8633    1.2418 O   0  0  0  0  0  0  0  0  0  0  0  0
   -1.1285   -2.1325   -0.2889 C   0  0  0  0  0  0  0  0  0  0  0  0
   -0.2033   -2.4889   -0.1849 H   0  0  0  0  0  0  0  0  0  0  0  0
   -1.4319   -2.2649   -1.3275 H   0  0  0  0  0  0  0  0  0  0  0  0
   -1.7980   -2.6778    0.3763 H   0  0  0  0  0  0  0  0  0  0  0  0
   -1.1219   -0.7100   -0.0000 N   0  0  0  0  0  0  0  0  0  0  0  0
   -1.9803   -0.1648    0.2218 H   0  0  0  0  0  0  0  0  0  0  0  0
    0.0000    0.0000    0.0000 C   0  0  0  0  0  0  0  0  0  0  0  0
    1.1219   -0.5058    0.0000 O   0  0  0  0  0  0  0  0  0  0  0  0
   -0.1853    1.5126   -0.0006 C   0  0  0  0  0  0  0  0  0  0  0  0
   -1.0003    1.7725    0.5587 H   0  0  0  0  0  0  0  0  0  0  0  0
    0.6899    2.0731    0.3280 H   0  0  0  0  0  0  0  0  0  0  0  0
   -0.3371    1.8621   -1.0218 H   0  0  0  0  0  0  0  0  0  0  0  0
  1  5  1  0
  5  6  1  0
  5  9  2  0
  1  2  1  0
  1  3  1  0
  1  4  1  0
  6  7  1  0
  6  8  1  0
 10 14  1  0
 14 16  1  0
 16 17  2  0
 16 18  1  0
 10 11  1  0
 10 12  1  0
 10 13  1  0
 14 15  1  0
 18 19  1  0
 18 20  1  0
 18 21  1  0
M  END
>  <PDB_ID>  (883) 
pdb5ymu

>  <RESIDUE_NAME>  (883) 
GLN   PRO

>  <FRAG_NAME>  (883) 
ACEM   NMA

>  <FRAG_ATOM_NUM>  (883) 
fragi: 9  fragj: 12

>  <atom.prop.CHAIN_ID>  (883) 
A A A A A A A A A Z Z Z Z Z Z Z Z Z Z Z Z

>  <atom.prop.IS_HEAVY_ATOM>  (883) 
1 0 0 0 1 1 0 0 1 1 0 0 0 1 0 1 1 1 0 0 0

>  <DIFUSE_FUNC_ATOM>  (883) 
n/a

>  <FINAL_SINGLE_POINT_ENERGY>  (883) 
0

>  <NONCOV_INTER_ENERGY_QM>  (883) 
0

>  <FF_Energy>  (883) 
10.64

>  <QM_Energy>  (883) 
28.4

>  <source>  (883) 
ACEM_nNMA_67

>  <Index>  (883) 
3843

$$$$
ACEM-pdb5ym0-A-ASN-549:NMA-pdb5ym0-A-LEU-458
     RDKit          3D

 21 19  0  0  0  0  0  0  0  0999 V2000
   -5.1154    2.1877    0.7685 C   0  0  0  0  0  0  0  0  0  0  0  0
   -6.1067    2.0837    0.7567 H   0  0  0  0  0  0  0  0  0  0  0  0
   -4.8636    3.0962    0.4424 H   0  0  0  0  0  0  0  0  0  0  0  0
   -4.7716    2.0855    1.7978 H   0  0  0  0  0  0  0  0  0  0  0  0
   -4.5091    1.1543   -0.1585 C   0  0  0  0  0  0  0  0  0  0  0  0
   -3.4878    0.4520    0.3260 N   0  0  0  0  0  0  0  0  0  0  0  0
   -3.1661    0.6189    1.2586 H   0  0  0  0  0  0  0  0  0  0  0  0
   -3.0430   -0.2403   -0.2404 H   0  0  0  0  0  0  0  0  0  0  0  0
   -4.9519    0.9863   -1.2850 O   0  0  0  0  0  0  0  0  0  0  0  0
   -1.1421   -2.1339    0.3638 C   0  0  0  0  0  0  0  0  0  0  0  0
   -0.2369   -2.3780    0.7204 H   0  0  0  0  0  0  0  0  0  0  0  0
   -1.3318   -2.7406   -0.5215 H   0  0  0  0  0  0  0  0  0  0  0  0
   -1.8959   -2.3372    1.1245 H   0  0  0  0  0  0  0  0  0  0  0  0
   -1.1221   -0.7198    0.0000 N   0  0  0  0  0  0  0  0  0  0  0  0
   -1.9747   -0.1895   -0.2795 H   0  0  0  0  0  0  0  0  0  0  0  0
    0.0000    0.0000    0.0000 C   0  0  0  0  0  0  0  0  0  0  0  0
    1.1221   -0.5132   -0.0000 O   0  0  0  0  0  0  0  0  0  0  0  0
   -0.1408    1.5188    0.0167 C   0  0  0  0  0  0  0  0  0  0  0  0
   -1.0947    1.7488   -0.1029 H   0  0  0  0  0  0  0  0  0  0  0  0
    0.1799    1.8444    1.0063 H   0  0  0  0  0  0  0  0  0  0  0  0
    0.4712    1.9736   -0.7623 H   0  0  0  0  0  0  0  0  0  0  0  0
  1  5  1  0
  5  6  1  0
  5  9  2  0
  1  2  1  0
  1  3  1  0
  1  4  1  0
  6  7  1  0
  6  8  1  0
 10 14  1  0
 14 16  1  0
 16 17  2  0
 16 18  1  0
 10 11  1  0
 10 12  1  0
 10 13  1  0
 14 15  1  0
 18 19  1  0
 18 20  1  0
 18 21  1  0
M  END
>  <PDB_ID>  (884) 
pdb5ym0

>  <RESIDUE_NAME>  (884) 
ASN   LEU

>  <FRAG_NAME>  (884) 
ACEM   NMA

>  <FRAG_ATOM_NUM>  (884) 
fragi: 9  fragj: 12

>  <atom.prop.CHAIN_ID>  (884) 
A A A A A A A A A Z Z Z Z Z Z Z Z Z Z Z Z

>  <atom.prop.IS_HEAVY_ATOM>  (884) 
1 0 0 0 1 1 0 0 1 1 0 0 0 1 0 1 1 1 0 0 0

>  <DIFUSE_FUNC_ATOM>  (884) 
n/a

>  <FINAL_SINGLE_POINT_ENERGY>  (884) 
0

>  <NONCOV_INTER_ENERGY_QM>  (884) 
0

>  <FF_Energy>  (884) 
11.35

>  <QM_Energy>  (884) 
24.71

>  <source>  (884) 
ACEM_nNMA_67

>  <Index>  (884) 
4128

$$$$
ACEM-pdb5ypv-A-ASN-241:NMA-pdb5ypv-A-HIE-100
     RDKit          3D

 21 19  0  0  0  0  0  0  0  0999 V2000
   -6.1595    0.1560   -0.0161 C   0  0  0  0  0  0  0  0  0  0  0  0
   -6.4163   -0.7122    0.4178 H   0  0  0  0  0  0  0  0  0  0  0  0
   -6.2193    0.0517   -1.0129 H   0  0  0  0  0  0  0  0  0  0  0  0
   -6.8853    0.9108    0.2866 H   0  0  0  0  0  0  0  0  0  0  0  0
   -4.7381    0.4821    0.3542 C   0  0  0  0  0  0  0  0  0  0  0  0
   -3.8224   -0.4848    0.3076 N   0  0  0  0  0  0  0  0  0  0  0  0
   -4.1276   -1.4033    0.0168 H   0  0  0  0  0  0  0  0  0  0  0  0
   -2.8850   -0.3108    0.5475 H   0  0  0  0  0  0  0  0  0  0  0  0
   -4.4936    1.5905    0.7937 O   0  0  0  0  0  0  0  0  0  0  0  0
   -1.1989   -2.1821   -0.1236 C   0  0  0  0  0  0  0  0  0  0  0  0
   -2.1698   -2.4399   -0.1288 H   0  0  0  0  0  0  0  0  0  0  0  0
   -0.7239   -2.6749    0.7247 H   0  0  0  0  0  0  0  0  0  0  0  0
   -0.7822   -2.4814   -1.0852 H   0  0  0  0  0  0  0  0  0  0  0  0
   -1.1269   -0.7075    0.0000 N   0  0  0  0  0  0  0  0  0  0  0  0
   -1.9987   -0.1187    0.0984 H   0  0  0  0  0  0  0  0  0  0  0  0
    0.0000    0.0000    0.0000 C   0  0  0  0  0  0  0  0  0  0  0  0
    1.1269   -0.5065   -0.0000 O   0  0  0  0  0  0  0  0  0  0  0  0
   -0.1739    1.5203    0.0340 C   0  0  0  0  0  0  0  0  0  0  0  0
   -1.1253    1.7316   -0.1843 H   0  0  0  0  0  0  0  0  0  0  0  0
    0.0400    1.8828    1.0395 H   0  0  0  0  0  0  0  0  0  0  0  0
    0.4855    2.0198   -0.6758 H   0  0  0  0  0  0  0  0  0  0  0  0
  1  5  1  0
  5  6  1  0
  5  9  2  0
  1  2  1  0
  1  3  1  0
  1  4  1  0
  6  7  1  0
  6  8  1  0
 10 14  1  0
 14 16  1  0
 16 17  2  0
 16 18  1  0
 10 11  1  0
 10 12  1  0
 10 13  1  0
 14 15  1  0
 18 19  1  0
 18 20  1  0
 18 21  1  0
M  END
>  <PDB_ID>  (885) 
pdb5ypv

>  <RESIDUE_NAME>  (885) 
ASN   HIE

>  <FRAG_NAME>  (885) 
ACEM   NMA

>  <FRAG_ATOM_NUM>  (885) 
fragi: 9  fragj: 12

>  <atom.prop.CHAIN_ID>  (885) 
A A A A A A A A A Z Z Z Z Z Z Z Z Z Z Z Z

>  <atom.prop.IS_HEAVY_ATOM>  (885) 
1 0 0 0 1 1 0 0 1 1 0 0 0 1 0 1 1 1 0 0 0

>  <DIFUSE_FUNC_ATOM>  (885) 
n/a

>  <FINAL_SINGLE_POINT_ENERGY>  (885) 
0

>  <NONCOV_INTER_ENERGY_QM>  (885) 
0

>  <FF_Energy>  (885) 
9.13

>  <QM_Energy>  (885) 
26.44

>  <source>  (885) 
ACEM_nNMA_67

>  <Index>  (885) 
4632

$$$$
ACEM-pdb5yvu-B-ASN-279:NMA-pdb5yvu-B-LEU-216
     RDKit          3D

 21 19  0  0  0  0  0  0  0  0999 V2000
   -5.5339    0.7996   -2.0632 C   0  0  0  0  0  0  0  0  0  0  0  0
   -5.6238    1.7089   -2.4605 H   0  0  0  0  0  0  0  0  0  0  0  0
   -6.3317    0.5921   -1.5032 H   0  0  0  0  0  0  0  0  0  0  0  0
   -5.4868    0.0738   -2.8750 H   0  0  0  0  0  0  0  0  0  0  0  0
   -4.3028    0.7734   -1.1838 C   0  0  0  0  0  0  0  0  0  0  0  0
   -3.5207   -0.2924   -1.2954 N   0  0  0  0  0  0  0  0  0  0  0  0
   -3.7561   -1.0215   -1.9407 H   0  0  0  0  0  0  0  0  0  0  0  0
   -2.6951   -0.3709   -0.7372 H   0  0  0  0  0  0  0  0  0  0  0  0
   -4.0503    1.7066   -0.4213 O   0  0  0  0  0  0  0  0  0  0  0  0
   -1.1076   -2.1675   -0.1242 C   0  0  0  0  0  0  0  0  0  0  0  0
   -0.3285   -2.5309    0.3858 H   0  0  0  0  0  0  0  0  0  0  0  0
   -0.9911   -2.4315   -1.1753 H   0  0  0  0  0  0  0  0  0  0  0  0
   -2.0202   -2.6009    0.2848 H   0  0  0  0  0  0  0  0  0  0  0  0
   -1.1213   -0.7146   -0.0000 N   0  0  0  0  0  0  0  0  0  0  0  0
   -1.9932   -0.1567    0.0942 H   0  0  0  0  0  0  0  0  0  0  0  0
    0.0000    0.0000    0.0000 C   0  0  0  0  0  0  0  0  0  0  0  0
    1.1213   -0.5106    0.0000 O   0  0  0  0  0  0  0  0  0  0  0  0
   -0.1691    1.5154    0.0045 C   0  0  0  0  0  0  0  0  0  0  0  0
   -1.0800    1.7315    0.3842 H   0  0  0  0  0  0  0  0  0  0  0  0
    0.5872    2.0072    0.6163 H   0  0  0  0  0  0  0  0  0  0  0  0
   -0.1352    1.8909   -1.0183 H   0  0  0  0  0  0  0  0  0  0  0  0
  1  5  1  0
  5  6  1  0
  5  9  2  0
  1  2  1  0
  1  3  1  0
  1  4  1  0
  6  7  1  0
  6  8  1  0
 10 14  1  0
 14 16  1  0
 16 17  2  0
 16 18  1  0
 10 11  1  0
 10 12  1  0
 10 13  1  0
 14 15  1  0
 18 19  1  0
 18 20  1  0
 18 21  1  0
M  END
>  <PDB_ID>  (886) 
pdb5yvu

>  <RESIDUE_NAME>  (886) 
ASN   LEU

>  <FRAG_NAME>  (886) 
ACEM   NMA

>  <FRAG_ATOM_NUM>  (886) 
fragi: 9  fragj: 12

>  <atom.prop.CHAIN_ID>  (886) 
A A A A A A A A A Z Z Z Z Z Z Z Z Z Z Z Z

>  <atom.prop.IS_HEAVY_ATOM>  (886) 
1 0 0 0 1 1 0 0 1 1 0 0 0 1 0 1 1 1 0 0 0

>  <DIFUSE_FUNC_ATOM>  (886) 
n/a

>  <FINAL_SINGLE_POINT_ENERGY>  (886) 
0

>  <NONCOV_INTER_ENERGY_QM>  (886) 
0

>  <FF_Energy>  (886) 
3.4

>  <QM_Energy>  (886) 
17.68

>  <source>  (886) 
ACEM_nNMA_67

>  <Index>  (886) 
8560

$$$$
ACEM-pdb5z4y-A-GLN-5:NMA-pdb5z4y-A-MET-1
     RDKit          3D

 21 19  0  0  0  0  0  0  0  0999 V2000
   -5.1897   -0.5621    0.7374 C   0  0  0  0  0  0  0  0  0  0  0  0
   -5.9497   -0.7139    1.3688 H   0  0  0  0  0  0  0  0  0  0  0  0
   -4.6159   -1.3805    0.7039 H   0  0  0  0  0  0  0  0  0  0  0  0
   -5.5952   -0.3801   -0.2579 H   0  0  0  0  0  0  0  0  0  0  0  0
   -4.3527    0.5956    1.2577 C   0  0  0  0  0  0  0  0  0  0  0  0
   -3.0845    0.6555    0.8648 N   0  0  0  0  0  0  0  0  0  0  0  0
   -2.4775    1.4052    1.1620 H   0  0  0  0  0  0  0  0  0  0  0  0
   -2.7299   -0.0806    0.2494 H   0  0  0  0  0  0  0  0  0  0  0  0
   -4.8609    1.4481    1.9803 O   0  0  0  0  0  0  0  0  0  0  0  0
   -1.0709   -2.1493    0.0469 C   0  0  0  0  0  0  0  0  0  0  0  0
   -0.1145   -2.4505    0.0239 H   0  0  0  0  0  0  0  0  0  0  0  0
   -1.5884   -2.5543   -0.8228 H   0  0  0  0  0  0  0  0  0  0  0  0
   -1.4964   -2.5182    0.9802 H   0  0  0  0  0  0  0  0  0  0  0  0
   -1.1157   -0.7041    0.0000 N   0  0  0  0  0  0  0  0  0  0  0  0
   -1.9889   -0.1520   -0.0352 H   0  0  0  0  0  0  0  0  0  0  0  0
    0.0000    0.0000    0.0000 C   0  0  0  0  0  0  0  0  0  0  0  0
    1.1157   -0.5303    0.0000 O   0  0  0  0  0  0  0  0  0  0  0  0
   -0.1732    1.5139    0.0658 C   0  0  0  0  0  0  0  0  0  0  0  0
   -0.9662    1.7088    0.6518 H   0  0  0  0  0  0  0  0  0  0  0  0
    0.7058    1.9801    0.5108 H   0  0  0  0  0  0  0  0  0  0  0  0
   -0.3658    1.9208   -0.9269 H   0  0  0  0  0  0  0  0  0  0  0  0
  1  5  1  0
  5  6  1  0
  5  9  2  0
  1  2  1  0
  1  3  1  0
  1  4  1  0
  6  7  1  0
  6  8  1  0
 10 14  1  0
 14 16  1  0
 16 17  2  0
 16 18  1  0
 10 11  1  0
 10 12  1  0
 10 13  1  0
 14 15  1  0
 18 19  1  0
 18 20  1  0
 18 21  1  0
M  END
>  <PDB_ID>  (887) 
pdb5z4y

>  <RESIDUE_NAME>  (887) 
GLN   MET

>  <FRAG_NAME>  (887) 
ACEM   NMA

>  <FRAG_ATOM_NUM>  (887) 
fragi: 9  fragj: 12

>  <atom.prop.CHAIN_ID>  (887) 
A A A A A A A A A Z Z Z Z Z Z Z Z Z Z Z Z

>  <atom.prop.IS_HEAVY_ATOM>  (887) 
1 0 0 0 1 1 0 0 1 1 0 0 0 1 0 1 1 1 0 0 0

>  <DIFUSE_FUNC_ATOM>  (887) 
n/a

>  <FINAL_SINGLE_POINT_ENERGY>  (887) 
0

>  <NONCOV_INTER_ENERGY_QM>  (887) 
0

>  <FF_Energy>  (887) 
29.97

>  <QM_Energy>  (887) 
63.29

>  <source>  (887) 
ACEM_nNMA_67

>  <Index>  (887) 
11028

$$$$
ACEM-pdb5zi2-B-ASN-121:NMA-pdb5zi2-B-GLY-186
     RDKit          3D

 21 19  0  0  0  0  0  0  0  0999 V2000
   -5.3937    1.7558    0.1844 C   0  0  0  0  0  0  0  0  0  0  0  0
   -6.0741    1.1380   -0.2017 H   0  0  0  0  0  0  0  0  0  0  0  0
   -5.5161    2.6727   -0.1893 H   0  0  0  0  0  0  0  0  0  0  0  0
   -5.5516    1.8048    1.2618 H   0  0  0  0  0  0  0  0  0  0  0  0
   -4.0015    1.2522   -0.2132 C   0  0  0  0  0  0  0  0  0  0  0  0
   -3.1867    0.9056    0.8045 N   0  0  0  0  0  0  0  0  0  0  0  0
   -3.5156    0.9835    1.7414 H   0  0  0  0  0  0  0  0  0  0  0  0
   -2.2687    0.5765    0.6100 H   0  0  0  0  0  0  0  0  0  0  0  0
   -3.6562    1.1539   -1.4059 O   0  0  0  0  0  0  0  0  0  0  0  0
   -1.1368   -2.1624    0.2374 C   0  0  0  0  0  0  0  0  0  0  0  0
   -0.1744   -2.4622    0.3987 H   0  0  0  0  0  0  0  0  0  0  0  0
   -1.5466   -2.7519   -0.5828 H   0  0  0  0  0  0  0  0  0  0  0  0
   -1.7195   -2.3786    1.1329 H   0  0  0  0  0  0  0  0  0  0  0  0
   -1.1180   -0.7068   -0.0000 N   0  0  0  0  0  0  0  0  0  0  0  0
   -1.9860   -0.1570   -0.1808 H   0  0  0  0  0  0  0  0  0  0  0  0
    0.0000    0.0000    0.0000 C   0  0  0  0  0  0  0  0  0  0  0  0
    1.1180   -0.5149    0.0000 O   0  0  0  0  0  0  0  0  0  0  0  0
   -0.1527    1.4981   -0.0823 C   0  0  0  0  0  0  0  0  0  0  0  0
   -0.4524    1.8566    0.7875 H   0  0  0  0  0  0  0  0  0  0  0  0
   -0.7807    1.7350   -0.8062 H   0  0  0  0  0  0  0  0  0  0  0  0
    0.8390    1.8853   -0.3158 H   0  0  0  0  0  0  0  0  0  0  0  0
  1  5  1  0
  5  6  1  0
  5  9  2  0
  1  2  1  0
  1  3  1  0
  1  4  1  0
  6  7  1  0
  6  8  1  0
 10 14  1  0
 14 16  1  0
 16 17  2  0
 16 18  1  0
 10 11  1  0
 10 12  1  0
 10 13  1  0
 14 15  1  0
 18 19  1  0
 18 20  1  0
 18 21  1  0
M  END
>  <PDB_ID>  (888) 
pdb5zi2

>  <RESIDUE_NAME>  (888) 
ASN   GLY

>  <FRAG_NAME>  (888) 
ACEM   NMA

>  <FRAG_ATOM_NUM>  (888) 
fragi: 9  fragj: 12

>  <atom.prop.CHAIN_ID>  (888) 
A A A A A A A A A Z Z Z Z Z Z Z Z Z Z Z Z

>  <atom.prop.IS_HEAVY_ATOM>  (888) 
1 0 0 0 1 1 0 0 1 1 0 0 0 1 0 1 1 1 0 0 0

>  <DIFUSE_FUNC_ATOM>  (888) 
n/a

>  <FINAL_SINGLE_POINT_ENERGY>  (888) 
0

>  <NONCOV_INTER_ENERGY_QM>  (888) 
0

>  <FF_Energy>  (888) 
5.96

>  <QM_Energy>  (888) 
18.67

>  <source>  (888) 
ACEM_nNMA_67

>  <Index>  (888) 
19765

$$$$
