ACEM-pdb2a8c-A-ASN-117:NMA-pdb2a8c-A-ASP-112
     RDKit          3D

 21 19  0  0  0  0  0  0  0  0999 V2000
   -5.7271    0.2312   -1.3542 C   0  0  0  0  0  0  0  0  0  0  0  0
   -5.3888   -0.0012   -2.2617 H   0  0  0  0  0  0  0  0  0  0  0  0
   -6.1577    1.1296   -1.3696 H   0  0  0  0  0  0  0  0  0  0  0  0
   -6.4767   -0.5060   -1.0662 H   0  0  0  0  0  0  0  0  0  0  0  0
   -4.5474    0.2770   -0.3959 C   0  0  0  0  0  0  0  0  0  0  0  0
   -3.3391    0.1199   -0.9334 N   0  0  0  0  0  0  0  0  0  0  0  0
   -3.2502   -0.0130   -1.9219 H   0  0  0  0  0  0  0  0  0  0  0  0
   -2.5267    0.1348   -0.3547 H   0  0  0  0  0  0  0  0  0  0  0  0
   -4.7172    0.4597    0.8076 O   0  0  0  0  0  0  0  0  0  0  0  0
   -1.0731   -2.1719    0.0256 C   0  0  0  0  0  0  0  0  0  0  0  0
   -0.1414   -2.4591    0.3260 H   0  0  0  0  0  0  0  0  0  0  0  0
   -1.2797   -2.6406   -0.9366 H   0  0  0  0  0  0  0  0  0  0  0  0
   -1.7721   -2.5404    0.7764 H   0  0  0  0  0  0  0  0  0  0  0  0
   -1.1169   -0.7164    0.0000 N   0  0  0  0  0  0  0  0  0  0  0  0
   -1.9925   -0.1674   -0.0197 H   0  0  0  0  0  0  0  0  0  0  0  0
    0.0000    0.0000    0.0000 C   0  0  0  0  0  0  0  0  0  0  0  0
    1.1169   -0.5147   -0.0000 O   0  0  0  0  0  0  0  0  0  0  0  0
   -0.1624    1.5186    0.0172 C   0  0  0  0  0  0  0  0  0  0  0  0
   -1.1265    1.7084   -0.0744 H   0  0  0  0  0  0  0  0  0  0  0  0
    0.1392    1.8326    1.0165 H   0  0  0  0  0  0  0  0  0  0  0  0
    0.4843    1.9738   -0.7329 H   0  0  0  0  0  0  0  0  0  0  0  0
  1  5  1  0
  5  6  1  0
  5  9  2  0
  1  2  1  0
  1  3  1  0
  1  4  1  0
  6  7  1  0
  6  8  1  0
 10 14  1  0
 14 16  1  0
 16 17  2  0
 16 18  1  0
 10 11  1  0
 10 12  1  0
 10 13  1  0
 14 15  1  0
 18 19  1  0
 18 20  1  0
 18 21  1  0
M  END
>  <PDB_ID>  (4) 
pdb2a8c

>  <RESIDUE_NAME>  (4) 
ASN   ASP

>  <FRAG_NAME>  (4) 
ACEM   NMA

>  <FRAG_ATOM_NUM>  (4) 
fragi: 9  fragj: 12

>  <atom.prop.CHAIN_ID>  (4) 
A A A A A A A A A Z Z Z Z Z Z Z Z Z Z Z Z

>  <atom.prop.IS_HEAVY_ATOM>  (4) 
1 0 0 0 1 1 0 0 1 1 0 0 0 1 0 1 1 1 0 0 0

>  <DIFUSE_FUNC_ATOM>  (4) 
n/a

>  <FINAL_SINGLE_POINT_ENERGY>  (4) 
0

>  <NONCOV_INTER_ENERGY_QM>  (4) 
0

>  <FF_Energy>  (4) 
29.3

>  <QM_Energy>  (4) 
77.58

>  <source>  (4) 
ACEM_nNMA_00

>  <Index>  (4) 
8372
