ACET-pdb1bu6-O-ASP-398:PRPA-pdb1bu6-O-GLU-283
     RDKit          3D

 18 16  0  0  0  0  0  0  0  0999 V2000
   -0.2092    1.4372    0.2118 C   0  0  0  0  0  0  0  0  0  0  0  0
    0.3806    1.9592   -0.4320 H   0  0  0  0  0  0  0  0  0  0  0  0
    0.0902    1.6840    1.1514 H   0  0  0  0  0  0  0  0  0  0  0  0
   -1.2296    1.7998    0.0875 H   0  0  0  0  0  0  0  0  0  0  0  0
    0.0000    0.0000    0.0000 C   0  0  0  0  0  0  0  0  0  0  0  0
   -1.0890   -0.6602   -0.0000 O   0  0  0  0  0  1  0  0  0  0  0  0
    1.0890   -0.5034   -0.0000 O   0  0  0  0  0  0  0  0  0  0  0  0
   -1.0960   -3.9124    0.3879 C   0  0  0  0  0  0  0  0  0  0  0  0
   -1.1571   -4.8062    0.8629 H   0  0  0  0  0  0  0  0  0  0  0  0
   -0.4320   -3.2447    0.9369 H   0  0  0  0  0  0  0  0  0  0  0  0
   -0.7297   -4.0537   -0.6290 H   0  0  0  0  0  0  0  0  0  0  0  0
   -2.3808   -3.1363    0.1374 C   0  0  0  0  0  0  0  0  0  0  0  0
   -2.1421   -2.2659   -0.2540 H   0  0  0  0  0  0  0  0  0  0  0  0
   -2.9505   -3.6696   -0.4605 H   0  0  0  0  0  0  0  0  0  0  0  0
   -3.1986   -2.8524    1.4061 C   0  0  0  0  0  0  0  0  0  0  0  0
   -2.6330   -3.0412    2.1787 H   0  0  0  0  0  0  0  0  0  0  0  0
   -3.5074   -1.9270    1.3680 H   0  0  0  0  0  0  0  0  0  0  0  0
   -4.0777   -3.4934    1.4727 H   0  0  0  0  0  0  0  0  0  0  0  0
  1  5  1  0
  5  6  1  0
  5  7  2  0
  1  2  1  0
  1  3  1  0
  1  4  1  0
  8 12  1  0
 12 15  1  0
  8  9  1  0
  8 10  1  0
  8 11  1  0
 12 13  1  0
 12 14  1  0
 15 16  1  0
 15 17  1  0
 15 18  1  0
M  CHG  1   6  -1
M  END
>  <PDB_ID>  (114) 
pdb1bu6

>  <RESIDUE_NAME>  (114) 
ASP   GLU

>  <FRAG_NAME>  (114) 
ACET   PRPA

>  <FRAG_ATOM_NUM>  (114) 
fragi: 7  fragj: 11

>  <atom.prop.CHAIN_ID>  (114) 
A A A A A A A Z Z Z Z Z Z Z Z Z Z Z

>  <atom.prop.IS_HEAVY_ATOM>  (114) 
1 0 0 0 1 1 1 1 0 0 0 1 0 0 1 0 0 0

>  <DIFUSE_FUNC_ATOM>  (114) 
atom 6   atom 7   

>  <FINAL_SINGLE_POINT_ENERGY>  (114) 
0

>  <NONCOV_INTER_ENERGY_QM>  (114) 
0

>  <FF_Energy>  (114) 
13.16

>  <QM_Energy>  (114) 
-3.79

>  <source>  (114) 
ACET_PRPA_01

>  <Index>  (114) 
10927