ACEH-pdb3gg9-A-GLH-122:PRPA-pdb3gg9-D-LEU-167
     RDKit          3D

 18 16  0  0  0  0  0  0  0  0999 V2000
    0.0116    1.5048   -0.0263 C   0  0  0  0  0  0  0  0  0  0  0  0
    0.4396    1.7936   -0.8652 H   0  0  0  0  0  0  0  0  0  0  0  0
    0.5063    1.8200    0.7662 H   0  0  0  0  0  0  0  0  0  0  0  0
   -0.9834    1.9487    0.0061 H   0  0  0  0  0  0  0  0  0  0  0  0
    0.0000    0.0000    0.0000 C   0  0  0  0  0  0  0  0  0  0  0  0
   -1.0939   -0.5807    0.0000 O   0  0  0  0  0  0  0  0  0  0  0  0
    1.0939   -0.6177    0.0000 O   0  0  0  0  0  0  0  0  0  0  0  0
    0.9017   -3.9202    0.1318 C   0  0  0  0  0  0  0  0  0  0  0  0
    0.6217   -4.8007   -0.2485 H   0  0  0  0  0  0  0  0  0  0  0  0
    0.0323   -3.4236    0.5625 H   0  0  0  0  0  0  0  0  0  0  0  0
    1.6261   -4.1047    0.9250 H   0  0  0  0  0  0  0  0  0  0  0  0
    1.5140   -3.0247   -0.9504 C   0  0  0  0  0  0  0  0  0  0  0  0
    1.7398   -2.1500   -0.5368 H   0  0  0  0  0  0  0  0  0  0  0  0
    2.3305   -3.4704   -1.2959 H   0  0  0  0  0  0  0  0  0  0  0  0
    0.6097   -2.7267   -2.1708 C   0  0  0  0  0  0  0  0  0  0  0  0
   -0.1893   -2.2431   -1.8556 H   0  0  0  0  0  0  0  0  0  0  0  0
    1.1887   -2.1031   -2.8521 H   0  0  0  0  0  0  0  0  0  0  0  0
    0.3255   -3.6588   -2.6592 H   0  0  0  0  0  0  0  0  0  0  0  0
  1  5  1  0
  5  6  2  0
  5  7  1  0
  1  2  1  0
  1  3  1  0
  1  4  1  0
  8 12  1  0
 12 15  1  0
  8  9  1  0
  8 10  1  0
  8 11  1  0
 12 13  1  0
 12 14  1  0
 15 16  1  0
 15 17  1  0
 15 18  1  0
M  CHG  1   7  -1
V    7 [O&-]
M  END
>  <PDB_ID>  (2159) 
pdb3gg9

>  <RESIDUE_NAME>  (2159) 
GLU   LEU

>  <FRAG_NAME>  (2159) 
ACET   PRPA

>  <FRAG_ATOM_NUM>  (2159) 
fragi: 7 fragj: 11

>  <atom.prop.CHAIN_ID>  (2159) 
A A A A A A A Z Z Z Z Z Z Z Z Z Z Z

>  <atom.prop.IS_HEAVY_ATOM>  (2159) 
1 0 0 0 1 1 1 1 0 0 0 1 0 0 1 0 0 0

>  <DIFUSE_FUNC_ATOM>  (2159) 
n/a

>  <FINAL_SINGLE_POINT_ENERGY>  (2159) 
0

>  <NONCOV_INTER_ENERGY_QM>  (2159) 
0

>  <FF_Energy>  (2159) 
49.83

>  <QM_Energy>  (2159) 
0.18

>  <source>  (2159) 
ACET_PRPA_29

>  <Index>  (2159) 
4101