ACET-pdb1r2m-B-ASP-59:PRPA-pdb1r2m-B-LEU-62
     RDKit          3D

 18 16  0  0  0  0  0  0  0  0999 V2000
   -0.0402    1.5075    0.0748 C   0  0  0  0  0  0  0  0  0  0  0  0
    0.8554    1.8374    0.3719 H   0  0  0  0  0  0  0  0  0  0  0  0
   -0.7335    1.7771    0.7407 H   0  0  0  0  0  0  0  0  0  0  0  0
   -0.2785    1.9868   -0.8746 H   0  0  0  0  0  0  0  0  0  0  0  0
    0.0000    0.0000    0.0000 C   0  0  0  0  0  0  0  0  0  0  0  0
   -1.0678   -0.6348    0.0000 O   0  0  0  0  0  1  0  0  0  0  0  0
    1.0678   -0.6339    0.0000 O   0  0  0  0  0  0  0  0  0  0  0  0
   -2.8084   -0.4125    3.7356 C   0  0  0  0  0  0  0  0  0  0  0  0
   -2.1663   -1.1763    3.5961 H   0  0  0  0  0  0  0  0  0  0  0  0
   -3.5181   -0.4084    2.9083 H   0  0  0  0  0  0  0  0  0  0  0  0
   -3.3232   -0.5514    4.6862 H   0  0  0  0  0  0  0  0  0  0  0  0
   -2.0670    0.9321    3.8417 C   0  0  0  0  0  0  0  0  0  0  0  0
   -2.7179    1.6525    3.5646 H   0  0  0  0  0  0  0  0  0  0  0  0
   -1.8404    1.0705    4.8138 H   0  0  0  0  0  0  0  0  0  0  0  0
   -0.7949    1.1336    3.0418 C   0  0  0  0  0  0  0  0  0  0  0  0
   -0.9807    0.9670    2.0740 H   0  0  0  0  0  0  0  0  0  0  0  0
   -0.4288    2.1532    3.1624 H   0  0  0  0  0  0  0  0  0  0  0  0
   -0.0206    0.4146    3.3090 H   0  0  0  0  0  0  0  0  0  0  0  0
  1  5  1  0
  5  6  1  0
  5  7  2  0
  1  2  1  0
  1  3  1  0
  1  4  1  0
  8 12  1  0
 12 15  1  0
  8  9  1  0
  8 10  1  0
  8 11  1  0
 12 13  1  0
 12 14  1  0
 15 16  1  0
 15 17  1  0
 15 18  1  0
M  CHG  1   6  -1
M  END
>  <PDB_ID>  (1) 
pdb1r2m

>  <RESIDUE_NAME>  (1) 
ASP   LEU

>  <FRAG_NAME>  (1) 
ACET   PRPA

>  <FRAG_ATOM_NUM>  (1) 
fragi: 7  fragj: 11

>  <atom.prop.CHAIN_ID>  (1) 
A A A A A A A Z Z Z Z Z Z Z Z Z Z Z

>  <atom.prop.IS_HEAVY_ATOM>  (1) 
1 0 0 0 1 1 1 1 0 0 0 1 0 0 1 0 0 0

>  <DIFUSE_FUNC_ATOM>  (1) 
atom 6   atom 7   

>  <FINAL_SINGLE_POINT_ENERGY>  (1) 
0

>  <NONCOV_INTER_ENERGY_QM>  (1) 
0

>  <FF_Energy>  (1) 
20.6

>  <QM_Energy>  (1) 
2.44

>  <source>  (1) 
ACET_PRPA_00

>  <Index>  (1) 
421

$$$$
ACET-pdb1r2m-B-ASP-59:PRPA-pdb1r2m-B-LEU-62
     RDKit          3D

 18 16  0  0  0  0  0  0  0  0999 V2000
   -0.0402    1.5075    0.0748 C   0  0  0  0  0  0  0  0  0  0  0  0
    0.8554    1.8374    0.3719 H   0  0  0  0  0  0  0  0  0  0  0  0
   -0.7335    1.7771    0.7407 H   0  0  0  0  0  0  0  0  0  0  0  0
   -0.2785    1.9868   -0.8746 H   0  0  0  0  0  0  0  0  0  0  0  0
    0.0000    0.0000    0.0000 C   0  0  0  0  0  0  0  0  0  0  0  0
   -1.0678   -0.6348    0.0000 O   0  0  0  0  0  1  0  0  0  0  0  0
    1.0678   -0.6339    0.0000 O   0  0  0  0  0  0  0  0  0  0  0  0
   -2.0670    0.9321    3.8417 C   0  0  0  0  0  0  0  0  0  0  0  0
   -2.7179    1.6525    3.5646 H   0  0  0  0  0  0  0  0  0  0  0  0
   -1.8404    1.0705    4.8138 H   0  0  0  0  0  0  0  0  0  0  0  0
   -2.5921   -0.0202    3.7665 H   0  0  0  0  0  0  0  0  0  0  0  0
   -0.7949    1.1336    3.0418 C   0  0  0  0  0  0  0  0  0  0  0  0
   -0.9807    0.9670    2.0740 H   0  0  0  0  0  0  0  0  0  0  0  0
   -0.4288    2.1532    3.1624 H   0  0  0  0  0  0  0  0  0  0  0  0
    0.2814    0.1341    3.4131 C   0  0  0  0  0  0  0  0  0  0  0  0
   -0.0469   -0.7964    3.2401 H   0  0  0  0  0  0  0  0  0  0  0  0
    1.1019    0.3019    2.8636 H   0  0  0  0  0  0  0  0  0  0  0  0
    0.5095    0.2285    4.3846 H   0  0  0  0  0  0  0  0  0  0  0  0
  1  5  1  0
  5  6  1  0
  5  7  2  0
  1  2  1  0
  1  3  1  0
  1  4  1  0
  8 12  1  0
 12 15  1  0
  8  9  1  0
  8 10  1  0
  8 11  1  0
 12 13  1  0
 12 14  1  0
 15 16  1  0
 15 17  1  0
 15 18  1  0
M  CHG  1   6  -1
M  END
>  <PDB_ID>  (2) 
pdb1r2m

>  <RESIDUE_NAME>  (2) 
ASP   LEU

>  <FRAG_NAME>  (2) 
ACET   PRPA

>  <FRAG_ATOM_NUM>  (2) 
fragi: 7  fragj: 11

>  <atom.prop.CHAIN_ID>  (2) 
A A A A A A A Z Z Z Z Z Z Z Z Z Z Z

>  <atom.prop.IS_HEAVY_ATOM>  (2) 
1 0 0 0 1 1 1 1 0 0 0 1 0 0 1 0 0 0

>  <DIFUSE_FUNC_ATOM>  (2) 
atom 6   atom 7   

>  <FINAL_SINGLE_POINT_ENERGY>  (2) 
0

>  <NONCOV_INTER_ENERGY_QM>  (2) 
0

>  <FF_Energy>  (2) 
22.87

>  <QM_Energy>  (2) 
1.15

>  <source>  (2) 
ACET_PRPA_00

>  <Index>  (2) 
433

$$$$
ACET-pdb1r2m-B-ASP-59:PRPA-pdb1r2m-B-LEU-62
     RDKit          3D

 18 16  0  0  0  0  0  0  0  0999 V2000
   -0.0402    1.5075    0.0748 C   0  0  0  0  0  0  0  0  0  0  0  0
    0.8554    1.8374    0.3719 H   0  0  0  0  0  0  0  0  0  0  0  0
   -0.7335    1.7771    0.7407 H   0  0  0  0  0  0  0  0  0  0  0  0
   -0.2785    1.9868   -0.8746 H   0  0  0  0  0  0  0  0  0  0  0  0
    0.0000    0.0000    0.0000 C   0  0  0  0  0  0  0  0  0  0  0  0
   -1.0678   -0.6348    0.0000 O   0  0  0  0  0  1  0  0  0  0  0  0
    1.0678   -0.6339    0.0000 O   0  0  0  0  0  0  0  0  0  0  0  0
   -0.2812    2.5641    3.2109 C   0  0  0  0  0  0  0  0  0  0  0  0
   -0.0902    2.7352    4.1768 H   0  0  0  0  0  0  0  0  0  0  0  0
    0.5559    2.6793    2.6781 H   0  0  0  0  0  0  0  0  0  0  0  0
   -0.9758    3.2055    2.8880 H   0  0  0  0  0  0  0  0  0  0  0  0
   -0.7949    1.1336    3.0418 C   0  0  0  0  0  0  0  0  0  0  0  0
   -0.9807    0.9670    2.0740 H   0  0  0  0  0  0  0  0  0  0  0  0
   -1.7095    0.9887    3.6168 H   0  0  0  0  0  0  0  0  0  0  0  0
    0.2814    0.1341    3.4131 C   0  0  0  0  0  0  0  0  0  0  0  0
   -0.0469   -0.7964    3.2401 H   0  0  0  0  0  0  0  0  0  0  0  0
    1.1019    0.3019    2.8636 H   0  0  0  0  0  0  0  0  0  0  0  0
    0.5095    0.2285    4.3846 H   0  0  0  0  0  0  0  0  0  0  0  0
  1  5  1  0
  5  6  1  0
  5  7  2  0
  1  2  1  0
  1  3  1  0
  1  4  1  0
  8 12  1  0
 12 15  1  0
  8  9  1  0
  8 10  1  0
  8 11  1  0
 12 13  1  0
 12 14  1  0
 15 16  1  0
 15 17  1  0
 15 18  1  0
M  CHG  1   6  -1
M  END
>  <PDB_ID>  (3) 
pdb1r2m

>  <RESIDUE_NAME>  (3) 
ASP   LEU

>  <FRAG_NAME>  (3) 
ACET   PRPA

>  <FRAG_ATOM_NUM>  (3) 
fragi: 7  fragj: 11

>  <atom.prop.CHAIN_ID>  (3) 
A A A A A A A Z Z Z Z Z Z Z Z Z Z Z

>  <atom.prop.IS_HEAVY_ATOM>  (3) 
1 0 0 0 1 1 1 1 0 0 0 1 0 0 1 0 0 0

>  <DIFUSE_FUNC_ATOM>  (3) 
atom 6   atom 7   

>  <FINAL_SINGLE_POINT_ENERGY>  (3) 
0

>  <NONCOV_INTER_ENERGY_QM>  (3) 
0

>  <FF_Energy>  (3) 
23.41

>  <QM_Energy>  (3) 
0.65

>  <source>  (3) 
ACET_PRPA_00

>  <Index>  (3) 
436

$$$$
ACET-pdb12ca-A-GLU-69:PRPA-pdb12ca-A-ARG-58
     RDKit          3D

 18 16  0  0  0  0  0  0  0  0999 V2000
    0.2138    1.5221   -0.1107 C   0  0  0  0  0  0  0  0  0  0  0  0
    0.8055    1.6723   -0.8944 H   0  0  0  0  0  0  0  0  0  0  0  0
    0.6642    1.8095    0.7266 H   0  0  0  0  0  0  0  0  0  0  0  0
   -0.6884    2.1197   -0.2411 H   0  0  0  0  0  0  0  0  0  0  0  0
    0.0000    0.0000    0.0000 C   0  0  0  0  0  0  0  0  0  0  0  0
   -1.1306   -0.3926    0.0000 O   0  0  0  0  0  1  0  0  0  0  0  0
    1.1306   -0.6321   -0.0000 O   0  0  0  0  0  0  0  0  0  0  0  0
   -4.0926   -0.2913    3.3222 C   0  0  0  0  0  0  0  0  0  0  0  0
   -3.7107   -0.9115    4.0035 H   0  0  0  0  0  0  0  0  0  0  0  0
   -5.0540   -0.5060    3.1697 H   0  0  0  0  0  0  0  0  0  0  0  0
   -4.0434    0.7169    3.7335 H   0  0  0  0  0  0  0  0  0  0  0  0
   -3.3457   -0.4721    2.0296 C   0  0  0  0  0  0  0  0  0  0  0  0
   -3.9812   -0.7902    1.3173 H   0  0  0  0  0  0  0  0  0  0  0  0
   -2.9595    0.4114    1.7393 H   0  0  0  0  0  0  0  0  0  0  0  0
   -2.2243   -1.4622    2.1359 C   0  0  0  0  0  0  0  0  0  0  0  0
   -1.5002   -1.1802    1.5040 H   0  0  0  0  0  0  0  0  0  0  0  0
   -1.8740   -1.4339    3.0742 H   0  0  0  0  0  0  0  0  0  0  0  0
   -2.5533   -2.4729    1.8942 H   0  0  0  0  0  0  0  0  0  0  0  0
  1  5  1  0
  5  6  1  0
  5  7  2  0
  1  2  1  0
  1  3  1  0
  1  4  1  0
  8 12  1  0
 12 15  1  0
  8  9  1  0
  8 10  1  0
  8 11  1  0
 12 13  1  0
 12 14  1  0
 15 16  1  0
 15 17  1  0
 15 18  1  0
M  CHG  1   6  -1
M  END
>  <PDB_ID>  (4) 
pdb12ca

>  <RESIDUE_NAME>  (4) 
GLU   ARG

>  <FRAG_NAME>  (4) 
ACET   PRPA

>  <FRAG_ATOM_NUM>  (4) 
fragi: 7  fragj: 11

>  <atom.prop.CHAIN_ID>  (4) 
A A A A A A A Z Z Z Z Z Z Z Z Z Z Z

>  <atom.prop.IS_HEAVY_ATOM>  (4) 
1 0 0 0 1 1 1 1 0 0 0 1 0 0 1 0 0 0

>  <DIFUSE_FUNC_ATOM>  (4) 
atom 6   atom 7   

>  <FINAL_SINGLE_POINT_ENERGY>  (4) 
0

>  <NONCOV_INTER_ENERGY_QM>  (4) 
0

>  <FF_Energy>  (4) 
46.88

>  <QM_Energy>  (4) 
3.81

>  <source>  (4) 
ACET_PRPA_00

>  <Index>  (4) 
2337

$$$$
ACET-pdb1a2x-A-GLU-85:PRPA-pdb1a2x-A-ARG-81
     RDKit          3D

 18 16  0  0  0  0  0  0  0  0999 V2000
    0.0039    1.5017    0.0108 C   0  0  0  0  0  0  0  0  0  0  0  0
    0.8242    1.7991    0.4699 H   0  0  0  0  0  0  0  0  0  0  0  0
   -0.8075    1.8021    0.4835 H   0  0  0  0  0  0  0  0  0  0  0  0
   -0.0025    1.9349   -0.9894 H   0  0  0  0  0  0  0  0  0  0  0  0
    0.0000    0.0000    0.0000 C   0  0  0  0  0  0  0  0  0  0  0  0
   -1.0955   -0.6143   -0.0000 O   0  0  0  0  0  1  0  0  0  0  0  0
    1.0955   -0.5973    0.0000 O   0  0  0  0  0  0  0  0  0  0  0  0
    4.0091   -1.9856   -1.2729 C   0  0  0  0  0  0  0  0  0  0  0  0
    3.2776   -2.6583   -1.3257 H   0  0  0  0  0  0  0  0  0  0  0  0
    4.8436   -2.3145   -1.8921 H   0  0  0  0  0  0  0  0  0  0  0  0
    3.6498   -1.0413   -1.6820 H   0  0  0  0  0  0  0  0  0  0  0  0
    4.4504   -1.7931    0.1754 C   0  0  0  0  0  0  0  0  0  0  0  0
    4.3497   -2.6602    0.6490 H   0  0  0  0  0  0  0  0  0  0  0  0
    5.4003   -1.5042    0.1750 H   0  0  0  0  0  0  0  0  0  0  0  0
    3.6374   -0.7524    0.9104 C   0  0  0  0  0  0  0  0  0  0  0  0
    4.2228    0.0181    1.1639 H   0  0  0  0  0  0  0  0  0  0  0  0
    2.8949   -0.4263    0.3247 H   0  0  0  0  0  0  0  0  0  0  0  0
    3.1894   -1.1426    1.8243 H   0  0  0  0  0  0  0  0  0  0  0  0
  1  5  1  0
  5  6  1  0
  5  7  2  0
  1  2  1  0
  1  3  1  0
  1  4  1  0
  8 12  1  0
 12 15  1  0
  8  9  1  0
  8 10  1  0
  8 11  1  0
 12 13  1  0
 12 14  1  0
 15 16  1  0
 15 17  1  0
 15 18  1  0
M  CHG  1   6  -1
M  END
>  <PDB_ID>  (5) 
pdb1a2x

>  <RESIDUE_NAME>  (5) 
GLU   ARG

>  <FRAG_NAME>  (5) 
ACET   PRPA

>  <FRAG_ATOM_NUM>  (5) 
fragi: 7  fragj: 11

>  <atom.prop.CHAIN_ID>  (5) 
A A A A A A A Z Z Z Z Z Z Z Z Z Z Z

>  <atom.prop.IS_HEAVY_ATOM>  (5) 
1 0 0 0 1 1 1 1 0 0 0 1 0 0 1 0 0 0

>  <DIFUSE_FUNC_ATOM>  (5) 
atom 6   atom 7   

>  <FINAL_SINGLE_POINT_ENERGY>  (5) 
0

>  <NONCOV_INTER_ENERGY_QM>  (5) 
0

>  <FF_Energy>  (5) 
23.09

>  <QM_Energy>  (5) 
1.2

>  <source>  (5) 
ACET_PRPA_00

>  <Index>  (5) 
2538

$$$$
ACET-pdb1a2x-A-GLU-97:PRPA-pdb1a2x-A-ARG-100
     RDKit          3D

 18 16  0  0  0  0  0  0  0  0999 V2000
    0.0067    1.5275   -0.0089 C   0  0  0  0  0  0  0  0  0  0  0  0
   -0.4242    1.8190   -0.8433 H   0  0  0  0  0  0  0  0  0  0  0  0
    0.9449    1.8176    0.0443 H   0  0  0  0  0  0  0  0  0  0  0  0
   -0.5365    1.9673    0.8274 H   0  0  0  0  0  0  0  0  0  0  0  0
    0.0000    0.0000    0.0000 C   0  0  0  0  0  0  0  0  0  0  0  0
   -1.0980   -0.5965   -0.0000 O   0  0  0  0  0  1  0  0  0  0  0  0
    1.0980   -0.6074   -0.0000 O   0  0  0  0  0  0  0  0  0  0  0  0
   -6.2222   -0.0229   -0.1350 C   0  0  0  0  0  0  0  0  0  0  0  0
   -6.3203   -0.9876    0.1151 H   0  0  0  0  0  0  0  0  0  0  0  0
   -6.5074    0.1003   -1.0874 H   0  0  0  0  0  0  0  0  0  0  0  0
   -6.8995    0.5551    0.4938 H   0  0  0  0  0  0  0  0  0  0  0  0
   -4.7698    0.3527   -0.0220 C   0  0  0  0  0  0  0  0  0  0  0  0
   -4.5078    0.9187   -0.8004 H   0  0  0  0  0  0  0  0  0  0  0  0
   -4.6188    0.8547    0.8271 H   0  0  0  0  0  0  0  0  0  0  0  0
   -3.8981   -0.8704   -0.0096 C   0  0  0  0  0  0  0  0  0  0  0  0
   -4.0306   -1.3625   -0.8670 H   0  0  0  0  0  0  0  0  0  0  0  0
   -2.9474   -0.5796    0.0730 H   0  0  0  0  0  0  0  0  0  0  0  0
   -4.1454   -1.5282    0.8237 H   0  0  0  0  0  0  0  0  0  0  0  0
  1  5  1  0
  5  6  1  0
  5  7  2  0
  1  2  1  0
  1  3  1  0
  1  4  1  0
  8 12  1  0
 12 15  1  0
  8  9  1  0
  8 10  1  0
  8 11  1  0
 12 13  1  0
 12 14  1  0
 15 16  1  0
 15 17  1  0
 15 18  1  0
M  CHG  1   6  -1
M  END
>  <PDB_ID>  (6) 
pdb1a2x

>  <RESIDUE_NAME>  (6) 
GLU   ARG

>  <FRAG_NAME>  (6) 
ACET   PRPA

>  <FRAG_ATOM_NUM>  (6) 
fragi: 7  fragj: 11

>  <atom.prop.CHAIN_ID>  (6) 
A A A A A A A Z Z Z Z Z Z Z Z Z Z Z

>  <atom.prop.IS_HEAVY_ATOM>  (6) 
1 0 0 0 1 1 1 1 0 0 0 1 0 0 1 0 0 0

>  <DIFUSE_FUNC_ATOM>  (6) 
atom 6   atom 7   

>  <FINAL_SINGLE_POINT_ENERGY>  (6) 
0

>  <NONCOV_INTER_ENERGY_QM>  (6) 
0

>  <FF_Energy>  (6) 
18.76

>  <QM_Energy>  (6) 
-0.28

>  <source>  (6) 
ACET_PRPA_00

>  <Index>  (6) 
2614

$$$$
ACET-pdb1a21-A-GLU-60:PRPA-pdb1a21-A-ILE-36
     RDKit          3D

 18 16  0  0  0  0  0  0  0  0999 V2000
   -0.0002    1.5313    0.0302 C   0  0  0  0  0  0  0  0  0  0  0  0
   -0.3703    1.8388   -0.8222 H   0  0  0  0  0  0  0  0  0  0  0  0
    0.9256    1.8188    0.1690 H   0  0  0  0  0  0  0  0  0  0  0  0
   -0.6137    1.9285    0.8388 H   0  0  0  0  0  0  0  0  0  0  0  0
    0.0000    0.0000    0.0000 C   0  0  0  0  0  0  0  0  0  0  0  0
   -1.1096   -0.5981   -0.0000 O   0  0  0  0  0  1  0  0  0  0  0  0
    1.1096   -0.5950    0.0000 O   0  0  0  0  0  0  0  0  0  0  0  0
    0.1005    4.4679   -4.8418 C   0  0  0  0  0  0  0  0  0  0  0  0
    0.4751    5.3684   -5.0571 H   0  0  0  0  0  0  0  0  0  0  0  0
   -0.8571    4.4014   -5.3582 H   0  0  0  0  0  0  0  0  0  0  0  0
    0.8053    3.7418   -5.2470 H   0  0  0  0  0  0  0  0  0  0  0  0
   -0.0611    4.3055   -3.2770 C   0  0  0  0  0  0  0  0  0  0  0  0
   -0.7782    4.9269   -2.9950 H   0  0  0  0  0  0  0  0  0  0  0  0
    0.8623    4.5840   -2.7693 H   0  0  0  0  0  0  0  0  0  0  0  0
   -0.4245    2.8950   -2.9264 C   0  0  0  0  0  0  0  0  0  0  0  0
   -0.5574    2.8086   -1.9368 H   0  0  0  0  0  0  0  0  0  0  0  0
   -1.2733    2.6312   -3.3898 H   0  0  0  0  0  0  0  0  0  0  0  0
    0.3059    2.2694   -3.2105 H   0  0  0  0  0  0  0  0  0  0  0  0
  1  5  1  0
  5  6  1  0
  5  7  2  0
  1  2  1  0
  1  3  1  0
  1  4  1  0
  8 12  1  0
 12 15  1  0
  8  9  1  0
  8 10  1  0
  8 11  1  0
 12 13  1  0
 12 14  1  0
 15 16  1  0
 15 17  1  0
 15 18  1  0
M  CHG  1   6  -1
M  END
>  <PDB_ID>  (7) 
pdb1a21

>  <RESIDUE_NAME>  (7) 
GLU   ILE

>  <FRAG_NAME>  (7) 
ACET   PRPA

>  <FRAG_ATOM_NUM>  (7) 
fragi: 7  fragj: 11

>  <atom.prop.CHAIN_ID>  (7) 
A A A A A A A Z Z Z Z Z Z Z Z Z Z Z

>  <atom.prop.IS_HEAVY_ATOM>  (7) 
1 0 0 0 1 1 1 1 0 0 0 1 0 0 1 0 0 0

>  <DIFUSE_FUNC_ATOM>  (7) 
atom 6   atom 7   

>  <FINAL_SINGLE_POINT_ENERGY>  (7) 
0

>  <NONCOV_INTER_ENERGY_QM>  (7) 
0

>  <FF_Energy>  (7) 
30.0

>  <QM_Energy>  (7) 
4.68

>  <source>  (7) 
ACET_PRPA_00

>  <Index>  (7) 
2765

$$$$
ACET-pdb1a21-A-GLU-60:PRPA-pdb1a21-A-ILE-36
     RDKit          3D

 18 16  0  0  0  0  0  0  0  0999 V2000
   -0.0002    1.5313    0.0302 C   0  0  0  0  0  0  0  0  0  0  0  0
   -0.3703    1.8388   -0.8222 H   0  0  0  0  0  0  0  0  0  0  0  0
    0.9256    1.8188    0.1690 H   0  0  0  0  0  0  0  0  0  0  0  0
   -0.6137    1.9285    0.8388 H   0  0  0  0  0  0  0  0  0  0  0  0
    0.0000    0.0000    0.0000 C   0  0  0  0  0  0  0  0  0  0  0  0
   -1.1096   -0.5981   -0.0000 O   0  0  0  0  0  1  0  0  0  0  0  0
    1.1096   -0.5950    0.0000 O   0  0  0  0  0  0  0  0  0  0  0  0
    1.2354    4.6965   -2.5642 C   0  0  0  0  0  0  0  0  0  0  0  0
    1.8991    3.9506   -2.6819 H   0  0  0  0  0  0  0  0  0  0  0  0
    1.6104    5.5116   -3.0195 H   0  0  0  0  0  0  0  0  0  0  0  0
    1.1394    4.9125   -1.5001 H   0  0  0  0  0  0  0  0  0  0  0  0
   -0.0611    4.3055   -3.2770 C   0  0  0  0  0  0  0  0  0  0  0  0
   -0.7782    4.9269   -2.9950 H   0  0  0  0  0  0  0  0  0  0  0  0
    0.0503    4.4174   -4.3555 H   0  0  0  0  0  0  0  0  0  0  0  0
   -0.4245    2.8950   -2.9264 C   0  0  0  0  0  0  0  0  0  0  0  0
   -0.5574    2.8086   -1.9368 H   0  0  0  0  0  0  0  0  0  0  0  0
   -1.2733    2.6312   -3.3898 H   0  0  0  0  0  0  0  0  0  0  0  0
    0.3059    2.2694   -3.2105 H   0  0  0  0  0  0  0  0  0  0  0  0
  1  5  1  0
  5  6  1  0
  5  7  2  0
  1  2  1  0
  1  3  1  0
  1  4  1  0
  8 12  1  0
 12 15  1  0
  8  9  1  0
  8 10  1  0
  8 11  1  0
 12 13  1  0
 12 14  1  0
 15 16  1  0
 15 17  1  0
 15 18  1  0
M  CHG  1   6  -1
M  END
>  <PDB_ID>  (8) 
pdb1a21

>  <RESIDUE_NAME>  (8) 
GLU   ILE

>  <FRAG_NAME>  (8) 
ACET   PRPA

>  <FRAG_ATOM_NUM>  (8) 
fragi: 7  fragj: 11

>  <atom.prop.CHAIN_ID>  (8) 
A A A A A A A Z Z Z Z Z Z Z Z Z Z Z

>  <atom.prop.IS_HEAVY_ATOM>  (8) 
1 0 0 0 1 1 1 1 0 0 0 1 0 0 1 0 0 0

>  <DIFUSE_FUNC_ATOM>  (8) 
atom 6   atom 7   

>  <FINAL_SINGLE_POINT_ENERGY>  (8) 
0

>  <NONCOV_INTER_ENERGY_QM>  (8) 
0

>  <FF_Energy>  (8) 
29.9

>  <QM_Energy>  (8) 
4.54

>  <source>  (8) 
ACET_PRPA_00

>  <Index>  (8) 
2774

$$$$
ACET-pdb2a1i-A-GLU-216:PRPA-pdb2a1i-A-PRO-219
     RDKit          3D

 18 16  0  0  0  0  0  0  0  0999 V2000
   -0.0117    1.5299    0.0080 C   0  0  0  0  0  0  0  0  0  0  0  0
   -0.7738    1.8069    0.5557 H   0  0  0  0  0  0  0  0  0  0  0  0
   -0.0846    1.8194   -0.9237 H   0  0  0  0  0  0  0  0  0  0  0  0
    0.9041    1.9343    0.4392 H   0  0  0  0  0  0  0  0  0  0  0  0
    0.0000    0.0000    0.0000 C   0  0  0  0  0  0  0  0  0  0  0  0
   -1.0977   -0.6127   -0.0000 O   0  0  0  0  0  1  0  0  0  0  0  0
    1.0977   -0.6025    0.0000 O   0  0  0  0  0  0  0  0  0  0  0  0
    3.6757   -0.6472    1.1808 C   0  0  0  0  0  0  0  0  0  0  0  0
    2.6961   -0.5016    1.0047 H   0  0  0  0  0  0  0  0  0  0  0  0
    4.0363    0.0489    1.9381 H   0  0  0  0  0  0  0  0  0  0  0  0
    3.8772   -1.6719    1.4928 H   0  0  0  0  0  0  0  0  0  0  0  0
    4.5550   -0.3247   -0.0377 C   0  0  0  0  0  0  0  0  0  0  0  0
    4.7293   -1.1590   -0.5675 H   0  0  0  0  0  0  0  0  0  0  0  0
    4.0956    0.3445   -0.6272 H   0  0  0  0  0  0  0  0  0  0  0  0
    5.7858    0.2158    0.5479 C   0  0  0  0  0  0  0  0  0  0  0  0
    6.3527   -0.4933    0.9465 H   0  0  0  0  0  0  0  0  0  0  0  0
    6.3033    0.7550   -0.1046 H   0  0  0  0  0  0  0  0  0  0  0  0
    5.4032    0.8638    1.3364 H   0  0  0  0  0  0  0  0  0  0  0  0
  1  5  1  0
  5  6  1  0
  5  7  2  0
  1  2  1  0
  1  3  1  0
  1  4  1  0
  8 12  1  0
 12 15  1  0
  8  9  1  0
  8 10  1  0
  8 11  1  0
 12 13  1  0
 12 14  1  0
 15 16  1  0
 15 17  1  0
 15 18  1  0
M  CHG  1   6  -1
M  END
>  <PDB_ID>  (9) 
pdb2a1i

>  <RESIDUE_NAME>  (9) 
GLU   PRO

>  <FRAG_NAME>  (9) 
ACET   PRPA

>  <FRAG_ATOM_NUM>  (9) 
fragi: 7  fragj: 11

>  <atom.prop.CHAIN_ID>  (9) 
A A A A A A A Z Z Z Z Z Z Z Z Z Z Z

>  <atom.prop.IS_HEAVY_ATOM>  (9) 
1 0 0 0 1 1 1 1 0 0 0 1 0 0 1 0 0 0

>  <DIFUSE_FUNC_ATOM>  (9) 
atom 6   atom 7   

>  <FINAL_SINGLE_POINT_ENERGY>  (9) 
0

>  <NONCOV_INTER_ENERGY_QM>  (9) 
0

>  <FF_Energy>  (9) 
14.72

>  <QM_Energy>  (9) 
-1.26

>  <source>  (9) 
ACET_PRPA_00

>  <Index>  (9) 
3326

$$$$
ACET-pdb1a2c-H-GLU-61:PRPA-pdb1a2c-H-LYS-87
     RDKit          3D

 18 16  0  0  0  0  0  0  0  0999 V2000
    0.2009    1.4841    0.0126 C   0  0  0  0  0  0  0  0  0  0  0  0
    0.1575    1.8119   -0.9295 H   0  0  0  0  0  0  0  0  0  0  0  0
    1.1049    1.6719    0.3923 H   0  0  0  0  0  0  0  0  0  0  0  0
   -0.5168    2.0693    0.5876 H   0  0  0  0  0  0  0  0  0  0  0  0
    0.0000    0.0000    0.0000 C   0  0  0  0  0  0  0  0  0  0  0  0
   -1.0772   -0.5978   -0.0000 O   0  0  0  0  0  1  0  0  0  0  0  0
    1.0772   -0.6554    0.0000 O   0  0  0  0  0  0  0  0  0  0  0  0
   -2.3996   -2.4965    1.2649 C   0  0  0  0  0  0  0  0  0  0  0  0
   -1.5173   -2.0422    1.1165 H   0  0  0  0  0  0  0  0  0  0  0  0
   -2.8757   -2.0597    2.1429 H   0  0  0  0  0  0  0  0  0  0  0  0
   -3.0277   -2.3441    0.3872 H   0  0  0  0  0  0  0  0  0  0  0  0
   -2.2084   -4.0006    1.4137 C   0  0  0  0  0  0  0  0  0  0  0  0
   -2.9471   -4.3632    1.9801 H   0  0  0  0  0  0  0  0  0  0  0  0
   -2.2462   -4.4188    0.5070 H   0  0  0  0  0  0  0  0  0  0  0  0
   -0.8718   -4.4195    2.0661 C   0  0  0  0  0  0  0  0  0  0  0  0
   -0.8002   -3.9901    2.9396 H   0  0  0  0  0  0  0  0  0  0  0  0
   -0.8321   -5.3939    2.1054 H   0  0  0  0  0  0  0  0  0  0  0  0
   -0.0832   -4.0480    1.4117 H   0  0  0  0  0  0  0  0  0  0  0  0
  1  5  1  0
  5  6  1  0
  5  7  2  0
  1  2  1  0
  1  3  1  0
  1  4  1  0
  8 12  1  0
 12 15  1  0
  8  9  1  0
  8 10  1  0
  8 11  1  0
 12 13  1  0
 12 14  1  0
 15 16  1  0
 15 17  1  0
 15 18  1  0
M  CHG  1   6  -1
M  END
>  <PDB_ID>  (10) 
pdb1a2c

>  <RESIDUE_NAME>  (10) 
GLU   LYS

>  <FRAG_NAME>  (10) 
ACET   PRPA

>  <FRAG_ATOM_NUM>  (10) 
fragi: 7  fragj: 11

>  <atom.prop.CHAIN_ID>  (10) 
A A A A A A A Z Z Z Z Z Z Z Z Z Z Z

>  <atom.prop.IS_HEAVY_ATOM>  (10) 
1 0 0 0 1 1 1 1 0 0 0 1 0 0 1 0 0 0

>  <DIFUSE_FUNC_ATOM>  (10) 
atom 6   atom 7   

>  <FINAL_SINGLE_POINT_ENERGY>  (10) 
0

>  <NONCOV_INTER_ENERGY_QM>  (10) 
0

>  <FF_Energy>  (10) 
19.25

>  <QM_Energy>  (10) 
2.23

>  <source>  (10) 
ACET_PRPA_00

>  <Index>  (10) 
3390

$$$$
ACET-pdb2a3q-A-ASP-98:PRPA-pdb2a3q-A-GLH-63
     RDKit          3D

 18 16  0  0  0  0  0  0  0  0999 V2000
    0.0628    1.4722    0.0457 C   0  0  0  0  0  0  0  0  0  0  0  0
    0.5770    1.8096   -0.7434 H   0  0  0  0  0  0  0  0  0  0  0  0
    0.5188    1.7618    0.8873 H   0  0  0  0  0  0  0  0  0  0  0  0
   -0.9227    1.9374    0.0239 H   0  0  0  0  0  0  0  0  0  0  0  0
    0.0000    0.0000    0.0000 C   0  0  0  0  0  0  0  0  0  0  0  0
   -1.0984   -0.5989   -0.0000 O   0  0  0  0  0  1  0  0  0  0  0  0
    1.0984   -0.5613    0.0000 O   0  0  0  0  0  0  0  0  0  0  0  0
    4.1963    3.6249    3.1240 C   0  0  0  0  0  0  0  0  0  0  0  0
    4.6151    2.9309    2.5066 H   0  0  0  0  0  0  0  0  0  0  0  0
    4.5309    3.4760    4.1506 H   0  0  0  0  0  0  0  0  0  0  0  0
    4.4344    4.6146    2.7341 H   0  0  0  0  0  0  0  0  0  0  0  0
    2.7287    3.2819    3.0618 C   0  0  0  0  0  0  0  0  0  0  0  0
    2.5602    2.5917    3.7299 H   0  0  0  0  0  0  0  0  0  0  0  0
    2.2283    4.1048    3.2145 H   0  0  0  0  0  0  0  0  0  0  0  0
    2.3997    2.7583    1.7390 C   0  0  0  0  0  0  0  0  0  0  0  0
    1.4304    2.6068    1.6773 H   0  0  0  0  0  0  0  0  0  0  0  0
    2.7231    3.3789    1.0480 H   0  0  0  0  0  0  0  0  0  0  0  0
    2.8911    1.7999    1.5714 H   0  0  0  0  0  0  0  0  0  0  0  0
  1  5  1  0
  5  6  1  0
  5  7  2  0
  1  2  1  0
  1  3  1  0
  1  4  1  0
  8 12  1  0
 12 15  1  0
  8  9  1  0
  8 10  1  0
  8 11  1  0
 12 13  1  0
 12 14  1  0
 15 16  1  0
 15 17  1  0
 15 18  1  0
M  CHG  1   6  -1
M  END
>  <PDB_ID>  (11) 
pdb2a3q

>  <RESIDUE_NAME>  (11) 
ASP   GLH

>  <FRAG_NAME>  (11) 
ACET   PRPA

>  <FRAG_ATOM_NUM>  (11) 
fragi: 7  fragj: 11

>  <atom.prop.CHAIN_ID>  (11) 
A A A A A A A Z Z Z Z Z Z Z Z Z Z Z

>  <atom.prop.IS_HEAVY_ATOM>  (11) 
1 0 0 0 1 1 1 1 0 0 0 1 0 0 1 0 0 0

>  <DIFUSE_FUNC_ATOM>  (11) 
atom 6   atom 7   

>  <FINAL_SINGLE_POINT_ENERGY>  (11) 
0

>  <NONCOV_INTER_ENERGY_QM>  (11) 
0

>  <FF_Energy>  (11) 
35.26

>  <QM_Energy>  (11) 
5.22

>  <source>  (11) 
ACET_PRPA_00

>  <Index>  (11) 
3600

$$$$
ACET-pdb2a2c-A-GLU-15:PRPA-pdb2a2c-A-GLN-12
     RDKit          3D

 18 16  0  0  0  0  0  0  0  0999 V2000
    0.2759    1.4515   -0.1361 C   0  0  0  0  0  0  0  0  0  0  0  0
    1.2279    1.5760   -0.2707 H   0  0  0  0  0  0  0  0  0  0  0  0
   -0.0861    1.9104    0.6374 H   0  0  0  0  0  0  0  0  0  0  0  0
   -0.2413    1.8196   -1.0222 H   0  0  0  0  0  0  0  0  0  0  0  0
    0.0000    0.0000    0.0000 C   0  0  0  0  0  0  0  0  0  0  0  0
   -1.1306   -0.4925   -0.0000 O   0  0  0  0  0  1  0  0  0  0  0  0
    1.1306   -0.6612    0.0000 O   0  0  0  0  0  0  0  0  0  0  0  0
   -2.7331    0.0693    2.7311 C   0  0  0  0  0  0  0  0  0  0  0  0
   -3.0137    0.0072    3.6716 H   0  0  0  0  0  0  0  0  0  0  0  0
   -3.3496   -0.6072    2.1392 H   0  0  0  0  0  0  0  0  0  0  0  0
   -3.0094    1.0553    2.3577 H   0  0  0  0  0  0  0  0  0  0  0  0
   -1.1986   -0.2293    2.7795 C   0  0  0  0  0  0  0  0  0  0  0  0
   -0.8232   -0.0986    1.8602 H   0  0  0  0  0  0  0  0  0  0  0  0
   -0.7697    0.4254    3.4062 H   0  0  0  0  0  0  0  0  0  0  0  0
   -0.8025   -1.6610    3.2508 C   0  0  0  0  0  0  0  0  0  0  0  0
    0.1103   -1.5961    3.6978 H   0  0  0  0  0  0  0  0  0  0  0  0
   -1.4616   -1.9396    3.9751 H   0  0  0  0  0  0  0  0  0  0  0  0
   -0.7596   -2.4569    2.5073 H   0  0  0  0  0  0  0  0  0  0  0  0
  1  5  1  0
  5  6  1  0
  5  7  2  0
  1  2  1  0
  1  3  1  0
  1  4  1  0
  8 12  1  0
 12 15  1  0
  8  9  1  0
  8 10  1  0
  8 11  1  0
 12 13  1  0
 12 14  1  0
 15 16  1  0
 15 17  1  0
 15 18  1  0
M  CHG  1   6  -1
M  END
>  <PDB_ID>  (12) 
pdb2a2c

>  <RESIDUE_NAME>  (12) 
GLU   GLN

>  <FRAG_NAME>  (12) 
ACET   PRPA

>  <FRAG_ATOM_NUM>  (12) 
fragi: 7  fragj: 11

>  <atom.prop.CHAIN_ID>  (12) 
A A A A A A A Z Z Z Z Z Z Z Z Z Z Z

>  <atom.prop.IS_HEAVY_ATOM>  (12) 
1 0 0 0 1 1 1 1 0 0 0 1 0 0 1 0 0 0

>  <DIFUSE_FUNC_ATOM>  (12) 
atom 6   atom 7   

>  <FINAL_SINGLE_POINT_ENERGY>  (12) 
0

>  <NONCOV_INTER_ENERGY_QM>  (12) 
0

>  <FF_Energy>  (12) 
33.17

>  <QM_Energy>  (12) 
2.68

>  <source>  (12) 
ACET_PRPA_00

>  <Index>  (12) 
3833

$$$$
ACET-pdb2a2c-A-GLU-457:PRPA-pdb2a2c-A-VAL-13
     RDKit          3D

 18 16  0  0  0  0  0  0  0  0999 V2000
    0.2495    1.4602   -0.0741 C   0  0  0  0  0  0  0  0  0  0  0  0
    0.9398    1.6936    0.5703 H   0  0  0  0  0  0  0  0  0  0  0  0
   -0.5925    1.9287    0.0614 H   0  0  0  0  0  0  0  0  0  0  0  0
    0.6201    1.7184   -1.0661 H   0  0  0  0  0  0  0  0  0  0  0  0
    0.0000    0.0000    0.0000 C   0  0  0  0  0  0  0  0  0  0  0  0
   -1.1226   -0.4749    0.0000 O   0  0  0  0  0  1  0  0  0  0  0  0
    1.1226   -0.6869   -0.0000 O   0  0  0  0  0  0  0  0  0  0  0  0
    1.8162    2.1843    4.7327 C   0  0  0  0  0  0  0  0  0  0  0  0
    1.3265    3.0570    4.8913 H   0  0  0  0  0  0  0  0  0  0  0  0
    2.6378    2.3730    4.0416 H   0  0  0  0  0  0  0  0  0  0  0  0
    2.1635    1.8195    5.6993 H   0  0  0  0  0  0  0  0  0  0  0  0
    0.7104    1.3861    4.0224 C   0  0  0  0  0  0  0  0  0  0  0  0
    1.1072    0.5141    3.7204 H   0  0  0  0  0  0  0  0  0  0  0  0
   -0.1259    1.1388    4.6762 H   0  0  0  0  0  0  0  0  0  0  0  0
    0.1827    2.2533    2.8793 C   0  0  0  0  0  0  0  0  0  0  0  0
    0.3409    3.2150    3.0989 H   0  0  0  0  0  0  0  0  0  0  0  0
    0.6647    2.0140    2.0377 H   0  0  0  0  0  0  0  0  0  0  0  0
   -0.7956    2.0875    2.7682 H   0  0  0  0  0  0  0  0  0  0  0  0
  1  5  1  0
  5  6  1  0
  5  7  2  0
  1  2  1  0
  1  3  1  0
  1  4  1  0
  8 12  1  0
 12 15  1  0
  8  9  1  0
  8 10  1  0
  8 11  1  0
 12 13  1  0
 12 14  1  0
 15 16  1  0
 15 17  1  0
 15 18  1  0
M  CHG  1   6  -1
M  END
>  <PDB_ID>  (13) 
pdb2a2c

>  <RESIDUE_NAME>  (13) 
GLU   VAL

>  <FRAG_NAME>  (13) 
ACET   PRPA

>  <FRAG_ATOM_NUM>  (13) 
fragi: 7  fragj: 11

>  <atom.prop.CHAIN_ID>  (13) 
A A A A A A A Z Z Z Z Z Z Z Z Z Z Z

>  <atom.prop.IS_HEAVY_ATOM>  (13) 
1 0 0 0 1 1 1 1 0 0 0 1 0 0 1 0 0 0

>  <DIFUSE_FUNC_ATOM>  (13) 
atom 6   atom 7   

>  <FINAL_SINGLE_POINT_ENERGY>  (13) 
0

>  <NONCOV_INTER_ENERGY_QM>  (13) 
0

>  <FF_Energy>  (13) 
26.54

>  <QM_Energy>  (13) 
3.81

>  <source>  (13) 
ACET_PRPA_00

>  <Index>  (13) 
3849

$$$$
ACET-pdb2a2c-A-GLU-457:PRPA-pdb2a2c-A-VAL-13
     RDKit          3D

 18 16  0  0  0  0  0  0  0  0999 V2000
    0.2495    1.4602   -0.0741 C   0  0  0  0  0  0  0  0  0  0  0  0
    0.9398    1.6936    0.5703 H   0  0  0  0  0  0  0  0  0  0  0  0
   -0.5925    1.9287    0.0614 H   0  0  0  0  0  0  0  0  0  0  0  0
    0.6201    1.7184   -1.0661 H   0  0  0  0  0  0  0  0  0  0  0  0
    0.0000    0.0000    0.0000 C   0  0  0  0  0  0  0  0  0  0  0  0
   -1.1226   -0.4749    0.0000 O   0  0  0  0  0  1  0  0  0  0  0  0
    1.1226   -0.6869   -0.0000 O   0  0  0  0  0  0  0  0  0  0  0  0
   -0.4633    1.0391    4.9400 C   0  0  0  0  0  0  0  0  0  0  0  0
   -1.2893    0.9255    4.3910 H   0  0  0  0  0  0  0  0  0  0  0  0
   -0.2636    0.1889    5.4250 H   0  0  0  0  0  0  0  0  0  0  0  0
   -0.5971    1.7781    5.5987 H   0  0  0  0  0  0  0  0  0  0  0  0
    0.7104    1.3861    4.0224 C   0  0  0  0  0  0  0  0  0  0  0  0
    1.1072    0.5141    3.7204 H   0  0  0  0  0  0  0  0  0  0  0  0
    1.4942    1.9519    4.5259 H   0  0  0  0  0  0  0  0  0  0  0  0
    0.1827    2.2533    2.8793 C   0  0  0  0  0  0  0  0  0  0  0  0
    0.3409    3.2150    3.0989 H   0  0  0  0  0  0  0  0  0  0  0  0
    0.6647    2.0140    2.0377 H   0  0  0  0  0  0  0  0  0  0  0  0
   -0.7956    2.0875    2.7682 H   0  0  0  0  0  0  0  0  0  0  0  0
  1  5  1  0
  5  6  1  0
  5  7  2  0
  1  2  1  0
  1  3  1  0
  1  4  1  0
  8 12  1  0
 12 15  1  0
  8  9  1  0
  8 10  1  0
  8 11  1  0
 12 13  1  0
 12 14  1  0
 15 16  1  0
 15 17  1  0
 15 18  1  0
M  CHG  1   6  -1
M  END
>  <PDB_ID>  (14) 
pdb2a2c

>  <RESIDUE_NAME>  (14) 
GLU   VAL

>  <FRAG_NAME>  (14) 
ACET   PRPA

>  <FRAG_ATOM_NUM>  (14) 
fragi: 7  fragj: 11

>  <atom.prop.CHAIN_ID>  (14) 
A A A A A A A Z Z Z Z Z Z Z Z Z Z Z

>  <atom.prop.IS_HEAVY_ATOM>  (14) 
1 0 0 0 1 1 1 1 0 0 0 1 0 0 1 0 0 0

>  <DIFUSE_FUNC_ATOM>  (14) 
atom 6   atom 7   

>  <FINAL_SINGLE_POINT_ENERGY>  (14) 
0

>  <NONCOV_INTER_ENERGY_QM>  (14) 
0

>  <FF_Energy>  (14) 
26.63

>  <QM_Energy>  (14) 
3.84

>  <source>  (14) 
ACET_PRPA_00

>  <Index>  (14) 
3855

$$$$
ACET-pdb1a14-H-GLU-10:PRPA-pdb1a14-H-VAL-18
     RDKit          3D

 18 16  0  0  0  0  0  0  0  0999 V2000
    0.0164    1.5210    0.0114 C   0  0  0  0  0  0  0  0  0  0  0  0
    0.7669    1.8171   -0.5539 H   0  0  0  0  0  0  0  0  0  0  0  0
    0.1239    1.8121    0.9463 H   0  0  0  0  0  0  0  0  0  0  0  0
   -0.8940    1.9762   -0.3786 H   0  0  0  0  0  0  0  0  0  0  0  0
    0.0000    0.0000    0.0000 C   0  0  0  0  0  0  0  0  0  0  0  0
   -1.0992   -0.5955   -0.0000 O   0  0  0  0  0  1  0  0  0  0  0  0
    1.0992   -0.6004    0.0000 O   0  0  0  0  0  0  0  0  0  0  0  0
   -1.8430    1.3658    5.2562 C   0  0  0  0  0  0  0  0  0  0  0  0
   -2.1973    0.4717    4.9933 H   0  0  0  0  0  0  0  0  0  0  0  0
   -2.5812    1.8481    5.8968 H   0  0  0  0  0  0  0  0  0  0  0  0
   -0.9287    1.2131    5.8295 H   0  0  0  0  0  0  0  0  0  0  0  0
   -1.4981    2.2179    4.0294 C   0  0  0  0  0  0  0  0  0  0  0  0
   -2.2891    2.2197    3.4250 H   0  0  0  0  0  0  0  0  0  0  0  0
   -1.3200    3.2533    4.3201 H   0  0  0  0  0  0  0  0  0  0  0  0
   -0.2723    1.6680    3.3623 C   0  0  0  0  0  0  0  0  0  0  0  0
   -0.1980    2.0331    2.4311 H   0  0  0  0  0  0  0  0  0  0  0  0
    0.5455    1.9288    3.8825 H   0  0  0  0  0  0  0  0  0  0  0  0
   -0.3283    0.6667    3.3186 H   0  0  0  0  0  0  0  0  0  0  0  0
  1  5  1  0
  5  6  1  0
  5  7  2  0
  1  2  1  0
  1  3  1  0
  1  4  1  0
  8 12  1  0
 12 15  1  0
  8  9  1  0
  8 10  1  0
  8 11  1  0
 12 13  1  0
 12 14  1  0
 15 16  1  0
 15 17  1  0
 15 18  1  0
M  CHG  1   6  -1
M  END
>  <PDB_ID>  (15) 
pdb1a14

>  <RESIDUE_NAME>  (15) 
GLU   VAL

>  <FRAG_NAME>  (15) 
ACET   PRPA

>  <FRAG_ATOM_NUM>  (15) 
fragi: 7  fragj: 11

>  <atom.prop.CHAIN_ID>  (15) 
A A A A A A A Z Z Z Z Z Z Z Z Z Z Z

>  <atom.prop.IS_HEAVY_ATOM>  (15) 
1 0 0 0 1 1 1 1 0 0 0 1 0 0 1 0 0 0

>  <DIFUSE_FUNC_ATOM>  (15) 
atom 6   atom 7   

>  <FINAL_SINGLE_POINT_ENERGY>  (15) 
0

>  <NONCOV_INTER_ENERGY_QM>  (15) 
0

>  <FF_Energy>  (15) 
13.33

>  <QM_Energy>  (15) 
2.25

>  <source>  (15) 
ACET_PRPA_00

>  <Index>  (15) 
3983

$$$$
ACET-pdb1a14-H-GLU-10:PRPA-pdb1a14-H-VAL-18
     RDKit          3D

 18 16  0  0  0  0  0  0  0  0999 V2000
    0.0164    1.5210    0.0114 C   0  0  0  0  0  0  0  0  0  0  0  0
    0.7669    1.8171   -0.5539 H   0  0  0  0  0  0  0  0  0  0  0  0
    0.1239    1.8121    0.9463 H   0  0  0  0  0  0  0  0  0  0  0  0
   -0.8940    1.9762   -0.3786 H   0  0  0  0  0  0  0  0  0  0  0  0
    0.0000    0.0000    0.0000 C   0  0  0  0  0  0  0  0  0  0  0  0
   -1.0992   -0.5955   -0.0000 O   0  0  0  0  0  1  0  0  0  0  0  0
    1.0992   -0.6004    0.0000 O   0  0  0  0  0  0  0  0  0  0  0  0
   -1.2493    3.6645    4.4356 C   0  0  0  0  0  0  0  0  0  0  0  0
   -1.6178    4.2758    3.7356 H   0  0  0  0  0  0  0  0  0  0  0  0
   -1.7000    3.8482    5.3083 H   0  0  0  0  0  0  0  0  0  0  0  0
   -0.2659    3.8200    4.5286 H   0  0  0  0  0  0  0  0  0  0  0  0
   -1.4981    2.2179    4.0294 C   0  0  0  0  0  0  0  0  0  0  0  0
   -2.2891    2.2197    3.4250 H   0  0  0  0  0  0  0  0  0  0  0  0
   -1.7433    1.6120    4.9017 H   0  0  0  0  0  0  0  0  0  0  0  0
   -0.2723    1.6680    3.3623 C   0  0  0  0  0  0  0  0  0  0  0  0
   -0.1980    2.0331    2.4311 H   0  0  0  0  0  0  0  0  0  0  0  0
    0.5455    1.9288    3.8825 H   0  0  0  0  0  0  0  0  0  0  0  0
   -0.3283    0.6667    3.3186 H   0  0  0  0  0  0  0  0  0  0  0  0
  1  5  1  0
  5  6  1  0
  5  7  2  0
  1  2  1  0
  1  3  1  0
  1  4  1  0
  8 12  1  0
 12 15  1  0
  8  9  1  0
  8 10  1  0
  8 11  1  0
 12 13  1  0
 12 14  1  0
 15 16  1  0
 15 17  1  0
 15 18  1  0
M  CHG  1   6  -1
M  END
>  <PDB_ID>  (16) 
pdb1a14

>  <RESIDUE_NAME>  (16) 
GLU   VAL

>  <FRAG_NAME>  (16) 
ACET   PRPA

>  <FRAG_ATOM_NUM>  (16) 
fragi: 7  fragj: 11

>  <atom.prop.CHAIN_ID>  (16) 
A A A A A A A Z Z Z Z Z Z Z Z Z Z Z

>  <atom.prop.IS_HEAVY_ATOM>  (16) 
1 0 0 0 1 1 1 1 0 0 0 1 0 0 1 0 0 0

>  <DIFUSE_FUNC_ATOM>  (16) 
atom 6   atom 7   

>  <FINAL_SINGLE_POINT_ENERGY>  (16) 
0

>  <NONCOV_INTER_ENERGY_QM>  (16) 
0

>  <FF_Energy>  (16) 
19.8

>  <QM_Energy>  (16) 
2.51

>  <source>  (16) 
ACET_PRPA_00

>  <Index>  (16) 
3985

$$$$
ACET-pdb2a3q-A-ASP-76:PRPA-pdb2a3q-B-ARG-54
     RDKit          3D

 18 16  0  0  0  0  0  0  0  0999 V2000
   -0.0781    1.5374   -0.0222 C   0  0  0  0  0  0  0  0  0  0  0  0
    0.7498    1.8860   -0.4274 H   0  0  0  0  0  0  0  0  0  0  0  0
   -0.1977    1.8580    0.9015 H   0  0  0  0  0  0  0  0  0  0  0  0
   -0.9221    1.8884   -0.6161 H   0  0  0  0  0  0  0  0  0  0  0  0
    0.0000    0.0000    0.0000 C   0  0  0  0  0  0  0  0  0  0  0  0
   -1.0802   -0.6135   -0.0000 O   0  0  0  0  0  1  0  0  0  0  0  0
    1.0802   -0.6397   -0.0000 O   0  0  0  0  0  0  0  0  0  0  0  0
   -1.2960   -4.2697    0.5527 C   0  0  0  0  0  0  0  0  0  0  0  0
   -0.9315   -3.4554    1.0248 H   0  0  0  0  0  0  0  0  0  0  0  0
   -0.5138   -4.8366    0.2622 H   0  0  0  0  0  0  0  0  0  0  0  0
   -1.8910   -4.8425    1.2641 H   0  0  0  0  0  0  0  0  0  0  0  0
   -2.0249   -3.8332   -0.6370 C   0  0  0  0  0  0  0  0  0  0  0  0
   -2.1917   -4.5547   -1.2418 H   0  0  0  0  0  0  0  0  0  0  0  0
   -2.7635   -3.2663   -0.4179 H   0  0  0  0  0  0  0  0  0  0  0  0
   -0.9467   -2.9293   -1.2993 C   0  0  0  0  0  0  0  0  0  0  0  0
   -1.2304   -2.0050   -1.1595 H   0  0  0  0  0  0  0  0  0  0  0  0
   -0.0972   -3.1448   -0.8673 H   0  0  0  0  0  0  0  0  0  0  0  0
   -0.9357   -3.1891   -2.3579 H   0  0  0  0  0  0  0  0  0  0  0  0
  1  5  1  0
  5  6  1  0
  5  7  2  0
  1  2  1  0
  1  3  1  0
  1  4  1  0
  8 12  1  0
 12 15  1  0
  8  9  1  0
  8 10  1  0
  8 11  1  0
 12 13  1  0
 12 14  1  0
 15 16  1  0
 15 17  1  0
 15 18  1  0
M  CHG  1   6  -1
M  END
>  <PDB_ID>  (17) 
pdb2a3q

>  <RESIDUE_NAME>  (17) 
ASP   ARG

>  <FRAG_NAME>  (17) 
ACET   PRPA

>  <FRAG_ATOM_NUM>  (17) 
fragi: 7  fragj: 11

>  <atom.prop.CHAIN_ID>  (17) 
A A A A A A A Z Z Z Z Z Z Z Z Z Z Z

>  <atom.prop.IS_HEAVY_ATOM>  (17) 
1 0 0 0 1 1 1 1 0 0 0 1 0 0 1 0 0 0

>  <DIFUSE_FUNC_ATOM>  (17) 
atom 6   atom 7   

>  <FINAL_SINGLE_POINT_ENERGY>  (17) 
0

>  <NONCOV_INTER_ENERGY_QM>  (17) 
0

>  <FF_Energy>  (17) 
27.46

>  <QM_Energy>  (17) 
0.6

>  <source>  (17) 
ACET_PRPA_00

>  <Index>  (17) 
4450

$$$$
ACET-pdb1a70-A-GLU-88:PRPA-pdb1a70-A-LYS-52
     RDKit          3D

 18 16  0  0  0  0  0  0  0  0999 V2000
    0.0118    1.5347   -0.0020 C   0  0  0  0  0  0  0  0  0  0  0  0
    0.5948    1.8198   -0.7404 H   0  0  0  0  0  0  0  0  0  0  0  0
    0.3521    1.8232    0.8744 H   0  0  0  0  0  0  0  0  0  0  0  0
   -0.9738    1.9754   -0.1519 H   0  0  0  0  0  0  0  0  0  0  0  0
    0.0000    0.0000    0.0000 C   0  0  0  0  0  0  0  0  0  0  0  0
   -1.1173   -0.6435    0.0000 O   0  0  0  0  0  1  0  0  0  0  0  0
    1.1173   -0.6453   -0.0000 O   0  0  0  0  0  0  0  0  0  0  0  0
    2.4166    2.3883    2.4536 C   0  0  0  0  0  0  0  0  0  0  0  0
    1.7064    3.0510    2.6602 H   0  0  0  0  0  0  0  0  0  0  0  0
    2.5452    2.3075    1.4729 H   0  0  0  0  0  0  0  0  0  0  0  0
    3.3509    2.7212    2.9057 H   0  0  0  0  0  0  0  0  0  0  0  0
    2.0251    1.0418    3.0207 C   0  0  0  0  0  0  0  0  0  0  0  0
    2.5069    0.3185    2.4943 H   0  0  0  0  0  0  0  0  0  0  0  0
    2.3596    0.9847    3.9788 H   0  0  0  0  0  0  0  0  0  0  0  0
    0.5473    0.7246    3.0171 C   0  0  0  0  0  0  0  0  0  0  0  0
    0.1090    1.2001    3.7816 H   0  0  0  0  0  0  0  0  0  0  0  0
    0.1462    1.0440    2.1569 H   0  0  0  0  0  0  0  0  0  0  0  0
    0.3819   -0.3482    3.1161 H   0  0  0  0  0  0  0  0  0  0  0  0
  1  5  1  0
  5  6  1  0
  5  7  2  0
  1  2  1  0
  1  3  1  0
  1  4  1  0
  8 12  1  0
 12 15  1  0
  8  9  1  0
  8 10  1  0
  8 11  1  0
 12 13  1  0
 12 14  1  0
 15 16  1  0
 15 17  1  0
 15 18  1  0
M  CHG  1   6  -1
M  END
>  <PDB_ID>  (18) 
pdb1a70

>  <RESIDUE_NAME>  (18) 
GLU   LYS

>  <FRAG_NAME>  (18) 
ACET   PRPA

>  <FRAG_ATOM_NUM>  (18) 
fragi: 7  fragj: 11

>  <atom.prop.CHAIN_ID>  (18) 
A A A A A A A Z Z Z Z Z Z Z Z Z Z Z

>  <atom.prop.IS_HEAVY_ATOM>  (18) 
1 0 0 0 1 1 1 1 0 0 0 1 0 0 1 0 0 0

>  <DIFUSE_FUNC_ATOM>  (18) 
atom 6   atom 7   

>  <FINAL_SINGLE_POINT_ENERGY>  (18) 
0

>  <NONCOV_INTER_ENERGY_QM>  (18) 
0

>  <FF_Energy>  (18) 
31.46

>  <QM_Energy>  (18) 
2.52

>  <source>  (18) 
ACET_PRPA_00

>  <Index>  (18) 
6068

$$$$
ACET-pdb1a76-A-ASP-113:PRPA-pdb1a76-A-ILE-109
     RDKit          3D

 18 16  0  0  0  0  0  0  0  0999 V2000
    0.0006    1.5025    0.0050 C   0  0  0  0  0  0  0  0  0  0  0  0
    0.9142    1.8269    0.2269 H   0  0  0  0  0  0  0  0  0  0  0  0
   -0.6540    1.8257    0.6791 H   0  0  0  0  0  0  0  0  0  0  0  0
   -0.2778    1.9241   -0.9608 H   0  0  0  0  0  0  0  0  0  0  0  0
    0.0000    0.0000    0.0000 C   0  0  0  0  0  0  0  0  0  0  0  0
   -1.0995   -0.5892    0.0000 O   0  0  0  0  0  1  0  0  0  0  0  0
    1.0995   -0.5949    0.0000 O   0  0  0  0  0  0  0  0  0  0  0  0
    0.9456    0.4112    2.8513 C   0  0  0  0  0  0  0  0  0  0  0  0
    1.0901    0.4849    1.8617 H   0  0  0  0  0  0  0  0  0  0  0  0
    1.8505    0.7898    3.3267 H   0  0  0  0  0  0  0  0  0  0  0  0
    0.0916    1.0480    3.0827 H   0  0  0  0  0  0  0  0  0  0  0  0
    0.6778   -1.0677    3.2897 C   0  0  0  0  0  0  0  0  0  0  0  0
    1.4661   -1.6028    3.0182 H   0  0  0  0  0  0  0  0  0  0  0  0
    0.5669   -1.1331    4.3720 H   0  0  0  0  0  0  0  0  0  0  0  0
   -0.5538   -1.6183    2.5719 C   0  0  0  0  0  0  0  0  0  0  0  0
   -1.2212   -1.9016    3.2564 H   0  0  0  0  0  0  0  0  0  0  0  0
   -0.9491   -0.8882    2.0184 H   0  0  0  0  0  0  0  0  0  0  0  0
   -0.3380   -2.4658    1.9214 H   0  0  0  0  0  0  0  0  0  0  0  0
  1  5  1  0
  5  6  1  0
  5  7  2  0
  1  2  1  0
  1  3  1  0
  1  4  1  0
  8 12  1  0
 12 15  1  0
  8  9  1  0
  8 10  1  0
  8 11  1  0
 12 13  1  0
 12 14  1  0
 15 16  1  0
 15 17  1  0
 15 18  1  0
M  CHG  1   6  -1
M  END
>  <PDB_ID>  (19) 
pdb1a76

>  <RESIDUE_NAME>  (19) 
ASP   ILE

>  <FRAG_NAME>  (19) 
ACET   PRPA

>  <FRAG_ATOM_NUM>  (19) 
fragi: 7  fragj: 11

>  <atom.prop.CHAIN_ID>  (19) 
A A A A A A A Z Z Z Z Z Z Z Z Z Z Z

>  <atom.prop.IS_HEAVY_ATOM>  (19) 
1 0 0 0 1 1 1 1 0 0 0 1 0 0 1 0 0 0

>  <DIFUSE_FUNC_ATOM>  (19) 
atom 6   atom 7   

>  <FINAL_SINGLE_POINT_ENERGY>  (19) 
0

>  <NONCOV_INTER_ENERGY_QM>  (19) 
0

>  <FF_Energy>  (19) 
21.87

>  <QM_Energy>  (19) 
1.95

>  <source>  (19) 
ACET_PRPA_00

>  <Index>  (19) 
7187

$$$$
ACET-pdb1a76-A-ASP-113:PRPA-pdb1a76-A-ILE-109
     RDKit          3D

 18 16  0  0  0  0  0  0  0  0999 V2000
    0.0006    1.5025    0.0050 C   0  0  0  0  0  0  0  0  0  0  0  0
    0.9142    1.8269    0.2269 H   0  0  0  0  0  0  0  0  0  0  0  0
   -0.6540    1.8257    0.6791 H   0  0  0  0  0  0  0  0  0  0  0  0
   -0.2778    1.9241   -0.9608 H   0  0  0  0  0  0  0  0  0  0  0  0
    0.0000    0.0000    0.0000 C   0  0  0  0  0  0  0  0  0  0  0  0
   -1.0995   -0.5892    0.0000 O   0  0  0  0  0  1  0  0  0  0  0  0
    1.0995   -0.5949    0.0000 O   0  0  0  0  0  0  0  0  0  0  0  0
    0.6778   -1.0677    3.2897 C   0  0  0  0  0  0  0  0  0  0  0  0
    1.4661   -1.6028    3.0182 H   0  0  0  0  0  0  0  0  0  0  0  0
    0.8643   -0.0380    2.9845 H   0  0  0  0  0  0  0  0  0  0  0  0
    0.5669   -1.1331    4.3720 H   0  0  0  0  0  0  0  0  0  0  0  0
   -0.5538   -1.6183    2.5719 C   0  0  0  0  0  0  0  0  0  0  0  0
   -1.2212   -1.9016    3.2564 H   0  0  0  0  0  0  0  0  0  0  0  0
   -0.9491   -0.8882    2.0184 H   0  0  0  0  0  0  0  0  0  0  0  0
   -0.2524   -2.8018    1.6635 C   0  0  0  0  0  0  0  0  0  0  0  0
    0.1339   -3.5423    2.2085 H   0  0  0  0  0  0  0  0  0  0  0  0
   -1.0988   -3.1063    1.2315 H   0  0  0  0  0  0  0  0  0  0  0  0
    0.4014   -2.5191    0.9652 H   0  0  0  0  0  0  0  0  0  0  0  0
  1  5  1  0
  5  6  1  0
  5  7  2  0
  1  2  1  0
  1  3  1  0
  1  4  1  0
  8 12  1  0
 12 15  1  0
  8  9  1  0
  8 10  1  0
  8 11  1  0
 12 13  1  0
 12 14  1  0
 15 16  1  0
 15 17  1  0
 15 18  1  0
M  CHG  1   6  -1
M  END
>  <PDB_ID>  (20) 
pdb1a76

>  <RESIDUE_NAME>  (20) 
ASP   ILE

>  <FRAG_NAME>  (20) 
ACET   PRPA

>  <FRAG_ATOM_NUM>  (20) 
fragi: 7  fragj: 11

>  <atom.prop.CHAIN_ID>  (20) 
A A A A A A A Z Z Z Z Z Z Z Z Z Z Z

>  <atom.prop.IS_HEAVY_ATOM>  (20) 
1 0 0 0 1 1 1 1 0 0 0 1 0 0 1 0 0 0

>  <DIFUSE_FUNC_ATOM>  (20) 
atom 6   atom 7   

>  <FINAL_SINGLE_POINT_ENERGY>  (20) 
0

>  <NONCOV_INTER_ENERGY_QM>  (20) 
0

>  <FF_Energy>  (20) 
13.77

>  <QM_Energy>  (20) 
-1.88

>  <source>  (20) 
ACET_PRPA_00

>  <Index>  (20) 
7195

$$$$
ACET-pdb2aiu-A-GLU-91:PRPA-pdb2aiu-A-ILE-10
     RDKit          3D

 18 16  0  0  0  0  0  0  0  0999 V2000
   -0.0138    1.5469   -0.0030 C   0  0  0  0  0  0  0  0  0  0  0  0
   -0.7450    1.8201    0.5954 H   0  0  0  0  0  0  0  0  0  0  0  0
   -0.1765    1.8210   -0.9342 H   0  0  0  0  0  0  0  0  0  0  0  0
    0.9208    1.9861    0.3460 H   0  0  0  0  0  0  0  0  0  0  0  0
    0.0000    0.0000    0.0000 C   0  0  0  0  0  0  0  0  0  0  0  0
   -1.0967   -0.6016   -0.0000 O   0  0  0  0  0  1  0  0  0  0  0  0
    1.0967   -0.6094    0.0000 O   0  0  0  0  0  0  0  0  0  0  0  0
   -3.5752    1.8515   -2.7084 C   0  0  0  0  0  0  0  0  0  0  0  0
   -3.8380    2.8021   -2.7875 H   0  0  0  0  0  0  0  0  0  0  0  0
   -4.2315    1.2759   -3.3611 H   0  0  0  0  0  0  0  0  0  0  0  0
   -3.6419    1.4781   -1.6866 H   0  0  0  0  0  0  0  0  0  0  0  0
   -2.1236    1.7094   -3.1757 C   0  0  0  0  0  0  0  0  0  0  0  0
   -1.8052    0.7966   -2.9078 H   0  0  0  0  0  0  0  0  0  0  0  0
   -2.1241    1.7524   -4.1793 H   0  0  0  0  0  0  0  0  0  0  0  0
   -1.2162    2.7391   -2.6342 C   0  0  0  0  0  0  0  0  0  0  0  0
   -1.2013    2.6998   -1.6297 H   0  0  0  0  0  0  0  0  0  0  0  0
   -0.2809    2.5957   -2.9739 H   0  0  0  0  0  0  0  0  0  0  0  0
   -1.5204    3.6555   -2.9131 H   0  0  0  0  0  0  0  0  0  0  0  0
  1  5  1  0
  5  6  1  0
  5  7  2  0
  1  2  1  0
  1  3  1  0
  1  4  1  0
  8 12  1  0
 12 15  1  0
  8  9  1  0
  8 10  1  0
  8 11  1  0
 12 13  1  0
 12 14  1  0
 15 16  1  0
 15 17  1  0
 15 18  1  0
M  CHG  1   6  -1
M  END
>  <PDB_ID>  (21) 
pdb2aiu

>  <RESIDUE_NAME>  (21) 
GLU   ILE

>  <FRAG_NAME>  (21) 
ACET   PRPA

>  <FRAG_ATOM_NUM>  (21) 
fragi: 7  fragj: 11

>  <atom.prop.CHAIN_ID>  (21) 
A A A A A A A Z Z Z Z Z Z Z Z Z Z Z

>  <atom.prop.IS_HEAVY_ATOM>  (21) 
1 0 0 0 1 1 1 1 0 0 0 1 0 0 1 0 0 0

>  <DIFUSE_FUNC_ATOM>  (21) 
atom 6   atom 7   

>  <FINAL_SINGLE_POINT_ENERGY>  (21) 
0

>  <NONCOV_INTER_ENERGY_QM>  (21) 
0

>  <FF_Energy>  (21) 
30.19

>  <QM_Energy>  (21) 
4.41

>  <source>  (21) 
ACET_PRPA_00

>  <Index>  (21) 
7304

$$$$
ACET-pdb2ado-A-ASP-1972:PRPA-pdb2ado-A-ARG-1930
     RDKit          3D

 18 16  0  0  0  0  0  0  0  0999 V2000
    0.0098    1.4954    0.0009 C   0  0  0  0  0  0  0  0  0  0  0  0
    0.6264    1.8192   -0.7105 H   0  0  0  0  0  0  0  0  0  0  0  0
    0.3138    1.8208    0.8914 H   0  0  0  0  0  0  0  0  0  0  0  0
   -0.9748    1.9212   -0.1921 H   0  0  0  0  0  0  0  0  0  0  0  0
    0.0000    0.0000    0.0000 C   0  0  0  0  0  0  0  0  0  0  0  0
   -1.0991   -0.6066   -0.0000 O   0  0  0  0  0  1  0  0  0  0  0  0
    1.0991   -0.5795   -0.0000 O   0  0  0  0  0  0  0  0  0  0  0  0
    3.9203   -0.1342   -2.1314 C   0  0  0  0  0  0  0  0  0  0  0  0
    3.0481    0.3747   -2.1453 H   0  0  0  0  0  0  0  0  0  0  0  0
    4.5036    0.1521   -3.0066 H   0  0  0  0  0  0  0  0  0  0  0  0
    4.4502    0.0985   -1.2077 H   0  0  0  0  0  0  0  0  0  0  0  0
    3.6524   -1.6562   -2.1866 C   0  0  0  0  0  0  0  0  0  0  0  0
    3.0578   -1.8340   -2.9716 H   0  0  0  0  0  0  0  0  0  0  0  0
    4.5299   -2.1167   -2.3247 H   0  0  0  0  0  0  0  0  0  0  0  0
    2.9917   -2.2601   -0.9469 C   0  0  0  0  0  0  0  0  0  0  0  0
    3.6507   -2.2897   -0.2004 H   0  0  0  0  0  0  0  0  0  0  0  0
    2.2052   -1.7070   -0.6868 H   0  0  0  0  0  0  0  0  0  0  0  0
    2.6410   -3.2768   -1.1240 H   0  0  0  0  0  0  0  0  0  0  0  0
  1  5  1  0
  5  6  1  0
  5  7  2  0
  1  2  1  0
  1  3  1  0
  1  4  1  0
  8 12  1  0
 12 15  1  0
  8  9  1  0
  8 10  1  0
  8 11  1  0
 12 13  1  0
 12 14  1  0
 15 16  1  0
 15 17  1  0
 15 18  1  0
M  CHG  1   6  -1
M  END
>  <PDB_ID>  (22) 
pdb2ado

>  <RESIDUE_NAME>  (22) 
ASP   ARG

>  <FRAG_NAME>  (22) 
ACET   PRPA

>  <FRAG_ATOM_NUM>  (22) 
fragi: 7  fragj: 11

>  <atom.prop.CHAIN_ID>  (22) 
A A A A A A A Z Z Z Z Z Z Z Z Z Z Z

>  <atom.prop.IS_HEAVY_ATOM>  (22) 
1 0 0 0 1 1 1 1 0 0 0 1 0 0 1 0 0 0

>  <DIFUSE_FUNC_ATOM>  (22) 
atom 6   atom 7   

>  <FINAL_SINGLE_POINT_ENERGY>  (22) 
0

>  <NONCOV_INTER_ENERGY_QM>  (22) 
0

>  <FF_Energy>  (22) 
48.21

>  <QM_Energy>  (22) 
1.41

>  <source>  (22) 
ACET_PRPA_00

>  <Index>  (22) 
7372

$$$$
ACET-pdb2abq-A-GLU-29:PRPA-pdb2abq-A-VAL-17
     RDKit          3D

 18 16  0  0  0  0  0  0  0  0999 V2000
    0.0066    1.5165   -0.0081 C   0  0  0  0  0  0  0  0  0  0  0  0
    0.9412    1.8096   -0.0506 H   0  0  0  0  0  0  0  0  0  0  0  0
   -0.4474    1.8197    0.8068 H   0  0  0  0  0  0  0  0  0  0  0  0
   -0.5208    1.9265   -0.8693 H   0  0  0  0  0  0  0  0  0  0  0  0
    0.0000    0.0000    0.0000 C   0  0  0  0  0  0  0  0  0  0  0  0
   -1.1015   -0.5941    0.0000 O   0  0  0  0  0  1  0  0  0  0  0  0
    1.1015   -0.5961    0.0000 O   0  0  0  0  0  0  0  0  0  0  0  0
    3.8069   -0.4786    0.6875 C   0  0  0  0  0  0  0  0  0  0  0  0
    2.9113   -0.2544    0.3035 H   0  0  0  0  0  0  0  0  0  0  0  0
    3.9378    0.0876    1.6097 H   0  0  0  0  0  0  0  0  0  0  0  0
    3.8168   -1.5420    0.9265 H   0  0  0  0  0  0  0  0  0  0  0  0
    4.9085   -0.1600   -0.3586 C   0  0  0  0  0  0  0  0  0  0  0  0
    4.7498   -0.7422   -1.1433 H   0  0  0  0  0  0  0  0  0  0  0  0
    5.9005   -0.3242    0.0623 H   0  0  0  0  0  0  0  0  0  0  0  0
    4.7604    1.2822   -0.8293 C   0  0  0  0  0  0  0  0  0  0  0  0
    3.9296    1.6766   -0.4378 H   0  0  0  0  0  0  0  0  0  0  0  0
    5.5536    1.8129   -0.5312 H   0  0  0  0  0  0  0  0  0  0  0  0
    4.7007    1.3027   -1.8267 H   0  0  0  0  0  0  0  0  0  0  0  0
  1  5  1  0
  5  6  1  0
  5  7  2  0
  1  2  1  0
  1  3  1  0
  1  4  1  0
  8 12  1  0
 12 15  1  0
  8  9  1  0
  8 10  1  0
  8 11  1  0
 12 13  1  0
 12 14  1  0
 15 16  1  0
 15 17  1  0
 15 18  1  0
M  CHG  1   6  -1
M  END
>  <PDB_ID>  (23) 
pdb2abq

>  <RESIDUE_NAME>  (23) 
GLU   VAL

>  <FRAG_NAME>  (23) 
ACET   PRPA

>  <FRAG_ATOM_NUM>  (23) 
fragi: 7  fragj: 11

>  <atom.prop.CHAIN_ID>  (23) 
A A A A A A A Z Z Z Z Z Z Z Z Z Z Z

>  <atom.prop.IS_HEAVY_ATOM>  (23) 
1 0 0 0 1 1 1 1 0 0 0 1 0 0 1 0 0 0

>  <DIFUSE_FUNC_ATOM>  (23) 
atom 6   atom 7   

>  <FINAL_SINGLE_POINT_ENERGY>  (23) 
0

>  <NONCOV_INTER_ENERGY_QM>  (23) 
0

>  <FF_Energy>  (23) 
17.25

>  <QM_Energy>  (23) 
-0.5

>  <source>  (23) 
ACET_PRPA_00

>  <Index>  (23) 
7781

$$$$
ACET-pdb2abq-A-GLU-29:PRPA-pdb2abq-A-VAL-17
     RDKit          3D

 18 16  0  0  0  0  0  0  0  0999 V2000
    0.0066    1.5165   -0.0081 C   0  0  0  0  0  0  0  0  0  0  0  0
    0.9412    1.8096   -0.0506 H   0  0  0  0  0  0  0  0  0  0  0  0
   -0.4474    1.8197    0.8068 H   0  0  0  0  0  0  0  0  0  0  0  0
   -0.5208    1.9265   -0.8693 H   0  0  0  0  0  0  0  0  0  0  0  0
    0.0000    0.0000    0.0000 C   0  0  0  0  0  0  0  0  0  0  0  0
   -1.1015   -0.5941    0.0000 O   0  0  0  0  0  1  0  0  0  0  0  0
    1.1015   -0.5961    0.0000 O   0  0  0  0  0  0  0  0  0  0  0  0
    3.8069   -0.4786    0.6875 C   0  0  0  0  0  0  0  0  0  0  0  0
    2.9113   -0.2544    0.3035 H   0  0  0  0  0  0  0  0  0  0  0  0
    3.9378    0.0876    1.6097 H   0  0  0  0  0  0  0  0  0  0  0  0
    3.8168   -1.5420    0.9265 H   0  0  0  0  0  0  0  0  0  0  0  0
    4.9085   -0.1600   -0.3586 C   0  0  0  0  0  0  0  0  0  0  0  0
    4.7498   -0.7422   -1.1433 H   0  0  0  0  0  0  0  0  0  0  0  0
    4.8026    0.8712   -0.6952 H   0  0  0  0  0  0  0  0  0  0  0  0
    6.2916   -0.3890    0.2283 C   0  0  0  0  0  0  0  0  0  0  0  0
    6.2082   -0.9059    1.0799 H   0  0  0  0  0  0  0  0  0  0  0  0
    6.8467   -0.9049   -0.4240 H   0  0  0  0  0  0  0  0  0  0  0  0
    6.7237    0.4938    0.4125 H   0  0  0  0  0  0  0  0  0  0  0  0
  1  5  1  0
  5  6  1  0
  5  7  2  0
  1  2  1  0
  1  3  1  0
  1  4  1  0
  8 12  1  0
 12 15  1  0
  8  9  1  0
  8 10  1  0
  8 11  1  0
 12 13  1  0
 12 14  1  0
 15 16  1  0
 15 17  1  0
 15 18  1  0
M  CHG  1   6  -1
M  END
>  <PDB_ID>  (24) 
pdb2abq

>  <RESIDUE_NAME>  (24) 
GLU   VAL

>  <FRAG_NAME>  (24) 
ACET   PRPA

>  <FRAG_ATOM_NUM>  (24) 
fragi: 7  fragj: 11

>  <atom.prop.CHAIN_ID>  (24) 
A A A A A A A Z Z Z Z Z Z Z Z Z Z Z

>  <atom.prop.IS_HEAVY_ATOM>  (24) 
1 0 0 0 1 1 1 1 0 0 0 1 0 0 1 0 0 0

>  <DIFUSE_FUNC_ATOM>  (24) 
atom 6   atom 7   

>  <FINAL_SINGLE_POINT_ENERGY>  (24) 
0

>  <NONCOV_INTER_ENERGY_QM>  (24) 
0

>  <FF_Energy>  (24) 
17.02

>  <QM_Energy>  (24) 
0.32

>  <source>  (24) 
ACET_PRPA_00

>  <Index>  (24) 
7786

$$$$
ACET-pdb1a8h-A-GLU-51:PRPA-pdb1a8h-A-VAL-14
     RDKit          3D

 18 16  0  0  0  0  0  0  0  0999 V2000
    0.0025    1.5102    0.0099 C   0  0  0  0  0  0  0  0  0  0  0  0
    0.7696    1.8119   -0.5323 H   0  0  0  0  0  0  0  0  0  0  0  0
    0.0830    1.8034    0.9488 H   0  0  0  0  0  0  0  0  0  0  0  0
   -0.9033    1.9494   -0.4083 H   0  0  0  0  0  0  0  0  0  0  0  0
    0.0000    0.0000    0.0000 C   0  0  0  0  0  0  0  0  0  0  0  0
   -1.0968   -0.5975    0.0000 O   0  0  0  0  0  1  0  0  0  0  0  0
    1.0968   -0.5888   -0.0000 O   0  0  0  0  0  0  0  0  0  0  0  0
    3.2990    3.5893   -3.7543 C   0  0  0  0  0  0  0  0  0  0  0  0
    4.0743    3.0232   -3.3672 H   0  0  0  0  0  0  0  0  0  0  0  0
    3.2771    4.5290   -3.2024 H   0  0  0  0  0  0  0  0  0  0  0  0
    3.4342    3.6373   -4.8348 H   0  0  0  0  0  0  0  0  0  0  0  0
    2.0247    2.7618   -3.5174 C   0  0  0  0  0  0  0  0  0  0  0  0
    1.9585    2.0985   -4.2547 H   0  0  0  0  0  0  0  0  0  0  0  0
    1.1459    3.4065   -3.5153 H   0  0  0  0  0  0  0  0  0  0  0  0
    2.1531    1.9996   -2.2323 C   0  0  0  0  0  0  0  0  0  0  0  0
    1.6484    1.1345   -2.2917 H   0  0  0  0  0  0  0  0  0  0  0  0
    3.1190    1.7989   -2.0449 H   0  0  0  0  0  0  0  0  0  0  0  0
    1.7811    2.5395   -1.4723 H   0  0  0  0  0  0  0  0  0  0  0  0
  1  5  1  0
  5  6  1  0
  5  7  2  0
  1  2  1  0
  1  3  1  0
  1  4  1  0
  8 12  1  0
 12 15  1  0
  8  9  1  0
  8 10  1  0
  8 11  1  0
 12 13  1  0
 12 14  1  0
 15 16  1  0
 15 17  1  0
 15 18  1  0
M  CHG  1   6  -1
M  END
>  <PDB_ID>  (25) 
pdb1a8h

>  <RESIDUE_NAME>  (25) 
GLU   VAL

>  <FRAG_NAME>  (25) 
ACET   PRPA

>  <FRAG_ATOM_NUM>  (25) 
fragi: 7  fragj: 11

>  <atom.prop.CHAIN_ID>  (25) 
A A A A A A A Z Z Z Z Z Z Z Z Z Z Z

>  <atom.prop.IS_HEAVY_ATOM>  (25) 
1 0 0 0 1 1 1 1 0 0 0 1 0 0 1 0 0 0

>  <DIFUSE_FUNC_ATOM>  (25) 
atom 6   atom 7   

>  <FINAL_SINGLE_POINT_ENERGY>  (25) 
0

>  <NONCOV_INTER_ENERGY_QM>  (25) 
0

>  <FF_Energy>  (25) 
22.06

>  <QM_Energy>  (25) 
4.07

>  <source>  (25) 
ACET_PRPA_00

>  <Index>  (25) 
8221

$$$$
ACET-pdb1aac-A-ASP-89:PRPA-pdb1aac-A-LYS-101
     RDKit          3D

 18 16  0  0  0  0  0  0  0  0999 V2000
    0.0380    1.5111   -0.0041 C   0  0  0  0  0  0  0  0  0  0  0  0
    0.8413    1.8032   -0.5397 H   0  0  0  0  0  0  0  0  0  0  0  0
    0.1646    1.8250    0.9456 H   0  0  0  0  0  0  0  0  0  0  0  0
   -0.8452    2.0009   -0.4141 H   0  0  0  0  0  0  0  0  0  0  0  0
    0.0000    0.0000    0.0000 C   0  0  0  0  0  0  0  0  0  0  0  0
   -1.0680   -0.5934   -0.0000 O   0  0  0  0  0  1  0  0  0  0  0  0
    1.0680   -0.5950   -0.0000 O   0  0  0  0  0  0  0  0  0  0  0  0
   -5.0229    1.2610    0.8428 C   0  0  0  0  0  0  0  0  0  0  0  0
   -4.3932    1.8852    0.3908 H   0  0  0  0  0  0  0  0  0  0  0  0
   -5.1607    1.5728    1.8781 H   0  0  0  0  0  0  0  0  0  0  0  0
   -5.9937    1.3233    0.3510 H   0  0  0  0  0  0  0  0  0  0  0  0
   -4.4904   -0.1629    0.7438 C   0  0  0  0  0  0  0  0  0  0  0  0
   -5.1529   -0.7784    1.1688 H   0  0  0  0  0  0  0  0  0  0  0  0
   -4.3921   -0.3958   -0.2239 H   0  0  0  0  0  0  0  0  0  0  0  0
   -3.1404   -0.3776    1.4233 C   0  0  0  0  0  0  0  0  0  0  0  0
   -2.4655    0.2274    1.0008 H   0  0  0  0  0  0  0  0  0  0  0  0
   -3.2263   -0.1552    2.3936 H   0  0  0  0  0  0  0  0  0  0  0  0
   -2.8015   -1.4088    1.3247 H   0  0  0  0  0  0  0  0  0  0  0  0
  1  5  1  0
  5  6  1  0
  5  7  2  0
  1  2  1  0
  1  3  1  0
  1  4  1  0
  8 12  1  0
 12 15  1  0
  8  9  1  0
  8 10  1  0
  8 11  1  0
 12 13  1  0
 12 14  1  0
 15 16  1  0
 15 17  1  0
 15 18  1  0
M  CHG  1   6  -1
M  END
>  <PDB_ID>  (26) 
pdb1aac

>  <RESIDUE_NAME>  (26) 
ASP   LYS

>  <FRAG_NAME>  (26) 
ACET   PRPA

>  <FRAG_ATOM_NUM>  (26) 
fragi: 7  fragj: 11

>  <atom.prop.CHAIN_ID>  (26) 
A A A A A A A Z Z Z Z Z Z Z Z Z Z Z

>  <atom.prop.IS_HEAVY_ATOM>  (26) 
1 0 0 0 1 1 1 1 0 0 0 1 0 0 1 0 0 0

>  <DIFUSE_FUNC_ATOM>  (26) 
atom 6   atom 7   

>  <FINAL_SINGLE_POINT_ENERGY>  (26) 
0

>  <NONCOV_INTER_ENERGY_QM>  (26) 
0

>  <FF_Energy>  (26) 
22.02

>  <QM_Energy>  (26) 
5.89

>  <source>  (26) 
ACET_PRPA_00

>  <Index>  (26) 
8508

$$$$
ACET-pdb1aac-A-ASP-89:PRPA-pdb1aac-A-LYS-101
     RDKit          3D

 18 16  0  0  0  0  0  0  0  0999 V2000
    0.0380    1.5111   -0.0041 C   0  0  0  0  0  0  0  0  0  0  0  0
    0.8413    1.8032   -0.5397 H   0  0  0  0  0  0  0  0  0  0  0  0
    0.1646    1.8250    0.9456 H   0  0  0  0  0  0  0  0  0  0  0  0
   -0.8452    2.0009   -0.4141 H   0  0  0  0  0  0  0  0  0  0  0  0
    0.0000    0.0000    0.0000 C   0  0  0  0  0  0  0  0  0  0  0  0
   -1.0680   -0.5934   -0.0000 O   0  0  0  0  0  1  0  0  0  0  0  0
    1.0680   -0.5950   -0.0000 O   0  0  0  0  0  0  0  0  0  0  0  0
   -4.4904   -0.1629    0.7438 C   0  0  0  0  0  0  0  0  0  0  0  0
   -5.1529   -0.7784    1.1688 H   0  0  0  0  0  0  0  0  0  0  0  0
   -4.3921   -0.3958   -0.2239 H   0  0  0  0  0  0  0  0  0  0  0  0
   -4.8714    0.8558    0.8146 H   0  0  0  0  0  0  0  0  0  0  0  0
   -3.1404   -0.3776    1.4233 C   0  0  0  0  0  0  0  0  0  0  0  0
   -2.4655    0.2274    1.0008 H   0  0  0  0  0  0  0  0  0  0  0  0
   -3.2263   -0.1552    2.3936 H   0  0  0  0  0  0  0  0  0  0  0  0
   -2.6676   -1.8159    1.2859 C   0  0  0  0  0  0  0  0  0  0  0  0
   -3.3477   -2.4180    1.7060 H   0  0  0  0  0  0  0  0  0  0  0  0
   -2.5853   -2.0346    0.3123 H   0  0  0  0  0  0  0  0  0  0  0  0
   -1.7041   -1.9867    1.7661 H   0  0  0  0  0  0  0  0  0  0  0  0
  1  5  1  0
  5  6  1  0
  5  7  2  0
  1  2  1  0
  1  3  1  0
  1  4  1  0
  8 12  1  0
 12 15  1  0
  8  9  1  0
  8 10  1  0
  8 11  1  0
 12 13  1  0
 12 14  1  0
 15 16  1  0
 15 17  1  0
 15 18  1  0
M  CHG  1   6  -1
M  END
>  <PDB_ID>  (27) 
pdb1aac

>  <RESIDUE_NAME>  (27) 
ASP   LYS

>  <FRAG_NAME>  (27) 
ACET   PRPA

>  <FRAG_ATOM_NUM>  (27) 
fragi: 7  fragj: 11

>  <atom.prop.CHAIN_ID>  (27) 
A A A A A A A Z Z Z Z Z Z Z Z Z Z Z

>  <atom.prop.IS_HEAVY_ATOM>  (27) 
1 0 0 0 1 1 1 1 0 0 0 1 0 0 1 0 0 0

>  <DIFUSE_FUNC_ATOM>  (27) 
atom 6   atom 7   

>  <FINAL_SINGLE_POINT_ENERGY>  (27) 
0

>  <NONCOV_INTER_ENERGY_QM>  (27) 
0

>  <FF_Energy>  (27) 
45.37

>  <QM_Energy>  (27) 
9.74

>  <source>  (27) 
ACET_PRPA_00

>  <Index>  (27) 
8509

$$$$
ACET-pdb2abq-A-GLU-98:PRPA-pdb2abq-A-LYS-94
     RDKit          3D

 18 16  0  0  0  0  0  0  0  0999 V2000
    0.0115    1.5233    0.0007 C   0  0  0  0  0  0  0  0  0  0  0  0
   -0.4731    1.8217   -0.8020 H   0  0  0  0  0  0  0  0  0  0  0  0
    0.9530    1.8108   -0.0065 H   0  0  0  0  0  0  0  0  0  0  0  0
   -0.4737    1.9570    0.8751 H   0  0  0  0  0  0  0  0  0  0  0  0
    0.0000    0.0000    0.0000 C   0  0  0  0  0  0  0  0  0  0  0  0
   -1.1005   -0.6002    0.0000 O   0  0  0  0  0  1  0  0  0  0  0  0
    1.1005   -0.5918   -0.0000 O   0  0  0  0  0  0  0  0  0  0  0  0
   -2.8192   -3.8080   -0.1383 C   0  0  0  0  0  0  0  0  0  0  0  0
   -3.5708   -4.3660    0.2258 H   0  0  0  0  0  0  0  0  0  0  0  0
   -2.0995   -4.4168   -0.4820 H   0  0  0  0  0  0  0  0  0  0  0  0
   -3.1979   -3.2113   -0.9681 H   0  0  0  0  0  0  0  0  0  0  0  0
   -2.2496   -2.9541    0.9862 C   0  0  0  0  0  0  0  0  0  0  0  0
   -1.6219   -2.2854    0.5958 H   0  0  0  0  0  0  0  0  0  0  0  0
   -2.9984   -2.4903    1.4507 H   0  0  0  0  0  0  0  0  0  0  0  0
   -1.4913   -3.7910    2.0080 C   0  0  0  0  0  0  0  0  0  0  0  0
   -1.2834   -3.2201    2.8068 H   0  0  0  0  0  0  0  0  0  0  0  0
   -2.0724   -4.5563    2.2983 H   0  0  0  0  0  0  0  0  0  0  0  0
   -0.5599   -4.1876    1.6038 H   0  0  0  0  0  0  0  0  0  0  0  0
  1  5  1  0
  5  6  1  0
  5  7  2  0
  1  2  1  0
  1  3  1  0
  1  4  1  0
  8 12  1  0
 12 15  1  0
  8  9  1  0
  8 10  1  0
  8 11  1  0
 12 13  1  0
 12 14  1  0
 15 16  1  0
 15 17  1  0
 15 18  1  0
M  CHG  1   6  -1
M  END
>  <PDB_ID>  (28) 
pdb2abq

>  <RESIDUE_NAME>  (28) 
GLU   LYS

>  <FRAG_NAME>  (28) 
ACET   PRPA

>  <FRAG_ATOM_NUM>  (28) 
fragi: 7  fragj: 11

>  <atom.prop.CHAIN_ID>  (28) 
A A A A A A A Z Z Z Z Z Z Z Z Z Z Z

>  <atom.prop.IS_HEAVY_ATOM>  (28) 
1 0 0 0 1 1 1 1 0 0 0 1 0 0 1 0 0 0

>  <DIFUSE_FUNC_ATOM>  (28) 
atom 6   atom 7   

>  <FINAL_SINGLE_POINT_ENERGY>  (28) 
0

>  <NONCOV_INTER_ENERGY_QM>  (28) 
0

>  <FF_Energy>  (28) 
20.8

>  <QM_Energy>  (28) 
-0.56

>  <source>  (28) 
ACET_PRPA_00

>  <Index>  (28) 
8661

$$$$
ACET-pdb2abq-A-GLU-98:PRPA-pdb2abq-A-LYS-94
     RDKit          3D

 18 16  0  0  0  0  0  0  0  0999 V2000
    0.0115    1.5233    0.0007 C   0  0  0  0  0  0  0  0  0  0  0  0
   -0.4731    1.8217   -0.8020 H   0  0  0  0  0  0  0  0  0  0  0  0
    0.9530    1.8108   -0.0065 H   0  0  0  0  0  0  0  0  0  0  0  0
   -0.4737    1.9570    0.8751 H   0  0  0  0  0  0  0  0  0  0  0  0
    0.0000    0.0000    0.0000 C   0  0  0  0  0  0  0  0  0  0  0  0
   -1.1005   -0.6002    0.0000 O   0  0  0  0  0  1  0  0  0  0  0  0
    1.1005   -0.5918   -0.0000 O   0  0  0  0  0  0  0  0  0  0  0  0
   -3.3520   -2.9686   -1.3058 C   0  0  0  0  0  0  0  0  0  0  0  0
   -4.0779   -3.4926   -1.7585 H   0  0  0  0  0  0  0  0  0  0  0  0
   -2.5994   -2.8273   -1.9555 H   0  0  0  0  0  0  0  0  0  0  0  0
   -3.7561   -1.9918   -1.0402 H   0  0  0  0  0  0  0  0  0  0  0  0
   -2.8192   -3.8080   -0.1383 C   0  0  0  0  0  0  0  0  0  0  0  0
   -3.5708   -4.3660    0.2258 H   0  0  0  0  0  0  0  0  0  0  0  0
   -2.0995   -4.4168   -0.4820 H   0  0  0  0  0  0  0  0  0  0  0  0
   -2.2496   -2.9541    0.9862 C   0  0  0  0  0  0  0  0  0  0  0  0
   -1.6219   -2.2854    0.5958 H   0  0  0  0  0  0  0  0  0  0  0  0
   -2.9984   -2.4903    1.4507 H   0  0  0  0  0  0  0  0  0  0  0  0
   -1.7068   -3.5531    1.7175 H   0  0  0  0  0  0  0  0  0  0  0  0
  1  5  1  0
  5  6  1  0
  5  7  2  0
  1  2  1  0
  1  3  1  0
  1  4  1  0
  8 12  1  0
 12 15  1  0
  8  9  1  0
  8 10  1  0
  8 11  1  0
 12 13  1  0
 12 14  1  0
 15 16  1  0
 15 17  1  0
 15 18  1  0
M  CHG  1   6  -1
M  END
>  <PDB_ID>  (29) 
pdb2abq

>  <RESIDUE_NAME>  (29) 
GLU   LYS

>  <FRAG_NAME>  (29) 
ACET   PRPA

>  <FRAG_ATOM_NUM>  (29) 
fragi: 7  fragj: 11

>  <atom.prop.CHAIN_ID>  (29) 
A A A A A A A Z Z Z Z Z Z Z Z Z Z Z

>  <atom.prop.IS_HEAVY_ATOM>  (29) 
1 0 0 0 1 1 1 1 0 0 0 1 0 0 1 0 0 0

>  <DIFUSE_FUNC_ATOM>  (29) 
atom 6   atom 7   

>  <FINAL_SINGLE_POINT_ENERGY>  (29) 
0

>  <NONCOV_INTER_ENERGY_QM>  (29) 
0

>  <FF_Energy>  (29) 
18.59

>  <QM_Energy>  (29) 
-0.54

>  <source>  (29) 
ACET_PRPA_00

>  <Index>  (29) 
8664

$$$$
ACET-pdb1a8l-A-GLU-177:PRPA-pdb1a8l-A-GLH-180
     RDKit          3D

 18 16  0  0  0  0  0  0  0  0999 V2000
   -0.0042    1.5006   -0.0115 C   0  0  0  0  0  0  0  0  0  0  0  0
    0.8572    1.8064    0.3371 H   0  0  0  0  0  0  0  0  0  0  0  0
   -0.7643    1.8033    0.5252 H   0  0  0  0  0  0  0  0  0  0  0  0
   -0.1217    1.8804   -1.0264 H   0  0  0  0  0  0  0  0  0  0  0  0
    0.0000    0.0000    0.0000 C   0  0  0  0  0  0  0  0  0  0  0  0
   -1.1012   -0.5896    0.0000 O   0  0  0  0  0  1  0  0  0  0  0  0
    1.1012   -0.5890    0.0000 O   0  0  0  0  0  0  0  0  0  0  0  0
   -3.0197   -2.3127   -3.2117 C   0  0  0  0  0  0  0  0  0  0  0  0
   -3.6858   -3.0154   -2.8866 H   0  0  0  0  0  0  0  0  0  0  0  0
   -2.0501   -2.4951   -2.7484 H   0  0  0  0  0  0  0  0  0  0  0  0
   -3.0050   -2.3135   -4.3016 H   0  0  0  0  0  0  0  0  0  0  0  0
   -3.5868   -0.9823   -2.7107 C   0  0  0  0  0  0  0  0  0  0  0  0
   -3.0490   -0.2621   -3.1031 H   0  0  0  0  0  0  0  0  0  0  0  0
   -4.5291   -0.9385   -2.9777 H   0  0  0  0  0  0  0  0  0  0  0  0
   -3.5258   -0.8354   -1.1993 C   0  0  0  0  0  0  0  0  0  0  0  0
   -4.2578   -1.3618   -0.8097 H   0  0  0  0  0  0  0  0  0  0  0  0
   -2.6434   -1.1379   -0.8941 H   0  0  0  0  0  0  0  0  0  0  0  0
   -3.6514    0.1975   -0.8746 H   0  0  0  0  0  0  0  0  0  0  0  0
  1  5  1  0
  5  6  1  0
  5  7  2  0
  1  2  1  0
  1  3  1  0
  1  4  1  0
  8 12  1  0
 12 15  1  0
  8  9  1  0
  8 10  1  0
  8 11  1  0
 12 13  1  0
 12 14  1  0
 15 16  1  0
 15 17  1  0
 15 18  1  0
M  CHG  1   6  -1
M  END
>  <PDB_ID>  (30) 
pdb1a8l

>  <RESIDUE_NAME>  (30) 
GLU   GLH

>  <FRAG_NAME>  (30) 
ACET   PRPA

>  <FRAG_ATOM_NUM>  (30) 
fragi: 7  fragj: 11

>  <atom.prop.CHAIN_ID>  (30) 
A A A A A A A Z Z Z Z Z Z Z Z Z Z Z

>  <atom.prop.IS_HEAVY_ATOM>  (30) 
1 0 0 0 1 1 1 1 0 0 0 1 0 0 1 0 0 0

>  <DIFUSE_FUNC_ATOM>  (30) 
atom 6   atom 7   

>  <FINAL_SINGLE_POINT_ENERGY>  (30) 
0

>  <NONCOV_INTER_ENERGY_QM>  (30) 
0

>  <FF_Energy>  (30) 
18.75

>  <QM_Energy>  (30) 
0.77

>  <source>  (30) 
ACET_PRPA_00

>  <Index>  (30) 
8699

$$$$
ACET-pdb1a49-A-GLU-197:PRPA-pdb1a49-A-LYS-172
     RDKit          3D

 18 16  0  0  0  0  0  0  0  0999 V2000
    0.2505    1.4687   -0.0747 C   0  0  0  0  0  0  0  0  0  0  0  0
    1.2136    1.6163   -0.1731 H   0  0  0  0  0  0  0  0  0  0  0  0
   -0.1185    1.8896    0.7297 H   0  0  0  0  0  0  0  0  0  0  0  0
   -0.2412    1.9183   -0.9373 H   0  0  0  0  0  0  0  0  0  0  0  0
    0.0000    0.0000    0.0000 C   0  0  0  0  0  0  0  0  0  0  0  0
   -1.1233   -0.4932   -0.0000 O   0  0  0  0  0  1  0  0  0  0  0  0
    1.1233   -0.7064    0.0000 O   0  0  0  0  0  0  0  0  0  0  0  0
   -2.4483   -2.2065    1.9811 C   0  0  0  0  0  0  0  0  0  0  0  0
   -2.6807   -2.0388    1.0203 H   0  0  0  0  0  0  0  0  0  0  0  0
   -2.1852   -1.3399    2.4105 H   0  0  0  0  0  0  0  0  0  0  0  0
   -3.3082   -2.6302    2.4998 H   0  0  0  0  0  0  0  0  0  0  0  0
   -1.2705   -3.1490    2.0344 C   0  0  0  0  0  0  0  0  0  0  0  0
   -0.7270   -2.9472    2.8582 H   0  0  0  0  0  0  0  0  0  0  0  0
   -1.6101   -4.0942    2.1017 H   0  0  0  0  0  0  0  0  0  0  0  0
   -0.3494   -3.0615    0.8267 C   0  0  0  0  0  0  0  0  0  0  0  0
   -0.7628   -3.5847    0.0676 H   0  0  0  0  0  0  0  0  0  0  0  0
   -0.2870   -2.0955    0.5380 H   0  0  0  0  0  0  0  0  0  0  0  0
    0.6527   -3.4430    1.0225 H   0  0  0  0  0  0  0  0  0  0  0  0
  1  5  1  0
  5  6  1  0
  5  7  2  0
  1  2  1  0
  1  3  1  0
  1  4  1  0
  8 12  1  0
 12 15  1  0
  8  9  1  0
  8 10  1  0
  8 11  1  0
 12 13  1  0
 12 14  1  0
 15 16  1  0
 15 17  1  0
 15 18  1  0
M  CHG  1   6  -1
M  END
>  <PDB_ID>  (31) 
pdb1a49

>  <RESIDUE_NAME>  (31) 
GLU   LYS

>  <FRAG_NAME>  (31) 
ACET   PRPA

>  <FRAG_ATOM_NUM>  (31) 
fragi: 7  fragj: 11

>  <atom.prop.CHAIN_ID>  (31) 
A A A A A A A Z Z Z Z Z Z Z Z Z Z Z

>  <atom.prop.IS_HEAVY_ATOM>  (31) 
1 0 0 0 1 1 1 1 0 0 0 1 0 0 1 0 0 0

>  <DIFUSE_FUNC_ATOM>  (31) 
atom 6   atom 7   

>  <FINAL_SINGLE_POINT_ENERGY>  (31) 
0

>  <NONCOV_INTER_ENERGY_QM>  (31) 
0

>  <FF_Energy>  (31) 
29.77

>  <QM_Energy>  (31) 
3.75

>  <source>  (31) 
ACET_PRPA_00

>  <Index>  (31) 
8733

$$$$
ACET-pdb2abq-A-GLU-153:PRPA-pdb2abq-A-ILE-150
     RDKit          3D

 18 16  0  0  0  0  0  0  0  0999 V2000
    0.0031    1.5254    0.0204 C   0  0  0  0  0  0  0  0  0  0  0  0
   -0.3579    1.8047    0.8883 H   0  0  0  0  0  0  0  0  0  0  0  0
   -0.5488    1.8264   -0.7322 H   0  0  0  0  0  0  0  0  0  0  0  0
    1.0064    1.9364   -0.0914 H   0  0  0  0  0  0  0  0  0  0  0  0
    0.0000    0.0000    0.0000 C   0  0  0  0  0  0  0  0  0  0  0  0
   -1.0952   -0.5940   -0.0000 O   0  0  0  0  0  1  0  0  0  0  0  0
    1.0952   -0.6065   -0.0000 O   0  0  0  0  0  0  0  0  0  0  0  0
   -2.4103    0.4741    2.1859 C   0  0  0  0  0  0  0  0  0  0  0  0
   -1.8673    0.2687    1.3772 H   0  0  0  0  0  0  0  0  0  0  0  0
   -1.8923    0.0093    3.0247 H   0  0  0  0  0  0  0  0  0  0  0  0
   -2.3827    1.5555    2.3201 H   0  0  0  0  0  0  0  0  0  0  0  0
   -3.8892    0.0105    2.1306 C   0  0  0  0  0  0  0  0  0  0  0  0
   -4.2836    0.1550    3.0239 H   0  0  0  0  0  0  0  0  0  0  0  0
   -4.4351    0.5691    1.3703 H   0  0  0  0  0  0  0  0  0  0  0  0
   -3.9306   -1.4881    1.8238 C   0  0  0  0  0  0  0  0  0  0  0  0
   -3.6871   -1.6192    0.8589 H   0  0  0  0  0  0  0  0  0  0  0  0
   -3.2276   -1.9409    2.3820 H   0  0  0  0  0  0  0  0  0  0  0  0
   -4.8886   -1.9722    2.0135 H   0  0  0  0  0  0  0  0  0  0  0  0
  1  5  1  0
  5  6  1  0
  5  7  2  0
  1  2  1  0
  1  3  1  0
  1  4  1  0
  8 12  1  0
 12 15  1  0
  8  9  1  0
  8 10  1  0
  8 11  1  0
 12 13  1  0
 12 14  1  0
 15 16  1  0
 15 17  1  0
 15 18  1  0
M  CHG  1   6  -1
M  END
>  <PDB_ID>  (32) 
pdb2abq

>  <RESIDUE_NAME>  (32) 
GLU   ILE

>  <FRAG_NAME>  (32) 
ACET   PRPA

>  <FRAG_ATOM_NUM>  (32) 
fragi: 7  fragj: 11

>  <atom.prop.CHAIN_ID>  (32) 
A A A A A A A Z Z Z Z Z Z Z Z Z Z Z

>  <atom.prop.IS_HEAVY_ATOM>  (32) 
1 0 0 0 1 1 1 1 0 0 0 1 0 0 1 0 0 0

>  <DIFUSE_FUNC_ATOM>  (32) 
atom 6   atom 7   

>  <FINAL_SINGLE_POINT_ENERGY>  (32) 
0

>  <NONCOV_INTER_ENERGY_QM>  (32) 
0

>  <FF_Energy>  (32) 
31.67

>  <QM_Energy>  (32) 
1.22

>  <source>  (32) 
ACET_PRPA_00

>  <Index>  (32) 
9312

$$$$
ACET-pdb2abq-A-GLU-153:PRPA-pdb2abq-A-ILE-150
     RDKit          3D

 18 16  0  0  0  0  0  0  0  0999 V2000
    0.0031    1.5254    0.0204 C   0  0  0  0  0  0  0  0  0  0  0  0
   -0.3579    1.8047    0.8883 H   0  0  0  0  0  0  0  0  0  0  0  0
   -0.5488    1.8264   -0.7322 H   0  0  0  0  0  0  0  0  0  0  0  0
    1.0064    1.9364   -0.0914 H   0  0  0  0  0  0  0  0  0  0  0  0
    0.0000    0.0000    0.0000 C   0  0  0  0  0  0  0  0  0  0  0  0
   -1.0952   -0.5940   -0.0000 O   0  0  0  0  0  1  0  0  0  0  0  0
    1.0952   -0.6065   -0.0000 O   0  0  0  0  0  0  0  0  0  0  0  0
   -2.4103    0.4741    2.1859 C   0  0  0  0  0  0  0  0  0  0  0  0
   -1.8673    0.2687    1.3772 H   0  0  0  0  0  0  0  0  0  0  0  0
   -1.8923    0.0093    3.0247 H   0  0  0  0  0  0  0  0  0  0  0  0
   -2.3827    1.5555    2.3201 H   0  0  0  0  0  0  0  0  0  0  0  0
   -3.8892    0.0105    2.1306 C   0  0  0  0  0  0  0  0  0  0  0  0
   -4.2836    0.1550    3.0239 H   0  0  0  0  0  0  0  0  0  0  0  0
   -3.9187   -1.0570    1.9121 H   0  0  0  0  0  0  0  0  0  0  0  0
   -4.6665    0.8059    1.0481 C   0  0  0  0  0  0  0  0  0  0  0  0
   -5.6109    0.4965    1.0421 H   0  0  0  0  0  0  0  0  0  0  0  0
   -4.6235    1.7728    1.2713 H   0  0  0  0  0  0  0  0  0  0  0  0
   -4.2437    0.6379    0.1644 H   0  0  0  0  0  0  0  0  0  0  0  0
  1  5  1  0
  5  6  1  0
  5  7  2  0
  1  2  1  0
  1  3  1  0
  1  4  1  0
  8 12  1  0
 12 15  1  0
  8  9  1  0
  8 10  1  0
  8 11  1  0
 12 13  1  0
 12 14  1  0
 15 16  1  0
 15 17  1  0
 15 18  1  0
M  CHG  1   6  -1
M  END
>  <PDB_ID>  (33) 
pdb2abq

>  <RESIDUE_NAME>  (33) 
GLU   ILE

>  <FRAG_NAME>  (33) 
ACET   PRPA

>  <FRAG_ATOM_NUM>  (33) 
fragi: 7  fragj: 11

>  <atom.prop.CHAIN_ID>  (33) 
A A A A A A A Z Z Z Z Z Z Z Z Z Z Z

>  <atom.prop.IS_HEAVY_ATOM>  (33) 
1 0 0 0 1 1 1 1 0 0 0 1 0 0 1 0 0 0

>  <DIFUSE_FUNC_ATOM>  (33) 
atom 6   atom 7   

>  <FINAL_SINGLE_POINT_ENERGY>  (33) 
0

>  <NONCOV_INTER_ENERGY_QM>  (33) 
0

>  <FF_Energy>  (33) 
31.4

>  <QM_Energy>  (33) 
1.72

>  <source>  (33) 
ACET_PRPA_00

>  <Index>  (33) 
9317

$$$$
ACET-pdb1a8m-A-GLU-116:PRPA-pdb1a8m-A-LYS-98
     RDKit          3D

 18 16  0  0  0  0  0  0  0  0999 V2000
   -0.0551    1.4928   -0.0528 C   0  0  0  0  0  0  0  0  0  0  0  0
    0.8624    1.8289   -0.1292 H   0  0  0  0  0  0  0  0  0  0  0  0
   -0.5096    1.8094    0.7553 H   0  0  0  0  0  0  0  0  0  0  0  0
   -0.6186    1.8350   -0.9208 H   0  0  0  0  0  0  0  0  0  0  0  0
    0.0000    0.0000    0.0000 C   0  0  0  0  0  0  0  0  0  0  0  0
   -1.0943   -0.5704   -0.0000 O   0  0  0  0  0  1  0  0  0  0  0  0
    1.0943   -0.6117    0.0000 O   0  0  0  0  0  0  0  0  0  0  0  0
   -3.1432   -3.2000   -0.7619 C   0  0  0  0  0  0  0  0  0  0  0  0
   -2.6338   -3.8080   -0.1469 H   0  0  0  0  0  0  0  0  0  0  0  0
   -3.7985   -3.7456   -1.2899 H   0  0  0  0  0  0  0  0  0  0  0  0
   -3.6949   -2.4789   -0.1589 H   0  0  0  0  0  0  0  0  0  0  0  0
   -2.1560   -2.5403   -1.7319 C   0  0  0  0  0  0  0  0  0  0  0  0
   -2.6533   -2.2509   -2.5447 H   0  0  0  0  0  0  0  0  0  0  0  0
   -1.7441   -1.7528   -1.2827 H   0  0  0  0  0  0  0  0  0  0  0  0
   -1.0372   -3.4930   -2.1616 C   0  0  0  0  0  0  0  0  0  0  0  0
   -1.0114   -4.2680   -1.5315 H   0  0  0  0  0  0  0  0  0  0  0  0
   -1.2257   -3.8189   -3.0864 H   0  0  0  0  0  0  0  0  0  0  0  0
   -0.0678   -2.9949   -2.1516 H   0  0  0  0  0  0  0  0  0  0  0  0
  1  5  1  0
  5  6  1  0
  5  7  2  0
  1  2  1  0
  1  3  1  0
  1  4  1  0
  8 12  1  0
 12 15  1  0
  8  9  1  0
  8 10  1  0
  8 11  1  0
 12 13  1  0
 12 14  1  0
 15 16  1  0
 15 17  1  0
 15 18  1  0
M  CHG  1   6  -1
M  END
>  <PDB_ID>  (34) 
pdb1a8m

>  <RESIDUE_NAME>  (34) 
GLU   LYS

>  <FRAG_NAME>  (34) 
ACET   PRPA

>  <FRAG_ATOM_NUM>  (34) 
fragi: 7  fragj: 11

>  <atom.prop.CHAIN_ID>  (34) 
A A A A A A A Z Z Z Z Z Z Z Z Z Z Z

>  <atom.prop.IS_HEAVY_ATOM>  (34) 
1 0 0 0 1 1 1 1 0 0 0 1 0 0 1 0 0 0

>  <DIFUSE_FUNC_ATOM>  (34) 
atom 6   atom 7   

>  <FINAL_SINGLE_POINT_ENERGY>  (34) 
0

>  <NONCOV_INTER_ENERGY_QM>  (34) 
0

>  <FF_Energy>  (34) 
20.73

>  <QM_Energy>  (34) 
-1.74

>  <source>  (34) 
ACET_PRPA_00

>  <Index>  (34) 
9742

$$$$
ACET-pdb1abe-A-GLU-166:PRPA-pdb1abe-A-LYS-160
     RDKit          3D

 18 16  0  0  0  0  0  0  0  0999 V2000
   -0.2663    1.5012   -0.0091 C   0  0  0  0  0  0  0  0  0  0  0  0
    0.5112    1.9374    0.3808 H   0  0  0  0  0  0  0  0  0  0  0  0
   -1.0925    1.6526    0.4825 H   0  0  0  0  0  0  0  0  0  0  0  0
   -0.3928    1.8581   -1.0312 H   0  0  0  0  0  0  0  0  0  0  0  0
    0.0000    0.0000    0.0000 C   0  0  0  0  0  0  0  0  0  0  0  0
   -1.1120   -0.5531    0.0000 O   0  0  0  0  0  1  0  0  0  0  0  0
    1.1120   -0.5292   -0.0000 O   0  0  0  0  0  0  0  0  0  0  0  0
    1.2539    3.6034    3.8081 C   0  0  0  0  0  0  0  0  0  0  0  0
    1.8480    3.2501    4.4955 H   0  0  0  0  0  0  0  0  0  0  0  0
    0.4288    3.0949    3.7025 H   0  0  0  0  0  0  0  0  0  0  0  0
    1.0121    4.6414    4.0365 H   0  0  0  0  0  0  0  0  0  0  0  0
    2.0055    3.5721    2.4693 C   0  0  0  0  0  0  0  0  0  0  0  0
    1.4716    4.0441    1.7919 H   0  0  0  0  0  0  0  0  0  0  0  0
    2.8939    3.9738    2.5911 H   0  0  0  0  0  0  0  0  0  0  0  0
    2.1630    2.1136    2.0592 C   0  0  0  0  0  0  0  0  0  0  0  0
    1.5229    1.5582    2.6372 H   0  0  0  0  0  0  0  0  0  0  0  0
    1.8151    2.0212    1.0983 H   0  0  0  0  0  0  0  0  0  0  0  0
    3.1583    1.6727    2.1153 H   0  0  0  0  0  0  0  0  0  0  0  0
  1  5  1  0
  5  6  1  0
  5  7  2  0
  1  2  1  0
  1  3  1  0
  1  4  1  0
  8 12  1  0
 12 15  1  0
  8  9  1  0
  8 10  1  0
  8 11  1  0
 12 13  1  0
 12 14  1  0
 15 16  1  0
 15 17  1  0
 15 18  1  0
M  CHG  1   6  -1
M  END
>  <PDB_ID>  (35) 
pdb1abe

>  <RESIDUE_NAME>  (35) 
GLU   LYS

>  <FRAG_NAME>  (35) 
ACET   PRPA

>  <FRAG_ATOM_NUM>  (35) 
fragi: 7  fragj: 11

>  <atom.prop.CHAIN_ID>  (35) 
A A A A A A A Z Z Z Z Z Z Z Z Z Z Z

>  <atom.prop.IS_HEAVY_ATOM>  (35) 
1 0 0 0 1 1 1 1 0 0 0 1 0 0 1 0 0 0

>  <DIFUSE_FUNC_ATOM>  (35) 
atom 6   atom 7   

>  <FINAL_SINGLE_POINT_ENERGY>  (35) 
0

>  <NONCOV_INTER_ENERGY_QM>  (35) 
0

>  <FF_Energy>  (35) 
29.32

>  <QM_Energy>  (35) 
3.19

>  <source>  (35) 
ACET_PRPA_00

>  <Index>  (35) 
10180

$$$$
ACET-pdb1abe-A-GLU-166:PRPA-pdb1abe-A-LYS-160
     RDKit          3D

 18 16  0  0  0  0  0  0  0  0999 V2000
   -0.2663    1.5012   -0.0091 C   0  0  0  0  0  0  0  0  0  0  0  0
    0.5112    1.9374    0.3808 H   0  0  0  0  0  0  0  0  0  0  0  0
   -1.0925    1.6526    0.4825 H   0  0  0  0  0  0  0  0  0  0  0  0
   -0.3928    1.8581   -1.0312 H   0  0  0  0  0  0  0  0  0  0  0  0
    0.0000    0.0000    0.0000 C   0  0  0  0  0  0  0  0  0  0  0  0
   -1.1120   -0.5531    0.0000 O   0  0  0  0  0  1  0  0  0  0  0  0
    1.1120   -0.5292   -0.0000 O   0  0  0  0  0  0  0  0  0  0  0  0
    2.0055    3.5721    2.4693 C   0  0  0  0  0  0  0  0  0  0  0  0
    1.4716    4.0441    1.7919 H   0  0  0  0  0  0  0  0  0  0  0  0
    2.8939    3.9738    2.5911 H   0  0  0  0  0  0  0  0  0  0  0  0
    1.4720    3.5943    3.4196 H   0  0  0  0  0  0  0  0  0  0  0  0
    2.1630    2.1136    2.0592 C   0  0  0  0  0  0  0  0  0  0  0  0
    1.5229    1.5582    2.6372 H   0  0  0  0  0  0  0  0  0  0  0  0
    1.8151    2.0212    1.0983 H   0  0  0  0  0  0  0  0  0  0  0  0
    3.5208    1.5121    2.1358 C   0  0  0  0  0  0  0  0  0  0  0  0
    4.1917    2.2196    2.3826 H   0  0  0  0  0  0  0  0  0  0  0  0
    3.5365    0.7978    2.8441 H   0  0  0  0  0  0  0  0  0  0  0  0
    3.8141    1.0685    1.1844 H   0  0  0  0  0  0  0  0  0  0  0  0
  1  5  1  0
  5  6  1  0
  5  7  2  0
  1  2  1  0
  1  3  1  0
  1  4  1  0
  8 12  1  0
 12 15  1  0
  8  9  1  0
  8 10  1  0
  8 11  1  0
 12 13  1  0
 12 14  1  0
 15 16  1  0
 15 17  1  0
 15 18  1  0
M  CHG  1   6  -1
M  END
>  <PDB_ID>  (36) 
pdb1abe

>  <RESIDUE_NAME>  (36) 
GLU   LYS

>  <FRAG_NAME>  (36) 
ACET   PRPA

>  <FRAG_ATOM_NUM>  (36) 
fragi: 7  fragj: 11

>  <atom.prop.CHAIN_ID>  (36) 
A A A A A A A Z Z Z Z Z Z Z Z Z Z Z

>  <atom.prop.IS_HEAVY_ATOM>  (36) 
1 0 0 0 1 1 1 1 0 0 0 1 0 0 1 0 0 0

>  <DIFUSE_FUNC_ATOM>  (36) 
atom 6   atom 7   

>  <FINAL_SINGLE_POINT_ENERGY>  (36) 
0

>  <NONCOV_INTER_ENERGY_QM>  (36) 
0

>  <FF_Energy>  (36) 
33.79

>  <QM_Energy>  (36) 
2.46

>  <source>  (36) 
ACET_PRPA_00

>  <Index>  (36) 
10183

$$$$
ACET-pdb2ae7-A-ASP-150:PRPA-pdb2ae7-A-LEU-153
     RDKit          3D

 18 16  0  0  0  0  0  0  0  0999 V2000
   -0.0317    1.5309   -0.0011 C   0  0  0  0  0  0  0  0  0  0  0  0
   -0.5160    1.8354    0.8109 H   0  0  0  0  0  0  0  0  0  0  0  0
   -0.5011    1.8348   -0.8214 H   0  0  0  0  0  0  0  0  0  0  0  0
    0.9617    1.9792    0.0083 H   0  0  0  0  0  0  0  0  0  0  0  0
    0.0000    0.0000    0.0000 C   0  0  0  0  0  0  0  0  0  0  0  0
   -1.0964   -0.6005   -0.0000 O   0  0  0  0  0  1  0  0  0  0  0  0
    1.0964   -0.6107   -0.0000 O   0  0  0  0  0  0  0  0  0  0  0  0
   -1.1468    0.9521   -3.9498 C   0  0  0  0  0  0  0  0  0  0  0  0
   -0.6349    1.3341   -3.1792 H   0  0  0  0  0  0  0  0  0  0  0  0
   -1.3689    1.6819   -4.5954 H   0  0  0  0  0  0  0  0  0  0  0  0
   -0.4979    0.2408   -4.4606 H   0  0  0  0  0  0  0  0  0  0  0  0
   -2.4711    0.4194   -3.3931 C   0  0  0  0  0  0  0  0  0  0  0  0
   -3.0746    0.1896   -4.1555 H   0  0  0  0  0  0  0  0  0  0  0  0
   -2.9644    1.2035   -2.8186 H   0  0  0  0  0  0  0  0  0  0  0  0
   -2.2319   -0.8232   -2.5445 C   0  0  0  0  0  0  0  0  0  0  0  0
   -1.6274   -0.5942   -1.7816 H   0  0  0  0  0  0  0  0  0  0  0  0
   -3.1050   -1.1577   -2.1889 H   0  0  0  0  0  0  0  0  0  0  0  0
   -1.8066   -1.5338   -3.1054 H   0  0  0  0  0  0  0  0  0  0  0  0
  1  5  1  0
  5  6  1  0
  5  7  2  0
  1  2  1  0
  1  3  1  0
  1  4  1  0
  8 12  1  0
 12 15  1  0
  8  9  1  0
  8 10  1  0
  8 11  1  0
 12 13  1  0
 12 14  1  0
 15 16  1  0
 15 17  1  0
 15 18  1  0
M  CHG  1   6  -1
M  END
>  <PDB_ID>  (37) 
pdb2ae7

>  <RESIDUE_NAME>  (37) 
ASP   LEU

>  <FRAG_NAME>  (37) 
ACET   PRPA

>  <FRAG_ATOM_NUM>  (37) 
fragi: 7  fragj: 11

>  <atom.prop.CHAIN_ID>  (37) 
A A A A A A A Z Z Z Z Z Z Z Z Z Z Z

>  <atom.prop.IS_HEAVY_ATOM>  (37) 
1 0 0 0 1 1 1 1 0 0 0 1 0 0 1 0 0 0

>  <DIFUSE_FUNC_ATOM>  (37) 
atom 6   atom 7   

>  <FINAL_SINGLE_POINT_ENERGY>  (37) 
0

>  <NONCOV_INTER_ENERGY_QM>  (37) 
0

>  <FF_Energy>  (37) 
18.82

>  <QM_Energy>  (37) 
0.59

>  <source>  (37) 
ACET_PRPA_00

>  <Index>  (37) 
10484

$$$$
ACET-pdb2ae7-A-ASP-150:PRPA-pdb2ae7-A-LEU-153
     RDKit          3D

 18 16  0  0  0  0  0  0  0  0999 V2000
   -0.0317    1.5309   -0.0011 C   0  0  0  0  0  0  0  0  0  0  0  0
   -0.5160    1.8354    0.8109 H   0  0  0  0  0  0  0  0  0  0  0  0
   -0.5011    1.8348   -0.8214 H   0  0  0  0  0  0  0  0  0  0  0  0
    0.9617    1.9792    0.0083 H   0  0  0  0  0  0  0  0  0  0  0  0
    0.0000    0.0000    0.0000 C   0  0  0  0  0  0  0  0  0  0  0  0
   -1.0964   -0.6005   -0.0000 O   0  0  0  0  0  1  0  0  0  0  0  0
    1.0964   -0.6107   -0.0000 O   0  0  0  0  0  0  0  0  0  0  0  0
   -2.2319   -0.8232   -2.5445 C   0  0  0  0  0  0  0  0  0  0  0  0
   -1.6274   -0.5942   -1.7816 H   0  0  0  0  0  0  0  0  0  0  0  0
   -3.1050   -1.1577   -2.1889 H   0  0  0  0  0  0  0  0  0  0  0  0
   -1.8066   -1.5338   -3.1054 H   0  0  0  0  0  0  0  0  0  0  0  0
   -2.4711    0.4194   -3.3931 C   0  0  0  0  0  0  0  0  0  0  0  0
   -3.0746    0.1896   -4.1555 H   0  0  0  0  0  0  0  0  0  0  0  0
   -1.5290    0.7984   -3.7891 H   0  0  0  0  0  0  0  0  0  0  0  0
   -3.1610    1.5159   -2.5897 C   0  0  0  0  0  0  0  0  0  0  0  0
   -3.3399    2.3011   -3.1823 H   0  0  0  0  0  0  0  0  0  0  0  0
   -4.0252    1.1689   -2.2257 H   0  0  0  0  0  0  0  0  0  0  0  0
   -2.5702    1.7972   -1.8332 H   0  0  0  0  0  0  0  0  0  0  0  0
  1  5  1  0
  5  6  1  0
  5  7  2  0
  1  2  1  0
  1  3  1  0
  1  4  1  0
  8 12  1  0
 12 15  1  0
  8  9  1  0
  8 10  1  0
  8 11  1  0
 12 13  1  0
 12 14  1  0
 15 16  1  0
 15 17  1  0
 15 18  1  0
M  CHG  1   6  -1
M  END
>  <PDB_ID>  (38) 
pdb2ae7

>  <RESIDUE_NAME>  (38) 
ASP   LEU

>  <FRAG_NAME>  (38) 
ACET   PRPA

>  <FRAG_ATOM_NUM>  (38) 
fragi: 7  fragj: 11

>  <atom.prop.CHAIN_ID>  (38) 
A A A A A A A Z Z Z Z Z Z Z Z Z Z Z

>  <atom.prop.IS_HEAVY_ATOM>  (38) 
1 0 0 0 1 1 1 1 0 0 0 1 0 0 1 0 0 0

>  <DIFUSE_FUNC_ATOM>  (38) 
atom 6   atom 7   

>  <FINAL_SINGLE_POINT_ENERGY>  (38) 
0

>  <NONCOV_INTER_ENERGY_QM>  (38) 
0

>  <FF_Energy>  (38) 
18.87

>  <QM_Energy>  (38) 
0.58

>  <source>  (38) 
ACET_PRPA_00

>  <Index>  (38) 
10493

$$$$
ACET-pdb2aaz-A-GLU-111:PRPA-pdb2aaz-A-LYS-107
     RDKit          3D

 18 16  0  0  0  0  0  0  0  0999 V2000
   -0.0082    1.5194   -0.0024 C   0  0  0  0  0  0  0  0  0  0  0  0
   -0.3966    1.8165   -0.8510 H   0  0  0  0  0  0  0  0  0  0  0  0
    0.9152    1.8247    0.1205 H   0  0  0  0  0  0  0  0  0  0  0  0
   -0.6101    1.9355    0.8054 H   0  0  0  0  0  0  0  0  0  0  0  0
    0.0000    0.0000    0.0000 C   0  0  0  0  0  0  0  0  0  0  0  0
   -1.0969   -0.5954   -0.0000 O   0  0  0  0  0  1  0  0  0  0  0  0
    1.0969   -0.5969    0.0000 O   0  0  0  0  0  0  0  0  0  0  0  0
    4.7540    0.4600    0.8034 C   0  0  0  0  0  0  0  0  0  0  0  0
    5.6293    0.4231    0.3293 H   0  0  0  0  0  0  0  0  0  0  0  0
    4.7258   -0.2300    1.5228 H   0  0  0  0  0  0  0  0  0  0  0  0
    4.6609    1.4408    1.2697 H   0  0  0  0  0  0  0  0  0  0  0  0
    3.6540    0.1624   -0.1934 C   0  0  0  0  0  0  0  0  0  0  0  0
    3.7237   -0.7935   -0.4933 H   0  0  0  0  0  0  0  0  0  0  0  0
    2.7603    0.2994    0.2427 H   0  0  0  0  0  0  0  0  0  0  0  0
    3.7193    1.0623   -1.4444 C   0  0  0  0  0  0  0  0  0  0  0  0
    3.5409    1.9940   -1.1759 H   0  0  0  0  0  0  0  0  0  0  0  0
    4.6055    0.9624   -1.8633 H   0  0  0  0  0  0  0  0  0  0  0  0
    2.9618    0.7628   -2.1686 H   0  0  0  0  0  0  0  0  0  0  0  0
  1  5  1  0
  5  6  1  0
  5  7  2  0
  1  2  1  0
  1  3  1  0
  1  4  1  0
  8 12  1  0
 12 15  1  0
  8  9  1  0
  8 10  1  0
  8 11  1  0
 12 13  1  0
 12 14  1  0
 15 16  1  0
 15 17  1  0
 15 18  1  0
M  CHG  1   6  -1
M  END
>  <PDB_ID>  (39) 
pdb2aaz

>  <RESIDUE_NAME>  (39) 
GLU   LYS

>  <FRAG_NAME>  (39) 
ACET   PRPA

>  <FRAG_ATOM_NUM>  (39) 
fragi: 7  fragj: 11

>  <atom.prop.CHAIN_ID>  (39) 
A A A A A A A Z Z Z Z Z Z Z Z Z Z Z

>  <atom.prop.IS_HEAVY_ATOM>  (39) 
1 0 0 0 1 1 1 1 0 0 0 1 0 0 1 0 0 0

>  <DIFUSE_FUNC_ATOM>  (39) 
atom 6   atom 7   

>  <FINAL_SINGLE_POINT_ENERGY>  (39) 
0

>  <NONCOV_INTER_ENERGY_QM>  (39) 
0

>  <FF_Energy>  (39) 
16.89

>  <QM_Energy>  (39) 
1.87

>  <source>  (39) 
ACET_PRPA_00

>  <Index>  (39) 
11021

$$$$
ACET-pdb2aaz-A-GLU-111:PRPA-pdb2aaz-A-LYS-107
     RDKit          3D

 18 16  0  0  0  0  0  0  0  0999 V2000
   -0.0082    1.5194   -0.0024 C   0  0  0  0  0  0  0  0  0  0  0  0
   -0.3966    1.8165   -0.8510 H   0  0  0  0  0  0  0  0  0  0  0  0
    0.9152    1.8247    0.1205 H   0  0  0  0  0  0  0  0  0  0  0  0
   -0.6101    1.9355    0.8054 H   0  0  0  0  0  0  0  0  0  0  0  0
    0.0000    0.0000    0.0000 C   0  0  0  0  0  0  0  0  0  0  0  0
   -1.0969   -0.5954   -0.0000 O   0  0  0  0  0  1  0  0  0  0  0  0
    1.0969   -0.5969    0.0000 O   0  0  0  0  0  0  0  0  0  0  0  0
    3.6540    0.1624   -0.1934 C   0  0  0  0  0  0  0  0  0  0  0  0
    3.7237   -0.7935   -0.4933 H   0  0  0  0  0  0  0  0  0  0  0  0
    2.7603    0.2994    0.2427 H   0  0  0  0  0  0  0  0  0  0  0  0
    4.4459    0.3766    0.5242 H   0  0  0  0  0  0  0  0  0  0  0  0
    3.7193    1.0623   -1.4444 C   0  0  0  0  0  0  0  0  0  0  0  0
    3.5409    1.9940   -1.1759 H   0  0  0  0  0  0  0  0  0  0  0  0
    4.6055    0.9624   -1.8633 H   0  0  0  0  0  0  0  0  0  0  0  0
    2.6444    0.6373   -2.4720 C   0  0  0  0  0  0  0  0  0  0  0  0
    2.6850   -0.3692   -2.5749 H   0  0  0  0  0  0  0  0  0  0  0  0
    1.7335    0.8659   -2.0915 H   0  0  0  0  0  0  0  0  0  0  0  0
    2.7411    1.0971   -3.4555 H   0  0  0  0  0  0  0  0  0  0  0  0
  1  5  1  0
  5  6  1  0
  5  7  2  0
  1  2  1  0
  1  3  1  0
  1  4  1  0
  8 12  1  0
 12 15  1  0
  8  9  1  0
  8 10  1  0
  8 11  1  0
 12 13  1  0
 12 14  1  0
 15 16  1  0
 15 17  1  0
 15 18  1  0
M  CHG  1   6  -1
M  END
>  <PDB_ID>  (40) 
pdb2aaz

>  <RESIDUE_NAME>  (40) 
GLU   LYS

>  <FRAG_NAME>  (40) 
ACET   PRPA

>  <FRAG_ATOM_NUM>  (40) 
fragi: 7  fragj: 11

>  <atom.prop.CHAIN_ID>  (40) 
A A A A A A A Z Z Z Z Z Z Z Z Z Z Z

>  <atom.prop.IS_HEAVY_ATOM>  (40) 
1 0 0 0 1 1 1 1 0 0 0 1 0 0 1 0 0 0

>  <DIFUSE_FUNC_ATOM>  (40) 
atom 6   atom 7   

>  <FINAL_SINGLE_POINT_ENERGY>  (40) 
0

>  <NONCOV_INTER_ENERGY_QM>  (40) 
0

>  <FF_Energy>  (40) 
16.62

>  <QM_Energy>  (40) 
1.21

>  <source>  (40) 
ACET_PRPA_00

>  <Index>  (40) 
11029

$$$$
ACET-pdb2a7k-B-GLU-29:PRPA-pdb2a7k-B-ARG-82
     RDKit          3D

 18 16  0  0  0  0  0  0  0  0999 V2000
    0.0177    1.5144   -0.0316 C   0  0  0  0  0  0  0  0  0  0  0  0
    0.3825    1.7789   -0.9069 H   0  0  0  0  0  0  0  0  0  0  0  0
    0.5918    1.8096    0.7114 H   0  0  0  0  0  0  0  0  0  0  0  0
   -0.9806    1.9353    0.0886 H   0  0  0  0  0  0  0  0  0  0  0  0
    0.0000    0.0000    0.0000 C   0  0  0  0  0  0  0  0  0  0  0  0
   -1.0970   -0.6113   -0.0000 O   0  0  0  0  0  1  0  0  0  0  0  0
    1.0970   -0.5876   -0.0000 O   0  0  0  0  0  0  0  0  0  0  0  0
   -1.1282   -3.2509   -2.3291 C   0  0  0  0  0  0  0  0  0  0  0  0
   -0.3862   -3.9111   -2.4151 H   0  0  0  0  0  0  0  0  0  0  0  0
   -0.7666   -2.3732   -2.0247 H   0  0  0  0  0  0  0  0  0  0  0  0
   -1.5896   -3.1168   -3.3076 H   0  0  0  0  0  0  0  0  0  0  0  0
   -2.0814   -3.7556   -1.2679 C   0  0  0  0  0  0  0  0  0  0  0  0
   -2.9758   -3.3592   -1.3998 H   0  0  0  0  0  0  0  0  0  0  0  0
   -2.1148   -4.7418   -1.2837 H   0  0  0  0  0  0  0  0  0  0  0  0
   -1.5750   -3.3254    0.1146 C   0  0  0  0  0  0  0  0  0  0  0  0
   -1.1800   -2.4067    0.0174 H   0  0  0  0  0  0  0  0  0  0  0  0
   -2.3739   -3.2688    0.7221 H   0  0  0  0  0  0  0  0  0  0  0  0
   -0.8341   -3.9986    0.5461 H   0  0  0  0  0  0  0  0  0  0  0  0
  1  5  1  0
  5  6  1  0
  5  7  2  0
  1  2  1  0
  1  3  1  0
  1  4  1  0
  8 12  1  0
 12 15  1  0
  8  9  1  0
  8 10  1  0
  8 11  1  0
 12 13  1  0
 12 14  1  0
 15 16  1  0
 15 17  1  0
 15 18  1  0
M  CHG  1   6  -1
M  END
>  <PDB_ID>  (41) 
pdb2a7k

>  <RESIDUE_NAME>  (41) 
GLU   ARG

>  <FRAG_NAME>  (41) 
ACET   PRPA

>  <FRAG_ATOM_NUM>  (41) 
fragi: 7  fragj: 11

>  <atom.prop.CHAIN_ID>  (41) 
A A A A A A A Z Z Z Z Z Z Z Z Z Z Z

>  <atom.prop.IS_HEAVY_ATOM>  (41) 
1 0 0 0 1 1 1 1 0 0 0 1 0 0 1 0 0 0

>  <DIFUSE_FUNC_ATOM>  (41) 
atom 6   atom 7   

>  <FINAL_SINGLE_POINT_ENERGY>  (41) 
0

>  <NONCOV_INTER_ENERGY_QM>  (41) 
0

>  <FF_Energy>  (41) 
28.02

>  <QM_Energy>  (41) 
-0.53

>  <source>  (41) 
ACET_PRPA_00

>  <Index>  (41) 
11809

$$$$
ACET-pdb2an1-A-GLU-161:PRPA-pdb2an1-A-ARG-175
     RDKit          3D

 18 16  0  0  0  0  0  0  0  0999 V2000
    0.0067    1.5215   -0.0451 C   0  0  0  0  0  0  0  0  0  0  0  0
   -0.6969    1.7958   -0.6785 H   0  0  0  0  0  0  0  0  0  0  0  0
    0.9023    1.7983   -0.3508 H   0  0  0  0  0  0  0  0  0  0  0  0
   -0.1934    1.9806    0.9231 H   0  0  0  0  0  0  0  0  0  0  0  0
    0.0000    0.0000    0.0000 C   0  0  0  0  0  0  0  0  0  0  0  0
   -1.1042   -0.6015   -0.0000 O   0  0  0  0  0  1  0  0  0  0  0  0
    1.1042   -0.5913   -0.0000 O   0  0  0  0  0  0  0  0  0  0  0  0
   -2.1320    3.6269   -3.1227 C   0  0  0  0  0  0  0  0  0  0  0  0
   -1.6928    3.8783   -2.2679 H   0  0  0  0  0  0  0  0  0  0  0  0
   -3.1749    3.3822   -2.9212 H   0  0  0  0  0  0  0  0  0  0  0  0
   -2.1066    4.4825   -3.7976 H   0  0  0  0  0  0  0  0  0  0  0  0
   -1.3817    2.4471   -3.7577 C   0  0  0  0  0  0  0  0  0  0  0  0
   -1.7884    2.2668   -4.6502 H   0  0  0  0  0  0  0  0  0  0  0  0
   -0.4265    2.7112   -3.8675 H   0  0  0  0  0  0  0  0  0  0  0  0
   -1.4261    1.1586   -2.9487 C   0  0  0  0  0  0  0  0  0  0  0  0
   -1.0640    1.3227   -2.0340 H   0  0  0  0  0  0  0  0  0  0  0  0
   -2.3665    0.8318   -2.8878 H   0  0  0  0  0  0  0  0  0  0  0  0
   -0.8303    0.3671   -3.4032 H   0  0  0  0  0  0  0  0  0  0  0  0
  1  5  1  0
  5  6  1  0
  5  7  2  0
  1  2  1  0
  1  3  1  0
  1  4  1  0
  8 12  1  0
 12 15  1  0
  8  9  1  0
  8 10  1  0
  8 11  1  0
 12 13  1  0
 12 14  1  0
 15 16  1  0
 15 17  1  0
 15 18  1  0
M  CHG  1   6  -1
M  END
>  <PDB_ID>  (42) 
pdb2an1

>  <RESIDUE_NAME>  (42) 
GLU   ARG

>  <FRAG_NAME>  (42) 
ACET   PRPA

>  <FRAG_ATOM_NUM>  (42) 
fragi: 7  fragj: 11

>  <atom.prop.CHAIN_ID>  (42) 
A A A A A A A Z Z Z Z Z Z Z Z Z Z Z

>  <atom.prop.IS_HEAVY_ATOM>  (42) 
1 0 0 0 1 1 1 1 0 0 0 1 0 0 1 0 0 0

>  <DIFUSE_FUNC_ATOM>  (42) 
atom 6   atom 7   

>  <FINAL_SINGLE_POINT_ENERGY>  (42) 
0

>  <NONCOV_INTER_ENERGY_QM>  (42) 
0

>  <FF_Energy>  (42) 
32.94

>  <QM_Energy>  (42) 
3.37

>  <source>  (42) 
ACET_PRPA_00

>  <Index>  (42) 
14450

$$$$
ACET-pdb2an1-A-GLU-161:PRPA-pdb2an1-A-ARG-175
     RDKit          3D

 18 16  0  0  0  0  0  0  0  0999 V2000
    0.0067    1.5215   -0.0451 C   0  0  0  0  0  0  0  0  0  0  0  0
   -0.6969    1.7958   -0.6785 H   0  0  0  0  0  0  0  0  0  0  0  0
    0.9023    1.7983   -0.3508 H   0  0  0  0  0  0  0  0  0  0  0  0
   -0.1934    1.9806    0.9231 H   0  0  0  0  0  0  0  0  0  0  0  0
    0.0000    0.0000    0.0000 C   0  0  0  0  0  0  0  0  0  0  0  0
   -1.1042   -0.6015   -0.0000 O   0  0  0  0  0  1  0  0  0  0  0  0
    1.1042   -0.5913   -0.0000 O   0  0  0  0  0  0  0  0  0  0  0  0
   -1.3817    2.4471   -3.7577 C   0  0  0  0  0  0  0  0  0  0  0  0
   -1.7884    2.2668   -4.6502 H   0  0  0  0  0  0  0  0  0  0  0  0
   -0.4265    2.7112   -3.8675 H   0  0  0  0  0  0  0  0  0  0  0  0
   -1.9143    3.2846   -3.3069 H   0  0  0  0  0  0  0  0  0  0  0  0
   -1.4261    1.1586   -2.9487 C   0  0  0  0  0  0  0  0  0  0  0  0
   -1.0640    1.3227   -2.0340 H   0  0  0  0  0  0  0  0  0  0  0  0
   -2.3665    0.8318   -2.8878 H   0  0  0  0  0  0  0  0  0  0  0  0
   -0.5848    0.0411   -3.5905 C   0  0  0  0  0  0  0  0  0  0  0  0
    0.1782    0.4651   -4.0533 H   0  0  0  0  0  0  0  0  0  0  0  0
   -0.2790   -0.5593   -2.8664 H   0  0  0  0  0  0  0  0  0  0  0  0
   -1.1791   -0.5247   -4.3080 H   0  0  0  0  0  0  0  0  0  0  0  0
  1  5  1  0
  5  6  1  0
  5  7  2  0
  1  2  1  0
  1  3  1  0
  1  4  1  0
  8 12  1  0
 12 15  1  0
  8  9  1  0
  8 10  1  0
  8 11  1  0
 12 13  1  0
 12 14  1  0
 15 16  1  0
 15 17  1  0
 15 18  1  0
M  CHG  1   6  -1
M  END
>  <PDB_ID>  (43) 
pdb2an1

>  <RESIDUE_NAME>  (43) 
GLU   ARG

>  <FRAG_NAME>  (43) 
ACET   PRPA

>  <FRAG_ATOM_NUM>  (43) 
fragi: 7  fragj: 11

>  <atom.prop.CHAIN_ID>  (43) 
A A A A A A A Z Z Z Z Z Z Z Z Z Z Z

>  <atom.prop.IS_HEAVY_ATOM>  (43) 
1 0 0 0 1 1 1 1 0 0 0 1 0 0 1 0 0 0

>  <DIFUSE_FUNC_ATOM>  (43) 
atom 6   atom 7   

>  <FINAL_SINGLE_POINT_ENERGY>  (43) 
0

>  <NONCOV_INTER_ENERGY_QM>  (43) 
0

>  <FF_Energy>  (43) 
38.44

>  <QM_Energy>  (43) 
1.45

>  <source>  (43) 
ACET_PRPA_00

>  <Index>  (43) 
14457

$$$$
ACET-pdb2b2n-A-ASP-170:PRPA-pdb2b2n-A-ARG-181
     RDKit          3D

 18 16  0  0  0  0  0  0  0  0999 V2000
   -0.0096    1.5242    0.0116 C   0  0  0  0  0  0  0  0  0  0  0  0
    0.8378    1.8500   -0.3866 H   0  0  0  0  0  0  0  0  0  0  0  0
   -0.1032    1.8343    0.9476 H   0  0  0  0  0  0  0  0  0  0  0  0
   -0.8350    1.9398   -0.5664 H   0  0  0  0  0  0  0  0  0  0  0  0
    0.0000    0.0000    0.0000 C   0  0  0  0  0  0  0  0  0  0  0  0
   -1.0900   -0.5930   -0.0000 O   0  0  0  0  0  1  0  0  0  0  0  0
    1.0900   -0.6000    0.0000 O   0  0  0  0  0  0  0  0  0  0  0  0
   -3.7992   -1.8476    1.2447 C   0  0  0  0  0  0  0  0  0  0  0  0
   -2.9109   -1.6804    1.6557 H   0  0  0  0  0  0  0  0  0  0  0  0
   -4.4366   -2.1952    1.9213 H   0  0  0  0  0  0  0  0  0  0  0  0
   -4.1849   -0.9039    0.8591 H   0  0  0  0  0  0  0  0  0  0  0  0
   -3.6283   -2.9106    0.1691 C   0  0  0  0  0  0  0  0  0  0  0  0
   -3.9831   -3.7732    0.5009 H   0  0  0  0  0  0  0  0  0  0  0  0
   -4.1007   -2.6242   -0.6531 H   0  0  0  0  0  0  0  0  0  0  0  0
   -2.1665   -3.0784   -0.1480 C   0  0  0  0  0  0  0  0  0  0  0  0
   -2.0861   -3.4651   -1.0631 H   0  0  0  0  0  0  0  0  0  0  0  0
   -1.7351   -2.1803   -0.1176 H   0  0  0  0  0  0  0  0  0  0  0  0
   -1.6783   -3.7391    0.5684 H   0  0  0  0  0  0  0  0  0  0  0  0
  1  5  1  0
  5  6  1  0
  5  7  2  0
  1  2  1  0
  1  3  1  0
  1  4  1  0
  8 12  1  0
 12 15  1  0
  8  9  1  0
  8 10  1  0
  8 11  1  0
 12 13  1  0
 12 14  1  0
 15 16  1  0
 15 17  1  0
 15 18  1  0
M  CHG  1   6  -1
M  END
>  <PDB_ID>  (44) 
pdb2b2n

>  <RESIDUE_NAME>  (44) 
ASP   ARG

>  <FRAG_NAME>  (44) 
ACET   PRPA

>  <FRAG_ATOM_NUM>  (44) 
fragi: 7  fragj: 11

>  <atom.prop.CHAIN_ID>  (44) 
A A A A A A A Z Z Z Z Z Z Z Z Z Z Z

>  <atom.prop.IS_HEAVY_ATOM>  (44) 
1 0 0 0 1 1 1 1 0 0 0 1 0 0 1 0 0 0

>  <DIFUSE_FUNC_ATOM>  (44) 
atom 6   atom 7   

>  <FINAL_SINGLE_POINT_ENERGY>  (44) 
0

>  <NONCOV_INTER_ENERGY_QM>  (44) 
0

>  <FF_Energy>  (44) 
49.86

>  <QM_Energy>  (44) 
1.68

>  <source>  (44) 
ACET_PRPA_00

>  <Index>  (44) 
19136

$$$$
ACET-pdb2aw5-A-ASP-80:PRPA-pdb2aw5-A-LYS-119
     RDKit          3D

 18 16  0  0  0  0  0  0  0  0999 V2000
   -0.0270    1.5128   -0.0188 C   0  0  0  0  0  0  0  0  0  0  0  0
    0.6031    1.8541    0.6692 H   0  0  0  0  0  0  0  0  0  0  0  0
   -0.9509    1.8209    0.1724 H   0  0  0  0  0  0  0  0  0  0  0  0
    0.2718    1.9270   -0.9818 H   0  0  0  0  0  0  0  0  0  0  0  0
    0.0000    0.0000    0.0000 C   0  0  0  0  0  0  0  0  0  0  0  0
   -1.1017   -0.6025   -0.0000 O   0  0  0  0  0  1  0  0  0  0  0  0
    1.1017   -0.6047   -0.0000 O   0  0  0  0  0  0  0  0  0  0  0  0
    0.1129   -1.6709    3.5632 C   0  0  0  0  0  0  0  0  0  0  0  0
    0.2092   -0.6802    3.4596 H   0  0  0  0  0  0  0  0  0  0  0  0
    0.6536   -2.1321    2.8581 H   0  0  0  0  0  0  0  0  0  0  0  0
    0.5163   -1.9510    4.5362 H   0  0  0  0  0  0  0  0  0  0  0  0
   -1.3519   -2.0312    3.3534 C   0  0  0  0  0  0  0  0  0  0  0  0
   -1.4587   -3.0227    3.4491 H   0  0  0  0  0  0  0  0  0  0  0  0
   -1.9031   -1.5708    4.0506 H   0  0  0  0  0  0  0  0  0  0  0  0
   -1.8422   -1.6132    1.9802 C   0  0  0  0  0  0  0  0  0  0  0  0
   -1.7311   -0.6227    1.8871 H   0  0  0  0  0  0  0  0  0  0  0  0
   -1.2879   -2.0753    1.2857 H   0  0  0  0  0  0  0  0  0  0  0  0
   -2.8896   -1.8643    1.8134 H   0  0  0  0  0  0  0  0  0  0  0  0
  1  5  1  0
  5  6  1  0
  5  7  2  0
  1  2  1  0
  1  3  1  0
  1  4  1  0
  8 12  1  0
 12 15  1  0
  8  9  1  0
  8 10  1  0
  8 11  1  0
 12 13  1  0
 12 14  1  0
 15 16  1  0
 15 17  1  0
 15 18  1  0
M  CHG  1   6  -1
M  END
>  <PDB_ID>  (45) 
pdb2aw5

>  <RESIDUE_NAME>  (45) 
ASP   LYS

>  <FRAG_NAME>  (45) 
ACET   PRPA

>  <FRAG_ATOM_NUM>  (45) 
fragi: 7  fragj: 11

>  <atom.prop.CHAIN_ID>  (45) 
A A A A A A A Z Z Z Z Z Z Z Z Z Z Z

>  <atom.prop.IS_HEAVY_ATOM>  (45) 
1 0 0 0 1 1 1 1 0 0 0 1 0 0 1 0 0 0

>  <DIFUSE_FUNC_ATOM>  (45) 
atom 6   atom 7   

>  <FINAL_SINGLE_POINT_ENERGY>  (45) 
0

>  <NONCOV_INTER_ENERGY_QM>  (45) 
0

>  <FF_Energy>  (45) 
39.74

>  <QM_Energy>  (45) 
11.31

>  <source>  (45) 
ACET_PRPA_00

>  <Index>  (45) 
19409

$$$$
ACET-pdb2a7k-F-GLU-29:PRPA-pdb2a7k-F-ARG-82
     RDKit          3D

 18 16  0  0  0  0  0  0  0  0999 V2000
   -0.0220    1.5261    0.0012 C   0  0  0  0  0  0  0  0  0  0  0  0
    0.2366    1.8226   -0.8936 H   0  0  0  0  0  0  0  0  0  0  0  0
    0.5931    1.8260    0.6997 H   0  0  0  0  0  0  0  0  0  0  0  0
   -1.0176    1.9111    0.2218 H   0  0  0  0  0  0  0  0  0  0  0  0
    0.0000    0.0000    0.0000 C   0  0  0  0  0  0  0  0  0  0  0  0
   -1.0975   -0.6076   -0.0000 O   0  0  0  0  0  1  0  0  0  0  0  0
    1.0975   -0.5995   -0.0000 O   0  0  0  0  0  0  0  0  0  0  0  0
   -1.5959   -3.3110   -2.1327 C   0  0  0  0  0  0  0  0  0  0  0  0
   -0.9347   -4.0450   -2.3050 H   0  0  0  0  0  0  0  0  0  0  0  0
   -1.0989   -2.4678   -1.9155 H   0  0  0  0  0  0  0  0  0  0  0  0
   -2.1493   -3.1411   -3.0563 H   0  0  0  0  0  0  0  0  0  0  0  0
   -2.4391   -3.6820   -0.9807 C   0  0  0  0  0  0  0  0  0  0  0  0
   -3.3051   -3.2046   -1.0179 H   0  0  0  0  0  0  0  0  0  0  0  0
   -2.5725   -4.6622   -0.9517 H   0  0  0  0  0  0  0  0  0  0  0  0
   -1.7246   -3.2673    0.2617 C   0  0  0  0  0  0  0  0  0  0  0  0
   -1.1477   -2.4745    0.0453 H   0  0  0  0  0  0  0  0  0  0  0  0
   -2.4102   -2.9929    0.9426 H   0  0  0  0  0  0  0  0  0  0  0  0
   -1.1046   -4.0640    0.6729 H   0  0  0  0  0  0  0  0  0  0  0  0
  1  5  1  0
  5  6  1  0
  5  7  2  0
  1  2  1  0
  1  3  1  0
  1  4  1  0
  8 12  1  0
 12 15  1  0
  8  9  1  0
  8 10  1  0
  8 11  1  0
 12 13  1  0
 12 14  1  0
 15 16  1  0
 15 17  1  0
 15 18  1  0
M  CHG  1   6  -1
M  END
>  <PDB_ID>  (46) 
pdb2a7k

>  <RESIDUE_NAME>  (46) 
GLU   ARG

>  <FRAG_NAME>  (46) 
ACET   PRPA

>  <FRAG_ATOM_NUM>  (46) 
fragi: 7  fragj: 11

>  <atom.prop.CHAIN_ID>  (46) 
A A A A A A A Z Z Z Z Z Z Z Z Z Z Z

>  <atom.prop.IS_HEAVY_ATOM>  (46) 
1 0 0 0 1 1 1 1 0 0 0 1 0 0 1 0 0 0

>  <DIFUSE_FUNC_ATOM>  (46) 
atom 6   atom 7   

>  <FINAL_SINGLE_POINT_ENERGY>  (46) 
0

>  <NONCOV_INTER_ENERGY_QM>  (46) 
0

>  <FF_Energy>  (46) 
18.28

>  <QM_Energy>  (46) 
-0.87

>  <source>  (46) 
ACET_PRPA_00

>  <Index>  (46) 
19848

$$$$
ACET-pdb2ash-C-GLU-347:PRPA-pdb2ash-C-LEU-14
     RDKit          3D

 18 16  0  0  0  0  0  0  0  0999 V2000
    0.1851    1.4882    0.0143 C   0  0  0  0  0  0  0  0  0  0  0  0
    0.7023    1.7377   -0.8029 H   0  0  0  0  0  0  0  0  0  0  0  0
    0.7136    1.7205    0.8296 H   0  0  0  0  0  0  0  0  0  0  0  0
   -0.7263    2.0861    0.0263 H   0  0  0  0  0  0  0  0  0  0  0  0
    0.0000    0.0000    0.0000 C   0  0  0  0  0  0  0  0  0  0  0  0
   -1.0890   -0.5538   -0.0000 O   0  0  0  0  0  1  0  0  0  0  0  0
    1.0890   -0.6118   -0.0000 O   0  0  0  0  0  0  0  0  0  0  0  0
    4.8823    3.5413   -0.2074 C   0  0  0  0  0  0  0  0  0  0  0  0
    4.3107    4.1182    0.3844 H   0  0  0  0  0  0  0  0  0  0  0  0
    4.7479    3.8243   -1.1614 H   0  0  0  0  0  0  0  0  0  0  0  0
    5.9239    3.7311    0.0516 H   0  0  0  0  0  0  0  0  0  0  0  0
    4.3448    2.1022   -0.0855 C   0  0  0  0  0  0  0  0  0  0  0  0
    4.7671    1.5406   -0.7676 H   0  0  0  0  0  0  0  0  0  0  0  0
    4.6335    1.7483    0.9042 H   0  0  0  0  0  0  0  0  0  0  0  0
    2.8402    1.9890   -0.4249 C   0  0  0  0  0  0  0  0  0  0  0  0
    2.6978    2.2924   -1.3633 H   0  0  0  0  0  0  0  0  0  0  0  0
    2.5589    1.0383   -0.3269 H   0  0  0  0  0  0  0  0  0  0  0  0
    2.3241    2.5653    0.2037 H   0  0  0  0  0  0  0  0  0  0  0  0
  1  5  1  0
  5  6  1  0
  5  7  2  0
  1  2  1  0
  1  3  1  0
  1  4  1  0
  8 12  1  0
 12 15  1  0
  8  9  1  0
  8 10  1  0
  8 11  1  0
 12 13  1  0
 12 14  1  0
 15 16  1  0
 15 17  1  0
 15 18  1  0
M  CHG  1   6  -1
M  END
>  <PDB_ID>  (47) 
pdb2ash

>  <RESIDUE_NAME>  (47) 
GLU   LEU

>  <FRAG_NAME>  (47) 
ACET   PRPA

>  <FRAG_ATOM_NUM>  (47) 
fragi: 7  fragj: 11

>  <atom.prop.CHAIN_ID>  (47) 
A A A A A A A Z Z Z Z Z Z Z Z Z Z Z

>  <atom.prop.IS_HEAVY_ATOM>  (47) 
1 0 0 0 1 1 1 1 0 0 0 1 0 0 1 0 0 0

>  <DIFUSE_FUNC_ATOM>  (47) 
atom 6   atom 7   

>  <FINAL_SINGLE_POINT_ENERGY>  (47) 
0

>  <NONCOV_INTER_ENERGY_QM>  (47) 
0

>  <FF_Energy>  (47) 
21.65

>  <QM_Energy>  (47) 
5.3

>  <source>  (47) 
ACET_PRPA_00

>  <Index>  (47) 
21696

$$$$
ACET-pdb2ash-C-GLU-347:PRPA-pdb2ash-C-LEU-14
     RDKit          3D

 18 16  0  0  0  0  0  0  0  0999 V2000
    0.1851    1.4882    0.0143 C   0  0  0  0  0  0  0  0  0  0  0  0
    0.7023    1.7377   -0.8029 H   0  0  0  0  0  0  0  0  0  0  0  0
    0.7136    1.7205    0.8296 H   0  0  0  0  0  0  0  0  0  0  0  0
   -0.7263    2.0861    0.0263 H   0  0  0  0  0  0  0  0  0  0  0  0
    0.0000    0.0000    0.0000 C   0  0  0  0  0  0  0  0  0  0  0  0
   -1.0890   -0.5538   -0.0000 O   0  0  0  0  0  1  0  0  0  0  0  0
    1.0890   -0.6118   -0.0000 O   0  0  0  0  0  0  0  0  0  0  0  0
    4.7529    1.6020    1.3133 C   0  0  0  0  0  0  0  0  0  0  0  0
    4.3473    2.1974    2.0028 H   0  0  0  0  0  0  0  0  0  0  0  0
    4.4231    0.6689    1.4341 H   0  0  0  0  0  0  0  0  0  0  0  0
    5.7466    1.6230    1.3883 H   0  0  0  0  0  0  0  0  0  0  0  0
    4.3448    2.1022   -0.0855 C   0  0  0  0  0  0  0  0  0  0  0  0
    4.7671    1.5406   -0.7676 H   0  0  0  0  0  0  0  0  0  0  0  0
    4.7249    3.1200   -0.1717 H   0  0  0  0  0  0  0  0  0  0  0  0
    2.8402    1.9890   -0.4249 C   0  0  0  0  0  0  0  0  0  0  0  0
    2.6978    2.2924   -1.3633 H   0  0  0  0  0  0  0  0  0  0  0  0
    2.5589    1.0383   -0.3269 H   0  0  0  0  0  0  0  0  0  0  0  0
    2.3241    2.5653    0.2037 H   0  0  0  0  0  0  0  0  0  0  0  0
  1  5  1  0
  5  6  1  0
  5  7  2  0
  1  2  1  0
  1  3  1  0
  1  4  1  0
  8 12  1  0
 12 15  1  0
  8  9  1  0
  8 10  1  0
  8 11  1  0
 12 13  1  0
 12 14  1  0
 15 16  1  0
 15 17  1  0
 15 18  1  0
M  CHG  1   6  -1
M  END
>  <PDB_ID>  (48) 
pdb2ash

>  <RESIDUE_NAME>  (48) 
GLU   LEU

>  <FRAG_NAME>  (48) 
ACET   PRPA

>  <FRAG_ATOM_NUM>  (48) 
fragi: 7  fragj: 11

>  <atom.prop.CHAIN_ID>  (48) 
A A A A A A A Z Z Z Z Z Z Z Z Z Z Z

>  <atom.prop.IS_HEAVY_ATOM>  (48) 
1 0 0 0 1 1 1 1 0 0 0 1 0 0 1 0 0 0

>  <DIFUSE_FUNC_ATOM>  (48) 
atom 6   atom 7   

>  <FINAL_SINGLE_POINT_ENERGY>  (48) 
0

>  <NONCOV_INTER_ENERGY_QM>  (48) 
0

>  <FF_Energy>  (48) 
21.86

>  <QM_Energy>  (48) 
5.28

>  <source>  (48) 
ACET_PRPA_00

>  <Index>  (48) 
21701

$$$$
ACET-pdb1axd-B-GLU-66:PRPA-pdb1axd-A-GLU-100
     RDKit          3D

 18 16  0  0  0  0  0  0  0  0999 V2000
   -0.0050    1.5079   -0.0351 C   0  0  0  0  0  0  0  0  0  0  0  0
   -0.1549    1.7813   -0.9730 H   0  0  0  0  0  0  0  0  0  0  0  0
    0.8760    1.8133    0.2934 H   0  0  0  0  0  0  0  0  0  0  0  0
   -0.7837    1.9502    0.5864 H   0  0  0  0  0  0  0  0  0  0  0  0
    0.0000    0.0000    0.0000 C   0  0  0  0  0  0  0  0  0  0  0  0
   -1.0916   -0.5963   -0.0000 O   0  0  0  0  0  1  0  0  0  0  0  0
    1.0916   -0.5960    0.0000 O   0  0  0  0  0  0  0  0  0  0  0  0
    0.2857    2.5896   -4.0751 C   0  0  0  0  0  0  0  0  0  0  0  0
    1.2314    2.7631   -4.3965 H   0  0  0  0  0  0  0  0  0  0  0  0
   -0.4123    3.1654   -4.6829 H   0  0  0  0  0  0  0  0  0  0  0  0
    0.0702    1.5220   -4.1161 H   0  0  0  0  0  0  0  0  0  0  0  0
    0.2658    3.0822   -2.6281 C   0  0  0  0  0  0  0  0  0  0  0  0
   -0.6816    3.1708   -2.3542 H   0  0  0  0  0  0  0  0  0  0  0  0
    0.7351    2.4095   -2.0747 H   0  0  0  0  0  0  0  0  0  0  0  0
    0.9397    4.4247   -2.3845 C   0  0  0  0  0  0  0  0  0  0  0  0
    0.5251    5.0884   -2.9774 H   0  0  0  0  0  0  0  0  0  0  0  0
    0.8357    4.6551   -1.4352 H   0  0  0  0  0  0  0  0  0  0  0  0
    2.0071    4.4048   -2.6044 H   0  0  0  0  0  0  0  0  0  0  0  0
  1  5  1  0
  5  6  1  0
  5  7  2  0
  1  2  1  0
  1  3  1  0
  1  4  1  0
  8 12  1  0
 12 15  1  0
  8  9  1  0
  8 10  1  0
  8 11  1  0
 12 13  1  0
 12 14  1  0
 15 16  1  0
 15 17  1  0
 15 18  1  0
M  CHG  1   6  -1
M  END
>  <PDB_ID>  (49) 
pdb1axd

>  <RESIDUE_NAME>  (49) 
GLU   GLU

>  <FRAG_NAME>  (49) 
ACET   PRPA

>  <FRAG_ATOM_NUM>  (49) 
fragi: 7  fragj: 11

>  <atom.prop.CHAIN_ID>  (49) 
A A A A A A A Z Z Z Z Z Z Z Z Z Z Z

>  <atom.prop.IS_HEAVY_ATOM>  (49) 
1 0 0 0 1 1 1 1 0 0 0 1 0 0 1 0 0 0

>  <DIFUSE_FUNC_ATOM>  (49) 
atom 6   atom 7   

>  <FINAL_SINGLE_POINT_ENERGY>  (49) 
0

>  <NONCOV_INTER_ENERGY_QM>  (49) 
0

>  <FF_Energy>  (49) 
29.39

>  <QM_Energy>  (49) 
6.06

>  <source>  (49) 
ACET_PRPA_00

>  <Index>  (49) 
23223

$$$$
ACET-pdb2bgi-A-ASP-56:PRPA-pdb2bgi-A-LYS-60
     RDKit          3D

 18 16  0  0  0  0  0  0  0  0999 V2000
    0.0062    1.5160   -0.0146 C   0  0  0  0  0  0  0  0  0  0  0  0
   -0.2516    1.8297   -0.9217 H   0  0  0  0  0  0  0  0  0  0  0  0
    0.9180    1.8356    0.2168 H   0  0  0  0  0  0  0  0  0  0  0  0
   -0.6925    1.9500    0.7006 H   0  0  0  0  0  0  0  0  0  0  0  0
    0.0000    0.0000    0.0000 C   0  0  0  0  0  0  0  0  0  0  0  0
   -1.0984   -0.5982    0.0000 O   0  0  0  0  0  1  0  0  0  0  0  0
    1.0984   -0.5948   -0.0000 O   0  0  0  0  0  0  0  0  0  0  0  0
    1.0154   -3.1575    1.2916 C   0  0  0  0  0  0  0  0  0  0  0  0
    0.5360   -3.9093    0.8443 H   0  0  0  0  0  0  0  0  0  0  0  0
    1.0169   -2.3565    0.6966 H   0  0  0  0  0  0  0  0  0  0  0  0
    0.4738   -2.9030    2.2027 H   0  0  0  0  0  0  0  0  0  0  0  0
    2.4587   -3.5828    1.5265 C   0  0  0  0  0  0  0  0  0  0  0  0
    2.9406   -2.8491    2.0058 H   0  0  0  0  0  0  0  0  0  0  0  0
    2.4680   -4.4101    2.0867 H   0  0  0  0  0  0  0  0  0  0  0  0
    3.1747   -3.8674    0.2153 C   0  0  0  0  0  0  0  0  0  0  0  0
    2.6963   -4.5961   -0.2619 H   0  0  0  0  0  0  0  0  0  0  0  0
    3.1837   -3.0393   -0.3344 H   0  0  0  0  0  0  0  0  0  0  0  0
    4.2045   -4.1820    0.3849 H   0  0  0  0  0  0  0  0  0  0  0  0
  1  5  1  0
  5  6  1  0
  5  7  2  0
  1  2  1  0
  1  3  1  0
  1  4  1  0
  8 12  1  0
 12 15  1  0
  8  9  1  0
  8 10  1  0
  8 11  1  0
 12 13  1  0
 12 14  1  0
 15 16  1  0
 15 17  1  0
 15 18  1  0
M  CHG  1   6  -1
M  END
>  <PDB_ID>  (50) 
pdb2bgi

>  <RESIDUE_NAME>  (50) 
ASP   LYS

>  <FRAG_NAME>  (50) 
ACET   PRPA

>  <FRAG_ATOM_NUM>  (50) 
fragi: 7  fragj: 11

>  <atom.prop.CHAIN_ID>  (50) 
A A A A A A A Z Z Z Z Z Z Z Z Z Z Z

>  <atom.prop.IS_HEAVY_ATOM>  (50) 
1 0 0 0 1 1 1 1 0 0 0 1 0 0 1 0 0 0

>  <DIFUSE_FUNC_ATOM>  (50) 
atom 6   atom 7   

>  <FINAL_SINGLE_POINT_ENERGY>  (50) 
0

>  <NONCOV_INTER_ENERGY_QM>  (50) 
0

>  <FF_Energy>  (50) 
14.16

>  <QM_Energy>  (50) 
-1.6

>  <source>  (50) 
ACET_PRPA_00

>  <Index>  (50) 
23484

$$$$
ACET-pdb1b0o-A-GLU-55:PRPA-pdb1b0o-A-LYS-70
     RDKit          3D

 18 16  0  0  0  0  0  0  0  0999 V2000
   -0.0079    1.5167   -0.0156 C   0  0  0  0  0  0  0  0  0  0  0  0
   -0.6073    1.8033   -0.7435 H   0  0  0  0  0  0  0  0  0  0  0  0
    0.9194    1.8173   -0.1640 H   0  0  0  0  0  0  0  0  0  0  0  0
   -0.3658    1.9584    0.9144 H   0  0  0  0  0  0  0  0  0  0  0  0
    0.0000    0.0000    0.0000 C   0  0  0  0  0  0  0  0  0  0  0  0
   -1.0993   -0.6074   -0.0000 O   0  0  0  0  0  1  0  0  0  0  0  0
    1.0993   -0.5982    0.0000 O   0  0  0  0  0  0  0  0  0  0  0  0
    4.0241    0.5918   -0.5318 C   0  0  0  0  0  0  0  0  0  0  0  0
    3.6681    1.3775   -0.0315 H   0  0  0  0  0  0  0  0  0  0  0  0
    3.5124    0.4668   -1.3785 H   0  0  0  0  0  0  0  0  0  0  0  0
    5.0730    0.7676   -0.7707 H   0  0  0  0  0  0  0  0  0  0  0  0
    3.8684   -0.6528    0.3281 C   0  0  0  0  0  0  0  0  0  0  0  0
    4.4772   -0.5859    1.1073 H   0  0  0  0  0  0  0  0  0  0  0  0
    2.9250   -0.7284    0.6217 H   0  0  0  0  0  0  0  0  0  0  0  0
    4.2313   -1.9054   -0.4637 C   0  0  0  0  0  0  0  0  0  0  0  0
    3.5260   -2.0673   -1.1547 H   0  0  0  0  0  0  0  0  0  0  0  0
    5.1107   -1.7579   -0.9183 H   0  0  0  0  0  0  0  0  0  0  0  0
    4.3047   -2.7780    0.1853 H   0  0  0  0  0  0  0  0  0  0  0  0
  1  5  1  0
  5  6  1  0
  5  7  2  0
  1  2  1  0
  1  3  1  0
  1  4  1  0
  8 12  1  0
 12 15  1  0
  8  9  1  0
  8 10  1  0
  8 11  1  0
 12 13  1  0
 12 14  1  0
 15 16  1  0
 15 17  1  0
 15 18  1  0
M  CHG  1   6  -1
M  END
>  <PDB_ID>  (51) 
pdb1b0o

>  <RESIDUE_NAME>  (51) 
GLU   LYS

>  <FRAG_NAME>  (51) 
ACET   PRPA

>  <FRAG_ATOM_NUM>  (51) 
fragi: 7  fragj: 11

>  <atom.prop.CHAIN_ID>  (51) 
A A A A A A A Z Z Z Z Z Z Z Z Z Z Z

>  <atom.prop.IS_HEAVY_ATOM>  (51) 
1 0 0 0 1 1 1 1 0 0 0 1 0 0 1 0 0 0

>  <DIFUSE_FUNC_ATOM>  (51) 
atom 6   atom 7   

>  <FINAL_SINGLE_POINT_ENERGY>  (51) 
0

>  <NONCOV_INTER_ENERGY_QM>  (51) 
0

>  <FF_Energy>  (51) 
13.93

>  <QM_Energy>  (51) 
-2.58

>  <source>  (51) 
ACET_PRPA_00

>  <Index>  (51) 
24006

$$$$
ACET-pdb2a7k-H-GLU-29:PRPA-pdb2a7k-H-ARG-82
     RDKit          3D

 18 16  0  0  0  0  0  0  0  0999 V2000
   -0.0347    1.5177   -0.0048 C   0  0  0  0  0  0  0  0  0  0  0  0
    0.3375    1.8235   -0.8508 H   0  0  0  0  0  0  0  0  0  0  0  0
    0.4529    1.8316    0.7773 H   0  0  0  0  0  0  0  0  0  0  0  0
   -1.0588    1.8844    0.0650 H   0  0  0  0  0  0  0  0  0  0  0  0
    0.0000    0.0000    0.0000 C   0  0  0  0  0  0  0  0  0  0  0  0
   -1.0878   -0.5878   -0.0000 O   0  0  0  0  0  1  0  0  0  0  0  0
    1.0878   -0.6231    0.0000 O   0  0  0  0  0  0  0  0  0  0  0  0
   -1.4444   -3.3490   -2.4598 C   0  0  0  0  0  0  0  0  0  0  0  0
   -0.7774   -4.0931   -2.5480 H   0  0  0  0  0  0  0  0  0  0  0  0
   -0.9676   -2.5188   -2.1593 H   0  0  0  0  0  0  0  0  0  0  0  0
   -1.8434   -3.1515   -3.4548 H   0  0  0  0  0  0  0  0  0  0  0  0
   -2.4553   -3.7143   -1.4749 C   0  0  0  0  0  0  0  0  0  0  0  0
   -3.3220   -3.2733   -1.6759 H   0  0  0  0  0  0  0  0  0  0  0  0
   -2.5656   -4.6990   -1.4287 H   0  0  0  0  0  0  0  0  0  0  0  0
   -1.9919   -3.2377   -0.1358 C   0  0  0  0  0  0  0  0  0  0  0  0
   -1.4662   -2.3826   -0.2659 H   0  0  0  0  0  0  0  0  0  0  0  0
   -2.8070   -3.0156    0.4215 H   0  0  0  0  0  0  0  0  0  0  0  0
   -1.3744   -3.9479    0.4140 H   0  0  0  0  0  0  0  0  0  0  0  0
  1  5  1  0
  5  6  1  0
  5  7  2  0
  1  2  1  0
  1  3  1  0
  1  4  1  0
  8 12  1  0
 12 15  1  0
  8  9  1  0
  8 10  1  0
  8 11  1  0
 12 13  1  0
 12 14  1  0
 15 16  1  0
 15 17  1  0
 15 18  1  0
M  CHG  1   6  -1
M  END
>  <PDB_ID>  (52) 
pdb2a7k

>  <RESIDUE_NAME>  (52) 
GLU   ARG

>  <FRAG_NAME>  (52) 
ACET   PRPA

>  <FRAG_ATOM_NUM>  (52) 
fragi: 7  fragj: 11

>  <atom.prop.CHAIN_ID>  (52) 
A A A A A A A Z Z Z Z Z Z Z Z Z Z Z

>  <atom.prop.IS_HEAVY_ATOM>  (52) 
1 0 0 0 1 1 1 1 0 0 0 1 0 0 1 0 0 0

>  <DIFUSE_FUNC_ATOM>  (52) 
atom 6   atom 7   

>  <FINAL_SINGLE_POINT_ENERGY>  (52) 
0

>  <NONCOV_INTER_ENERGY_QM>  (52) 
0

>  <FF_Energy>  (52) 
18.53

>  <QM_Energy>  (52) 
-0.93

>  <source>  (52) 
ACET_PRPA_00

>  <Index>  (52) 
24154

$$$$
ACET-pdb1b0o-A-ASP-98:PRPA-pdb1b0o-A-LYS-101
     RDKit          3D

 18 16  0  0  0  0  0  0  0  0999 V2000
    0.0238    1.5133   -0.0049 C   0  0  0  0  0  0  0  0  0  0  0  0
    0.8408    1.8188   -0.4805 H   0  0  0  0  0  0  0  0  0  0  0  0
    0.0273    1.8368    0.9342 H   0  0  0  0  0  0  0  0  0  0  0  0
   -0.8414    1.9444   -0.5088 H   0  0  0  0  0  0  0  0  0  0  0  0
    0.0000    0.0000    0.0000 C   0  0  0  0  0  0  0  0  0  0  0  0
   -1.0940   -0.6032    0.0000 O   0  0  0  0  0  1  0  0  0  0  0  0
    1.0940   -0.5999   -0.0000 O   0  0  0  0  0  0  0  0  0  0  0  0
   -0.8012   -3.6821    0.5194 C   0  0  0  0  0  0  0  0  0  0  0  0
   -0.5478   -4.6331    0.3096 H   0  0  0  0  0  0  0  0  0  0  0  0
   -1.0380   -3.1651   -0.4105 H   0  0  0  0  0  0  0  0  0  0  0  0
   -1.6631   -3.6910    1.1867 H   0  0  0  0  0  0  0  0  0  0  0  0
    0.3831   -3.0373    1.2292 C   0  0  0  0  0  0  0  0  0  0  0  0
    0.4102   -2.0649    0.9741 H   0  0  0  0  0  0  0  0  0  0  0  0
    0.2265   -3.1016    2.2207 H   0  0  0  0  0  0  0  0  0  0  0  0
    1.7427   -3.6436    0.9250 C   0  0  0  0  0  0  0  0  0  0  0  0
    2.4581   -3.0346    1.2802 H   0  0  0  0  0  0  0  0  0  0  0  0
    1.8149   -4.5321    1.3849 H   0  0  0  0  0  0  0  0  0  0  0  0
    1.9003   -3.7863   -0.1440 H   0  0  0  0  0  0  0  0  0  0  0  0
  1  5  1  0
  5  6  1  0
  5  7  2  0
  1  2  1  0
  1  3  1  0
  1  4  1  0
  8 12  1  0
 12 15  1  0
  8  9  1  0
  8 10  1  0
  8 11  1  0
 12 13  1  0
 12 14  1  0
 15 16  1  0
 15 17  1  0
 15 18  1  0
M  CHG  1   6  -1
M  END
>  <PDB_ID>  (53) 
pdb1b0o

>  <RESIDUE_NAME>  (53) 
ASP   LYS

>  <FRAG_NAME>  (53) 
ACET   PRPA

>  <FRAG_ATOM_NUM>  (53) 
fragi: 7  fragj: 11

>  <atom.prop.CHAIN_ID>  (53) 
A A A A A A A Z Z Z Z Z Z Z Z Z Z Z

>  <atom.prop.IS_HEAVY_ATOM>  (53) 
1 0 0 0 1 1 1 1 0 0 0 1 0 0 1 0 0 0

>  <DIFUSE_FUNC_ATOM>  (53) 
atom 6   atom 7   

>  <FINAL_SINGLE_POINT_ENERGY>  (53) 
0

>  <NONCOV_INTER_ENERGY_QM>  (53) 
0

>  <FF_Energy>  (53) 
15.29

>  <QM_Energy>  (53) 
-0.99

>  <source>  (53) 
ACET_PRPA_00

>  <Index>  (53) 
24783

$$$$
ACET-pdb1b0o-A-ASP-98:PRPA-pdb1b0o-A-LYS-101
     RDKit          3D

 18 16  0  0  0  0  0  0  0  0999 V2000
    0.0238    1.5133   -0.0049 C   0  0  0  0  0  0  0  0  0  0  0  0
    0.8408    1.8188   -0.4805 H   0  0  0  0  0  0  0  0  0  0  0  0
    0.0273    1.8368    0.9342 H   0  0  0  0  0  0  0  0  0  0  0  0
   -0.8414    1.9444   -0.5088 H   0  0  0  0  0  0  0  0  0  0  0  0
    0.0000    0.0000    0.0000 C   0  0  0  0  0  0  0  0  0  0  0  0
   -1.0940   -0.6032    0.0000 O   0  0  0  0  0  1  0  0  0  0  0  0
    1.0940   -0.5999   -0.0000 O   0  0  0  0  0  0  0  0  0  0  0  0
    0.3831   -3.0373    1.2292 C   0  0  0  0  0  0  0  0  0  0  0  0
    0.4102   -2.0649    0.9741 H   0  0  0  0  0  0  0  0  0  0  0  0
    0.2265   -3.1016    2.2207 H   0  0  0  0  0  0  0  0  0  0  0  0
   -0.4640   -3.4985    0.7215 H   0  0  0  0  0  0  0  0  0  0  0  0
    1.7427   -3.6436    0.9250 C   0  0  0  0  0  0  0  0  0  0  0  0
    2.4581   -3.0346    1.2802 H   0  0  0  0  0  0  0  0  0  0  0  0
    1.8149   -4.5321    1.3849 H   0  0  0  0  0  0  0  0  0  0  0  0
    1.9621   -3.8422   -0.5629 C   0  0  0  0  0  0  0  0  0  0  0  0
    2.2166   -4.7930   -0.7282 H   0  0  0  0  0  0  0  0  0  0  0  0
    1.1159   -3.6295   -1.0474 H   0  0  0  0  0  0  0  0  0  0  0  0
    2.7530   -3.2004   -0.9509 H   0  0  0  0  0  0  0  0  0  0  0  0
  1  5  1  0
  5  6  1  0
  5  7  2  0
  1  2  1  0
  1  3  1  0
  1  4  1  0
  8 12  1  0
 12 15  1  0
  8  9  1  0
  8 10  1  0
  8 11  1  0
 12 13  1  0
 12 14  1  0
 15 16  1  0
 15 17  1  0
 15 18  1  0
M  CHG  1   6  -1
M  END
>  <PDB_ID>  (54) 
pdb1b0o

>  <RESIDUE_NAME>  (54) 
ASP   LYS

>  <FRAG_NAME>  (54) 
ACET   PRPA

>  <FRAG_ATOM_NUM>  (54) 
fragi: 7  fragj: 11

>  <atom.prop.CHAIN_ID>  (54) 
A A A A A A A Z Z Z Z Z Z Z Z Z Z Z

>  <atom.prop.IS_HEAVY_ATOM>  (54) 
1 0 0 0 1 1 1 1 0 0 0 1 0 0 1 0 0 0

>  <DIFUSE_FUNC_ATOM>  (54) 
atom 6   atom 7   

>  <FINAL_SINGLE_POINT_ENERGY>  (54) 
0

>  <NONCOV_INTER_ENERGY_QM>  (54) 
0

>  <FF_Energy>  (54) 
20.02

>  <QM_Energy>  (54) 
-0.14

>  <source>  (54) 
ACET_PRPA_00

>  <Index>  (54) 
24790

$$$$
ACET-pdb1b1u-A-GLU-49:PRPA-pdb1b1u-A-LEU-105
     RDKit          3D

 18 16  0  0  0  0  0  0  0  0999 V2000
    0.0061    1.5234   -0.0013 C   0  0  0  0  0  0  0  0  0  0  0  0
   -0.5377    1.8202   -0.7623 H   0  0  0  0  0  0  0  0  0  0  0  0
    0.9412    1.8143   -0.0700 H   0  0  0  0  0  0  0  0  0  0  0  0
   -0.4194    1.9448    0.9094 H   0  0  0  0  0  0  0  0  0  0  0  0
    0.0000    0.0000    0.0000 C   0  0  0  0  0  0  0  0  0  0  0  0
   -1.0975   -0.6007    0.0000 O   0  0  0  0  0  1  0  0  0  0  0  0
    1.0975   -0.5990   -0.0000 O   0  0  0  0  0  0  0  0  0  0  0  0
    5.4324    2.7227    0.1282 C   0  0  0  0  0  0  0  0  0  0  0  0
    5.9665    2.8279    0.9794 H   0  0  0  0  0  0  0  0  0  0  0  0
    5.0109    3.6152   -0.0848 H   0  0  0  0  0  0  0  0  0  0  0  0
    6.1370    2.4957   -0.6718 H   0  0  0  0  0  0  0  0  0  0  0  0
    4.2822    1.7463    0.4392 C   0  0  0  0  0  0  0  0  0  0  0  0
    4.5986    0.8153    0.2754 H   0  0  0  0  0  0  0  0  0  0  0  0
    3.9729    1.8481    1.4794 H   0  0  0  0  0  0  0  0  0  0  0  0
    3.1029    2.0241   -0.4806 C   0  0  0  0  0  0  0  0  0  0  0  0
    3.3860    1.9060   -1.4335 H   0  0  0  0  0  0  0  0  0  0  0  0
    2.3595    1.3870   -0.2743 H   0  0  0  0  0  0  0  0  0  0  0  0
    2.7845    2.9628   -0.3428 H   0  0  0  0  0  0  0  0  0  0  0  0
  1  5  1  0
  5  6  1  0
  5  7  2  0
  1  2  1  0
  1  3  1  0
  1  4  1  0
  8 12  1  0
 12 15  1  0
  8  9  1  0
  8 10  1  0
  8 11  1  0
 12 13  1  0
 12 14  1  0
 15 16  1  0
 15 17  1  0
 15 18  1  0
M  CHG  1   6  -1
M  END
>  <PDB_ID>  (55) 
pdb1b1u

>  <RESIDUE_NAME>  (55) 
GLU   LEU

>  <FRAG_NAME>  (55) 
ACET   PRPA

>  <FRAG_ATOM_NUM>  (55) 
fragi: 7  fragj: 11

>  <atom.prop.CHAIN_ID>  (55) 
A A A A A A A Z Z Z Z Z Z Z Z Z Z Z

>  <atom.prop.IS_HEAVY_ATOM>  (55) 
1 0 0 0 1 1 1 1 0 0 0 1 0 0 1 0 0 0

>  <DIFUSE_FUNC_ATOM>  (55) 
atom 6   atom 7   

>  <FINAL_SINGLE_POINT_ENERGY>  (55) 
0

>  <NONCOV_INTER_ENERGY_QM>  (55) 
0

>  <FF_Energy>  (55) 
33.57

>  <QM_Energy>  (55) 
3.79

>  <source>  (55) 
ACET_PRPA_00

>  <Index>  (55) 
24835

$$$$
ACET-pdb1b1u-A-GLU-49:PRPA-pdb1b1u-A-LEU-105
     RDKit          3D

 18 16  0  0  0  0  0  0  0  0999 V2000
    0.0061    1.5234   -0.0013 C   0  0  0  0  0  0  0  0  0  0  0  0
   -0.5377    1.8202   -0.7623 H   0  0  0  0  0  0  0  0  0  0  0  0
    0.9412    1.8143   -0.0700 H   0  0  0  0  0  0  0  0  0  0  0  0
   -0.4194    1.9448    0.9094 H   0  0  0  0  0  0  0  0  0  0  0  0
    0.0000    0.0000    0.0000 C   0  0  0  0  0  0  0  0  0  0  0  0
   -1.0975   -0.6007    0.0000 O   0  0  0  0  0  1  0  0  0  0  0  0
    1.0975   -0.5990   -0.0000 O   0  0  0  0  0  0  0  0  0  0  0  0
    3.8496    1.8886    1.8942 C   0  0  0  0  0  0  0  0  0  0  0  0
    3.5384    2.8244    2.0585 H   0  0  0  0  0  0  0  0  0  0  0  0
    3.1029    1.2504    2.0836 H   0  0  0  0  0  0  0  0  0  0  0  0
    4.6232    1.6845    2.4934 H   0  0  0  0  0  0  0  0  0  0  0  0
    4.2822    1.7463    0.4392 C   0  0  0  0  0  0  0  0  0  0  0  0
    4.5986    0.8153    0.2754 H   0  0  0  0  0  0  0  0  0  0  0  0
    5.0961    2.4372    0.2191 H   0  0  0  0  0  0  0  0  0  0  0  0
    3.1029    2.0241   -0.4806 C   0  0  0  0  0  0  0  0  0  0  0  0
    3.3860    1.9060   -1.4335 H   0  0  0  0  0  0  0  0  0  0  0  0
    2.3595    1.3870   -0.2743 H   0  0  0  0  0  0  0  0  0  0  0  0
    2.7845    2.9628   -0.3428 H   0  0  0  0  0  0  0  0  0  0  0  0
  1  5  1  0
  5  6  1  0
  5  7  2  0
  1  2  1  0
  1  3  1  0
  1  4  1  0
  8 12  1  0
 12 15  1  0
  8  9  1  0
  8 10  1  0
  8 11  1  0
 12 13  1  0
 12 14  1  0
 15 16  1  0
 15 17  1  0
 15 18  1  0
M  CHG  1   6  -1
M  END
>  <PDB_ID>  (56) 
pdb1b1u

>  <RESIDUE_NAME>  (56) 
GLU   LEU

>  <FRAG_NAME>  (56) 
ACET   PRPA

>  <FRAG_ATOM_NUM>  (56) 
fragi: 7  fragj: 11

>  <atom.prop.CHAIN_ID>  (56) 
A A A A A A A Z Z Z Z Z Z Z Z Z Z Z

>  <atom.prop.IS_HEAVY_ATOM>  (56) 
1 0 0 0 1 1 1 1 0 0 0 1 0 0 1 0 0 0

>  <DIFUSE_FUNC_ATOM>  (56) 
atom 6   atom 7   

>  <FINAL_SINGLE_POINT_ENERGY>  (56) 
0

>  <NONCOV_INTER_ENERGY_QM>  (56) 
0

>  <FF_Energy>  (56) 
33.58

>  <QM_Energy>  (56) 
2.95

>  <source>  (56) 
ACET_PRPA_00

>  <Index>  (56) 
24839

$$$$
ACET-pdb2b81-A-GLU-163:PRPA-pdb2b81-A-LYS-167
     RDKit          3D

 18 16  0  0  0  0  0  0  0  0999 V2000
    0.0243    1.5350    0.0303 C   0  0  0  0  0  0  0  0  0  0  0  0
    0.9173    1.8197   -0.2727 H   0  0  0  0  0  0  0  0  0  0  0  0
   -0.1538    1.8109    0.9593 H   0  0  0  0  0  0  0  0  0  0  0  0
   -0.7189    2.0046   -0.6142 H   0  0  0  0  0  0  0  0  0  0  0  0
    0.0000    0.0000    0.0000 C   0  0  0  0  0  0  0  0  0  0  0  0
   -1.0993   -0.6143    0.0000 O   0  0  0  0  0  1  0  0  0  0  0  0
    1.0993   -0.5939    0.0000 O   0  0  0  0  0  0  0  0  0  0  0  0
   -0.1333   -2.3373   -3.9258 C   0  0  0  0  0  0  0  0  0  0  0  0
   -0.5065   -3.0932   -3.3783 H   0  0  0  0  0  0  0  0  0  0  0  0
    0.4564   -2.7184   -4.6435 H   0  0  0  0  0  0  0  0  0  0  0  0
   -0.9499   -1.7770   -4.3811 H   0  0  0  0  0  0  0  0  0  0  0  0
    0.7346   -1.4655   -3.0070 C   0  0  0  0  0  0  0  0  0  0  0  0
    1.3641   -0.9336   -3.5568 H   0  0  0  0  0  0  0  0  0  0  0  0
    0.1522   -0.8770   -2.4643 H   0  0  0  0  0  0  0  0  0  0  0  0
    1.5962   -2.3267   -2.0068 C   0  0  0  0  0  0  0  0  0  0  0  0
    1.6177   -1.8455   -1.1257 H   0  0  0  0  0  0  0  0  0  0  0  0
    1.1329   -3.2089   -1.8824 H   0  0  0  0  0  0  0  0  0  0  0  0
    2.6184   -2.5045   -2.3405 H   0  0  0  0  0  0  0  0  0  0  0  0
  1  5  1  0
  5  6  1  0
  5  7  2  0
  1  2  1  0
  1  3  1  0
  1  4  1  0
  8 12  1  0
 12 15  1  0
  8  9  1  0
  8 10  1  0
  8 11  1  0
 12 13  1  0
 12 14  1  0
 15 16  1  0
 15 17  1  0
 15 18  1  0
M  CHG  1   6  -1
M  END
>  <PDB_ID>  (57) 
pdb2b81

>  <RESIDUE_NAME>  (57) 
GLU   LYS

>  <FRAG_NAME>  (57) 
ACET   PRPA

>  <FRAG_ATOM_NUM>  (57) 
fragi: 7  fragj: 11

>  <atom.prop.CHAIN_ID>  (57) 
A A A A A A A Z Z Z Z Z Z Z Z Z Z Z

>  <atom.prop.IS_HEAVY_ATOM>  (57) 
1 0 0 0 1 1 1 1 0 0 0 1 0 0 1 0 0 0

>  <DIFUSE_FUNC_ATOM>  (57) 
atom 6   atom 7   

>  <FINAL_SINGLE_POINT_ENERGY>  (57) 
0

>  <NONCOV_INTER_ENERGY_QM>  (57) 
0

>  <FF_Energy>  (57) 
37.83

>  <QM_Energy>  (57) 
-0.01

>  <source>  (57) 
ACET_PRPA_00

>  <Index>  (57) 
25175

$$$$
ACET-pdb1b67-B-GLU-103:PRPA-pdb1b67-A-PRO-8
     RDKit          3D

 18 16  0  0  0  0  0  0  0  0999 V2000
   -0.0435    1.5171   -0.0097 C   0  0  0  0  0  0  0  0  0  0  0  0
    0.4491    1.8241   -0.7840 H   0  0  0  0  0  0  0  0  0  0  0  0
    0.2945    1.8287    0.8411 H   0  0  0  0  0  0  0  0  0  0  0  0
   -1.0787    1.8429   -0.1102 H   0  0  0  0  0  0  0  0  0  0  0  0
    0.0000    0.0000    0.0000 C   0  0  0  0  0  0  0  0  0  0  0  0
   -1.1025   -0.6110   -0.0000 O   0  0  0  0  0  1  0  0  0  0  0  0
    1.1025   -0.5874    0.0000 O   0  0  0  0  0  0  0  0  0  0  0  0
   -1.6438   -3.6213   -1.6270 C   0  0  0  0  0  0  0  0  0  0  0  0
   -1.9457   -3.4502   -0.6779 H   0  0  0  0  0  0  0  0  0  0  0  0
   -0.9926   -4.4943   -1.6711 H   0  0  0  0  0  0  0  0  0  0  0  0
   -2.5023   -3.7172   -2.2916 H   0  0  0  0  0  0  0  0  0  0  0  0
   -0.7301   -2.4750   -2.0526 C   0  0  0  0  0  0  0  0  0  0  0  0
   -1.0009   -2.1369   -2.9776 H   0  0  0  0  0  0  0  0  0  0  0  0
   -0.8402   -1.6848   -1.4172 H   0  0  0  0  0  0  0  0  0  0  0  0
    0.6478   -2.9737   -2.0500 C   0  0  0  0  0  0  0  0  0  0  0  0
    1.1586   -2.6370   -2.8692 H   0  0  0  0  0  0  0  0  0  0  0  0
    1.1586   -2.6256   -1.2368 H   0  0  0  0  0  0  0  0  0  0  0  0
    0.6206   -4.0633   -2.0420 H   0  0  0  0  0  0  0  0  0  0  0  0
  1  5  1  0
  5  6  1  0
  5  7  2  0
  1  2  1  0
  1  3  1  0
  1  4  1  0
  8 12  1  0
 12 15  1  0
  8  9  1  0
  8 10  1  0
  8 11  1  0
 12 13  1  0
 12 14  1  0
 15 16  1  0
 15 17  1  0
 15 18  1  0
M  CHG  1   6  -1
M  END
>  <PDB_ID>  (58) 
pdb1b67

>  <RESIDUE_NAME>  (58) 
GLU   PRO

>  <FRAG_NAME>  (58) 
ACET   PRPA

>  <FRAG_ATOM_NUM>  (58) 
fragi: 7  fragj: 11

>  <atom.prop.CHAIN_ID>  (58) 
A A A A A A A Z Z Z Z Z Z Z Z Z Z Z

>  <atom.prop.IS_HEAVY_ATOM>  (58) 
1 0 0 0 1 1 1 1 0 0 0 1 0 0 1 0 0 0

>  <DIFUSE_FUNC_ATOM>  (58) 
atom 6   atom 7   

>  <FINAL_SINGLE_POINT_ENERGY>  (58) 
0

>  <NONCOV_INTER_ENERGY_QM>  (58) 
0

>  <FF_Energy>  (58) 
35.64

>  <QM_Energy>  (58) 
-2.07

>  <source>  (58) 
ACET_PRPA_00

>  <Index>  (58) 
26423

$$$$
ACET-pdb1b67-B-GLU-103:PRPA-pdb1b67-A-PRO-8
     RDKit          3D

 18 16  0  0  0  0  0  0  0  0999 V2000
   -0.0435    1.5171   -0.0097 C   0  0  0  0  0  0  0  0  0  0  0  0
    0.4491    1.8241   -0.7840 H   0  0  0  0  0  0  0  0  0  0  0  0
    0.2945    1.8287    0.8411 H   0  0  0  0  0  0  0  0  0  0  0  0
   -1.0787    1.8429   -0.1102 H   0  0  0  0  0  0  0  0  0  0  0  0
    0.0000    0.0000    0.0000 C   0  0  0  0  0  0  0  0  0  0  0  0
   -1.1025   -0.6110   -0.0000 O   0  0  0  0  0  1  0  0  0  0  0  0
    1.1025   -0.5874    0.0000 O   0  0  0  0  0  0  0  0  0  0  0  0
   -0.7301   -2.4750   -2.0526 C   0  0  0  0  0  0  0  0  0  0  0  0
   -1.0009   -2.1369   -2.9776 H   0  0  0  0  0  0  0  0  0  0  0  0
   -0.8402   -1.6848   -1.4172 H   0  0  0  0  0  0  0  0  0  0  0  0
   -1.3825   -3.2936   -1.7487 H   0  0  0  0  0  0  0  0  0  0  0  0
    0.6478   -2.9737   -2.0500 C   0  0  0  0  0  0  0  0  0  0  0  0
    1.1586   -2.6370   -2.8692 H   0  0  0  0  0  0  0  0  0  0  0  0
    1.1586   -2.6256   -1.2368 H   0  0  0  0  0  0  0  0  0  0  0  0
    0.6104   -4.4702   -2.0391 C   0  0  0  0  0  0  0  0  0  0  0  0
    0.8472   -4.8497   -2.9412 H   0  0  0  0  0  0  0  0  0  0  0  0
    1.2524   -4.8487   -1.3594 H   0  0  0  0  0  0  0  0  0  0  0  0
   -0.4185   -4.7148   -1.7755 H   0  0  0  0  0  0  0  0  0  0  0  0
  1  5  1  0
  5  6  1  0
  5  7  2  0
  1  2  1  0
  1  3  1  0
  1  4  1  0
  8 12  1  0
 12 15  1  0
  8  9  1  0
  8 10  1  0
  8 11  1  0
 12 13  1  0
 12 14  1  0
 15 16  1  0
 15 17  1  0
 15 18  1  0
M  CHG  1   6  -1
M  END
>  <PDB_ID>  (59) 
pdb1b67

>  <RESIDUE_NAME>  (59) 
GLU   PRO

>  <FRAG_NAME>  (59) 
ACET   PRPA

>  <FRAG_ATOM_NUM>  (59) 
fragi: 7  fragj: 11

>  <atom.prop.CHAIN_ID>  (59) 
A A A A A A A Z Z Z Z Z Z Z Z Z Z Z

>  <atom.prop.IS_HEAVY_ATOM>  (59) 
1 0 0 0 1 1 1 1 0 0 0 1 0 0 1 0 0 0

>  <DIFUSE_FUNC_ATOM>  (59) 
atom 6   atom 7   

>  <FINAL_SINGLE_POINT_ENERGY>  (59) 
0

>  <NONCOV_INTER_ENERGY_QM>  (59) 
0

>  <FF_Energy>  (59) 
30.39

>  <QM_Energy>  (59) 
0.02

>  <source>  (59) 
ACET_PRPA_00

>  <Index>  (59) 
26446

$$$$
ACET-pdb1b72-A-GLU-221:PRPA-pdb1b72-A-ARG-232
     RDKit          3D

 18 16  0  0  0  0  0  0  0  0999 V2000
    0.0039    1.5146   -0.0037 C   0  0  0  0  0  0  0  0  0  0  0  0
    0.9379    1.8018   -0.0758 H   0  0  0  0  0  0  0  0  0  0  0  0
   -0.4196    1.8069    0.8301 H   0  0  0  0  0  0  0  0  0  0  0  0
   -0.5587    1.9068   -0.8508 H   0  0  0  0  0  0  0  0  0  0  0  0
    0.0000    0.0000    0.0000 C   0  0  0  0  0  0  0  0  0  0  0  0
   -1.1027   -0.5972   -0.0000 O   0  0  0  0  0  1  0  0  0  0  0  0
    1.1027   -0.5849   -0.0000 O   0  0  0  0  0  0  0  0  0  0  0  0
   -3.8191   -2.6001    3.7299 C   0  0  0  0  0  0  0  0  0  0  0  0
   -3.6771   -3.5804    3.6276 H   0  0  0  0  0  0  0  0  0  0  0  0
   -4.6973   -2.3392    3.3407 H   0  0  0  0  0  0  0  0  0  0  0  0
   -3.8346   -2.3667    4.7945 H   0  0  0  0  0  0  0  0  0  0  0  0
   -2.7271   -1.8813    2.9533 C   0  0  0  0  0  0  0  0  0  0  0  0
   -2.8714   -0.8961    3.0059 H   0  0  0  0  0  0  0  0  0  0  0  0
   -1.8357   -2.1143    3.3352 H   0  0  0  0  0  0  0  0  0  0  0  0
   -2.7212   -2.2765    1.4738 C   0  0  0  0  0  0  0  0  0  0  0  0
   -3.6650   -2.2247    1.1399 H   0  0  0  0  0  0  0  0  0  0  0  0
   -2.1615   -1.6054    0.9815 H   0  0  0  0  0  0  0  0  0  0  0  0
   -2.3294   -3.2768    1.2888 H   0  0  0  0  0  0  0  0  0  0  0  0
  1  5  1  0
  5  6  1  0
  5  7  2  0
  1  2  1  0
  1  3  1  0
  1  4  1  0
  8 12  1  0
 12 15  1  0
  8  9  1  0
  8 10  1  0
  8 11  1  0
 12 13  1  0
 12 14  1  0
 15 16  1  0
 15 17  1  0
 15 18  1  0
M  CHG  1   6  -1
M  END
>  <PDB_ID>  (60) 
pdb1b72

>  <RESIDUE_NAME>  (60) 
GLU   ARG

>  <FRAG_NAME>  (60) 
ACET   PRPA

>  <FRAG_ATOM_NUM>  (60) 
fragi: 7  fragj: 11

>  <atom.prop.CHAIN_ID>  (60) 
A A A A A A A Z Z Z Z Z Z Z Z Z Z Z

>  <atom.prop.IS_HEAVY_ATOM>  (60) 
1 0 0 0 1 1 1 1 0 0 0 1 0 0 1 0 0 0

>  <DIFUSE_FUNC_ATOM>  (60) 
atom 6   atom 7   

>  <FINAL_SINGLE_POINT_ENERGY>  (60) 
0

>  <NONCOV_INTER_ENERGY_QM>  (60) 
0

>  <FF_Energy>  (60) 
35.33

>  <QM_Energy>  (60) 
0.5

>  <source>  (60) 
ACET_PRPA_00

>  <Index>  (60) 
27463

$$$$
ACET-pdb2bmx-A-ASP-22:PRPA-pdb2bmx-A-LYS-25
     RDKit          3D

 18 16  0  0  0  0  0  0  0  0999 V2000
    0.0364    1.5222    0.0149 C   0  0  0  0  0  0  0  0  0  0  0  0
    0.5410    1.8380   -0.7802 H   0  0  0  0  0  0  0  0  0  0  0  0
    0.4799    1.8240    0.8508 H   0  0  0  0  0  0  0  0  0  0  0  0
   -0.9544    1.9752   -0.0186 H   0  0  0  0  0  0  0  0  0  0  0  0
    0.0000    0.0000    0.0000 C   0  0  0  0  0  0  0  0  0  0  0  0
   -1.0985   -0.6052    0.0000 O   0  0  0  0  0  1  0  0  0  0  0  0
    1.0985   -0.5990    0.0000 O   0  0  0  0  0  0  0  0  0  0  0  0
    1.1834    0.8518    3.7555 C   0  0  0  0  0  0  0  0  0  0  0  0
    0.6353    1.6191    3.4106 H   0  0  0  0  0  0  0  0  0  0  0  0
    1.9259    1.2161    4.3253 H   0  0  0  0  0  0  0  0  0  0  0  0
    0.5453    0.2276    4.3811 H   0  0  0  0  0  0  0  0  0  0  0  0
    1.8109    0.1475    2.5590 C   0  0  0  0  0  0  0  0  0  0  0  0
    2.3698   -0.6176    2.8906 H   0  0  0  0  0  0  0  0  0  0  0  0
    1.0789   -0.2134    1.9753 H   0  0  0  0  0  0  0  0  0  0  0  0
    2.6820    1.0778    1.7416 C   0  0  0  0  0  0  0  0  0  0  0  0
    2.1202    1.8405    1.4148 H   0  0  0  0  0  0  0  0  0  0  0  0
    3.4110    1.4364    2.3287 H   0  0  0  0  0  0  0  0  0  0  0  0
    3.1371    0.5861    0.8818 H   0  0  0  0  0  0  0  0  0  0  0  0
  1  5  1  0
  5  6  1  0
  5  7  2  0
  1  2  1  0
  1  3  1  0
  1  4  1  0
  8 12  1  0
 12 15  1  0
  8  9  1  0
  8 10  1  0
  8 11  1  0
 12 13  1  0
 12 14  1  0
 15 16  1  0
 15 17  1  0
 15 18  1  0
M  CHG  1   6  -1
M  END
>  <PDB_ID>  (61) 
pdb2bmx

>  <RESIDUE_NAME>  (61) 
ASP   LYS

>  <FRAG_NAME>  (61) 
ACET   PRPA

>  <FRAG_ATOM_NUM>  (61) 
fragi: 7  fragj: 11

>  <atom.prop.CHAIN_ID>  (61) 
A A A A A A A Z Z Z Z Z Z Z Z Z Z Z

>  <atom.prop.IS_HEAVY_ATOM>  (61) 
1 0 0 0 1 1 1 1 0 0 0 1 0 0 1 0 0 0

>  <DIFUSE_FUNC_ATOM>  (61) 
atom 6   atom 7   

>  <FINAL_SINGLE_POINT_ENERGY>  (61) 
0

>  <NONCOV_INTER_ENERGY_QM>  (61) 
0

>  <FF_Energy>  (61) 
22.25

>  <QM_Energy>  (61) 
4.03

>  <source>  (61) 
ACET_PRPA_00

>  <Index>  (61) 
27942

$$$$
ACET-pdb2b3z-B-ASP-220:PRPA-pdb2b3z-B-VAL-193
     RDKit          3D

 18 16  0  0  0  0  0  0  0  0999 V2000
    0.0329    1.5155    0.0091 C   0  0  0  0  0  0  0  0  0  0  0  0
    0.7148    1.8235   -0.6479 H   0  0  0  0  0  0  0  0  0  0  0  0
    0.2739    1.8240    0.9242 H   0  0  0  0  0  0  0  0  0  0  0  0
   -0.9228    1.9657   -0.2592 H   0  0  0  0  0  0  0  0  0  0  0  0
    0.0000    0.0000    0.0000 C   0  0  0  0  0  0  0  0  0  0  0  0
   -1.0968   -0.5983    0.0000 O   0  0  0  0  0  1  0  0  0  0  0  0
    1.0968   -0.5886    0.0000 O   0  0  0  0  0  0  0  0  0  0  0  0
   -0.2688    0.3698   -5.1714 C   0  0  0  0  0  0  0  0  0  0  0  0
    0.7245    0.5105   -5.2398 H   0  0  0  0  0  0  0  0  0  0  0  0
   -0.7532    1.3434   -5.2451 H   0  0  0  0  0  0  0  0  0  0  0  0
   -0.5782   -0.2750   -5.9940 H   0  0  0  0  0  0  0  0  0  0  0  0
   -0.6435   -0.3537   -3.8889 C   0  0  0  0  0  0  0  0  0  0  0  0
   -0.3218   -1.2930   -3.9717 H   0  0  0  0  0  0  0  0  0  0  0  0
   -1.7232   -0.3189   -3.7432 H   0  0  0  0  0  0  0  0  0  0  0  0
    0.0640    0.2759   -2.7694 C   0  0  0  0  0  0  0  0  0  0  0  0
    0.5404    1.1147   -3.0683 H   0  0  0  0  0  0  0  0  0  0  0  0
   -0.5780    0.5289   -2.0328 H   0  0  0  0  0  0  0  0  0  0  0  0
    0.7532   -0.3499   -2.3793 H   0  0  0  0  0  0  0  0  0  0  0  0
  1  5  1  0
  5  6  1  0
  5  7  2  0
  1  2  1  0
  1  3  1  0
  1  4  1  0
  8 12  1  0
 12 15  1  0
  8  9  1  0
  8 10  1  0
  8 11  1  0
 12 13  1  0
 12 14  1  0
 15 16  1  0
 15 17  1  0
 15 18  1  0
M  CHG  1   6  -1
M  END
>  <PDB_ID>  (62) 
pdb2b3z

>  <RESIDUE_NAME>  (62) 
ASP   VAL

>  <FRAG_NAME>  (62) 
ACET   PRPA

>  <FRAG_ATOM_NUM>  (62) 
fragi: 7  fragj: 11

>  <atom.prop.CHAIN_ID>  (62) 
A A A A A A A Z Z Z Z Z Z Z Z Z Z Z

>  <atom.prop.IS_HEAVY_ATOM>  (62) 
1 0 0 0 1 1 1 1 0 0 0 1 0 0 1 0 0 0

>  <DIFUSE_FUNC_ATOM>  (62) 
atom 6   atom 7   

>  <FINAL_SINGLE_POINT_ENERGY>  (62) 
0

>  <NONCOV_INTER_ENERGY_QM>  (62) 
0

>  <FF_Energy>  (62) 
16.8

>  <QM_Energy>  (62) 
1.49

>  <source>  (62) 
ACET_PRPA_00

>  <Index>  (62) 
27993

$$$$
ACET-pdb2b3z-B-ASP-220:PRPA-pdb2b3z-B-VAL-193
     RDKit          3D

 18 16  0  0  0  0  0  0  0  0999 V2000
    0.0329    1.5155    0.0091 C   0  0  0  0  0  0  0  0  0  0  0  0
    0.7148    1.8235   -0.6479 H   0  0  0  0  0  0  0  0  0  0  0  0
    0.2739    1.8240    0.9242 H   0  0  0  0  0  0  0  0  0  0  0  0
   -0.9228    1.9657   -0.2592 H   0  0  0  0  0  0  0  0  0  0  0  0
    0.0000    0.0000    0.0000 C   0  0  0  0  0  0  0  0  0  0  0  0
   -1.0968   -0.5983    0.0000 O   0  0  0  0  0  1  0  0  0  0  0  0
    1.0968   -0.5886    0.0000 O   0  0  0  0  0  0  0  0  0  0  0  0
    0.0640    0.2759   -2.7694 C   0  0  0  0  0  0  0  0  0  0  0  0
    0.5404    1.1147   -3.0683 H   0  0  0  0  0  0  0  0  0  0  0  0
   -0.5780    0.5289   -2.0328 H   0  0  0  0  0  0  0  0  0  0  0  0
    0.7532   -0.3499   -2.3793 H   0  0  0  0  0  0  0  0  0  0  0  0
   -0.6435   -0.3537   -3.8889 C   0  0  0  0  0  0  0  0  0  0  0  0
   -0.3218   -1.2930   -3.9717 H   0  0  0  0  0  0  0  0  0  0  0  0
   -0.3747    0.1653   -4.8089 H   0  0  0  0  0  0  0  0  0  0  0  0
   -2.1589   -0.3049   -3.6844 C   0  0  0  0  0  0  0  0  0  0  0  0
   -2.3523   -0.0679   -2.7344 H   0  0  0  0  0  0  0  0  0  0  0  0
   -2.5478    0.3850   -4.2923 H   0  0  0  0  0  0  0  0  0  0  0  0
   -2.5453   -1.2008   -3.8963 H   0  0  0  0  0  0  0  0  0  0  0  0
  1  5  1  0
  5  6  1  0
  5  7  2  0
  1  2  1  0
  1  3  1  0
  1  4  1  0
  8 12  1  0
 12 15  1  0
  8  9  1  0
  8 10  1  0
  8 11  1  0
 12 13  1  0
 12 14  1  0
 15 16  1  0
 15 17  1  0
 15 18  1  0
M  CHG  1   6  -1
M  END
>  <PDB_ID>  (63) 
pdb2b3z

>  <RESIDUE_NAME>  (63) 
ASP   VAL

>  <FRAG_NAME>  (63) 
ACET   PRPA

>  <FRAG_ATOM_NUM>  (63) 
fragi: 7  fragj: 11

>  <atom.prop.CHAIN_ID>  (63) 
A A A A A A A Z Z Z Z Z Z Z Z Z Z Z

>  <atom.prop.IS_HEAVY_ATOM>  (63) 
1 0 0 0 1 1 1 1 0 0 0 1 0 0 1 0 0 0

>  <DIFUSE_FUNC_ATOM>  (63) 
atom 6   atom 7   

>  <FINAL_SINGLE_POINT_ENERGY>  (63) 
0

>  <NONCOV_INTER_ENERGY_QM>  (63) 
0

>  <FF_Energy>  (63) 
16.82

>  <QM_Energy>  (63) 
0.71

>  <source>  (63) 
ACET_PRPA_00

>  <Index>  (63) 
28025

$$$$
ACET-pdb1b67-A-GLU-19:PRPA-pdb1b67-B-LYS-154
     RDKit          3D

 18 16  0  0  0  0  0  0  0  0999 V2000
    0.0497    1.5093   -0.0363 C   0  0  0  0  0  0  0  0  0  0  0  0
   -0.4503    1.7987   -0.8661 H   0  0  0  0  0  0  0  0  0  0  0  0
    1.0200    1.7665   -0.1574 H   0  0  0  0  0  0  0  0  0  0  0  0
   -0.3478    2.0682    0.8109 H   0  0  0  0  0  0  0  0  0  0  0  0
    0.0000    0.0000    0.0000 C   0  0  0  0  0  0  0  0  0  0  0  0
   -1.0830   -0.6237    0.0000 O   0  0  0  0  0  1  0  0  0  0  0  0
    1.0830   -0.6440   -0.0000 O   0  0  0  0  0  0  0  0  0  0  0  0
   -3.4005    0.8754    0.4653 C   0  0  0  0  0  0  0  0  0  0  0  0
   -3.9084    1.7240    0.7262 H   0  0  0  0  0  0  0  0  0  0  0  0
   -2.4827    0.9483    0.9100 H   0  0  0  0  0  0  0  0  0  0  0  0
   -3.9220    0.0188    0.8923 H   0  0  0  0  0  0  0  0  0  0  0  0
   -3.2138    0.8652   -1.0315 C   0  0  0  0  0  0  0  0  0  0  0  0
   -2.5203    0.1783   -1.2711 H   0  0  0  0  0  0  0  0  0  0  0  0
   -4.0822    0.6144   -1.4696 H   0  0  0  0  0  0  0  0  0  0  0  0
   -2.7678    2.2075   -1.5994 C   0  0  0  0  0  0  0  0  0  0  0  0
   -3.2523    2.9416   -1.1149 H   0  0  0  0  0  0  0  0  0  0  0  0
   -1.7815    2.3130   -1.4453 H   0  0  0  0  0  0  0  0  0  0  0  0
   -2.9732    2.2880   -2.6668 H   0  0  0  0  0  0  0  0  0  0  0  0
  1  5  1  0
  5  6  1  0
  5  7  2  0
  1  2  1  0
  1  3  1  0
  1  4  1  0
  8 12  1  0
 12 15  1  0
  8  9  1  0
  8 10  1  0
  8 11  1  0
 12 13  1  0
 12 14  1  0
 15 16  1  0
 15 17  1  0
 15 18  1  0
M  CHG  1   6  -1
M  END
>  <PDB_ID>  (64) 
pdb1b67

>  <RESIDUE_NAME>  (64) 
GLU   LYS

>  <FRAG_NAME>  (64) 
ACET   PRPA

>  <FRAG_ATOM_NUM>  (64) 
fragi: 7  fragj: 11

>  <atom.prop.CHAIN_ID>  (64) 
A A A A A A A Z Z Z Z Z Z Z Z Z Z Z

>  <atom.prop.IS_HEAVY_ATOM>  (64) 
1 0 0 0 1 1 1 1 0 0 0 1 0 0 1 0 0 0

>  <DIFUSE_FUNC_ATOM>  (64) 
atom 6   atom 7   

>  <FINAL_SINGLE_POINT_ENERGY>  (64) 
0

>  <NONCOV_INTER_ENERGY_QM>  (64) 
0

>  <FF_Energy>  (64) 
30.33

>  <QM_Energy>  (64) 
4.59

>  <source>  (64) 
ACET_PRPA_00

>  <Index>  (64) 
28143

$$$$
ACET-pdb2b3z-B-GLU-227:PRPA-pdb2b3z-B-LEU-255
     RDKit          3D

 18 16  0  0  0  0  0  0  0  0999 V2000
    0.0073    1.5250   -0.0085 C   0  0  0  0  0  0  0  0  0  0  0  0
   -0.4875    1.8207   -0.8070 H   0  0  0  0  0  0  0  0  0  0  0  0
    0.9474    1.8175   -0.0291 H   0  0  0  0  0  0  0  0  0  0  0  0
   -0.4666    1.9740    0.8644 H   0  0  0  0  0  0  0  0  0  0  0  0
    0.0000    0.0000    0.0000 C   0  0  0  0  0  0  0  0  0  0  0  0
   -1.0999   -0.5967   -0.0000 O   0  0  0  0  0  1  0  0  0  0  0  0
    1.0999   -0.6005   -0.0000 O   0  0  0  0  0  0  0  0  0  0  0  0
   -1.9005    0.8465   -5.3100 C   0  0  0  0  0  0  0  0  0  0  0  0
   -1.3728    0.4692   -6.0650 H   0  0  0  0  0  0  0  0  0  0  0  0
   -2.2470    1.7479   -5.5463 H   0  0  0  0  0  0  0  0  0  0  0  0
   -2.7566    0.1932   -5.1420 H   0  0  0  0  0  0  0  0  0  0  0  0
   -0.9408    1.0216   -4.1249 C   0  0  0  0  0  0  0  0  0  0  0  0
   -0.6981    0.1202   -3.7745 H   0  0  0  0  0  0  0  0  0  0  0  0
   -0.0428    1.5463   -4.4511 H   0  0  0  0  0  0  0  0  0  0  0  0
   -1.6294    1.7813   -2.9988 C   0  0  0  0  0  0  0  0  0  0  0  0
   -2.4347    1.2716   -2.6954 H   0  0  0  0  0  0  0  0  0  0  0  0
   -0.9954    1.8901   -2.2324 H   0  0  0  0  0  0  0  0  0  0  0  0
   -1.9110    2.6833   -3.3274 H   0  0  0  0  0  0  0  0  0  0  0  0
  1  5  1  0
  5  6  1  0
  5  7  2  0
  1  2  1  0
  1  3  1  0
  1  4  1  0
  8 12  1  0
 12 15  1  0
  8  9  1  0
  8 10  1  0
  8 11  1  0
 12 13  1  0
 12 14  1  0
 15 16  1  0
 15 17  1  0
 15 18  1  0
M  CHG  1   6  -1
M  END
>  <PDB_ID>  (65) 
pdb2b3z

>  <RESIDUE_NAME>  (65) 
GLU   LEU

>  <FRAG_NAME>  (65) 
ACET   PRPA

>  <FRAG_ATOM_NUM>  (65) 
fragi: 7  fragj: 11

>  <atom.prop.CHAIN_ID>  (65) 
A A A A A A A Z Z Z Z Z Z Z Z Z Z Z

>  <atom.prop.IS_HEAVY_ATOM>  (65) 
1 0 0 0 1 1 1 1 0 0 0 1 0 0 1 0 0 0

>  <DIFUSE_FUNC_ATOM>  (65) 
atom 6   atom 7   

>  <FINAL_SINGLE_POINT_ENERGY>  (65) 
0

>  <NONCOV_INTER_ENERGY_QM>  (65) 
0

>  <FF_Energy>  (65) 
23.16

>  <QM_Energy>  (65) 
2.2

>  <source>  (65) 
ACET_PRPA_00

>  <Index>  (65) 
28877

$$$$
ACET-pdb2bne-A-ASP-115:PRPA-pdb2bne-A-ARG-103
     RDKit          3D

 18 16  0  0  0  0  0  0  0  0999 V2000
   -0.0075    1.5094   -0.0022 C   0  0  0  0  0  0  0  0  0  0  0  0
    0.9286    1.8362   -0.0628 H   0  0  0  0  0  0  0  0  0  0  0  0
   -0.4344    1.8320    0.8341 H   0  0  0  0  0  0  0  0  0  0  0  0
   -0.5629    1.9230   -0.8439 H   0  0  0  0  0  0  0  0  0  0  0  0
    0.0000    0.0000    0.0000 C   0  0  0  0  0  0  0  0  0  0  0  0
   -1.0980   -0.5945   -0.0000 O   0  0  0  0  0  1  0  0  0  0  0  0
    1.0980   -0.5892    0.0000 O   0  0  0  0  0  0  0  0  0  0  0  0
    6.0512   -0.4570    0.1554 C   0  0  0  0  0  0  0  0  0  0  0  0
    6.2676   -1.3068    0.6308 H   0  0  0  0  0  0  0  0  0  0  0  0
    6.5721    0.2953    0.5532 H   0  0  0  0  0  0  0  0  0  0  0  0
    6.3564   -0.5652   -0.8854 H   0  0  0  0  0  0  0  0  0  0  0  0
    4.5754   -0.1676    0.3519 C   0  0  0  0  0  0  0  0  0  0  0  0
    4.4066    0.0845    1.2941 H   0  0  0  0  0  0  0  0  0  0  0  0
    4.2916    0.5517   -0.2659 H   0  0  0  0  0  0  0  0  0  0  0  0
    3.7585   -1.4125    0.0380 C   0  0  0  0  0  0  0  0  0  0  0  0
    2.7965   -1.1870    0.1464 H   0  0  0  0  0  0  0  0  0  0  0  0
    3.9504   -1.6787   -0.9008 H   0  0  0  0  0  0  0  0  0  0  0  0
    4.0134   -2.2356    0.7055 H   0  0  0  0  0  0  0  0  0  0  0  0
  1  5  1  0
  5  6  1  0
  5  7  2  0
  1  2  1  0
  1  3  1  0
  1  4  1  0
  8 12  1  0
 12 15  1  0
  8  9  1  0
  8 10  1  0
  8 11  1  0
 12 13  1  0
 12 14  1  0
 15 16  1  0
 15 17  1  0
 15 18  1  0
M  CHG  1   6  -1
M  END
>  <PDB_ID>  (66) 
pdb2bne

>  <RESIDUE_NAME>  (66) 
ASP   ARG

>  <FRAG_NAME>  (66) 
ACET   PRPA

>  <FRAG_ATOM_NUM>  (66) 
fragi: 7  fragj: 11

>  <atom.prop.CHAIN_ID>  (66) 
A A A A A A A Z Z Z Z Z Z Z Z Z Z Z

>  <atom.prop.IS_HEAVY_ATOM>  (66) 
1 0 0 0 1 1 1 1 0 0 0 1 0 0 1 0 0 0

>  <DIFUSE_FUNC_ATOM>  (66) 
atom 6   atom 7   

>  <FINAL_SINGLE_POINT_ENERGY>  (66) 
0

>  <NONCOV_INTER_ENERGY_QM>  (66) 
0

>  <FF_Energy>  (66) 
25.81

>  <QM_Energy>  (66) 
-0.19

>  <source>  (66) 
ACET_PRPA_00

>  <Index>  (66) 
29158

$$$$
ACET-pdb2bht-A-GLU-53:PRPA-pdb2bht-A-VAL-50
     RDKit          3D

 18 16  0  0  0  0  0  0  0  0999 V2000
    0.0125    1.5194   -0.0509 C   0  0  0  0  0  0  0  0  0  0  0  0
    0.8124    1.8233    0.4223 H   0  0  0  0  0  0  0  0  0  0  0  0
   -0.8186    1.8333    0.3568 H   0  0  0  0  0  0  0  0  0  0  0  0
    0.0572    1.8835   -1.0773 H   0  0  0  0  0  0  0  0  0  0  0  0
    0.0000    0.0000    0.0000 C   0  0  0  0  0  0  0  0  0  0  0  0
   -1.0967   -0.5990   -0.0000 O   0  0  0  0  0  1  0  0  0  0  0  0
    1.0967   -0.5983    0.0000 O   0  0  0  0  0  0  0  0  0  0  0  0
   -3.6857    1.2188    0.7269 C   0  0  0  0  0  0  0  0  0  0  0  0
   -2.7481    1.0186    0.4045 H   0  0  0  0  0  0  0  0  0  0  0  0
   -3.6264    1.4877    1.7815 H   0  0  0  0  0  0  0  0  0  0  0  0
   -4.0868    2.0291    0.1181 H   0  0  0  0  0  0  0  0  0  0  0  0
   -4.4965   -0.0679    0.5009 C   0  0  0  0  0  0  0  0  0  0  0  0
   -4.7126   -0.1248   -0.4713 H   0  0  0  0  0  0  0  0  0  0  0  0
   -5.4218   -0.0541    1.0768 H   0  0  0  0  0  0  0  0  0  0  0  0
   -3.6712   -1.2998    0.8443 C   0  0  0  0  0  0  0  0  0  0  0  0
   -4.1530   -2.1211    0.5391 H   0  0  0  0  0  0  0  0  0  0  0  0
   -2.7839   -1.2450    0.3867 H   0  0  0  0  0  0  0  0  0  0  0  0
   -3.5330   -1.3442    1.8335 H   0  0  0  0  0  0  0  0  0  0  0  0
  1  5  1  0
  5  6  1  0
  5  7  2  0
  1  2  1  0
  1  3  1  0
  1  4  1  0
  8 12  1  0
 12 15  1  0
  8  9  1  0
  8 10  1  0
  8 11  1  0
 12 13  1  0
 12 14  1  0
 15 16  1  0
 15 17  1  0
 15 18  1  0
M  CHG  1   6  -1
M  END
>  <PDB_ID>  (67) 
pdb2bht

>  <RESIDUE_NAME>  (67) 
GLU   VAL

>  <FRAG_NAME>  (67) 
ACET   PRPA

>  <FRAG_ATOM_NUM>  (67) 
fragi: 7  fragj: 11

>  <atom.prop.CHAIN_ID>  (67) 
A A A A A A A Z Z Z Z Z Z Z Z Z Z Z

>  <atom.prop.IS_HEAVY_ATOM>  (67) 
1 0 0 0 1 1 1 1 0 0 0 1 0 0 1 0 0 0

>  <DIFUSE_FUNC_ATOM>  (67) 
atom 6   atom 7   

>  <FINAL_SINGLE_POINT_ENERGY>  (67) 
0

>  <NONCOV_INTER_ENERGY_QM>  (67) 
0

>  <FF_Energy>  (67) 
20.78

>  <QM_Energy>  (67) 
-1.67

>  <source>  (67) 
ACET_PRPA_00

>  <Index>  (67) 
29408

$$$$
ACET-pdb2bht-A-GLU-53:PRPA-pdb2bht-A-VAL-50
     RDKit          3D

 18 16  0  0  0  0  0  0  0  0999 V2000
    0.0125    1.5194   -0.0509 C   0  0  0  0  0  0  0  0  0  0  0  0
    0.8124    1.8233    0.4223 H   0  0  0  0  0  0  0  0  0  0  0  0
   -0.8186    1.8333    0.3568 H   0  0  0  0  0  0  0  0  0  0  0  0
    0.0572    1.8835   -1.0773 H   0  0  0  0  0  0  0  0  0  0  0  0
    0.0000    0.0000    0.0000 C   0  0  0  0  0  0  0  0  0  0  0  0
   -1.0967   -0.5990   -0.0000 O   0  0  0  0  0  1  0  0  0  0  0  0
    1.0967   -0.5983    0.0000 O   0  0  0  0  0  0  0  0  0  0  0  0
   -3.6712   -1.2998    0.8443 C   0  0  0  0  0  0  0  0  0  0  0  0
   -4.1530   -2.1211    0.5391 H   0  0  0  0  0  0  0  0  0  0  0  0
   -2.7839   -1.2450    0.3867 H   0  0  0  0  0  0  0  0  0  0  0  0
   -3.5330   -1.3442    1.8335 H   0  0  0  0  0  0  0  0  0  0  0  0
   -4.4965   -0.0679    0.5009 C   0  0  0  0  0  0  0  0  0  0  0  0
   -4.7126   -0.1248   -0.4713 H   0  0  0  0  0  0  0  0  0  0  0  0
   -3.9217    0.8442    0.6611 H   0  0  0  0  0  0  0  0  0  0  0  0
   -5.7849   -0.0487    1.3027 C   0  0  0  0  0  0  0  0  0  0  0  0
   -5.8360    0.8003    1.8296 H   0  0  0  0  0  0  0  0  0  0  0  0
   -6.5654   -0.1025    0.6784 H   0  0  0  0  0  0  0  0  0  0  0  0
   -5.7994   -0.8314    1.9261 H   0  0  0  0  0  0  0  0  0  0  0  0
  1  5  1  0
  5  6  1  0
  5  7  2  0
  1  2  1  0
  1  3  1  0
  1  4  1  0
  8 12  1  0
 12 15  1  0
  8  9  1  0
  8 10  1  0
  8 11  1  0
 12 13  1  0
 12 14  1  0
 15 16  1  0
 15 17  1  0
 15 18  1  0
M  CHG  1   6  -1
M  END
>  <PDB_ID>  (68) 
pdb2bht

>  <RESIDUE_NAME>  (68) 
GLU   VAL

>  <FRAG_NAME>  (68) 
ACET   PRPA

>  <FRAG_ATOM_NUM>  (68) 
fragi: 7  fragj: 11

>  <atom.prop.CHAIN_ID>  (68) 
A A A A A A A Z Z Z Z Z Z Z Z Z Z Z

>  <atom.prop.IS_HEAVY_ATOM>  (68) 
1 0 0 0 1 1 1 1 0 0 0 1 0 0 1 0 0 0

>  <DIFUSE_FUNC_ATOM>  (68) 
atom 6   atom 7   

>  <FINAL_SINGLE_POINT_ENERGY>  (68) 
0

>  <NONCOV_INTER_ENERGY_QM>  (68) 
0

>  <FF_Energy>  (68) 
19.33

>  <QM_Energy>  (68) 
-0.28

>  <source>  (68) 
ACET_PRPA_00

>  <Index>  (68) 
29445

$$$$
ACET-pdb2b3y-A-GLU-112:PRPA-pdb2b3y-A-LYS-632
     RDKit          3D

 18 16  0  0  0  0  0  0  0  0999 V2000
    0.0236    1.5285    0.0390 C   0  0  0  0  0  0  0  0  0  0  0  0
    0.9623    1.8157   -0.0693 H   0  0  0  0  0  0  0  0  0  0  0  0
   -0.3422    1.8095    0.9122 H   0  0  0  0  0  0  0  0  0  0  0  0
   -0.5631    2.0157   -0.7398 H   0  0  0  0  0  0  0  0  0  0  0  0
    0.0000    0.0000    0.0000 C   0  0  0  0  0  0  0  0  0  0  0  0
   -1.0937   -0.6101    0.0000 O   0  0  0  0  0  1  0  0  0  0  0  0
    1.0937   -0.5973    0.0000 O   0  0  0  0  0  0  0  0  0  0  0  0
    3.8210   -2.9500    0.7334 C   0  0  0  0  0  0  0  0  0  0  0  0
    4.5675   -2.3630    1.0503 H   0  0  0  0  0  0  0  0  0  0  0  0
    3.3291   -2.4866   -0.0053 H   0  0  0  0  0  0  0  0  0  0  0  0
    4.2538   -3.8665    0.3323 H   0  0  0  0  0  0  0  0  0  0  0  0
    2.8429   -3.1436    1.9045 C   0  0  0  0  0  0  0  0  0  0  0  0
    2.9818   -4.0539    2.2942 H   0  0  0  0  0  0  0  0  0  0  0  0
    3.0301   -2.4504    2.5999 H   0  0  0  0  0  0  0  0  0  0  0  0
    1.3755   -3.0162    1.4649 C   0  0  0  0  0  0  0  0  0  0  0  0
    1.2568   -2.1389    1.0050 H   0  0  0  0  0  0  0  0  0  0  0  0
    1.1658   -3.7612    0.8354 H   0  0  0  0  0  0  0  0  0  0  0  0
    0.6768   -3.0643    2.3002 H   0  0  0  0  0  0  0  0  0  0  0  0
  1  5  1  0
  5  6  1  0
  5  7  2  0
  1  2  1  0
  1  3  1  0
  1  4  1  0
  8 12  1  0
 12 15  1  0
  8  9  1  0
  8 10  1  0
  8 11  1  0
 12 13  1  0
 12 14  1  0
 15 16  1  0
 15 17  1  0
 15 18  1  0
M  CHG  1   6  -1
M  END
>  <PDB_ID>  (69) 
pdb2b3y

>  <RESIDUE_NAME>  (69) 
GLU   LYS

>  <FRAG_NAME>  (69) 
ACET   PRPA

>  <FRAG_ATOM_NUM>  (69) 
fragi: 7  fragj: 11

>  <atom.prop.CHAIN_ID>  (69) 
A A A A A A A Z Z Z Z Z Z Z Z Z Z Z

>  <atom.prop.IS_HEAVY_ATOM>  (69) 
1 0 0 0 1 1 1 1 0 0 0 1 0 0 1 0 0 0

>  <DIFUSE_FUNC_ATOM>  (69) 
atom 6   atom 7   

>  <FINAL_SINGLE_POINT_ENERGY>  (69) 
0

>  <NONCOV_INTER_ENERGY_QM>  (69) 
0

>  <FF_Energy>  (69) 
19.51

>  <QM_Energy>  (69) 
-1.21

>  <source>  (69) 
ACET_PRPA_00

>  <Index>  (69) 
30283

$$$$
ACET-pdb2b3y-A-GLU-112:PRPA-pdb2b3y-A-LYS-632
     RDKit          3D

 18 16  0  0  0  0  0  0  0  0999 V2000
    0.0236    1.5285    0.0390 C   0  0  0  0  0  0  0  0  0  0  0  0
    0.9623    1.8157   -0.0693 H   0  0  0  0  0  0  0  0  0  0  0  0
   -0.3422    1.8095    0.9122 H   0  0  0  0  0  0  0  0  0  0  0  0
   -0.5631    2.0157   -0.7398 H   0  0  0  0  0  0  0  0  0  0  0  0
    0.0000    0.0000    0.0000 C   0  0  0  0  0  0  0  0  0  0  0  0
   -1.0937   -0.6101    0.0000 O   0  0  0  0  0  1  0  0  0  0  0  0
    1.0937   -0.5973    0.0000 O   0  0  0  0  0  0  0  0  0  0  0  0
    2.8429   -3.1436    1.9045 C   0  0  0  0  0  0  0  0  0  0  0  0
    2.9818   -4.0539    2.2942 H   0  0  0  0  0  0  0  0  0  0  0  0
    3.0301   -2.4504    2.5999 H   0  0  0  0  0  0  0  0  0  0  0  0
    3.5361   -3.0064    1.0745 H   0  0  0  0  0  0  0  0  0  0  0  0
    1.3755   -3.0162    1.4649 C   0  0  0  0  0  0  0  0  0  0  0  0
    1.2568   -2.1389    1.0050 H   0  0  0  0  0  0  0  0  0  0  0  0
    1.1658   -3.7612    0.8354 H   0  0  0  0  0  0  0  0  0  0  0  0
    0.3920   -3.0838    2.6405 C   0  0  0  0  0  0  0  0  0  0  0  0
   -0.5483   -3.1909    2.2719 H   0  0  0  0  0  0  0  0  0  0  0  0
    0.5926   -3.9187    3.1848 H   0  0  0  0  0  0  0  0  0  0  0  0
    0.3997   -2.2271    3.3142 H   0  0  0  0  0  0  0  0  0  0  0  0
  1  5  1  0
  5  6  1  0
  5  7  2  0
  1  2  1  0
  1  3  1  0
  1  4  1  0
  8 12  1  0
 12 15  1  0
  8  9  1  0
  8 10  1  0
  8 11  1  0
 12 13  1  0
 12 14  1  0
 15 16  1  0
 15 17  1  0
 15 18  1  0
M  CHG  1   6  -1
M  END
>  <PDB_ID>  (70) 
pdb2b3y

>  <RESIDUE_NAME>  (70) 
GLU   LYS

>  <FRAG_NAME>  (70) 
ACET   PRPA

>  <FRAG_ATOM_NUM>  (70) 
fragi: 7  fragj: 11

>  <atom.prop.CHAIN_ID>  (70) 
A A A A A A A Z Z Z Z Z Z Z Z Z Z Z

>  <atom.prop.IS_HEAVY_ATOM>  (70) 
1 0 0 0 1 1 1 1 0 0 0 1 0 0 1 0 0 0

>  <DIFUSE_FUNC_ATOM>  (70) 
atom 6   atom 7   

>  <FINAL_SINGLE_POINT_ENERGY>  (70) 
0

>  <NONCOV_INTER_ENERGY_QM>  (70) 
0

>  <FF_Energy>  (70) 
22.77

>  <QM_Energy>  (70) 
-1.08

>  <source>  (70) 
ACET_PRPA_00

>  <Index>  (70) 
30289

$$$$
ACET-pdb2b3z-C-ASP-220:PRPA-pdb2b3z-C-VAL-193
     RDKit          3D

 18 16  0  0  0  0  0  0  0  0999 V2000
   -0.0053    1.4884   -0.0155 C   0  0  0  0  0  0  0  0  0  0  0  0
    0.3023    1.8125   -0.9064 H   0  0  0  0  0  0  0  0  0  0  0  0
    0.5974    1.8304    0.6992 H   0  0  0  0  0  0  0  0  0  0  0  0
   -0.9966    1.9058    0.1614 H   0  0  0  0  0  0  0  0  0  0  0  0
    0.0000    0.0000    0.0000 C   0  0  0  0  0  0  0  0  0  0  0  0
   -1.1149   -0.5818   -0.0000 O   0  0  0  0  0  1  0  0  0  0  0  0
    1.1149   -0.5878    0.0000 O   0  0  0  0  0  0  0  0  0  0  0  0
   -0.9814    1.0169   -4.8884 C   0  0  0  0  0  0  0  0  0  0  0  0
   -0.0469    1.3498   -5.0863 H   0  0  0  0  0  0  0  0  0  0  0  0
   -1.6097    1.8873   -4.6993 H   0  0  0  0  0  0  0  0  0  0  0  0
   -1.3329    0.4438   -5.7463 H   0  0  0  0  0  0  0  0  0  0  0  0
   -0.9423    0.0040   -3.7407 C   0  0  0  0  0  0  0  0  0  0  0  0
   -0.8071   -0.8944   -4.1525 H   0  0  0  0  0  0  0  0  0  0  0  0
   -1.8851   -0.0043   -3.1937 H   0  0  0  0  0  0  0  0  0  0  0  0
    0.1906    0.3012   -2.8847 C   0  0  0  0  0  0  0  0  0  0  0  0
    0.2813   -0.3800   -2.1417 H   0  0  0  0  0  0  0  0  0  0  0  0
    1.0584    0.2994   -3.4061 H   0  0  0  0  0  0  0  0  0  0  0  0
    0.0983    1.2111   -2.4520 H   0  0  0  0  0  0  0  0  0  0  0  0
  1  5  1  0
  5  6  1  0
  5  7  2  0
  1  2  1  0
  1  3  1  0
  1  4  1  0
  8 12  1  0
 12 15  1  0
  8  9  1  0
  8 10  1  0
  8 11  1  0
 12 13  1  0
 12 14  1  0
 15 16  1  0
 15 17  1  0
 15 18  1  0
M  CHG  1   6  -1
M  END
>  <PDB_ID>  (71) 
pdb2b3z

>  <RESIDUE_NAME>  (71) 
ASP   VAL

>  <FRAG_NAME>  (71) 
ACET   PRPA

>  <FRAG_ATOM_NUM>  (71) 
fragi: 7  fragj: 11

>  <atom.prop.CHAIN_ID>  (71) 
A A A A A A A Z Z Z Z Z Z Z Z Z Z Z

>  <atom.prop.IS_HEAVY_ATOM>  (71) 
1 0 0 0 1 1 1 1 0 0 0 1 0 0 1 0 0 0

>  <DIFUSE_FUNC_ATOM>  (71) 
atom 6   atom 7   

>  <FINAL_SINGLE_POINT_ENERGY>  (71) 
0

>  <NONCOV_INTER_ENERGY_QM>  (71) 
0

>  <FF_Energy>  (71) 
18.29

>  <QM_Energy>  (71) 
2.4

>  <source>  (71) 
ACET_PRPA_00

>  <Index>  (71) 
31822

$$$$
ACET-pdb2b3z-C-ASP-220:PRPA-pdb2b3z-C-VAL-193
     RDKit          3D

 18 16  0  0  0  0  0  0  0  0999 V2000
   -0.0053    1.4884   -0.0155 C   0  0  0  0  0  0  0  0  0  0  0  0
    0.3023    1.8125   -0.9064 H   0  0  0  0  0  0  0  0  0  0  0  0
    0.5974    1.8304    0.6992 H   0  0  0  0  0  0  0  0  0  0  0  0
   -0.9966    1.9058    0.1614 H   0  0  0  0  0  0  0  0  0  0  0  0
    0.0000    0.0000    0.0000 C   0  0  0  0  0  0  0  0  0  0  0  0
   -1.1149   -0.5818   -0.0000 O   0  0  0  0  0  1  0  0  0  0  0  0
    1.1149   -0.5878    0.0000 O   0  0  0  0  0  0  0  0  0  0  0  0
    0.1906    0.3012   -2.8847 C   0  0  0  0  0  0  0  0  0  0  0  0
    0.2813   -0.3800   -2.1417 H   0  0  0  0  0  0  0  0  0  0  0  0
    1.0584    0.2994   -3.4061 H   0  0  0  0  0  0  0  0  0  0  0  0
    0.0983    1.2111   -2.4520 H   0  0  0  0  0  0  0  0  0  0  0  0
   -0.9423    0.0040   -3.7407 C   0  0  0  0  0  0  0  0  0  0  0  0
   -0.8071   -0.8944   -4.1525 H   0  0  0  0  0  0  0  0  0  0  0  0
   -0.9701    0.7250   -4.5577 H   0  0  0  0  0  0  0  0  0  0  0  0
   -2.2753   -0.0077   -2.9674 C   0  0  0  0  0  0  0  0  0  0  0  0
   -2.0794   -0.0838   -1.9934 H   0  0  0  0  0  0  0  0  0  0  0  0
   -2.7620    0.8414   -3.1557 H   0  0  0  0  0  0  0  0  0  0  0  0
   -2.8157   -0.7879   -3.2713 H   0  0  0  0  0  0  0  0  0  0  0  0
  1  5  1  0
  5  6  1  0
  5  7  2  0
  1  2  1  0
  1  3  1  0
  1  4  1  0
  8 12  1  0
 12 15  1  0
  8  9  1  0
  8 10  1  0
  8 11  1  0
 12 13  1  0
 12 14  1  0
 15 16  1  0
 15 17  1  0
 15 18  1  0
M  CHG  1   6  -1
M  END
>  <PDB_ID>  (72) 
pdb2b3z

>  <RESIDUE_NAME>  (72) 
ASP   VAL

>  <FRAG_NAME>  (72) 
ACET   PRPA

>  <FRAG_ATOM_NUM>  (72) 
fragi: 7  fragj: 11

>  <atom.prop.CHAIN_ID>  (72) 
A A A A A A A Z Z Z Z Z Z Z Z Z Z Z

>  <atom.prop.IS_HEAVY_ATOM>  (72) 
1 0 0 0 1 1 1 1 0 0 0 1 0 0 1 0 0 0

>  <DIFUSE_FUNC_ATOM>  (72) 
atom 6   atom 7   

>  <FINAL_SINGLE_POINT_ENERGY>  (72) 
0

>  <NONCOV_INTER_ENERGY_QM>  (72) 
0

>  <FF_Energy>  (72) 
19.44

>  <QM_Energy>  (72) 
1.46

>  <source>  (72) 
ACET_PRPA_00

>  <Index>  (72) 
31848

$$$$
ACET-pdb2b1x-D-GLU-619:PRPA-pdb2b1x-D-ARG-650
     RDKit          3D

 18 16  0  0  0  0  0  0  0  0999 V2000
    0.0300    1.5261   -0.0031 C   0  0  0  0  0  0  0  0  0  0  0  0
    0.4887    1.8076   -0.8296 H   0  0  0  0  0  0  0  0  0  0  0  0
    0.5256    1.8099    0.8016 H   0  0  0  0  0  0  0  0  0  0  0  0
   -0.9570    1.9881    0.0176 H   0  0  0  0  0  0  0  0  0  0  0  0
    0.0000    0.0000    0.0000 C   0  0  0  0  0  0  0  0  0  0  0  0
   -1.0917   -0.6128   -0.0000 O   0  0  0  0  0  1  0  0  0  0  0  0
    1.0917   -0.6040   -0.0000 O   0  0  0  0  0  0  0  0  0  0  0  0
    3.0175    2.8870   -3.0331 C   0  0  0  0  0  0  0  0  0  0  0  0
    3.4446    2.6522   -3.9042 H   0  0  0  0  0  0  0  0  0  0  0  0
    3.7048    3.2546   -2.4095 H   0  0  0  0  0  0  0  0  0  0  0  0
    2.2799    3.6676   -3.2194 H   0  0  0  0  0  0  0  0  0  0  0  0
    2.4494    1.6340   -2.4288 C   0  0  0  0  0  0  0  0  0  0  0  0
    1.5479    1.8282   -2.0252 H   0  0  0  0  0  0  0  0  0  0  0  0
    2.3351    0.9331   -3.1414 H   0  0  0  0  0  0  0  0  0  0  0  0
    3.3263    1.0370   -1.3339 C   0  0  0  0  0  0  0  0  0  0  0  0
    3.6876    1.7779   -0.7941 H   0  0  0  0  0  0  0  0  0  0  0  0
    2.7699    0.4270   -0.7961 H   0  0  0  0  0  0  0  0  0  0  0  0
    4.1442    0.4820   -1.7933 H   0  0  0  0  0  0  0  0  0  0  0  0
  1  5  1  0
  5  6  1  0
  5  7  2  0
  1  2  1  0
  1  3  1  0
  1  4  1  0
  8 12  1  0
 12 15  1  0
  8  9  1  0
  8 10  1  0
  8 11  1  0
 12 13  1  0
 12 14  1  0
 15 16  1  0
 15 17  1  0
 15 18  1  0
M  CHG  1   6  -1
M  END
>  <PDB_ID>  (73) 
pdb2b1x

>  <RESIDUE_NAME>  (73) 
GLU   ARG

>  <FRAG_NAME>  (73) 
ACET   PRPA

>  <FRAG_ATOM_NUM>  (73) 
fragi: 7  fragj: 11

>  <atom.prop.CHAIN_ID>  (73) 
A A A A A A A Z Z Z Z Z Z Z Z Z Z Z

>  <atom.prop.IS_HEAVY_ATOM>  (73) 
1 0 0 0 1 1 1 1 0 0 0 1 0 0 1 0 0 0

>  <DIFUSE_FUNC_ATOM>  (73) 
atom 6   atom 7   

>  <FINAL_SINGLE_POINT_ENERGY>  (73) 
0

>  <NONCOV_INTER_ENERGY_QM>  (73) 
0

>  <FF_Energy>  (73) 
16.77

>  <QM_Energy>  (73) 
-0.42

>  <source>  (73) 
ACET_PRPA_00

>  <Index>  (73) 
32148

$$$$
ACET-pdb1b7y-A-GLU-168:PRPA-pdb1b7y-A-ARG-160
     RDKit          3D

 18 16  0  0  0  0  0  0  0  0999 V2000
    0.0165    1.5226   -0.0068 C   0  0  0  0  0  0  0  0  0  0  0  0
    0.9432    1.8052   -0.1625 H   0  0  0  0  0  0  0  0  0  0  0  0
   -0.3284    1.8235    0.8614 H   0  0  0  0  0  0  0  0  0  0  0  0
   -0.6103    1.9421   -0.7937 H   0  0  0  0  0  0  0  0  0  0  0  0
    0.0000    0.0000    0.0000 C   0  0  0  0  0  0  0  0  0  0  0  0
   -1.1012   -0.6064    0.0000 O   0  0  0  0  0  1  0  0  0  0  0  0
    1.1012   -0.5868   -0.0000 O   0  0  0  0  0  0  0  0  0  0  0  0
    1.9612   -0.1290    4.3236 C   0  0  0  0  0  0  0  0  0  0  0  0
    2.1577    0.6466    3.6929 H   0  0  0  0  0  0  0  0  0  0  0  0
    2.7594   -0.1918    5.0632 H   0  0  0  0  0  0  0  0  0  0  0  0
    0.9729    0.0279    4.7557 H   0  0  0  0  0  0  0  0  0  0  0  0
    1.9580   -1.3957    3.4709 C   0  0  0  0  0  0  0  0  0  0  0  0
    2.3704   -2.1295    3.9997 H   0  0  0  0  0  0  0  0  0  0  0  0
    1.0157   -1.6194    3.2467 H   0  0  0  0  0  0  0  0  0  0  0  0
    2.7320   -1.2591    2.1700 C   0  0  0  0  0  0  0  0  0  0  0  0
    2.1393   -0.8714    1.4684 H   0  0  0  0  0  0  0  0  0  0  0  0
    3.5222   -0.6681    2.3133 H   0  0  0  0  0  0  0  0  0  0  0  0
    3.0924   -2.2244    1.8142 H   0  0  0  0  0  0  0  0  0  0  0  0
  1  5  1  0
  5  6  1  0
  5  7  2  0
  1  2  1  0
  1  3  1  0
  1  4  1  0
  8 12  1  0
 12 15  1  0
  8  9  1  0
  8 10  1  0
  8 11  1  0
 12 13  1  0
 12 14  1  0
 15 16  1  0
 15 17  1  0
 15 18  1  0
M  CHG  1   6  -1
M  END
>  <PDB_ID>  (74) 
pdb1b7y

>  <RESIDUE_NAME>  (74) 
GLU   ARG

>  <FRAG_NAME>  (74) 
ACET   PRPA

>  <FRAG_ATOM_NUM>  (74) 
fragi: 7  fragj: 11

>  <atom.prop.CHAIN_ID>  (74) 
A A A A A A A Z Z Z Z Z Z Z Z Z Z Z

>  <atom.prop.IS_HEAVY_ATOM>  (74) 
1 0 0 0 1 1 1 1 0 0 0 1 0 0 1 0 0 0

>  <DIFUSE_FUNC_ATOM>  (74) 
atom 6   atom 7   

>  <FINAL_SINGLE_POINT_ENERGY>  (74) 
0

>  <NONCOV_INTER_ENERGY_QM>  (74) 
0

>  <FF_Energy>  (74) 
23.47

>  <QM_Energy>  (74) 
-0.42

>  <source>  (74) 
ACET_PRPA_00

>  <Index>  (74) 
32519

$$$$
ACET-pdb1bea-A-ASP-82:PRPA-pdb1bea-A-PRO-87
     RDKit          3D

 18 16  0  0  0  0  0  0  0  0999 V2000
    0.0017    1.5005    0.0102 C   0  0  0  0  0  0  0  0  0  0  0  0
   -0.8110    1.8277   -0.4621 H   0  0  0  0  0  0  0  0  0  0  0  0
    0.8206    1.8261   -0.4514 H   0  0  0  0  0  0  0  0  0  0  0  0
   -0.0051    1.9106    1.0202 H   0  0  0  0  0  0  0  0  0  0  0  0
    0.0000    0.0000    0.0000 C   0  0  0  0  0  0  0  0  0  0  0  0
   -1.0965   -0.5910   -0.0000 O   0  0  0  0  0  1  0  0  0  0  0  0
    1.0965   -0.5895   -0.0000 O   0  0  0  0  0  0  0  0  0  0  0  0
    3.3400   -1.2186    1.6282 C   0  0  0  0  0  0  0  0  0  0  0  0
    2.6716   -0.7948    0.9764 H   0  0  0  0  0  0  0  0  0  0  0  0
    4.2451   -0.6139    1.6847 H   0  0  0  0  0  0  0  0  0  0  0  0
    2.8615   -1.4158    2.5875 H   0  0  0  0  0  0  0  0  0  0  0  0
    3.8035   -2.5021    0.9347 C   0  0  0  0  0  0  0  0  0  0  0  0
    3.3597   -3.3049    1.3504 H   0  0  0  0  0  0  0  0  0  0  0  0
    3.5637   -2.4789   -0.0431 H   0  0  0  0  0  0  0  0  0  0  0  0
    5.2688   -2.5366    1.1294 C   0  0  0  0  0  0  0  0  0  0  0  0
    5.5051   -3.0242    1.9863 H   0  0  0  0  0  0  0  0  0  0  0  0
    5.7192   -3.0317    0.3685 H   0  0  0  0  0  0  0  0  0  0  0  0
    5.6084   -1.5016    1.1691 H   0  0  0  0  0  0  0  0  0  0  0  0
  1  5  1  0
  5  6  1  0
  5  7  2  0
  1  2  1  0
  1  3  1  0
  1  4  1  0
  8 12  1  0
 12 15  1  0
  8  9  1  0
  8 10  1  0
  8 11  1  0
 12 13  1  0
 12 14  1  0
 15 16  1  0
 15 17  1  0
 15 18  1  0
M  CHG  1   6  -1
M  END
>  <PDB_ID>  (75) 
pdb1bea

>  <RESIDUE_NAME>  (75) 
ASP   PRO

>  <FRAG_NAME>  (75) 
ACET   PRPA

>  <FRAG_ATOM_NUM>  (75) 
fragi: 7  fragj: 11

>  <atom.prop.CHAIN_ID>  (75) 
A A A A A A A Z Z Z Z Z Z Z Z Z Z Z

>  <atom.prop.IS_HEAVY_ATOM>  (75) 
1 0 0 0 1 1 1 1 0 0 0 1 0 0 1 0 0 0

>  <DIFUSE_FUNC_ATOM>  (75) 
atom 6   atom 7   

>  <FINAL_SINGLE_POINT_ENERGY>  (75) 
0

>  <NONCOV_INTER_ENERGY_QM>  (75) 
0

>  <FF_Energy>  (75) 
17.23

>  <QM_Energy>  (75) 
-1.38

>  <source>  (75) 
ACET_PRPA_00

>  <Index>  (75) 
32551

$$$$
ACET-pdb1b09-E-GLU-147:PRPA-pdb1b09-E-GLN-150
     RDKit          3D

 18 16  0  0  0  0  0  0  0  0999 V2000
   -0.0199    1.4968   -0.0042 C   0  0  0  0  0  0  0  0  0  0  0  0
    0.2378    1.8037   -0.8838 H   0  0  0  0  0  0  0  0  0  0  0  0
    0.5355    1.8116    0.7214 H   0  0  0  0  0  0  0  0  0  0  0  0
   -1.0426    1.8240    0.1831 H   0  0  0  0  0  0  0  0  0  0  0  0
    0.0000    0.0000    0.0000 C   0  0  0  0  0  0  0  0  0  0  0  0
   -1.0760   -0.5814    0.0000 O   0  0  0  0  0  1  0  0  0  0  0  0
    1.0760   -0.5798    0.0000 O   0  0  0  0  0  0  0  0  0  0  0  0
   -0.2466    4.5760   -3.0429 C   0  0  0  0  0  0  0  0  0  0  0  0
    0.3922    4.5904   -3.8232 H   0  0  0  0  0  0  0  0  0  0  0  0
    0.3431    4.5185   -2.1280 H   0  0  0  0  0  0  0  0  0  0  0  0
   -0.8382    5.4906   -3.0813 H   0  0  0  0  0  0  0  0  0  0  0  0
   -1.1671    3.3448   -3.0821 C   0  0  0  0  0  0  0  0  0  0  0  0
   -1.7200    3.3312   -2.2606 H   0  0  0  0  0  0  0  0  0  0  0  0
   -1.7364    3.3950   -3.8924 H   0  0  0  0  0  0  0  0  0  0  0  0
   -0.3696    2.0352   -3.1418 C   0  0  0  0  0  0  0  0  0  0  0  0
    0.1392    2.0185   -3.9902 H   0  0  0  0  0  0  0  0  0  0  0  0
    0.2362    2.0028   -2.3601 H   0  0  0  0  0  0  0  0  0  0  0  0
   -1.0446    1.1799   -3.1100 H   0  0  0  0  0  0  0  0  0  0  0  0
  1  5  1  0
  5  6  1  0
  5  7  2  0
  1  2  1  0
  1  3  1  0
  1  4  1  0
  8 12  1  0
 12 15  1  0
  8  9  1  0
  8 10  1  0
  8 11  1  0
 12 13  1  0
 12 14  1  0
 15 16  1  0
 15 17  1  0
 15 18  1  0
M  CHG  1   6  -1
M  END
>  <PDB_ID>  (76) 
pdb1b09

>  <RESIDUE_NAME>  (76) 
GLU   GLN

>  <FRAG_NAME>  (76) 
ACET   PRPA

>  <FRAG_ATOM_NUM>  (76) 
fragi: 7  fragj: 11

>  <atom.prop.CHAIN_ID>  (76) 
A A A A A A A Z Z Z Z Z Z Z Z Z Z Z

>  <atom.prop.IS_HEAVY_ATOM>  (76) 
1 0 0 0 1 1 1 1 0 0 0 1 0 0 1 0 0 0

>  <DIFUSE_FUNC_ATOM>  (76) 
atom 6   atom 7   

>  <FINAL_SINGLE_POINT_ENERGY>  (76) 
0

>  <NONCOV_INTER_ENERGY_QM>  (76) 
0

>  <FF_Energy>  (76) 
29.83

>  <QM_Energy>  (76) 
3.07

>  <source>  (76) 
ACET_PRPA_00

>  <Index>  (76) 
33071

$$$$
ACET-pdb2c1m-A-GLU-139:PRPA-pdb2c1m-A-ARG-101
     RDKit          3D

 18 16  0  0  0  0  0  0  0  0999 V2000
   -0.0205    1.5191    0.0062 C   0  0  0  0  0  0  0  0  0  0  0  0
    0.6852    1.8195    0.6302 H   0  0  0  0  0  0  0  0  0  0  0  0
   -0.9168    1.7987    0.3163 H   0  0  0  0  0  0  0  0  0  0  0  0
    0.1659    1.9690   -0.9690 H   0  0  0  0  0  0  0  0  0  0  0  0
    0.0000    0.0000    0.0000 C   0  0  0  0  0  0  0  0  0  0  0  0
   -1.0950   -0.5925   -0.0000 O   0  0  0  0  0  1  0  0  0  0  0  0
    1.0950   -0.6009    0.0000 O   0  0  0  0  0  0  0  0  0  0  0  0
   -4.4870    0.6526    0.7936 C   0  0  0  0  0  0  0  0  0  0  0  0
   -4.1468    1.3828    0.2098 H   0  0  0  0  0  0  0  0  0  0  0  0
   -3.7863    0.3739    1.4418 H   0  0  0  0  0  0  0  0  0  0  0  0
   -5.3387    1.0352    1.3561 H   0  0  0  0  0  0  0  0  0  0  0  0
   -4.8287   -0.5297   -0.0741 C   0  0  0  0  0  0  0  0  0  0  0  0
   -5.6806   -0.9321    0.2314 H   0  0  0  0  0  0  0  0  0  0  0  0
   -4.8915   -0.2420   -1.0204 H   0  0  0  0  0  0  0  0  0  0  0  0
   -3.7429   -1.5548    0.0437 C   0  0  0  0  0  0  0  0  0  0  0  0
   -3.6804   -2.0521   -0.8261 H   0  0  0  0  0  0  0  0  0  0  0  0
   -2.8743   -1.0785    0.2085 H   0  0  0  0  0  0  0  0  0  0  0  0
   -3.9155   -2.2684    0.8493 H   0  0  0  0  0  0  0  0  0  0  0  0
  1  5  1  0
  5  6  1  0
  5  7  2  0
  1  2  1  0
  1  3  1  0
  1  4  1  0
  8 12  1  0
 12 15  1  0
  8  9  1  0
  8 10  1  0
  8 11  1  0
 12 13  1  0
 12 14  1  0
 15 16  1  0
 15 17  1  0
 15 18  1  0
M  CHG  1   6  -1
M  END
>  <PDB_ID>  (77) 
pdb2c1m

>  <RESIDUE_NAME>  (77) 
GLU   ARG

>  <FRAG_NAME>  (77) 
ACET   PRPA

>  <FRAG_ATOM_NUM>  (77) 
fragi: 7  fragj: 11

>  <atom.prop.CHAIN_ID>  (77) 
A A A A A A A Z Z Z Z Z Z Z Z Z Z Z

>  <atom.prop.IS_HEAVY_ATOM>  (77) 
1 0 0 0 1 1 1 1 0 0 0 1 0 0 1 0 0 0

>  <DIFUSE_FUNC_ATOM>  (77) 
atom 6   atom 7   

>  <FINAL_SINGLE_POINT_ENERGY>  (77) 
0

>  <NONCOV_INTER_ENERGY_QM>  (77) 
0

>  <FF_Energy>  (77) 
18.3

>  <QM_Energy>  (77) 
-1.07

>  <source>  (77) 
ACET_PRPA_00

>  <Index>  (77) 
33454

$$$$
ACET-pdb2b3z-D-GLU-72:PRPA-pdb2b3z-D-ILE-111
     RDKit          3D

 18 16  0  0  0  0  0  0  0  0999 V2000
   -0.0223    1.5328    0.0030 C   0  0  0  0  0  0  0  0  0  0  0  0
   -0.3860    1.8163    0.8738 H   0  0  0  0  0  0  0  0  0  0  0  0
   -0.5977    1.8164   -0.7449 H   0  0  0  0  0  0  0  0  0  0  0  0
    0.9595    1.9888   -0.1243 H   0  0  0  0  0  0  0  0  0  0  0  0
    0.0000    0.0000    0.0000 C   0  0  0  0  0  0  0  0  0  0  0  0
   -1.0968   -0.6046   -0.0000 O   0  0  0  0  0  1  0  0  0  0  0  0
    1.0968   -0.6056    0.0000 O   0  0  0  0  0  0  0  0  0  0  0  0
   -4.5346   -0.3434   -1.4876 C   0  0  0  0  0  0  0  0  0  0  0  0
   -4.7479    0.5971   -1.7565 H   0  0  0  0  0  0  0  0  0  0  0  0
   -4.0734   -0.2814   -0.5020 H   0  0  0  0  0  0  0  0  0  0  0  0
   -5.4844   -0.8745   -1.4251 H   0  0  0  0  0  0  0  0  0  0  0  0
   -3.6238   -1.0937   -2.4925 C   0  0  0  0  0  0  0  0  0  0  0  0
   -3.4561   -2.0029   -2.1303 H   0  0  0  0  0  0  0  0  0  0  0  0
   -4.1320   -1.1964   -3.4513 H   0  0  0  0  0  0  0  0  0  0  0  0
   -2.2727   -0.3785   -2.6283 C   0  0  0  0  0  0  0  0  0  0  0  0
   -1.8323   -0.3713   -1.7257 H   0  0  0  0  0  0  0  0  0  0  0  0
   -1.6960   -0.9259   -3.2440 H   0  0  0  0  0  0  0  0  0  0  0  0
   -2.3265    0.6417   -3.0085 H   0  0  0  0  0  0  0  0  0  0  0  0
  1  5  1  0
  5  6  1  0
  5  7  2  0
  1  2  1  0
  1  3  1  0
  1  4  1  0
  8 12  1  0
 12 15  1  0
  8  9  1  0
  8 10  1  0
  8 11  1  0
 12 13  1  0
 12 14  1  0
 15 16  1  0
 15 17  1  0
 15 18  1  0
M  CHG  1   6  -1
M  END
>  <PDB_ID>  (78) 
pdb2b3z

>  <RESIDUE_NAME>  (78) 
GLU   ILE

>  <FRAG_NAME>  (78) 
ACET   PRPA

>  <FRAG_ATOM_NUM>  (78) 
fragi: 7  fragj: 11

>  <atom.prop.CHAIN_ID>  (78) 
A A A A A A A Z Z Z Z Z Z Z Z Z Z Z

>  <atom.prop.IS_HEAVY_ATOM>  (78) 
1 0 0 0 1 1 1 1 0 0 0 1 0 0 1 0 0 0

>  <DIFUSE_FUNC_ATOM>  (78) 
atom 6   atom 7   

>  <FINAL_SINGLE_POINT_ENERGY>  (78) 
0

>  <NONCOV_INTER_ENERGY_QM>  (78) 
0

>  <FF_Energy>  (78) 
14.85

>  <QM_Energy>  (78) 
-2.14

>  <source>  (78) 
ACET_PRPA_00

>  <Index>  (78) 
34888

$$$$
ACET-pdb2b3z-D-GLU-72:PRPA-pdb2b3z-D-ILE-111
     RDKit          3D

 18 16  0  0  0  0  0  0  0  0999 V2000
   -0.0223    1.5328    0.0030 C   0  0  0  0  0  0  0  0  0  0  0  0
   -0.3860    1.8163    0.8738 H   0  0  0  0  0  0  0  0  0  0  0  0
   -0.5977    1.8164   -0.7449 H   0  0  0  0  0  0  0  0  0  0  0  0
    0.9595    1.9888   -0.1243 H   0  0  0  0  0  0  0  0  0  0  0  0
    0.0000    0.0000    0.0000 C   0  0  0  0  0  0  0  0  0  0  0  0
   -1.0968   -0.6046   -0.0000 O   0  0  0  0  0  1  0  0  0  0  0  0
    1.0968   -0.6056    0.0000 O   0  0  0  0  0  0  0  0  0  0  0  0
   -3.6238   -1.0937   -2.4925 C   0  0  0  0  0  0  0  0  0  0  0  0
   -3.4561   -2.0029   -2.1303 H   0  0  0  0  0  0  0  0  0  0  0  0
   -4.2643   -0.5661   -1.7859 H   0  0  0  0  0  0  0  0  0  0  0  0
   -4.1320   -1.1964   -3.4513 H   0  0  0  0  0  0  0  0  0  0  0  0
   -2.2727   -0.3785   -2.6283 C   0  0  0  0  0  0  0  0  0  0  0  0
   -1.8323   -0.3713   -1.7257 H   0  0  0  0  0  0  0  0  0  0  0  0
   -1.6960   -0.9259   -3.2440 H   0  0  0  0  0  0  0  0  0  0  0  0
   -2.3469    1.0287   -3.1527 C   0  0  0  0  0  0  0  0  0  0  0  0
   -2.9042    1.5873   -2.5376 H   0  0  0  0  0  0  0  0  0  0  0  0
   -1.4260    1.4152   -3.2086 H   0  0  0  0  0  0  0  0  0  0  0  0
   -2.7603    1.0263   -4.0637 H   0  0  0  0  0  0  0  0  0  0  0  0
  1  5  1  0
  5  6  1  0
  5  7  2  0
  1  2  1  0
  1  3  1  0
  1  4  1  0
  8 12  1  0
 12 15  1  0
  8  9  1  0
  8 10  1  0
  8 11  1  0
 12 13  1  0
 12 14  1  0
 15 16  1  0
 15 17  1  0
 15 18  1  0
M  CHG  1   6  -1
M  END
>  <PDB_ID>  (79) 
pdb2b3z

>  <RESIDUE_NAME>  (79) 
GLU   ILE

>  <FRAG_NAME>  (79) 
ACET   PRPA

>  <FRAG_ATOM_NUM>  (79) 
fragi: 7  fragj: 11

>  <atom.prop.CHAIN_ID>  (79) 
A A A A A A A Z Z Z Z Z Z Z Z Z Z Z

>  <atom.prop.IS_HEAVY_ATOM>  (79) 
1 0 0 0 1 1 1 1 0 0 0 1 0 0 1 0 0 0

>  <DIFUSE_FUNC_ATOM>  (79) 
atom 6   atom 7   

>  <FINAL_SINGLE_POINT_ENERGY>  (79) 
0

>  <NONCOV_INTER_ENERGY_QM>  (79) 
0

>  <FF_Energy>  (79) 
16.79

>  <QM_Energy>  (79) 
-1.8

>  <source>  (79) 
ACET_PRPA_00

>  <Index>  (79) 
34929

$$$$
ACET-pdb2bht-C-ASP-231:PRPA-pdb2bht-C-GLU-201
     RDKit          3D

 18 16  0  0  0  0  0  0  0  0999 V2000
    0.0076    1.5138    0.0165 C   0  0  0  0  0  0  0  0  0  0  0  0
    0.9292    1.8321   -0.1769 H   0  0  0  0  0  0  0  0  0  0  0  0
   -0.2847    1.8265    0.9134 H   0  0  0  0  0  0  0  0  0  0  0  0
   -0.6608    1.9493   -0.7263 H   0  0  0  0  0  0  0  0  0  0  0  0
    0.0000    0.0000    0.0000 C   0  0  0  0  0  0  0  0  0  0  0  0
   -1.0963   -0.5968    0.0000 O   0  0  0  0  0  1  0  0  0  0  0  0
    1.0963   -0.5970   -0.0000 O   0  0  0  0  0  0  0  0  0  0  0  0
   -2.4241   -0.9771    2.4339 C   0  0  0  0  0  0  0  0  0  0  0  0
   -1.7635   -1.3231    1.7590 H   0  0  0  0  0  0  0  0  0  0  0  0
   -3.2394   -0.4671    1.9207 H   0  0  0  0  0  0  0  0  0  0  0  0
   -2.8035   -1.8075    3.0293 H   0  0  0  0  0  0  0  0  0  0  0  0
   -1.6338   -0.0071    3.3128 C   0  0  0  0  0  0  0  0  0  0  0  0
   -2.0189   -0.0429    4.2190 H   0  0  0  0  0  0  0  0  0  0  0  0
   -0.6912   -0.2933    3.3025 H   0  0  0  0  0  0  0  0  0  0  0  0
   -1.6830    1.4360    2.8480 C   0  0  0  0  0  0  0  0  0  0  0  0
   -1.2489    1.4911    1.9636 H   0  0  0  0  0  0  0  0  0  0  0  0
   -2.6282    1.7177    2.8080 H   0  0  0  0  0  0  0  0  0  0  0  0
   -1.1633    2.1263    3.5124 H   0  0  0  0  0  0  0  0  0  0  0  0
  1  5  1  0
  5  6  1  0
  5  7  2  0
  1  2  1  0
  1  3  1  0
  1  4  1  0
  8 12  1  0
 12 15  1  0
  8  9  1  0
  8 10  1  0
  8 11  1  0
 12 13  1  0
 12 14  1  0
 15 16  1  0
 15 17  1  0
 15 18  1  0
M  CHG  1   6  -1
M  END
>  <PDB_ID>  (80) 
pdb2bht

>  <RESIDUE_NAME>  (80) 
ASP   GLU

>  <FRAG_NAME>  (80) 
ACET   PRPA

>  <FRAG_ATOM_NUM>  (80) 
fragi: 7  fragj: 11

>  <atom.prop.CHAIN_ID>  (80) 
A A A A A A A Z Z Z Z Z Z Z Z Z Z Z

>  <atom.prop.IS_HEAVY_ATOM>  (80) 
1 0 0 0 1 1 1 1 0 0 0 1 0 0 1 0 0 0

>  <DIFUSE_FUNC_ATOM>  (80) 
atom 6   atom 7   

>  <FINAL_SINGLE_POINT_ENERGY>  (80) 
0

>  <NONCOV_INTER_ENERGY_QM>  (80) 
0

>  <FF_Energy>  (80) 
44.89

>  <QM_Energy>  (80) 
3.59

>  <source>  (80) 
ACET_PRPA_00

>  <Index>  (80) 
36345

$$$$
ACET-pdb1bl0-A-GLU-21:PRPA-pdb1bl0-A-ARG-63
     RDKit          3D

 18 16  0  0  0  0  0  0  0  0999 V2000
   -0.0022    1.5155   -0.0084 C   0  0  0  0  0  0  0  0  0  0  0  0
   -0.4638    1.8108   -0.8301 H   0  0  0  0  0  0  0  0  0  0  0  0
    0.9383    1.8175    0.0067 H   0  0  0  0  0  0  0  0  0  0  0  0
   -0.5130    1.9654    0.8429 H   0  0  0  0  0  0  0  0  0  0  0  0
    0.0000    0.0000    0.0000 C   0  0  0  0  0  0  0  0  0  0  0  0
   -1.0923   -0.6355   -0.0000 O   0  0  0  0  0  1  0  0  0  0  0  0
    1.0923   -0.5590   -0.0000 O   0  0  0  0  0  0  0  0  0  0  0  0
    3.7013   -3.2897    0.3672 C   0  0  0  0  0  0  0  0  0  0  0  0
    3.7558   -3.5306    1.3305 H   0  0  0  0  0  0  0  0  0  0  0  0
    3.6220   -2.3041    0.2623 H   0  0  0  0  0  0  0  0  0  0  0  0
    4.6211   -3.6139   -0.1197 H   0  0  0  0  0  0  0  0  0  0  0  0
    2.4720   -3.9284   -0.2135 C   0  0  0  0  0  0  0  0  0  0  0  0
    2.7174   -4.7697   -0.6865 H   0  0  0  0  0  0  0  0  0  0  0  0
    1.8160   -4.1211    0.5098 H   0  0  0  0  0  0  0  0  0  0  0  0
    1.8073   -3.0031   -1.2140 C   0  0  0  0  0  0  0  0  0  0  0  0
    1.0773   -3.5057   -1.6612 H   0  0  0  0  0  0  0  0  0  0  0  0
    1.4441   -2.2232   -0.7176 H   0  0  0  0  0  0  0  0  0  0  0  0
    2.5269   -2.6616   -1.9582 H   0  0  0  0  0  0  0  0  0  0  0  0
  1  5  1  0
  5  6  1  0
  5  7  2  0
  1  2  1  0
  1  3  1  0
  1  4  1  0
  8 12  1  0
 12 15  1  0
  8  9  1  0
  8 10  1  0
  8 11  1  0
 12 13  1  0
 12 14  1  0
 15 16  1  0
 15 17  1  0
 15 18  1  0
M  CHG  1   6  -1
M  END
>  <PDB_ID>  (81) 
pdb1bl0

>  <RESIDUE_NAME>  (81) 
GLU   ARG

>  <FRAG_NAME>  (81) 
ACET   PRPA

>  <FRAG_ATOM_NUM>  (81) 
fragi: 7  fragj: 11

>  <atom.prop.CHAIN_ID>  (81) 
A A A A A A A Z Z Z Z Z Z Z Z Z Z Z

>  <atom.prop.IS_HEAVY_ATOM>  (81) 
1 0 0 0 1 1 1 1 0 0 0 1 0 0 1 0 0 0

>  <DIFUSE_FUNC_ATOM>  (81) 
atom 6   atom 7   

>  <FINAL_SINGLE_POINT_ENERGY>  (81) 
0

>  <NONCOV_INTER_ENERGY_QM>  (81) 
0

>  <FF_Energy>  (81) 
19.94

>  <QM_Energy>  (81) 
-1.03

>  <source>  (81) 
ACET_PRPA_00

>  <Index>  (81) 
36535

$$$$
ACET-pdb2bht-C-GLU-238:PRPA-pdb2bht-C-GLN-234
     RDKit          3D

 18 16  0  0  0  0  0  0  0  0999 V2000
   -0.0083    1.5179    0.0041 C   0  0  0  0  0  0  0  0  0  0  0  0
    0.1539    1.8182   -0.9169 H   0  0  0  0  0  0  0  0  0  0  0  0
    0.6915    1.8163    0.6245 H   0  0  0  0  0  0  0  0  0  0  0  0
   -0.9612    1.9300    0.3364 H   0  0  0  0  0  0  0  0  0  0  0  0
    0.0000    0.0000    0.0000 C   0  0  0  0  0  0  0  0  0  0  0  0
   -1.0958   -0.5992   -0.0000 O   0  0  0  0  0  1  0  0  0  0  0  0
    1.0958   -0.6004    0.0000 O   0  0  0  0  0  0  0  0  0  0  0  0
    3.0653    1.1243    3.4949 C   0  0  0  0  0  0  0  0  0  0  0  0
    3.4531    1.7751    2.8192 H   0  0  0  0  0  0  0  0  0  0  0  0
    3.5092    1.3401    4.4668 H   0  0  0  0  0  0  0  0  0  0  0  0
    1.9826    1.2500    3.4850 H   0  0  0  0  0  0  0  0  0  0  0  0
    3.4198   -0.3093    3.0852 C   0  0  0  0  0  0  0  0  0  0  0  0
    4.3326   -0.5290    3.4475 H   0  0  0  0  0  0  0  0  0  0  0  0
    2.7515   -0.9355    3.5041 H   0  0  0  0  0  0  0  0  0  0  0  0
    3.4323   -0.5654    1.5883 C   0  0  0  0  0  0  0  0  0  0  0  0
    2.5092   -0.4438    1.2330 H   0  0  0  0  0  0  0  0  0  0  0  0
    4.0520    0.0851    1.1555 H   0  0  0  0  0  0  0  0  0  0  0  0
    3.7657   -1.5751    1.3492 H   0  0  0  0  0  0  0  0  0  0  0  0
  1  5  1  0
  5  6  1  0
  5  7  2  0
  1  2  1  0
  1  3  1  0
  1  4  1  0
  8 12  1  0
 12 15  1  0
  8  9  1  0
  8 10  1  0
  8 11  1  0
 12 13  1  0
 12 14  1  0
 15 16  1  0
 15 17  1  0
 15 18  1  0
M  CHG  1   6  -1
M  END
>  <PDB_ID>  (82) 
pdb2bht

>  <RESIDUE_NAME>  (82) 
GLU   GLN

>  <FRAG_NAME>  (82) 
ACET   PRPA

>  <FRAG_ATOM_NUM>  (82) 
fragi: 7  fragj: 11

>  <atom.prop.CHAIN_ID>  (82) 
A A A A A A A Z Z Z Z Z Z Z Z Z Z Z

>  <atom.prop.IS_HEAVY_ATOM>  (82) 
1 0 0 0 1 1 1 1 0 0 0 1 0 0 1 0 0 0

>  <DIFUSE_FUNC_ATOM>  (82) 
atom 6   atom 7   

>  <FINAL_SINGLE_POINT_ENERGY>  (82) 
0

>  <NONCOV_INTER_ENERGY_QM>  (82) 
0

>  <FF_Energy>  (82) 
15.35

>  <QM_Energy>  (82) 
-0.26

>  <source>  (82) 
ACET_PRPA_00

>  <Index>  (82) 
36799

$$$$
ACET-pdb2b1x-F-GLU-619:PRPA-pdb2b1x-F-ARG-650
     RDKit          3D

 18 16  0  0  0  0  0  0  0  0999 V2000
    0.0208    1.5243   -0.0049 C   0  0  0  0  0  0  0  0  0  0  0  0
    0.4884    1.8087   -0.8240 H   0  0  0  0  0  0  0  0  0  0  0  0
    0.4959    1.8135    0.8081 H   0  0  0  0  0  0  0  0  0  0  0  0
   -0.9732    1.9715   -0.0022 H   0  0  0  0  0  0  0  0  0  0  0  0
    0.0000    0.0000    0.0000 C   0  0  0  0  0  0  0  0  0  0  0  0
   -1.0895   -0.6047    0.0000 O   0  0  0  0  0  1  0  0  0  0  0  0
    1.0895   -0.5953   -0.0000 O   0  0  0  0  0  0  0  0  0  0  0  0
    3.0170    2.9650   -2.9629 C   0  0  0  0  0  0  0  0  0  0  0  0
    3.5095    2.7637   -3.8085 H   0  0  0  0  0  0  0  0  0  0  0  0
    3.6546    3.3193   -2.2808 H   0  0  0  0  0  0  0  0  0  0  0  0
    2.2778    3.7379   -3.1736 H   0  0  0  0  0  0  0  0  0  0  0  0
    2.4389    1.6659   -2.4346 C   0  0  0  0  0  0  0  0  0  0  0  0
    1.5163    1.8317   -2.0680 H   0  0  0  0  0  0  0  0  0  0  0  0
    2.3676    0.9994   -3.1858 H   0  0  0  0  0  0  0  0  0  0  0  0
    3.2705    1.0201   -1.3214 C   0  0  0  0  0  0  0  0  0  0  0  0
    3.5773    1.7441   -0.7202 H   0  0  0  0  0  0  0  0  0  0  0  0
    2.6816    0.3839   -0.8405 H   0  0  0  0  0  0  0  0  0  0  0  0
    4.1253    0.4950   -1.7479 H   0  0  0  0  0  0  0  0  0  0  0  0
  1  5  1  0
  5  6  1  0
  5  7  2  0
  1  2  1  0
  1  3  1  0
  1  4  1  0
  8 12  1  0
 12 15  1  0
  8  9  1  0
  8 10  1  0
  8 11  1  0
 12 13  1  0
 12 14  1  0
 15 16  1  0
 15 17  1  0
 15 18  1  0
M  CHG  1   6  -1
M  END
>  <PDB_ID>  (83) 
pdb2b1x

>  <RESIDUE_NAME>  (83) 
GLU   ARG

>  <FRAG_NAME>  (83) 
ACET   PRPA

>  <FRAG_ATOM_NUM>  (83) 
fragi: 7  fragj: 11

>  <atom.prop.CHAIN_ID>  (83) 
A A A A A A A Z Z Z Z Z Z Z Z Z Z Z

>  <atom.prop.IS_HEAVY_ATOM>  (83) 
1 0 0 0 1 1 1 1 0 0 0 1 0 0 1 0 0 0

>  <DIFUSE_FUNC_ATOM>  (83) 
atom 6   atom 7   

>  <FINAL_SINGLE_POINT_ENERGY>  (83) 
0

>  <NONCOV_INTER_ENERGY_QM>  (83) 
0

>  <FF_Energy>  (83) 
17.05

>  <QM_Energy>  (83) 
-0.23

>  <source>  (83) 
ACET_PRPA_00

>  <Index>  (83) 
37559

$$$$
ACET-pdb2bht-D-ASP-62:PRPA-pdb2bht-D-LYS-59
     RDKit          3D

 18 16  0  0  0  0  0  0  0  0999 V2000
    0.0087    1.5142    0.0025 C   0  0  0  0  0  0  0  0  0  0  0  0
    0.1228    1.8360   -0.9299 H   0  0  0  0  0  0  0  0  0  0  0  0
    0.7563    1.8304    0.5741 H   0  0  0  0  0  0  0  0  0  0  0  0
   -0.9158    1.9392    0.3933 H   0  0  0  0  0  0  0  0  0  0  0  0
    0.0000    0.0000    0.0000 C   0  0  0  0  0  0  0  0  0  0  0  0
   -1.0959   -0.5963   -0.0000 O   0  0  0  0  0  1  0  0  0  0  0  0
    1.0959   -0.6016   -0.0000 O   0  0  0  0  0  0  0  0  0  0  0  0
   -0.4455   -0.9152   -3.4593 C   0  0  0  0  0  0  0  0  0  0  0  0
   -0.4689   -1.3573   -4.3648 H   0  0  0  0  0  0  0  0  0  0  0  0
    0.5892   -0.6870   -3.2035 H   0  0  0  0  0  0  0  0  0  0  0  0
   -1.0503   -0.0094   -3.5006 H   0  0  0  0  0  0  0  0  0  0  0  0
   -1.0523   -1.9074   -2.4692 C   0  0  0  0  0  0  0  0  0  0  0  0
   -0.4982   -2.7376   -2.4778 H   0  0  0  0  0  0  0  0  0  0  0  0
   -1.0268   -1.4962   -1.5586 H   0  0  0  0  0  0  0  0  0  0  0  0
   -2.4931   -2.2934   -2.7785 C   0  0  0  0  0  0  0  0  0  0  0  0
   -3.0039   -1.4701   -3.0287 H   0  0  0  0  0  0  0  0  0  0  0  0
   -2.5010   -2.9365   -3.5437 H   0  0  0  0  0  0  0  0  0  0  0  0
   -2.9751   -2.7599   -1.9194 H   0  0  0  0  0  0  0  0  0  0  0  0
  1  5  1  0
  5  6  1  0
  5  7  2  0
  1  2  1  0
  1  3  1  0
  1  4  1  0
  8 12  1  0
 12 15  1  0
  8  9  1  0
  8 10  1  0
  8 11  1  0
 12 13  1  0
 12 14  1  0
 15 16  1  0
 15 17  1  0
 15 18  1  0
M  CHG  1   6  -1
M  END
>  <PDB_ID>  (84) 
pdb2bht

>  <RESIDUE_NAME>  (84) 
ASP   LYS

>  <FRAG_NAME>  (84) 
ACET   PRPA

>  <FRAG_ATOM_NUM>  (84) 
fragi: 7  fragj: 11

>  <atom.prop.CHAIN_ID>  (84) 
A A A A A A A Z Z Z Z Z Z Z Z Z Z Z

>  <atom.prop.IS_HEAVY_ATOM>  (84) 
1 0 0 0 1 1 1 1 0 0 0 1 0 0 1 0 0 0

>  <DIFUSE_FUNC_ATOM>  (84) 
atom 6   atom 7   

>  <FINAL_SINGLE_POINT_ENERGY>  (84) 
0

>  <NONCOV_INTER_ENERGY_QM>  (84) 
0

>  <FF_Energy>  (84) 
33.26

>  <QM_Energy>  (84) 
-0.52

>  <source>  (84) 
ACET_PRPA_00

>  <Index>  (84) 
38172

$$$$
ACET-pdb2bht-D-ASP-62:PRPA-pdb2bht-D-LYS-59
     RDKit          3D

 18 16  0  0  0  0  0  0  0  0999 V2000
    0.0087    1.5142    0.0025 C   0  0  0  0  0  0  0  0  0  0  0  0
    0.1228    1.8360   -0.9299 H   0  0  0  0  0  0  0  0  0  0  0  0
    0.7563    1.8304    0.5741 H   0  0  0  0  0  0  0  0  0  0  0  0
   -0.9158    1.9392    0.3933 H   0  0  0  0  0  0  0  0  0  0  0  0
    0.0000    0.0000    0.0000 C   0  0  0  0  0  0  0  0  0  0  0  0
   -1.0959   -0.5963   -0.0000 O   0  0  0  0  0  1  0  0  0  0  0  0
    1.0959   -0.6016   -0.0000 O   0  0  0  0  0  0  0  0  0  0  0  0
   -1.0523   -1.9074   -2.4692 C   0  0  0  0  0  0  0  0  0  0  0  0
   -0.4982   -2.7376   -2.4778 H   0  0  0  0  0  0  0  0  0  0  0  0
   -1.0268   -1.4962   -1.5586 H   0  0  0  0  0  0  0  0  0  0  0  0
   -0.6193   -1.1993   -3.1758 H   0  0  0  0  0  0  0  0  0  0  0  0
   -2.4931   -2.2934   -2.7785 C   0  0  0  0  0  0  0  0  0  0  0  0
   -3.0039   -1.4701   -3.0287 H   0  0  0  0  0  0  0  0  0  0  0  0
   -2.5010   -2.9365   -3.5437 H   0  0  0  0  0  0  0  0  0  0  0  0
   -3.1656   -2.9443   -1.5800 C   0  0  0  0  0  0  0  0  0  0  0  0
   -3.5512   -3.8161   -1.8618 H   0  0  0  0  0  0  0  0  0  0  0  0
   -2.4890   -3.0780   -0.8635 H   0  0  0  0  0  0  0  0  0  0  0  0
   -3.9683   -2.3196   -1.1880 H   0  0  0  0  0  0  0  0  0  0  0  0
  1  5  1  0
  5  6  1  0
  5  7  2  0
  1  2  1  0
  1  3  1  0
  1  4  1  0
  8 12  1  0
 12 15  1  0
  8  9  1  0
  8 10  1  0
  8 11  1  0
 12 13  1  0
 12 14  1  0
 15 16  1  0
 15 17  1  0
 15 18  1  0
M  CHG  1   6  -1
M  END
>  <PDB_ID>  (85) 
pdb2bht

>  <RESIDUE_NAME>  (85) 
ASP   LYS

>  <FRAG_NAME>  (85) 
ACET   PRPA

>  <FRAG_ATOM_NUM>  (85) 
fragi: 7  fragj: 11

>  <atom.prop.CHAIN_ID>  (85) 
A A A A A A A Z Z Z Z Z Z Z Z Z Z Z

>  <atom.prop.IS_HEAVY_ATOM>  (85) 
1 0 0 0 1 1 1 1 0 0 0 1 0 0 1 0 0 0

>  <DIFUSE_FUNC_ATOM>  (85) 
atom 6   atom 7   

>  <FINAL_SINGLE_POINT_ENERGY>  (85) 
0

>  <NONCOV_INTER_ENERGY_QM>  (85) 
0

>  <FF_Energy>  (85) 
28.95

>  <QM_Energy>  (85) 
-0.13

>  <source>  (85) 
ACET_PRPA_00

>  <Index>  (85) 
38173

$$$$
ACET-pdb2bht-D-GLU-5:PRPA-pdb2bht-D-LEU-82
     RDKit          3D

 18 16  0  0  0  0  0  0  0  0999 V2000
    0.0046    1.5146   -0.0136 C   0  0  0  0  0  0  0  0  0  0  0  0
    0.4060    1.8044   -0.8636 H   0  0  0  0  0  0  0  0  0  0  0  0
    0.5244    1.8185    0.7641 H   0  0  0  0  0  0  0  0  0  0  0  0
   -0.9954    1.9431    0.0547 H   0  0  0  0  0  0  0  0  0  0  0  0
    0.0000    0.0000    0.0000 C   0  0  0  0  0  0  0  0  0  0  0  0
   -1.0977   -0.5944    0.0000 O   0  0  0  0  0  1  0  0  0  0  0  0
    1.0977   -0.5974   -0.0000 O   0  0  0  0  0  0  0  0  0  0  0  0
    4.2112   -1.7672    2.0970 C   0  0  0  0  0  0  0  0  0  0  0  0
    3.8612   -2.2288    2.9197 H   0  0  0  0  0  0  0  0  0  0  0  0
    5.2190   -1.4060    2.3018 H   0  0  0  0  0  0  0  0  0  0  0  0
    4.2117   -2.4842    1.2761 H   0  0  0  0  0  0  0  0  0  0  0  0
    3.2903   -0.5980    1.7345 C   0  0  0  0  0  0  0  0  0  0  0  0
    3.8076    0.0280    1.1547 H   0  0  0  0  0  0  0  0  0  0  0  0
    2.5141   -0.9667    1.2296 H   0  0  0  0  0  0  0  0  0  0  0  0
    2.7323    0.2169    2.9009 C   0  0  0  0  0  0  0  0  0  0  0  0
    1.9130    0.7016    2.5975 H   0  0  0  0  0  0  0  0  0  0  0  0
    2.4770   -0.4379    3.7340 H   0  0  0  0  0  0  0  0  0  0  0  0
    3.4504    0.9771    3.2083 H   0  0  0  0  0  0  0  0  0  0  0  0
  1  5  1  0
  5  6  1  0
  5  7  2  0
  1  2  1  0
  1  3  1  0
  1  4  1  0
  8 12  1  0
 12 15  1  0
  8  9  1  0
  8 10  1  0
  8 11  1  0
 12 13  1  0
 12 14  1  0
 15 16  1  0
 15 17  1  0
 15 18  1  0
M  CHG  1   6  -1
M  END
>  <PDB_ID>  (86) 
pdb2bht

>  <RESIDUE_NAME>  (86) 
GLU   LEU

>  <FRAG_NAME>  (86) 
ACET   PRPA

>  <FRAG_ATOM_NUM>  (86) 
fragi: 7  fragj: 11

>  <atom.prop.CHAIN_ID>  (86) 
A A A A A A A Z Z Z Z Z Z Z Z Z Z Z

>  <atom.prop.IS_HEAVY_ATOM>  (86) 
1 0 0 0 1 1 1 1 0 0 0 1 0 0 1 0 0 0

>  <DIFUSE_FUNC_ATOM>  (86) 
atom 6   atom 7   

>  <FINAL_SINGLE_POINT_ENERGY>  (86) 
0

>  <NONCOV_INTER_ENERGY_QM>  (86) 
0

>  <FF_Energy>  (86) 
14.67

>  <QM_Energy>  (86) 
-1.5

>  <source>  (86) 
ACET_PRPA_00

>  <Index>  (86) 
38380

$$$$
ACET-pdb1btn-A-GLU-95:PRPA-pdb1btn-A-LYS-91
     RDKit          3D

 18 16  0  0  0  0  0  0  0  0999 V2000
    0.0193    1.5123   -0.0525 C   0  0  0  0  0  0  0  0  0  0  0  0
   -0.6293    1.7926   -0.7423 H   0  0  0  0  0  0  0  0  0  0  0  0
    0.9389    1.7876   -0.2881 H   0  0  0  0  0  0  0  0  0  0  0  0
   -0.2537    1.9855    0.8907 H   0  0  0  0  0  0  0  0  0  0  0  0
    0.0000    0.0000    0.0000 C   0  0  0  0  0  0  0  0  0  0  0  0
   -1.0998   -0.6029   -0.0000 O   0  0  0  0  0  1  0  0  0  0  0  0
    1.0998   -0.5922   -0.0000 O   0  0  0  0  0  0  0  0  0  0  0  0
   -3.0227   -2.4266    2.5579 C   0  0  0  0  0  0  0  0  0  0  0  0
   -3.2127   -2.8134    3.4602 H   0  0  0  0  0  0  0  0  0  0  0  0
   -2.8644   -3.1686    1.9052 H   0  0  0  0  0  0  0  0  0  0  0  0
   -3.9053   -1.8752    2.2341 H   0  0  0  0  0  0  0  0  0  0  0  0
   -1.7440   -1.5940    2.6549 C   0  0  0  0  0  0  0  0  0  0  0  0
   -1.4556   -1.3312    1.7275 H   0  0  0  0  0  0  0  0  0  0  0  0
   -1.9381   -0.7568    3.1776 H   0  0  0  0  0  0  0  0  0  0  0  0
   -0.5854   -2.3342    3.3340 C   0  0  0  0  0  0  0  0  0  0  0  0
    0.2573   -1.8207    3.1747 H   0  0  0  0  0  0  0  0  0  0  0  0
   -0.7685   -2.3817    4.3155 H   0  0  0  0  0  0  0  0  0  0  0  0
   -0.4459   -3.3486    2.9606 H   0  0  0  0  0  0  0  0  0  0  0  0
  1  5  1  0
  5  6  1  0
  5  7  2  0
  1  2  1  0
  1  3  1  0
  1  4  1  0
  8 12  1  0
 12 15  1  0
  8  9  1  0
  8 10  1  0
  8 11  1  0
 12 13  1  0
 12 14  1  0
 15 16  1  0
 15 17  1  0
 15 18  1  0
M  CHG  1   6  -1
M  END
>  <PDB_ID>  (87) 
pdb1btn

>  <RESIDUE_NAME>  (87) 
GLU   LYS

>  <FRAG_NAME>  (87) 
ACET   PRPA

>  <FRAG_ATOM_NUM>  (87) 
fragi: 7  fragj: 11

>  <atom.prop.CHAIN_ID>  (87) 
A A A A A A A Z Z Z Z Z Z Z Z Z Z Z

>  <atom.prop.IS_HEAVY_ATOM>  (87) 
1 0 0 0 1 1 1 1 0 0 0 1 0 0 1 0 0 0

>  <DIFUSE_FUNC_ATOM>  (87) 
atom 6   atom 7   

>  <FINAL_SINGLE_POINT_ENERGY>  (87) 
0

>  <NONCOV_INTER_ENERGY_QM>  (87) 
0

>  <FF_Energy>  (87) 
14.8

>  <QM_Energy>  (87) 
-1.94

>  <source>  (87) 
ACET_PRPA_01

>  <Index>  (87) 
883

$$$$
ACET-pdb1bvq-A-GLU-86:PRPA-pdb1bvq-A-VAL-93
     RDKit          3D

 18 16  0  0  0  0  0  0  0  0999 V2000
   -0.2829    1.4590   -0.0734 C   0  0  0  0  0  0  0  0  0  0  0  0
    0.4615    1.9315    0.3101 H   0  0  0  0  0  0  0  0  0  0  0  0
   -1.1405    1.6204    0.3298 H   0  0  0  0  0  0  0  0  0  0  0  0
   -0.3408    1.6969   -1.1355 H   0  0  0  0  0  0  0  0  0  0  0  0
    0.0000    0.0000    0.0000 C   0  0  0  0  0  0  0  0  0  0  0  0
   -1.1267   -0.6580    0.0000 O   0  0  0  0  0  1  0  0  0  0  0  0
    1.1267   -0.5155    0.0000 O   0  0  0  0  0  0  0  0  0  0  0  0
    0.5499    4.9096    2.5953 C   0  0  0  0  0  0  0  0  0  0  0  0
    0.6187    4.8874    3.5930 H   0  0  0  0  0  0  0  0  0  0  0  0
   -0.5040    4.9784    2.3258 H   0  0  0  0  0  0  0  0  0  0  0  0
    1.0767    5.7967    2.2437 H   0  0  0  0  0  0  0  0  0  0  0  0
    1.1959    3.6421    2.0307 C   0  0  0  0  0  0  0  0  0  0  0  0
    1.1948    3.7078    1.0468 H   0  0  0  0  0  0  0  0  0  0  0  0
    2.2407    3.6278    2.3414 H   0  0  0  0  0  0  0  0  0  0  0  0
    0.4784    2.4123    2.6020 C   0  0  0  0  0  0  0  0  0  0  0  0
   -0.2286    2.7157    3.2376 H   0  0  0  0  0  0  0  0  0  0  0  0
    0.0654    1.9003    1.8519 H   0  0  0  0  0  0  0  0  0  0  0  0
    1.1434    1.8417    3.0793 H   0  0  0  0  0  0  0  0  0  0  0  0
  1  5  1  0
  5  6  1  0
  5  7  2  0
  1  2  1  0
  1  3  1  0
  1  4  1  0
  8 12  1  0
 12 15  1  0
  8  9  1  0
  8 10  1  0
  8 11  1  0
 12 13  1  0
 12 14  1  0
 15 16  1  0
 15 17  1  0
 15 18  1  0
M  CHG  1   6  -1
M  END
>  <PDB_ID>  (88) 
pdb1bvq

>  <RESIDUE_NAME>  (88) 
GLU   VAL

>  <FRAG_NAME>  (88) 
ACET   PRPA

>  <FRAG_ATOM_NUM>  (88) 
fragi: 7  fragj: 11

>  <atom.prop.CHAIN_ID>  (88) 
A A A A A A A Z Z Z Z Z Z Z Z Z Z Z

>  <atom.prop.IS_HEAVY_ATOM>  (88) 
1 0 0 0 1 1 1 1 0 0 0 1 0 0 1 0 0 0

>  <DIFUSE_FUNC_ATOM>  (88) 
atom 6   atom 7   

>  <FINAL_SINGLE_POINT_ENERGY>  (88) 
0

>  <NONCOV_INTER_ENERGY_QM>  (88) 
0

>  <FF_Energy>  (88) 
39.07

>  <QM_Energy>  (88) 
6.17

>  <source>  (88) 
ACET_PRPA_01

>  <Index>  (88) 
1748

$$$$
ACET-pdb1bvq-A-GLU-86:PRPA-pdb1bvq-A-VAL-93
     RDKit          3D

 18 16  0  0  0  0  0  0  0  0999 V2000
   -0.2829    1.4590   -0.0734 C   0  0  0  0  0  0  0  0  0  0  0  0
    0.4615    1.9315    0.3101 H   0  0  0  0  0  0  0  0  0  0  0  0
   -1.1405    1.6204    0.3298 H   0  0  0  0  0  0  0  0  0  0  0  0
   -0.3408    1.6969   -1.1355 H   0  0  0  0  0  0  0  0  0  0  0  0
    0.0000    0.0000    0.0000 C   0  0  0  0  0  0  0  0  0  0  0  0
   -1.1267   -0.6580    0.0000 O   0  0  0  0  0  1  0  0  0  0  0  0
    1.1267   -0.5155    0.0000 O   0  0  0  0  0  0  0  0  0  0  0  0
    2.6658    3.6219    2.4678 C   0  0  0  0  0  0  0  0  0  0  0  0
    3.2474    3.7654    1.6698 H   0  0  0  0  0  0  0  0  0  0  0  0
    2.8201    4.3495    3.1329 H   0  0  0  0  0  0  0  0  0  0  0  0
    2.8729    2.7377    2.8813 H   0  0  0  0  0  0  0  0  0  0  0  0
    1.1959    3.6421    2.0307 C   0  0  0  0  0  0  0  0  0  0  0  0
    1.1948    3.7078    1.0468 H   0  0  0  0  0  0  0  0  0  0  0  0
    0.7359    4.5448    2.4328 H   0  0  0  0  0  0  0  0  0  0  0  0
    0.4784    2.4123    2.6020 C   0  0  0  0  0  0  0  0  0  0  0  0
   -0.2286    2.7157    3.2376 H   0  0  0  0  0  0  0  0  0  0  0  0
    0.0654    1.9003    1.8519 H   0  0  0  0  0  0  0  0  0  0  0  0
    1.1434    1.8417    3.0793 H   0  0  0  0  0  0  0  0  0  0  0  0
  1  5  1  0
  5  6  1  0
  5  7  2  0
  1  2  1  0
  1  3  1  0
  1  4  1  0
  8 12  1  0
 12 15  1  0
  8  9  1  0
  8 10  1  0
  8 11  1  0
 12 13  1  0
 12 14  1  0
 15 16  1  0
 15 17  1  0
 15 18  1  0
M  CHG  1   6  -1
M  END
>  <PDB_ID>  (89) 
pdb1bvq

>  <RESIDUE_NAME>  (89) 
GLU   VAL

>  <FRAG_NAME>  (89) 
ACET   PRPA

>  <FRAG_ATOM_NUM>  (89) 
fragi: 7  fragj: 11

>  <atom.prop.CHAIN_ID>  (89) 
A A A A A A A Z Z Z Z Z Z Z Z Z Z Z

>  <atom.prop.IS_HEAVY_ATOM>  (89) 
1 0 0 0 1 1 1 1 0 0 0 1 0 0 1 0 0 0

>  <DIFUSE_FUNC_ATOM>  (89) 
atom 6   atom 7   

>  <FINAL_SINGLE_POINT_ENERGY>  (89) 
0

>  <NONCOV_INTER_ENERGY_QM>  (89) 
0

>  <FF_Energy>  (89) 
39.16

>  <QM_Energy>  (89) 
6.11

>  <source>  (89) 
ACET_PRPA_01

>  <Index>  (89) 
1756

$$$$
ACET-pdb2chu-A-GLU-43:PRPA-pdb2chu-A-LYS-38
     RDKit          3D

 18 16  0  0  0  0  0  0  0  0999 V2000
    0.1715    1.4826    0.0125 C   0  0  0  0  0  0  0  0  0  0  0  0
    0.6912    1.7380   -0.8050 H   0  0  0  0  0  0  0  0  0  0  0  0
    0.7030    1.7222    0.8267 H   0  0  0  0  0  0  0  0  0  0  0  0
   -0.7389    2.0818    0.0239 H   0  0  0  0  0  0  0  0  0  0  0  0
    0.0000    0.0000    0.0000 C   0  0  0  0  0  0  0  0  0  0  0  0
   -1.0900   -0.5604   -0.0000 O   0  0  0  0  0  1  0  0  0  0  0  0
    1.0900   -0.6077    0.0000 O   0  0  0  0  0  0  0  0  0  0  0  0
    2.7647    2.1792   -2.7617 C   0  0  0  0  0  0  0  0  0  0  0  0
    3.4519    2.0492   -3.4712 H   0  0  0  0  0  0  0  0  0  0  0  0
    3.1819    2.0825   -1.8615 H   0  0  0  0  0  0  0  0  0  0  0  0
    2.3703    3.1916   -2.8488 H   0  0  0  0  0  0  0  0  0  0  0  0
    1.7064    1.0734   -2.9172 C   0  0  0  0  0  0  0  0  0  0  0  0
    1.0399    1.1596   -2.1736 H   0  0  0  0  0  0  0  0  0  0  0  0
    1.2390    1.1961   -3.7941 H   0  0  0  0  0  0  0  0  0  0  0  0
    2.3143   -0.3326   -2.8738 C   0  0  0  0  0  0  0  0  0  0  0  0
    3.1700   -0.3341   -3.3777 H   0  0  0  0  0  0  0  0  0  0  0  0
    2.4640   -0.5958   -1.9283 H   0  0  0  0  0  0  0  0  0  0  0  0
    1.6619   -1.0793   -3.3263 H   0  0  0  0  0  0  0  0  0  0  0  0
  1  5  1  0
  5  6  1  0
  5  7  2  0
  1  2  1  0
  1  3  1  0
  1  4  1  0
  8 12  1  0
 12 15  1  0
  8  9  1  0
  8 10  1  0
  8 11  1  0
 12 13  1  0
 12 14  1  0
 15 16  1  0
 15 17  1  0
 15 18  1  0
M  CHG  1   6  -1
M  END
>  <PDB_ID>  (90) 
pdb2chu

>  <RESIDUE_NAME>  (90) 
GLU   LYS

>  <FRAG_NAME>  (90) 
ACET   PRPA

>  <FRAG_ATOM_NUM>  (90) 
fragi: 7  fragj: 11

>  <atom.prop.CHAIN_ID>  (90) 
A A A A A A A Z Z Z Z Z Z Z Z Z Z Z

>  <atom.prop.IS_HEAVY_ATOM>  (90) 
1 0 0 0 1 1 1 1 0 0 0 1 0 0 1 0 0 0

>  <DIFUSE_FUNC_ATOM>  (90) 
atom 6   atom 7   

>  <FINAL_SINGLE_POINT_ENERGY>  (90) 
0

>  <NONCOV_INTER_ENERGY_QM>  (90) 
0

>  <FF_Energy>  (90) 
27.29

>  <QM_Energy>  (90) 
0.29

>  <source>  (90) 
ACET_PRPA_01

>  <Index>  (90) 
1951

$$$$
ACET-pdb2chu-A-GLU-43:PRPA-pdb2chu-A-LYS-38
     RDKit          3D

 18 16  0  0  0  0  0  0  0  0999 V2000
    0.1715    1.4826    0.0125 C   0  0  0  0  0  0  0  0  0  0  0  0
    0.6912    1.7380   -0.8050 H   0  0  0  0  0  0  0  0  0  0  0  0
    0.7030    1.7222    0.8267 H   0  0  0  0  0  0  0  0  0  0  0  0
   -0.7389    2.0818    0.0239 H   0  0  0  0  0  0  0  0  0  0  0  0
    0.0000    0.0000    0.0000 C   0  0  0  0  0  0  0  0  0  0  0  0
   -1.0900   -0.5604   -0.0000 O   0  0  0  0  0  1  0  0  0  0  0  0
    1.0900   -0.6077    0.0000 O   0  0  0  0  0  0  0  0  0  0  0  0
    1.7064    1.0734   -2.9172 C   0  0  0  0  0  0  0  0  0  0  0  0
    1.0399    1.1596   -2.1736 H   0  0  0  0  0  0  0  0  0  0  0  0
    1.2390    1.1961   -3.7941 H   0  0  0  0  0  0  0  0  0  0  0  0
    2.4562    1.8568   -2.8070 H   0  0  0  0  0  0  0  0  0  0  0  0
    2.3143   -0.3326   -2.8738 C   0  0  0  0  0  0  0  0  0  0  0  0
    3.1700   -0.3341   -3.3777 H   0  0  0  0  0  0  0  0  0  0  0  0
    2.4640   -0.5958   -1.9283 H   0  0  0  0  0  0  0  0  0  0  0  0
    1.3808   -1.4011   -3.5212 C   0  0  0  0  0  0  0  0  0  0  0  0
    0.4904   -1.3802   -3.0351 H   0  0  0  0  0  0  0  0  0  0  0  0
    1.2029   -1.1258   -4.4819 H   0  0  0  0  0  0  0  0  0  0  0  0
    1.7491   -2.4269   -3.5200 H   0  0  0  0  0  0  0  0  0  0  0  0
  1  5  1  0
  5  6  1  0
  5  7  2  0
  1  2  1  0
  1  3  1  0
  1  4  1  0
  8 12  1  0
 12 15  1  0
  8  9  1  0
  8 10  1  0
  8 11  1  0
 12 13  1  0
 12 14  1  0
 15 16  1  0
 15 17  1  0
 15 18  1  0
M  CHG  1   6  -1
M  END
>  <PDB_ID>  (91) 
pdb2chu

>  <RESIDUE_NAME>  (91) 
GLU   LYS

>  <FRAG_NAME>  (91) 
ACET   PRPA

>  <FRAG_ATOM_NUM>  (91) 
fragi: 7  fragj: 11

>  <atom.prop.CHAIN_ID>  (91) 
A A A A A A A Z Z Z Z Z Z Z Z Z Z Z

>  <atom.prop.IS_HEAVY_ATOM>  (91) 
1 0 0 0 1 1 1 1 0 0 0 1 0 0 1 0 0 0

>  <DIFUSE_FUNC_ATOM>  (91) 
atom 6   atom 7   

>  <FINAL_SINGLE_POINT_ENERGY>  (91) 
0

>  <NONCOV_INTER_ENERGY_QM>  (91) 
0

>  <FF_Energy>  (91) 
24.02

>  <QM_Energy>  (91) 
-0.04

>  <source>  (91) 
ACET_PRPA_01

>  <Index>  (91) 
1960

$$$$
ACET-pdb1brm-A-ASP-96:PRPA-pdb1brm-A-VAL-131
     RDKit          3D

 18 16  0  0  0  0  0  0  0  0999 V2000
    0.0219    1.5216    0.0023 C   0  0  0  0  0  0  0  0  0  0  0  0
    0.5333    1.8351   -0.7915 H   0  0  0  0  0  0  0  0  0  0  0  0
    0.4579    1.8338    0.8396 H   0  0  0  0  0  0  0  0  0  0  0  0
   -0.9718    1.9672   -0.0432 H   0  0  0  0  0  0  0  0  0  0  0  0
    0.0000    0.0000    0.0000 C   0  0  0  0  0  0  0  0  0  0  0  0
   -1.0941   -0.5953    0.0000 O   0  0  0  0  0  1  0  0  0  0  0  0
    1.0941   -0.6031   -0.0000 O   0  0  0  0  0  0  0  0  0  0  0  0
    1.1279    2.5817    2.9293 C   0  0  0  0  0  0  0  0  0  0  0  0
    0.9140    2.7727    1.9707 H   0  0  0  0  0  0  0  0  0  0  0  0
    1.9405    1.9993    2.9784 H   0  0  0  0  0  0  0  0  0  0  0  0
    0.3550    2.1081    3.3533 H   0  0  0  0  0  0  0  0  0  0  0  0
    1.3906    3.8850    3.6621 C   0  0  0  0  0  0  0  0  0  0  0  0
    1.2853    3.7050    4.6313 H   0  0  0  0  0  0  0  0  0  0  0  0
    0.6389    4.6236    3.3837 H   0  0  0  0  0  0  0  0  0  0  0  0
    2.7855    4.4000    3.3458 C   0  0  0  0  0  0  0  0  0  0  0  0
    2.9583    5.2321    3.8729 H   0  0  0  0  0  0  0  0  0  0  0  0
    3.4594    3.7022    3.5894 H   0  0  0  0  0  0  0  0  0  0  0  0
    2.8498    4.6017    2.3680 H   0  0  0  0  0  0  0  0  0  0  0  0
  1  5  1  0
  5  6  1  0
  5  7  2  0
  1  2  1  0
  1  3  1  0
  1  4  1  0
  8 12  1  0
 12 15  1  0
  8  9  1  0
  8 10  1  0
  8 11  1  0
 12 13  1  0
 12 14  1  0
 15 16  1  0
 15 17  1  0
 15 18  1  0
M  CHG  1   6  -1
M  END
>  <PDB_ID>  (92) 
pdb1brm

>  <RESIDUE_NAME>  (92) 
ASP   VAL

>  <FRAG_NAME>  (92) 
ACET   PRPA

>  <FRAG_ATOM_NUM>  (92) 
fragi: 7  fragj: 11

>  <atom.prop.CHAIN_ID>  (92) 
A A A A A A A Z Z Z Z Z Z Z Z Z Z Z

>  <atom.prop.IS_HEAVY_ATOM>  (92) 
1 0 0 0 1 1 1 1 0 0 0 1 0 0 1 0 0 0

>  <DIFUSE_FUNC_ATOM>  (92) 
atom 6   atom 7   

>  <FINAL_SINGLE_POINT_ENERGY>  (92) 
0

>  <NONCOV_INTER_ENERGY_QM>  (92) 
0

>  <FF_Energy>  (92) 
21.1

>  <QM_Energy>  (92) 
3.99

>  <source>  (92) 
ACET_PRPA_01

>  <Index>  (92) 
2838

$$$$
ACET-pdb1bv4-A-GLU-198:PRPA-pdb1bv4-A-GLN-167
     RDKit          3D

 18 16  0  0  0  0  0  0  0  0999 V2000
    0.0007    1.5198   -0.0179 C   0  0  0  0  0  0  0  0  0  0  0  0
   -0.3811    1.8076   -0.8770 H   0  0  0  0  0  0  0  0  0  0  0  0
    0.9308    1.8173    0.0933 H   0  0  0  0  0  0  0  0  0  0  0  0
   -0.5956    1.9586    0.7821 H   0  0  0  0  0  0  0  0  0  0  0  0
    0.0000    0.0000    0.0000 C   0  0  0  0  0  0  0  0  0  0  0  0
   -1.0954   -0.5990   -0.0000 O   0  0  0  0  0  1  0  0  0  0  0  0
    1.0954   -0.5972    0.0000 O   0  0  0  0  0  0  0  0  0  0  0  0
    3.5724    2.2472    1.2346 C   0  0  0  0  0  0  0  0  0  0  0  0
    2.7527    2.7507    1.5504 H   0  0  0  0  0  0  0  0  0  0  0  0
    3.7933    2.5632    0.2150 H   0  0  0  0  0  0  0  0  0  0  0  0
    4.3808    2.4751    1.9292 H   0  0  0  0  0  0  0  0  0  0  0  0
    3.2745    0.7420    1.2446 C   0  0  0  0  0  0  0  0  0  0  0  0
    2.5029    0.5642    0.6276 H   0  0  0  0  0  0  0  0  0  0  0  0
    4.0822    0.2526    0.9011 H   0  0  0  0  0  0  0  0  0  0  0  0
    2.9236    0.1669    2.6148 C   0  0  0  0  0  0  0  0  0  0  0  0
    2.3042    0.8025    3.0782 H   0  0  0  0  0  0  0  0  0  0  0  0
    2.4603   -0.7108    2.4832 H   0  0  0  0  0  0  0  0  0  0  0  0
    3.7949    0.0072    3.2499 H   0  0  0  0  0  0  0  0  0  0  0  0
  1  5  1  0
  5  6  1  0
  5  7  2  0
  1  2  1  0
  1  3  1  0
  1  4  1  0
  8 12  1  0
 12 15  1  0
  8  9  1  0
  8 10  1  0
  8 11  1  0
 12 13  1  0
 12 14  1  0
 15 16  1  0
 15 17  1  0
 15 18  1  0
M  CHG  1   6  -1
M  END
>  <PDB_ID>  (93) 
pdb1bv4

>  <RESIDUE_NAME>  (93) 
GLU   GLN

>  <FRAG_NAME>  (93) 
ACET   PRPA

>  <FRAG_ATOM_NUM>  (93) 
fragi: 7  fragj: 11

>  <atom.prop.CHAIN_ID>  (93) 
A A A A A A A Z Z Z Z Z Z Z Z Z Z Z

>  <atom.prop.IS_HEAVY_ATOM>  (93) 
1 0 0 0 1 1 1 1 0 0 0 1 0 0 1 0 0 0

>  <DIFUSE_FUNC_ATOM>  (93) 
atom 6   atom 7   

>  <FINAL_SINGLE_POINT_ENERGY>  (93) 
0

>  <NONCOV_INTER_ENERGY_QM>  (93) 
0

>  <FF_Energy>  (93) 
13.81

>  <QM_Energy>  (93) 
-1.78

>  <source>  (93) 
ACET_PRPA_01

>  <Index>  (93) 
2915

$$$$
ACET-pdb1byg-A-ASP-208:PRPA-pdb1byg-A-LYS-203
     RDKit          3D

 18 16  0  0  0  0  0  0  0  0999 V2000
    0.0987    1.5075    0.0097 C   0  0  0  0  0  0  0  0  0  0  0  0
    1.0271    1.7654   -0.1971 H   0  0  0  0  0  0  0  0  0  0  0  0
   -0.1858    1.8385    0.8930 H   0  0  0  0  0  0  0  0  0  0  0  0
   -0.5590    1.9302   -0.7498 H   0  0  0  0  0  0  0  0  0  0  0  0
    0.0000    0.0000    0.0000 C   0  0  0  0  0  0  0  0  0  0  0  0
   -1.0961   -0.5712    0.0000 O   0  0  0  0  0  1  0  0  0  0  0  0
    1.0961   -0.5630   -0.0000 O   0  0  0  0  0  0  0  0  0  0  0  0
   -4.3065    1.3222    0.0672 C   0  0  0  0  0  0  0  0  0  0  0  0
   -3.5776    1.8247   -0.3750 H   0  0  0  0  0  0  0  0  0  0  0  0
   -4.6515    1.8826    0.9362 H   0  0  0  0  0  0  0  0  0  0  0  0
   -5.1528    1.2518   -0.6161 H   0  0  0  0  0  0  0  0  0  0  0  0
   -3.8919   -0.1042    0.4080 C   0  0  0  0  0  0  0  0  0  0  0  0
   -4.2180   -0.7145   -0.3468 H   0  0  0  0  0  0  0  0  0  0  0  0
   -2.8688   -0.1485    0.3762 H   0  0  0  0  0  0  0  0  0  0  0  0
   -4.3370   -0.7316    1.7267 C   0  0  0  0  0  0  0  0  0  0  0  0
   -5.0111   -0.1520    2.1519 H   0  0  0  0  0  0  0  0  0  0  0  0
   -4.6838   -1.6371    1.5569 H   0  0  0  0  0  0  0  0  0  0  0  0
   -3.4690   -0.8027    2.3822 H   0  0  0  0  0  0  0  0  0  0  0  0
  1  5  1  0
  5  6  1  0
  5  7  2  0
  1  2  1  0
  1  3  1  0
  1  4  1  0
  8 12  1  0
 12 15  1  0
  8  9  1  0
  8 10  1  0
  8 11  1  0
 12 13  1  0
 12 14  1  0
 15 16  1  0
 15 17  1  0
 15 18  1  0
M  CHG  1   6  -1
M  END
>  <PDB_ID>  (94) 
pdb1byg

>  <RESIDUE_NAME>  (94) 
ASP   LYS

>  <FRAG_NAME>  (94) 
ACET   PRPA

>  <FRAG_ATOM_NUM>  (94) 
fragi: 7  fragj: 11

>  <atom.prop.CHAIN_ID>  (94) 
A A A A A A A Z Z Z Z Z Z Z Z Z Z Z

>  <atom.prop.IS_HEAVY_ATOM>  (94) 
1 0 0 0 1 1 1 1 0 0 0 1 0 0 1 0 0 0

>  <DIFUSE_FUNC_ATOM>  (94) 
atom 6   atom 7   

>  <FINAL_SINGLE_POINT_ENERGY>  (94) 
0

>  <NONCOV_INTER_ENERGY_QM>  (94) 
0

>  <FF_Energy>  (94) 
15.74

>  <QM_Energy>  (94) 
-1.48

>  <source>  (94) 
ACET_PRPA_01

>  <Index>  (94) 
3339

$$$$
ACET-pdb1byg-A-ASP-208:PRPA-pdb1byg-A-LYS-203
     RDKit          3D

 18 16  0  0  0  0  0  0  0  0999 V2000
    0.0987    1.5075    0.0097 C   0  0  0  0  0  0  0  0  0  0  0  0
    1.0271    1.7654   -0.1971 H   0  0  0  0  0  0  0  0  0  0  0  0
   -0.1858    1.8385    0.8930 H   0  0  0  0  0  0  0  0  0  0  0  0
   -0.5590    1.9302   -0.7498 H   0  0  0  0  0  0  0  0  0  0  0  0
    0.0000    0.0000    0.0000 C   0  0  0  0  0  0  0  0  0  0  0  0
   -1.0961   -0.5712    0.0000 O   0  0  0  0  0  1  0  0  0  0  0  0
    1.0961   -0.5630   -0.0000 O   0  0  0  0  0  0  0  0  0  0  0  0
   -3.8919   -0.1042    0.4080 C   0  0  0  0  0  0  0  0  0  0  0  0
   -4.2180   -0.7145   -0.3468 H   0  0  0  0  0  0  0  0  0  0  0  0
   -2.8688   -0.1485    0.3762 H   0  0  0  0  0  0  0  0  0  0  0  0
   -4.1884    0.9160    0.1643 H   0  0  0  0  0  0  0  0  0  0  0  0
   -4.3370   -0.7316    1.7267 C   0  0  0  0  0  0  0  0  0  0  0  0
   -5.0111   -0.1520    2.1519 H   0  0  0  0  0  0  0  0  0  0  0  0
   -4.6838   -1.6371    1.5569 H   0  0  0  0  0  0  0  0  0  0  0  0
   -3.1162   -0.8316    2.6486 C   0  0  0  0  0  0  0  0  0  0  0  0
   -2.3034   -0.6426    2.1160 H   0  0  0  0  0  0  0  0  0  0  0  0
   -3.2213   -0.1773    3.3843 H   0  0  0  0  0  0  0  0  0  0  0  0
   -3.0376   -1.8326    3.0727 H   0  0  0  0  0  0  0  0  0  0  0  0
  1  5  1  0
  5  6  1  0
  5  7  2  0
  1  2  1  0
  1  3  1  0
  1  4  1  0
  8 12  1  0
 12 15  1  0
  8  9  1  0
  8 10  1  0
  8 11  1  0
 12 13  1  0
 12 14  1  0
 15 16  1  0
 15 17  1  0
 15 18  1  0
M  CHG  1   6  -1
M  END
>  <PDB_ID>  (95) 
pdb1byg

>  <RESIDUE_NAME>  (95) 
ASP   LYS

>  <FRAG_NAME>  (95) 
ACET   PRPA

>  <FRAG_ATOM_NUM>  (95) 
fragi: 7  fragj: 11

>  <atom.prop.CHAIN_ID>  (95) 
A A A A A A A Z Z Z Z Z Z Z Z Z Z Z

>  <atom.prop.IS_HEAVY_ATOM>  (95) 
1 0 0 0 1 1 1 1 0 0 0 1 0 0 1 0 0 0

>  <DIFUSE_FUNC_ATOM>  (95) 
atom 6   atom 7   

>  <FINAL_SINGLE_POINT_ENERGY>  (95) 
0

>  <NONCOV_INTER_ENERGY_QM>  (95) 
0

>  <FF_Energy>  (95) 
17.11

>  <QM_Energy>  (95) 
-1.88

>  <source>  (95) 
ACET_PRPA_01

>  <Index>  (95) 
3349

$$$$
ACET-pdb1byg-A-GLU-194:PRPA-pdb1byg-A-ARG-215
     RDKit          3D

 18 16  0  0  0  0  0  0  0  0999 V2000
    0.0226    1.5212   -0.0327 C   0  0  0  0  0  0  0  0  0  0  0  0
    0.9195    1.8004   -0.1838 H   0  0  0  0  0  0  0  0  0  0  0  0
   -0.4213    1.8402    0.7461 H   0  0  0  0  0  0  0  0  0  0  0  0
   -0.5718    1.7980   -0.9034 H   0  0  0  0  0  0  0  0  0  0  0  0
    0.0000    0.0000    0.0000 C   0  0  0  0  0  0  0  0  0  0  0  0
   -1.0691   -0.6330   -0.0000 O   0  0  0  0  0  1  0  0  0  0  0  0
    1.0691   -0.6134    0.0000 O   0  0  0  0  0  0  0  0  0  0  0  0
    3.3563    2.0478   -1.9810 C   0  0  0  0  0  0  0  0  0  0  0  0
    4.0932    1.7559   -1.3670 H   0  0  0  0  0  0  0  0  0  0  0  0
    2.5301    2.2199   -1.4400 H   0  0  0  0  0  0  0  0  0  0  0  0
    3.6574    2.9869   -2.4451 H   0  0  0  0  0  0  0  0  0  0  0  0
    3.0668    0.9258   -2.9390 C   0  0  0  0  0  0  0  0  0  0  0  0
    2.4023    1.2434   -3.6344 H   0  0  0  0  0  0  0  0  0  0  0  0
    3.9194    0.6757   -3.4273 H   0  0  0  0  0  0  0  0  0  0  0  0
    2.5184   -0.3070   -2.2958 C   0  0  0  0  0  0  0  0  0  0  0  0
    2.1445   -0.0679   -1.4057 H   0  0  0  0  0  0  0  0  0  0  0  0
    1.8081   -0.6862   -2.8794 H   0  0  0  0  0  0  0  0  0  0  0  0
    3.2965   -1.0579   -2.1586 H   0  0  0  0  0  0  0  0  0  0  0  0
  1  5  1  0
  5  6  1  0
  5  7  2  0
  1  2  1  0
  1  3  1  0
  1  4  1  0
  8 12  1  0
 12 15  1  0
  8  9  1  0
  8 10  1  0
  8 11  1  0
 12 13  1  0
 12 14  1  0
 15 16  1  0
 15 17  1  0
 15 18  1  0
M  CHG  1   6  -1
M  END
>  <PDB_ID>  (96) 
pdb1byg

>  <RESIDUE_NAME>  (96) 
GLU   ARG

>  <FRAG_NAME>  (96) 
ACET   PRPA

>  <FRAG_ATOM_NUM>  (96) 
fragi: 7  fragj: 11

>  <atom.prop.CHAIN_ID>  (96) 
A A A A A A A Z Z Z Z Z Z Z Z Z Z Z

>  <atom.prop.IS_HEAVY_ATOM>  (96) 
1 0 0 0 1 1 1 1 0 0 0 1 0 0 1 0 0 0

>  <DIFUSE_FUNC_ATOM>  (96) 
atom 6   atom 7   

>  <FINAL_SINGLE_POINT_ENERGY>  (96) 
0

>  <NONCOV_INTER_ENERGY_QM>  (96) 
0

>  <FF_Energy>  (96) 
20.79

>  <QM_Energy>  (96) 
1.86

>  <source>  (96) 
ACET_PRPA_01

>  <Index>  (96) 
3439

$$$$
ACET-pdb1brl-A-GLU-137:PRPA-pdb1brl-A-LEU-134
     RDKit          3D

 18 16  0  0  0  0  0  0  0  0999 V2000
    0.2219    1.4780    0.0789 C   0  0  0  0  0  0  0  0  0  0  0  0
   -0.0350    1.8693   -0.7635 H   0  0  0  0  0  0  0  0  0  0  0  0
    1.1338    1.6338    0.3512 H   0  0  0  0  0  0  0  0  0  0  0  0
   -0.4401    1.8654    0.8534 H   0  0  0  0  0  0  0  0  0  0  0  0
    0.0000    0.0000    0.0000 C   0  0  0  0  0  0  0  0  0  0  0  0
   -1.1299   -0.5002   -0.0000 O   0  0  0  0  0  1  0  0  0  0  0  0
    1.1299   -0.6673    0.0000 O   0  0  0  0  0  0  0  0  0  0  0  0
   -3.9081   -0.7966    0.0945 C   0  0  0  0  0  0  0  0  0  0  0  0
   -2.9186   -0.8335    0.2568 H   0  0  0  0  0  0  0  0  0  0  0  0
   -4.4204   -0.8484    1.0552 H   0  0  0  0  0  0  0  0  0  0  0  0
   -4.1539    0.1482   -0.3903 H   0  0  0  0  0  0  0  0  0  0  0  0
   -4.3786   -1.9452   -0.7951 C   0  0  0  0  0  0  0  0  0  0  0  0
   -5.3222   -1.8027   -1.0034 H   0  0  0  0  0  0  0  0  0  0  0  0
   -3.8052   -1.9752   -1.5833 H   0  0  0  0  0  0  0  0  0  0  0  0
   -4.2575   -3.2849   -0.0776 C   0  0  0  0  0  0  0  0  0  0  0  0
   -4.8554   -3.2822    0.7270 H   0  0  0  0  0  0  0  0  0  0  0  0
   -4.5417   -4.1104   -0.7302 H   0  0  0  0  0  0  0  0  0  0  0  0
   -3.2165   -3.4168    0.2173 H   0  0  0  0  0  0  0  0  0  0  0  0
  1  5  1  0
  5  6  1  0
  5  7  2  0
  1  2  1  0
  1  3  1  0
  1  4  1  0
  8 12  1  0
 12 15  1  0
  8  9  1  0
  8 10  1  0
  8 11  1  0
 12 13  1  0
 12 14  1  0
 15 16  1  0
 15 17  1  0
 15 18  1  0
M  CHG  1   6  -1
M  END
>  <PDB_ID>  (97) 
pdb1brl

>  <RESIDUE_NAME>  (97) 
GLU   LEU

>  <FRAG_NAME>  (97) 
ACET   PRPA

>  <FRAG_ATOM_NUM>  (97) 
fragi: 7  fragj: 11

>  <atom.prop.CHAIN_ID>  (97) 
A A A A A A A Z Z Z Z Z Z Z Z Z Z Z

>  <atom.prop.IS_HEAVY_ATOM>  (97) 
1 0 0 0 1 1 1 1 0 0 0 1 0 0 1 0 0 0

>  <DIFUSE_FUNC_ATOM>  (97) 
atom 6   atom 7   

>  <FINAL_SINGLE_POINT_ENERGY>  (97) 
0

>  <NONCOV_INTER_ENERGY_QM>  (97) 
0

>  <FF_Energy>  (97) 
21.2

>  <QM_Energy>  (97) 
-0.46

>  <source>  (97) 
ACET_PRPA_01

>  <Index>  (97) 
5341

$$$$
ACET-pdb2cvi-A-GLU-65:PRPA-pdb2cvi-A-LYS-14
     RDKit          3D

 18 16  0  0  0  0  0  0  0  0999 V2000
    0.0324    1.5079   -0.0146 C   0  0  0  0  0  0  0  0  0  0  0  0
    0.4153    1.7944   -0.8806 H   0  0  0  0  0  0  0  0  0  0  0  0
    0.5963    1.8053    0.7416 H   0  0  0  0  0  0  0  0  0  0  0  0
   -0.9449    1.9792    0.0898 H   0  0  0  0  0  0  0  0  0  0  0  0
    0.0000    0.0000    0.0000 C   0  0  0  0  0  0  0  0  0  0  0  0
   -1.0915   -0.5897    0.0000 O   0  0  0  0  0  1  0  0  0  0  0  0
    1.0915   -0.6126   -0.0000 O   0  0  0  0  0  0  0  0  0  0  0  0
    0.5796    4.5009   -2.2169 C   0  0  0  0  0  0  0  0  0  0  0  0
   -0.1130    5.0202   -1.7430 H   0  0  0  0  0  0  0  0  0  0  0  0
    0.2785    3.5804   -2.4060 H   0  0  0  0  0  0  0  0  0  0  0  0
    0.7884    4.9941   -3.1663 H   0  0  0  0  0  0  0  0  0  0  0  0
    1.8216    4.4353   -1.3381 C   0  0  0  0  0  0  0  0  0  0  0  0
    2.4084    3.6905   -1.6653 H   0  0  0  0  0  0  0  0  0  0  0  0
    2.3186    5.3021   -1.4174 H   0  0  0  0  0  0  0  0  0  0  0  0
    1.4731    4.1932    0.1065 C   0  0  0  0  0  0  0  0  0  0  0  0
    0.8206    4.8830    0.4083 H   0  0  0  0  0  0  0  0  0  0  0  0
    1.0783    3.2837    0.2041 H   0  0  0  0  0  0  0  0  0  0  0  0
    2.3523    4.2521    0.7482 H   0  0  0  0  0  0  0  0  0  0  0  0
  1  5  1  0
  5  6  1  0
  5  7  2  0
  1  2  1  0
  1  3  1  0
  1  4  1  0
  8 12  1  0
 12 15  1  0
  8  9  1  0
  8 10  1  0
  8 11  1  0
 12 13  1  0
 12 14  1  0
 15 16  1  0
 15 17  1  0
 15 18  1  0
M  CHG  1   6  -1
M  END
>  <PDB_ID>  (98) 
pdb2cvi

>  <RESIDUE_NAME>  (98) 
GLU   LYS

>  <FRAG_NAME>  (98) 
ACET   PRPA

>  <FRAG_ATOM_NUM>  (98) 
fragi: 7  fragj: 11

>  <atom.prop.CHAIN_ID>  (98) 
A A A A A A A Z Z Z Z Z Z Z Z Z Z Z

>  <atom.prop.IS_HEAVY_ATOM>  (98) 
1 0 0 0 1 1 1 1 0 0 0 1 0 0 1 0 0 0

>  <DIFUSE_FUNC_ATOM>  (98) 
atom 6   atom 7   

>  <FINAL_SINGLE_POINT_ENERGY>  (98) 
0

>  <NONCOV_INTER_ENERGY_QM>  (98) 
0

>  <FF_Energy>  (98) 
23.31

>  <QM_Energy>  (98) 
4.17

>  <source>  (98) 
ACET_PRPA_01

>  <Index>  (98) 
5839

$$$$
ACET-pdb2cvi-A-GLU-65:PRPA-pdb2cvi-A-LYS-14
     RDKit          3D

 18 16  0  0  0  0  0  0  0  0999 V2000
    0.0324    1.5079   -0.0146 C   0  0  0  0  0  0  0  0  0  0  0  0
    0.4153    1.7944   -0.8806 H   0  0  0  0  0  0  0  0  0  0  0  0
    0.5963    1.8053    0.7416 H   0  0  0  0  0  0  0  0  0  0  0  0
   -0.9449    1.9792    0.0898 H   0  0  0  0  0  0  0  0  0  0  0  0
    0.0000    0.0000    0.0000 C   0  0  0  0  0  0  0  0  0  0  0  0
   -1.0915   -0.5897    0.0000 O   0  0  0  0  0  1  0  0  0  0  0  0
    1.0915   -0.6126   -0.0000 O   0  0  0  0  0  0  0  0  0  0  0  0
    1.8216    4.4353   -1.3381 C   0  0  0  0  0  0  0  0  0  0  0  0
    2.4084    3.6905   -1.6653 H   0  0  0  0  0  0  0  0  0  0  0  0
    2.3186    5.3021   -1.4174 H   0  0  0  0  0  0  0  0  0  0  0  0
    0.9327    4.4822   -1.9672 H   0  0  0  0  0  0  0  0  0  0  0  0
    1.4731    4.1932    0.1065 C   0  0  0  0  0  0  0  0  0  0  0  0
    0.8206    4.8830    0.4083 H   0  0  0  0  0  0  0  0  0  0  0  0
    1.0783    3.2837    0.2041 H   0  0  0  0  0  0  0  0  0  0  0  0
    2.7038    4.2756    1.0047 C   0  0  0  0  0  0  0  0  0  0  0  0
    3.4257    3.6961    0.6226 H   0  0  0  0  0  0  0  0  0  0  0  0
    3.0259    5.2245    1.0322 H   0  0  0  0  0  0  0  0  0  0  0  0
    2.4893    3.9473    2.0217 H   0  0  0  0  0  0  0  0  0  0  0  0
  1  5  1  0
  5  6  1  0
  5  7  2  0
  1  2  1  0
  1  3  1  0
  1  4  1  0
  8 12  1  0
 12 15  1  0
  8  9  1  0
  8 10  1  0
  8 11  1  0
 12 13  1  0
 12 14  1  0
 15 16  1  0
 15 17  1  0
 15 18  1  0
M  CHG  1   6  -1
M  END
>  <PDB_ID>  (99) 
pdb2cvi

>  <RESIDUE_NAME>  (99) 
GLU   LYS

>  <FRAG_NAME>  (99) 
ACET   PRPA

>  <FRAG_ATOM_NUM>  (99) 
fragi: 7  fragj: 11

>  <atom.prop.CHAIN_ID>  (99) 
A A A A A A A Z Z Z Z Z Z Z Z Z Z Z

>  <atom.prop.IS_HEAVY_ATOM>  (99) 
1 0 0 0 1 1 1 1 0 0 0 1 0 0 1 0 0 0

>  <DIFUSE_FUNC_ATOM>  (99) 
atom 6   atom 7   

>  <FINAL_SINGLE_POINT_ENERGY>  (99) 
0

>  <NONCOV_INTER_ENERGY_QM>  (99) 
0

>  <FF_Energy>  (99) 
26.79

>  <QM_Energy>  (99) 
4.16

>  <source>  (99) 
ACET_PRPA_01

>  <Index>  (99) 
5844

$$$$
ACET-pdb2cuy-A-GLU-35:PRPA-pdb2cuy-A-LEU-42
     RDKit          3D

 18 16  0  0  0  0  0  0  0  0999 V2000
    0.0274    1.5138   -0.0021 C   0  0  0  0  0  0  0  0  0  0  0  0
    0.9590    1.7936    0.1677 H   0  0  0  0  0  0  0  0  0  0  0  0
   -0.5786    1.8219    0.7134 H   0  0  0  0  0  0  0  0  0  0  0  0
   -0.2979    1.9546   -0.9445 H   0  0  0  0  0  0  0  0  0  0  0  0
    0.0000    0.0000    0.0000 C   0  0  0  0  0  0  0  0  0  0  0  0
   -1.0945   -0.5972   -0.0000 O   0  0  0  0  0  1  0  0  0  0  0  0
    1.0945   -0.5914   -0.0000 O   0  0  0  0  0  0  0  0  0  0  0  0
    4.1391    0.1111    1.9482 C   0  0  0  0  0  0  0  0  0  0  0  0
    4.9912    0.5847    1.6558 H   0  0  0  0  0  0  0  0  0  0  0  0
    3.7856   -0.4993    1.1171 H   0  0  0  0  0  0  0  0  0  0  0  0
    4.3590   -0.4607    2.8497 H   0  0  0  0  0  0  0  0  0  0  0  0
    3.1260    1.2148    2.2774 C   0  0  0  0  0  0  0  0  0  0  0  0
    2.2435    0.7795    2.4423 H   0  0  0  0  0  0  0  0  0  0  0  0
    3.4365    1.6777    3.1026 H   0  0  0  0  0  0  0  0  0  0  0  0
    2.9089    2.2900    1.2051 C   0  0  0  0  0  0  0  0  0  0  0  0
    2.4995    1.8701    0.4053 H   0  0  0  0  0  0  0  0  0  0  0  0
    2.2369    3.0505    1.6027 H   0  0  0  0  0  0  0  0  0  0  0  0
    3.8580    2.7383    0.9114 H   0  0  0  0  0  0  0  0  0  0  0  0
  1  5  1  0
  5  6  1  0
  5  7  2  0
  1  2  1  0
  1  3  1  0
  1  4  1  0
  8 12  1  0
 12 15  1  0
  8  9  1  0
  8 10  1  0
  8 11  1  0
 12 13  1  0
 12 14  1  0
 15 16  1  0
 15 17  1  0
 15 18  1  0
M  CHG  1   6  -1
M  END
>  <PDB_ID>  (100) 
pdb2cuy

>  <RESIDUE_NAME>  (100) 
GLU   LEU

>  <FRAG_NAME>  (100) 
ACET   PRPA

>  <FRAG_ATOM_NUM>  (100) 
fragi: 7  fragj: 11

>  <atom.prop.CHAIN_ID>  (100) 
A A A A A A A Z Z Z Z Z Z Z Z Z Z Z

>  <atom.prop.IS_HEAVY_ATOM>  (100) 
1 0 0 0 1 1 1 1 0 0 0 1 0 0 1 0 0 0

>  <DIFUSE_FUNC_ATOM>  (100) 
atom 6   atom 7   

>  <FINAL_SINGLE_POINT_ENERGY>  (100) 
0

>  <NONCOV_INTER_ENERGY_QM>  (100) 
0

>  <FF_Energy>  (100) 
43.14

>  <QM_Energy>  (100) 
0.47

>  <source>  (100) 
ACET_PRPA_01

>  <Index>  (100) 
7793

$$$$
ACET-pdb2cuy-A-GLU-35:PRPA-pdb2cuy-A-LEU-42
     RDKit          3D

 18 16  0  0  0  0  0  0  0  0999 V2000
    0.0274    1.5138   -0.0021 C   0  0  0  0  0  0  0  0  0  0  0  0
    0.9590    1.7936    0.1677 H   0  0  0  0  0  0  0  0  0  0  0  0
   -0.5786    1.8219    0.7134 H   0  0  0  0  0  0  0  0  0  0  0  0
   -0.2979    1.9546   -0.9445 H   0  0  0  0  0  0  0  0  0  0  0  0
    0.0000    0.0000    0.0000 C   0  0  0  0  0  0  0  0  0  0  0  0
   -1.0945   -0.5972   -0.0000 O   0  0  0  0  0  1  0  0  0  0  0  0
    1.0945   -0.5914   -0.0000 O   0  0  0  0  0  0  0  0  0  0  0  0
    3.1260    1.2148    2.2774 C   0  0  0  0  0  0  0  0  0  0  0  0
    2.2435    0.7795    2.4423 H   0  0  0  0  0  0  0  0  0  0  0  0
    3.4365    1.6777    3.1026 H   0  0  0  0  0  0  0  0  0  0  0  0
    3.8459    0.4305    2.0434 H   0  0  0  0  0  0  0  0  0  0  0  0
    2.9089    2.2900    1.2051 C   0  0  0  0  0  0  0  0  0  0  0  0
    2.4995    1.8701    0.4053 H   0  0  0  0  0  0  0  0  0  0  0  0
    3.8580    2.7383    0.9114 H   0  0  0  0  0  0  0  0  0  0  0  0
    1.9704    3.3522    1.7605 C   0  0  0  0  0  0  0  0  0  0  0  0
    2.3773    3.7640    2.5755 H   0  0  0  0  0  0  0  0  0  0  0  0
    1.8207    4.0603    1.0698 H   0  0  0  0  0  0  0  0  0  0  0  0
    1.0952    2.9320    2.0017 H   0  0  0  0  0  0  0  0  0  0  0  0
  1  5  1  0
  5  6  1  0
  5  7  2  0
  1  2  1  0
  1  3  1  0
  1  4  1  0
  8 12  1  0
 12 15  1  0
  8  9  1  0
  8 10  1  0
  8 11  1  0
 12 13  1  0
 12 14  1  0
 15 16  1  0
 15 17  1  0
 15 18  1  0
M  CHG  1   6  -1
M  END
>  <PDB_ID>  (101) 
pdb2cuy

>  <RESIDUE_NAME>  (101) 
GLU   LEU

>  <FRAG_NAME>  (101) 
ACET   PRPA

>  <FRAG_ATOM_NUM>  (101) 
fragi: 7  fragj: 11

>  <atom.prop.CHAIN_ID>  (101) 
A A A A A A A Z Z Z Z Z Z Z Z Z Z Z

>  <atom.prop.IS_HEAVY_ATOM>  (101) 
1 0 0 0 1 1 1 1 0 0 0 1 0 0 1 0 0 0

>  <DIFUSE_FUNC_ATOM>  (101) 
atom 6   atom 7   

>  <FINAL_SINGLE_POINT_ENERGY>  (101) 
0

>  <NONCOV_INTER_ENERGY_QM>  (101) 
0

>  <FF_Energy>  (101) 
24.08

>  <QM_Energy>  (101) 
1.66

>  <source>  (101) 
ACET_PRPA_01

>  <Index>  (101) 
7820

$$$$
ACET-pdb2cuy-A-GLU-35:PRPA-pdb2cuy-A-LEU-42
     RDKit          3D

 18 16  0  0  0  0  0  0  0  0999 V2000
    0.0274    1.5138   -0.0021 C   0  0  0  0  0  0  0  0  0  0  0  0
    0.9590    1.7936    0.1677 H   0  0  0  0  0  0  0  0  0  0  0  0
   -0.5786    1.8219    0.7134 H   0  0  0  0  0  0  0  0  0  0  0  0
   -0.2979    1.9546   -0.9445 H   0  0  0  0  0  0  0  0  0  0  0  0
    0.0000    0.0000    0.0000 C   0  0  0  0  0  0  0  0  0  0  0  0
   -1.0945   -0.5972   -0.0000 O   0  0  0  0  0  1  0  0  0  0  0  0
    1.0945   -0.5914   -0.0000 O   0  0  0  0  0  0  0  0  0  0  0  0
    3.1260    1.2148    2.2774 C   0  0  0  0  0  0  0  0  0  0  0  0
    2.2435    0.7795    2.4423 H   0  0  0  0  0  0  0  0  0  0  0  0
    3.4365    1.6777    3.1026 H   0  0  0  0  0  0  0  0  0  0  0  0
    3.8459    0.4305    2.0434 H   0  0  0  0  0  0  0  0  0  0  0  0
    2.9089    2.2900    1.2051 C   0  0  0  0  0  0  0  0  0  0  0  0
    2.4995    1.8701    0.4053 H   0  0  0  0  0  0  0  0  0  0  0  0
    2.2369    3.0505    1.6027 H   0  0  0  0  0  0  0  0  0  0  0  0
    4.2410    2.9193    0.7929 C   0  0  0  0  0  0  0  0  0  0  0  0
    4.8418    2.2100    0.4242 H   0  0  0  0  0  0  0  0  0  0  0  0
    4.0758    3.6156    0.0948 H   0  0  0  0  0  0  0  0  0  0  0  0
    4.6692    3.3392    1.5922 H   0  0  0  0  0  0  0  0  0  0  0  0
  1  5  1  0
  5  6  1  0
  5  7  2  0
  1  2  1  0
  1  3  1  0
  1  4  1  0
  8 12  1  0
 12 15  1  0
  8  9  1  0
  8 10  1  0
  8 11  1  0
 12 13  1  0
 12 14  1  0
 15 16  1  0
 15 17  1  0
 15 18  1  0
M  CHG  1   6  -1
M  END
>  <PDB_ID>  (102) 
pdb2cuy

>  <RESIDUE_NAME>  (102) 
GLU   LEU

>  <FRAG_NAME>  (102) 
ACET   PRPA

>  <FRAG_ATOM_NUM>  (102) 
fragi: 7  fragj: 11

>  <atom.prop.CHAIN_ID>  (102) 
A A A A A A A Z Z Z Z Z Z Z Z Z Z Z

>  <atom.prop.IS_HEAVY_ATOM>  (102) 
1 0 0 0 1 1 1 1 0 0 0 1 0 0 1 0 0 0

>  <DIFUSE_FUNC_ATOM>  (102) 
atom 6   atom 7   

>  <FINAL_SINGLE_POINT_ENERGY>  (102) 
0

>  <NONCOV_INTER_ENERGY_QM>  (102) 
0

>  <FF_Energy>  (102) 
21.35

>  <QM_Energy>  (102) 
1.82

>  <source>  (102) 
ACET_PRPA_01

>  <Index>  (102) 
7855

$$$$
ACET-pdb1c3x-A-GLU-164:PRPA-pdb1c3x-A-ARG-113
     RDKit          3D

 18 16  0  0  0  0  0  0  0  0999 V2000
    0.0575    1.5402    0.0307 C   0  0  0  0  0  0  0  0  0  0  0  0
    0.9720    1.7993   -0.2410 H   0  0  0  0  0  0  0  0  0  0  0  0
   -0.1327    1.8160    0.9602 H   0  0  0  0  0  0  0  0  0  0  0  0
   -0.6522    2.0383   -0.6299 H   0  0  0  0  0  0  0  0  0  0  0  0
    0.0000    0.0000    0.0000 C   0  0  0  0  0  0  0  0  0  0  0  0
   -1.1139   -0.6224   -0.0000 O   0  0  0  0  0  1  0  0  0  0  0  0
    1.1139   -0.5875    0.0000 O   0  0  0  0  0  0  0  0  0  0  0  0
    3.8096   -3.1878    2.9236 C   0  0  0  0  0  0  0  0  0  0  0  0
    4.1584   -3.5451    2.0866 H   0  0  0  0  0  0  0  0  0  0  0  0
    3.5535   -3.8741    3.5661 H   0  0  0  0  0  0  0  0  0  0  0  0
    4.5770   -2.5601    3.3768 H   0  0  0  0  0  0  0  0  0  0  0  0
    2.5914   -2.3351    2.6160 C   0  0  0  0  0  0  0  0  0  0  0  0
    1.9331   -2.3810    3.4030 H   0  0  0  0  0  0  0  0  0  0  0  0
    2.8707   -1.3486    2.5543 H   0  0  0  0  0  0  0  0  0  0  0  0
    1.7532   -2.6323    1.3273 C   0  0  0  0  0  0  0  0  0  0  0  0
    1.1005   -1.8461    1.2207 H   0  0  0  0  0  0  0  0  0  0  0  0
    2.4045   -2.5520    0.5367 H   0  0  0  0  0  0  0  0  0  0  0  0
    1.1997   -3.5670    1.2373 H   0  0  0  0  0  0  0  0  0  0  0  0
  1  5  1  0
  5  6  1  0
  5  7  2  0
  1  2  1  0
  1  3  1  0
  1  4  1  0
  8 12  1  0
 12 15  1  0
  8  9  1  0
  8 10  1  0
  8 11  1  0
 12 13  1  0
 12 14  1  0
 15 16  1  0
 15 17  1  0
 15 18  1  0
M  CHG  1   6  -1
M  END
>  <PDB_ID>  (103) 
pdb1c3x

>  <RESIDUE_NAME>  (103) 
GLU   ARG

>  <FRAG_NAME>  (103) 
ACET   PRPA

>  <FRAG_ATOM_NUM>  (103) 
fragi: 7  fragj: 11

>  <atom.prop.CHAIN_ID>  (103) 
A A A A A A A Z Z Z Z Z Z Z Z Z Z Z

>  <atom.prop.IS_HEAVY_ATOM>  (103) 
1 0 0 0 1 1 1 1 0 0 0 1 0 0 1 0 0 0

>  <DIFUSE_FUNC_ATOM>  (103) 
atom 6   atom 7   

>  <FINAL_SINGLE_POINT_ENERGY>  (103) 
0

>  <NONCOV_INTER_ENERGY_QM>  (103) 
0

>  <FF_Energy>  (103) 
45.26

>  <QM_Energy>  (103) 
6.61

>  <source>  (103) 
ACET_PRPA_01

>  <Index>  (103) 
8795

$$$$
ACET-pdb1c9k-A-ASP-75:PRPA-pdb1c9k-A-GLN-25
     RDKit          3D

 18 16  0  0  0  0  0  0  0  0999 V2000
    0.2205    1.4871    0.0002 C   0  0  0  0  0  0  0  0  0  0  0  0
   -0.6395    1.9466    0.2297 H   0  0  0  0  0  0  0  0  0  0  0  0
    0.5163    1.7760   -0.9114 H   0  0  0  0  0  0  0  0  0  0  0  0
    0.9720    1.8342    0.7093 H   0  0  0  0  0  0  0  0  0  0  0  0
    0.0000    0.0000    0.0000 C   0  0  0  0  0  0  0  0  0  0  0  0
   -1.1056   -0.4968   -0.0000 O   0  0  0  0  0  1  0  0  0  0  0  0
    1.1056   -0.7059   -0.0000 O   0  0  0  0  0  0  0  0  0  0  0  0
    3.4627   -1.4518   -2.2154 C   0  0  0  0  0  0  0  0  0  0  0  0
    3.9951   -1.9716   -2.8922 H   0  0  0  0  0  0  0  0  0  0  0  0
    3.8601   -1.6795   -1.2263 H   0  0  0  0  0  0  0  0  0  0  0  0
    3.5795   -0.3916   -2.4402 H   0  0  0  0  0  0  0  0  0  0  0  0
    2.0229   -1.9263   -2.3465 C   0  0  0  0  0  0  0  0  0  0  0  0
    1.4634   -1.4576   -1.6547 H   0  0  0  0  0  0  0  0  0  0  0  0
    1.6812   -1.6743   -3.2589 H   0  0  0  0  0  0  0  0  0  0  0  0
    1.8334   -3.4194   -2.1697 C   0  0  0  0  0  0  0  0  0  0  0  0
    2.3826   -3.8952   -2.8628 H   0  0  0  0  0  0  0  0  0  0  0  0
    2.1647   -3.6785   -1.2585 H   0  0  0  0  0  0  0  0  0  0  0  0
    0.7945   -3.7339   -2.2691 H   0  0  0  0  0  0  0  0  0  0  0  0
  1  5  1  0
  5  6  1  0
  5  7  2  0
  1  2  1  0
  1  3  1  0
  1  4  1  0
  8 12  1  0
 12 15  1  0
  8  9  1  0
  8 10  1  0
  8 11  1  0
 12 13  1  0
 12 14  1  0
 15 16  1  0
 15 17  1  0
 15 18  1  0
M  CHG  1   6  -1
M  END
>  <PDB_ID>  (104) 
pdb1c9k

>  <RESIDUE_NAME>  (104) 
ASP   GLN

>  <FRAG_NAME>  (104) 
ACET   PRPA

>  <FRAG_ATOM_NUM>  (104) 
fragi: 7  fragj: 11

>  <atom.prop.CHAIN_ID>  (104) 
A A A A A A A Z Z Z Z Z Z Z Z Z Z Z

>  <atom.prop.IS_HEAVY_ATOM>  (104) 
1 0 0 0 1 1 1 1 0 0 0 1 0 0 1 0 0 0

>  <DIFUSE_FUNC_ATOM>  (104) 
atom 6   atom 7   

>  <FINAL_SINGLE_POINT_ENERGY>  (104) 
0

>  <NONCOV_INTER_ENERGY_QM>  (104) 
0

>  <FF_Energy>  (104) 
23.12

>  <QM_Energy>  (104) 
-1.11

>  <source>  (104) 
ACET_PRPA_01

>  <Index>  (104) 
9010

$$$$
ACET-pdb2ckf-A-GLU-119:PRPA-pdb2ckf-A-LYS-129
     RDKit          3D

 18 16  0  0  0  0  0  0  0  0999 V2000
    0.0459    1.5106   -0.0340 C   0  0  0  0  0  0  0  0  0  0  0  0
    0.3072    1.7778   -0.9492 H   0  0  0  0  0  0  0  0  0  0  0  0
    0.7186    1.8002    0.6308 H   0  0  0  0  0  0  0  0  0  0  0  0
   -0.9064    1.9834    0.2060 H   0  0  0  0  0  0  0  0  0  0  0  0
    0.0000    0.0000    0.0000 C   0  0  0  0  0  0  0  0  0  0  0  0
   -1.0865   -0.6058   -0.0000 O   0  0  0  0  0  1  0  0  0  0  0  0
    1.0865   -0.5785   -0.0000 O   0  0  0  0  0  0  0  0  0  0  0  0
    2.7164   -2.3951    3.0274 C   0  0  0  0  0  0  0  0  0  0  0  0
    2.4862   -1.9758    3.8985 H   0  0  0  0  0  0  0  0  0  0  0  0
    3.2470   -1.7701    2.4681 H   0  0  0  0  0  0  0  0  0  0  0  0
    3.3288   -3.2744    3.2275 H   0  0  0  0  0  0  0  0  0  0  0  0
    1.4548   -2.7891    2.2992 C   0  0  0  0  0  0  0  0  0  0  0  0
    1.1033   -3.6341    2.6816 H   0  0  0  0  0  0  0  0  0  0  0  0
    0.7868   -2.0612    2.3763 H   0  0  0  0  0  0  0  0  0  0  0  0
    1.7372   -3.0202    0.8092 C   0  0  0  0  0  0  0  0  0  0  0  0
    2.0002   -2.1407    0.3994 H   0  0  0  0  0  0  0  0  0  0  0  0
    2.5142   -3.6546    0.7307 H   0  0  0  0  0  0  0  0  0  0  0  0
    0.8730   -3.4284    0.2852 H   0  0  0  0  0  0  0  0  0  0  0  0
  1  5  1  0
  5  6  1  0
  5  7  2  0
  1  2  1  0
  1  3  1  0
  1  4  1  0
  8 12  1  0
 12 15  1  0
  8  9  1  0
  8 10  1  0
  8 11  1  0
 12 13  1  0
 12 14  1  0
 15 16  1  0
 15 17  1  0
 15 18  1  0
M  CHG  1   6  -1
M  END
>  <PDB_ID>  (105) 
pdb2ckf

>  <RESIDUE_NAME>  (105) 
GLU   LYS

>  <FRAG_NAME>  (105) 
ACET   PRPA

>  <FRAG_ATOM_NUM>  (105) 
fragi: 7  fragj: 11

>  <atom.prop.CHAIN_ID>  (105) 
A A A A A A A Z Z Z Z Z Z Z Z Z Z Z

>  <atom.prop.IS_HEAVY_ATOM>  (105) 
1 0 0 0 1 1 1 1 0 0 0 1 0 0 1 0 0 0

>  <DIFUSE_FUNC_ATOM>  (105) 
atom 6   atom 7   

>  <FINAL_SINGLE_POINT_ENERGY>  (105) 
0

>  <NONCOV_INTER_ENERGY_QM>  (105) 
0

>  <FF_Energy>  (105) 
22.3

>  <QM_Energy>  (105) 
1.13

>  <source>  (105) 
ACET_PRPA_01

>  <Index>  (105) 
9727

$$$$
ACET-pdb1ccz-A-GLU-74:PRPA-pdb1ccz-A-LYS-87
     RDKit          3D

 18 16  0  0  0  0  0  0  0  0999 V2000
    0.0207    1.4971    0.0000 C   0  0  0  0  0  0  0  0  0  0  0  0
    0.4937    1.7924   -0.8139 H   0  0  0  0  0  0  0  0  0  0  0  0
    0.4856    1.7917    0.8187 H   0  0  0  0  0  0  0  0  0  0  0  0
   -0.9787    1.9322   -0.0060 H   0  0  0  0  0  0  0  0  0  0  0  0
    0.0000    0.0000    0.0000 C   0  0  0  0  0  0  0  0  0  0  0  0
   -1.1004   -0.5918   -0.0000 O   0  0  0  0  0  1  0  0  0  0  0  0
    1.1004   -0.5853    0.0000 O   0  0  0  0  0  0  0  0  0  0  0  0
    4.4346    0.2402   -2.6461 C   0  0  0  0  0  0  0  0  0  0  0  0
    3.5958    0.2162   -3.2010 H   0  0  0  0  0  0  0  0  0  0  0  0
    5.2357   -0.2506   -3.1989 H   0  0  0  0  0  0  0  0  0  0  0  0
    4.6972    1.2784   -2.4429 H   0  0  0  0  0  0  0  0  0  0  0  0
    4.1790   -0.4848   -1.3272 C   0  0  0  0  0  0  0  0  0  0  0  0
    5.0511   -0.8361   -0.9886 H   0  0  0  0  0  0  0  0  0  0  0  0
    3.8082    0.1746   -0.6743 H   0  0  0  0  0  0  0  0  0  0  0  0
    3.2061   -1.6482   -1.4358 C   0  0  0  0  0  0  0  0  0  0  0  0
    2.3364   -1.3903   -1.0154 H   0  0  0  0  0  0  0  0  0  0  0  0
    3.0601   -1.8672   -2.3997 H   0  0  0  0  0  0  0  0  0  0  0  0
    3.5857   -2.5363   -0.9306 H   0  0  0  0  0  0  0  0  0  0  0  0
  1  5  1  0
  5  6  1  0
  5  7  2  0
  1  2  1  0
  1  3  1  0
  1  4  1  0
  8 12  1  0
 12 15  1  0
  8  9  1  0
  8 10  1  0
  8 11  1  0
 12 13  1  0
 12 14  1  0
 15 16  1  0
 15 17  1  0
 15 18  1  0
M  CHG  1   6  -1
M  END
>  <PDB_ID>  (106) 
pdb1ccz

>  <RESIDUE_NAME>  (106) 
GLU   LYS

>  <FRAG_NAME>  (106) 
ACET   PRPA

>  <FRAG_ATOM_NUM>  (106) 
fragi: 7  fragj: 11

>  <atom.prop.CHAIN_ID>  (106) 
A A A A A A A Z Z Z Z Z Z Z Z Z Z Z

>  <atom.prop.IS_HEAVY_ATOM>  (106) 
1 0 0 0 1 1 1 1 0 0 0 1 0 0 1 0 0 0

>  <DIFUSE_FUNC_ATOM>  (106) 
atom 6   atom 7   

>  <FINAL_SINGLE_POINT_ENERGY>  (106) 
0

>  <NONCOV_INTER_ENERGY_QM>  (106) 
0

>  <FF_Energy>  (106) 
29.3

>  <QM_Energy>  (106) 
-0.88

>  <source>  (106) 
ACET_PRPA_01

>  <Index>  (106) 
9736

$$$$
ACET-pdb1ccz-A-GLU-74:PRPA-pdb1ccz-A-LYS-87
     RDKit          3D

 18 16  0  0  0  0  0  0  0  0999 V2000
    0.0207    1.4971    0.0000 C   0  0  0  0  0  0  0  0  0  0  0  0
    0.4937    1.7924   -0.8139 H   0  0  0  0  0  0  0  0  0  0  0  0
    0.4856    1.7917    0.8187 H   0  0  0  0  0  0  0  0  0  0  0  0
   -0.9787    1.9322   -0.0060 H   0  0  0  0  0  0  0  0  0  0  0  0
    0.0000    0.0000    0.0000 C   0  0  0  0  0  0  0  0  0  0  0  0
   -1.1004   -0.5918   -0.0000 O   0  0  0  0  0  1  0  0  0  0  0  0
    1.1004   -0.5853    0.0000 O   0  0  0  0  0  0  0  0  0  0  0  0
    4.1790   -0.4848   -1.3272 C   0  0  0  0  0  0  0  0  0  0  0  0
    5.0511   -0.8361   -0.9886 H   0  0  0  0  0  0  0  0  0  0  0  0
    3.8082    0.1746   -0.6743 H   0  0  0  0  0  0  0  0  0  0  0  0
    4.3615    0.0329   -2.2689 H   0  0  0  0  0  0  0  0  0  0  0  0
    3.2061   -1.6482   -1.4358 C   0  0  0  0  0  0  0  0  0  0  0  0
    2.3364   -1.3903   -1.0154 H   0  0  0  0  0  0  0  0  0  0  0  0
    3.0601   -1.8672   -2.3997 H   0  0  0  0  0  0  0  0  0  0  0  0
    3.7394   -2.8958   -0.7261 C   0  0  0  0  0  0  0  0  0  0  0  0
    3.3233   -3.7010   -1.1348 H   0  0  0  0  0  0  0  0  0  0  0  0
    4.7276   -2.9260   -0.8278 H   0  0  0  0  0  0  0  0  0  0  0  0
    3.5048   -2.8928    0.3383 H   0  0  0  0  0  0  0  0  0  0  0  0
  1  5  1  0
  5  6  1  0
  5  7  2  0
  1  2  1  0
  1  3  1  0
  1  4  1  0
  8 12  1  0
 12 15  1  0
  8  9  1  0
  8 10  1  0
  8 11  1  0
 12 13  1  0
 12 14  1  0
 15 16  1  0
 15 17  1  0
 15 18  1  0
M  CHG  1   6  -1
M  END
>  <PDB_ID>  (107) 
pdb1ccz

>  <RESIDUE_NAME>  (107) 
GLU   LYS

>  <FRAG_NAME>  (107) 
ACET   PRPA

>  <FRAG_ATOM_NUM>  (107) 
fragi: 7  fragj: 11

>  <atom.prop.CHAIN_ID>  (107) 
A A A A A A A Z Z Z Z Z Z Z Z Z Z Z

>  <atom.prop.IS_HEAVY_ATOM>  (107) 
1 0 0 0 1 1 1 1 0 0 0 1 0 0 1 0 0 0

>  <DIFUSE_FUNC_ATOM>  (107) 
atom 6   atom 7   

>  <FINAL_SINGLE_POINT_ENERGY>  (107) 
0

>  <NONCOV_INTER_ENERGY_QM>  (107) 
0

>  <FF_Energy>  (107) 
34.17

>  <QM_Energy>  (107) 
-1.1

>  <source>  (107) 
ACET_PRPA_01

>  <Index>  (107) 
9741

$$$$
ACET-pdb2cvw-A-ASP-140:PRPA-pdb2cvw-A-GLN-168
     RDKit          3D

 18 16  0  0  0  0  0  0  0  0999 V2000
   -0.0321    1.4973   -0.0055 C   0  0  0  0  0  0  0  0  0  0  0  0
   -0.4963    1.8170    0.8116 H   0  0  0  0  0  0  0  0  0  0  0  0
   -0.5020    1.8116   -0.8211 H   0  0  0  0  0  0  0  0  0  0  0  0
    0.9708    1.9244   -0.0102 H   0  0  0  0  0  0  0  0  0  0  0  0
    0.0000    0.0000    0.0000 C   0  0  0  0  0  0  0  0  0  0  0  0
   -1.0703   -0.6394    0.0000 O   0  0  0  0  0  1  0  0  0  0  0  0
    1.0703   -0.6272    0.0000 O   0  0  0  0  0  0  0  0  0  0  0  0
    2.1327   -4.2643    0.3705 C   0  0  0  0  0  0  0  0  0  0  0  0
    3.1185   -4.0395    0.3097 H   0  0  0  0  0  0  0  0  0  0  0  0
    1.6358   -3.7692   -0.4638 H   0  0  0  0  0  0  0  0  0  0  0  0
    2.0272   -5.3486    0.3361 H   0  0  0  0  0  0  0  0  0  0  0  0
    1.6461   -3.7568    1.7296 C   0  0  0  0  0  0  0  0  0  0  0  0
    0.6409   -3.8647    1.7702 H   0  0  0  0  0  0  0  0  0  0  0  0
    2.0457   -4.3436    2.4522 H   0  0  0  0  0  0  0  0  0  0  0  0
    1.9761   -2.3142    2.0631 C   0  0  0  0  0  0  0  0  0  0  0  0
    1.3894   -1.7158    1.5076 H   0  0  0  0  0  0  0  0  0  0  0  0
    1.7698   -2.1553    3.0346 H   0  0  0  0  0  0  0  0  0  0  0  0
    3.0175   -2.0501    1.8793 H   0  0  0  0  0  0  0  0  0  0  0  0
  1  5  1  0
  5  6  1  0
  5  7  2  0
  1  2  1  0
  1  3  1  0
  1  4  1  0
  8 12  1  0
 12 15  1  0
  8  9  1  0
  8 10  1  0
  8 11  1  0
 12 13  1  0
 12 14  1  0
 15 16  1  0
 15 17  1  0
 15 18  1  0
M  CHG  1   6  -1
M  END
>  <PDB_ID>  (108) 
pdb2cvw

>  <RESIDUE_NAME>  (108) 
ASP   GLN

>  <FRAG_NAME>  (108) 
ACET   PRPA

>  <FRAG_ATOM_NUM>  (108) 
fragi: 7  fragj: 11

>  <atom.prop.CHAIN_ID>  (108) 
A A A A A A A Z Z Z Z Z Z Z Z Z Z Z

>  <atom.prop.IS_HEAVY_ATOM>  (108) 
1 0 0 0 1 1 1 1 0 0 0 1 0 0 1 0 0 0

>  <DIFUSE_FUNC_ATOM>  (108) 
atom 6   atom 7   

>  <FINAL_SINGLE_POINT_ENERGY>  (108) 
0

>  <NONCOV_INTER_ENERGY_QM>  (108) 
0

>  <FF_Energy>  (108) 
15.89

>  <QM_Energy>  (108) 
-1.26

>  <source>  (108) 
ACET_PRPA_01

>  <Index>  (108) 
9787

$$$$
ACET-pdb2cv9-A-ASP-69:PRPA-pdb2cv9-A-LYS-43
     RDKit          3D

 18 16  0  0  0  0  0  0  0  0999 V2000
   -0.0087    1.5134    0.0240 C   0  0  0  0  0  0  0  0  0  0  0  0
   -0.6384    1.8392   -0.6694 H   0  0  0  0  0  0  0  0  0  0  0  0
    0.9105    1.8397   -0.1537 H   0  0  0  0  0  0  0  0  0  0  0  0
   -0.3308    1.9036    0.9894 H   0  0  0  0  0  0  0  0  0  0  0  0
    0.0000    0.0000    0.0000 C   0  0  0  0  0  0  0  0  0  0  0  0
   -1.0984   -0.5978    0.0000 O   0  0  0  0  0  1  0  0  0  0  0  0
    1.0984   -0.5946    0.0000 O   0  0  0  0  0  0  0  0  0  0  0  0
   -0.2265   -0.9076   -3.7836 C   0  0  0  0  0  0  0  0  0  0  0  0
    0.0725   -1.1417   -4.7057 H   0  0  0  0  0  0  0  0  0  0  0  0
   -0.8440   -1.6081   -3.4370 H   0  0  0  0  0  0  0  0  0  0  0  0
    0.6443   -0.8415   -3.1313 H   0  0  0  0  0  0  0  0  0  0  0  0
   -0.9823    0.4286   -3.8384 C   0  0  0  0  0  0  0  0  0  0  0  0
   -0.3295    1.1546   -4.0242 H   0  0  0  0  0  0  0  0  0  0  0  0
   -1.6626    0.3798   -4.5611 H   0  0  0  0  0  0  0  0  0  0  0  0
   -1.6929    0.7365   -2.5204 C   0  0  0  0  0  0  0  0  0  0  0  0
   -2.5218    0.1558   -2.4579 H   0  0  0  0  0  0  0  0  0  0  0  0
   -1.0820    0.4724   -1.7554 H   0  0  0  0  0  0  0  0  0  0  0  0
   -1.9830    1.7797   -2.3959 H   0  0  0  0  0  0  0  0  0  0  0  0
  1  5  1  0
  5  6  1  0
  5  7  2  0
  1  2  1  0
  1  3  1  0
  1  4  1  0
  8 12  1  0
 12 15  1  0
  8  9  1  0
  8 10  1  0
  8 11  1  0
 12 13  1  0
 12 14  1  0
 15 16  1  0
 15 17  1  0
 15 18  1  0
M  CHG  1   6  -1
M  END
>  <PDB_ID>  (109) 
pdb2cv9

>  <RESIDUE_NAME>  (109) 
ASP   LYS

>  <FRAG_NAME>  (109) 
ACET   PRPA

>  <FRAG_ATOM_NUM>  (109) 
fragi: 7  fragj: 11

>  <atom.prop.CHAIN_ID>  (109) 
A A A A A A A Z Z Z Z Z Z Z Z Z Z Z

>  <atom.prop.IS_HEAVY_ATOM>  (109) 
1 0 0 0 1 1 1 1 0 0 0 1 0 0 1 0 0 0

>  <DIFUSE_FUNC_ATOM>  (109) 
atom 6   atom 7   

>  <FINAL_SINGLE_POINT_ENERGY>  (109) 
0

>  <NONCOV_INTER_ENERGY_QM>  (109) 
0

>  <FF_Energy>  (109) 
22.17

>  <QM_Energy>  (109) 
3.92

>  <source>  (109) 
ACET_PRPA_01

>  <Index>  (109) 
10031

$$$$
ACET-pdb1bu6-O-GLU-84:PRPA-pdb1bu6-O-ARG-188
     RDKit          3D

 18 16  0  0  0  0  0  0  0  0999 V2000
   -0.2261    1.4495   -0.1346 C   0  0  0  0  0  0  0  0  0  0  0  0
   -0.3119    1.6740   -1.0911 H   0  0  0  0  0  0  0  0  0  0  0  0
    0.5247    1.9323    0.2864 H   0  0  0  0  0  0  0  0  0  0  0  0
   -1.1395    1.7862    0.3557 H   0  0  0  0  0  0  0  0  0  0  0  0
    0.0000    0.0000    0.0000 C   0  0  0  0  0  0  0  0  0  0  0  0
   -1.1191   -0.6965   -0.0000 O   0  0  0  0  0  1  0  0  0  0  0  0
    1.1191   -0.4665    0.0000 O   0  0  0  0  0  0  0  0  0  0  0  0
    3.4033    1.8086    1.7171 C   0  0  0  0  0  0  0  0  0  0  0  0
    3.1684    2.0794    2.6365 H   0  0  0  0  0  0  0  0  0  0  0  0
    2.6042    1.7337    1.1434 H   0  0  0  0  0  0  0  0  0  0  0  0
    4.0436    2.5837    1.2959 H   0  0  0  0  0  0  0  0  0  0  0  0
    4.0738    0.4020    1.7886 C   0  0  0  0  0  0  0  0  0  0  0  0
    5.0237    0.5092    1.9432 H   0  0  0  0  0  0  0  0  0  0  0  0
    3.6115   -0.1384    2.4463 H   0  0  0  0  0  0  0  0  0  0  0  0
    3.8749   -0.2497    0.3962 C   0  0  0  0  0  0  0  0  0  0  0  0
    2.9328   -0.6522    0.3910 H   0  0  0  0  0  0  0  0  0  0  0  0
    3.8539    0.5150   -0.2851 H   0  0  0  0  0  0  0  0  0  0  0  0
    4.5840   -1.0055    0.0587 H   0  0  0  0  0  0  0  0  0  0  0  0
  1  5  1  0
  5  6  1  0
  5  7  2  0
  1  2  1  0
  1  3  1  0
  1  4  1  0
  8 12  1  0
 12 15  1  0
  8  9  1  0
  8 10  1  0
  8 11  1  0
 12 13  1  0
 12 14  1  0
 15 16  1  0
 15 17  1  0
 15 18  1  0
M  CHG  1   6  -1
M  END
>  <PDB_ID>  (110) 
pdb1bu6

>  <RESIDUE_NAME>  (110) 
GLU   ARG

>  <FRAG_NAME>  (110) 
ACET   PRPA

>  <FRAG_ATOM_NUM>  (110) 
fragi: 7  fragj: 11

>  <atom.prop.CHAIN_ID>  (110) 
A A A A A A A Z Z Z Z Z Z Z Z Z Z Z

>  <atom.prop.IS_HEAVY_ATOM>  (110) 
1 0 0 0 1 1 1 1 0 0 0 1 0 0 1 0 0 0

>  <DIFUSE_FUNC_ATOM>  (110) 
atom 6   atom 7   

>  <FINAL_SINGLE_POINT_ENERGY>  (110) 
0

>  <NONCOV_INTER_ENERGY_QM>  (110) 
0

>  <FF_Energy>  (110) 
32.77

>  <QM_Energy>  (110) 
-0.36

>  <source>  (110) 
ACET_PRPA_01

>  <Index>  (110) 
10065

$$$$
ACET-pdb1cd2-A-GLU-50:PRPA-pdb1cd2-A-GLN-116
     RDKit          3D

 18 16  0  0  0  0  0  0  0  0999 V2000
    0.0953    1.5070    0.0072 C   0  0  0  0  0  0  0  0  0  0  0  0
    0.3453    1.7958   -0.9102 H   0  0  0  0  0  0  0  0  0  0  0  0
    0.8066    1.7582    0.6548 H   0  0  0  0  0  0  0  0  0  0  0  0
   -0.8193    2.0294    0.2878 H   0  0  0  0  0  0  0  0  0  0  0  0
    0.0000    0.0000    0.0000 C   0  0  0  0  0  0  0  0  0  0  0  0
   -1.0780   -0.5961    0.0000 O   0  0  0  0  0  1  0  0  0  0  0  0
    1.0780   -0.6518    0.0000 O   0  0  0  0  0  0  0  0  0  0  0  0
    2.1584    5.6161   -0.3266 C   0  0  0  0  0  0  0  0  0  0  0  0
    2.7024    6.3190    0.1295 H   0  0  0  0  0  0  0  0  0  0  0  0
    1.1087    5.8055   -0.1023 H   0  0  0  0  0  0  0  0  0  0  0  0
    2.3249    5.7111   -1.3997 H   0  0  0  0  0  0  0  0  0  0  0  0
    2.5052    4.1958    0.1223 C   0  0  0  0  0  0  0  0  0  0  0  0
    2.3423    3.5679   -0.6320 H   0  0  0  0  0  0  0  0  0  0  0  0
    3.4621    4.1663    0.3964 H   0  0  0  0  0  0  0  0  0  0  0  0
    1.6600    3.7280    1.3149 C   0  0  0  0  0  0  0  0  0  0  0  0
    0.7331    4.0769    1.2034 H   0  0  0  0  0  0  0  0  0  0  0  0
    1.6510    2.7313    1.3266 H   0  0  0  0  0  0  0  0  0  0  0  0
    2.0511    4.0829    2.2684 H   0  0  0  0  0  0  0  0  0  0  0  0
  1  5  1  0
  5  6  1  0
  5  7  2  0
  1  2  1  0
  1  3  1  0
  1  4  1  0
  8 12  1  0
 12 15  1  0
  8  9  1  0
  8 10  1  0
  8 11  1  0
 12 13  1  0
 12 14  1  0
 15 16  1  0
 15 17  1  0
 15 18  1  0
M  CHG  1   6  -1
M  END
>  <PDB_ID>  (111) 
pdb1cd2

>  <RESIDUE_NAME>  (111) 
GLU   GLN

>  <FRAG_NAME>  (111) 
ACET   PRPA

>  <FRAG_ATOM_NUM>  (111) 
fragi: 7  fragj: 11

>  <atom.prop.CHAIN_ID>  (111) 
A A A A A A A Z Z Z Z Z Z Z Z Z Z Z

>  <atom.prop.IS_HEAVY_ATOM>  (111) 
1 0 0 0 1 1 1 1 0 0 0 1 0 0 1 0 0 0

>  <DIFUSE_FUNC_ATOM>  (111) 
atom 6   atom 7   

>  <FINAL_SINGLE_POINT_ENERGY>  (111) 
0

>  <NONCOV_INTER_ENERGY_QM>  (111) 
0

>  <FF_Energy>  (111) 
43.59

>  <QM_Energy>  (111) 
5.99

>  <source>  (111) 
ACET_PRPA_01

>  <Index>  (111) 
10661

$$$$
ACET-pdb2cuk-A-GLU-25:PRPA-pdb2cuk-A-ARG-40
     RDKit          3D

 18 16  0  0  0  0  0  0  0  0999 V2000
    0.0147    1.5145   -0.0083 C   0  0  0  0  0  0  0  0  0  0  0  0
    0.9201    1.8043   -0.1953 H   0  0  0  0  0  0  0  0  0  0  0  0
   -0.3452    1.8219    0.8366 H   0  0  0  0  0  0  0  0  0  0  0  0
   -0.6312    1.8783   -0.8075 H   0  0  0  0  0  0  0  0  0  0  0  0
    0.0000    0.0000    0.0000 C   0  0  0  0  0  0  0  0  0  0  0  0
   -1.0780   -0.5753   -0.0000 O   0  0  0  0  0  1  0  0  0  0  0  0
    1.0780   -0.5933    0.0000 O   0  0  0  0  0  0  0  0  0  0  0  0
    3.0087   -3.2143   -1.7105 C   0  0  0  0  0  0  0  0  0  0  0  0
    3.8138   -3.3945   -2.2518 H   0  0  0  0  0  0  0  0  0  0  0  0
    2.5012   -2.4431   -2.0593 H   0  0  0  0  0  0  0  0  0  0  0  0
    2.3667   -4.0947   -1.7391 H   0  0  0  0  0  0  0  0  0  0  0  0
    3.4592   -2.8795   -0.2906 C   0  0  0  0  0  0  0  0  0  0  0  0
    2.7698   -3.1930    0.3602 H   0  0  0  0  0  0  0  0  0  0  0  0
    4.3296   -3.3313   -0.1022 H   0  0  0  0  0  0  0  0  0  0  0  0
    3.6576   -1.3727   -0.0775 C   0  0  0  0  0  0  0  0  0  0  0  0
    3.9491   -0.9797   -0.9350 H   0  0  0  0  0  0  0  0  0  0  0  0
    2.7959   -0.9922    0.2209 H   0  0  0  0  0  0  0  0  0  0  0  0
    4.4181   -1.1943    0.6827 H   0  0  0  0  0  0  0  0  0  0  0  0
  1  5  1  0
  5  6  1  0
  5  7  2  0
  1  2  1  0
  1  3  1  0
  1  4  1  0
  8 12  1  0
 12 15  1  0
  8  9  1  0
  8 10  1  0
  8 11  1  0
 12 13  1  0
 12 14  1  0
 15 16  1  0
 15 17  1  0
 15 18  1  0
M  CHG  1   6  -1
M  END
>  <PDB_ID>  (112) 
pdb2cuk

>  <RESIDUE_NAME>  (112) 
GLU   ARG

>  <FRAG_NAME>  (112) 
ACET   PRPA

>  <FRAG_ATOM_NUM>  (112) 
fragi: 7  fragj: 11

>  <atom.prop.CHAIN_ID>  (112) 
A A A A A A A Z Z Z Z Z Z Z Z Z Z Z

>  <atom.prop.IS_HEAVY_ATOM>  (112) 
1 0 0 0 1 1 1 1 0 0 0 1 0 0 1 0 0 0

>  <DIFUSE_FUNC_ATOM>  (112) 
atom 6   atom 7   

>  <FINAL_SINGLE_POINT_ENERGY>  (112) 
0

>  <NONCOV_INTER_ENERGY_QM>  (112) 
0

>  <FF_Energy>  (112) 
33.81

>  <QM_Energy>  (112) 
0.17

>  <source>  (112) 
ACET_PRPA_01

>  <Index>  (112) 
10754

$$$$
ACET-pdb2cw5-A-GLU-61:PRPA-pdb2cw5-A-ARG-85
     RDKit          3D

 18 16  0  0  0  0  0  0  0  0999 V2000
   -0.0047    1.5124    0.0112 C   0  0  0  0  0  0  0  0  0  0  0  0
   -0.6484    1.8126   -0.6654 H   0  0  0  0  0  0  0  0  0  0  0  0
    0.9101    1.8137   -0.1790 H   0  0  0  0  0  0  0  0  0  0  0  0
   -0.3078    1.9154    0.9775 H   0  0  0  0  0  0  0  0  0  0  0  0
    0.0000    0.0000    0.0000 C   0  0  0  0  0  0  0  0  0  0  0  0
   -1.0981   -0.5954   -0.0000 O   0  0  0  0  0  1  0  0  0  0  0  0
    1.0981   -0.5956   -0.0000 O   0  0  0  0  0  0  0  0  0  0  0  0
    3.9087    1.6242   -2.8097 C   0  0  0  0  0  0  0  0  0  0  0  0
    3.7574    1.4496   -3.7786 H   0  0  0  0  0  0  0  0  0  0  0  0
    4.6968    1.1071   -2.4875 H   0  0  0  0  0  0  0  0  0  0  0  0
    4.1236    2.6855   -2.6851 H   0  0  0  0  0  0  0  0  0  0  0  0
    2.6880    1.1488   -2.0465 C   0  0  0  0  0  0  0  0  0  0  0  0
    2.8689    1.1838   -1.0700 H   0  0  0  0  0  0  0  0  0  0  0  0
    1.9067    1.7188   -2.2757 H   0  0  0  0  0  0  0  0  0  0  0  0
    2.3460   -0.2894   -2.4135 C   0  0  0  0  0  0  0  0  0  0  0  0
    3.1856   -0.8242   -2.3788 H   0  0  0  0  0  0  0  0  0  0  0  0
    1.6944   -0.6307   -1.7415 H   0  0  0  0  0  0  0  0  0  0  0  0
    1.9112   -0.3637   -3.4102 H   0  0  0  0  0  0  0  0  0  0  0  0
  1  5  1  0
  5  6  1  0
  5  7  2  0
  1  2  1  0
  1  3  1  0
  1  4  1  0
  8 12  1  0
 12 15  1  0
  8  9  1  0
  8 10  1  0
  8 11  1  0
 12 13  1  0
 12 14  1  0
 15 16  1  0
 15 17  1  0
 15 18  1  0
M  CHG  1   6  -1
M  END
>  <PDB_ID>  (113) 
pdb2cw5

>  <RESIDUE_NAME>  (113) 
GLU   ARG

>  <FRAG_NAME>  (113) 
ACET   PRPA

>  <FRAG_ATOM_NUM>  (113) 
fragi: 7  fragj: 11

>  <atom.prop.CHAIN_ID>  (113) 
A A A A A A A Z Z Z Z Z Z Z Z Z Z Z

>  <atom.prop.IS_HEAVY_ATOM>  (113) 
1 0 0 0 1 1 1 1 0 0 0 1 0 0 1 0 0 0

>  <DIFUSE_FUNC_ATOM>  (113) 
atom 6   atom 7   

>  <FINAL_SINGLE_POINT_ENERGY>  (113) 
0

>  <NONCOV_INTER_ENERGY_QM>  (113) 
0

>  <FF_Energy>  (113) 
23.0

>  <QM_Energy>  (113) 
0.5

>  <source>  (113) 
ACET_PRPA_01

>  <Index>  (113) 
10875

$$$$
ACET-pdb1bu6-O-ASP-398:PRPA-pdb1bu6-O-GLU-283
     RDKit          3D

 18 16  0  0  0  0  0  0  0  0999 V2000
   -0.2092    1.4372    0.2118 C   0  0  0  0  0  0  0  0  0  0  0  0
    0.3806    1.9592   -0.4320 H   0  0  0  0  0  0  0  0  0  0  0  0
    0.0902    1.6840    1.1514 H   0  0  0  0  0  0  0  0  0  0  0  0
   -1.2296    1.7998    0.0875 H   0  0  0  0  0  0  0  0  0  0  0  0
    0.0000    0.0000    0.0000 C   0  0  0  0  0  0  0  0  0  0  0  0
   -1.0890   -0.6602   -0.0000 O   0  0  0  0  0  1  0  0  0  0  0  0
    1.0890   -0.5034   -0.0000 O   0  0  0  0  0  0  0  0  0  0  0  0
   -1.0960   -3.9124    0.3879 C   0  0  0  0  0  0  0  0  0  0  0  0
   -1.1571   -4.8062    0.8629 H   0  0  0  0  0  0  0  0  0  0  0  0
   -0.4320   -3.2447    0.9369 H   0  0  0  0  0  0  0  0  0  0  0  0
   -0.7297   -4.0537   -0.6290 H   0  0  0  0  0  0  0  0  0  0  0  0
   -2.3808   -3.1363    0.1374 C   0  0  0  0  0  0  0  0  0  0  0  0
   -2.1421   -2.2659   -0.2540 H   0  0  0  0  0  0  0  0  0  0  0  0
   -2.9505   -3.6696   -0.4605 H   0  0  0  0  0  0  0  0  0  0  0  0
   -3.1986   -2.8524    1.4061 C   0  0  0  0  0  0  0  0  0  0  0  0
   -2.6330   -3.0412    2.1787 H   0  0  0  0  0  0  0  0  0  0  0  0
   -3.5074   -1.9270    1.3680 H   0  0  0  0  0  0  0  0  0  0  0  0
   -4.0777   -3.4934    1.4727 H   0  0  0  0  0  0  0  0  0  0  0  0
  1  5  1  0
  5  6  1  0
  5  7  2  0
  1  2  1  0
  1  3  1  0
  1  4  1  0
  8 12  1  0
 12 15  1  0
  8  9  1  0
  8 10  1  0
  8 11  1  0
 12 13  1  0
 12 14  1  0
 15 16  1  0
 15 17  1  0
 15 18  1  0
M  CHG  1   6  -1
M  END
>  <PDB_ID>  (114) 
pdb1bu6

>  <RESIDUE_NAME>  (114) 
ASP   GLU

>  <FRAG_NAME>  (114) 
ACET   PRPA

>  <FRAG_ATOM_NUM>  (114) 
fragi: 7  fragj: 11

>  <atom.prop.CHAIN_ID>  (114) 
A A A A A A A Z Z Z Z Z Z Z Z Z Z Z

>  <atom.prop.IS_HEAVY_ATOM>  (114) 
1 0 0 0 1 1 1 1 0 0 0 1 0 0 1 0 0 0

>  <DIFUSE_FUNC_ATOM>  (114) 
atom 6   atom 7   

>  <FINAL_SINGLE_POINT_ENERGY>  (114) 
0

>  <NONCOV_INTER_ENERGY_QM>  (114) 
0

>  <FF_Energy>  (114) 
13.16

>  <QM_Energy>  (114) 
-3.79

>  <source>  (114) 
ACET_PRPA_01

>  <Index>  (114) 
10927

$$$$
ACET-pdb1brl-C-GLU-137:PRPA-pdb1brl-C-LEU-134
     RDKit          3D

 18 16  0  0  0  0  0  0  0  0999 V2000
    0.2214    1.4781    0.0782 C   0  0  0  0  0  0  0  0  0  0  0  0
   -0.0360    1.8694   -0.7648 H   0  0  0  0  0  0  0  0  0  0  0  0
    1.1337    1.6341    0.3502 H   0  0  0  0  0  0  0  0  0  0  0  0
   -0.4410    1.8654    0.8523 H   0  0  0  0  0  0  0  0  0  0  0  0
    0.0000    0.0000    0.0000 C   0  0  0  0  0  0  0  0  0  0  0  0
   -1.1300   -0.5002    0.0000 O   0  0  0  0  0  1  0  0  0  0  0  0
    1.1300   -0.6679   -0.0000 O   0  0  0  0  0  0  0  0  0  0  0  0
   -3.9082   -0.7981    0.0947 C   0  0  0  0  0  0  0  0  0  0  0  0
   -2.9184   -0.8346    0.2571 H   0  0  0  0  0  0  0  0  0  0  0  0
   -4.4206   -0.8496    1.0553 H   0  0  0  0  0  0  0  0  0  0  0  0
   -4.1541    0.1463   -0.3908 H   0  0  0  0  0  0  0  0  0  0  0  0
   -4.3781   -1.9468   -0.7958 C   0  0  0  0  0  0  0  0  0  0  0  0
   -5.3216   -1.8041   -1.0049 H   0  0  0  0  0  0  0  0  0  0  0  0
   -3.8036   -1.9765   -1.5834 H   0  0  0  0  0  0  0  0  0  0  0  0
   -4.2567   -3.2862   -0.0776 C   0  0  0  0  0  0  0  0  0  0  0  0
   -4.8544   -3.2830    0.7265 H   0  0  0  0  0  0  0  0  0  0  0  0
   -4.5402   -4.1122   -0.7298 H   0  0  0  0  0  0  0  0  0  0  0  0
   -3.2158   -3.4178    0.2179 H   0  0  0  0  0  0  0  0  0  0  0  0
  1  5  1  0
  5  6  1  0
  5  7  2  0
  1  2  1  0
  1  3  1  0
  1  4  1  0
  8 12  1  0
 12 15  1  0
  8  9  1  0
  8 10  1  0
  8 11  1  0
 12 13  1  0
 12 14  1  0
 15 16  1  0
 15 17  1  0
 15 18  1  0
M  CHG  1   6  -1
M  END
>  <PDB_ID>  (115) 
pdb1brl

>  <RESIDUE_NAME>  (115) 
GLU   LEU

>  <FRAG_NAME>  (115) 
ACET   PRPA

>  <FRAG_ATOM_NUM>  (115) 
fragi: 7  fragj: 11

>  <atom.prop.CHAIN_ID>  (115) 
A A A A A A A Z Z Z Z Z Z Z Z Z Z Z

>  <atom.prop.IS_HEAVY_ATOM>  (115) 
1 0 0 0 1 1 1 1 0 0 0 1 0 0 1 0 0 0

>  <DIFUSE_FUNC_ATOM>  (115) 
atom 6   atom 7   

>  <FINAL_SINGLE_POINT_ENERGY>  (115) 
0

>  <NONCOV_INTER_ENERGY_QM>  (115) 
0

>  <FF_Energy>  (115) 
21.3

>  <QM_Energy>  (115) 
-0.46

>  <source>  (115) 
ACET_PRPA_01

>  <Index>  (115) 
10937

$$$$
ACET-pdb2cx7-B-GLU-77:PRPA-pdb2cx7-B-ARG-38
     RDKit          3D

 18 16  0  0  0  0  0  0  0  0999 V2000
    0.0062    1.5268    0.0032 C   0  0  0  0  0  0  0  0  0  0  0  0
   -0.3265    1.8175   -0.8687 H   0  0  0  0  0  0  0  0  0  0  0  0
    0.9249    1.8107    0.1798 H   0  0  0  0  0  0  0  0  0  0  0  0
   -0.6454    1.9222    0.7825 H   0  0  0  0  0  0  0  0  0  0  0  0
    0.0000    0.0000    0.0000 C   0  0  0  0  0  0  0  0  0  0  0  0
   -1.0958   -0.6076    0.0000 O   0  0  0  0  0  1  0  0  0  0  0  0
    1.0958   -0.5933   -0.0000 O   0  0  0  0  0  0  0  0  0  0  0  0
    1.1484   -1.7180    4.5737 C   0  0  0  0  0  0  0  0  0  0  0  0
    1.7895   -1.2075    5.1201 H   0  0  0  0  0  0  0  0  0  0  0  0
    1.4238   -2.6579    4.4662 H   0  0  0  0  0  0  0  0  0  0  0  0
    0.1809   -1.7003    5.0753 H   0  0  0  0  0  0  0  0  0  0  0  0
    1.0768   -1.0793    3.1978 C   0  0  0  0  0  0  0  0  0  0  0  0
    0.2702   -1.4221    2.7151 H   0  0  0  0  0  0  0  0  0  0  0  0
    1.0052   -0.0856    3.2972 H   0  0  0  0  0  0  0  0  0  0  0  0
    2.2971   -1.3842    2.3598 C   0  0  0  0  0  0  0  0  0  0  0  0
    2.4696   -2.3640    2.4081 H   0  0  0  0  0  0  0  0  0  0  0  0
    2.1012   -1.1177    1.4194 H   0  0  0  0  0  0  0  0  0  0  0  0
    3.1715   -0.8414    2.7188 H   0  0  0  0  0  0  0  0  0  0  0  0
  1  5  1  0
  5  6  1  0
  5  7  2  0
  1  2  1  0
  1  3  1  0
  1  4  1  0
  8 12  1  0
 12 15  1  0
  8  9  1  0
  8 10  1  0
  8 11  1  0
 12 13  1  0
 12 14  1  0
 15 16  1  0
 15 17  1  0
 15 18  1  0
M  CHG  1   6  -1
M  END
>  <PDB_ID>  (116) 
pdb2cx7

>  <RESIDUE_NAME>  (116) 
GLU   ARG

>  <FRAG_NAME>  (116) 
ACET   PRPA

>  <FRAG_ATOM_NUM>  (116) 
fragi: 7  fragj: 11

>  <atom.prop.CHAIN_ID>  (116) 
A A A A A A A Z Z Z Z Z Z Z Z Z Z Z

>  <atom.prop.IS_HEAVY_ATOM>  (116) 
1 0 0 0 1 1 1 1 0 0 0 1 0 0 1 0 0 0

>  <DIFUSE_FUNC_ATOM>  (116) 
atom 6   atom 7   

>  <FINAL_SINGLE_POINT_ENERGY>  (116) 
0

>  <NONCOV_INTER_ENERGY_QM>  (116) 
0

>  <FF_Energy>  (116) 
24.41

>  <QM_Energy>  (116) 
-1.17

>  <source>  (116) 
ACET_PRPA_01

>  <Index>  (116) 
10955

$$$$
ACET-pdb2cun-A-GLU-129:PRPA-pdb2cun-A-ARG-164
     RDKit          3D

 18 16  0  0  0  0  0  0  0  0999 V2000
   -0.0035    1.5307   -0.0224 C   0  0  0  0  0  0  0  0  0  0  0  0
    0.0029    1.8087   -0.9620 H   0  0  0  0  0  0  0  0  0  0  0  0
    0.7902    1.8313    0.4676 H   0  0  0  0  0  0  0  0  0  0  0  0
   -0.8865    1.9546    0.4556 H   0  0  0  0  0  0  0  0  0  0  0  0
    0.0000    0.0000    0.0000 C   0  0  0  0  0  0  0  0  0  0  0  0
   -1.0935   -0.5971   -0.0000 O   0  0  0  0  0  1  0  0  0  0  0  0
    1.0935   -0.6029    0.0000 O   0  0  0  0  0  0  0  0  0  0  0  0
   -3.1433   -3.2281    1.6362 C   0  0  0  0  0  0  0  0  0  0  0  0
   -2.6619   -2.3354    1.7123 H   0  0  0  0  0  0  0  0  0  0  0  0
   -2.5811   -3.9072    2.1428 H   0  0  0  0  0  0  0  0  0  0  0  0
   -4.0984   -3.1358    2.1534 H   0  0  0  0  0  0  0  0  0  0  0  0
   -3.1520   -3.6262    0.1863 C   0  0  0  0  0  0  0  0  0  0  0  0
   -3.3425   -4.5754    0.0995 H   0  0  0  0  0  0  0  0  0  0  0  0
   -3.7510   -3.0498   -0.3171 H   0  0  0  0  0  0  0  0  0  0  0  0
   -1.7351   -3.3747   -0.2883 C   0  0  0  0  0  0  0  0  0  0  0  0
   -1.6158   -2.3758   -0.3898 H   0  0  0  0  0  0  0  0  0  0  0  0
   -1.1062   -3.6876    0.4394 H   0  0  0  0  0  0  0  0  0  0  0  0
   -1.4689   -3.8635   -1.2255 H   0  0  0  0  0  0  0  0  0  0  0  0
  1  5  1  0
  5  6  1  0
  5  7  2  0
  1  2  1  0
  1  3  1  0
  1  4  1  0
  8 12  1  0
 12 15  1  0
  8  9  1  0
  8 10  1  0
  8 11  1  0
 12 13  1  0
 12 14  1  0
 15 16  1  0
 15 17  1  0
 15 18  1  0
M  CHG  1   6  -1
M  END
>  <PDB_ID>  (117) 
pdb2cun

>  <RESIDUE_NAME>  (117) 
GLU   ARG

>  <FRAG_NAME>  (117) 
ACET   PRPA

>  <FRAG_ATOM_NUM>  (117) 
fragi: 7  fragj: 11

>  <atom.prop.CHAIN_ID>  (117) 
A A A A A A A Z Z Z Z Z Z Z Z Z Z Z

>  <atom.prop.IS_HEAVY_ATOM>  (117) 
1 0 0 0 1 1 1 1 0 0 0 1 0 0 1 0 0 0

>  <DIFUSE_FUNC_ATOM>  (117) 
atom 6   atom 7   

>  <FINAL_SINGLE_POINT_ENERGY>  (117) 
0

>  <NONCOV_INTER_ENERGY_QM>  (117) 
0

>  <FF_Energy>  (117) 
13.45

>  <QM_Energy>  (117) 
-1.69

>  <source>  (117) 
ACET_PRPA_01

>  <Index>  (117) 
11208

$$$$
ACET-pdb2cyb-A-ASP-2:PRPA-pdb2cyb-A-LYS-6
     RDKit          3D

 18 16  0  0  0  0  0  0  0  0999 V2000
   -0.0015    1.5170    0.0065 C   0  0  0  0  0  0  0  0  0  0  0  0
    0.9269    1.8386   -0.1389 H   0  0  0  0  0  0  0  0  0  0  0  0
   -0.3466    1.8329    0.8822 H   0  0  0  0  0  0  0  0  0  0  0  0
   -0.6303    1.9411   -0.7763 H   0  0  0  0  0  0  0  0  0  0  0  0
    0.0000    0.0000    0.0000 C   0  0  0  0  0  0  0  0  0  0  0  0
   -1.0948   -0.5961    0.0000 O   0  0  0  0  0  1  0  0  0  0  0  0
    1.0948   -0.5999    0.0000 O   0  0  0  0  0  0  0  0  0  0  0  0
   -3.2938   -1.9864    1.0715 C   0  0  0  0  0  0  0  0  0  0  0  0
   -2.7947   -1.3280    0.5214 H   0  0  0  0  0  0  0  0  0  0  0  0
   -3.0217   -1.9259    2.0242 H   0  0  0  0  0  0  0  0  0  0  0  0
   -4.3631   -1.7929    0.9863 H   0  0  0  0  0  0  0  0  0  0  0  0
   -2.9787   -3.3929    0.5586 C   0  0  0  0  0  0  0  0  0  0  0  0
   -3.2442   -4.0528    1.2626 H   0  0  0  0  0  0  0  0  0  0  0  0
   -3.5160   -3.5558   -0.2699 H   0  0  0  0  0  0  0  0  0  0  0  0
   -1.5128   -3.5874    0.2360 C   0  0  0  0  0  0  0  0  0  0  0  0
   -1.2261   -2.8932   -0.4189 H   0  0  0  0  0  0  0  0  0  0  0  0
   -0.9786   -3.5069    1.0736 H   0  0  0  0  0  0  0  0  0  0  0  0
   -1.3560   -4.5757   -0.1961 H   0  0  0  0  0  0  0  0  0  0  0  0
  1  5  1  0
  5  6  1  0
  5  7  2  0
  1  2  1  0
  1  3  1  0
  1  4  1  0
  8 12  1  0
 12 15  1  0
  8  9  1  0
  8 10  1  0
  8 11  1  0
 12 13  1  0
 12 14  1  0
 15 16  1  0
 15 17  1  0
 15 18  1  0
M  CHG  1   6  -1
M  END
>  <PDB_ID>  (118) 
pdb2cyb

>  <RESIDUE_NAME>  (118) 
ASP   LYS

>  <FRAG_NAME>  (118) 
ACET   PRPA

>  <FRAG_ATOM_NUM>  (118) 
fragi: 7  fragj: 11

>  <atom.prop.CHAIN_ID>  (118) 
A A A A A A A Z Z Z Z Z Z Z Z Z Z Z

>  <atom.prop.IS_HEAVY_ATOM>  (118) 
1 0 0 0 1 1 1 1 0 0 0 1 0 0 1 0 0 0

>  <DIFUSE_FUNC_ATOM>  (118) 
atom 6   atom 7   

>  <FINAL_SINGLE_POINT_ENERGY>  (118) 
0

>  <NONCOV_INTER_ENERGY_QM>  (118) 
0

>  <FF_Energy>  (118) 
14.1

>  <QM_Energy>  (118) 
-1.74

>  <source>  (118) 
ACET_PRPA_01

>  <Index>  (118) 
11537

$$$$
ACET-pdb2cx4-A-ASP-13:PRPA-pdb2cx4-A-LEU-26
     RDKit          3D

 18 16  0  0  0  0  0  0  0  0999 V2000
   -0.0109    1.5296    0.0002 C   0  0  0  0  0  0  0  0  0  0  0  0
   -0.4426    1.8422    0.8381 H   0  0  0  0  0  0  0  0  0  0  0  0
   -0.5188    1.8417   -0.7927 H   0  0  0  0  0  0  0  0  0  0  0  0
    0.9886    1.9619   -0.0460 H   0  0  0  0  0  0  0  0  0  0  0  0
    0.0000    0.0000    0.0000 C   0  0  0  0  0  0  0  0  0  0  0  0
   -1.0931   -0.6067   -0.0000 O   0  0  0  0  0  1  0  0  0  0  0  0
    1.0931   -0.6035    0.0000 O   0  0  0  0  0  0  0  0  0  0  0  0
    2.9356   -2.4158    2.1471 C   0  0  0  0  0  0  0  0  0  0  0  0
    3.7743   -2.7517    2.6277 H   0  0  0  0  0  0  0  0  0  0  0  0
    2.8568   -2.9460    1.1980 H   0  0  0  0  0  0  0  0  0  0  0  0
    2.0855   -2.5391    2.8182 H   0  0  0  0  0  0  0  0  0  0  0  0
    3.1859   -0.9238    1.8960 C   0  0  0  0  0  0  0  0  0  0  0  0
    4.0536   -0.8417    1.3922 H   0  0  0  0  0  0  0  0  0  0  0  0
    2.4419   -0.5845    1.3117 H   0  0  0  0  0  0  0  0  0  0  0  0
    3.2758    0.0172    3.1040 C   0  0  0  0  0  0  0  0  0  0  0  0
    2.3722    0.0699    3.5357 H   0  0  0  0  0  0  0  0  0  0  0  0
    4.0090   -0.3401    3.8271 H   0  0  0  0  0  0  0  0  0  0  0  0
    3.5490    1.0118    2.7513 H   0  0  0  0  0  0  0  0  0  0  0  0
  1  5  1  0
  5  6  1  0
  5  7  2  0
  1  2  1  0
  1  3  1  0
  1  4  1  0
  8 12  1  0
 12 15  1  0
  8  9  1  0
  8 10  1  0
  8 11  1  0
 12 13  1  0
 12 14  1  0
 15 16  1  0
 15 17  1  0
 15 18  1  0
M  CHG  1   6  -1
M  END
>  <PDB_ID>  (119) 
pdb2cx4

>  <RESIDUE_NAME>  (119) 
ASP   LEU

>  <FRAG_NAME>  (119) 
ACET   PRPA

>  <FRAG_ATOM_NUM>  (119) 
fragi: 7  fragj: 11

>  <atom.prop.CHAIN_ID>  (119) 
A A A A A A A Z Z Z Z Z Z Z Z Z Z Z

>  <atom.prop.IS_HEAVY_ATOM>  (119) 
1 0 0 0 1 1 1 1 0 0 0 1 0 0 1 0 0 0

>  <DIFUSE_FUNC_ATOM>  (119) 
atom 6   atom 7   

>  <FINAL_SINGLE_POINT_ENERGY>  (119) 
0

>  <NONCOV_INTER_ENERGY_QM>  (119) 
0

>  <FF_Energy>  (119) 
34.89

>  <QM_Energy>  (119) 
-1.27

>  <source>  (119) 
ACET_PRPA_01

>  <Index>  (119) 
11877

$$$$
ACET-pdb2cx4-A-ASP-13:PRPA-pdb2cx4-A-LEU-26
     RDKit          3D

 18 16  0  0  0  0  0  0  0  0999 V2000
   -0.0109    1.5296    0.0002 C   0  0  0  0  0  0  0  0  0  0  0  0
   -0.4426    1.8422    0.8381 H   0  0  0  0  0  0  0  0  0  0  0  0
   -0.5188    1.8417   -0.7927 H   0  0  0  0  0  0  0  0  0  0  0  0
    0.9886    1.9619   -0.0460 H   0  0  0  0  0  0  0  0  0  0  0  0
    0.0000    0.0000    0.0000 C   0  0  0  0  0  0  0  0  0  0  0  0
   -1.0931   -0.6067   -0.0000 O   0  0  0  0  0  1  0  0  0  0  0  0
    1.0931   -0.6035    0.0000 O   0  0  0  0  0  0  0  0  0  0  0  0
    3.1859   -0.9238    1.8960 C   0  0  0  0  0  0  0  0  0  0  0  0
    4.0536   -0.8417    1.3922 H   0  0  0  0  0  0  0  0  0  0  0  0
    2.4419   -0.5845    1.3117 H   0  0  0  0  0  0  0  0  0  0  0  0
    3.0080   -1.9843    2.0745 H   0  0  0  0  0  0  0  0  0  0  0  0
    3.2758    0.0172    3.1040 C   0  0  0  0  0  0  0  0  0  0  0  0
    2.3722    0.0699    3.5357 H   0  0  0  0  0  0  0  0  0  0  0  0
    4.0090   -0.3401    3.8271 H   0  0  0  0  0  0  0  0  0  0  0  0
    3.6552    1.3983    2.6143 C   0  0  0  0  0  0  0  0  0  0  0  0
    2.9599    1.7338    1.9748 H   0  0  0  0  0  0  0  0  0  0  0  0
    3.7189    2.0275    3.3914 H   0  0  0  0  0  0  0  0  0  0  0  0
    4.5407    1.3608    2.1472 H   0  0  0  0  0  0  0  0  0  0  0  0
  1  5  1  0
  5  6  1  0
  5  7  2  0
  1  2  1  0
  1  3  1  0
  1  4  1  0
  8 12  1  0
 12 15  1  0
  8  9  1  0
  8 10  1  0
  8 11  1  0
 12 13  1  0
 12 14  1  0
 15 16  1  0
 15 17  1  0
 15 18  1  0
M  CHG  1   6  -1
M  END
>  <PDB_ID>  (120) 
pdb2cx4

>  <RESIDUE_NAME>  (120) 
ASP   LEU

>  <FRAG_NAME>  (120) 
ACET   PRPA

>  <FRAG_ATOM_NUM>  (120) 
fragi: 7  fragj: 11

>  <atom.prop.CHAIN_ID>  (120) 
A A A A A A A Z Z Z Z Z Z Z Z Z Z Z

>  <atom.prop.IS_HEAVY_ATOM>  (120) 
1 0 0 0 1 1 1 1 0 0 0 1 0 0 1 0 0 0

>  <DIFUSE_FUNC_ATOM>  (120) 
atom 6   atom 7   

>  <FINAL_SINGLE_POINT_ENERGY>  (120) 
0

>  <NONCOV_INTER_ENERGY_QM>  (120) 
0

>  <FF_Energy>  (120) 
14.95

>  <QM_Energy>  (120) 
-0.95

>  <source>  (120) 
ACET_PRPA_01

>  <Index>  (120) 
11910

$$$$
ACET-pdb1cdo-A-GLU-16:PRPA-pdb1cdo-A-LYS-19
     RDKit          3D

 18 16  0  0  0  0  0  0  0  0999 V2000
   -0.0066    1.5292   -0.0065 C   0  0  0  0  0  0  0  0  0  0  0  0
   -0.7042    1.8151   -0.6382 H   0  0  0  0  0  0  0  0  0  0  0  0
    0.8899    1.8234   -0.2873 H   0  0  0  0  0  0  0  0  0  0  0  0
   -0.2247    1.9660    0.9681 H   0  0  0  0  0  0  0  0  0  0  0  0
    0.0000    0.0000    0.0000 C   0  0  0  0  0  0  0  0  0  0  0  0
   -1.1006   -0.5957    0.0000 O   0  0  0  0  0  1  0  0  0  0  0  0
    1.1006   -0.5977   -0.0000 O   0  0  0  0  0  0  0  0  0  0  0  0
    1.4749    1.5953   -3.2342 C   0  0  0  0  0  0  0  0  0  0  0  0
    2.3233    1.3314   -3.6968 H   0  0  0  0  0  0  0  0  0  0  0  0
    1.5900    1.4881   -2.2460 H   0  0  0  0  0  0  0  0  0  0  0  0
    1.2622    2.6412   -3.4555 H   0  0  0  0  0  0  0  0  0  0  0  0
    0.3466    0.6234   -3.6993 C   0  0  0  0  0  0  0  0  0  0  0  0
    0.2362    0.7257   -4.6894 H   0  0  0  0  0  0  0  0  0  0  0  0
    0.6364   -0.3132   -3.4948 H   0  0  0  0  0  0  0  0  0  0  0  0
   -1.0329    0.8601   -3.0306 C   0  0  0  0  0  0  0  0  0  0  0  0
   -0.8831    1.1180   -2.0709 H   0  0  0  0  0  0  0  0  0  0  0  0
   -1.4896    1.6216   -3.5009 H   0  0  0  0  0  0  0  0  0  0  0  0
   -1.6885   -0.0102   -3.0588 H   0  0  0  0  0  0  0  0  0  0  0  0
  1  5  1  0
  5  6  1  0
  5  7  2  0
  1  2  1  0
  1  3  1  0
  1  4  1  0
  8 12  1  0
 12 15  1  0
  8  9  1  0
  8 10  1  0
  8 11  1  0
 12 13  1  0
 12 14  1  0
 15 16  1  0
 15 17  1  0
 15 18  1  0
M  CHG  1   6  -1
M  END
>  <PDB_ID>  (121) 
pdb1cdo

>  <RESIDUE_NAME>  (121) 
GLU   LYS

>  <FRAG_NAME>  (121) 
ACET   PRPA

>  <FRAG_ATOM_NUM>  (121) 
fragi: 7  fragj: 11

>  <atom.prop.CHAIN_ID>  (121) 
A A A A A A A Z Z Z Z Z Z Z Z Z Z Z

>  <atom.prop.IS_HEAVY_ATOM>  (121) 
1 0 0 0 1 1 1 1 0 0 0 1 0 0 1 0 0 0

>  <DIFUSE_FUNC_ATOM>  (121) 
atom 6   atom 7   

>  <FINAL_SINGLE_POINT_ENERGY>  (121) 
0

>  <NONCOV_INTER_ENERGY_QM>  (121) 
0

>  <FF_Energy>  (121) 
16.11

>  <QM_Energy>  (121) 
0.71

>  <source>  (121) 
ACET_PRPA_01

>  <Index>  (121) 
12459

$$$$
ACET-pdb2cxi-A-GLU-139:PRPA-pdb2cxi-A-ARG-135
     RDKit          3D

 18 16  0  0  0  0  0  0  0  0999 V2000
   -0.0275    1.5206    0.0608 C   0  0  0  0  0  0  0  0  0  0  0  0
   -0.0646    1.7770    1.0150 H   0  0  0  0  0  0  0  0  0  0  0  0
   -0.8353    1.8201   -0.4232 H   0  0  0  0  0  0  0  0  0  0  0  0
    0.8407    2.0019   -0.3894 H   0  0  0  0  0  0  0  0  0  0  0  0
    0.0000    0.0000    0.0000 C   0  0  0  0  0  0  0  0  0  0  0  0
   -1.1172   -0.6077   -0.0000 O   0  0  0  0  0  1  0  0  0  0  0  0
    1.1172   -0.6194    0.0000 O   0  0  0  0  0  0  0  0  0  0  0  0
   -0.8715    0.6386   -4.9892 C   0  0  0  0  0  0  0  0  0  0  0  0
   -1.0236   -0.1534   -5.6001 H   0  0  0  0  0  0  0  0  0  0  0  0
    0.2033    0.7967   -4.9016 H   0  0  0  0  0  0  0  0  0  0  0  0
   -1.3969    1.5014   -5.3986 H   0  0  0  0  0  0  0  0  0  0  0  0
   -1.5341    0.1884   -3.6646 C   0  0  0  0  0  0  0  0  0  0  0  0
   -1.6567    0.9973   -3.0910 H   0  0  0  0  0  0  0  0  0  0  0  0
   -2.4263   -0.2041   -3.8841 H   0  0  0  0  0  0  0  0  0  0  0  0
   -0.7523   -0.8549   -2.8433 C   0  0  0  0  0  0  0  0  0  0  0  0
    0.2304   -0.5565   -2.7748 H   0  0  0  0  0  0  0  0  0  0  0  0
   -1.1011   -0.8446   -1.8750 H   0  0  0  0  0  0  0  0  0  0  0  0
   -0.7353   -1.8999   -3.1527 H   0  0  0  0  0  0  0  0  0  0  0  0
  1  5  1  0
  5  6  1  0
  5  7  2  0
  1  2  1  0
  1  3  1  0
  1  4  1  0
  8 12  1  0
 12 15  1  0
  8  9  1  0
  8 10  1  0
  8 11  1  0
 12 13  1  0
 12 14  1  0
 15 16  1  0
 15 17  1  0
 15 18  1  0
M  CHG  1   6  -1
M  END
>  <PDB_ID>  (122) 
pdb2cxi

>  <RESIDUE_NAME>  (122) 
GLU   ARG

>  <FRAG_NAME>  (122) 
ACET   PRPA

>  <FRAG_ATOM_NUM>  (122) 
fragi: 7  fragj: 11

>  <atom.prop.CHAIN_ID>  (122) 
A A A A A A A Z Z Z Z Z Z Z Z Z Z Z

>  <atom.prop.IS_HEAVY_ATOM>  (122) 
1 0 0 0 1 1 1 1 0 0 0 1 0 0 1 0 0 0

>  <DIFUSE_FUNC_ATOM>  (122) 
atom 6   atom 7   

>  <FINAL_SINGLE_POINT_ENERGY>  (122) 
0

>  <NONCOV_INTER_ENERGY_QM>  (122) 
0

>  <FF_Energy>  (122) 
16.68

>  <QM_Energy>  (122) 
-0.41

>  <source>  (122) 
ACET_PRPA_01

>  <Index>  (122) 
14041

$$$$
ACET-pdb1bu6-X-GLU-159:PRPA-pdb1bu6-X-ARG-154
     RDKit          3D

 18 16  0  0  0  0  0  0  0  0999 V2000
    0.2287    1.4639   -0.0157 C   0  0  0  0  0  0  0  0  0  0  0  0
    1.0436    1.6429   -0.5270 H   0  0  0  0  0  0  0  0  0  0  0  0
    0.2793    1.7770    0.9093 H   0  0  0  0  0  0  0  0  0  0  0  0
   -0.6036    1.9683   -0.5066 H   0  0  0  0  0  0  0  0  0  0  0  0
    0.0000    0.0000    0.0000 C   0  0  0  0  0  0  0  0  0  0  0  0
   -1.1263   -0.4756    0.0000 O   0  0  0  0  0  1  0  0  0  0  0  0
    1.1263   -0.6976   -0.0000 O   0  0  0  0  0  0  0  0  0  0  0  0
    1.0527    2.1331   -2.8606 C   0  0  0  0  0  0  0  0  0  0  0  0
    0.8821    3.1168   -2.7360 H   0  0  0  0  0  0  0  0  0  0  0  0
    0.8977    1.6696   -1.9814 H   0  0  0  0  0  0  0  0  0  0  0  0
    0.3533    1.7412   -3.5989 H   0  0  0  0  0  0  0  0  0  0  0  0
    2.5013    1.9643   -3.2136 C   0  0  0  0  0  0  0  0  0  0  0  0
    2.7233    1.0058   -3.2966 H   0  0  0  0  0  0  0  0  0  0  0  0
    2.7106    2.4590   -4.0418 H   0  0  0  0  0  0  0  0  0  0  0  0
    3.3483    2.5485   -2.0911 C   0  0  0  0  0  0  0  0  0  0  0  0
    4.2984    2.3316   -2.2771 H   0  0  0  0  0  0  0  0  0  0  0  0
    3.2080    3.5313   -2.0809 H   0  0  0  0  0  0  0  0  0  0  0  0
    3.0624    2.1301   -1.1261 H   0  0  0  0  0  0  0  0  0  0  0  0
  1  5  1  0
  5  6  1  0
  5  7  2  0
  1  2  1  0
  1  3  1  0
  1  4  1  0
  8 12  1  0
 12 15  1  0
  8  9  1  0
  8 10  1  0
  8 11  1  0
 12 13  1  0
 12 14  1  0
 15 16  1  0
 15 17  1  0
 15 18  1  0
M  CHG  1   6  -1
M  END
>  <PDB_ID>  (123) 
pdb1bu6

>  <RESIDUE_NAME>  (123) 
GLU   ARG

>  <FRAG_NAME>  (123) 
ACET   PRPA

>  <FRAG_ATOM_NUM>  (123) 
fragi: 7  fragj: 11

>  <atom.prop.CHAIN_ID>  (123) 
A A A A A A A Z Z Z Z Z Z Z Z Z Z Z

>  <atom.prop.IS_HEAVY_ATOM>  (123) 
1 0 0 0 1 1 1 1 0 0 0 1 0 0 1 0 0 0

>  <DIFUSE_FUNC_ATOM>  (123) 
atom 6   atom 7   

>  <FINAL_SINGLE_POINT_ENERGY>  (123) 
0

>  <NONCOV_INTER_ENERGY_QM>  (123) 
0

>  <FF_Energy>  (123) 
48.75

>  <QM_Energy>  (123) 
6.03

>  <source>  (123) 
ACET_PRPA_01

>  <Index>  (123) 
14044

$$$$
ACET-pdb2cxi-A-GLU-139:PRPA-pdb2cxi-A-ARG-135
     RDKit          3D

 18 16  0  0  0  0  0  0  0  0999 V2000
   -0.0275    1.5206    0.0608 C   0  0  0  0  0  0  0  0  0  0  0  0
   -0.0646    1.7770    1.0150 H   0  0  0  0  0  0  0  0  0  0  0  0
   -0.8353    1.8201   -0.4232 H   0  0  0  0  0  0  0  0  0  0  0  0
    0.8407    2.0019   -0.3894 H   0  0  0  0  0  0  0  0  0  0  0  0
    0.0000    0.0000    0.0000 C   0  0  0  0  0  0  0  0  0  0  0  0
   -1.1172   -0.6077   -0.0000 O   0  0  0  0  0  1  0  0  0  0  0  0
    1.1172   -0.6194    0.0000 O   0  0  0  0  0  0  0  0  0  0  0  0
   -1.5341    0.1884   -3.6646 C   0  0  0  0  0  0  0  0  0  0  0  0
   -1.6567    0.9973   -3.0910 H   0  0  0  0  0  0  0  0  0  0  0  0
   -2.4263   -0.2041   -3.8841 H   0  0  0  0  0  0  0  0  0  0  0  0
   -1.0675    0.5055   -4.5973 H   0  0  0  0  0  0  0  0  0  0  0  0
   -0.7523   -0.8549   -2.8433 C   0  0  0  0  0  0  0  0  0  0  0  0
    0.2304   -0.5565   -2.7748 H   0  0  0  0  0  0  0  0  0  0  0  0
   -1.1011   -0.8446   -1.8750 H   0  0  0  0  0  0  0  0  0  0  0  0
   -0.7279   -2.3582   -3.2884 C   0  0  0  0  0  0  0  0  0  0  0  0
    0.0005   -2.4383   -3.9856 H   0  0  0  0  0  0  0  0  0  0  0  0
   -0.4359   -2.8909   -2.4788 H   0  0  0  0  0  0  0  0  0  0  0  0
   -1.6599   -2.7652   -3.6806 H   0  0  0  0  0  0  0  0  0  0  0  0
  1  5  1  0
  5  6  1  0
  5  7  2  0
  1  2  1  0
  1  3  1  0
  1  4  1  0
  8 12  1  0
 12 15  1  0
  8  9  1  0
  8 10  1  0
  8 11  1  0
 12 13  1  0
 12 14  1  0
 15 16  1  0
 15 17  1  0
 15 18  1  0
M  CHG  1   6  -1
M  END
>  <PDB_ID>  (124) 
pdb2cxi

>  <RESIDUE_NAME>  (124) 
GLU   ARG

>  <FRAG_NAME>  (124) 
ACET   PRPA

>  <FRAG_ATOM_NUM>  (124) 
fragi: 7  fragj: 11

>  <atom.prop.CHAIN_ID>  (124) 
A A A A A A A Z Z Z Z Z Z Z Z Z Z Z

>  <atom.prop.IS_HEAVY_ATOM>  (124) 
1 0 0 0 1 1 1 1 0 0 0 1 0 0 1 0 0 0

>  <DIFUSE_FUNC_ATOM>  (124) 
atom 6   atom 7   

>  <FINAL_SINGLE_POINT_ENERGY>  (124) 
0

>  <NONCOV_INTER_ENERGY_QM>  (124) 
0

>  <FF_Energy>  (124) 
19.25

>  <QM_Energy>  (124) 
-1.25

>  <source>  (124) 
ACET_PRPA_01

>  <Index>  (124) 
14055

$$$$
ACET-pdb1cez-A-ASP-156:PRPA-pdb1cez-A-LYS-160
     RDKit          3D

 18 16  0  0  0  0  0  0  0  0999 V2000
    0.0128    1.5185   -0.0009 C   0  0  0  0  0  0  0  0  0  0  0  0
    0.9306    1.8318    0.2159 H   0  0  0  0  0  0  0  0  0  0  0  0
   -0.6350    1.8456    0.6778 H   0  0  0  0  0  0  0  0  0  0  0  0
   -0.2667    1.9462   -0.9638 H   0  0  0  0  0  0  0  0  0  0  0  0
    0.0000    0.0000    0.0000 C   0  0  0  0  0  0  0  0  0  0  0  0
   -1.1043   -0.6033    0.0000 O   0  0  0  0  0  1  0  0  0  0  0  0
    1.1043   -0.5960   -0.0000 O   0  0  0  0  0  0  0  0  0  0  0  0
   -3.3983   -1.8928   -3.1752 C   0  0  0  0  0  0  0  0  0  0  0  0
   -2.9428   -2.6240   -3.6838 H   0  0  0  0  0  0  0  0  0  0  0  0
   -2.7631   -1.1323   -3.0443 H   0  0  0  0  0  0  0  0  0  0  0  0
   -4.2604   -1.5456   -3.7446 H   0  0  0  0  0  0  0  0  0  0  0  0
   -3.7995   -2.4369   -1.7930 C   0  0  0  0  0  0  0  0  0  0  0  0
   -4.3169   -1.7356   -1.3160 H   0  0  0  0  0  0  0  0  0  0  0  0
   -4.3528   -3.2513   -1.9227 H   0  0  0  0  0  0  0  0  0  0  0  0
   -2.5793   -2.8024   -0.9531 C   0  0  0  0  0  0  0  0  0  0  0  0
   -2.0987   -1.9601   -0.6946 H   0  0  0  0  0  0  0  0  0  0  0  0
   -2.8862   -3.2692   -0.1185 H   0  0  0  0  0  0  0  0  0  0  0  0
   -1.8890   -3.4534   -1.4895 H   0  0  0  0  0  0  0  0  0  0  0  0
  1  5  1  0
  5  6  1  0
  5  7  2  0
  1  2  1  0
  1  3  1  0
  1  4  1  0
  8 12  1  0
 12 15  1  0
  8  9  1  0
  8 10  1  0
  8 11  1  0
 12 13  1  0
 12 14  1  0
 15 16  1  0
 15 17  1  0
 15 18  1  0
M  CHG  1   6  -1
M  END
>  <PDB_ID>  (125) 
pdb1cez

>  <RESIDUE_NAME>  (125) 
ASP   LYS

>  <FRAG_NAME>  (125) 
ACET   PRPA

>  <FRAG_ATOM_NUM>  (125) 
fragi: 7  fragj: 11

>  <atom.prop.CHAIN_ID>  (125) 
A A A A A A A Z Z Z Z Z Z Z Z Z Z Z

>  <atom.prop.IS_HEAVY_ATOM>  (125) 
1 0 0 0 1 1 1 1 0 0 0 1 0 0 1 0 0 0

>  <DIFUSE_FUNC_ATOM>  (125) 
atom 6   atom 7   

>  <FINAL_SINGLE_POINT_ENERGY>  (125) 
0

>  <NONCOV_INTER_ENERGY_QM>  (125) 
0

>  <FF_Energy>  (125) 
23.31

>  <QM_Energy>  (125) 
-0.52

>  <source>  (125) 
ACET_PRPA_01

>  <Index>  (125) 
15170

$$$$
ACET-pdb1bu6-Y-GLU-90:PRPA-pdb1bu6-Y-LYS-95
     RDKit          3D

 18 16  0  0  0  0  0  0  0  0999 V2000
   -0.2493    1.4833    0.0181 C   0  0  0  0  0  0  0  0  0  0  0  0
   -1.0495    1.6614   -0.5115 H   0  0  0  0  0  0  0  0  0  0  0  0
    0.5499    1.9278   -0.3235 H   0  0  0  0  0  0  0  0  0  0  0  0
   -0.4281    1.8322    1.0352 H   0  0  0  0  0  0  0  0  0  0  0  0
    0.0000    0.0000    0.0000 C   0  0  0  0  0  0  0  0  0  0  0  0
   -1.1180   -0.6801   -0.0000 O   0  0  0  0  0  1  0  0  0  0  0  0
    1.1180   -0.5083    0.0000 O   0  0  0  0  0  0  0  0  0  0  0  0
    3.7336    1.4708   -0.7953 C   0  0  0  0  0  0  0  0  0  0  0  0
    2.7808    1.7827   -0.9150 H   0  0  0  0  0  0  0  0  0  0  0  0
    4.2878    1.8774   -1.5346 H   0  0  0  0  0  0  0  0  0  0  0  0
    4.1022    1.8470    0.1590 H   0  0  0  0  0  0  0  0  0  0  0  0
    3.7792   -0.0330   -0.9124 C   0  0  0  0  0  0  0  0  0  0  0  0
    2.8621   -0.3975   -0.8003 H   0  0  0  0  0  0  0  0  0  0  0  0
    4.1485   -0.2813   -1.7992 H   0  0  0  0  0  0  0  0  0  0  0  0
    4.6700   -0.6292    0.1645 C   0  0  0  0  0  0  0  0  0  0  0  0
    4.3273   -0.3295    1.0681 H   0  0  0  0  0  0  0  0  0  0  0  0
    4.5899   -1.6373    0.1277 H   0  0  0  0  0  0  0  0  0  0  0  0
    5.7183   -0.3474    0.0652 H   0  0  0  0  0  0  0  0  0  0  0  0
  1  5  1  0
  5  6  1  0
  5  7  2  0
  1  2  1  0
  1  3  1  0
  1  4  1  0
  8 12  1  0
 12 15  1  0
  8  9  1  0
  8 10  1  0
  8 11  1  0
 12 13  1  0
 12 14  1  0
 15 16  1  0
 15 17  1  0
 15 18  1  0
M  CHG  1   6  -1
M  END
>  <PDB_ID>  (126) 
pdb1bu6

>  <RESIDUE_NAME>  (126) 
GLU   LYS

>  <FRAG_NAME>  (126) 
ACET   PRPA

>  <FRAG_ATOM_NUM>  (126) 
fragi: 7  fragj: 11

>  <atom.prop.CHAIN_ID>  (126) 
A A A A A A A Z Z Z Z Z Z Z Z Z Z Z

>  <atom.prop.IS_HEAVY_ATOM>  (126) 
1 0 0 0 1 1 1 1 0 0 0 1 0 0 1 0 0 0

>  <DIFUSE_FUNC_ATOM>  (126) 
atom 6   atom 7   

>  <FINAL_SINGLE_POINT_ENERGY>  (126) 
0

>  <NONCOV_INTER_ENERGY_QM>  (126) 
0

>  <FF_Energy>  (126) 
13.84

>  <QM_Energy>  (126) 
-2.42

>  <source>  (126) 
ACET_PRPA_01

>  <Index>  (126) 
17432

$$$$
ACET-pdb2d5d-B-ASP-137:PRPA-pdb2d5d-B-GLN-140
     RDKit          3D

 18 16  0  0  0  0  0  0  0  0999 V2000
   -0.0035    1.5152   -0.0035 C   0  0  0  0  0  0  0  0  0  0  0  0
   -0.7009    1.8360    0.6272 H   0  0  0  0  0  0  0  0  0  0  0  0
   -0.1955    1.8331   -0.9245 H   0  0  0  0  0  0  0  0  0  0  0  0
    0.9509    1.9401    0.3073 H   0  0  0  0  0  0  0  0  0  0  0  0
    0.0000    0.0000    0.0000 C   0  0  0  0  0  0  0  0  0  0  0  0
   -1.0984   -0.5983   -0.0000 O   0  0  0  0  0  1  0  0  0  0  0  0
    1.0984   -0.5967   -0.0000 O   0  0  0  0  0  0  0  0  0  0  0  0
    3.5095   -3.0533    1.3744 C   0  0  0  0  0  0  0  0  0  0  0  0
    2.8647   -3.7974    1.1566 H   0  0  0  0  0  0  0  0  0  0  0  0
    3.1486   -2.5468    2.2695 H   0  0  0  0  0  0  0  0  0  0  0  0
    4.4899   -3.4997    1.5406 H   0  0  0  0  0  0  0  0  0  0  0  0
    3.6056   -2.0740    0.2107 C   0  0  0  0  0  0  0  0  0  0  0  0
    2.7338   -1.5997    0.1151 H   0  0  0  0  0  0  0  0  0  0  0  0
    4.3315   -1.4157    0.4018 H   0  0  0  0  0  0  0  0  0  0  0  0
    3.9204   -2.7587   -1.1037 C   0  0  0  0  0  0  0  0  0  0  0  0
    4.8231   -3.1840   -1.0358 H   0  0  0  0  0  0  0  0  0  0  0  0
    3.2313   -3.4631   -1.2707 H   0  0  0  0  0  0  0  0  0  0  0  0
    3.9223   -2.0620   -1.9419 H   0  0  0  0  0  0  0  0  0  0  0  0
  1  5  1  0
  5  6  1  0
  5  7  2  0
  1  2  1  0
  1  3  1  0
  1  4  1  0
  8 12  1  0
 12 15  1  0
  8  9  1  0
  8 10  1  0
  8 11  1  0
 12 13  1  0
 12 14  1  0
 15 16  1  0
 15 17  1  0
 15 18  1  0
M  CHG  1   6  -1
M  END
>  <PDB_ID>  (127) 
pdb2d5d

>  <RESIDUE_NAME>  (127) 
ASP   GLN

>  <FRAG_NAME>  (127) 
ACET   PRPA

>  <FRAG_ATOM_NUM>  (127) 
fragi: 7  fragj: 11

>  <atom.prop.CHAIN_ID>  (127) 
A A A A A A A Z Z Z Z Z Z Z Z Z Z Z

>  <atom.prop.IS_HEAVY_ATOM>  (127) 
1 0 0 0 1 1 1 1 0 0 0 1 0 0 1 0 0 0

>  <DIFUSE_FUNC_ATOM>  (127) 
atom 6   atom 7   

>  <FINAL_SINGLE_POINT_ENERGY>  (127) 
0

>  <NONCOV_INTER_ENERGY_QM>  (127) 
0

>  <FF_Energy>  (127) 
13.35

>  <QM_Energy>  (127) 
-2.52

>  <source>  (127) 
ACET_PRPA_01

>  <Index>  (127) 
17441

$$$$
ACET-pdb2d5l-A-GLU-179:PRPA-pdb2d5l-A-LYS-176
     RDKit          3D

 18 16  0  0  0  0  0  0  0  0999 V2000
    0.1722    1.4854    0.0134 C   0  0  0  0  0  0  0  0  0  0  0  0
    0.6917    1.7414   -0.8033 H   0  0  0  0  0  0  0  0  0  0  0  0
    0.7031    1.7235    0.8285 H   0  0  0  0  0  0  0  0  0  0  0  0
   -0.7388    2.0839    0.0256 H   0  0  0  0  0  0  0  0  0  0  0  0
    0.0000    0.0000    0.0000 C   0  0  0  0  0  0  0  0  0  0  0  0
   -1.0894   -0.5584   -0.0000 O   0  0  0  0  0  1  0  0  0  0  0  0
    1.0894   -0.6066    0.0000 O   0  0  0  0  0  0  0  0  0  0  0  0
   -1.1463   -2.1422    1.9757 C   0  0  0  0  0  0  0  0  0  0  0  0
   -1.1821   -2.6476    2.8347 H   0  0  0  0  0  0  0  0  0  0  0  0
   -2.0650   -2.0303    1.6058 H   0  0  0  0  0  0  0  0  0  0  0  0
   -0.7087   -1.1602    2.1556 H   0  0  0  0  0  0  0  0  0  0  0  0
   -0.3068   -2.9284    0.9782 C   0  0  0  0  0  0  0  0  0  0  0  0
   -0.4050   -2.5136    0.0779 H   0  0  0  0  0  0  0  0  0  0  0  0
    0.6450   -2.9029    1.2671 H   0  0  0  0  0  0  0  0  0  0  0  0
   -0.7484   -4.3822    0.8928 C   0  0  0  0  0  0  0  0  0  0  0  0
   -0.7226   -4.7849    1.8103 H   0  0  0  0  0  0  0  0  0  0  0  0
   -1.6883   -4.4174    0.5472 H   0  0  0  0  0  0  0  0  0  0  0  0
   -0.1030   -4.9597    0.2308 H   0  0  0  0  0  0  0  0  0  0  0  0
  1  5  1  0
  5  6  1  0
  5  7  2  0
  1  2  1  0
  1  3  1  0
  1  4  1  0
  8 12  1  0
 12 15  1  0
  8  9  1  0
  8 10  1  0
  8 11  1  0
 12 13  1  0
 12 14  1  0
 15 16  1  0
 15 17  1  0
 15 18  1  0
M  CHG  1   6  -1
M  END
>  <PDB_ID>  (128) 
pdb2d5l

>  <RESIDUE_NAME>  (128) 
GLU   LYS

>  <FRAG_NAME>  (128) 
ACET   PRPA

>  <FRAG_ATOM_NUM>  (128) 
fragi: 7  fragj: 11

>  <atom.prop.CHAIN_ID>  (128) 
A A A A A A A Z Z Z Z Z Z Z Z Z Z Z

>  <atom.prop.IS_HEAVY_ATOM>  (128) 
1 0 0 0 1 1 1 1 0 0 0 1 0 0 1 0 0 0

>  <DIFUSE_FUNC_ATOM>  (128) 
atom 6   atom 7   

>  <FINAL_SINGLE_POINT_ENERGY>  (128) 
0

>  <NONCOV_INTER_ENERGY_QM>  (128) 
0

>  <FF_Energy>  (128) 
22.9

>  <QM_Energy>  (128) 
5.21

>  <source>  (128) 
ACET_PRPA_01

>  <Index>  (128) 
18839

$$$$
ACET-pdb1csp-A-GLU-66:PRPA-pdb1csp-A-VAL-47
     RDKit          3D

 18 16  0  0  0  0  0  0  0  0999 V2000
    0.1935    1.4872    0.0141 C   0  0  0  0  0  0  0  0  0  0  0  0
    0.7104    1.7335   -0.8032 H   0  0  0  0  0  0  0  0  0  0  0  0
    0.7223    1.7165    0.8291 H   0  0  0  0  0  0  0  0  0  0  0  0
   -0.7171    2.0861    0.0258 H   0  0  0  0  0  0  0  0  0  0  0  0
    0.0000    0.0000    0.0000 C   0  0  0  0  0  0  0  0  0  0  0  0
   -1.0887   -0.5511   -0.0000 O   0  0  0  0  0  1  0  0  0  0  0  0
    1.0887   -0.6159   -0.0000 O   0  0  0  0  0  0  0  0  0  0  0  0
    2.4615    1.3666   -1.8869 C   0  0  0  0  0  0  0  0  0  0  0  0
    1.8178    2.1498   -1.8442 H   0  0  0  0  0  0  0  0  0  0  0  0
    2.8953    1.2633   -0.8923 H   0  0  0  0  0  0  0  0  0  0  0  0
    1.9164    0.4850   -2.2243 H   0  0  0  0  0  0  0  0  0  0  0  0
    3.6042    1.5531   -2.9090 C   0  0  0  0  0  0  0  0  0  0  0  0
    3.2268    1.3971   -3.8162 H   0  0  0  0  0  0  0  0  0  0  0  0
    4.3830    0.8154   -2.7156 H   0  0  0  0  0  0  0  0  0  0  0  0
    4.1226    2.9899   -2.8842 C   0  0  0  0  0  0  0  0  0  0  0  0
    4.1121    3.3298   -1.9449 H   0  0  0  0  0  0  0  0  0  0  0  0
    5.0569    3.0109   -3.2366 H   0  0  0  0  0  0  0  0  0  0  0  0
    3.5361    3.5633   -3.4540 H   0  0  0  0  0  0  0  0  0  0  0  0
  1  5  1  0
  5  6  1  0
  5  7  2  0
  1  2  1  0
  1  3  1  0
  1  4  1  0
  8 12  1  0
 12 15  1  0
  8  9  1  0
  8 10  1  0
  8 11  1  0
 12 13  1  0
 12 14  1  0
 15 16  1  0
 15 17  1  0
 15 18  1  0
M  CHG  1   6  -1
M  END
>  <PDB_ID>  (129) 
pdb1csp

>  <RESIDUE_NAME>  (129) 
GLU   VAL

>  <FRAG_NAME>  (129) 
ACET   PRPA

>  <FRAG_ATOM_NUM>  (129) 
fragi: 7  fragj: 11

>  <atom.prop.CHAIN_ID>  (129) 
A A A A A A A Z Z Z Z Z Z Z Z Z Z Z

>  <atom.prop.IS_HEAVY_ATOM>  (129) 
1 0 0 0 1 1 1 1 0 0 0 1 0 0 1 0 0 0

>  <DIFUSE_FUNC_ATOM>  (129) 
atom 6   atom 7   

>  <FINAL_SINGLE_POINT_ENERGY>  (129) 
0

>  <NONCOV_INTER_ENERGY_QM>  (129) 
0

>  <FF_Energy>  (129) 
28.18

>  <QM_Energy>  (129) 
6.4

>  <source>  (129) 
ACET_PRPA_01

>  <Index>  (129) 
19282

$$$$
ACET-pdb1csp-A-GLU-66:PRPA-pdb1csp-A-VAL-47
     RDKit          3D

 18 16  0  0  0  0  0  0  0  0999 V2000
    0.1935    1.4872    0.0141 C   0  0  0  0  0  0  0  0  0  0  0  0
    0.7104    1.7335   -0.8032 H   0  0  0  0  0  0  0  0  0  0  0  0
    0.7223    1.7165    0.8291 H   0  0  0  0  0  0  0  0  0  0  0  0
   -0.7171    2.0861    0.0258 H   0  0  0  0  0  0  0  0  0  0  0  0
    0.0000    0.0000    0.0000 C   0  0  0  0  0  0  0  0  0  0  0  0
   -1.0887   -0.5511   -0.0000 O   0  0  0  0  0  1  0  0  0  0  0  0
    1.0887   -0.6159   -0.0000 O   0  0  0  0  0  0  0  0  0  0  0  0
    2.4615    1.3666   -1.8869 C   0  0  0  0  0  0  0  0  0  0  0  0
    1.8178    2.1498   -1.8442 H   0  0  0  0  0  0  0  0  0  0  0  0
    2.8953    1.2633   -0.8923 H   0  0  0  0  0  0  0  0  0  0  0  0
    1.9164    0.4850   -2.2243 H   0  0  0  0  0  0  0  0  0  0  0  0
    3.6042    1.5531   -2.9090 C   0  0  0  0  0  0  0  0  0  0  0  0
    3.2268    1.3971   -3.8162 H   0  0  0  0  0  0  0  0  0  0  0  0
    3.9740    2.5782   -2.8913 H   0  0  0  0  0  0  0  0  0  0  0  0
    4.6748    0.5391   -2.6431 C   0  0  0  0  0  0  0  0  0  0  0  0
    4.6387   -0.1861   -3.3356 H   0  0  0  0  0  0  0  0  0  0  0  0
    5.5768    0.9778   -2.6761 H   0  0  0  0  0  0  0  0  0  0  0  0
    4.5419    0.1322   -1.7350 H   0  0  0  0  0  0  0  0  0  0  0  0
  1  5  1  0
  5  6  1  0
  5  7  2  0
  1  2  1  0
  1  3  1  0
  1  4  1  0
  8 12  1  0
 12 15  1  0
  8  9  1  0
  8 10  1  0
  8 11  1  0
 12 13  1  0
 12 14  1  0
 15 16  1  0
 15 17  1  0
 15 18  1  0
M  CHG  1   6  -1
M  END
>  <PDB_ID>  (130) 
pdb1csp

>  <RESIDUE_NAME>  (130) 
GLU   VAL

>  <FRAG_NAME>  (130) 
ACET   PRPA

>  <FRAG_ATOM_NUM>  (130) 
fragi: 7  fragj: 11

>  <atom.prop.CHAIN_ID>  (130) 
A A A A A A A Z Z Z Z Z Z Z Z Z Z Z

>  <atom.prop.IS_HEAVY_ATOM>  (130) 
1 0 0 0 1 1 1 1 0 0 0 1 0 0 1 0 0 0

>  <DIFUSE_FUNC_ATOM>  (130) 
atom 6   atom 7   

>  <FINAL_SINGLE_POINT_ENERGY>  (130) 
0

>  <NONCOV_INTER_ENERGY_QM>  (130) 
0

>  <FF_Energy>  (130) 
28.4

>  <QM_Energy>  (130) 
6.09

>  <source>  (130) 
ACET_PRPA_01

>  <Index>  (130) 
19291

$$$$
ACET-pdb2d7e-B-GLU-41:PRPA-pdb2d7e-B-VAL-64
     RDKit          3D

 18 16  0  0  0  0  0  0  0  0999 V2000
    0.0010    1.5136    0.0093 C   0  0  0  0  0  0  0  0  0  0  0  0
    0.9373    1.8122   -0.0396 H   0  0  0  0  0  0  0  0  0  0  0  0
   -0.4388    1.8067    0.8392 H   0  0  0  0  0  0  0  0  0  0  0  0
   -0.5385    1.9441   -0.8344 H   0  0  0  0  0  0  0  0  0  0  0  0
    0.0000    0.0000    0.0000 C   0  0  0  0  0  0  0  0  0  0  0  0
   -1.0985   -0.5921   -0.0000 O   0  0  0  0  0  1  0  0  0  0  0  0
    1.0985   -0.5971    0.0000 O   0  0  0  0  0  0  0  0  0  0  0  0
   -3.5555   -3.8462    2.8238 C   0  0  0  0  0  0  0  0  0  0  0  0
   -2.8178   -4.3398    3.3239 H   0  0  0  0  0  0  0  0  0  0  0  0
   -3.9266   -4.5048    2.0384 H   0  0  0  0  0  0  0  0  0  0  0  0
   -4.3122   -3.5540    3.5520 H   0  0  0  0  0  0  0  0  0  0  0  0
   -2.9419   -2.5655    2.2155 C   0  0  0  0  0  0  0  0  0  0  0  0
   -3.6472   -2.1246    1.6716 H   0  0  0  0  0  0  0  0  0  0  0  0
   -2.6628   -1.8693    3.0065 H   0  0  0  0  0  0  0  0  0  0  0  0
   -1.7381   -2.9272    1.3673 C   0  0  0  0  0  0  0  0  0  0  0  0
   -1.4104   -2.1113    0.8891 H   0  0  0  0  0  0  0  0  0  0  0  0
   -1.0118   -3.2844    1.9552 H   0  0  0  0  0  0  0  0  0  0  0  0
   -1.9998   -3.6239    0.6985 H   0  0  0  0  0  0  0  0  0  0  0  0
  1  5  1  0
  5  6  1  0
  5  7  2  0
  1  2  1  0
  1  3  1  0
  1  4  1  0
  8 12  1  0
 12 15  1  0
  8  9  1  0
  8 10  1  0
  8 11  1  0
 12 13  1  0
 12 14  1  0
 15 16  1  0
 15 17  1  0
 15 18  1  0
M  CHG  1   6  -1
M  END
>  <PDB_ID>  (131) 
pdb2d7e

>  <RESIDUE_NAME>  (131) 
GLU   VAL

>  <FRAG_NAME>  (131) 
ACET   PRPA

>  <FRAG_ATOM_NUM>  (131) 
fragi: 7  fragj: 11

>  <atom.prop.CHAIN_ID>  (131) 
A A A A A A A Z Z Z Z Z Z Z Z Z Z Z

>  <atom.prop.IS_HEAVY_ATOM>  (131) 
1 0 0 0 1 1 1 1 0 0 0 1 0 0 1 0 0 0

>  <DIFUSE_FUNC_ATOM>  (131) 
atom 6   atom 7   

>  <FINAL_SINGLE_POINT_ENERGY>  (131) 
0

>  <NONCOV_INTER_ENERGY_QM>  (131) 
0

>  <FF_Energy>  (131) 
29.68

>  <QM_Energy>  (131) 
0.28

>  <source>  (131) 
ACET_PRPA_01

>  <Index>  (131) 
19747

$$$$
ACET-pdb2d7e-B-GLU-41:PRPA-pdb2d7e-B-VAL-64
     RDKit          3D

 18 16  0  0  0  0  0  0  0  0999 V2000
    0.0010    1.5136    0.0093 C   0  0  0  0  0  0  0  0  0  0  0  0
    0.9373    1.8122   -0.0396 H   0  0  0  0  0  0  0  0  0  0  0  0
   -0.4388    1.8067    0.8392 H   0  0  0  0  0  0  0  0  0  0  0  0
   -0.5385    1.9441   -0.8344 H   0  0  0  0  0  0  0  0  0  0  0  0
    0.0000    0.0000    0.0000 C   0  0  0  0  0  0  0  0  0  0  0  0
   -1.0985   -0.5921   -0.0000 O   0  0  0  0  0  1  0  0  0  0  0  0
    1.0985   -0.5971    0.0000 O   0  0  0  0  0  0  0  0  0  0  0  0
   -2.5530   -1.5956    3.3176 C   0  0  0  0  0  0  0  0  0  0  0  0
   -2.9167   -0.6869    3.1089 H   0  0  0  0  0  0  0  0  0  0  0  0
   -2.9284   -1.9101    4.1896 H   0  0  0  0  0  0  0  0  0  0  0  0
   -1.5566   -1.5461    3.3846 H   0  0  0  0  0  0  0  0  0  0  0  0
   -2.9419   -2.5655    2.2155 C   0  0  0  0  0  0  0  0  0  0  0  0
   -3.6472   -2.1246    1.6716 H   0  0  0  0  0  0  0  0  0  0  0  0
   -3.3748   -3.4691    2.6447 H   0  0  0  0  0  0  0  0  0  0  0  0
   -1.7381   -2.9272    1.3673 C   0  0  0  0  0  0  0  0  0  0  0  0
   -1.4104   -2.1113    0.8891 H   0  0  0  0  0  0  0  0  0  0  0  0
   -1.0118   -3.2844    1.9552 H   0  0  0  0  0  0  0  0  0  0  0  0
   -1.9998   -3.6239    0.6985 H   0  0  0  0  0  0  0  0  0  0  0  0
  1  5  1  0
  5  6  1  0
  5  7  2  0
  1  2  1  0
  1  3  1  0
  1  4  1  0
  8 12  1  0
 12 15  1  0
  8  9  1  0
  8 10  1  0
  8 11  1  0
 12 13  1  0
 12 14  1  0
 15 16  1  0
 15 17  1  0
 15 18  1  0
M  CHG  1   6  -1
M  END
>  <PDB_ID>  (132) 
pdb2d7e

>  <RESIDUE_NAME>  (132) 
GLU   VAL

>  <FRAG_NAME>  (132) 
ACET   PRPA

>  <FRAG_ATOM_NUM>  (132) 
fragi: 7  fragj: 11

>  <atom.prop.CHAIN_ID>  (132) 
A A A A A A A Z Z Z Z Z Z Z Z Z Z Z

>  <atom.prop.IS_HEAVY_ATOM>  (132) 
1 0 0 0 1 1 1 1 0 0 0 1 0 0 1 0 0 0

>  <DIFUSE_FUNC_ATOM>  (132) 
atom 6   atom 7   

>  <FINAL_SINGLE_POINT_ENERGY>  (132) 
0

>  <NONCOV_INTER_ENERGY_QM>  (132) 
0

>  <FF_Energy>  (132) 
30.17

>  <QM_Energy>  (132) 
-0.15

>  <source>  (132) 
ACET_PRPA_01

>  <Index>  (132) 
19749

$$$$
ACET-pdb2cw6-C-GLU-47:PRPA-pdb2cw6-C-LEU-310
     RDKit          3D

 18 16  0  0  0  0  0  0  0  0999 V2000
   -0.0039    1.5203   -0.0128 C   0  0  0  0  0  0  0  0  0  0  0  0
    0.8137    1.8196    0.4449 H   0  0  0  0  0  0  0  0  0  0  0  0
   -0.8196    1.8148    0.4520 H   0  0  0  0  0  0  0  0  0  0  0  0
   -0.0082    1.9345   -1.0210 H   0  0  0  0  0  0  0  0  0  0  0  0
    0.0000    0.0000    0.0000 C   0  0  0  0  0  0  0  0  0  0  0  0
   -1.1015   -0.5979    0.0000 O   0  0  0  0  0  1  0  0  0  0  0  0
    1.1015   -0.5964   -0.0000 O   0  0  0  0  0  0  0  0  0  0  0  0
    1.4248    3.7665    4.4080 C   0  0  0  0  0  0  0  0  0  0  0  0
    2.3682    4.1505    4.3238 H   0  0  0  0  0  0  0  0  0  0  0  0
    1.5333    2.8266    4.7909 H   0  0  0  0  0  0  0  0  0  0  0  0
    0.9034    4.3603    5.1588 H   0  0  0  0  0  0  0  0  0  0  0  0
    0.8842    3.6065    2.9874 C   0  0  0  0  0  0  0  0  0  0  0  0
    0.0813    3.0095    3.0118 H   0  0  0  0  0  0  0  0  0  0  0  0
    0.6058    4.5744    2.5707 H   0  0  0  0  0  0  0  0  0  0  0  0
    1.9640    2.9577    2.1304 C   0  0  0  0  0  0  0  0  0  0  0  0
    2.1974    2.0623    2.5100 H   0  0  0  0  0  0  0  0  0  0  0  0
    1.6258    2.8461    1.1959 H   0  0  0  0  0  0  0  0  0  0  0  0
    2.7785    3.5392    2.1227 H   0  0  0  0  0  0  0  0  0  0  0  0
  1  5  1  0
  5  6  1  0
  5  7  2  0
  1  2  1  0
  1  3  1  0
  1  4  1  0
  8 12  1  0
 12 15  1  0
  8  9  1  0
  8 10  1  0
  8 11  1  0
 12 13  1  0
 12 14  1  0
 15 16  1  0
 15 17  1  0
 15 18  1  0
M  CHG  1   6  -1
M  END
>  <PDB_ID>  (133) 
pdb2cw6

>  <RESIDUE_NAME>  (133) 
GLU   LEU

>  <FRAG_NAME>  (133) 
ACET   PRPA

>  <FRAG_ATOM_NUM>  (133) 
fragi: 7  fragj: 11

>  <atom.prop.CHAIN_ID>  (133) 
A A A A A A A Z Z Z Z Z Z Z Z Z Z Z

>  <atom.prop.IS_HEAVY_ATOM>  (133) 
1 0 0 0 1 1 1 1 0 0 0 1 0 0 1 0 0 0

>  <DIFUSE_FUNC_ATOM>  (133) 
atom 6   atom 7   

>  <FINAL_SINGLE_POINT_ENERGY>  (133) 
0

>  <NONCOV_INTER_ENERGY_QM>  (133) 
0

>  <FF_Energy>  (133) 
19.86

>  <QM_Energy>  (133) 
3.65

>  <source>  (133) 
ACET_PRPA_01

>  <Index>  (133) 
19895

$$$$
ACET-pdb2dcl-A-GLU-18:PRPA-pdb2dcl-A-LEU-70
     RDKit          3D

 18 16  0  0  0  0  0  0  0  0999 V2000
    0.0490    1.5224   -0.0385 C   0  0  0  0  0  0  0  0  0  0  0  0
    0.1213    1.7956   -0.9877 H   0  0  0  0  0  0  0  0  0  0  0  0
    0.8456    1.8091    0.4751 H   0  0  0  0  0  0  0  0  0  0  0  0
   -0.8193    2.0261    0.3862 H   0  0  0  0  0  0  0  0  0  0  0  0
    0.0000    0.0000    0.0000 C   0  0  0  0  0  0  0  0  0  0  0  0
   -1.0919   -0.5936    0.0000 O   0  0  0  0  0  1  0  0  0  0  0  0
    1.0919   -0.5951    0.0000 O   0  0  0  0  0  0  0  0  0  0  0  0
   -4.1019   -0.0288    2.2629 C   0  0  0  0  0  0  0  0  0  0  0  0
   -4.8294   -0.5470    2.7188 H   0  0  0  0  0  0  0  0  0  0  0  0
   -4.4470    0.2490    1.2669 H   0  0  0  0  0  0  0  0  0  0  0  0
   -3.8884    0.8586    2.8588 H   0  0  0  0  0  0  0  0  0  0  0  0
   -2.7953   -0.8074    2.0923 C   0  0  0  0  0  0  0  0  0  0  0  0
   -2.2639   -0.3613    1.3902 H   0  0  0  0  0  0  0  0  0  0  0  0
   -2.3264   -0.8105    2.9593 H   0  0  0  0  0  0  0  0  0  0  0  0
   -2.9923   -2.2632    1.6668 C   0  0  0  0  0  0  0  0  0  0  0  0
   -3.1964   -2.2911    0.6847 H   0  0  0  0  0  0  0  0  0  0  0  0
   -2.1043   -2.8636    1.8645 H   0  0  0  0  0  0  0  0  0  0  0  0
   -3.8194   -2.7526    2.1813 H   0  0  0  0  0  0  0  0  0  0  0  0
  1  5  1  0
  5  6  1  0
  5  7  2  0
  1  2  1  0
  1  3  1  0
  1  4  1  0
  8 12  1  0
 12 15  1  0
  8  9  1  0
  8 10  1  0
  8 11  1  0
 12 13  1  0
 12 14  1  0
 15 16  1  0
 15 17  1  0
 15 18  1  0
M  CHG  1   6  -1
M  END
>  <PDB_ID>  (134) 
pdb2dcl

>  <RESIDUE_NAME>  (134) 
GLU   LEU

>  <FRAG_NAME>  (134) 
ACET   PRPA

>  <FRAG_ATOM_NUM>  (134) 
fragi: 7  fragj: 11

>  <atom.prop.CHAIN_ID>  (134) 
A A A A A A A Z Z Z Z Z Z Z Z Z Z Z

>  <atom.prop.IS_HEAVY_ATOM>  (134) 
1 0 0 0 1 1 1 1 0 0 0 1 0 0 1 0 0 0

>  <DIFUSE_FUNC_ATOM>  (134) 
atom 6   atom 7   

>  <FINAL_SINGLE_POINT_ENERGY>  (134) 
0

>  <NONCOV_INTER_ENERGY_QM>  (134) 
0

>  <FF_Energy>  (134) 
27.65

>  <QM_Energy>  (134) 
-0.3

>  <source>  (134) 
ACET_PRPA_01

>  <Index>  (134) 
20207

$$$$
ACET-pdb2dcl-A-GLU-18:PRPA-pdb2dcl-A-LEU-70
     RDKit          3D

 18 16  0  0  0  0  0  0  0  0999 V2000
    0.0490    1.5224   -0.0385 C   0  0  0  0  0  0  0  0  0  0  0  0
    0.1213    1.7956   -0.9877 H   0  0  0  0  0  0  0  0  0  0  0  0
    0.8456    1.8091    0.4751 H   0  0  0  0  0  0  0  0  0  0  0  0
   -0.8193    2.0261    0.3862 H   0  0  0  0  0  0  0  0  0  0  0  0
    0.0000    0.0000    0.0000 C   0  0  0  0  0  0  0  0  0  0  0  0
   -1.0919   -0.5936    0.0000 O   0  0  0  0  0  1  0  0  0  0  0  0
    1.0919   -0.5951    0.0000 O   0  0  0  0  0  0  0  0  0  0  0  0
   -2.7953   -0.8074    2.0923 C   0  0  0  0  0  0  0  0  0  0  0  0
   -2.2639   -0.3613    1.3902 H   0  0  0  0  0  0  0  0  0  0  0  0
   -2.3264   -0.8105    2.9593 H   0  0  0  0  0  0  0  0  0  0  0  0
   -3.7258   -0.2529    2.2138 H   0  0  0  0  0  0  0  0  0  0  0  0
   -2.9923   -2.2632    1.6668 C   0  0  0  0  0  0  0  0  0  0  0  0
   -3.1964   -2.2911    0.6847 H   0  0  0  0  0  0  0  0  0  0  0  0
   -3.8194   -2.7526    2.1813 H   0  0  0  0  0  0  0  0  0  0  0  0
   -1.7474   -3.1049    1.9438 C   0  0  0  0  0  0  0  0  0  0  0  0
   -1.5456   -3.0859    2.9227 H   0  0  0  0  0  0  0  0  0  0  0  0
   -1.9130   -4.0466    1.6535 H   0  0  0  0  0  0  0  0  0  0  0  0
   -0.9731   -2.7287    1.4353 H   0  0  0  0  0  0  0  0  0  0  0  0
  1  5  1  0
  5  6  1  0
  5  7  2  0
  1  2  1  0
  1  3  1  0
  1  4  1  0
  8 12  1  0
 12 15  1  0
  8  9  1  0
  8 10  1  0
  8 11  1  0
 12 13  1  0
 12 14  1  0
 15 16  1  0
 15 17  1  0
 15 18  1  0
M  CHG  1   6  -1
M  END
>  <PDB_ID>  (135) 
pdb2dcl

>  <RESIDUE_NAME>  (135) 
GLU   LEU

>  <FRAG_NAME>  (135) 
ACET   PRPA

>  <FRAG_ATOM_NUM>  (135) 
fragi: 7  fragj: 11

>  <atom.prop.CHAIN_ID>  (135) 
A A A A A A A Z Z Z Z Z Z Z Z Z Z Z

>  <atom.prop.IS_HEAVY_ATOM>  (135) 
1 0 0 0 1 1 1 1 0 0 0 1 0 0 1 0 0 0

>  <DIFUSE_FUNC_ATOM>  (135) 
atom 6   atom 7   

>  <FINAL_SINGLE_POINT_ENERGY>  (135) 
0

>  <NONCOV_INTER_ENERGY_QM>  (135) 
0

>  <FF_Energy>  (135) 
25.11

>  <QM_Energy>  (135) 
-1.34

>  <source>  (135) 
ACET_PRPA_01

>  <Index>  (135) 
20219

$$$$
ACET-pdb2dcl-A-GLU-18:PRPA-pdb2dcl-A-LEU-70
     RDKit          3D

 18 16  0  0  0  0  0  0  0  0999 V2000
    0.0490    1.5224   -0.0385 C   0  0  0  0  0  0  0  0  0  0  0  0
    0.1213    1.7956   -0.9877 H   0  0  0  0  0  0  0  0  0  0  0  0
    0.8456    1.8091    0.4751 H   0  0  0  0  0  0  0  0  0  0  0  0
   -0.8193    2.0261    0.3862 H   0  0  0  0  0  0  0  0  0  0  0  0
    0.0000    0.0000    0.0000 C   0  0  0  0  0  0  0  0  0  0  0  0
   -1.0919   -0.5936    0.0000 O   0  0  0  0  0  1  0  0  0  0  0  0
    1.0919   -0.5951    0.0000 O   0  0  0  0  0  0  0  0  0  0  0  0
   -2.7953   -0.8074    2.0923 C   0  0  0  0  0  0  0  0  0  0  0  0
   -2.2639   -0.3613    1.3902 H   0  0  0  0  0  0  0  0  0  0  0  0
   -2.3264   -0.8105    2.9593 H   0  0  0  0  0  0  0  0  0  0  0  0
   -3.7258   -0.2529    2.2138 H   0  0  0  0  0  0  0  0  0  0  0  0
   -2.9923   -2.2632    1.6668 C   0  0  0  0  0  0  0  0  0  0  0  0
   -3.1964   -2.2911    0.6847 H   0  0  0  0  0  0  0  0  0  0  0  0
   -2.1043   -2.8636    1.8645 H   0  0  0  0  0  0  0  0  0  0  0  0
   -4.1513   -2.9488    2.3877 C   0  0  0  0  0  0  0  0  0  0  0  0
   -5.0002   -2.4587    2.1925 H   0  0  0  0  0  0  0  0  0  0  0  0
   -4.2284   -3.8933    2.0688 H   0  0  0  0  0  0  0  0  0  0  0  0
   -3.9800   -2.9416    3.3728 H   0  0  0  0  0  0  0  0  0  0  0  0
  1  5  1  0
  5  6  1  0
  5  7  2  0
  1  2  1  0
  1  3  1  0
  1  4  1  0
  8 12  1  0
 12 15  1  0
  8  9  1  0
  8 10  1  0
  8 11  1  0
 12 13  1  0
 12 14  1  0
 15 16  1  0
 15 17  1  0
 15 18  1  0
M  CHG  1   6  -1
M  END
>  <PDB_ID>  (136) 
pdb2dcl

>  <RESIDUE_NAME>  (136) 
GLU   LEU

>  <FRAG_NAME>  (136) 
ACET   PRPA

>  <FRAG_ATOM_NUM>  (136) 
fragi: 7  fragj: 11

>  <atom.prop.CHAIN_ID>  (136) 
A A A A A A A Z Z Z Z Z Z Z Z Z Z Z

>  <atom.prop.IS_HEAVY_ATOM>  (136) 
1 0 0 0 1 1 1 1 0 0 0 1 0 0 1 0 0 0

>  <DIFUSE_FUNC_ATOM>  (136) 
atom 6   atom 7   

>  <FINAL_SINGLE_POINT_ENERGY>  (136) 
0

>  <NONCOV_INTER_ENERGY_QM>  (136) 
0

>  <FF_Energy>  (136) 
30.39

>  <QM_Energy>  (136) 
0.47

>  <source>  (136) 
ACET_PRPA_01

>  <Index>  (136) 
20230

$$$$
ACET-pdb1cjy-A-ASP-242:PRPA-pdb1cjy-A-LYS-246
     RDKit          3D

 18 16  0  0  0  0  0  0  0  0999 V2000
   -0.0077    1.5056    0.0101 C   0  0  0  0  0  0  0  0  0  0  0  0
    0.8692    1.8361   -0.3200 H   0  0  0  0  0  0  0  0  0  0  0  0
   -0.1736    1.8229    0.9363 H   0  0  0  0  0  0  0  0  0  0  0  0
   -0.7855    1.9196   -0.6315 H   0  0  0  0  0  0  0  0  0  0  0  0
    0.0000    0.0000    0.0000 C   0  0  0  0  0  0  0  0  0  0  0  0
   -1.1065   -0.5852   -0.0000 O   0  0  0  0  0  1  0  0  0  0  0  0
    1.1065   -0.5924    0.0000 O   0  0  0  0  0  0  0  0  0  0  0  0
    1.4039    2.7019    2.7865 C   0  0  0  0  0  0  0  0  0  0  0  0
    1.6479    2.7232    3.7577 H   0  0  0  0  0  0  0  0  0  0  0  0
    0.4078    2.6497    2.6969 H   0  0  0  0  0  0  0  0  0  0  0  0
    1.7533    3.6203    2.3148 H   0  0  0  0  0  0  0  0  0  0  0  0
    2.0212    1.4706    2.1495 C   0  0  0  0  0  0  0  0  0  0  0  0
    1.7777    1.4550    1.1783 H   0  0  0  0  0  0  0  0  0  0  0  0
    3.0173    1.5272    2.2391 H   0  0  0  0  0  0  0  0  0  0  0  0
    1.5502    0.1859    2.7885 C   0  0  0  0  0  0  0  0  0  0  0  0
    1.7949    0.1921    3.7585 H   0  0  0  0  0  0  0  0  0  0  0  0
    0.5557    0.1190    2.6978 H   0  0  0  0  0  0  0  0  0  0  0  0
    2.0121   -0.6762    2.3074 H   0  0  0  0  0  0  0  0  0  0  0  0
  1  5  1  0
  5  6  1  0
  5  7  2  0
  1  2  1  0
  1  3  1  0
  1  4  1  0
  8 12  1  0
 12 15  1  0
  8  9  1  0
  8 10  1  0
  8 11  1  0
 12 13  1  0
 12 14  1  0
 15 16  1  0
 15 17  1  0
 15 18  1  0
M  CHG  1   6  -1
M  END
>  <PDB_ID>  (137) 
pdb1cjy

>  <RESIDUE_NAME>  (137) 
ASP   LYS

>  <FRAG_NAME>  (137) 
ACET   PRPA

>  <FRAG_ATOM_NUM>  (137) 
fragi: 7  fragj: 11

>  <atom.prop.CHAIN_ID>  (137) 
A A A A A A A Z Z Z Z Z Z Z Z Z Z Z

>  <atom.prop.IS_HEAVY_ATOM>  (137) 
1 0 0 0 1 1 1 1 0 0 0 1 0 0 1 0 0 0

>  <DIFUSE_FUNC_ATOM>  (137) 
atom 6   atom 7   

>  <FINAL_SINGLE_POINT_ENERGY>  (137) 
0

>  <NONCOV_INTER_ENERGY_QM>  (137) 
0

>  <FF_Energy>  (137) 
21.88

>  <QM_Energy>  (137) 
2.33

>  <source>  (137) 
ACET_PRPA_01

>  <Index>  (137) 
20679

$$$$
ACET-pdb1bvu-C-ASP-243:PRPA-pdb1bvu-C-VAL-269
     RDKit          3D

 18 16  0  0  0  0  0  0  0  0999 V2000
    0.0034    1.4921    0.1262 C   0  0  0  0  0  0  0  0  0  0  0  0
   -0.4434    1.8885   -0.6697 H   0  0  0  0  0  0  0  0  0  0  0  0
    0.9423    1.8128    0.1910 H   0  0  0  0  0  0  0  0  0  0  0  0
   -0.5293    1.8339    1.0136 H   0  0  0  0  0  0  0  0  0  0  0  0
    0.0000    0.0000    0.0000 C   0  0  0  0  0  0  0  0  0  0  0  0
   -1.0982   -0.5930   -0.0000 O   0  0  0  0  0  1  0  0  0  0  0  0
    1.0982   -0.5872   -0.0000 O   0  0  0  0  0  0  0  0  0  0  0  0
    4.9105   -1.6423    0.2550 C   0  0  0  0  0  0  0  0  0  0  0  0
    5.6937   -1.5876   -0.3578 H   0  0  0  0  0  0  0  0  0  0  0  0
    4.0252   -1.8619   -0.3416 H   0  0  0  0  0  0  0  0  0  0  0  0
    5.0724   -2.4745    0.9402 H   0  0  0  0  0  0  0  0  0  0  0  0
    4.6555   -0.3879    1.0935 C   0  0  0  0  0  0  0  0  0  0  0  0
    5.2962   -0.3904    1.8543 H   0  0  0  0  0  0  0  0  0  0  0  0
    4.8674    0.5060    0.5068 H   0  0  0  0  0  0  0  0  0  0  0  0
    3.1975   -0.3846    1.5966 C   0  0  0  0  0  0  0  0  0  0  0  0
    3.1534    0.1348    2.4456 H   0  0  0  0  0  0  0  0  0  0  0  0
    2.6210    0.0398    0.9036 H   0  0  0  0  0  0  0  0  0  0  0  0
    2.9118   -1.3259    1.7535 H   0  0  0  0  0  0  0  0  0  0  0  0
  1  5  1  0
  5  6  1  0
  5  7  2  0
  1  2  1  0
  1  3  1  0
  1  4  1  0
  8 12  1  0
 12 15  1  0
  8  9  1  0
  8 10  1  0
  8 11  1  0
 12 13  1  0
 12 14  1  0
 15 16  1  0
 15 17  1  0
 15 18  1  0
M  CHG  1   6  -1
M  END
>  <PDB_ID>  (138) 
pdb1bvu

>  <RESIDUE_NAME>  (138) 
ASP   VAL

>  <FRAG_NAME>  (138) 
ACET   PRPA

>  <FRAG_ATOM_NUM>  (138) 
fragi: 7  fragj: 11

>  <atom.prop.CHAIN_ID>  (138) 
A A A A A A A Z Z Z Z Z Z Z Z Z Z Z

>  <atom.prop.IS_HEAVY_ATOM>  (138) 
1 0 0 0 1 1 1 1 0 0 0 1 0 0 1 0 0 0

>  <DIFUSE_FUNC_ATOM>  (138) 
atom 6   atom 7   

>  <FINAL_SINGLE_POINT_ENERGY>  (138) 
0

>  <NONCOV_INTER_ENERGY_QM>  (138) 
0

>  <FF_Energy>  (138) 
19.13

>  <QM_Energy>  (138) 
2.58

>  <source>  (138) 
ACET_PRPA_01

>  <Index>  (138) 
20694

$$$$
ACET-pdb1bvu-C-ASP-243:PRPA-pdb1bvu-C-VAL-269
     RDKit          3D

 18 16  0  0  0  0  0  0  0  0999 V2000
    0.0034    1.4921    0.1262 C   0  0  0  0  0  0  0  0  0  0  0  0
   -0.4434    1.8885   -0.6697 H   0  0  0  0  0  0  0  0  0  0  0  0
    0.9423    1.8128    0.1910 H   0  0  0  0  0  0  0  0  0  0  0  0
   -0.5293    1.8339    1.0136 H   0  0  0  0  0  0  0  0  0  0  0  0
    0.0000    0.0000    0.0000 C   0  0  0  0  0  0  0  0  0  0  0  0
   -1.0982   -0.5930   -0.0000 O   0  0  0  0  0  1  0  0  0  0  0  0
    1.0982   -0.5872   -0.0000 O   0  0  0  0  0  0  0  0  0  0  0  0
    4.9522    0.8641    0.2717 C   0  0  0  0  0  0  0  0  0  0  0  0
    4.1189    1.1610   -0.1920 H   0  0  0  0  0  0  0  0  0  0  0  0
    5.2746    1.5897    0.8785 H   0  0  0  0  0  0  0  0  0  0  0  0
    5.6570    0.6568   -0.4059 H   0  0  0  0  0  0  0  0  0  0  0  0
    4.6555   -0.3879    1.0935 C   0  0  0  0  0  0  0  0  0  0  0  0
    5.2962   -0.3904    1.8543 H   0  0  0  0  0  0  0  0  0  0  0  0
    4.8372   -1.2814    0.4963 H   0  0  0  0  0  0  0  0  0  0  0  0
    3.1975   -0.3846    1.5966 C   0  0  0  0  0  0  0  0  0  0  0  0
    3.1534    0.1348    2.4456 H   0  0  0  0  0  0  0  0  0  0  0  0
    2.6210    0.0398    0.9036 H   0  0  0  0  0  0  0  0  0  0  0  0
    2.9118   -1.3259    1.7535 H   0  0  0  0  0  0  0  0  0  0  0  0
  1  5  1  0
  5  6  1  0
  5  7  2  0
  1  2  1  0
  1  3  1  0
  1  4  1  0
  8 12  1  0
 12 15  1  0
  8  9  1  0
  8 10  1  0
  8 11  1  0
 12 13  1  0
 12 14  1  0
 15 16  1  0
 15 17  1  0
 15 18  1  0
M  CHG  1   6  -1
M  END
>  <PDB_ID>  (139) 
pdb1bvu

>  <RESIDUE_NAME>  (139) 
ASP   VAL

>  <FRAG_NAME>  (139) 
ACET   PRPA

>  <FRAG_ATOM_NUM>  (139) 
fragi: 7  fragj: 11

>  <atom.prop.CHAIN_ID>  (139) 
A A A A A A A Z Z Z Z Z Z Z Z Z Z Z

>  <atom.prop.IS_HEAVY_ATOM>  (139) 
1 0 0 0 1 1 1 1 0 0 0 1 0 0 1 0 0 0

>  <DIFUSE_FUNC_ATOM>  (139) 
atom 6   atom 7   

>  <FINAL_SINGLE_POINT_ENERGY>  (139) 
0

>  <NONCOV_INTER_ENERGY_QM>  (139) 
0

>  <FF_Energy>  (139) 
19.12

>  <QM_Energy>  (139) 
2.72

>  <source>  (139) 
ACET_PRPA_01

>  <Index>  (139) 
20696

$$$$
ACET-pdb1bu6-Y-ASP-424:PRPA-pdb1bu6-Y-ILE-474
     RDKit          3D

 18 16  0  0  0  0  0  0  0  0999 V2000
    0.2335    1.4835    0.0260 C   0  0  0  0  0  0  0  0  0  0  0  0
    0.7855    1.7462   -0.7618 H   0  0  0  0  0  0  0  0  0  0  0  0
    0.7050    1.7306    0.8685 H   0  0  0  0  0  0  0  0  0  0  0  0
   -0.6836    2.0712   -0.0141 H   0  0  0  0  0  0  0  0  0  0  0  0
    0.0000    0.0000    0.0000 C   0  0  0  0  0  0  0  0  0  0  0  0
   -1.1366   -0.4755    0.0000 O   0  0  0  0  0  1  0  0  0  0  0  0
    1.1366   -0.6971   -0.0000 O   0  0  0  0  0  0  0  0  0  0  0  0
    1.0917    1.8434    4.6577 C   0  0  0  0  0  0  0  0  0  0  0  0
    0.6740    2.2086    5.4647 H   0  0  0  0  0  0  0  0  0  0  0  0
    1.9920    1.5005    4.8375 H   0  0  0  0  0  0  0  0  0  0  0  0
    1.1739    2.6423    3.9208 H   0  0  0  0  0  0  0  0  0  0  0  0
    0.2424    0.7601    4.0860 C   0  0  0  0  0  0  0  0  0  0  0  0
    0.8300   -0.0283    3.8616 H   0  0  0  0  0  0  0  0  0  0  0  0
   -0.5192    0.4110    4.7833 H   0  0  0  0  0  0  0  0  0  0  0  0
   -0.4606    1.4603    2.9330 C   0  0  0  0  0  0  0  0  0  0  0  0
    0.2187    1.8004    2.2854 H   0  0  0  0  0  0  0  0  0  0  0  0
   -1.0669    0.8152    2.4704 H   0  0  0  0  0  0  0  0  0  0  0  0
   -0.9974    2.2264    3.2845 H   0  0  0  0  0  0  0  0  0  0  0  0
  1  5  1  0
  5  6  1  0
  5  7  2  0
  1  2  1  0
  1  3  1  0
  1  4  1  0
  8 12  1  0
 12 15  1  0
  8  9  1  0
  8 10  1  0
  8 11  1  0
 12 13  1  0
 12 14  1  0
 15 16  1  0
 15 17  1  0
 15 18  1  0
M  CHG  1   6  -1
M  END
>  <PDB_ID>  (140) 
pdb1bu6

>  <RESIDUE_NAME>  (140) 
ASP   ILE

>  <FRAG_NAME>  (140) 
ACET   PRPA

>  <FRAG_ATOM_NUM>  (140) 
fragi: 7  fragj: 11

>  <atom.prop.CHAIN_ID>  (140) 
A A A A A A A Z Z Z Z Z Z Z Z Z Z Z

>  <atom.prop.IS_HEAVY_ATOM>  (140) 
1 0 0 0 1 1 1 1 0 0 0 1 0 0 1 0 0 0

>  <DIFUSE_FUNC_ATOM>  (140) 
atom 6   atom 7   

>  <FINAL_SINGLE_POINT_ENERGY>  (140) 
0

>  <NONCOV_INTER_ENERGY_QM>  (140) 
0

>  <FF_Energy>  (140) 
31.99

>  <QM_Energy>  (140) 
4.35

>  <source>  (140) 
ACET_PRPA_01

>  <Index>  (140) 
21070

$$$$
ACET-pdb2dc5-A-ASP-183:PRPA-pdb2dc5-A-LYS-180
     RDKit          3D

 18 16  0  0  0  0  0  0  0  0999 V2000
   -0.0059    1.5160    0.0145 C   0  0  0  0  0  0  0  0  0  0  0  0
    0.7776    1.8437   -0.4994 H   0  0  0  0  0  0  0  0  0  0  0  0
    0.0371    1.8272    0.9552 H   0  0  0  0  0  0  0  0  0  0  0  0
   -0.9049    1.9331   -0.4392 H   0  0  0  0  0  0  0  0  0  0  0  0
    0.0000    0.0000    0.0000 C   0  0  0  0  0  0  0  0  0  0  0  0
   -1.0957   -0.6009    0.0000 O   0  0  0  0  0  1  0  0  0  0  0  0
    1.0957   -0.5964   -0.0000 O   0  0  0  0  0  0  0  0  0  0  0  0
    2.1303   -1.4056   -3.0079 C   0  0  0  0  0  0  0  0  0  0  0  0
    1.4474   -1.5778   -2.2563 H   0  0  0  0  0  0  0  0  0  0  0  0
    2.2590   -2.3295   -3.5719 H   0  0  0  0  0  0  0  0  0  0  0  0
    1.8010   -0.5310   -3.5689 H   0  0  0  0  0  0  0  0  0  0  0  0
    3.4455   -1.0793   -2.2881 C   0  0  0  0  0  0  0  0  0  0  0  0
    3.6813   -1.8597   -1.7095 H   0  0  0  0  0  0  0  0  0  0  0  0
    4.1538   -0.9561   -2.9840 H   0  0  0  0  0  0  0  0  0  0  0  0
    3.3949    0.1625   -1.4254 C   0  0  0  0  0  0  0  0  0  0  0  0
    3.1856    0.9569   -2.0052 H   0  0  0  0  0  0  0  0  0  0  0  0
    2.6642    0.0600   -0.7435 H   0  0  0  0  0  0  0  0  0  0  0  0
    4.3368    0.3435   -0.9075 H   0  0  0  0  0  0  0  0  0  0  0  0
  1  5  1  0
  5  6  1  0
  5  7  2  0
  1  2  1  0
  1  3  1  0
  1  4  1  0
  8 12  1  0
 12 15  1  0
  8  9  1  0
  8 10  1  0
  8 11  1  0
 12 13  1  0
 12 14  1  0
 15 16  1  0
 15 17  1  0
 15 18  1  0
M  CHG  1   6  -1
M  END
>  <PDB_ID>  (141) 
pdb2dc5

>  <RESIDUE_NAME>  (141) 
ASP   LYS

>  <FRAG_NAME>  (141) 
ACET   PRPA

>  <FRAG_ATOM_NUM>  (141) 
fragi: 7  fragj: 11

>  <atom.prop.CHAIN_ID>  (141) 
A A A A A A A Z Z Z Z Z Z Z Z Z Z Z

>  <atom.prop.IS_HEAVY_ATOM>  (141) 
1 0 0 0 1 1 1 1 0 0 0 1 0 0 1 0 0 0

>  <DIFUSE_FUNC_ATOM>  (141) 
atom 6   atom 7   

>  <FINAL_SINGLE_POINT_ENERGY>  (141) 
0

>  <NONCOV_INTER_ENERGY_QM>  (141) 
0

>  <FF_Energy>  (141) 
19.27

>  <QM_Energy>  (141) 
-1.91

>  <source>  (141) 
ACET_PRPA_01

>  <Index>  (141) 
21254

$$$$
ACET-pdb2dc5-A-ASP-183:PRPA-pdb2dc5-A-LYS-180
     RDKit          3D

 18 16  0  0  0  0  0  0  0  0999 V2000
   -0.0059    1.5160    0.0145 C   0  0  0  0  0  0  0  0  0  0  0  0
    0.7776    1.8437   -0.4994 H   0  0  0  0  0  0  0  0  0  0  0  0
    0.0371    1.8272    0.9552 H   0  0  0  0  0  0  0  0  0  0  0  0
   -0.9049    1.9331   -0.4392 H   0  0  0  0  0  0  0  0  0  0  0  0
    0.0000    0.0000    0.0000 C   0  0  0  0  0  0  0  0  0  0  0  0
   -1.0957   -0.6009    0.0000 O   0  0  0  0  0  1  0  0  0  0  0  0
    1.0957   -0.5964   -0.0000 O   0  0  0  0  0  0  0  0  0  0  0  0
    3.4455   -1.0793   -2.2881 C   0  0  0  0  0  0  0  0  0  0  0  0
    3.6813   -1.8597   -1.7095 H   0  0  0  0  0  0  0  0  0  0  0  0
    4.1538   -0.9561   -2.9840 H   0  0  0  0  0  0  0  0  0  0  0  0
    2.5112   -1.3111   -2.7994 H   0  0  0  0  0  0  0  0  0  0  0  0
    3.3949    0.1625   -1.4254 C   0  0  0  0  0  0  0  0  0  0  0  0
    3.1856    0.9569   -2.0052 H   0  0  0  0  0  0  0  0  0  0  0  0
    2.6642    0.0600   -0.7435 H   0  0  0  0  0  0  0  0  0  0  0  0
    4.7028    0.4137   -0.7063 C   0  0  0  0  0  0  0  0  0  0  0  0
    4.9197   -0.3713   -0.1457 H   0  0  0  0  0  0  0  0  0  0  0  0
    5.4115    0.5864   -1.3741 H   0  0  0  0  0  0  0  0  0  0  0  0
    4.6055    1.2885   -0.0633 H   0  0  0  0  0  0  0  0  0  0  0  0
  1  5  1  0
  5  6  1  0
  5  7  2  0
  1  2  1  0
  1  3  1  0
  1  4  1  0
  8 12  1  0
 12 15  1  0
  8  9  1  0
  8 10  1  0
  8 11  1  0
 12 13  1  0
 12 14  1  0
 15 16  1  0
 15 17  1  0
 15 18  1  0
M  CHG  1   6  -1
M  END
>  <PDB_ID>  (142) 
pdb2dc5

>  <RESIDUE_NAME>  (142) 
ASP   LYS

>  <FRAG_NAME>  (142) 
ACET   PRPA

>  <FRAG_ATOM_NUM>  (142) 
fragi: 7  fragj: 11

>  <atom.prop.CHAIN_ID>  (142) 
A A A A A A A Z Z Z Z Z Z Z Z Z Z Z

>  <atom.prop.IS_HEAVY_ATOM>  (142) 
1 0 0 0 1 1 1 1 0 0 0 1 0 0 1 0 0 0

>  <DIFUSE_FUNC_ATOM>  (142) 
atom 6   atom 7   

>  <FINAL_SINGLE_POINT_ENERGY>  (142) 
0

>  <NONCOV_INTER_ENERGY_QM>  (142) 
0

>  <FF_Energy>  (142) 
21.8

>  <QM_Energy>  (142) 
-0.38

>  <source>  (142) 
ACET_PRPA_01

>  <Index>  (142) 
21265

$$$$
ACET-pdb2d0i-A-GLU-247:PRPA-pdb2d0i-A-LYS-250
     RDKit          3D

 18 16  0  0  0  0  0  0  0  0999 V2000
    0.0022    1.5189   -0.0054 C   0  0  0  0  0  0  0  0  0  0  0  0
   -0.4189    1.8111   -0.8426 H   0  0  0  0  0  0  0  0  0  0  0  0
    0.9361    1.8116    0.0680 H   0  0  0  0  0  0  0  0  0  0  0  0
   -0.5600    1.9382    0.8290 H   0  0  0  0  0  0  0  0  0  0  0  0
    0.0000    0.0000    0.0000 C   0  0  0  0  0  0  0  0  0  0  0  0
   -1.0945   -0.6012   -0.0000 O   0  0  0  0  0  1  0  0  0  0  0  0
    1.0945   -0.5954    0.0000 O   0  0  0  0  0  0  0  0  0  0  0  0
    3.5553   -0.3554    4.4656 C   0  0  0  0  0  0  0  0  0  0  0  0
    4.3543   -0.8647    4.1434 H   0  0  0  0  0  0  0  0  0  0  0  0
    2.9739   -0.9625    5.0091 H   0  0  0  0  0  0  0  0  0  0  0  0
    3.9055    0.4466    5.1154 H   0  0  0  0  0  0  0  0  0  0  0  0
    2.7698    0.1145    3.2655 C   0  0  0  0  0  0  0  0  0  0  0  0
    1.8459    0.3687    3.5512 H   0  0  0  0  0  0  0  0  0  0  0  0
    3.2247    0.9055    2.8583 H   0  0  0  0  0  0  0  0  0  0  0  0
    2.6687   -0.9845    2.2148 C   0  0  0  0  0  0  0  0  0  0  0  0
    2.1801   -0.6272    1.4225 H   0  0  0  0  0  0  0  0  0  0  0  0
    3.5892   -1.2622    1.9499 H   0  0  0  0  0  0  0  0  0  0  0  0
    2.1357   -1.8604    2.5847 H   0  0  0  0  0  0  0  0  0  0  0  0
  1  5  1  0
  5  6  1  0
  5  7  2  0
  1  2  1  0
  1  3  1  0
  1  4  1  0
  8 12  1  0
 12 15  1  0
  8  9  1  0
  8 10  1  0
  8 11  1  0
 12 13  1  0
 12 14  1  0
 15 16  1  0
 15 17  1  0
 15 18  1  0
M  CHG  1   6  -1
M  END
>  <PDB_ID>  (143) 
pdb2d0i

>  <RESIDUE_NAME>  (143) 
GLU   LYS

>  <FRAG_NAME>  (143) 
ACET   PRPA

>  <FRAG_ATOM_NUM>  (143) 
fragi: 7  fragj: 11

>  <atom.prop.CHAIN_ID>  (143) 
A A A A A A A Z Z Z Z Z Z Z Z Z Z Z

>  <atom.prop.IS_HEAVY_ATOM>  (143) 
1 0 0 0 1 1 1 1 0 0 0 1 0 0 1 0 0 0

>  <DIFUSE_FUNC_ATOM>  (143) 
atom 6   atom 7   

>  <FINAL_SINGLE_POINT_ENERGY>  (143) 
0

>  <NONCOV_INTER_ENERGY_QM>  (143) 
0

>  <FF_Energy>  (143) 
29.37

>  <QM_Energy>  (143) 
1.28

>  <source>  (143) 
ACET_PRPA_01

>  <Index>  (143) 
21340

$$$$
ACET-pdb2d0i-A-GLU-247:PRPA-pdb2d0i-A-LYS-250
     RDKit          3D

 18 16  0  0  0  0  0  0  0  0999 V2000
    0.0022    1.5189   -0.0054 C   0  0  0  0  0  0  0  0  0  0  0  0
   -0.4189    1.8111   -0.8426 H   0  0  0  0  0  0  0  0  0  0  0  0
    0.9361    1.8116    0.0680 H   0  0  0  0  0  0  0  0  0  0  0  0
   -0.5600    1.9382    0.8290 H   0  0  0  0  0  0  0  0  0  0  0  0
    0.0000    0.0000    0.0000 C   0  0  0  0  0  0  0  0  0  0  0  0
   -1.0945   -0.6012   -0.0000 O   0  0  0  0  0  1  0  0  0  0  0  0
    1.0945   -0.5954    0.0000 O   0  0  0  0  0  0  0  0  0  0  0  0
    2.7698    0.1145    3.2655 C   0  0  0  0  0  0  0  0  0  0  0  0
    1.8459    0.3687    3.5512 H   0  0  0  0  0  0  0  0  0  0  0  0
    3.2247    0.9055    2.8583 H   0  0  0  0  0  0  0  0  0  0  0  0
    3.3371   -0.2248    4.1322 H   0  0  0  0  0  0  0  0  0  0  0  0
    2.6687   -0.9845    2.2148 C   0  0  0  0  0  0  0  0  0  0  0  0
    2.1801   -0.6272    1.4225 H   0  0  0  0  0  0  0  0  0  0  0  0
    3.5892   -1.2622    1.9499 H   0  0  0  0  0  0  0  0  0  0  0  0
    1.9242   -2.2079    2.7315 C   0  0  0  0  0  0  0  0  0  0  0  0
    2.4390   -2.6034    3.4928 H   0  0  0  0  0  0  0  0  0  0  0  0
    1.0199   -1.9258    3.0540 H   0  0  0  0  0  0  0  0  0  0  0  0
    1.8089   -2.9564    1.9475 H   0  0  0  0  0  0  0  0  0  0  0  0
  1  5  1  0
  5  6  1  0
  5  7  2  0
  1  2  1  0
  1  3  1  0
  1  4  1  0
  8 12  1  0
 12 15  1  0
  8  9  1  0
  8 10  1  0
  8 11  1  0
 12 13  1  0
 12 14  1  0
 15 16  1  0
 15 17  1  0
 15 18  1  0
M  CHG  1   6  -1
M  END
>  <PDB_ID>  (144) 
pdb2d0i

>  <RESIDUE_NAME>  (144) 
GLU   LYS

>  <FRAG_NAME>  (144) 
ACET   PRPA

>  <FRAG_ATOM_NUM>  (144) 
fragi: 7  fragj: 11

>  <atom.prop.CHAIN_ID>  (144) 
A A A A A A A Z Z Z Z Z Z Z Z Z Z Z

>  <atom.prop.IS_HEAVY_ATOM>  (144) 
1 0 0 0 1 1 1 1 0 0 0 1 0 0 1 0 0 0

>  <DIFUSE_FUNC_ATOM>  (144) 
atom 6   atom 7   

>  <FINAL_SINGLE_POINT_ENERGY>  (144) 
0

>  <NONCOV_INTER_ENERGY_QM>  (144) 
0

>  <FF_Energy>  (144) 
34.71

>  <QM_Energy>  (144) 
0.18

>  <source>  (144) 
ACET_PRPA_01

>  <Index>  (144) 
21352

$$$$
ACET-pdb1cp2-A-ASP-194:PRPA-pdb1cp2-A-LYS-198
     RDKit          3D

 18 16  0  0  0  0  0  0  0  0999 V2000
   -0.0263    1.5307    0.0591 C   0  0  0  0  0  0  0  0  0  0  0  0
    0.0202    1.8800   -0.8636 H   0  0  0  0  0  0  0  0  0  0  0  0
    0.7389    1.8367    0.6015 H   0  0  0  0  0  0  0  0  0  0  0  0
   -0.9425    1.8996    0.5201 H   0  0  0  0  0  0  0  0  0  0  0  0
    0.0000    0.0000    0.0000 C   0  0  0  0  0  0  0  0  0  0  0  0
   -1.0874   -0.6299    0.0000 O   0  0  0  0  0  1  0  0  0  0  0  0
    1.0874   -0.5946   -0.0000 O   0  0  0  0  0  0  0  0  0  0  0  0
   -1.4984   -1.9393    3.5791 C   0  0  0  0  0  0  0  0  0  0  0  0
   -1.9000   -2.7879    3.2214 H   0  0  0  0  0  0  0  0  0  0  0  0
   -1.8245   -1.1688    3.0247 H   0  0  0  0  0  0  0  0  0  0  0  0
   -1.8304   -1.7997    4.6079 H   0  0  0  0  0  0  0  0  0  0  0  0
    0.0249   -2.0259    3.4481 C   0  0  0  0  0  0  0  0  0  0  0  0
    0.4294   -1.2243    3.8872 H   0  0  0  0  0  0  0  0  0  0  0  0
    0.3392   -2.8558    3.9065 H   0  0  0  0  0  0  0  0  0  0  0  0
    0.4978   -2.0697    1.9930 C   0  0  0  0  0  0  0  0  0  0  0  0
   -0.3165   -2.0746    1.3963 H   0  0  0  0  0  0  0  0  0  0  0  0
    1.0157   -1.2234    1.8034 H   0  0  0  0  0  0  0  0  0  0  0  0
    1.1198   -2.9374    1.7728 H   0  0  0  0  0  0  0  0  0  0  0  0
  1  5  1  0
  5  6  1  0
  5  7  2  0
  1  2  1  0
  1  3  1  0
  1  4  1  0
  8 12  1  0
 12 15  1  0
  8  9  1  0
  8 10  1  0
  8 11  1  0
 12 13  1  0
 12 14  1  0
 15 16  1  0
 15 17  1  0
 15 18  1  0
M  CHG  1   6  -1
M  END
>  <PDB_ID>  (145) 
pdb1cp2

>  <RESIDUE_NAME>  (145) 
ASP   LYS

>  <FRAG_NAME>  (145) 
ACET   PRPA

>  <FRAG_ATOM_NUM>  (145) 
fragi: 7  fragj: 11

>  <atom.prop.CHAIN_ID>  (145) 
A A A A A A A Z Z Z Z Z Z Z Z Z Z Z

>  <atom.prop.IS_HEAVY_ATOM>  (145) 
1 0 0 0 1 1 1 1 0 0 0 1 0 0 1 0 0 0

>  <DIFUSE_FUNC_ATOM>  (145) 
atom 6   atom 7   

>  <FINAL_SINGLE_POINT_ENERGY>  (145) 
0

>  <NONCOV_INTER_ENERGY_QM>  (145) 
0

>  <FF_Energy>  (145) 
27.36

>  <QM_Energy>  (145) 
5.21

>  <source>  (145) 
ACET_PRPA_01

>  <Index>  (145) 
21702

$$$$
ACET-pdb2dg7-A-GLU-60:PRPA-pdb2dg7-A-LYS-121
     RDKit          3D

 18 16  0  0  0  0  0  0  0  0999 V2000
    0.0014    1.5121    0.0026 C   0  0  0  0  0  0  0  0  0  0  0  0
   -0.4175    1.8116    0.8409 H   0  0  0  0  0  0  0  0  0  0  0  0
   -0.4996    1.8138   -0.7892 H   0  0  0  0  0  0  0  0  0  0  0  0
    1.0030    1.9395   -0.0463 H   0  0  0  0  0  0  0  0  0  0  0  0
    0.0000    0.0000    0.0000 C   0  0  0  0  0  0  0  0  0  0  0  0
   -1.1005   -0.5955    0.0000 O   0  0  0  0  0  1  0  0  0  0  0  0
    1.1005   -0.5883   -0.0000 O   0  0  0  0  0  0  0  0  0  0  0  0
    3.7199   -2.0350   -1.9867 C   0  0  0  0  0  0  0  0  0  0  0  0
    3.3410   -1.1209   -1.8076 H   0  0  0  0  0  0  0  0  0  0  0  0
    3.1510   -2.4871   -2.6812 H   0  0  0  0  0  0  0  0  0  0  0  0
    4.7344   -1.9297   -2.3709 H   0  0  0  0  0  0  0  0  0  0  0  0
    3.6585   -2.8484   -0.7000 C   0  0  0  0  0  0  0  0  0  0  0  0
    4.0778   -3.7284   -0.8570 H   0  0  0  0  0  0  0  0  0  0  0  0
    4.1170   -2.3498    0.0186 H   0  0  0  0  0  0  0  0  0  0  0  0
    2.2067   -3.0636   -0.2951 C   0  0  0  0  0  0  0  0  0  0  0  0
    1.6949   -2.2049   -0.4587 H   0  0  0  0  0  0  0  0  0  0  0  0
    1.8049   -3.7732   -0.8966 H   0  0  0  0  0  0  0  0  0  0  0  0
    2.0755   -3.3630    0.7448 H   0  0  0  0  0  0  0  0  0  0  0  0
  1  5  1  0
  5  6  1  0
  5  7  2  0
  1  2  1  0
  1  3  1  0
  1  4  1  0
  8 12  1  0
 12 15  1  0
  8  9  1  0
  8 10  1  0
  8 11  1  0
 12 13  1  0
 12 14  1  0
 15 16  1  0
 15 17  1  0
 15 18  1  0
M  CHG  1   6  -1
M  END
>  <PDB_ID>  (146) 
pdb2dg7

>  <RESIDUE_NAME>  (146) 
GLU   LYS

>  <FRAG_NAME>  (146) 
ACET   PRPA

>  <FRAG_ATOM_NUM>  (146) 
fragi: 7  fragj: 11

>  <atom.prop.CHAIN_ID>  (146) 
A A A A A A A Z Z Z Z Z Z Z Z Z Z Z

>  <atom.prop.IS_HEAVY_ATOM>  (146) 
1 0 0 0 1 1 1 1 0 0 0 1 0 0 1 0 0 0

>  <DIFUSE_FUNC_ATOM>  (146) 
atom 6   atom 7   

>  <FINAL_SINGLE_POINT_ENERGY>  (146) 
0

>  <NONCOV_INTER_ENERGY_QM>  (146) 
0

>  <FF_Energy>  (146) 
31.59

>  <QM_Energy>  (146) 
0.93

>  <source>  (146) 
ACET_PRPA_01

>  <Index>  (146) 
22047

$$$$
ACET-pdb1crx-A-ASP-157:PRPA-pdb1crx-A-ARG-154
     RDKit          3D

 18 16  0  0  0  0  0  0  0  0999 V2000
   -0.0084    1.5029   -0.0018 C   0  0  0  0  0  0  0  0  0  0  0  0
    0.6535    1.8294   -0.6676 H   0  0  0  0  0  0  0  0  0  0  0  0
    0.2239    1.8292    0.9069 H   0  0  0  0  0  0  0  0  0  0  0  0
   -0.9837    1.9105   -0.2678 H   0  0  0  0  0  0  0  0  0  0  0  0
    0.0000    0.0000    0.0000 C   0  0  0  0  0  0  0  0  0  0  0  0
   -1.1059   -0.5937    0.0000 O   0  0  0  0  0  1  0  0  0  0  0  0
    1.1059   -0.5827    0.0000 O   0  0  0  0  0  0  0  0  0  0  0  0
    2.3443    0.5193   -2.8265 C   0  0  0  0  0  0  0  0  0  0  0  0
    1.9112    0.6202   -1.9346 H   0  0  0  0  0  0  0  0  0  0  0  0
    1.6750    0.2138   -3.4986 H   0  0  0  0  0  0  0  0  0  0  0  0
    2.7139    1.4969   -3.1363 H   0  0  0  0  0  0  0  0  0  0  0  0
    3.4201   -0.5481   -2.7121 C   0  0  0  0  0  0  0  0  0  0  0  0
    3.6654   -0.8708   -3.6216 H   0  0  0  0  0  0  0  0  0  0  0  0
    4.2199   -0.1651   -2.2583 H   0  0  0  0  0  0  0  0  0  0  0  0
    2.9351   -1.7333   -1.9007 C   0  0  0  0  0  0  0  0  0  0  0  0
    3.7285   -2.1875   -1.5092 H   0  0  0  0  0  0  0  0  0  0  0  0
    2.3394   -1.3932   -1.1795 H   0  0  0  0  0  0  0  0  0  0  0  0
    2.3836   -2.4408   -2.5199 H   0  0  0  0  0  0  0  0  0  0  0  0
  1  5  1  0
  5  6  1  0
  5  7  2  0
  1  2  1  0
  1  3  1  0
  1  4  1  0
  8 12  1  0
 12 15  1  0
  8  9  1  0
  8 10  1  0
  8 11  1  0
 12 13  1  0
 12 14  1  0
 15 16  1  0
 15 17  1  0
 15 18  1  0
M  CHG  1   6  -1
M  END
>  <PDB_ID>  (147) 
pdb1crx

>  <RESIDUE_NAME>  (147) 
ASP   ARG

>  <FRAG_NAME>  (147) 
ACET   PRPA

>  <FRAG_ATOM_NUM>  (147) 
fragi: 7  fragj: 11

>  <atom.prop.CHAIN_ID>  (147) 
A A A A A A A Z Z Z Z Z Z Z Z Z Z Z

>  <atom.prop.IS_HEAVY_ATOM>  (147) 
1 0 0 0 1 1 1 1 0 0 0 1 0 0 1 0 0 0

>  <DIFUSE_FUNC_ATOM>  (147) 
atom 6   atom 7   

>  <FINAL_SINGLE_POINT_ENERGY>  (147) 
0

>  <NONCOV_INTER_ENERGY_QM>  (147) 
0

>  <FF_Energy>  (147) 
15.17

>  <QM_Energy>  (147) 
-2.23

>  <source>  (147) 
ACET_PRPA_01

>  <Index>  (147) 
22231

$$$$
ACET-pdb1bvu-D-GLU-233:PRPA-pdb1bvu-D-ILE-229
     RDKit          3D

 18 16  0  0  0  0  0  0  0  0999 V2000
   -0.0015    1.4903    0.0777 C   0  0  0  0  0  0  0  0  0  0  0  0
    0.6089    1.8241   -0.6157 H   0  0  0  0  0  0  0  0  0  0  0  0
    0.2867    1.7407    0.9830 H   0  0  0  0  0  0  0  0  0  0  0  0
   -1.0005    1.8867   -0.1038 H   0  0  0  0  0  0  0  0  0  0  0  0
    0.0000    0.0000    0.0000 C   0  0  0  0  0  0  0  0  0  0  0  0
   -1.1026   -0.5937   -0.0000 O   0  0  0  0  0  1  0  0  0  0  0  0
    1.1026   -0.5747   -0.0000 O   0  0  0  0  0  0  0  0  0  0  0  0
    1.4438    1.8486    3.8045 C   0  0  0  0  0  0  0  0  0  0  0  0
    1.7552    1.9563    2.8378 H   0  0  0  0  0  0  0  0  0  0  0  0
    2.3163    2.0628    4.4217 H   0  0  0  0  0  0  0  0  0  0  0  0
    0.6014    2.5261    3.9434 H   0  0  0  0  0  0  0  0  0  0  0  0
    0.8712    0.4087    4.0134 C   0  0  0  0  0  0  0  0  0  0  0  0
    0.4780    0.3774    4.9324 H   0  0  0  0  0  0  0  0  0  0  0  0
    1.6435   -0.3572    3.9421 H   0  0  0  0  0  0  0  0  0  0  0  0
   -0.2045    0.1330    2.9789 C   0  0  0  0  0  0  0  0  0  0  0  0
   -0.6096   -0.7656    3.1468 H   0  0  0  0  0  0  0  0  0  0  0  0
   -0.9155    0.8323    3.0402 H   0  0  0  0  0  0  0  0  0  0  0  0
    0.1973    0.1486    2.0643 H   0  0  0  0  0  0  0  0  0  0  0  0
  1  5  1  0
  5  6  1  0
  5  7  2  0
  1  2  1  0
  1  3  1  0
  1  4  1  0
  8 12  1  0
 12 15  1  0
  8  9  1  0
  8 10  1  0
  8 11  1  0
 12 13  1  0
 12 14  1  0
 15 16  1  0
 15 17  1  0
 15 18  1  0
M  CHG  1   6  -1
M  END
>  <PDB_ID>  (148) 
pdb1bvu

>  <RESIDUE_NAME>  (148) 
GLU   ILE

>  <FRAG_NAME>  (148) 
ACET   PRPA

>  <FRAG_ATOM_NUM>  (148) 
fragi: 7  fragj: 11

>  <atom.prop.CHAIN_ID>  (148) 
A A A A A A A Z Z Z Z Z Z Z Z Z Z Z

>  <atom.prop.IS_HEAVY_ATOM>  (148) 
1 0 0 0 1 1 1 1 0 0 0 1 0 0 1 0 0 0

>  <DIFUSE_FUNC_ATOM>  (148) 
atom 6   atom 7   

>  <FINAL_SINGLE_POINT_ENERGY>  (148) 
0

>  <NONCOV_INTER_ENERGY_QM>  (148) 
0

>  <FF_Energy>  (148) 
16.31

>  <QM_Energy>  (148) 
0.52

>  <source>  (148) 
ACET_PRPA_01

>  <Index>  (148) 
23997

$$$$
ACET-pdb1bvu-D-GLU-233:PRPA-pdb1bvu-D-ILE-229
     RDKit          3D

 18 16  0  0  0  0  0  0  0  0999 V2000
   -0.0015    1.4903    0.0777 C   0  0  0  0  0  0  0  0  0  0  0  0
    0.6089    1.8241   -0.6157 H   0  0  0  0  0  0  0  0  0  0  0  0
    0.2867    1.7407    0.9830 H   0  0  0  0  0  0  0  0  0  0  0  0
   -1.0005    1.8867   -0.1038 H   0  0  0  0  0  0  0  0  0  0  0  0
    0.0000    0.0000    0.0000 C   0  0  0  0  0  0  0  0  0  0  0  0
   -1.1026   -0.5937   -0.0000 O   0  0  0  0  0  1  0  0  0  0  0  0
    1.1026   -0.5747   -0.0000 O   0  0  0  0  0  0  0  0  0  0  0  0
    1.9518   -0.6630    3.9136 C   0  0  0  0  0  0  0  0  0  0  0  0
    1.7157   -1.2824    3.1614 H   0  0  0  0  0  0  0  0  0  0  0  0
    2.8200   -0.2140    3.6856 H   0  0  0  0  0  0  0  0  0  0  0  0
    2.0934   -1.2499    4.8211 H   0  0  0  0  0  0  0  0  0  0  0  0
    0.8712    0.4087    4.0134 C   0  0  0  0  0  0  0  0  0  0  0  0
    0.4780    0.3774    4.9324 H   0  0  0  0  0  0  0  0  0  0  0  0
    1.2704    1.4125    3.8678 H   0  0  0  0  0  0  0  0  0  0  0  0
   -0.2045    0.1330    2.9789 C   0  0  0  0  0  0  0  0  0  0  0  0
   -0.6096   -0.7656    3.1468 H   0  0  0  0  0  0  0  0  0  0  0  0
   -0.9155    0.8323    3.0402 H   0  0  0  0  0  0  0  0  0  0  0  0
    0.1973    0.1486    2.0643 H   0  0  0  0  0  0  0  0  0  0  0  0
  1  5  1  0
  5  6  1  0
  5  7  2  0
  1  2  1  0
  1  3  1  0
  1  4  1  0
  8 12  1  0
 12 15  1  0
  8  9  1  0
  8 10  1  0
  8 11  1  0
 12 13  1  0
 12 14  1  0
 15 16  1  0
 15 17  1  0
 15 18  1  0
M  CHG  1   6  -1
M  END
>  <PDB_ID>  (149) 
pdb1bvu

>  <RESIDUE_NAME>  (149) 
GLU   ILE

>  <FRAG_NAME>  (149) 
ACET   PRPA

>  <FRAG_ATOM_NUM>  (149) 
fragi: 7  fragj: 11

>  <atom.prop.CHAIN_ID>  (149) 
A A A A A A A Z Z Z Z Z Z Z Z Z Z Z

>  <atom.prop.IS_HEAVY_ATOM>  (149) 
1 0 0 0 1 1 1 1 0 0 0 1 0 0 1 0 0 0

>  <DIFUSE_FUNC_ATOM>  (149) 
atom 6   atom 7   

>  <FINAL_SINGLE_POINT_ENERGY>  (149) 
0

>  <NONCOV_INTER_ENERGY_QM>  (149) 
0

>  <FF_Energy>  (149) 
16.42

>  <QM_Energy>  (149) 
0.24

>  <source>  (149) 
ACET_PRPA_01

>  <Index>  (149) 
24007

$$$$
ACET-pdb2dg8-A-ASP-99:PRPA-pdb2dg8-A-GLU-95
     RDKit          3D

 18 16  0  0  0  0  0  0  0  0999 V2000
    0.0106    1.5277   -0.0013 C   0  0  0  0  0  0  0  0  0  0  0  0
   -0.4066    1.8449    0.8399 H   0  0  0  0  0  0  0  0  0  0  0  0
   -0.4982    1.8443   -0.7900 H   0  0  0  0  0  0  0  0  0  0  0  0
    1.0198    1.9356   -0.0577 H   0  0  0  0  0  0  0  0  0  0  0  0
    0.0000    0.0000    0.0000 C   0  0  0  0  0  0  0  0  0  0  0  0
   -1.0955   -0.5984   -0.0000 O   0  0  0  0  0  1  0  0  0  0  0  0
    1.0955   -0.6065    0.0000 O   0  0  0  0  0  0  0  0  0  0  0  0
   -0.8471   -0.6531    3.6844 C   0  0  0  0  0  0  0  0  0  0  0  0
   -0.3403   -0.9073    2.8548 H   0  0  0  0  0  0  0  0  0  0  0  0
   -0.5370   -1.2824    4.5186 H   0  0  0  0  0  0  0  0  0  0  0  0
   -0.6627    0.3982    3.9054 H   0  0  0  0  0  0  0  0  0  0  0  0
   -2.3293   -0.8674    3.3759 C   0  0  0  0  0  0  0  0  0  0  0  0
   -2.4528   -1.8114    3.1409 H   0  0  0  0  0  0  0  0  0  0  0  0
   -2.8424   -0.6026    4.1674 H   0  0  0  0  0  0  0  0  0  0  0  0
   -2.8208   -0.0314    2.2054 C   0  0  0  0  0  0  0  0  0  0  0  0
   -2.7437    0.9185    2.4498 H   0  0  0  0  0  0  0  0  0  0  0  0
   -2.2792   -0.2551    1.4144 H   0  0  0  0  0  0  0  0  0  0  0  0
   -3.8637   -0.2212    1.9516 H   0  0  0  0  0  0  0  0  0  0  0  0
  1  5  1  0
  5  6  1  0
  5  7  2  0
  1  2  1  0
  1  3  1  0
  1  4  1  0
  8 12  1  0
 12 15  1  0
  8  9  1  0
  8 10  1  0
  8 11  1  0
 12 13  1  0
 12 14  1  0
 15 16  1  0
 15 17  1  0
 15 18  1  0
M  CHG  1   6  -1
M  END
>  <PDB_ID>  (150) 
pdb2dg8

>  <RESIDUE_NAME>  (150) 
ASP   GLU

>  <FRAG_NAME>  (150) 
ACET   PRPA

>  <FRAG_ATOM_NUM>  (150) 
fragi: 7  fragj: 11

>  <atom.prop.CHAIN_ID>  (150) 
A A A A A A A Z Z Z Z Z Z Z Z Z Z Z

>  <atom.prop.IS_HEAVY_ATOM>  (150) 
1 0 0 0 1 1 1 1 0 0 0 1 0 0 1 0 0 0

>  <DIFUSE_FUNC_ATOM>  (150) 
atom 6   atom 7   

>  <FINAL_SINGLE_POINT_ENERGY>  (150) 
0

>  <NONCOV_INTER_ENERGY_QM>  (150) 
0

>  <FF_Energy>  (150) 
15.7

>  <QM_Energy>  (150) 
-2.09

>  <source>  (150) 
ACET_PRPA_01

>  <Index>  (150) 
24041

$$$$
ACET-pdb1bvu-D-GLU-282:PRPA-pdb1bvu-D-ILE-278
     RDKit          3D

 18 16  0  0  0  0  0  0  0  0999 V2000
   -0.0100    1.5172   -0.0399 C   0  0  0  0  0  0  0  0  0  0  0  0
    0.9019    1.8139   -0.2402 H   0  0  0  0  0  0  0  0  0  0  0  0
   -0.3301    1.8339    0.8307 H   0  0  0  0  0  0  0  0  0  0  0  0
   -0.6753    1.8999   -0.8140 H   0  0  0  0  0  0  0  0  0  0  0  0
    0.0000    0.0000    0.0000 C   0  0  0  0  0  0  0  0  0  0  0  0
   -1.1082   -0.5864    0.0000 O   0  0  0  0  0  1  0  0  0  0  0  0
    1.1082   -0.5989    0.0000 O   0  0  0  0  0  0  0  0  0  0  0  0
   -0.3716   -2.1121   -2.4550 C   0  0  0  0  0  0  0  0  0  0  0  0
   -0.1768   -2.4510   -1.5363 H   0  0  0  0  0  0  0  0  0  0  0  0
   -0.1656   -2.9385   -3.1354 H   0  0  0  0  0  0  0  0  0  0  0  0
   -1.4360   -1.8795   -2.4852 H   0  0  0  0  0  0  0  0  0  0  0  0
    0.3839   -0.8154   -2.8443 C   0  0  0  0  0  0  0  0  0  0  0  0
    0.2262   -0.1488   -2.1264 H   0  0  0  0  0  0  0  0  0  0  0  0
    1.4617   -0.9644   -2.9105 H   0  0  0  0  0  0  0  0  0  0  0  0
   -0.1697   -0.2561   -4.1498 C   0  0  0  0  0  0  0  0  0  0  0  0
   -0.6427   -0.9839   -4.6348 H   0  0  0  0  0  0  0  0  0  0  0  0
   -0.8147    0.4703   -3.9342 H   0  0  0  0  0  0  0  0  0  0  0  0
    0.6074    0.1509   -4.7967 H   0  0  0  0  0  0  0  0  0  0  0  0
  1  5  1  0
  5  6  1  0
  5  7  2  0
  1  2  1  0
  1  3  1  0
  1  4  1  0
  8 12  1  0
 12 15  1  0
  8  9  1  0
  8 10  1  0
  8 11  1  0
 12 13  1  0
 12 14  1  0
 15 16  1  0
 15 17  1  0
 15 18  1  0
M  CHG  1   6  -1
M  END
>  <PDB_ID>  (151) 
pdb1bvu

>  <RESIDUE_NAME>  (151) 
GLU   ILE

>  <FRAG_NAME>  (151) 
ACET   PRPA

>  <FRAG_ATOM_NUM>  (151) 
fragi: 7  fragj: 11

>  <atom.prop.CHAIN_ID>  (151) 
A A A A A A A Z Z Z Z Z Z Z Z Z Z Z

>  <atom.prop.IS_HEAVY_ATOM>  (151) 
1 0 0 0 1 1 1 1 0 0 0 1 0 0 1 0 0 0

>  <DIFUSE_FUNC_ATOM>  (151) 
atom 6   atom 7   

>  <FINAL_SINGLE_POINT_ENERGY>  (151) 
0

>  <NONCOV_INTER_ENERGY_QM>  (151) 
0

>  <FF_Energy>  (151) 
13.59

>  <QM_Energy>  (151) 
-1.53

>  <source>  (151) 
ACET_PRPA_01

>  <Index>  (151) 
24453

$$$$
ACET-pdb1cg2-B-GLU-354:PRPA-pdb1cg2-B-LYS-208
     RDKit          3D

 18 16  0  0  0  0  0  0  0  0999 V2000
    0.0189    1.5276   -0.0313 C   0  0  0  0  0  0  0  0  0  0  0  0
   -0.2757    1.8064   -0.9297 H   0  0  0  0  0  0  0  0  0  0  0  0
    0.9447    1.8122    0.1536 H   0  0  0  0  0  0  0  0  0  0  0  0
   -0.6375    1.9936    0.7037 H   0  0  0  0  0  0  0  0  0  0  0  0
    0.0000    0.0000    0.0000 C   0  0  0  0  0  0  0  0  0  0  0  0
   -1.1004   -0.6026    0.0000 O   0  0  0  0  0  1  0  0  0  0  0  0
    1.1004   -0.6007   -0.0000 O   0  0  0  0  0  0  0  0  0  0  0  0
    1.6484    3.5719   -3.2741 C   0  0  0  0  0  0  0  0  0  0  0  0
    2.5259    3.9180   -2.9176 H   0  0  0  0  0  0  0  0  0  0  0  0
    0.9349    3.7664   -2.5876 H   0  0  0  0  0  0  0  0  0  0  0  0
    1.4097    4.1900   -4.1397 H   0  0  0  0  0  0  0  0  0  0  0  0
    1.7233    2.1833   -3.5561 C   0  0  0  0  0  0  0  0  0  0  0  0
    0.8471    1.8182   -3.9108 H   0  0  0  0  0  0  0  0  0  0  0  0
    2.4393    1.9703   -4.2403 H   0  0  0  0  0  0  0  0  0  0  0  0
    2.0641    1.3361   -2.2946 C   0  0  0  0  0  0  0  0  0  0  0  0
    2.9436    1.6599   -1.9407 H   0  0  0  0  0  0  0  0  0  0  0  0
    1.3520    1.5072   -1.6118 H   0  0  0  0  0  0  0  0  0  0  0  0
    2.1272    0.2652   -2.4879 H   0  0  0  0  0  0  0  0  0  0  0  0
  1  5  1  0
  5  6  1  0
  5  7  2  0
  1  2  1  0
  1  3  1  0
  1  4  1  0
  8 12  1  0
 12 15  1  0
  8  9  1  0
  8 10  1  0
  8 11  1  0
 12 13  1  0
 12 14  1  0
 15 16  1  0
 15 17  1  0
 15 18  1  0
M  CHG  1   6  -1
M  END
>  <PDB_ID>  (152) 
pdb1cg2

>  <RESIDUE_NAME>  (152) 
GLU   LYS

>  <FRAG_NAME>  (152) 
ACET   PRPA

>  <FRAG_ATOM_NUM>  (152) 
fragi: 7  fragj: 11

>  <atom.prop.CHAIN_ID>  (152) 
A A A A A A A Z Z Z Z Z Z Z Z Z Z Z

>  <atom.prop.IS_HEAVY_ATOM>  (152) 
1 0 0 0 1 1 1 1 0 0 0 1 0 0 1 0 0 0

>  <DIFUSE_FUNC_ATOM>  (152) 
atom 6   atom 7   

>  <FINAL_SINGLE_POINT_ENERGY>  (152) 
0

>  <NONCOV_INTER_ENERGY_QM>  (152) 
0

>  <FF_Energy>  (152) 
20.02

>  <QM_Energy>  (152) 
3.55

>  <source>  (152) 
ACET_PRPA_01

>  <Index>  (152) 
24661

$$$$
ACET-pdb1c7n-B-ASP-114:PRPA-pdb1c7n-B-LYS-111
     RDKit          3D

 18 16  0  0  0  0  0  0  0  0999 V2000
   -0.0025    1.5097   -0.0072 C   0  0  0  0  0  0  0  0  0  0  0  0
   -0.5871    1.8351    0.7289 H   0  0  0  0  0  0  0  0  0  0  0  0
   -0.3420    1.8283   -0.8851 H   0  0  0  0  0  0  0  0  0  0  0  0
    0.9904    1.9339    0.1418 H   0  0  0  0  0  0  0  0  0  0  0  0
    0.0000    0.0000    0.0000 C   0  0  0  0  0  0  0  0  0  0  0  0
   -1.0973   -0.5925   -0.0000 O   0  0  0  0  0  1  0  0  0  0  0  0
    1.0973   -0.5968    0.0000 O   0  0  0  0  0  0  0  0  0  0  0  0
   -1.3225   -2.8245    2.0723 C   0  0  0  0  0  0  0  0  0  0  0  0
   -1.5505   -3.8030    2.0913 H   0  0  0  0  0  0  0  0  0  0  0  0
   -1.8990   -2.3729    1.3838 H   0  0  0  0  0  0  0  0  0  0  0  0
   -1.5371   -2.3933    3.0501 H   0  0  0  0  0  0  0  0  0  0  0  0
    0.1375   -2.6704    1.6675 C   0  0  0  0  0  0  0  0  0  0  0  0
    0.3390   -1.7087    1.5465 H   0  0  0  0  0  0  0  0  0  0  0  0
    0.7111   -3.0715    2.3670 H   0  0  0  0  0  0  0  0  0  0  0  0
    0.4043   -3.3927    0.3488 C   0  0  0  0  0  0  0  0  0  0  0  0
    0.2359   -4.3833    0.4847 H   0  0  0  0  0  0  0  0  0  0  0  0
   -0.2649   -3.0659   -0.3384 H   0  0  0  0  0  0  0  0  0  0  0  0
    1.4117   -3.2546   -0.0438 H   0  0  0  0  0  0  0  0  0  0  0  0
  1  5  1  0
  5  6  1  0
  5  7  2  0
  1  2  1  0
  1  3  1  0
  1  4  1  0
  8 12  1  0
 12 15  1  0
  8  9  1  0
  8 10  1  0
  8 11  1  0
 12 13  1  0
 12 14  1  0
 15 16  1  0
 15 17  1  0
 15 18  1  0
M  CHG  1   6  -1
M  END
>  <PDB_ID>  (153) 
pdb1c7n

>  <RESIDUE_NAME>  (153) 
ASP   LYS

>  <FRAG_NAME>  (153) 
ACET   PRPA

>  <FRAG_ATOM_NUM>  (153) 
fragi: 7  fragj: 11

>  <atom.prop.CHAIN_ID>  (153) 
A A A A A A A Z Z Z Z Z Z Z Z Z Z Z

>  <atom.prop.IS_HEAVY_ATOM>  (153) 
1 0 0 0 1 1 1 1 0 0 0 1 0 0 1 0 0 0

>  <DIFUSE_FUNC_ATOM>  (153) 
atom 6   atom 7   

>  <FINAL_SINGLE_POINT_ENERGY>  (153) 
0

>  <NONCOV_INTER_ENERGY_QM>  (153) 
0

>  <FF_Energy>  (153) 
15.33

>  <QM_Energy>  (153) 
-1.45

>  <source>  (153) 
ACET_PRPA_01

>  <Index>  (153) 
25106

$$$$
ACET-pdb2ddz-A-ASP-150:PRPA-pdb2ddz-A-ARG-118
     RDKit          3D

 18 16  0  0  0  0  0  0  0  0999 V2000
   -0.0195    1.5044    0.0045 C   0  0  0  0  0  0  0  0  0  0  0  0
    0.4976    1.8373   -0.7766 H   0  0  0  0  0  0  0  0  0  0  0  0
    0.3832    1.8315    0.8513 H   0  0  0  0  0  0  0  0  0  0  0  0
   -1.0297    1.9078   -0.0655 H   0  0  0  0  0  0  0  0  0  0  0  0
    0.0000    0.0000    0.0000 C   0  0  0  0  0  0  0  0  0  0  0  0
   -1.1004   -0.5718    0.0000 O   0  0  0  0  0  1  0  0  0  0  0  0
    1.1004   -0.6125   -0.0000 O   0  0  0  0  0  0  0  0  0  0  0  0
    0.7928    1.1259    4.3011 C   0  0  0  0  0  0  0  0  0  0  0  0
    0.8596    0.6223    5.1558 H   0  0  0  0  0  0  0  0  0  0  0  0
   -0.1442    1.1225    3.9693 H   0  0  0  0  0  0  0  0  0  0  0  0
    1.0878    2.1588    4.4866 H   0  0  0  0  0  0  0  0  0  0  0  0
    1.6600    0.4393    3.2777 C   0  0  0  0  0  0  0  0  0  0  0  0
    1.7887    1.0346    2.4954 H   0  0  0  0  0  0  0  0  0  0  0  0
    2.5313    0.1995    3.6856 H   0  0  0  0  0  0  0  0  0  0  0  0
    0.9859   -0.8203    2.8164 C   0  0  0  0  0  0  0  0  0  0  0  0
   -0.0043   -0.6991    2.9060 H   0  0  0  0  0  0  0  0  0  0  0  0
    1.2147   -0.9643    1.8519 H   0  0  0  0  0  0  0  0  0  0  0  0
    1.2936   -1.6929    3.3926 H   0  0  0  0  0  0  0  0  0  0  0  0
  1  5  1  0
  5  6  1  0
  5  7  2  0
  1  2  1  0
  1  3  1  0
  1  4  1  0
  8 12  1  0
 12 15  1  0
  8  9  1  0
  8 10  1  0
  8 11  1  0
 12 13  1  0
 12 14  1  0
 15 16  1  0
 15 17  1  0
 15 18  1  0
M  CHG  1   6  -1
M  END
>  <PDB_ID>  (154) 
pdb2ddz

>  <RESIDUE_NAME>  (154) 
ASP   ARG

>  <FRAG_NAME>  (154) 
ACET   PRPA

>  <FRAG_ATOM_NUM>  (154) 
fragi: 7  fragj: 11

>  <atom.prop.CHAIN_ID>  (154) 
A A A A A A A Z Z Z Z Z Z Z Z Z Z Z

>  <atom.prop.IS_HEAVY_ATOM>  (154) 
1 0 0 0 1 1 1 1 0 0 0 1 0 0 1 0 0 0

>  <DIFUSE_FUNC_ATOM>  (154) 
atom 6   atom 7   

>  <FINAL_SINGLE_POINT_ENERGY>  (154) 
0

>  <NONCOV_INTER_ENERGY_QM>  (154) 
0

>  <FF_Energy>  (154) 
16.65

>  <QM_Energy>  (154) 
-1.19

>  <source>  (154) 
ACET_PRPA_01

>  <Index>  (154) 
25219

$$$$
ACET-pdb2cw6-F-GLU-47:PRPA-pdb2cw6-F-LEU-310
     RDKit          3D

 18 16  0  0  0  0  0  0  0  0999 V2000
   -0.0016    1.5195    0.0087 C   0  0  0  0  0  0  0  0  0  0  0  0
   -0.3351    1.8081    0.8865 H   0  0  0  0  0  0  0  0  0  0  0  0
   -0.5796    1.8168   -0.7281 H   0  0  0  0  0  0  0  0  0  0  0  0
    0.9940    1.9383   -0.1389 H   0  0  0  0  0  0  0  0  0  0  0  0
    0.0000    0.0000    0.0000 C   0  0  0  0  0  0  0  0  0  0  0  0
   -1.0968   -0.5980   -0.0000 O   0  0  0  0  0  1  0  0  0  0  0  0
    1.0968   -0.5972    0.0000 O   0  0  0  0  0  0  0  0  0  0  0  0
   -3.0634    3.1658    1.8850 C   0  0  0  0  0  0  0  0  0  0  0  0
   -2.6845    3.5342    2.7342 H   0  0  0  0  0  0  0  0  0  0  0  0
   -2.3921    3.2695    1.1500 H   0  0  0  0  0  0  0  0  0  0  0  0
   -3.8952    3.6689    1.6471 H   0  0  0  0  0  0  0  0  0  0  0  0
   -3.3935    1.6950    2.0697 C   0  0  0  0  0  0  0  0  0  0  0  0
   -3.7749    1.3305    1.2226 H   0  0  0  0  0  0  0  0  0  0  0  0
   -4.1248    1.5754    2.8691 H   0  0  0  0  0  0  0  0  0  0  0  0
   -2.1401    0.9153    2.4228 C   0  0  0  0  0  0  0  0  0  0  0  0
   -2.3654   -0.0544    2.5290 H   0  0  0  0  0  0  0  0  0  0  0  0
   -1.4618    1.0196    1.6935 H   0  0  0  0  0  0  0  0  0  0  0  0
   -1.7590    1.2624    3.2812 H   0  0  0  0  0  0  0  0  0  0  0  0
  1  5  1  0
  5  6  1  0
  5  7  2  0
  1  2  1  0
  1  3  1  0
  1  4  1  0
  8 12  1  0
 12 15  1  0
  8  9  1  0
  8 10  1  0
  8 11  1  0
 12 13  1  0
 12 14  1  0
 15 16  1  0
 15 17  1  0
 15 18  1  0
M  CHG  1   6  -1
M  END
>  <PDB_ID>  (155) 
pdb2cw6

>  <RESIDUE_NAME>  (155) 
GLU   LEU

>  <FRAG_NAME>  (155) 
ACET   PRPA

>  <FRAG_ATOM_NUM>  (155) 
fragi: 7  fragj: 11

>  <atom.prop.CHAIN_ID>  (155) 
A A A A A A A Z Z Z Z Z Z Z Z Z Z Z

>  <atom.prop.IS_HEAVY_ATOM>  (155) 
1 0 0 0 1 1 1 1 0 0 0 1 0 0 1 0 0 0

>  <DIFUSE_FUNC_ATOM>  (155) 
atom 6   atom 7   

>  <FINAL_SINGLE_POINT_ENERGY>  (155) 
0

>  <NONCOV_INTER_ENERGY_QM>  (155) 
0

>  <FF_Energy>  (155) 
17.63

>  <QM_Energy>  (155) 
1.99

>  <source>  (155) 
ACET_PRPA_01

>  <Index>  (155) 
27532

$$$$
ACET-pdb2dt5-A-ASP-48:PRPA-pdb2dt5-A-ARG-10
     RDKit          3D

 18 16  0  0  0  0  0  0  0  0999 V2000
    0.0060    1.5134    0.0249 C   0  0  0  0  0  0  0  0  0  0  0  0
    0.8367    1.8381   -0.4130 H   0  0  0  0  0  0  0  0  0  0  0  0
   -0.0311    1.8191    0.9701 H   0  0  0  0  0  0  0  0  0  0  0  0
   -0.8434    1.9468   -0.5031 H   0  0  0  0  0  0  0  0  0  0  0  0
    0.0000    0.0000    0.0000 C   0  0  0  0  0  0  0  0  0  0  0  0
   -1.1026   -0.5939   -0.0000 O   0  0  0  0  0  1  0  0  0  0  0  0
    1.1026   -0.5894    0.0000 O   0  0  0  0  0  0  0  0  0  0  0  0
    2.2786   -1.7615    3.7209 C   0  0  0  0  0  0  0  0  0  0  0  0
    1.5882   -2.4487    3.9673 H   0  0  0  0  0  0  0  0  0  0  0  0
    1.8100   -0.9022    3.4937 H   0  0  0  0  0  0  0  0  0  0  0  0
    2.9038   -1.5837    4.5959 H   0  0  0  0  0  0  0  0  0  0  0  0
    3.0010   -2.2415    2.4889 C   0  0  0  0  0  0  0  0  0  0  0  0
    3.5663   -1.5190    2.1199 H   0  0  0  0  0  0  0  0  0  0  0  0
    3.5361   -3.0463    2.6976 H   0  0  0  0  0  0  0  0  0  0  0  0
    1.9775   -2.6297    1.4113 C   0  0  0  0  0  0  0  0  0  0  0  0
    1.3252   -1.8928    1.3411 H   0  0  0  0  0  0  0  0  0  0  0  0
    2.4714   -2.7590    0.5657 H   0  0  0  0  0  0  0  0  0  0  0  0
    1.4747   -3.5527    1.6998 H   0  0  0  0  0  0  0  0  0  0  0  0
  1  5  1  0
  5  6  1  0
  5  7  2  0
  1  2  1  0
  1  3  1  0
  1  4  1  0
  8 12  1  0
 12 15  1  0
  8  9  1  0
  8 10  1  0
  8 11  1  0
 12 13  1  0
 12 14  1  0
 15 16  1  0
 15 17  1  0
 15 18  1  0
M  CHG  1   6  -1
M  END
>  <PDB_ID>  (156) 
pdb2dt5

>  <RESIDUE_NAME>  (156) 
ASP   ARG

>  <FRAG_NAME>  (156) 
ACET   PRPA

>  <FRAG_ATOM_NUM>  (156) 
fragi: 7  fragj: 11

>  <atom.prop.CHAIN_ID>  (156) 
A A A A A A A Z Z Z Z Z Z Z Z Z Z Z

>  <atom.prop.IS_HEAVY_ATOM>  (156) 
1 0 0 0 1 1 1 1 0 0 0 1 0 0 1 0 0 0

>  <DIFUSE_FUNC_ATOM>  (156) 
atom 6   atom 7   

>  <FINAL_SINGLE_POINT_ENERGY>  (156) 
0

>  <NONCOV_INTER_ENERGY_QM>  (156) 
0

>  <FF_Energy>  (156) 
19.43

>  <QM_Energy>  (156) 
2.13

>  <source>  (156) 
ACET_PRPA_01

>  <Index>  (156) 
27978

$$$$
ACET-pdb1bvu-E-ASP-289:PRPA-pdb1bvu-E-LYS-212
     RDKit          3D

 18 16  0  0  0  0  0  0  0  0999 V2000
   -0.0147    1.5080    0.0098 C   0  0  0  0  0  0  0  0  0  0  0  0
    0.8553    1.8378   -0.3425 H   0  0  0  0  0  0  0  0  0  0  0  0
   -0.1506    1.8203    0.9437 H   0  0  0  0  0  0  0  0  0  0  0  0
   -0.8133    1.9170   -0.6090 H   0  0  0  0  0  0  0  0  0  0  0  0
    0.0000    0.0000    0.0000 C   0  0  0  0  0  0  0  0  0  0  0  0
   -1.0983   -0.5821    0.0000 O   0  0  0  0  0  1  0  0  0  0  0  0
    1.0983   -0.6069   -0.0000 O   0  0  0  0  0  0  0  0  0  0  0  0
    4.2364   -1.0747   -0.0696 C   0  0  0  0  0  0  0  0  0  0  0  0
    3.6664   -1.8805   -0.1350 H   0  0  0  0  0  0  0  0  0  0  0  0
    5.2468   -1.3692    0.2145 H   0  0  0  0  0  0  0  0  0  0  0  0
    4.3310   -0.6210   -1.0562 H   0  0  0  0  0  0  0  0  0  0  0  0
    3.6621   -0.0468    0.9242 C   0  0  0  0  0  0  0  0  0  0  0  0
    4.2241    0.7759    0.8812 H   0  0  0  0  0  0  0  0  0  0  0  0
    2.7280    0.1666    0.6454 H   0  0  0  0  0  0  0  0  0  0  0  0
    3.6264   -0.5233    2.3861 C   0  0  0  0  0  0  0  0  0  0  0  0
    4.5660   -0.7056    2.6874 H   0  0  0  0  0  0  0  0  0  0  0  0
    3.2366    0.2053    2.9527 H   0  0  0  0  0  0  0  0  0  0  0  0
    3.0335   -1.4280    2.5208 H   0  0  0  0  0  0  0  0  0  0  0  0
  1  5  1  0
  5  6  1  0
  5  7  2  0
  1  2  1  0
  1  3  1  0
  1  4  1  0
  8 12  1  0
 12 15  1  0
  8  9  1  0
  8 10  1  0
  8 11  1  0
 12 13  1  0
 12 14  1  0
 15 16  1  0
 15 17  1  0
 15 18  1  0
M  CHG  1   6  -1
M  END
>  <PDB_ID>  (157) 
pdb1bvu

>  <RESIDUE_NAME>  (157) 
ASP   LYS

>  <FRAG_NAME>  (157) 
ACET   PRPA

>  <FRAG_ATOM_NUM>  (157) 
fragi: 7  fragj: 11

>  <atom.prop.CHAIN_ID>  (157) 
A A A A A A A Z Z Z Z Z Z Z Z Z Z Z

>  <atom.prop.IS_HEAVY_ATOM>  (157) 
1 0 0 0 1 1 1 1 0 0 0 1 0 0 1 0 0 0

>  <DIFUSE_FUNC_ATOM>  (157) 
atom 6   atom 7   

>  <FINAL_SINGLE_POINT_ENERGY>  (157) 
0

>  <NONCOV_INTER_ENERGY_QM>  (157) 
0

>  <FF_Energy>  (157) 
16.04

>  <QM_Energy>  (157) 
-1.29

>  <source>  (157) 
ACET_PRPA_01

>  <Index>  (157) 
28045

$$$$
ACET-pdb1d6w-A-GLU-23:PRPA-pdb1d6w-A-LYS-14
     RDKit          3D

 18 16  0  0  0  0  0  0  0  0999 V2000
    0.0060    1.5280   -0.0036 C   0  0  0  0  0  0  0  0  0  0  0  0
   -0.4360    1.8214   -0.8331 H   0  0  0  0  0  0  0  0  0  0  0  0
    0.9466    1.8171    0.0350 H   0  0  0  0  0  0  0  0  0  0  0  0
   -0.5241    1.9688    0.8407 H   0  0  0  0  0  0  0  0  0  0  0  0
    0.0000    0.0000    0.0000 C   0  0  0  0  0  0  0  0  0  0  0  0
   -1.1171   -0.6422   -0.0000 O   0  0  0  0  0  1  0  0  0  0  0  0
    1.1171   -0.6445    0.0000 O   0  0  0  0  0  0  0  0  0  0  0  0
    3.5179   -2.8170   -1.1016 C   0  0  0  0  0  0  0  0  0  0  0  0
    3.1500   -3.7396   -1.3618 H   0  0  0  0  0  0  0  0  0  0  0  0
    3.0866   -2.5502   -0.1367 H   0  0  0  0  0  0  0  0  0  0  0  0
    4.6070   -2.8436   -1.1361 H   0  0  0  0  0  0  0  0  0  0  0  0
    2.9604   -2.0451   -2.2911 C   0  0  0  0  0  0  0  0  0  0  0  0
    3.5537   -2.2150   -3.0845 H   0  0  0  0  0  0  0  0  0  0  0  0
    2.0429   -2.4019   -2.4968 H   0  0  0  0  0  0  0  0  0  0  0  0
    2.8452   -0.5315   -2.1075 C   0  0  0  0  0  0  0  0  0  0  0  0
    2.0540   -0.3278   -1.5653 H   0  0  0  0  0  0  0  0  0  0  0  0
    3.6734   -0.1853   -1.7156 H   0  0  0  0  0  0  0  0  0  0  0  0
    2.7148   -0.0924   -3.0966 H   0  0  0  0  0  0  0  0  0  0  0  0
  1  5  1  0
  5  6  1  0
  5  7  2  0
  1  2  1  0
  1  3  1  0
  1  4  1  0
  8 12  1  0
 12 15  1  0
  8  9  1  0
  8 10  1  0
  8 11  1  0
 12 13  1  0
 12 14  1  0
 15 16  1  0
 15 17  1  0
 15 18  1  0
M  CHG  1   6  -1
M  END
>  <PDB_ID>  (158) 
pdb1d6w

>  <RESIDUE_NAME>  (158) 
GLU   LYS

>  <FRAG_NAME>  (158) 
ACET   PRPA

>  <FRAG_ATOM_NUM>  (158) 
fragi: 7  fragj: 11

>  <atom.prop.CHAIN_ID>  (158) 
A A A A A A A Z Z Z Z Z Z Z Z Z Z Z

>  <atom.prop.IS_HEAVY_ATOM>  (158) 
1 0 0 0 1 1 1 1 0 0 0 1 0 0 1 0 0 0

>  <DIFUSE_FUNC_ATOM>  (158) 
atom 6   atom 7   

>  <FINAL_SINGLE_POINT_ENERGY>  (158) 
0

>  <NONCOV_INTER_ENERGY_QM>  (158) 
0

>  <FF_Energy>  (158) 
22.09

>  <QM_Energy>  (158) 
-0.06

>  <source>  (158) 
ACET_PRPA_01

>  <Index>  (158) 
28706

$$$$
ACET-pdb1d6w-A-GLU-23:PRPA-pdb1d6w-A-LYS-14
     RDKit          3D

 18 16  0  0  0  0  0  0  0  0999 V2000
    0.0060    1.5280   -0.0036 C   0  0  0  0  0  0  0  0  0  0  0  0
   -0.4360    1.8214   -0.8331 H   0  0  0  0  0  0  0  0  0  0  0  0
    0.9466    1.8171    0.0350 H   0  0  0  0  0  0  0  0  0  0  0  0
   -0.5241    1.9688    0.8407 H   0  0  0  0  0  0  0  0  0  0  0  0
    0.0000    0.0000    0.0000 C   0  0  0  0  0  0  0  0  0  0  0  0
   -1.1171   -0.6422   -0.0000 O   0  0  0  0  0  1  0  0  0  0  0  0
    1.1171   -0.6445    0.0000 O   0  0  0  0  0  0  0  0  0  0  0  0
    2.9604   -2.0451   -2.2911 C   0  0  0  0  0  0  0  0  0  0  0  0
    3.5537   -2.2150   -3.0845 H   0  0  0  0  0  0  0  0  0  0  0  0
    2.0429   -2.4019   -2.4968 H   0  0  0  0  0  0  0  0  0  0  0  0
    3.3592   -2.5973   -1.4402 H   0  0  0  0  0  0  0  0  0  0  0  0
    2.8452   -0.5315   -2.1075 C   0  0  0  0  0  0  0  0  0  0  0  0
    2.0540   -0.3278   -1.5653 H   0  0  0  0  0  0  0  0  0  0  0  0
    3.6734   -0.1853   -1.7156 H   0  0  0  0  0  0  0  0  0  0  0  0
    2.6608    0.0893   -3.5059 C   0  0  0  0  0  0  0  0  0  0  0  0
    2.5655   -0.6440   -4.1668 H   0  0  0  0  0  0  0  0  0  0  0  0
    1.8510    0.6610   -3.4946 H   0  0  0  0  0  0  0  0  0  0  0  0
    3.5154    0.7036   -3.7895 H   0  0  0  0  0  0  0  0  0  0  0  0
  1  5  1  0
  5  6  1  0
  5  7  2  0
  1  2  1  0
  1  3  1  0
  1  4  1  0
  8 12  1  0
 12 15  1  0
  8  9  1  0
  8 10  1  0
  8 11  1  0
 12 13  1  0
 12 14  1  0
 15 16  1  0
 15 17  1  0
 15 18  1  0
M  CHG  1   6  -1
M  END
>  <PDB_ID>  (159) 
pdb1d6w

>  <RESIDUE_NAME>  (159) 
GLU   LYS

>  <FRAG_NAME>  (159) 
ACET   PRPA

>  <FRAG_ATOM_NUM>  (159) 
fragi: 7  fragj: 11

>  <atom.prop.CHAIN_ID>  (159) 
A A A A A A A Z Z Z Z Z Z Z Z Z Z Z

>  <atom.prop.IS_HEAVY_ATOM>  (159) 
1 0 0 0 1 1 1 1 0 0 0 1 0 0 1 0 0 0

>  <DIFUSE_FUNC_ATOM>  (159) 
atom 6   atom 7   

>  <FINAL_SINGLE_POINT_ENERGY>  (159) 
0

>  <NONCOV_INTER_ENERGY_QM>  (159) 
0

>  <FF_Energy>  (159) 
17.79

>  <QM_Energy>  (159) 
0.81

>  <source>  (159) 
ACET_PRPA_01

>  <Index>  (159) 
28715

$$$$
ACET-pdb1d6w-A-GLU-23:PRPA-pdb1d6w-A-LYS-14
     RDKit          3D

 18 16  0  0  0  0  0  0  0  0999 V2000
    0.0060    1.5280   -0.0036 C   0  0  0  0  0  0  0  0  0  0  0  0
   -0.4360    1.8214   -0.8331 H   0  0  0  0  0  0  0  0  0  0  0  0
    0.9466    1.8171    0.0350 H   0  0  0  0  0  0  0  0  0  0  0  0
   -0.5241    1.9688    0.8407 H   0  0  0  0  0  0  0  0  0  0  0  0
    0.0000    0.0000    0.0000 C   0  0  0  0  0  0  0  0  0  0  0  0
   -1.1171   -0.6422   -0.0000 O   0  0  0  0  0  1  0  0  0  0  0  0
    1.1171   -0.6445    0.0000 O   0  0  0  0  0  0  0  0  0  0  0  0
    2.8452   -0.5315   -2.1075 C   0  0  0  0  0  0  0  0  0  0  0  0
    2.0540   -0.3278   -1.5653 H   0  0  0  0  0  0  0  0  0  0  0  0
    3.6734   -0.1853   -1.7156 H   0  0  0  0  0  0  0  0  0  0  0  0
    2.9272   -1.6105   -2.2384 H   0  0  0  0  0  0  0  0  0  0  0  0
    2.6608    0.0893   -3.5059 C   0  0  0  0  0  0  0  0  0  0  0  0
    2.5655   -0.6440   -4.1668 H   0  0  0  0  0  0  0  0  0  0  0  0
    1.8510    0.6610   -3.4946 H   0  0  0  0  0  0  0  0  0  0  0  0
    3.8636    0.9538   -3.9050 C   0  0  0  0  0  0  0  0  0  0  0  0
    3.5394    1.8472   -4.1911 H   0  0  0  0  0  0  0  0  0  0  0  0
    4.4764    1.0344   -3.1282 H   0  0  0  0  0  0  0  0  0  0  0  0
    4.3981    0.4875   -4.7327 H   0  0  0  0  0  0  0  0  0  0  0  0
  1  5  1  0
  5  6  1  0
  5  7  2  0
  1  2  1  0
  1  3  1  0
  1  4  1  0
  8 12  1  0
 12 15  1  0
  8  9  1  0
  8 10  1  0
  8 11  1  0
 12 13  1  0
 12 14  1  0
 15 16  1  0
 15 17  1  0
 15 18  1  0
M  CHG  1   6  -1
M  END
>  <PDB_ID>  (160) 
pdb1d6w

>  <RESIDUE_NAME>  (160) 
GLU   LYS

>  <FRAG_NAME>  (160) 
ACET   PRPA

>  <FRAG_ATOM_NUM>  (160) 
fragi: 7  fragj: 11

>  <atom.prop.CHAIN_ID>  (160) 
A A A A A A A Z Z Z Z Z Z Z Z Z Z Z

>  <atom.prop.IS_HEAVY_ATOM>  (160) 
1 0 0 0 1 1 1 1 0 0 0 1 0 0 1 0 0 0

>  <DIFUSE_FUNC_ATOM>  (160) 
atom 6   atom 7   

>  <FINAL_SINGLE_POINT_ENERGY>  (160) 
0

>  <NONCOV_INTER_ENERGY_QM>  (160) 
0

>  <FF_Energy>  (160) 
20.39

>  <QM_Energy>  (160) 
2.14

>  <source>  (160) 
ACET_PRPA_01

>  <Index>  (160) 
28722

$$$$
ACET-pdb2ddz-B-ASP-182:PRPA-pdb2ddz-B-LYS-178
     RDKit          3D

 18 16  0  0  0  0  0  0  0  0999 V2000
    0.0070    1.5287    0.0169 C   0  0  0  0  0  0  0  0  0  0  0  0
    0.5842    1.8506   -0.7237 H   0  0  0  0  0  0  0  0  0  0  0  0
    0.3578    1.8334    0.8928 H   0  0  0  0  0  0  0  0  0  0  0  0
   -0.9848    1.9603   -0.1180 H   0  0  0  0  0  0  0  0  0  0  0  0
    0.0000    0.0000    0.0000 C   0  0  0  0  0  0  0  0  0  0  0  0
   -1.1022   -0.5900    0.0000 O   0  0  0  0  0  1  0  0  0  0  0  0
    1.1022   -0.6042    0.0000 O   0  0  0  0  0  0  0  0  0  0  0  0
    1.0535   -2.1013   -3.4565 C   0  0  0  0  0  0  0  0  0  0  0  0
    1.7989   -2.7465   -3.2719 H   0  0  0  0  0  0  0  0  0  0  0  0
    1.1614   -1.2981   -2.8676 H   0  0  0  0  0  0  0  0  0  0  0  0
    1.1136   -1.7843   -4.4976 H   0  0  0  0  0  0  0  0  0  0  0  0
   -0.2711   -2.7744   -3.1371 C   0  0  0  0  0  0  0  0  0  0  0  0
   -1.0124   -2.2403   -3.5339 H   0  0  0  0  0  0  0  0  0  0  0  0
   -0.2711   -3.6952   -3.5174 H   0  0  0  0  0  0  0  0  0  0  0  0
   -0.5185   -2.8841   -1.6229 C   0  0  0  0  0  0  0  0  0  0  0  0
   -0.6151   -1.9450   -1.2456 H   0  0  0  0  0  0  0  0  0  0  0  0
   -1.4095   -3.3526   -1.4775 H   0  0  0  0  0  0  0  0  0  0  0  0
    0.2490   -3.4107   -1.0557 H   0  0  0  0  0  0  0  0  0  0  0  0
  1  5  1  0
  5  6  1  0
  5  7  2  0
  1  2  1  0
  1  3  1  0
  1  4  1  0
  8 12  1  0
 12 15  1  0
  8  9  1  0
  8 10  1  0
  8 11  1  0
 12 13  1  0
 12 14  1  0
 15 16  1  0
 15 17  1  0
 15 18  1  0
M  CHG  1   6  -1
M  END
>  <PDB_ID>  (161) 
pdb2ddz

>  <RESIDUE_NAME>  (161) 
ASP   LYS

>  <FRAG_NAME>  (161) 
ACET   PRPA

>  <FRAG_ATOM_NUM>  (161) 
fragi: 7  fragj: 11

>  <atom.prop.CHAIN_ID>  (161) 
A A A A A A A Z Z Z Z Z Z Z Z Z Z Z

>  <atom.prop.IS_HEAVY_ATOM>  (161) 
1 0 0 0 1 1 1 1 0 0 0 1 0 0 1 0 0 0

>  <DIFUSE_FUNC_ATOM>  (161) 
atom 6   atom 7   

>  <FINAL_SINGLE_POINT_ENERGY>  (161) 
0

>  <NONCOV_INTER_ENERGY_QM>  (161) 
0

>  <FF_Energy>  (161) 
14.97

>  <QM_Energy>  (161) 
-0.74

>  <source>  (161) 
ACET_PRPA_01

>  <Index>  (161) 
28864

$$$$
ACET-pdb1d4d-A-GLU-206:PRPA-pdb1d4d-A-LYS-209
     RDKit          3D

 18 16  0  0  0  0  0  0  0  0999 V2000
   -0.0331    1.5261   -0.0406 C   0  0  0  0  0  0  0  0  0  0  0  0
    0.6950    1.8476    0.5257 H   0  0  0  0  0  0  0  0  0  0  0  0
   -0.9164    1.8056    0.2689 H   0  0  0  0  0  0  0  0  0  0  0  0
    0.1192    1.9009   -1.0527 H   0  0  0  0  0  0  0  0  0  0  0  0
    0.0000    0.0000    0.0000 C   0  0  0  0  0  0  0  0  0  0  0  0
   -1.1102   -0.5957   -0.0000 O   0  0  0  0  0  1  0  0  0  0  0  0
    1.1102   -0.5890   -0.0000 O   0  0  0  0  0  0  0  0  0  0  0  0
    3.6635   -1.2787   -2.9602 C   0  0  0  0  0  0  0  0  0  0  0  0
    4.4696   -1.8691   -2.9020 H   0  0  0  0  0  0  0  0  0  0  0  0
    3.9506   -0.3212   -2.8992 H   0  0  0  0  0  0  0  0  0  0  0  0
    3.1751   -1.4412   -3.9210 H   0  0  0  0  0  0  0  0  0  0  0  0
    2.7384   -1.5912   -1.7986 C   0  0  0  0  0  0  0  0  0  0  0  0
    1.9324   -1.0011   -1.8619 H   0  0  0  0  0  0  0  0  0  0  0  0
    2.4528   -2.5485   -1.8640 H   0  0  0  0  0  0  0  0  0  0  0  0
    3.3943   -1.3730   -0.4553 C   0  0  0  0  0  0  0  0  0  0  0  0
    4.2813   -1.8350   -0.4439 H   0  0  0  0  0  0  0  0  0  0  0  0
    3.5304   -0.3917   -0.3120 H   0  0  0  0  0  0  0  0  0  0  0  0
    2.7728   -1.7700    0.3473 H   0  0  0  0  0  0  0  0  0  0  0  0
  1  5  1  0
  5  6  1  0
  5  7  2  0
  1  2  1  0
  1  3  1  0
  1  4  1  0
  8 12  1  0
 12 15  1  0
  8  9  1  0
  8 10  1  0
  8 11  1  0
 12 13  1  0
 12 14  1  0
 15 16  1  0
 15 17  1  0
 15 18  1  0
M  CHG  1   6  -1
M  END
>  <PDB_ID>  (162) 
pdb1d4d

>  <RESIDUE_NAME>  (162) 
GLU   LYS

>  <FRAG_NAME>  (162) 
ACET   PRPA

>  <FRAG_ATOM_NUM>  (162) 
fragi: 7  fragj: 11

>  <atom.prop.CHAIN_ID>  (162) 
A A A A A A A Z Z Z Z Z Z Z Z Z Z Z

>  <atom.prop.IS_HEAVY_ATOM>  (162) 
1 0 0 0 1 1 1 1 0 0 0 1 0 0 1 0 0 0

>  <DIFUSE_FUNC_ATOM>  (162) 
atom 6   atom 7   

>  <FINAL_SINGLE_POINT_ENERGY>  (162) 
0

>  <NONCOV_INTER_ENERGY_QM>  (162) 
0

>  <FF_Energy>  (162) 
26.32

>  <QM_Energy>  (162) 
5.22

>  <source>  (162) 
ACET_PRPA_01

>  <Index>  (162) 
29091

$$$$
ACET-pdb1d9c-A-GLU-31:PRPA-pdb1d9c-A-PRO-27
     RDKit          3D

 18 16  0  0  0  0  0  0  0  0999 V2000
    0.0238    1.5118    0.0225 C   0  0  0  0  0  0  0  0  0  0  0  0
    0.5461    1.8100   -0.7635 H   0  0  0  0  0  0  0  0  0  0  0  0
    0.4635    1.7860    0.8661 H   0  0  0  0  0  0  0  0  0  0  0  0
   -0.9644    1.9696   -0.0224 H   0  0  0  0  0  0  0  0  0  0  0  0
    0.0000    0.0000    0.0000 C   0  0  0  0  0  0  0  0  0  0  0  0
   -1.0950   -0.5983   -0.0000 O   0  0  0  0  0  1  0  0  0  0  0  0
    1.0950   -0.5982    0.0000 O   0  0  0  0  0  0  0  0  0  0  0  0
    3.1758    5.3363   -1.3634 C   0  0  0  0  0  0  0  0  0  0  0  0
    3.6797    5.5403   -2.2138 H   0  0  0  0  0  0  0  0  0  0  0  0
    3.8498    4.9639   -0.5918 H   0  0  0  0  0  0  0  0  0  0  0  0
    2.6284    6.2149   -1.0220 H   0  0  0  0  0  0  0  0  0  0  0  0
    2.2459    4.1491   -1.6001 C   0  0  0  0  0  0  0  0  0  0  0  0
    1.3555    4.4624   -1.9210 H   0  0  0  0  0  0  0  0  0  0  0  0
    2.6440    3.5195   -2.2617 H   0  0  0  0  0  0  0  0  0  0  0  0
    2.1636    3.5535   -0.2607 C   0  0  0  0  0  0  0  0  0  0  0  0
    1.5928    4.1043    0.3488 H   0  0  0  0  0  0  0  0  0  0  0  0
    1.8041    2.6210   -0.2993 H   0  0  0  0  0  0  0  0  0  0  0  0
    3.1997    3.5532    0.0781 H   0  0  0  0  0  0  0  0  0  0  0  0
  1  5  1  0
  5  6  1  0
  5  7  2  0
  1  2  1  0
  1  3  1  0
  1  4  1  0
  8 12  1  0
 12 15  1  0
  8  9  1  0
  8 10  1  0
  8 11  1  0
 12 13  1  0
 12 14  1  0
 15 16  1  0
 15 17  1  0
 15 18  1  0
M  CHG  1   6  -1
M  END
>  <PDB_ID>  (163) 
pdb1d9c

>  <RESIDUE_NAME>  (163) 
GLU   PRO

>  <FRAG_NAME>  (163) 
ACET   PRPA

>  <FRAG_ATOM_NUM>  (163) 
fragi: 7  fragj: 11

>  <atom.prop.CHAIN_ID>  (163) 
A A A A A A A Z Z Z Z Z Z Z Z Z Z Z

>  <atom.prop.IS_HEAVY_ATOM>  (163) 
1 0 0 0 1 1 1 1 0 0 0 1 0 0 1 0 0 0

>  <DIFUSE_FUNC_ATOM>  (163) 
atom 6   atom 7   

>  <FINAL_SINGLE_POINT_ENERGY>  (163) 
0

>  <NONCOV_INTER_ENERGY_QM>  (163) 
0

>  <FF_Energy>  (163) 
28.08

>  <QM_Energy>  (163) 
6.81

>  <source>  (163) 
ACET_PRPA_01

>  <Index>  (163) 
29709

$$$$
ACET-pdb1d9c-A-GLU-31:PRPA-pdb1d9c-A-PRO-27
     RDKit          3D

 18 16  0  0  0  0  0  0  0  0999 V2000
    0.0238    1.5118    0.0225 C   0  0  0  0  0  0  0  0  0  0  0  0
    0.5461    1.8100   -0.7635 H   0  0  0  0  0  0  0  0  0  0  0  0
    0.4635    1.7860    0.8661 H   0  0  0  0  0  0  0  0  0  0  0  0
   -0.9644    1.9696   -0.0224 H   0  0  0  0  0  0  0  0  0  0  0  0
    0.0000    0.0000    0.0000 C   0  0  0  0  0  0  0  0  0  0  0  0
   -1.0950   -0.5983   -0.0000 O   0  0  0  0  0  1  0  0  0  0  0  0
    1.0950   -0.5982    0.0000 O   0  0  0  0  0  0  0  0  0  0  0  0
    2.2459    4.1491   -1.6001 C   0  0  0  0  0  0  0  0  0  0  0  0
    1.3555    4.4624   -1.9210 H   0  0  0  0  0  0  0  0  0  0  0  0
    2.6440    3.5195   -2.2617 H   0  0  0  0  0  0  0  0  0  0  0  0
    2.9100    4.9968   -1.4311 H   0  0  0  0  0  0  0  0  0  0  0  0
    2.1636    3.5535   -0.2607 C   0  0  0  0  0  0  0  0  0  0  0  0
    1.5928    4.1043    0.3488 H   0  0  0  0  0  0  0  0  0  0  0  0
    1.8041    2.6210   -0.2993 H   0  0  0  0  0  0  0  0  0  0  0  0
    3.5911    3.5531    0.2060 C   0  0  0  0  0  0  0  0  0  0  0  0
    3.6530    3.5434    1.1966 H   0  0  0  0  0  0  0  0  0  0  0  0
    4.1040    2.7952   -0.1823 H   0  0  0  0  0  0  0  0  0  0  0  0
    3.9506    4.5025   -0.1908 H   0  0  0  0  0  0  0  0  0  0  0  0
  1  5  1  0
  5  6  1  0
  5  7  2  0
  1  2  1  0
  1  3  1  0
  1  4  1  0
  8 12  1  0
 12 15  1  0
  8  9  1  0
  8 10  1  0
  8 11  1  0
 12 13  1  0
 12 14  1  0
 15 16  1  0
 15 17  1  0
 15 18  1  0
M  CHG  1   6  -1
M  END
>  <PDB_ID>  (164) 
pdb1d9c

>  <RESIDUE_NAME>  (164) 
GLU   PRO

>  <FRAG_NAME>  (164) 
ACET   PRPA

>  <FRAG_ATOM_NUM>  (164) 
fragi: 7  fragj: 11

>  <atom.prop.CHAIN_ID>  (164) 
A A A A A A A Z Z Z Z Z Z Z Z Z Z Z

>  <atom.prop.IS_HEAVY_ATOM>  (164) 
1 0 0 0 1 1 1 1 0 0 0 1 0 0 1 0 0 0

>  <DIFUSE_FUNC_ATOM>  (164) 
atom 6   atom 7   

>  <FINAL_SINGLE_POINT_ENERGY>  (164) 
0

>  <NONCOV_INTER_ENERGY_QM>  (164) 
0

>  <FF_Energy>  (164) 
31.85

>  <QM_Energy>  (164) 
6.17

>  <source>  (164) 
ACET_PRPA_01

>  <Index>  (164) 
29714

$$$$
ACET-pdb1d0j-B-GLU-479:PRPA-pdb1d0j-B-VAL-475
     RDKit          3D

 18 16  0  0  0  0  0  0  0  0999 V2000
    0.1750    1.4842    0.0137 C   0  0  0  0  0  0  0  0  0  0  0  0
    0.6948    1.7387   -0.8033 H   0  0  0  0  0  0  0  0  0  0  0  0
    0.7066    1.7217    0.8288 H   0  0  0  0  0  0  0  0  0  0  0  0
   -0.7357    2.0831    0.0259 H   0  0  0  0  0  0  0  0  0  0  0  0
    0.0000    0.0000    0.0000 C   0  0  0  0  0  0  0  0  0  0  0  0
   -1.0892   -0.5587    0.0000 O   0  0  0  0  0  1  0  0  0  0  0  0
    1.0892   -0.6083   -0.0000 O   0  0  0  0  0  0  0  0  0  0  0  0
    0.8943   -0.0630   -4.1602 C   0  0  0  0  0  0  0  0  0  0  0  0
    0.3568    0.7042   -4.5473 H   0  0  0  0  0  0  0  0  0  0  0  0
    1.6288   -0.3718   -4.9039 H   0  0  0  0  0  0  0  0  0  0  0  0
    1.3495    0.2885   -3.2343 H   0  0  0  0  0  0  0  0  0  0  0  0
   -0.0744   -1.2154   -3.8320 C   0  0  0  0  0  0  0  0  0  0  0  0
    0.4682   -1.9873   -3.5227 H   0  0  0  0  0  0  0  0  0  0  0  0
   -0.6730   -1.4524   -4.7115 H   0  0  0  0  0  0  0  0  0  0  0  0
   -0.9846   -0.8186   -2.6792 C   0  0  0  0  0  0  0  0  0  0  0  0
   -1.2954    0.1237   -2.8082 H   0  0  0  0  0  0  0  0  0  0  0  0
   -1.7765   -1.4284   -2.6532 H   0  0  0  0  0  0  0  0  0  0  0  0
   -0.4823   -0.8883   -1.8171 H   0  0  0  0  0  0  0  0  0  0  0  0
  1  5  1  0
  5  6  1  0
  5  7  2  0
  1  2  1  0
  1  3  1  0
  1  4  1  0
  8 12  1  0
 12 15  1  0
  8  9  1  0
  8 10  1  0
  8 11  1  0
 12 13  1  0
 12 14  1  0
 15 16  1  0
 15 17  1  0
 15 18  1  0
M  CHG  1   6  -1
M  END
>  <PDB_ID>  (165) 
pdb1d0j

>  <RESIDUE_NAME>  (165) 
GLU   VAL

>  <FRAG_NAME>  (165) 
ACET   PRPA

>  <FRAG_ATOM_NUM>  (165) 
fragi: 7  fragj: 11

>  <atom.prop.CHAIN_ID>  (165) 
A A A A A A A Z Z Z Z Z Z Z Z Z Z Z

>  <atom.prop.IS_HEAVY_ATOM>  (165) 
1 0 0 0 1 1 1 1 0 0 0 1 0 0 1 0 0 0

>  <DIFUSE_FUNC_ATOM>  (165) 
atom 6   atom 7   

>  <FINAL_SINGLE_POINT_ENERGY>  (165) 
0

>  <NONCOV_INTER_ENERGY_QM>  (165) 
0

>  <FF_Energy>  (165) 
25.0

>  <QM_Energy>  (165) 
2.3

>  <source>  (165) 
ACET_PRPA_01

>  <Index>  (165) 
29783

$$$$
ACET-pdb1d0j-B-GLU-479:PRPA-pdb1d0j-B-VAL-475
     RDKit          3D

 18 16  0  0  0  0  0  0  0  0999 V2000
    0.1750    1.4842    0.0137 C   0  0  0  0  0  0  0  0  0  0  0  0
    0.6948    1.7387   -0.8033 H   0  0  0  0  0  0  0  0  0  0  0  0
    0.7066    1.7217    0.8288 H   0  0  0  0  0  0  0  0  0  0  0  0
   -0.7357    2.0831    0.0259 H   0  0  0  0  0  0  0  0  0  0  0  0
    0.0000    0.0000    0.0000 C   0  0  0  0  0  0  0  0  0  0  0  0
   -1.0892   -0.5587    0.0000 O   0  0  0  0  0  1  0  0  0  0  0  0
    1.0892   -0.6083   -0.0000 O   0  0  0  0  0  0  0  0  0  0  0  0
   -0.9846   -0.8186   -2.6792 C   0  0  0  0  0  0  0  0  0  0  0  0
   -1.2954    0.1237   -2.8082 H   0  0  0  0  0  0  0  0  0  0  0  0
   -1.7765   -1.4284   -2.6532 H   0  0  0  0  0  0  0  0  0  0  0  0
   -0.4823   -0.8883   -1.8171 H   0  0  0  0  0  0  0  0  0  0  0  0
   -0.0744   -1.2154   -3.8320 C   0  0  0  0  0  0  0  0  0  0  0  0
    0.4682   -1.9873   -3.5227 H   0  0  0  0  0  0  0  0  0  0  0  0
    0.6109   -0.4001   -4.0641 H   0  0  0  0  0  0  0  0  0  0  0  0
   -0.9083   -1.5456   -5.0573 C   0  0  0  0  0  0  0  0  0  0  0  0
   -1.1975   -2.5019   -5.0134 H   0  0  0  0  0  0  0  0  0  0  0  0
   -1.7135   -0.9520   -5.0800 H   0  0  0  0  0  0  0  0  0  0  0  0
   -0.3602   -1.3979   -5.8805 H   0  0  0  0  0  0  0  0  0  0  0  0
  1  5  1  0
  5  6  1  0
  5  7  2  0
  1  2  1  0
  1  3  1  0
  1  4  1  0
  8 12  1  0
 12 15  1  0
  8  9  1  0
  8 10  1  0
  8 11  1  0
 12 13  1  0
 12 14  1  0
 15 16  1  0
 15 17  1  0
 15 18  1  0
M  CHG  1   6  -1
M  END
>  <PDB_ID>  (166) 
pdb1d0j

>  <RESIDUE_NAME>  (166) 
GLU   VAL

>  <FRAG_NAME>  (166) 
ACET   PRPA

>  <FRAG_ATOM_NUM>  (166) 
fragi: 7  fragj: 11

>  <atom.prop.CHAIN_ID>  (166) 
A A A A A A A Z Z Z Z Z Z Z Z Z Z Z

>  <atom.prop.IS_HEAVY_ATOM>  (166) 
1 0 0 0 1 1 1 1 0 0 0 1 0 0 1 0 0 0

>  <DIFUSE_FUNC_ATOM>  (166) 
atom 6   atom 7   

>  <FINAL_SINGLE_POINT_ENERGY>  (166) 
0

>  <NONCOV_INTER_ENERGY_QM>  (166) 
0

>  <FF_Energy>  (166) 
16.97

>  <QM_Energy>  (166) 
3.62

>  <source>  (166) 
ACET_PRPA_01

>  <Index>  (166) 
29789

$$$$
ACET-pdb1d6j-B-GLU-16:PRPA-pdb1d6j-A-ARG-51
     RDKit          3D

 18 16  0  0  0  0  0  0  0  0999 V2000
   -0.0058    1.5110   -0.0052 C   0  0  0  0  0  0  0  0  0  0  0  0
    0.3822    1.8088   -0.8557 H   0  0  0  0  0  0  0  0  0  0  0  0
    0.5113    1.8145    0.7714 H   0  0  0  0  0  0  0  0  0  0  0  0
   -1.0135    1.9191    0.0724 H   0  0  0  0  0  0  0  0  0  0  0  0
    0.0000    0.0000    0.0000 C   0  0  0  0  0  0  0  0  0  0  0  0
   -1.1159   -0.5785   -0.0000 O   0  0  0  0  0  1  0  0  0  0  0  0
    1.1159   -0.5902    0.0000 O   0  0  0  0  0  0  0  0  0  0  0  0
    5.1158   -0.7217   -2.8138 C   0  0  0  0  0  0  0  0  0  0  0  0
    4.8044   -1.5426   -3.3063 H   0  0  0  0  0  0  0  0  0  0  0  0
    5.8060   -1.0014   -2.1364 H   0  0  0  0  0  0  0  0  0  0  0  0
    5.5975   -0.0593   -3.5330 H   0  0  0  0  0  0  0  0  0  0  0  0
    3.9459   -0.1426   -2.0800 C   0  0  0  0  0  0  0  0  0  0  0  0
    4.1950    0.7073   -1.6626 H   0  0  0  0  0  0  0  0  0  0  0  0
    3.1768   -0.0607   -2.6808 H   0  0  0  0  0  0  0  0  0  0  0  0
    3.5991   -1.1268   -0.9922 C   0  0  0  0  0  0  0  0  0  0  0  0
    2.8091   -0.7875   -0.4972 H   0  0  0  0  0  0  0  0  0  0  0  0
    3.4033   -2.0048   -1.4108 H   0  0  0  0  0  0  0  0  0  0  0  0
    4.4309   -1.2407   -0.2970 H   0  0  0  0  0  0  0  0  0  0  0  0
  1  5  1  0
  5  6  1  0
  5  7  2  0
  1  2  1  0
  1  3  1  0
  1  4  1  0
  8 12  1  0
 12 15  1  0
  8  9  1  0
  8 10  1  0
  8 11  1  0
 12 13  1  0
 12 14  1  0
 15 16  1  0
 15 17  1  0
 15 18  1  0
M  CHG  1   6  -1
M  END
>  <PDB_ID>  (167) 
pdb1d6j

>  <RESIDUE_NAME>  (167) 
GLU   ARG

>  <FRAG_NAME>  (167) 
ACET   PRPA

>  <FRAG_ATOM_NUM>  (167) 
fragi: 7  fragj: 11

>  <atom.prop.CHAIN_ID>  (167) 
A A A A A A A Z Z Z Z Z Z Z Z Z Z Z

>  <atom.prop.IS_HEAVY_ATOM>  (167) 
1 0 0 0 1 1 1 1 0 0 0 1 0 0 1 0 0 0

>  <DIFUSE_FUNC_ATOM>  (167) 
atom 6   atom 7   

>  <FINAL_SINGLE_POINT_ENERGY>  (167) 
0

>  <NONCOV_INTER_ENERGY_QM>  (167) 
0

>  <FF_Energy>  (167) 
12.61

>  <QM_Energy>  (167) 
0.91

>  <source>  (167) 
ACET_PRPA_01

>  <Index>  (167) 
30806

$$$$
ACET-pdb1d0n-A-GLU-655:PRPA-pdb1d0n-A-ARG-169
     RDKit          3D

 18 16  0  0  0  0  0  0  0  0999 V2000
    0.0138    1.5202    0.0092 C   0  0  0  0  0  0  0  0  0  0  0  0
    0.9321    1.8116   -0.1911 H   0  0  0  0  0  0  0  0  0  0  0  0
   -0.2813    1.8150    0.9005 H   0  0  0  0  0  0  0  0  0  0  0  0
   -0.6508    1.9638   -0.7322 H   0  0  0  0  0  0  0  0  0  0  0  0
    0.0000    0.0000    0.0000 C   0  0  0  0  0  0  0  0  0  0  0  0
   -1.0996   -0.5975   -0.0000 O   0  0  0  0  0  1  0  0  0  0  0  0
    1.0996   -0.5938    0.0000 O   0  0  0  0  0  0  0  0  0  0  0  0
    2.6817   -3.2761   -3.5782 C   0  0  0  0  0  0  0  0  0  0  0  0
    2.7744   -3.3896   -4.5680 H   0  0  0  0  0  0  0  0  0  0  0  0
    1.8989   -3.9441   -3.2190 H   0  0  0  0  0  0  0  0  0  0  0  0
    3.6289   -3.5369   -3.1061 H   0  0  0  0  0  0  0  0  0  0  0  0
    2.3268   -1.8136   -3.2720 C   0  0  0  0  0  0  0  0  0  0  0  0
    3.0318   -1.4435   -2.6756 H   0  0  0  0  0  0  0  0  0  0  0  0
    2.3056   -1.3153   -4.1315 H   0  0  0  0  0  0  0  0  0  0  0  0
    0.9835   -1.6368   -2.5869 C   0  0  0  0  0  0  0  0  0  0  0  0
    0.6690   -2.5236   -2.2343 H   0  0  0  0  0  0  0  0  0  0  0  0
    1.0843   -1.0011   -1.8156 H   0  0  0  0  0  0  0  0  0  0  0  0
    0.2101   -1.2439   -3.2469 H   0  0  0  0  0  0  0  0  0  0  0  0
  1  5  1  0
  5  6  1  0
  5  7  2  0
  1  2  1  0
  1  3  1  0
  1  4  1  0
  8 12  1  0
 12 15  1  0
  8  9  1  0
  8 10  1  0
  8 11  1  0
 12 13  1  0
 12 14  1  0
 15 16  1  0
 15 17  1  0
 15 18  1  0
M  CHG  1   6  -1
M  END
>  <PDB_ID>  (168) 
pdb1d0n

>  <RESIDUE_NAME>  (168) 
GLU   ARG

>  <FRAG_NAME>  (168) 
ACET   PRPA

>  <FRAG_ATOM_NUM>  (168) 
fragi: 7  fragj: 11

>  <atom.prop.CHAIN_ID>  (168) 
A A A A A A A Z Z Z Z Z Z Z Z Z Z Z

>  <atom.prop.IS_HEAVY_ATOM>  (168) 
1 0 0 0 1 1 1 1 0 0 0 1 0 0 1 0 0 0

>  <DIFUSE_FUNC_ATOM>  (168) 
atom 6   atom 7   

>  <FINAL_SINGLE_POINT_ENERGY>  (168) 
0

>  <NONCOV_INTER_ENERGY_QM>  (168) 
0

>  <FF_Energy>  (168) 
20.65

>  <QM_Energy>  (168) 
0.94

>  <source>  (168) 
ACET_PRPA_01

>  <Index>  (168) 
32330

$$$$
ACET-pdb1d0n-A-GLU-655:PRPA-pdb1d0n-A-ARG-169
     RDKit          3D

 18 16  0  0  0  0  0  0  0  0999 V2000
    0.0138    1.5202    0.0092 C   0  0  0  0  0  0  0  0  0  0  0  0
    0.9321    1.8116   -0.1911 H   0  0  0  0  0  0  0  0  0  0  0  0
   -0.2813    1.8150    0.9005 H   0  0  0  0  0  0  0  0  0  0  0  0
   -0.6508    1.9638   -0.7322 H   0  0  0  0  0  0  0  0  0  0  0  0
    0.0000    0.0000    0.0000 C   0  0  0  0  0  0  0  0  0  0  0  0
   -1.0996   -0.5975   -0.0000 O   0  0  0  0  0  1  0  0  0  0  0  0
    1.0996   -0.5938    0.0000 O   0  0  0  0  0  0  0  0  0  0  0  0
    2.3268   -1.8136   -3.2720 C   0  0  0  0  0  0  0  0  0  0  0  0
    3.0318   -1.4435   -2.6756 H   0  0  0  0  0  0  0  0  0  0  0  0
    2.3056   -1.3153   -4.1315 H   0  0  0  0  0  0  0  0  0  0  0  0
    2.5787   -2.8515   -3.4893 H   0  0  0  0  0  0  0  0  0  0  0  0
    0.9835   -1.6368   -2.5869 C   0  0  0  0  0  0  0  0  0  0  0  0
    0.6690   -2.5236   -2.2343 H   0  0  0  0  0  0  0  0  0  0  0  0
    1.0843   -1.0011   -1.8156 H   0  0  0  0  0  0  0  0  0  0  0  0
   -0.0951   -1.0888   -3.5074 C   0  0  0  0  0  0  0  0  0  0  0  0
   -0.9812   -1.2170   -3.0566 H   0  0  0  0  0  0  0  0  0  0  0  0
    0.0727   -0.1079   -3.6289 H   0  0  0  0  0  0  0  0  0  0  0  0
   -0.1171   -1.5724   -4.4840 H   0  0  0  0  0  0  0  0  0  0  0  0
  1  5  1  0
  5  6  1  0
  5  7  2  0
  1  2  1  0
  1  3  1  0
  1  4  1  0
  8 12  1  0
 12 15  1  0
  8  9  1  0
  8 10  1  0
  8 11  1  0
 12 13  1  0
 12 14  1  0
 15 16  1  0
 15 17  1  0
 15 18  1  0
M  CHG  1   6  -1
M  END
>  <PDB_ID>  (169) 
pdb1d0n

>  <RESIDUE_NAME>  (169) 
GLU   ARG

>  <FRAG_NAME>  (169) 
ACET   PRPA

>  <FRAG_ATOM_NUM>  (169) 
fragi: 7  fragj: 11

>  <atom.prop.CHAIN_ID>  (169) 
A A A A A A A Z Z Z Z Z Z Z Z Z Z Z

>  <atom.prop.IS_HEAVY_ATOM>  (169) 
1 0 0 0 1 1 1 1 0 0 0 1 0 0 1 0 0 0

>  <DIFUSE_FUNC_ATOM>  (169) 
atom 6   atom 7   

>  <FINAL_SINGLE_POINT_ENERGY>  (169) 
0

>  <NONCOV_INTER_ENERGY_QM>  (169) 
0

>  <FF_Energy>  (169) 
23.28

>  <QM_Energy>  (169) 
-0.5

>  <source>  (169) 
ACET_PRPA_01

>  <Index>  (169) 
32333

$$$$
ACET-pdb1cg2-B-GLU-235:PRPA-pdb1cg2-D-LYS-124
     RDKit          3D

 18 16  0  0  0  0  0  0  0  0999 V2000
    0.0023    1.5334   -0.0027 C   0  0  0  0  0  0  0  0  0  0  0  0
   -0.1047    1.8253   -0.9327 H   0  0  0  0  0  0  0  0  0  0  0  0
    0.8523    1.8259    0.3901 H   0  0  0  0  0  0  0  0  0  0  0  0
   -0.8107    1.9615    0.5837 H   0  0  0  0  0  0  0  0  0  0  0  0
    0.0000    0.0000    0.0000 C   0  0  0  0  0  0  0  0  0  0  0  0
   -1.1061   -0.5942    0.0000 O   0  0  0  0  0  1  0  0  0  0  0  0
    1.1061   -0.6008    0.0000 O   0  0  0  0  0  0  0  0  0  0  0  0
   -4.5720   -3.1716   -1.8356 C   0  0  0  0  0  0  0  0  0  0  0  0
   -4.0854   -2.9181   -2.6750 H   0  0  0  0  0  0  0  0  0  0  0  0
   -5.4165   -2.6378   -1.7719 H   0  0  0  0  0  0  0  0  0  0  0  0
   -4.8240   -4.2312   -1.8796 H   0  0  0  0  0  0  0  0  0  0  0  0
   -3.6940   -2.8517   -0.6416 C   0  0  0  0  0  0  0  0  0  0  0  0
   -4.1823   -3.1077    0.1943 H   0  0  0  0  0  0  0  0  0  0  0  0
   -2.8500   -3.3867   -0.7088 H   0  0  0  0  0  0  0  0  0  0  0  0
   -3.3307   -1.3866   -0.5600 C   0  0  0  0  0  0  0  0  0  0  0  0
   -4.1506   -0.8357   -0.7229 H   0  0  0  0  0  0  0  0  0  0  0  0
   -2.9746   -1.1867    0.3535 H   0  0  0  0  0  0  0  0  0  0  0  0
   -2.5745   -1.1335   -1.3031 H   0  0  0  0  0  0  0  0  0  0  0  0
  1  5  1  0
  5  6  1  0
  5  7  2  0
  1  2  1  0
  1  3  1  0
  1  4  1  0
  8 12  1  0
 12 15  1  0
  8  9  1  0
  8 10  1  0
  8 11  1  0
 12 13  1  0
 12 14  1  0
 15 16  1  0
 15 17  1  0
 15 18  1  0
M  CHG  1   6  -1
M  END
>  <PDB_ID>  (170) 
pdb1cg2

>  <RESIDUE_NAME>  (170) 
GLU   LYS

>  <FRAG_NAME>  (170) 
ACET   PRPA

>  <FRAG_ATOM_NUM>  (170) 
fragi: 7  fragj: 11

>  <atom.prop.CHAIN_ID>  (170) 
A A A A A A A Z Z Z Z Z Z Z Z Z Z Z

>  <atom.prop.IS_HEAVY_ATOM>  (170) 
1 0 0 0 1 1 1 1 0 0 0 1 0 0 1 0 0 0

>  <DIFUSE_FUNC_ATOM>  (170) 
atom 6   atom 7   

>  <FINAL_SINGLE_POINT_ENERGY>  (170) 
0

>  <NONCOV_INTER_ENERGY_QM>  (170) 
0

>  <FF_Energy>  (170) 
26.43

>  <QM_Energy>  (170) 
7.99

>  <source>  (170) 
ACET_PRPA_01

>  <Index>  (170) 
32541

$$$$
ACET-pdb1d7k-B-GLU-368:PRPA-pdb1d7k-A-ARG-165
     RDKit          3D

 18 16  0  0  0  0  0  0  0  0999 V2000
    0.0973    1.5138   -0.0779 C   0  0  0  0  0  0  0  0  0  0  0  0
    0.6778    1.7243   -0.8562 H   0  0  0  0  0  0  0  0  0  0  0  0
    0.5247    1.8168    0.7663 H   0  0  0  0  0  0  0  0  0  0  0  0
   -0.8597    2.0215   -0.1981 H   0  0  0  0  0  0  0  0  0  0  0  0
    0.0000    0.0000    0.0000 C   0  0  0  0  0  0  0  0  0  0  0  0
   -1.0357   -0.6437   -0.0000 O   0  0  0  0  0  1  0  0  0  0  0  0
    1.0357   -0.6575   -0.0000 O   0  0  0  0  0  0  0  0  0  0  0  0
    4.3265   -1.0511    2.1371 C   0  0  0  0  0  0  0  0  0  0  0  0
    3.9745   -1.9762    2.2294 H   0  0  0  0  0  0  0  0  0  0  0  0
    4.3316   -0.5921    3.0192 H   0  0  0  0  0  0  0  0  0  0  0  0
    5.3550   -1.1146    1.7820 H   0  0  0  0  0  0  0  0  0  0  0  0
    3.4043   -0.2810    1.2065 C   0  0  0  0  0  0  0  0  0  0  0  0
    2.4450   -0.5884    1.3665 H   0  0  0  0  0  0  0  0  0  0  0  0
    3.4353    0.7069    1.4572 H   0  0  0  0  0  0  0  0  0  0  0  0
    3.6898   -0.3950   -0.2674 C   0  0  0  0  0  0  0  0  0  0  0  0
    3.3574    0.5116   -0.7060 H   0  0  0  0  0  0  0  0  0  0  0  0
    4.7407   -0.2925   -0.3749 H   0  0  0  0  0  0  0  0  0  0  0  0
    3.3666   -1.2139   -0.9099 H   0  0  0  0  0  0  0  0  0  0  0  0
  1  5  1  0
  5  6  1  0
  5  7  2  0
  1  2  1  0
  1  3  1  0
  1  4  1  0
  8 12  1  0
 12 15  1  0
  8  9  1  0
  8 10  1  0
  8 11  1  0
 12 13  1  0
 12 14  1  0
 15 16  1  0
 15 17  1  0
 15 18  1  0
M  CHG  1   6  -1
M  END
>  <PDB_ID>  (171) 
pdb1d7k

>  <RESIDUE_NAME>  (171) 
GLU   ARG

>  <FRAG_NAME>  (171) 
ACET   PRPA

>  <FRAG_ATOM_NUM>  (171) 
fragi: 7  fragj: 11

>  <atom.prop.CHAIN_ID>  (171) 
A A A A A A A Z Z Z Z Z Z Z Z Z Z Z

>  <atom.prop.IS_HEAVY_ATOM>  (171) 
1 0 0 0 1 1 1 1 0 0 0 1 0 0 1 0 0 0

>  <DIFUSE_FUNC_ATOM>  (171) 
atom 6   atom 7   

>  <FINAL_SINGLE_POINT_ENERGY>  (171) 
0

>  <NONCOV_INTER_ENERGY_QM>  (171) 
0

>  <FF_Energy>  (171) 
17.65

>  <QM_Energy>  (171) 
1.65

>  <source>  (171) 
ACET_PRPA_01

>  <Index>  (171) 
33019

$$$$
ACET-pdb2e2d-A-ASP-179:PRPA-pdb2e2d-A-LEU-184
     RDKit          3D

 18 16  0  0  0  0  0  0  0  0999 V2000
   -0.0328    1.5163    0.0093 C   0  0  0  0  0  0  0  0  0  0  0  0
    0.5310    1.8484   -0.7386 H   0  0  0  0  0  0  0  0  0  0  0  0
    0.3239    1.8349    0.8797 H   0  0  0  0  0  0  0  0  0  0  0  0
   -1.0411    1.9107   -0.1166 H   0  0  0  0  0  0  0  0  0  0  0  0
    0.0000    0.0000    0.0000 C   0  0  0  0  0  0  0  0  0  0  0  0
   -1.0725   -0.6659   -0.0000 O   0  0  0  0  0  1  0  0  0  0  0  0
    1.0725   -0.6223    0.0000 O   0  0  0  0  0  0  0  0  0  0  0  0
    0.1346   -2.3706    3.1572 C   0  0  0  0  0  0  0  0  0  0  0  0
   -0.3291   -1.7228    2.6029 H   0  0  0  0  0  0  0  0  0  0  0  0
   -0.3354   -2.6224    3.9666 H   0  0  0  0  0  0  0  0  0  0  0  0
    0.3040   -3.2696    2.5646 H   0  0  0  0  0  0  0  0  0  0  0  0
    1.4739   -1.7660    3.5612 C   0  0  0  0  0  0  0  0  0  0  0  0
    1.9482   -2.3955    4.1694 H   0  0  0  0  0  0  0  0  0  0  0  0
    1.3066   -0.8176    4.0717 H   0  0  0  0  0  0  0  0  0  0  0  0
    2.3217   -1.5322    2.3163 C   0  0  0  0  0  0  0  0  0  0  0  0
    1.8442   -0.9044    1.7012 H   0  0  0  0  0  0  0  0  0  0  0  0
    3.2007   -1.1359    2.5811 H   0  0  0  0  0  0  0  0  0  0  0  0
    2.4759   -2.4036    1.8495 H   0  0  0  0  0  0  0  0  0  0  0  0
  1  5  1  0
  5  6  1  0
  5  7  2  0
  1  2  1  0
  1  3  1  0
  1  4  1  0
  8 12  1  0
 12 15  1  0
  8  9  1  0
  8 10  1  0
  8 11  1  0
 12 13  1  0
 12 14  1  0
 15 16  1  0
 15 17  1  0
 15 18  1  0
M  CHG  1   6  -1
M  END
>  <PDB_ID>  (172) 
pdb2e2d

>  <RESIDUE_NAME>  (172) 
ASP   LEU

>  <FRAG_NAME>  (172) 
ACET   PRPA

>  <FRAG_ATOM_NUM>  (172) 
fragi: 7  fragj: 11

>  <atom.prop.CHAIN_ID>  (172) 
A A A A A A A Z Z Z Z Z Z Z Z Z Z Z

>  <atom.prop.IS_HEAVY_ATOM>  (172) 
1 0 0 0 1 1 1 1 0 0 0 1 0 0 1 0 0 0

>  <DIFUSE_FUNC_ATOM>  (172) 
atom 6   atom 7   

>  <FINAL_SINGLE_POINT_ENERGY>  (172) 
0

>  <NONCOV_INTER_ENERGY_QM>  (172) 
0

>  <FF_Energy>  (172) 
15.31

>  <QM_Energy>  (172) 
-0.62

>  <source>  (172) 
ACET_PRPA_01

>  <Index>  (172) 
33544

$$$$
ACET-pdb1dcl-A-GLU-128:PRPA-pdb1dcl-A-LYS-133
     RDKit          3D

 18 16  0  0  0  0  0  0  0  0999 V2000
    0.1642    1.4945    0.0064 C   0  0  0  0  0  0  0  0  0  0  0  0
    0.5347    1.7575   -0.8860 H   0  0  0  0  0  0  0  0  0  0  0  0
    0.8321    1.7167    0.7192 H   0  0  0  0  0  0  0  0  0  0  0  0
   -0.7362    2.0817    0.1867 H   0  0  0  0  0  0  0  0  0  0  0  0
    0.0000    0.0000    0.0000 C   0  0  0  0  0  0  0  0  0  0  0  0
   -1.1168   -0.5521   -0.0000 O   0  0  0  0  0  1  0  0  0  0  0  0
    1.1168   -0.5716    0.0000 O   0  0  0  0  0  0  0  0  0  0  0  0
    2.4032    2.1098   -3.4944 C   0  0  0  0  0  0  0  0  0  0  0  0
    3.1772    1.6501   -3.9274 H   0  0  0  0  0  0  0  0  0  0  0  0
    2.3073    3.1184   -3.8964 H   0  0  0  0  0  0  0  0  0  0  0  0
    1.5015    1.5419   -3.7237 H   0  0  0  0  0  0  0  0  0  0  0  0
    2.5876    2.0596   -1.9741 C   0  0  0  0  0  0  0  0  0  0  0  0
    1.7216    2.3861   -1.5473 H   0  0  0  0  0  0  0  0  0  0  0  0
    2.6862    1.0800   -1.7078 H   0  0  0  0  0  0  0  0  0  0  0  0
    3.7370    2.8316   -1.3438 C   0  0  0  0  0  0  0  0  0  0  0  0
    3.9354    3.6479   -1.9214 H   0  0  0  0  0  0  0  0  0  0  0  0
    3.4333    3.1863   -0.4381 H   0  0  0  0  0  0  0  0  0  0  0  0
    4.6642    2.2761   -1.2029 H   0  0  0  0  0  0  0  0  0  0  0  0
  1  5  1  0
  5  6  1  0
  5  7  2  0
  1  2  1  0
  1  3  1  0
  1  4  1  0
  8 12  1  0
 12 15  1  0
  8  9  1  0
  8 10  1  0
  8 11  1  0
 12 13  1  0
 12 14  1  0
 15 16  1  0
 15 17  1  0
 15 18  1  0
M  CHG  1   6  -1
M  END
>  <PDB_ID>  (173) 
pdb1dcl

>  <RESIDUE_NAME>  (173) 
GLU   LYS

>  <FRAG_NAME>  (173) 
ACET   PRPA

>  <FRAG_ATOM_NUM>  (173) 
fragi: 7  fragj: 11

>  <atom.prop.CHAIN_ID>  (173) 
A A A A A A A Z Z Z Z Z Z Z Z Z Z Z

>  <atom.prop.IS_HEAVY_ATOM>  (173) 
1 0 0 0 1 1 1 1 0 0 0 1 0 0 1 0 0 0

>  <DIFUSE_FUNC_ATOM>  (173) 
atom 6   atom 7   

>  <FINAL_SINGLE_POINT_ENERGY>  (173) 
0

>  <NONCOV_INTER_ENERGY_QM>  (173) 
0

>  <FF_Energy>  (173) 
33.05

>  <QM_Energy>  (173) 
3.31

>  <source>  (173) 
ACET_PRPA_01

>  <Index>  (173) 
33700

$$$$
ACET-pdb1dcl-A-GLU-128:PRPA-pdb1dcl-A-LYS-133
     RDKit          3D

 18 16  0  0  0  0  0  0  0  0999 V2000
    0.1642    1.4945    0.0064 C   0  0  0  0  0  0  0  0  0  0  0  0
    0.5347    1.7575   -0.8860 H   0  0  0  0  0  0  0  0  0  0  0  0
    0.8321    1.7167    0.7192 H   0  0  0  0  0  0  0  0  0  0  0  0
   -0.7362    2.0817    0.1867 H   0  0  0  0  0  0  0  0  0  0  0  0
    0.0000    0.0000    0.0000 C   0  0  0  0  0  0  0  0  0  0  0  0
   -1.1168   -0.5521   -0.0000 O   0  0  0  0  0  1  0  0  0  0  0  0
    1.1168   -0.5716    0.0000 O   0  0  0  0  0  0  0  0  0  0  0  0
    2.5876    2.0596   -1.9741 C   0  0  0  0  0  0  0  0  0  0  0  0
    1.7216    2.3861   -1.5473 H   0  0  0  0  0  0  0  0  0  0  0  0
    2.6862    1.0800   -1.7078 H   0  0  0  0  0  0  0  0  0  0  0  0
    2.4565    2.0953   -3.0556 H   0  0  0  0  0  0  0  0  0  0  0  0
    3.7370    2.8316   -1.3438 C   0  0  0  0  0  0  0  0  0  0  0  0
    3.9354    3.6479   -1.9214 H   0  0  0  0  0  0  0  0  0  0  0  0
    3.4333    3.1863   -0.4381 H   0  0  0  0  0  0  0  0  0  0  0  0
    5.0318    2.0559   -1.1471 C   0  0  0  0  0  0  0  0  0  0  0  0
    5.2400    1.5648   -2.0223 H   0  0  0  0  0  0  0  0  0  0  0  0
    5.7901    2.7353   -1.0248 H   0  0  0  0  0  0  0  0  0  0  0  0
    5.0787    1.3366   -0.3294 H   0  0  0  0  0  0  0  0  0  0  0  0
  1  5  1  0
  5  6  1  0
  5  7  2  0
  1  2  1  0
  1  3  1  0
  1  4  1  0
  8 12  1  0
 12 15  1  0
  8  9  1  0
  8 10  1  0
  8 11  1  0
 12 13  1  0
 12 14  1  0
 15 16  1  0
 15 17  1  0
 15 18  1  0
M  CHG  1   6  -1
M  END
>  <PDB_ID>  (174) 
pdb1dcl

>  <RESIDUE_NAME>  (174) 
GLU   LYS

>  <FRAG_NAME>  (174) 
ACET   PRPA

>  <FRAG_ATOM_NUM>  (174) 
fragi: 7  fragj: 11

>  <atom.prop.CHAIN_ID>  (174) 
A A A A A A A Z Z Z Z Z Z Z Z Z Z Z

>  <atom.prop.IS_HEAVY_ATOM>  (174) 
1 0 0 0 1 1 1 1 0 0 0 1 0 0 1 0 0 0

>  <DIFUSE_FUNC_ATOM>  (174) 
atom 6   atom 7   

>  <FINAL_SINGLE_POINT_ENERGY>  (174) 
0

>  <NONCOV_INTER_ENERGY_QM>  (174) 
0

>  <FF_Energy>  (174) 
29.43

>  <QM_Energy>  (174) 
3.86

>  <source>  (174) 
ACET_PRPA_01

>  <Index>  (174) 
33709

$$$$
ACET-pdb2e46-A-GLU-95:PRPA-pdb2e46-A-PRO-44
     RDKit          3D

 18 16  0  0  0  0  0  0  0  0999 V2000
    0.0365    1.4743   -0.0341 C   0  0  0  0  0  0  0  0  0  0  0  0
   -0.4549    1.8029    0.7472 H   0  0  0  0  0  0  0  0  0  0  0  0
   -0.3609    1.7622   -0.8825 H   0  0  0  0  0  0  0  0  0  0  0  0
    1.0745    1.8030    0.0185 H   0  0  0  0  0  0  0  0  0  0  0  0
    0.0000    0.0000    0.0000 C   0  0  0  0  0  0  0  0  0  0  0  0
   -1.1223   -0.5495    0.0000 O   0  0  0  0  0  1  0  0  0  0  0  0
    1.1223   -0.5973    0.0000 O   0  0  0  0  0  0  0  0  0  0  0  0
    1.3169   -2.3703    4.6683 C   0  0  0  0  0  0  0  0  0  0  0  0
    1.5672   -1.5424    5.2291 H   0  0  0  0  0  0  0  0  0  0  0  0
    2.2197   -2.8348    4.2717 H   0  0  0  0  0  0  0  0  0  0  0  0
    0.6366   -3.0055    5.2357 H   0  0  0  0  0  0  0  0  0  0  0  0
    0.6633   -1.6951    3.4272 C   0  0  0  0  0  0  0  0  0  0  0  0
   -0.3049   -1.8858    3.3921 H   0  0  0  0  0  0  0  0  0  0  0  0
    0.8439   -0.7252    3.4186 H   0  0  0  0  0  0  0  0  0  0  0  0
    1.3842   -2.3824    2.2472 C   0  0  0  0  0  0  0  0  0  0  0  0
    0.8647   -3.2112    1.9924 H   0  0  0  0  0  0  0  0  0  0  0  0
    1.3717   -1.7545    1.4550 H   0  0  0  0  0  0  0  0  0  0  0  0
    2.3961   -2.6118    2.5812 H   0  0  0  0  0  0  0  0  0  0  0  0
  1  5  1  0
  5  6  1  0
  5  7  2  0
  1  2  1  0
  1  3  1  0
  1  4  1  0
  8 12  1  0
 12 15  1  0
  8  9  1  0
  8 10  1  0
  8 11  1  0
 12 13  1  0
 12 14  1  0
 15 16  1  0
 15 17  1  0
 15 18  1  0
M  CHG  1   6  -1
M  END
>  <PDB_ID>  (175) 
pdb2e46

>  <RESIDUE_NAME>  (175) 
GLU   PRO

>  <FRAG_NAME>  (175) 
ACET   PRPA

>  <FRAG_ATOM_NUM>  (175) 
fragi: 7  fragj: 11

>  <atom.prop.CHAIN_ID>  (175) 
A A A A A A A Z Z Z Z Z Z Z Z Z Z Z

>  <atom.prop.IS_HEAVY_ATOM>  (175) 
1 0 0 0 1 1 1 1 0 0 0 1 0 0 1 0 0 0

>  <DIFUSE_FUNC_ATOM>  (175) 
atom 6   atom 7   

>  <FINAL_SINGLE_POINT_ENERGY>  (175) 
0

>  <NONCOV_INTER_ENERGY_QM>  (175) 
0

>  <FF_Energy>  (175) 
15.56

>  <QM_Energy>  (175) 
-1.66

>  <source>  (175) 
ACET_PRPA_01

>  <Index>  (175) 
33796

$$$$
ACET-pdb2e46-A-GLU-95:PRPA-pdb2e46-A-PRO-44
     RDKit          3D

 18 16  0  0  0  0  0  0  0  0999 V2000
    0.0365    1.4743   -0.0341 C   0  0  0  0  0  0  0  0  0  0  0  0
   -0.4549    1.8029    0.7472 H   0  0  0  0  0  0  0  0  0  0  0  0
   -0.3609    1.7622   -0.8825 H   0  0  0  0  0  0  0  0  0  0  0  0
    1.0745    1.8030    0.0185 H   0  0  0  0  0  0  0  0  0  0  0  0
    0.0000    0.0000    0.0000 C   0  0  0  0  0  0  0  0  0  0  0  0
   -1.1223   -0.5495    0.0000 O   0  0  0  0  0  1  0  0  0  0  0  0
    1.1223   -0.5973    0.0000 O   0  0  0  0  0  0  0  0  0  0  0  0
    0.6633   -1.6951    3.4272 C   0  0  0  0  0  0  0  0  0  0  0  0
   -0.3049   -1.8858    3.3921 H   0  0  0  0  0  0  0  0  0  0  0  0
    0.8439   -0.7252    3.4186 H   0  0  0  0  0  0  0  0  0  0  0  0
    1.1210   -2.1679    4.2961 H   0  0  0  0  0  0  0  0  0  0  0  0
    1.3842   -2.3824    2.2472 C   0  0  0  0  0  0  0  0  0  0  0  0
    0.8647   -3.2112    1.9924 H   0  0  0  0  0  0  0  0  0  0  0  0
    1.3717   -1.7545    1.4550 H   0  0  0  0  0  0  0  0  0  0  0  0
    2.7471   -2.6914    2.6971 C   0  0  0  0  0  0  0  0  0  0  0  0
    3.1362   -3.4849    2.2291 H   0  0  0  0  0  0  0  0  0  0  0  0
    3.3695   -1.9131    2.6022 H   0  0  0  0  0  0  0  0  0  0  0  0
    2.5978   -2.9201    3.7524 H   0  0  0  0  0  0  0  0  0  0  0  0
  1  5  1  0
  5  6  1  0
  5  7  2  0
  1  2  1  0
  1  3  1  0
  1  4  1  0
  8 12  1  0
 12 15  1  0
  8  9  1  0
  8 10  1  0
  8 11  1  0
 12 13  1  0
 12 14  1  0
 15 16  1  0
 15 17  1  0
 15 18  1  0
M  CHG  1   6  -1
M  END
>  <PDB_ID>  (176) 
pdb2e46

>  <RESIDUE_NAME>  (176) 
GLU   PRO

>  <FRAG_NAME>  (176) 
ACET   PRPA

>  <FRAG_ATOM_NUM>  (176) 
fragi: 7  fragj: 11

>  <atom.prop.CHAIN_ID>  (176) 
A A A A A A A Z Z Z Z Z Z Z Z Z Z Z

>  <atom.prop.IS_HEAVY_ATOM>  (176) 
1 0 0 0 1 1 1 1 0 0 0 1 0 0 1 0 0 0

>  <DIFUSE_FUNC_ATOM>  (176) 
atom 6   atom 7   

>  <FINAL_SINGLE_POINT_ENERGY>  (176) 
0

>  <NONCOV_INTER_ENERGY_QM>  (176) 
0

>  <FF_Energy>  (176) 
18.57

>  <QM_Energy>  (176) 
-2.17

>  <source>  (176) 
ACET_PRPA_01

>  <Index>  (176) 
33798

$$$$
ACET-pdb1d9q-A-GLU-76:PRPA-pdb1d9q-A-LYS-79
     RDKit          3D

 18 16  0  0  0  0  0  0  0  0999 V2000
    0.0038    1.5255    0.0000 C   0  0  0  0  0  0  0  0  0  0  0  0
    0.4692    1.8179   -0.8115 H   0  0  0  0  0  0  0  0  0  0  0  0
    0.4546    1.8180    0.8201 H   0  0  0  0  0  0  0  0  0  0  0  0
   -1.0024    1.9446   -0.0099 H   0  0  0  0  0  0  0  0  0  0  0  0
    0.0000    0.0000    0.0000 C   0  0  0  0  0  0  0  0  0  0  0  0
   -1.1035   -0.6023    0.0000 O   0  0  0  0  0  1  0  0  0  0  0  0
    1.1035   -0.5948   -0.0000 O   0  0  0  0  0  0  0  0  0  0  0  0
    0.3349    2.9946   -4.4736 C   0  0  0  0  0  0  0  0  0  0  0  0
   -0.3503    2.4591   -3.9766 H   0  0  0  0  0  0  0  0  0  0  0  0
    1.0551    2.3815   -4.8045 H   0  0  0  0  0  0  0  0  0  0  0  0
   -0.1495    3.4476   -5.3387 H   0  0  0  0  0  0  0  0  0  0  0  0
    0.9619    3.9836   -3.5004 C   0  0  0  0  0  0  0  0  0  0  0  0
    1.6548    4.5215   -3.9861 H   0  0  0  0  0  0  0  0  0  0  0  0
    0.2497    4.5989   -3.1573 H   0  0  0  0  0  0  0  0  0  0  0  0
    1.6165    3.2827   -2.3264 C   0  0  0  0  0  0  0  0  0  0  0  0
    0.9211    2.7445   -1.8455 H   0  0  0  0  0  0  0  0  0  0  0  0
    2.3279    2.6686   -2.6734 H   0  0  0  0  0  0  0  0  0  0  0  0
    2.0700    3.9780   -1.6200 H   0  0  0  0  0  0  0  0  0  0  0  0
  1  5  1  0
  5  6  1  0
  5  7  2  0
  1  2  1  0
  1  3  1  0
  1  4  1  0
  8 12  1  0
 12 15  1  0
  8  9  1  0
  8 10  1  0
  8 11  1  0
 12 13  1  0
 12 14  1  0
 15 16  1  0
 15 17  1  0
 15 18  1  0
M  CHG  1   6  -1
M  END
>  <PDB_ID>  (177) 
pdb1d9q

>  <RESIDUE_NAME>  (177) 
GLU   LYS

>  <FRAG_NAME>  (177) 
ACET   PRPA

>  <FRAG_ATOM_NUM>  (177) 
fragi: 7  fragj: 11

>  <atom.prop.CHAIN_ID>  (177) 
A A A A A A A Z Z Z Z Z Z Z Z Z Z Z

>  <atom.prop.IS_HEAVY_ATOM>  (177) 
1 0 0 0 1 1 1 1 0 0 0 1 0 0 1 0 0 0

>  <DIFUSE_FUNC_ATOM>  (177) 
atom 6   atom 7   

>  <FINAL_SINGLE_POINT_ENERGY>  (177) 
0

>  <NONCOV_INTER_ENERGY_QM>  (177) 
0

>  <FF_Energy>  (177) 
36.87

>  <QM_Energy>  (177) 
4.64

>  <source>  (177) 
ACET_PRPA_01

>  <Index>  (177) 
34154

$$$$
ACET-pdb1dc3-A-GLU-86:PRPA-pdb1dc3-A-LYS-83
     RDKit          3D

 18 16  0  0  0  0  0  0  0  0999 V2000
    0.0069    1.5284   -0.0027 C   0  0  0  0  0  0  0  0  0  0  0  0
    0.1364    1.8190   -0.9324 H   0  0  0  0  0  0  0  0  0  0  0  0
    0.7403    1.8186    0.5842 H   0  0  0  0  0  0  0  0  0  0  0  0
   -0.9223    1.9628    0.3662 H   0  0  0  0  0  0  0  0  0  0  0  0
    0.0000    0.0000    0.0000 C   0  0  0  0  0  0  0  0  0  0  0  0
   -1.1116   -0.5895   -0.0000 O   0  0  0  0  0  1  0  0  0  0  0  0
    1.1116   -0.6044    0.0000 O   0  0  0  0  0  0  0  0  0  0  0  0
    1.9524    1.3530    2.6027 C   0  0  0  0  0  0  0  0  0  0  0  0
    1.0381    1.2550    2.9892 H   0  0  0  0  0  0  0  0  0  0  0  0
    1.8968    1.3928    1.6078 H   0  0  0  0  0  0  0  0  0  0  0  0
    2.3694    2.2961    2.9559 H   0  0  0  0  0  0  0  0  0  0  0  0
    2.7708    0.1265    2.9895 C   0  0  0  0  0  0  0  0  0  0  0  0
    3.4889    0.4010    3.6325 H   0  0  0  0  0  0  0  0  0  0  0  0
    2.1705   -0.5420    3.4346 H   0  0  0  0  0  0  0  0  0  0  0  0
    3.4321   -0.5429    1.7787 C   0  0  0  0  0  0  0  0  0  0  0  0
    2.7981   -0.5283    1.0203 H   0  0  0  0  0  0  0  0  0  0  0  0
    4.2652   -0.0575    1.5601 H   0  0  0  0  0  0  0  0  0  0  0  0
    3.6833   -1.5801    2.0005 H   0  0  0  0  0  0  0  0  0  0  0  0
  1  5  1  0
  5  6  1  0
  5  7  2  0
  1  2  1  0
  1  3  1  0
  1  4  1  0
  8 12  1  0
 12 15  1  0
  8  9  1  0
  8 10  1  0
  8 11  1  0
 12 13  1  0
 12 14  1  0
 15 16  1  0
 15 17  1  0
 15 18  1  0
M  CHG  1   6  -1
M  END
>  <PDB_ID>  (178) 
pdb1dc3

>  <RESIDUE_NAME>  (178) 
GLU   LYS

>  <FRAG_NAME>  (178) 
ACET   PRPA

>  <FRAG_ATOM_NUM>  (178) 
fragi: 7  fragj: 11

>  <atom.prop.CHAIN_ID>  (178) 
A A A A A A A Z Z Z Z Z Z Z Z Z Z Z

>  <atom.prop.IS_HEAVY_ATOM>  (178) 
1 0 0 0 1 1 1 1 0 0 0 1 0 0 1 0 0 0

>  <DIFUSE_FUNC_ATOM>  (178) 
atom 6   atom 7   

>  <FINAL_SINGLE_POINT_ENERGY>  (178) 
0

>  <NONCOV_INTER_ENERGY_QM>  (178) 
0

>  <FF_Energy>  (178) 
22.6

>  <QM_Energy>  (178) 
0.66

>  <source>  (178) 
ACET_PRPA_01

>  <Index>  (178) 
34156

$$$$
ACET-pdb1cg2-A-GLU-235:PRPA-pdb1cg2-D-LYS-257
     RDKit          3D

 18 16  0  0  0  0  0  0  0  0999 V2000
    0.0044    1.5248   -0.0262 C   0  0  0  0  0  0  0  0  0  0  0  0
   -0.3113    1.8032   -0.9149 H   0  0  0  0  0  0  0  0  0  0  0  0
    0.9269    1.8177    0.1479 H   0  0  0  0  0  0  0  0  0  0  0  0
   -0.6481    1.9669    0.7267 H   0  0  0  0  0  0  0  0  0  0  0  0
    0.0000    0.0000    0.0000 C   0  0  0  0  0  0  0  0  0  0  0  0
   -1.1035   -0.5927   -0.0000 O   0  0  0  0  0  1  0  0  0  0  0  0
    1.1035   -0.5963    0.0000 O   0  0  0  0  0  0  0  0  0  0  0  0
   -0.1134    2.7391   -4.5127 C   0  0  0  0  0  0  0  0  0  0  0  0
    0.5047    2.1927   -3.9456 H   0  0  0  0  0  0  0  0  0  0  0  0
    0.1865    3.6933   -4.5059 H   0  0  0  0  0  0  0  0  0  0  0  0
   -0.0814    2.3633   -5.5354 H   0  0  0  0  0  0  0  0  0  0  0  0
   -1.5138    2.6591   -3.9314 C   0  0  0  0  0  0  0  0  0  0  0  0
   -2.1292    3.2041   -4.5018 H   0  0  0  0  0  0  0  0  0  0  0  0
   -1.8116    1.7037   -3.9401 H   0  0  0  0  0  0  0  0  0  0  0  0
   -1.5841    3.1757   -2.5125 C   0  0  0  0  0  0  0  0  0  0  0  0
   -0.9746    2.6322   -1.9348 H   0  0  0  0  0  0  0  0  0  0  0  0
   -1.2926    4.1314   -2.4957 H   0  0  0  0  0  0  0  0  0  0  0  0
   -2.6011    3.1041   -2.1268 H   0  0  0  0  0  0  0  0  0  0  0  0
  1  5  1  0
  5  6  1  0
  5  7  2  0
  1  2  1  0
  1  3  1  0
  1  4  1  0
  8 12  1  0
 12 15  1  0
  8  9  1  0
  8 10  1  0
  8 11  1  0
 12 13  1  0
 12 14  1  0
 15 16  1  0
 15 17  1  0
 15 18  1  0
M  CHG  1   6  -1
M  END
>  <PDB_ID>  (179) 
pdb1cg2

>  <RESIDUE_NAME>  (179) 
GLU   LYS

>  <FRAG_NAME>  (179) 
ACET   PRPA

>  <FRAG_ATOM_NUM>  (179) 
fragi: 7  fragj: 11

>  <atom.prop.CHAIN_ID>  (179) 
A A A A A A A Z Z Z Z Z Z Z Z Z Z Z

>  <atom.prop.IS_HEAVY_ATOM>  (179) 
1 0 0 0 1 1 1 1 0 0 0 1 0 0 1 0 0 0

>  <DIFUSE_FUNC_ATOM>  (179) 
atom 6   atom 7   

>  <FINAL_SINGLE_POINT_ENERGY>  (179) 
0

>  <NONCOV_INTER_ENERGY_QM>  (179) 
0

>  <FF_Energy>  (179) 
32.61

>  <QM_Energy>  (179) 
3.73

>  <source>  (179) 
ACET_PRPA_01

>  <Index>  (179) 
34273

$$$$
ACET-pdb2e3v-C-GLU-64:PRPA-pdb2e3v-B-PRO-32
     RDKit          3D

 18 16  0  0  0  0  0  0  0  0999 V2000
    0.0199    1.5100    0.0073 C   0  0  0  0  0  0  0  0  0  0  0  0
    0.6318    1.8084   -0.7085 H   0  0  0  0  0  0  0  0  0  0  0  0
    0.3334    1.8037    0.8971 H   0  0  0  0  0  0  0  0  0  0  0  0
   -0.9530    1.9668   -0.1738 H   0  0  0  0  0  0  0  0  0  0  0  0
    0.0000    0.0000    0.0000 C   0  0  0  0  0  0  0  0  0  0  0  0
   -1.1009   -0.6062    0.0000 O   0  0  0  0  0  1  0  0  0  0  0  0
    1.1009   -0.5901   -0.0000 O   0  0  0  0  0  0  0  0  0  0  0  0
   -1.0096   -2.7238    1.9633 C   0  0  0  0  0  0  0  0  0  0  0  0
   -1.0216   -1.9603    1.2853 H   0  0  0  0  0  0  0  0  0  0  0  0
   -1.9282   -3.3061    1.8924 H   0  0  0  0  0  0  0  0  0  0  0  0
   -0.0944   -3.3066    1.8581 H   0  0  0  0  0  0  0  0  0  0  0  0
   -1.0962   -2.1064    3.3593 C   0  0  0  0  0  0  0  0  0  0  0  0
   -0.6630   -2.7037    4.0370 H   0  0  0  0  0  0  0  0  0  0  0  0
   -0.6508   -1.2105    3.3778 H   0  0  0  0  0  0  0  0  0  0  0  0
   -2.5589   -1.9850    3.6075 C   0  0  0  0  0  0  0  0  0  0  0  0
   -2.7501   -1.9593    4.5951 H   0  0  0  0  0  0  0  0  0  0  0  0
   -2.9203   -1.1440    3.1900 H   0  0  0  0  0  0  0  0  0  0  0  0
   -3.0036   -2.8683    3.1491 H   0  0  0  0  0  0  0  0  0  0  0  0
  1  5  1  0
  5  6  1  0
  5  7  2  0
  1  2  1  0
  1  3  1  0
  1  4  1  0
  8 12  1  0
 12 15  1  0
  8  9  1  0
  8 10  1  0
  8 11  1  0
 12 13  1  0
 12 14  1  0
 15 16  1  0
 15 17  1  0
 15 18  1  0
M  CHG  1   6  -1
M  END
>  <PDB_ID>  (180) 
pdb2e3v

>  <RESIDUE_NAME>  (180) 
GLU   PRO

>  <FRAG_NAME>  (180) 
ACET   PRPA

>  <FRAG_ATOM_NUM>  (180) 
fragi: 7  fragj: 11

>  <atom.prop.CHAIN_ID>  (180) 
A A A A A A A Z Z Z Z Z Z Z Z Z Z Z

>  <atom.prop.IS_HEAVY_ATOM>  (180) 
1 0 0 0 1 1 1 1 0 0 0 1 0 0 1 0 0 0

>  <DIFUSE_FUNC_ATOM>  (180) 
atom 6   atom 7   

>  <FINAL_SINGLE_POINT_ENERGY>  (180) 
0

>  <NONCOV_INTER_ENERGY_QM>  (180) 
0

>  <FF_Energy>  (180) 
17.01

>  <QM_Energy>  (180) 
-1.88

>  <source>  (180) 
ACET_PRPA_01

>  <Index>  (180) 
34920

$$$$
ACET-pdb2e2e-B-GLU-81:PRPA-pdb2e2e-B-LEU-46
     RDKit          3D

 18 16  0  0  0  0  0  0  0  0999 V2000
   -0.0206    1.4952   -0.0007 C   0  0  0  0  0  0  0  0  0  0  0  0
    0.1639    1.7964    0.9196 H   0  0  0  0  0  0  0  0  0  0  0  0
   -0.9132    1.7807   -0.3065 H   0  0  0  0  0  0  0  0  0  0  0  0
    0.7330    1.9145   -0.6672 H   0  0  0  0  0  0  0  0  0  0  0  0
    0.0000    0.0000    0.0000 C   0  0  0  0  0  0  0  0  0  0  0  0
   -1.1168   -0.5772    0.0000 O   0  0  0  0  0  1  0  0  0  0  0  0
    1.1168   -0.5852   -0.0000 O   0  0  0  0  0  0  0  0  0  0  0  0
   -2.2563   -2.7187    1.4282 C   0  0  0  0  0  0  0  0  0  0  0  0
   -3.2550   -2.7727    1.4078 H   0  0  0  0  0  0  0  0  0  0  0  0
   -1.9688   -1.7760    1.2603 H   0  0  0  0  0  0  0  0  0  0  0  0
   -1.9300   -2.9914    2.4319 H   0  0  0  0  0  0  0  0  0  0  0  0
   -1.7335   -3.5684    0.2534 C   0  0  0  0  0  0  0  0  0  0  0  0
   -1.9810   -4.5293    0.4154 H   0  0  0  0  0  0  0  0  0  0  0  0
   -0.6444   -3.5887    0.2166 H   0  0  0  0  0  0  0  0  0  0  0  0
   -2.3083   -3.1226   -1.0972 C   0  0  0  0  0  0  0  0  0  0  0  0
   -2.0529   -2.1721   -1.2651 H   0  0  0  0  0  0  0  0  0  0  0  0
   -1.9379   -3.7040   -1.8193 H   0  0  0  0  0  0  0  0  0  0  0  0
   -3.3032   -3.2056   -1.0743 H   0  0  0  0  0  0  0  0  0  0  0  0
  1  5  1  0
  5  6  1  0
  5  7  2  0
  1  2  1  0
  1  3  1  0
  1  4  1  0
  8 12  1  0
 12 15  1  0
  8  9  1  0
  8 10  1  0
  8 11  1  0
 12 13  1  0
 12 14  1  0
 15 16  1  0
 15 17  1  0
 15 18  1  0
M  CHG  1   6  -1
M  END
>  <PDB_ID>  (181) 
pdb2e2e

>  <RESIDUE_NAME>  (181) 
GLU   LEU

>  <FRAG_NAME>  (181) 
ACET   PRPA

>  <FRAG_ATOM_NUM>  (181) 
fragi: 7  fragj: 11

>  <atom.prop.CHAIN_ID>  (181) 
A A A A A A A Z Z Z Z Z Z Z Z Z Z Z

>  <atom.prop.IS_HEAVY_ATOM>  (181) 
1 0 0 0 1 1 1 1 0 0 0 1 0 0 1 0 0 0

>  <DIFUSE_FUNC_ATOM>  (181) 
atom 6   atom 7   

>  <FINAL_SINGLE_POINT_ENERGY>  (181) 
0

>  <NONCOV_INTER_ENERGY_QM>  (181) 
0

>  <FF_Energy>  (181) 
14.64

>  <QM_Energy>  (181) 
-1.82

>  <source>  (181) 
ACET_PRPA_01

>  <Index>  (181) 
34954

$$$$
ACET-pdb2e2e-B-GLU-81:PRPA-pdb2e2e-B-LEU-46
     RDKit          3D

 18 16  0  0  0  0  0  0  0  0999 V2000
   -0.0206    1.4952   -0.0007 C   0  0  0  0  0  0  0  0  0  0  0  0
    0.1639    1.7964    0.9196 H   0  0  0  0  0  0  0  0  0  0  0  0
   -0.9132    1.7807   -0.3065 H   0  0  0  0  0  0  0  0  0  0  0  0
    0.7330    1.9145   -0.6672 H   0  0  0  0  0  0  0  0  0  0  0  0
    0.0000    0.0000    0.0000 C   0  0  0  0  0  0  0  0  0  0  0  0
   -1.1168   -0.5772    0.0000 O   0  0  0  0  0  1  0  0  0  0  0  0
    1.1168   -0.5852   -0.0000 O   0  0  0  0  0  0  0  0  0  0  0  0
   -2.2563   -2.7187    1.4282 C   0  0  0  0  0  0  0  0  0  0  0  0
   -3.2550   -2.7727    1.4078 H   0  0  0  0  0  0  0  0  0  0  0  0
   -1.9688   -1.7760    1.2603 H   0  0  0  0  0  0  0  0  0  0  0  0
   -1.9300   -2.9914    2.4319 H   0  0  0  0  0  0  0  0  0  0  0  0
   -1.7335   -3.5684    0.2534 C   0  0  0  0  0  0  0  0  0  0  0  0
   -1.9810   -4.5293    0.4154 H   0  0  0  0  0  0  0  0  0  0  0  0
   -2.1419   -3.2516   -0.7063 H   0  0  0  0  0  0  0  0  0  0  0  0
   -0.1994   -3.5969    0.2016 C   0  0  0  0  0  0  0  0  0  0  0  0
    0.1502   -3.9869    1.0511 H   0  0  0  0  0  0  0  0  0  0  0  0
    0.0918   -4.1565   -0.5723 H   0  0  0  0  0  0  0  0  0  0  0  0
    0.1425   -2.6649    0.0916 H   0  0  0  0  0  0  0  0  0  0  0  0
  1  5  1  0
  5  6  1  0
  5  7  2  0
  1  2  1  0
  1  3  1  0
  1  4  1  0
  8 12  1  0
 12 15  1  0
  8  9  1  0
  8 10  1  0
  8 11  1  0
 12 13  1  0
 12 14  1  0
 15 16  1  0
 15 17  1  0
 15 18  1  0
M  CHG  1   6  -1
M  END
>  <PDB_ID>  (182) 
pdb2e2e

>  <RESIDUE_NAME>  (182) 
GLU   LEU

>  <FRAG_NAME>  (182) 
ACET   PRPA

>  <FRAG_ATOM_NUM>  (182) 
fragi: 7  fragj: 11

>  <atom.prop.CHAIN_ID>  (182) 
A A A A A A A Z Z Z Z Z Z Z Z Z Z Z

>  <atom.prop.IS_HEAVY_ATOM>  (182) 
1 0 0 0 1 1 1 1 0 0 0 1 0 0 1 0 0 0

>  <DIFUSE_FUNC_ATOM>  (182) 
atom 6   atom 7   

>  <FINAL_SINGLE_POINT_ENERGY>  (182) 
0

>  <NONCOV_INTER_ENERGY_QM>  (182) 
0

>  <FF_Energy>  (182) 
14.3

>  <QM_Energy>  (182) 
-2.13

>  <source>  (182) 
ACET_PRPA_01

>  <Index>  (182) 
34963

$$$$
ACET-pdb2e3j-A-ASP-151:PRPA-pdb2e3j-A-ARG-148
     RDKit          3D

 18 16  0  0  0  0  0  0  0  0999 V2000
    0.0056    1.5105    0.0002 C   0  0  0  0  0  0  0  0  0  0  0  0
   -0.3474    1.8348    0.8708 H   0  0  0  0  0  0  0  0  0  0  0  0
   -0.5596    1.8363   -0.7483 H   0  0  0  0  0  0  0  0  0  0  0  0
    1.0056    1.9243   -0.1299 H   0  0  0  0  0  0  0  0  0  0  0  0
    0.0000    0.0000    0.0000 C   0  0  0  0  0  0  0  0  0  0  0  0
   -1.0988   -0.5937    0.0000 O   0  0  0  0  0  1  0  0  0  0  0  0
    1.0988   -0.5943    0.0000 O   0  0  0  0  0  0  0  0  0  0  0  0
    1.4463   -3.8602   -0.3832 C   0  0  0  0  0  0  0  0  0  0  0  0
    1.6129   -4.6558   -0.9660 H   0  0  0  0  0  0  0  0  0  0  0  0
    1.2244   -4.2000    0.6285 H   0  0  0  0  0  0  0  0  0  0  0  0
    2.3470   -3.2465   -0.3646 H   0  0  0  0  0  0  0  0  0  0  0  0
    0.2746   -3.0502   -0.9323 C   0  0  0  0  0  0  0  0  0  0  0  0
   -0.5058   -3.6626   -1.0367 H   0  0  0  0  0  0  0  0  0  0  0  0
    0.0552   -2.3329   -0.2743 H   0  0  0  0  0  0  0  0  0  0  0  0
    0.5420   -2.3940   -2.2725 C   0  0  0  0  0  0  0  0  0  0  0  0
    0.2074   -1.4549   -2.2555 H   0  0  0  0  0  0  0  0  0  0  0  0
    1.5223   -2.4008   -2.4564 H   0  0  0  0  0  0  0  0  0  0  0  0
    0.0394   -2.9228   -3.0824 H   0  0  0  0  0  0  0  0  0  0  0  0
  1  5  1  0
  5  6  1  0
  5  7  2  0
  1  2  1  0
  1  3  1  0
  1  4  1  0
  8 12  1  0
 12 15  1  0
  8  9  1  0
  8 10  1  0
  8 11  1  0
 12 13  1  0
 12 14  1  0
 15 16  1  0
 15 17  1  0
 15 18  1  0
M  CHG  1   6  -1
M  END
>  <PDB_ID>  (183) 
pdb2e3j

>  <RESIDUE_NAME>  (183) 
ASP   ARG

>  <FRAG_NAME>  (183) 
ACET   PRPA

>  <FRAG_ATOM_NUM>  (183) 
fragi: 7  fragj: 11

>  <atom.prop.CHAIN_ID>  (183) 
A A A A A A A Z Z Z Z Z Z Z Z Z Z Z

>  <atom.prop.IS_HEAVY_ATOM>  (183) 
1 0 0 0 1 1 1 1 0 0 0 1 0 0 1 0 0 0

>  <DIFUSE_FUNC_ATOM>  (183) 
atom 6   atom 7   

>  <FINAL_SINGLE_POINT_ENERGY>  (183) 
0

>  <NONCOV_INTER_ENERGY_QM>  (183) 
0

>  <FF_Energy>  (183) 
17.49

>  <QM_Energy>  (183) 
-1.08

>  <source>  (183) 
ACET_PRPA_01

>  <Index>  (183) 
35303

$$$$
ACET-pdb2e3j-A-ASP-151:PRPA-pdb2e3j-A-ARG-148
     RDKit          3D

 18 16  0  0  0  0  0  0  0  0999 V2000
    0.0056    1.5105    0.0002 C   0  0  0  0  0  0  0  0  0  0  0  0
   -0.3474    1.8348    0.8708 H   0  0  0  0  0  0  0  0  0  0  0  0
   -0.5596    1.8363   -0.7483 H   0  0  0  0  0  0  0  0  0  0  0  0
    1.0056    1.9243   -0.1299 H   0  0  0  0  0  0  0  0  0  0  0  0
    0.0000    0.0000    0.0000 C   0  0  0  0  0  0  0  0  0  0  0  0
   -1.0988   -0.5937    0.0000 O   0  0  0  0  0  1  0  0  0  0  0  0
    1.0988   -0.5943    0.0000 O   0  0  0  0  0  0  0  0  0  0  0  0
    0.2746   -3.0502   -0.9323 C   0  0  0  0  0  0  0  0  0  0  0  0
   -0.5058   -3.6626   -1.0367 H   0  0  0  0  0  0  0  0  0  0  0  0
    0.0552   -2.3329   -0.2743 H   0  0  0  0  0  0  0  0  0  0  0  0
    1.1112   -3.6286   -0.5403 H   0  0  0  0  0  0  0  0  0  0  0  0
    0.5420   -2.3940   -2.2725 C   0  0  0  0  0  0  0  0  0  0  0  0
    0.2074   -1.4549   -2.2555 H   0  0  0  0  0  0  0  0  0  0  0  0
    1.5223   -2.4008   -2.4564 H   0  0  0  0  0  0  0  0  0  0  0  0
   -0.1553   -3.1277   -3.3961 C   0  0  0  0  0  0  0  0  0  0  0  0
    0.5366   -3.4935   -4.0083 H   0  0  0  0  0  0  0  0  0  0  0  0
   -0.6940   -3.8642   -3.0009 H   0  0  0  0  0  0  0  0  0  0  0  0
   -0.8125   -2.4606   -3.9538 H   0  0  0  0  0  0  0  0  0  0  0  0
  1  5  1  0
  5  6  1  0
  5  7  2  0
  1  2  1  0
  1  3  1  0
  1  4  1  0
  8 12  1  0
 12 15  1  0
  8  9  1  0
  8 10  1  0
  8 11  1  0
 12 13  1  0
 12 14  1  0
 15 16  1  0
 15 17  1  0
 15 18  1  0
M  CHG  1   6  -1
M  END
>  <PDB_ID>  (184) 
pdb2e3j

>  <RESIDUE_NAME>  (184) 
ASP   ARG

>  <FRAG_NAME>  (184) 
ACET   PRPA

>  <FRAG_ATOM_NUM>  (184) 
fragi: 7  fragj: 11

>  <atom.prop.CHAIN_ID>  (184) 
A A A A A A A Z Z Z Z Z Z Z Z Z Z Z

>  <atom.prop.IS_HEAVY_ATOM>  (184) 
1 0 0 0 1 1 1 1 0 0 0 1 0 0 1 0 0 0

>  <DIFUSE_FUNC_ATOM>  (184) 
atom 6   atom 7   

>  <FINAL_SINGLE_POINT_ENERGY>  (184) 
0

>  <NONCOV_INTER_ENERGY_QM>  (184) 
0

>  <FF_Energy>  (184) 
15.56

>  <QM_Energy>  (184) 
0.07

>  <source>  (184) 
ACET_PRPA_01

>  <Index>  (184) 
35322

$$$$
ACET-pdb1dfa-A-GLU-108:PRPA-pdb1dfa-A-GLU-134
     RDKit          3D

 18 16  0  0  0  0  0  0  0  0999 V2000
    0.0081    1.5423   -0.0074 C   0  0  0  0  0  0  0  0  0  0  0  0
    0.6404    1.8320    0.6803 H   0  0  0  0  0  0  0  0  0  0  0  0
   -0.9081    1.8373    0.1646 H   0  0  0  0  0  0  0  0  0  0  0  0
    0.3289    1.9551   -0.9638 H   0  0  0  0  0  0  0  0  0  0  0  0
    0.0000    0.0000    0.0000 C   0  0  0  0  0  0  0  0  0  0  0  0
   -1.1042   -0.6084   -0.0000 O   0  0  0  0  0  1  0  0  0  0  0  0
    1.1042   -0.6157   -0.0000 O   0  0  0  0  0  0  0  0  0  0  0  0
   -1.7506    0.4248   -3.3366 C   0  0  0  0  0  0  0  0  0  0  0  0
   -1.7180    0.7141   -2.3662 H   0  0  0  0  0  0  0  0  0  0  0  0
   -2.6349   -0.1903   -3.5034 H   0  0  0  0  0  0  0  0  0  0  0  0
   -1.7181    1.3115   -3.9696 H   0  0  0  0  0  0  0  0  0  0  0  0
   -0.4764   -0.4209   -3.5130 C   0  0  0  0  0  0  0  0  0  0  0  0
   -0.4760   -0.7588   -4.4561 H   0  0  0  0  0  0  0  0  0  0  0  0
    0.3042    0.1923   -3.3817 H   0  0  0  0  0  0  0  0  0  0  0  0
   -0.2767   -1.6165   -2.6001 C   0  0  0  0  0  0  0  0  0  0  0  0
   -0.2752   -1.2821   -1.6571 H   0  0  0  0  0  0  0  0  0  0  0  0
   -1.0552   -2.2332   -2.7302 H   0  0  0  0  0  0  0  0  0  0  0  0
    0.6341   -2.1962   -2.7496 H   0  0  0  0  0  0  0  0  0  0  0  0
  1  5  1  0
  5  6  1  0
  5  7  2  0
  1  2  1  0
  1  3  1  0
  1  4  1  0
  8 12  1  0
 12 15  1  0
  8  9  1  0
  8 10  1  0
  8 11  1  0
 12 13  1  0
 12 14  1  0
 15 16  1  0
 15 17  1  0
 15 18  1  0
M  CHG  1   6  -1
M  END
>  <PDB_ID>  (185) 
pdb1dfa

>  <RESIDUE_NAME>  (185) 
GLU   GLU

>  <FRAG_NAME>  (185) 
ACET   PRPA

>  <FRAG_ATOM_NUM>  (185) 
fragi: 7  fragj: 11

>  <atom.prop.CHAIN_ID>  (185) 
A A A A A A A Z Z Z Z Z Z Z Z Z Z Z

>  <atom.prop.IS_HEAVY_ATOM>  (185) 
1 0 0 0 1 1 1 1 0 0 0 1 0 0 1 0 0 0

>  <DIFUSE_FUNC_ATOM>  (185) 
atom 6   atom 7   

>  <FINAL_SINGLE_POINT_ENERGY>  (185) 
0

>  <NONCOV_INTER_ENERGY_QM>  (185) 
0

>  <FF_Energy>  (185) 
19.31

>  <QM_Energy>  (185) 
-0.68

>  <source>  (185) 
ACET_PRPA_01

>  <Index>  (185) 
35544

$$$$
ACET-pdb2e4f-A-GLU-293:PRPA-pdb2e4f-A-LYS-370
     RDKit          3D

 18 16  0  0  0  0  0  0  0  0999 V2000
    0.0123    1.5102    0.0141 C   0  0  0  0  0  0  0  0  0  0  0  0
   -0.6853    1.8222   -0.6071 H   0  0  0  0  0  0  0  0  0  0  0  0
    0.9106    1.8047   -0.2618 H   0  0  0  0  0  0  0  0  0  0  0  0
   -0.1974    1.9286    0.9986 H   0  0  0  0  0  0  0  0  0  0  0  0
    0.0000    0.0000    0.0000 C   0  0  0  0  0  0  0  0  0  0  0  0
   -1.1023   -0.5894   -0.0000 O   0  0  0  0  0  1  0  0  0  0  0  0
    1.1023   -0.5963    0.0000 O   0  0  0  0  0  0  0  0  0  0  0  0
   -2.8838    3.0420   -1.8663 C   0  0  0  0  0  0  0  0  0  0  0  0
   -2.9203    3.7340   -1.1479 H   0  0  0  0  0  0  0  0  0  0  0  0
   -2.6384    2.1583   -1.4709 H   0  0  0  0  0  0  0  0  0  0  0  0
   -3.8770    2.9542   -2.3068 H   0  0  0  0  0  0  0  0  0  0  0  0
   -1.7861    3.4418   -2.8561 C   0  0  0  0  0  0  0  0  0  0  0  0
   -1.6424    2.6936   -3.4983 H   0  0  0  0  0  0  0  0  0  0  0  0
   -2.0716    4.2618   -3.3433 H   0  0  0  0  0  0  0  0  0  0  0  0
   -0.4765    3.7287   -2.1272 C   0  0  0  0  0  0  0  0  0  0  0  0
   -0.5732    4.5851   -1.6195 H   0  0  0  0  0  0  0  0  0  0  0  0
   -0.2947    2.9817   -1.4868 H   0  0  0  0  0  0  0  0  0  0  0  0
    0.3766    3.8210   -2.7993 H   0  0  0  0  0  0  0  0  0  0  0  0
  1  5  1  0
  5  6  1  0
  5  7  2  0
  1  2  1  0
  1  3  1  0
  1  4  1  0
  8 12  1  0
 12 15  1  0
  8  9  1  0
  8 10  1  0
  8 11  1  0
 12 13  1  0
 12 14  1  0
 15 16  1  0
 15 17  1  0
 15 18  1  0
M  CHG  1   6  -1
M  END
>  <PDB_ID>  (186) 
pdb2e4f

>  <RESIDUE_NAME>  (186) 
GLU   LYS

>  <FRAG_NAME>  (186) 
ACET   PRPA

>  <FRAG_ATOM_NUM>  (186) 
fragi: 7  fragj: 11

>  <atom.prop.CHAIN_ID>  (186) 
A A A A A A A Z Z Z Z Z Z Z Z Z Z Z

>  <atom.prop.IS_HEAVY_ATOM>  (186) 
1 0 0 0 1 1 1 1 0 0 0 1 0 0 1 0 0 0

>  <DIFUSE_FUNC_ATOM>  (186) 
atom 6   atom 7   

>  <FINAL_SINGLE_POINT_ENERGY>  (186) 
0

>  <NONCOV_INTER_ENERGY_QM>  (186) 
0

>  <FF_Energy>  (186) 
34.47

>  <QM_Energy>  (186) 
5.24

>  <source>  (186) 
ACET_PRPA_01

>  <Index>  (186) 
35738

$$$$
ACET-pdb2e4f-A-GLU-293:PRPA-pdb2e4f-A-LYS-370
     RDKit          3D

 18 16  0  0  0  0  0  0  0  0999 V2000
    0.0123    1.5102    0.0141 C   0  0  0  0  0  0  0  0  0  0  0  0
   -0.6853    1.8222   -0.6071 H   0  0  0  0  0  0  0  0  0  0  0  0
    0.9106    1.8047   -0.2618 H   0  0  0  0  0  0  0  0  0  0  0  0
   -0.1974    1.9286    0.9986 H   0  0  0  0  0  0  0  0  0  0  0  0
    0.0000    0.0000    0.0000 C   0  0  0  0  0  0  0  0  0  0  0  0
   -1.1023   -0.5894   -0.0000 O   0  0  0  0  0  1  0  0  0  0  0  0
    1.1023   -0.5963    0.0000 O   0  0  0  0  0  0  0  0  0  0  0  0
   -1.7861    3.4418   -2.8561 C   0  0  0  0  0  0  0  0  0  0  0  0
   -1.6424    2.6936   -3.4983 H   0  0  0  0  0  0  0  0  0  0  0  0
   -2.0716    4.2618   -3.3433 H   0  0  0  0  0  0  0  0  0  0  0  0
   -2.5675    3.1572   -2.1515 H   0  0  0  0  0  0  0  0  0  0  0  0
   -0.4765    3.7287   -2.1272 C   0  0  0  0  0  0  0  0  0  0  0  0
   -0.5732    4.5851   -1.6195 H   0  0  0  0  0  0  0  0  0  0  0  0
   -0.2947    2.9817   -1.4868 H   0  0  0  0  0  0  0  0  0  0  0  0
    0.7171    3.8579   -3.0674 C   0  0  0  0  0  0  0  0  0  0  0  0
    1.5574    3.9243   -2.5155 H   0  0  0  0  0  0  0  0  0  0  0  0
    0.7756    3.0251   -3.6313 H   0  0  0  0  0  0  0  0  0  0  0  0
    0.6493    4.7276   -3.7209 H   0  0  0  0  0  0  0  0  0  0  0  0
  1  5  1  0
  5  6  1  0
  5  7  2  0
  1  2  1  0
  1  3  1  0
  1  4  1  0
  8 12  1  0
 12 15  1  0
  8  9  1  0
  8 10  1  0
  8 11  1  0
 12 13  1  0
 12 14  1  0
 15 16  1  0
 15 17  1  0
 15 18  1  0
M  CHG  1   6  -1
M  END
>  <PDB_ID>  (187) 
pdb2e4f

>  <RESIDUE_NAME>  (187) 
GLU   LYS

>  <FRAG_NAME>  (187) 
ACET   PRPA

>  <FRAG_ATOM_NUM>  (187) 
fragi: 7  fragj: 11

>  <atom.prop.CHAIN_ID>  (187) 
A A A A A A A Z Z Z Z Z Z Z Z Z Z Z

>  <atom.prop.IS_HEAVY_ATOM>  (187) 
1 0 0 0 1 1 1 1 0 0 0 1 0 0 1 0 0 0

>  <DIFUSE_FUNC_ATOM>  (187) 
atom 6   atom 7   

>  <FINAL_SINGLE_POINT_ENERGY>  (187) 
0

>  <NONCOV_INTER_ENERGY_QM>  (187) 
0

>  <FF_Energy>  (187) 
39.85

>  <QM_Energy>  (187) 
5.1

>  <source>  (187) 
ACET_PRPA_01

>  <Index>  (187) 
35748

$$$$
ACET-pdb1d00-F-GLU-479:PRPA-pdb1d00-F-ARG-365
     RDKit          3D

 18 16  0  0  0  0  0  0  0  0999 V2000
    0.1747    1.4845    0.0142 C   0  0  0  0  0  0  0  0  0  0  0  0
    0.6936    1.7401   -0.8031 H   0  0  0  0  0  0  0  0  0  0  0  0
    0.7055    1.7223    0.8296 H   0  0  0  0  0  0  0  0  0  0  0  0
   -0.7360    2.0833    0.0264 H   0  0  0  0  0  0  0  0  0  0  0  0
    0.0000    0.0000    0.0000 C   0  0  0  0  0  0  0  0  0  0  0  0
   -1.0896   -0.5587    0.0000 O   0  0  0  0  0  1  0  0  0  0  0  0
    1.0896   -0.6075   -0.0000 O   0  0  0  0  0  0  0  0  0  0  0  0
    4.4719   -1.3947   -2.4580 C   0  0  0  0  0  0  0  0  0  0  0  0
    4.5660   -1.1176   -3.4145 H   0  0  0  0  0  0  0  0  0  0  0  0
    3.5944   -1.8576   -2.3309 H   0  0  0  0  0  0  0  0  0  0  0  0
    5.2639   -2.1101   -2.2366 H   0  0  0  0  0  0  0  0  0  0  0  0
    4.4790   -0.1494   -1.6004 C   0  0  0  0  0  0  0  0  0  0  0  0
    5.3507   -0.0905   -1.1030 H   0  0  0  0  0  0  0  0  0  0  0  0
    4.3913    0.6615   -2.1888 H   0  0  0  0  0  0  0  0  0  0  0  0
    3.3567   -0.1159   -0.5870 C   0  0  0  0  0  0  0  0  0  0  0  0
    2.8695    0.7417   -0.6890 H   0  0  0  0  0  0  0  0  0  0  0  0
    2.7557   -0.8852   -0.7630 H   0  0  0  0  0  0  0  0  0  0  0  0
    3.7557   -0.1891    0.4247 H   0  0  0  0  0  0  0  0  0  0  0  0
  1  5  1  0
  5  6  1  0
  5  7  2  0
  1  2  1  0
  1  3  1  0
  1  4  1  0
  8 12  1  0
 12 15  1  0
  8  9  1  0
  8 10  1  0
  8 11  1  0
 12 13  1  0
 12 14  1  0
 15 16  1  0
 15 17  1  0
 15 18  1  0
M  CHG  1   6  -1
M  END
>  <PDB_ID>  (188) 
pdb1d00

>  <RESIDUE_NAME>  (188) 
GLU   ARG

>  <FRAG_NAME>  (188) 
ACET   PRPA

>  <FRAG_ATOM_NUM>  (188) 
fragi: 7  fragj: 11

>  <atom.prop.CHAIN_ID>  (188) 
A A A A A A A Z Z Z Z Z Z Z Z Z Z Z

>  <atom.prop.IS_HEAVY_ATOM>  (188) 
1 0 0 0 1 1 1 1 0 0 0 1 0 0 1 0 0 0

>  <DIFUSE_FUNC_ATOM>  (188) 
atom 6   atom 7   

>  <FINAL_SINGLE_POINT_ENERGY>  (188) 
0

>  <NONCOV_INTER_ENERGY_QM>  (188) 
0

>  <FF_Energy>  (188) 
36.65

>  <QM_Energy>  (188) 
9.56

>  <source>  (188) 
ACET_PRPA_01

>  <Index>  (188) 
36147

$$$$
ACET-pdb1dih-A-ASP-72:PRPA-pdb1dih-A-VAL-69
     RDKit          3D

 18 16  0  0  0  0  0  0  0  0999 V2000
   -0.2448    1.4630    0.1535 C   0  0  0  0  0  0  0  0  0  0  0  0
    0.0377    1.9322   -0.6648 H   0  0  0  0  0  0  0  0  0  0  0  0
    0.2279    1.7950    0.9506 H   0  0  0  0  0  0  0  0  0  0  0  0
   -1.3101    1.6458    0.2941 H   0  0  0  0  0  0  0  0  0  0  0  0
    0.0000    0.0000    0.0000 C   0  0  0  0  0  0  0  0  0  0  0  0
   -1.1457   -0.7228    0.0000 O   0  0  0  0  0  1  0  0  0  0  0  0
    1.1457   -0.4400    0.0000 O   0  0  0  0  0  0  0  0  0  0  0  0
    0.6527    0.8265   -4.3070 C   0  0  0  0  0  0  0  0  0  0  0  0
    0.5507   -0.0283   -3.7604 H   0  0  0  0  0  0  0  0  0  0  0  0
    0.8515    0.5233   -5.3350 H   0  0  0  0  0  0  0  0  0  0  0  0
   -0.2521    1.4269   -4.2130 H   0  0  0  0  0  0  0  0  0  0  0  0
    1.7827    1.6585   -3.7232 C   0  0  0  0  0  0  0  0  0  0  0  0
    2.6374    1.3743   -4.1545 H   0  0  0  0  0  0  0  0  0  0  0  0
    1.6531    2.7143   -3.9611 H   0  0  0  0  0  0  0  0  0  0  0  0
    1.7045    1.4692   -2.2330 C   0  0  0  0  0  0  0  0  0  0  0  0
    2.0383    0.5560   -1.9895 H   0  0  0  0  0  0  0  0  0  0  0  0
    2.2691    2.1599   -1.7736 H   0  0  0  0  0  0  0  0  0  0  0  0
    0.7535    1.5655   -1.9287 H   0  0  0  0  0  0  0  0  0  0  0  0
  1  5  1  0
  5  6  1  0
  5  7  2  0
  1  2  1  0
  1  3  1  0
  1  4  1  0
  8 12  1  0
 12 15  1  0
  8  9  1  0
  8 10  1  0
  8 11  1  0
 12 13  1  0
 12 14  1  0
 15 16  1  0
 15 17  1  0
 15 18  1  0
M  CHG  1   6  -1
M  END
>  <PDB_ID>  (189) 
pdb1dih

>  <RESIDUE_NAME>  (189) 
ASP   VAL

>  <FRAG_NAME>  (189) 
ACET   PRPA

>  <FRAG_ATOM_NUM>  (189) 
fragi: 7  fragj: 11

>  <atom.prop.CHAIN_ID>  (189) 
A A A A A A A Z Z Z Z Z Z Z Z Z Z Z

>  <atom.prop.IS_HEAVY_ATOM>  (189) 
1 0 0 0 1 1 1 1 0 0 0 1 0 0 1 0 0 0

>  <DIFUSE_FUNC_ATOM>  (189) 
atom 6   atom 7   

>  <FINAL_SINGLE_POINT_ENERGY>  (189) 
0

>  <NONCOV_INTER_ENERGY_QM>  (189) 
0

>  <FF_Energy>  (189) 
33.06

>  <QM_Energy>  (189) 
4.84

>  <source>  (189) 
ACET_PRPA_01

>  <Index>  (189) 
36521

$$$$
ACET-pdb1dih-A-ASP-72:PRPA-pdb1dih-A-VAL-69
     RDKit          3D

 18 16  0  0  0  0  0  0  0  0999 V2000
   -0.2448    1.4630    0.1535 C   0  0  0  0  0  0  0  0  0  0  0  0
    0.0377    1.9322   -0.6648 H   0  0  0  0  0  0  0  0  0  0  0  0
    0.2279    1.7950    0.9506 H   0  0  0  0  0  0  0  0  0  0  0  0
   -1.3101    1.6458    0.2941 H   0  0  0  0  0  0  0  0  0  0  0  0
    0.0000    0.0000    0.0000 C   0  0  0  0  0  0  0  0  0  0  0  0
   -1.1457   -0.7228    0.0000 O   0  0  0  0  0  1  0  0  0  0  0  0
    1.1457   -0.4400    0.0000 O   0  0  0  0  0  0  0  0  0  0  0  0
    1.6007    3.1406   -4.0572 C   0  0  0  0  0  0  0  0  0  0  0  0
    2.0283    3.6946   -3.3438 H   0  0  0  0  0  0  0  0  0  0  0  0
    2.0304    3.3357   -4.9366 H   0  0  0  0  0  0  0  0  0  0  0  0
    0.6259    3.3507   -4.1057 H   0  0  0  0  0  0  0  0  0  0  0  0
    1.7827    1.6585   -3.7232 C   0  0  0  0  0  0  0  0  0  0  0  0
    2.6374    1.3743   -4.1545 H   0  0  0  0  0  0  0  0  0  0  0  0
    0.9724    1.0618   -4.1419 H   0  0  0  0  0  0  0  0  0  0  0  0
    1.7045    1.4692   -2.2330 C   0  0  0  0  0  0  0  0  0  0  0  0
    2.0383    0.5560   -1.9895 H   0  0  0  0  0  0  0  0  0  0  0  0
    2.2691    2.1599   -1.7736 H   0  0  0  0  0  0  0  0  0  0  0  0
    0.7535    1.5655   -1.9287 H   0  0  0  0  0  0  0  0  0  0  0  0
  1  5  1  0
  5  6  1  0
  5  7  2  0
  1  2  1  0
  1  3  1  0
  1  4  1  0
  8 12  1  0
 12 15  1  0
  8  9  1  0
  8 10  1  0
  8 11  1  0
 12 13  1  0
 12 14  1  0
 15 16  1  0
 15 17  1  0
 15 18  1  0
M  CHG  1   6  -1
M  END
>  <PDB_ID>  (190) 
pdb1dih

>  <RESIDUE_NAME>  (190) 
ASP   VAL

>  <FRAG_NAME>  (190) 
ACET   PRPA

>  <FRAG_ATOM_NUM>  (190) 
fragi: 7  fragj: 11

>  <atom.prop.CHAIN_ID>  (190) 
A A A A A A A Z Z Z Z Z Z Z Z Z Z Z

>  <atom.prop.IS_HEAVY_ATOM>  (190) 
1 0 0 0 1 1 1 1 0 0 0 1 0 0 1 0 0 0

>  <DIFUSE_FUNC_ATOM>  (190) 
atom 6   atom 7   

>  <FINAL_SINGLE_POINT_ENERGY>  (190) 
0

>  <NONCOV_INTER_ENERGY_QM>  (190) 
0

>  <FF_Energy>  (190) 
33.01

>  <QM_Energy>  (190) 
5.55

>  <source>  (190) 
ACET_PRPA_01

>  <Index>  (190) 
36529

$$$$
ACET-pdb1di2-B-GLU-156:PRPA-pdb1di2-B-LYS-177
     RDKit          3D

 18 16  0  0  0  0  0  0  0  0999 V2000
    0.0058    1.5142    0.0351 C   0  0  0  0  0  0  0  0  0  0  0  0
    0.7570    1.8236   -0.5199 H   0  0  0  0  0  0  0  0  0  0  0  0
    0.1002    1.7906    0.9742 H   0  0  0  0  0  0  0  0  0  0  0  0
   -0.9106    1.9534   -0.3592 H   0  0  0  0  0  0  0  0  0  0  0  0
    0.0000    0.0000    0.0000 C   0  0  0  0  0  0  0  0  0  0  0  0
   -1.0976   -0.5937   -0.0000 O   0  0  0  0  0  1  0  0  0  0  0  0
    1.0976   -0.5949   -0.0000 O   0  0  0  0  0  0  0  0  0  0  0  0
    3.6954    0.7197    2.8655 C   0  0  0  0  0  0  0  0  0  0  0  0
    2.7011    0.6775    2.9104 H   0  0  0  0  0  0  0  0  0  0  0  0
    3.9776    1.4737    2.2771 H   0  0  0  0  0  0  0  0  0  0  0  0
    4.0747    0.9107    3.8694 H   0  0  0  0  0  0  0  0  0  0  0  0
    4.2021   -0.5816    2.2536 C   0  0  0  0  0  0  0  0  0  0  0  0
    5.1932   -0.5228    2.1412 H   0  0  0  0  0  0  0  0  0  0  0  0
    3.9783   -1.3380    2.8663 H   0  0  0  0  0  0  0  0  0  0  0  0
    3.5666   -0.8406    0.8967 C   0  0  0  0  0  0  0  0  0  0  0  0
    2.5750   -0.7912    0.9891 H   0  0  0  0  0  0  0  0  0  0  0  0
    3.8841   -0.1489    0.2526 H   0  0  0  0  0  0  0  0  0  0  0  0
    3.8262   -1.8229    0.5018 H   0  0  0  0  0  0  0  0  0  0  0  0
  1  5  1  0
  5  6  1  0
  5  7  2  0
  1  2  1  0
  1  3  1  0
  1  4  1  0
  8 12  1  0
 12 15  1  0
  8  9  1  0
  8 10  1  0
  8 11  1  0
 12 13  1  0
 12 14  1  0
 15 16  1  0
 15 17  1  0
 15 18  1  0
M  CHG  1   6  -1
M  END
>  <PDB_ID>  (191) 
pdb1di2

>  <RESIDUE_NAME>  (191) 
GLU   LYS

>  <FRAG_NAME>  (191) 
ACET   PRPA

>  <FRAG_ATOM_NUM>  (191) 
fragi: 7  fragj: 11

>  <atom.prop.CHAIN_ID>  (191) 
A A A A A A A Z Z Z Z Z Z Z Z Z Z Z

>  <atom.prop.IS_HEAVY_ATOM>  (191) 
1 0 0 0 1 1 1 1 0 0 0 1 0 0 1 0 0 0

>  <DIFUSE_FUNC_ATOM>  (191) 
atom 6   atom 7   

>  <FINAL_SINGLE_POINT_ENERGY>  (191) 
0

>  <NONCOV_INTER_ENERGY_QM>  (191) 
0

>  <FF_Energy>  (191) 
31.96

>  <QM_Energy>  (191) 
3.2

>  <source>  (191) 
ACET_PRPA_01

>  <Index>  (191) 
36678

$$$$
ACET-pdb1di2-B-GLU-156:PRPA-pdb1di2-B-LYS-177
     RDKit          3D

 18 16  0  0  0  0  0  0  0  0999 V2000
    0.0058    1.5142    0.0351 C   0  0  0  0  0  0  0  0  0  0  0  0
    0.7570    1.8236   -0.5199 H   0  0  0  0  0  0  0  0  0  0  0  0
    0.1002    1.7906    0.9742 H   0  0  0  0  0  0  0  0  0  0  0  0
   -0.9106    1.9534   -0.3592 H   0  0  0  0  0  0  0  0  0  0  0  0
    0.0000    0.0000    0.0000 C   0  0  0  0  0  0  0  0  0  0  0  0
   -1.0976   -0.5937   -0.0000 O   0  0  0  0  0  1  0  0  0  0  0  0
    1.0976   -0.5949   -0.0000 O   0  0  0  0  0  0  0  0  0  0  0  0
    4.2021   -0.5816    2.2536 C   0  0  0  0  0  0  0  0  0  0  0  0
    5.1932   -0.5228    2.1412 H   0  0  0  0  0  0  0  0  0  0  0  0
    3.9783   -1.3380    2.8663 H   0  0  0  0  0  0  0  0  0  0  0  0
    3.8398    0.3488    2.6911 H   0  0  0  0  0  0  0  0  0  0  0  0
    3.5666   -0.8406    0.8967 C   0  0  0  0  0  0  0  0  0  0  0  0
    2.5750   -0.7912    0.9891 H   0  0  0  0  0  0  0  0  0  0  0  0
    3.8841   -0.1489    0.2526 H   0  0  0  0  0  0  0  0  0  0  0  0
    3.9305   -2.2168    0.3434 C   0  0  0  0  0  0  0  0  0  0  0  0
    4.9279   -2.2796    0.2619 H   0  0  0  0  0  0  0  0  0  0  0  0
    3.6110   -2.9181    0.9853 H   0  0  0  0  0  0  0  0  0  0  0  0
    3.4803   -2.3949   -0.6332 H   0  0  0  0  0  0  0  0  0  0  0  0
  1  5  1  0
  5  6  1  0
  5  7  2  0
  1  2  1  0
  1  3  1  0
  1  4  1  0
  8 12  1  0
 12 15  1  0
  8  9  1  0
  8 10  1  0
  8 11  1  0
 12 13  1  0
 12 14  1  0
 15 16  1  0
 15 17  1  0
 15 18  1  0
M  CHG  1   6  -1
M  END
>  <PDB_ID>  (192) 
pdb1di2

>  <RESIDUE_NAME>  (192) 
GLU   LYS

>  <FRAG_NAME>  (192) 
ACET   PRPA

>  <FRAG_ATOM_NUM>  (192) 
fragi: 7  fragj: 11

>  <atom.prop.CHAIN_ID>  (192) 
A A A A A A A Z Z Z Z Z Z Z Z Z Z Z

>  <atom.prop.IS_HEAVY_ATOM>  (192) 
1 0 0 0 1 1 1 1 0 0 0 1 0 0 1 0 0 0

>  <DIFUSE_FUNC_ATOM>  (192) 
atom 6   atom 7   

>  <FINAL_SINGLE_POINT_ENERGY>  (192) 
0

>  <NONCOV_INTER_ENERGY_QM>  (192) 
0

>  <FF_Energy>  (192) 
36.59

>  <QM_Energy>  (192) 
2.79

>  <source>  (192) 
ACET_PRPA_01

>  <Index>  (192) 
36702

$$$$
ACET-pdb1d00-H-GLU-479:PRPA-pdb1d00-H-ARG-365
     RDKit          3D

 18 16  0  0  0  0  0  0  0  0999 V2000
    0.1637    1.4836    0.0151 C   0  0  0  0  0  0  0  0  0  0  0  0
    0.6836    1.7436   -0.8027 H   0  0  0  0  0  0  0  0  0  0  0  0
    0.6961    1.7256    0.8297 H   0  0  0  0  0  0  0  0  0  0  0  0
   -0.7473    2.0819    0.0273 H   0  0  0  0  0  0  0  0  0  0  0  0
    0.0000    0.0000    0.0000 C   0  0  0  0  0  0  0  0  0  0  0  0
   -1.0894   -0.5620    0.0000 O   0  0  0  0  0  1  0  0  0  0  0  0
    1.0894   -0.6029    0.0000 O   0  0  0  0  0  0  0  0  0  0  0  0
    5.5095    0.0346    1.0715 C   0  0  0  0  0  0  0  0  0  0  0  0
    5.7573    0.9883    1.2304 H   0  0  0  0  0  0  0  0  0  0  0  0
    5.5669   -0.1718    0.0976 H   0  0  0  0  0  0  0  0  0  0  0  0
    6.2300   -0.5945    1.5942 H   0  0  0  0  0  0  0  0  0  0  0  0
    4.0586   -0.1548    1.5077 C   0  0  0  0  0  0  0  0  0  0  0  0
    4.0364   -0.3106    2.5099 H   0  0  0  0  0  0  0  0  0  0  0  0
    3.5486    0.7025    1.3264 H   0  0  0  0  0  0  0  0  0  0  0  0
    3.3200   -1.2901    0.8382 C   0  0  0  0  0  0  0  0  0  0  0  0
    2.9017   -0.9492    0.0114 H   0  0  0  0  0  0  0  0  0  0  0  0
    3.9649   -2.0131    0.6472 H   0  0  0  0  0  0  0  0  0  0  0  0
    2.5445   -1.6655    1.5059 H   0  0  0  0  0  0  0  0  0  0  0  0
  1  5  1  0
  5  6  1  0
  5  7  2  0
  1  2  1  0
  1  3  1  0
  1  4  1  0
  8 12  1  0
 12 15  1  0
  8  9  1  0
  8 10  1  0
  8 11  1  0
 12 13  1  0
 12 14  1  0
 15 16  1  0
 15 17  1  0
 15 18  1  0
M  CHG  1   6  -1
M  END
>  <PDB_ID>  (193) 
pdb1d00

>  <RESIDUE_NAME>  (193) 
GLU   ARG

>  <FRAG_NAME>  (193) 
ACET   PRPA

>  <FRAG_ATOM_NUM>  (193) 
fragi: 7  fragj: 11

>  <atom.prop.CHAIN_ID>  (193) 
A A A A A A A Z Z Z Z Z Z Z Z Z Z Z

>  <atom.prop.IS_HEAVY_ATOM>  (193) 
1 0 0 0 1 1 1 1 0 0 0 1 0 0 1 0 0 0

>  <DIFUSE_FUNC_ATOM>  (193) 
atom 6   atom 7   

>  <FINAL_SINGLE_POINT_ENERGY>  (193) 
0

>  <NONCOV_INTER_ENERGY_QM>  (193) 
0

>  <FF_Energy>  (193) 
29.88

>  <QM_Energy>  (193) 
5.4

>  <source>  (193) 
ACET_PRPA_01

>  <Index>  (193) 
38769

$$$$
ACET-pdb2eak-A-GLU-67:PRPA-pdb2eak-A-ARG-44
     RDKit          3D

 18 16  0  0  0  0  0  0  0  0999 V2000
   -0.0127    1.5157    0.0025 C   0  0  0  0  0  0  0  0  0  0  0  0
   -0.4579    1.8102    0.8291 H   0  0  0  0  0  0  0  0  0  0  0  0
   -0.4955    1.8116   -0.8028 H   0  0  0  0  0  0  0  0  0  0  0  0
    0.9844    1.9556   -0.0186 H   0  0  0  0  0  0  0  0  0  0  0  0
    0.0000    0.0000    0.0000 C   0  0  0  0  0  0  0  0  0  0  0  0
   -1.0948   -0.5951    0.0000 O   0  0  0  0  0  1  0  0  0  0  0  0
    1.0948   -0.6128    0.0000 O   0  0  0  0  0  0  0  0  0  0  0  0
   -3.2497   -1.9321   -4.0449 C   0  0  0  0  0  0  0  0  0  0  0  0
   -3.8639   -2.7054   -4.0750 H   0  0  0  0  0  0  0  0  0  0  0  0
   -2.4861   -2.0530   -4.6595 H   0  0  0  0  0  0  0  0  0  0  0  0
   -3.8068   -1.0582   -4.3823 H   0  0  0  0  0  0  0  0  0  0  0  0
   -2.7179   -1.7857   -2.6277 C   0  0  0  0  0  0  0  0  0  0  0  0
   -2.9074   -0.8257   -2.3068 H   0  0  0  0  0  0  0  0  0  0  0  0
   -3.2787   -2.3874   -2.0069 H   0  0  0  0  0  0  0  0  0  0  0  0
   -1.2692   -2.0805   -2.3671 C   0  0  0  0  0  0  0  0  0  0  0  0
   -0.7247   -1.6527   -3.1015 H   0  0  0  0  0  0  0  0  0  0  0  0
   -1.0126   -1.6420   -1.4943 H   0  0  0  0  0  0  0  0  0  0  0  0
   -1.0306   -3.1429   -2.3171 H   0  0  0  0  0  0  0  0  0  0  0  0
  1  5  1  0
  5  6  1  0
  5  7  2  0
  1  2  1  0
  1  3  1  0
  1  4  1  0
  8 12  1  0
 12 15  1  0
  8  9  1  0
  8 10  1  0
  8 11  1  0
 12 13  1  0
 12 14  1  0
 15 16  1  0
 15 17  1  0
 15 18  1  0
M  CHG  1   6  -1
M  END
>  <PDB_ID>  (194) 
pdb2eak

>  <RESIDUE_NAME>  (194) 
GLU   ARG

>  <FRAG_NAME>  (194) 
ACET   PRPA

>  <FRAG_ATOM_NUM>  (194) 
fragi: 7  fragj: 11

>  <atom.prop.CHAIN_ID>  (194) 
A A A A A A A Z Z Z Z Z Z Z Z Z Z Z

>  <atom.prop.IS_HEAVY_ATOM>  (194) 
1 0 0 0 1 1 1 1 0 0 0 1 0 0 1 0 0 0

>  <DIFUSE_FUNC_ATOM>  (194) 
atom 6   atom 7   

>  <FINAL_SINGLE_POINT_ENERGY>  (194) 
0

>  <NONCOV_INTER_ENERGY_QM>  (194) 
0

>  <FF_Energy>  (194) 
23.54

>  <QM_Energy>  (194) 
-0.91

>  <source>  (194) 
ACET_PRPA_01

>  <Index>  (194) 
39243

$$$$
ACET-pdb2ddz-F-ASP-66:PRPA-pdb2ddz-F-VAL-143
     RDKit          3D

 18 16  0  0  0  0  0  0  0  0999 V2000
    0.0114    1.5152    0.0297 C   0  0  0  0  0  0  0  0  0  0  0  0
    0.8900    1.8359   -0.3040 H   0  0  0  0  0  0  0  0  0  0  0  0
   -0.1408    1.8200    0.9619 H   0  0  0  0  0  0  0  0  0  0  0  0
   -0.7650    1.9536   -0.5973 H   0  0  0  0  0  0  0  0  0  0  0  0
    0.0000    0.0000    0.0000 C   0  0  0  0  0  0  0  0  0  0  0  0
   -1.0995   -0.6012   -0.0000 O   0  0  0  0  0  1  0  0  0  0  0  0
    1.0995   -0.5829    0.0000 O   0  0  0  0  0  0  0  0  0  0  0  0
    4.3946    0.2195   -1.9836 C   0  0  0  0  0  0  0  0  0  0  0  0
    4.9803   -0.5205   -2.3065 H   0  0  0  0  0  0  0  0  0  0  0  0
    4.6549    1.1255   -2.5308 H   0  0  0  0  0  0  0  0  0  0  0  0
    3.3618   -0.0407   -2.2152 H   0  0  0  0  0  0  0  0  0  0  0  0
    4.5437    0.3945   -0.4428 C   0  0  0  0  0  0  0  0  0  0  0  0
    4.0468    1.2119   -0.1867 H   0  0  0  0  0  0  0  0  0  0  0  0
    5.5983    0.4447   -0.1718 H   0  0  0  0  0  0  0  0  0  0  0  0
    3.8802   -0.7814    0.2875 C   0  0  0  0  0  0  0  0  0  0  0  0
    4.0740   -0.7119    1.2633 H   0  0  0  0  0  0  0  0  0  0  0  0
    2.8949   -0.7473    0.1358 H   0  0  0  0  0  0  0  0  0  0  0  0
    4.2473   -1.6373   -0.0701 H   0  0  0  0  0  0  0  0  0  0  0  0
  1  5  1  0
  5  6  1  0
  5  7  2  0
  1  2  1  0
  1  3  1  0
  1  4  1  0
  8 12  1  0
 12 15  1  0
  8  9  1  0
  8 10  1  0
  8 11  1  0
 12 13  1  0
 12 14  1  0
 15 16  1  0
 15 17  1  0
 15 18  1  0
M  CHG  1   6  -1
M  END
>  <PDB_ID>  (195) 
pdb2ddz

>  <RESIDUE_NAME>  (195) 
ASP   VAL

>  <FRAG_NAME>  (195) 
ACET   PRPA

>  <FRAG_ATOM_NUM>  (195) 
fragi: 7  fragj: 11

>  <atom.prop.CHAIN_ID>  (195) 
A A A A A A A Z Z Z Z Z Z Z Z Z Z Z

>  <atom.prop.IS_HEAVY_ATOM>  (195) 
1 0 0 0 1 1 1 1 0 0 0 1 0 0 1 0 0 0

>  <DIFUSE_FUNC_ATOM>  (195) 
atom 6   atom 7   

>  <FINAL_SINGLE_POINT_ENERGY>  (195) 
0

>  <NONCOV_INTER_ENERGY_QM>  (195) 
0

>  <FF_Energy>  (195) 
25.1

>  <QM_Energy>  (195) 
-1.03

>  <source>  (195) 
ACET_PRPA_01

>  <Index>  (195) 
39304

$$$$
ACET-pdb2ddz-F-ASP-66:PRPA-pdb2ddz-F-VAL-143
     RDKit          3D

 18 16  0  0  0  0  0  0  0  0999 V2000
    0.0114    1.5152    0.0297 C   0  0  0  0  0  0  0  0  0  0  0  0
    0.8900    1.8359   -0.3040 H   0  0  0  0  0  0  0  0  0  0  0  0
   -0.1408    1.8200    0.9619 H   0  0  0  0  0  0  0  0  0  0  0  0
   -0.7650    1.9536   -0.5973 H   0  0  0  0  0  0  0  0  0  0  0  0
    0.0000    0.0000    0.0000 C   0  0  0  0  0  0  0  0  0  0  0  0
   -1.0995   -0.6012   -0.0000 O   0  0  0  0  0  1  0  0  0  0  0  0
    1.0995   -0.5829    0.0000 O   0  0  0  0  0  0  0  0  0  0  0  0
    3.8802   -0.7814    0.2875 C   0  0  0  0  0  0  0  0  0  0  0  0
    4.0740   -0.7119    1.2633 H   0  0  0  0  0  0  0  0  0  0  0  0
    2.8949   -0.7473    0.1358 H   0  0  0  0  0  0  0  0  0  0  0  0
    4.2473   -1.6373   -0.0701 H   0  0  0  0  0  0  0  0  0  0  0  0
    4.5437    0.3945   -0.4428 C   0  0  0  0  0  0  0  0  0  0  0  0
    4.0468    1.2119   -0.1867 H   0  0  0  0  0  0  0  0  0  0  0  0
    4.4394    0.2721   -1.5209 H   0  0  0  0  0  0  0  0  0  0  0  0
    6.0284    0.4651   -0.0614 C   0  0  0  0  0  0  0  0  0  0  0  0
    6.4041   -0.4594   -0.0508 H   0  0  0  0  0  0  0  0  0  0  0  0
    6.5100    1.0219   -0.7356 H   0  0  0  0  0  0  0  0  0  0  0  0
    6.1111    0.8781    0.8435 H   0  0  0  0  0  0  0  0  0  0  0  0
  1  5  1  0
  5  6  1  0
  5  7  2  0
  1  2  1  0
  1  3  1  0
  1  4  1  0
  8 12  1  0
 12 15  1  0
  8  9  1  0
  8 10  1  0
  8 11  1  0
 12 13  1  0
 12 14  1  0
 15 16  1  0
 15 17  1  0
 15 18  1  0
M  CHG  1   6  -1
M  END
>  <PDB_ID>  (196) 
pdb2ddz

>  <RESIDUE_NAME>  (196) 
ASP   VAL

>  <FRAG_NAME>  (196) 
ACET   PRPA

>  <FRAG_ATOM_NUM>  (196) 
fragi: 7  fragj: 11

>  <atom.prop.CHAIN_ID>  (196) 
A A A A A A A Z Z Z Z Z Z Z Z Z Z Z

>  <atom.prop.IS_HEAVY_ATOM>  (196) 
1 0 0 0 1 1 1 1 0 0 0 1 0 0 1 0 0 0

>  <DIFUSE_FUNC_ATOM>  (196) 
atom 6   atom 7   

>  <FINAL_SINGLE_POINT_ENERGY>  (196) 
0

>  <NONCOV_INTER_ENERGY_QM>  (196) 
0

>  <FF_Energy>  (196) 
24.83

>  <QM_Energy>  (196) 
0.04

>  <source>  (196) 
ACET_PRPA_01

>  <Index>  (196) 
39314

$$$$
ACET-pdb1dm9-A-GLU-80:PRPA-pdb1dm9-A-ARG-76
     RDKit          3D

 18 16  0  0  0  0  0  0  0  0999 V2000
    0.1472    1.4832    0.0135 C   0  0  0  0  0  0  0  0  0  0  0  0
    0.6684    1.7497   -0.8040 H   0  0  0  0  0  0  0  0  0  0  0  0
    0.6799    1.7327    0.8287 H   0  0  0  0  0  0  0  0  0  0  0  0
   -0.7641    2.0811    0.0251 H   0  0  0  0  0  0  0  0  0  0  0  0
    0.0000    0.0000    0.0000 C   0  0  0  0  0  0  0  0  0  0  0  0
   -1.0909   -0.5663    0.0000 O   0  0  0  0  0  1  0  0  0  0  0  0
    1.0909   -0.5953    0.0000 O   0  0  0  0  0  0  0  0  0  0  0  0
    0.0568   -0.2496   -4.0207 C   0  0  0  0  0  0  0  0  0  0  0  0
   -0.1714   -1.2265   -4.0725 H   0  0  0  0  0  0  0  0  0  0  0  0
    0.7818   -0.0147   -4.8001 H   0  0  0  0  0  0  0  0  0  0  0  0
   -0.8559    0.3288   -4.1643 H   0  0  0  0  0  0  0  0  0  0  0  0
    0.6737    0.0423   -2.6585 C   0  0  0  0  0  0  0  0  0  0  0  0
    0.4062    0.9583   -2.3873 H   0  0  0  0  0  0  0  0  0  0  0  0
    0.3305   -0.6288   -2.0132 H   0  0  0  0  0  0  0  0  0  0  0  0
    2.1720   -0.0335   -2.6775 C   0  0  0  0  0  0  0  0  0  0  0  0
    2.4820   -0.2562   -3.5959 H   0  0  0  0  0  0  0  0  0  0  0  0
    2.5521    0.8386   -2.3866 H   0  0  0  0  0  0  0  0  0  0  0  0
    2.5082   -0.8107   -1.9912 H   0  0  0  0  0  0  0  0  0  0  0  0
  1  5  1  0
  5  6  1  0
  5  7  2  0
  1  2  1  0
  1  3  1  0
  1  4  1  0
  8 12  1  0
 12 15  1  0
  8  9  1  0
  8 10  1  0
  8 11  1  0
 12 13  1  0
 12 14  1  0
 15 16  1  0
 15 17  1  0
 15 18  1  0
M  CHG  1   6  -1
M  END
>  <PDB_ID>  (197) 
pdb1dm9

>  <RESIDUE_NAME>  (197) 
GLU   ARG

>  <FRAG_NAME>  (197) 
ACET   PRPA

>  <FRAG_ATOM_NUM>  (197) 
fragi: 7  fragj: 11

>  <atom.prop.CHAIN_ID>  (197) 
A A A A A A A Z Z Z Z Z Z Z Z Z Z Z

>  <atom.prop.IS_HEAVY_ATOM>  (197) 
1 0 0 0 1 1 1 1 0 0 0 1 0 0 1 0 0 0

>  <DIFUSE_FUNC_ATOM>  (197) 
atom 6   atom 7   

>  <FINAL_SINGLE_POINT_ENERGY>  (197) 
0

>  <NONCOV_INTER_ENERGY_QM>  (197) 
0

>  <FF_Energy>  (197) 
26.38

>  <QM_Energy>  (197) 
2.93

>  <source>  (197) 
ACET_PRPA_01

>  <Index>  (197) 
39434

$$$$
ACET-pdb1dp6-A-ASP-154:PRPA-pdb1dp6-A-ARG-254
     RDKit          3D

 18 16  0  0  0  0  0  0  0  0999 V2000
    0.0449    1.5387    0.0024 C   0  0  0  0  0  0  0  0  0  0  0  0
    0.6890    1.8318   -0.6968 H   0  0  0  0  0  0  0  0  0  0  0  0
    0.3495    1.8389    0.9001 H   0  0  0  0  0  0  0  0  0  0  0  0
   -0.9184    2.0047   -0.2051 H   0  0  0  0  0  0  0  0  0  0  0  0
    0.0000    0.0000    0.0000 C   0  0  0  0  0  0  0  0  0  0  0  0
   -1.1000   -0.6144   -0.0000 O   0  0  0  0  0  1  0  0  0  0  0  0
    1.1000   -0.6032    0.0000 O   0  0  0  0  0  0  0  0  0  0  0  0
    3.5155    1.4744    3.0279 C   0  0  0  0  0  0  0  0  0  0  0  0
    2.5465    1.6482    2.9509 H   0  0  0  0  0  0  0  0  0  0  0  0
    4.0567    2.1131    2.3299 H   0  0  0  0  0  0  0  0  0  0  0  0
    3.8496    1.7806    4.0193 H   0  0  0  0  0  0  0  0  0  0  0  0
    3.8425   -0.0068    2.7723 C   0  0  0  0  0  0  0  0  0  0  0  0
    4.8263   -0.1329    2.9079 H   0  0  0  0  0  0  0  0  0  0  0  0
    3.3429   -0.5532    3.4456 H   0  0  0  0  0  0  0  0  0  0  0  0
    3.4878   -0.5259    1.3865 C   0  0  0  0  0  0  0  0  0  0  0  0
    2.5039   -0.4119    1.2400 H   0  0  0  0  0  0  0  0  0  0  0  0
    3.9867    0.0083    0.7031 H   0  0  0  0  0  0  0  0  0  0  0  0
    3.7441   -1.5790    1.2712 H   0  0  0  0  0  0  0  0  0  0  0  0
  1  5  1  0
  5  6  1  0
  5  7  2  0
  1  2  1  0
  1  3  1  0
  1  4  1  0
  8 12  1  0
 12 15  1  0
  8  9  1  0
  8 10  1  0
  8 11  1  0
 12 13  1  0
 12 14  1  0
 15 16  1  0
 15 17  1  0
 15 18  1  0
M  CHG  1   6  -1
M  END
>  <PDB_ID>  (198) 
pdb1dp6

>  <RESIDUE_NAME>  (198) 
ASP   ARG

>  <FRAG_NAME>  (198) 
ACET   PRPA

>  <FRAG_ATOM_NUM>  (198) 
fragi: 7  fragj: 11

>  <atom.prop.CHAIN_ID>  (198) 
A A A A A A A Z Z Z Z Z Z Z Z Z Z Z

>  <atom.prop.IS_HEAVY_ATOM>  (198) 
1 0 0 0 1 1 1 1 0 0 0 1 0 0 1 0 0 0

>  <DIFUSE_FUNC_ATOM>  (198) 
atom 6   atom 7   

>  <FINAL_SINGLE_POINT_ENERGY>  (198) 
0

>  <NONCOV_INTER_ENERGY_QM>  (198) 
0

>  <FF_Energy>  (198) 
16.14

>  <QM_Energy>  (198) 
0.93

>  <source>  (198) 
ACET_PRPA_02

>  <Index>  (198) 
1067

$$$$
ACET-pdb1dp6-A-ASP-154:PRPA-pdb1dp6-A-ARG-254
     RDKit          3D

 18 16  0  0  0  0  0  0  0  0999 V2000
    0.0449    1.5387    0.0024 C   0  0  0  0  0  0  0  0  0  0  0  0
    0.6890    1.8318   -0.6968 H   0  0  0  0  0  0  0  0  0  0  0  0
    0.3495    1.8389    0.9001 H   0  0  0  0  0  0  0  0  0  0  0  0
   -0.9184    2.0047   -0.2051 H   0  0  0  0  0  0  0  0  0  0  0  0
    0.0000    0.0000    0.0000 C   0  0  0  0  0  0  0  0  0  0  0  0
   -1.1000   -0.6144   -0.0000 O   0  0  0  0  0  1  0  0  0  0  0  0
    1.1000   -0.6032    0.0000 O   0  0  0  0  0  0  0  0  0  0  0  0
    3.8425   -0.0068    2.7723 C   0  0  0  0  0  0  0  0  0  0  0  0
    4.8263   -0.1329    2.9079 H   0  0  0  0  0  0  0  0  0  0  0  0
    3.3429   -0.5532    3.4456 H   0  0  0  0  0  0  0  0  0  0  0  0
    3.6108    1.0428    2.9535 H   0  0  0  0  0  0  0  0  0  0  0  0
    3.4878   -0.5259    1.3865 C   0  0  0  0  0  0  0  0  0  0  0  0
    2.5039   -0.4119    1.2400 H   0  0  0  0  0  0  0  0  0  0  0  0
    3.9867    0.0083    0.7031 H   0  0  0  0  0  0  0  0  0  0  0  0
    3.8375   -1.9627    1.2292 C   0  0  0  0  0  0  0  0  0  0  0  0
    4.8212   -2.0735    1.3757 H   0  0  0  0  0  0  0  0  0  0  0  0
    3.3372   -2.4938    1.9141 H   0  0  0  0  0  0  0  0  0  0  0  0
    3.5848   -2.3387    0.2378 H   0  0  0  0  0  0  0  0  0  0  0  0
  1  5  1  0
  5  6  1  0
  5  7  2  0
  1  2  1  0
  1  3  1  0
  1  4  1  0
  8 12  1  0
 12 15  1  0
  8  9  1  0
  8 10  1  0
  8 11  1  0
 12 13  1  0
 12 14  1  0
 15 16  1  0
 15 17  1  0
 15 18  1  0
M  CHG  1   6  -1
M  END
>  <PDB_ID>  (199) 
pdb1dp6

>  <RESIDUE_NAME>  (199) 
ASP   ARG

>  <FRAG_NAME>  (199) 
ACET   PRPA

>  <FRAG_ATOM_NUM>  (199) 
fragi: 7  fragj: 11

>  <atom.prop.CHAIN_ID>  (199) 
A A A A A A A Z Z Z Z Z Z Z Z Z Z Z

>  <atom.prop.IS_HEAVY_ATOM>  (199) 
1 0 0 0 1 1 1 1 0 0 0 1 0 0 1 0 0 0

>  <DIFUSE_FUNC_ATOM>  (199) 
atom 6   atom 7   

>  <FINAL_SINGLE_POINT_ENERGY>  (199) 
0

>  <NONCOV_INTER_ENERGY_QM>  (199) 
0

>  <FF_Energy>  (199) 
18.65

>  <QM_Energy>  (199) 
0.21

>  <source>  (199) 
ACET_PRPA_02

>  <Index>  (199) 
1072

$$$$
ACET-pdb2e9y-A-GLU-201:PRPA-pdb2e9y-A-LEU-118
     RDKit          3D

 18 16  0  0  0  0  0  0  0  0999 V2000
    0.0109    1.5119    0.0040 C   0  0  0  0  0  0  0  0  0  0  0  0
   -0.7531    1.8196   -0.5049 H   0  0  0  0  0  0  0  0  0  0  0  0
    0.8704    1.8072   -0.3339 H   0  0  0  0  0  0  0  0  0  0  0  0
   -0.0951    1.8715    1.0275 H   0  0  0  0  0  0  0  0  0  0  0  0
    0.0000    0.0000    0.0000 C   0  0  0  0  0  0  0  0  0  0  0  0
   -1.0779   -0.5782   -0.0000 O   0  0  0  0  0  1  0  0  0  0  0  0
    1.0779   -0.5910   -0.0000 O   0  0  0  0  0  0  0  0  0  0  0  0
    1.0933    1.7680   -5.2734 C   0  0  0  0  0  0  0  0  0  0  0  0
    0.1985    2.2089   -5.3442 H   0  0  0  0  0  0  0  0  0  0  0  0
    1.1340    0.9911   -5.9003 H   0  0  0  0  0  0  0  0  0  0  0  0
    1.8439    2.4912   -5.5923 H   0  0  0  0  0  0  0  0  0  0  0  0
    1.2142    1.2104   -3.8482 C   0  0  0  0  0  0  0  0  0  0  0  0
    2.1413    0.8808   -3.7099 H   0  0  0  0  0  0  0  0  0  0  0  0
    0.5238    0.3792   -3.7052 H   0  0  0  0  0  0  0  0  0  0  0  0
    0.9106    2.3156   -2.8505 C   0  0  0  0  0  0  0  0  0  0  0  0
   -0.0188    2.6561   -2.9991 H   0  0  0  0  0  0  0  0  0  0  0  0
    0.9879    1.9579   -1.9191 H   0  0  0  0  0  0  0  0  0  0  0  0
    1.5614    3.0657   -2.9725 H   0  0  0  0  0  0  0  0  0  0  0  0
  1  5  1  0
  5  6  1  0
  5  7  2  0
  1  2  1  0
  1  3  1  0
  1  4  1  0
  8 12  1  0
 12 15  1  0
  8  9  1  0
  8 10  1  0
  8 11  1  0
 12 13  1  0
 12 14  1  0
 15 16  1  0
 15 17  1  0
 15 18  1  0
M  CHG  1   6  -1
M  END
>  <PDB_ID>  (200) 
pdb2e9y

>  <RESIDUE_NAME>  (200) 
GLU   LEU

>  <FRAG_NAME>  (200) 
ACET   PRPA

>  <FRAG_ATOM_NUM>  (200) 
fragi: 7  fragj: 11

>  <atom.prop.CHAIN_ID>  (200) 
A A A A A A A Z Z Z Z Z Z Z Z Z Z Z

>  <atom.prop.IS_HEAVY_ATOM>  (200) 
1 0 0 0 1 1 1 1 0 0 0 1 0 0 1 0 0 0

>  <DIFUSE_FUNC_ATOM>  (200) 
atom 6   atom 7   

>  <FINAL_SINGLE_POINT_ENERGY>  (200) 
0

>  <NONCOV_INTER_ENERGY_QM>  (200) 
0

>  <FF_Energy>  (200) 
18.25

>  <QM_Energy>  (200) 
2.9

>  <source>  (200) 
ACET_PRPA_02

>  <Index>  (200) 
1718

$$$$
ACET-pdb2egd-A-ASP-57:PRPA-pdb2egd-A-LYS-39
     RDKit          3D

 18 16  0  0  0  0  0  0  0  0999 V2000
    0.0853    1.5166   -0.0180 C   0  0  0  0  0  0  0  0  0  0  0  0
    0.5689    1.8001   -0.8351 H   0  0  0  0  0  0  0  0  0  0  0  0
    0.5575    1.8207    0.7971 H   0  0  0  0  0  0  0  0  0  0  0  0
   -0.8982    1.9864   -0.0307 H   0  0  0  0  0  0  0  0  0  0  0  0
    0.0000    0.0000    0.0000 C   0  0  0  0  0  0  0  0  0  0  0  0
   -1.0932   -0.5872   -0.0000 O   0  0  0  0  0  1  0  0  0  0  0  0
    1.0932   -0.6096    0.0000 O   0  0  0  0  0  0  0  0  0  0  0  0
   -5.2014   -2.2176   -0.9321 C   0  0  0  0  0  0  0  0  0  0  0  0
   -5.1993   -1.4832   -1.5912 H   0  0  0  0  0  0  0  0  0  0  0  0
   -5.3792   -1.8882   -0.0192 H   0  0  0  0  0  0  0  0  0  0  0  0
   -5.9897   -2.9196   -1.2039 H   0  0  0  0  0  0  0  0  0  0  0  0
   -3.8789   -2.9421   -0.9678 C   0  0  0  0  0  0  0  0  0  0  0  0
   -3.8721   -3.6240   -0.2333 H   0  0  0  0  0  0  0  0  0  0  0  0
   -3.7962   -3.4083   -1.8511 H   0  0  0  0  0  0  0  0  0  0  0  0
   -2.7455   -2.0156   -0.7912 C   0  0  0  0  0  0  0  0  0  0  0  0
   -2.6877   -1.3939   -1.5561 H   0  0  0  0  0  0  0  0  0  0  0  0
   -2.8282   -1.5298    0.0645 H   0  0  0  0  0  0  0  0  0  0  0  0
   -1.8469   -2.6321   -0.7651 H   0  0  0  0  0  0  0  0  0  0  0  0
  1  5  1  0
  5  6  1  0
  5  7  2  0
  1  2  1  0
  1  3  1  0
  1  4  1  0
  8 12  1  0
 12 15  1  0
  8  9  1  0
  8 10  1  0
  8 11  1  0
 12 13  1  0
 12 14  1  0
 15 16  1  0
 15 17  1  0
 15 18  1  0
M  CHG  1   6  -1
M  END
>  <PDB_ID>  (201) 
pdb2egd

>  <RESIDUE_NAME>  (201) 
ASP   LYS

>  <FRAG_NAME>  (201) 
ACET   PRPA

>  <FRAG_ATOM_NUM>  (201) 
fragi: 7  fragj: 11

>  <atom.prop.CHAIN_ID>  (201) 
A A A A A A A Z Z Z Z Z Z Z Z Z Z Z

>  <atom.prop.IS_HEAVY_ATOM>  (201) 
1 0 0 0 1 1 1 1 0 0 0 1 0 0 1 0 0 0

>  <DIFUSE_FUNC_ATOM>  (201) 
atom 6   atom 7   

>  <FINAL_SINGLE_POINT_ENERGY>  (201) 
0

>  <NONCOV_INTER_ENERGY_QM>  (201) 
0

>  <FF_Energy>  (201) 
35.21

>  <QM_Energy>  (201) 
9.28

>  <source>  (201) 
ACET_PRPA_02

>  <Index>  (201) 
1989

$$$$
ACET-pdb1dpe-A-ASP-212:PRPA-pdb1dpe-A-LYS-1
     RDKit          3D

 18 16  0  0  0  0  0  0  0  0999 V2000
   -0.0145    1.5235   -0.0533 C   0  0  0  0  0  0  0  0  0  0  0  0
    0.8906    1.8579    0.0715 H   0  0  0  0  0  0  0  0  0  0  0  0
   -0.6551    1.8617    0.5962 H   0  0  0  0  0  0  0  0  0  0  0  0
   -0.3495    1.8331   -1.0433 H   0  0  0  0  0  0  0  0  0  0  0  0
    0.0000    0.0000    0.0000 C   0  0  0  0  0  0  0  0  0  0  0  0
   -1.1029   -0.6184   -0.0000 O   0  0  0  0  0  1  0  0  0  0  0  0
    1.1029   -0.6014    0.0000 O   0  0  0  0  0  0  0  0  0  0  0  0
    2.7437    1.2807    1.4526 C   0  0  0  0  0  0  0  0  0  0  0  0
    2.2008    1.7331    0.6420 H   0  0  0  0  0  0  0  0  0  0  0  0
    2.0590    0.4860    1.6876 H   0  0  0  0  0  0  0  0  0  0  0  0
    3.6359    0.8223    1.0262 H   0  0  0  0  0  0  0  0  0  0  0  0
    2.6936    2.2503    2.6021 C   0  0  0  0  0  0  0  0  0  0  0  0
    1.7434    2.4455    2.8274 H   0  0  0  0  0  0  0  0  0  0  0  0
    3.1581    1.8538    3.3891 H   0  0  0  0  0  0  0  0  0  0  0  0
    3.3809    3.5609    2.2520 C   0  0  0  0  0  0  0  0  0  0  0  0
    2.8915    4.0041    1.5134 H   0  0  0  0  0  0  0  0  0  0  0  0
    3.4151    4.1415    3.0542 H   0  0  0  0  0  0  0  0  0  0  0  0
    4.4001    3.3564    1.9241 H   0  0  0  0  0  0  0  0  0  0  0  0
  1  5  1  0
  5  6  1  0
  5  7  2  0
  1  2  1  0
  1  3  1  0
  1  4  1  0
  8 12  1  0
 12 15  1  0
  8  9  1  0
  8 10  1  0
  8 11  1  0
 12 13  1  0
 12 14  1  0
 15 16  1  0
 15 17  1  0
 15 18  1  0
M  CHG  1   6  -1
M  END
>  <PDB_ID>  (202) 
pdb1dpe

>  <RESIDUE_NAME>  (202) 
ASP   LYS

>  <FRAG_NAME>  (202) 
ACET   PRPA

>  <FRAG_ATOM_NUM>  (202) 
fragi: 7  fragj: 11

>  <atom.prop.CHAIN_ID>  (202) 
A A A A A A A Z Z Z Z Z Z Z Z Z Z Z

>  <atom.prop.IS_HEAVY_ATOM>  (202) 
1 0 0 0 1 1 1 1 0 0 0 1 0 0 1 0 0 0

>  <DIFUSE_FUNC_ATOM>  (202) 
atom 6   atom 7   

>  <FINAL_SINGLE_POINT_ENERGY>  (202) 
0

>  <NONCOV_INTER_ENERGY_QM>  (202) 
0

>  <FF_Energy>  (202) 
48.79

>  <QM_Energy>  (202) 
6.47

>  <source>  (202) 
ACET_PRPA_02

>  <Index>  (202) 
2682

$$$$
ACET-pdb1d9e-C-GLU-3223:PRPA-pdb1d9e-C-GLN-3220
     RDKit          3D

 18 16  0  0  0  0  0  0  0  0999 V2000
   -0.0019    1.5382   -0.0329 C   0  0  0  0  0  0  0  0  0  0  0  0
   -0.1357    1.8024   -0.9682 H   0  0  0  0  0  0  0  0  0  0  0  0
    0.8659    1.8309    0.3206 H   0  0  0  0  0  0  0  0  0  0  0  0
   -0.7976    1.9694    0.5746 H   0  0  0  0  0  0  0  0  0  0  0  0
    0.0000    0.0000    0.0000 C   0  0  0  0  0  0  0  0  0  0  0  0
   -1.1007   -0.5970   -0.0000 O   0  0  0  0  0  1  0  0  0  0  0  0
    1.1007   -0.6091   -0.0000 O   0  0  0  0  0  0  0  0  0  0  0  0
    1.1867    2.2855   -3.9690 C   0  0  0  0  0  0  0  0  0  0  0  0
    0.1838    2.0545   -4.0102 H   0  0  0  0  0  0  0  0  0  0  0  0
    1.5930    2.1605   -4.9726 H   0  0  0  0  0  0  0  0  0  0  0  0
    1.2791    3.2807   -3.5340 H   0  0  0  0  0  0  0  0  0  0  0  0
    1.7182    1.2182   -3.0321 C   0  0  0  0  0  0  0  0  0  0  0  0
    2.4827    0.7758   -3.4469 H   0  0  0  0  0  0  0  0  0  0  0  0
    1.9242    1.6210   -2.1664 H   0  0  0  0  0  0  0  0  0  0  0  0
    0.6159    0.2029   -2.8425 C   0  0  0  0  0  0  0  0  0  0  0  0
    0.7523   -0.5527   -3.4645 H   0  0  0  0  0  0  0  0  0  0  0  0
    0.6052   -0.1022   -1.9020 H   0  0  0  0  0  0  0  0  0  0  0  0
   -0.3527    0.6511   -3.0638 H   0  0  0  0  0  0  0  0  0  0  0  0
  1  5  1  0
  5  6  1  0
  5  7  2  0
  1  2  1  0
  1  3  1  0
  1  4  1  0
  8 12  1  0
 12 15  1  0
  8  9  1  0
  8 10  1  0
  8 11  1  0
 12 13  1  0
 12 14  1  0
 15 16  1  0
 15 17  1  0
 15 18  1  0
M  CHG  1   6  -1
M  END
>  <PDB_ID>  (203) 
pdb1d9e

>  <RESIDUE_NAME>  (203) 
GLU   GLN

>  <FRAG_NAME>  (203) 
ACET   PRPA

>  <FRAG_ATOM_NUM>  (203) 
fragi: 7  fragj: 11

>  <atom.prop.CHAIN_ID>  (203) 
A A A A A A A Z Z Z Z Z Z Z Z Z Z Z

>  <atom.prop.IS_HEAVY_ATOM>  (203) 
1 0 0 0 1 1 1 1 0 0 0 1 0 0 1 0 0 0

>  <DIFUSE_FUNC_ATOM>  (203) 
atom 6   atom 7   

>  <FINAL_SINGLE_POINT_ENERGY>  (203) 
0

>  <NONCOV_INTER_ENERGY_QM>  (203) 
0

>  <FF_Energy>  (203) 
27.67

>  <QM_Energy>  (203) 
1.32

>  <source>  (203) 
ACET_PRPA_02

>  <Index>  (203) 
2785

$$$$
ACET-pdb1dqe-B-GLU-47:PRPA-pdb1dqe-B-LEU-25
     RDKit          3D

 18 16  0  0  0  0  0  0  0  0999 V2000
    0.1100    1.5088   -0.1095 C   0  0  0  0  0  0  0  0  0  0  0  0
    0.8599    1.7960    0.4025 H   0  0  0  0  0  0  0  0  0  0  0  0
   -0.7401    1.8894    0.0892 H   0  0  0  0  0  0  0  0  0  0  0  0
    0.3282    1.7165   -1.1571 H   0  0  0  0  0  0  0  0  0  0  0  0
    0.0000    0.0000    0.0000 C   0  0  0  0  0  0  0  0  0  0  0  0
   -1.1187   -0.5370    0.0000 O   0  0  0  0  0  1  0  0  0  0  0  0
    1.1187   -0.5660   -0.0000 O   0  0  0  0  0  0  0  0  0  0  0  0
    3.5328   -1.4999   -0.7973 C   0  0  0  0  0  0  0  0  0  0  0  0
    2.7329   -1.0724   -0.3055 H   0  0  0  0  0  0  0  0  0  0  0  0
    4.3442   -1.6426   -0.0837 H   0  0  0  0  0  0  0  0  0  0  0  0
    3.1483   -2.3778   -1.3165 H   0  0  0  0  0  0  0  0  0  0  0  0
    3.8586   -0.4214   -1.8532 C   0  0  0  0  0  0  0  0  0  0  0  0
    4.5886   -0.7764   -2.4333 H   0  0  0  0  0  0  0  0  0  0  0  0
    3.0365   -0.2691   -2.3942 H   0  0  0  0  0  0  0  0  0  0  0  0
    4.3226    0.9541   -1.3286 C   0  0  0  0  0  0  0  0  0  0  0  0
    5.2710    0.8872   -1.0487 H   0  0  0  0  0  0  0  0  0  0  0  0
    4.2293    1.6889   -2.1283 H   0  0  0  0  0  0  0  0  0  0  0  0
    3.7594    1.3445   -0.4809 H   0  0  0  0  0  0  0  0  0  0  0  0
  1  5  1  0
  5  6  1  0
  5  7  2  0
  1  2  1  0
  1  3  1  0
  1  4  1  0
  8 12  1  0
 12 15  1  0
  8  9  1  0
  8 10  1  0
  8 11  1  0
 12 13  1  0
 12 14  1  0
 15 16  1  0
 15 17  1  0
 15 18  1  0
M  CHG  1   6  -1
M  END
>  <PDB_ID>  (204) 
pdb1dqe

>  <RESIDUE_NAME>  (204) 
GLU   LEU

>  <FRAG_NAME>  (204) 
ACET   PRPA

>  <FRAG_ATOM_NUM>  (204) 
fragi: 7  fragj: 11

>  <atom.prop.CHAIN_ID>  (204) 
A A A A A A A Z Z Z Z Z Z Z Z Z Z Z

>  <atom.prop.IS_HEAVY_ATOM>  (204) 
1 0 0 0 1 1 1 1 0 0 0 1 0 0 1 0 0 0

>  <DIFUSE_FUNC_ATOM>  (204) 
atom 6   atom 7   

>  <FINAL_SINGLE_POINT_ENERGY>  (204) 
0

>  <NONCOV_INTER_ENERGY_QM>  (204) 
0

>  <FF_Energy>  (204) 
48.72

>  <QM_Energy>  (204) 
0.71

>  <source>  (204) 
ACET_PRPA_02

>  <Index>  (204) 
3224

$$$$
ACET-pdb1dt1-A-GLU-59:PRPA-pdb1dt1-A-LYS-64
     RDKit          3D

 18 16  0  0  0  0  0  0  0  0999 V2000
   -0.0005    1.5226   -0.0133 C   0  0  0  0  0  0  0  0  0  0  0  0
    0.8955    1.8137   -0.2662 H   0  0  0  0  0  0  0  0  0  0  0  0
   -0.2718    1.8231    0.8738 H   0  0  0  0  0  0  0  0  0  0  0  0
   -0.7108    1.9073   -0.7451 H   0  0  0  0  0  0  0  0  0  0  0  0
    0.0000    0.0000    0.0000 C   0  0  0  0  0  0  0  0  0  0  0  0
   -1.0935   -0.6029    0.0000 O   0  0  0  0  0  1  0  0  0  0  0  0
    1.0935   -0.6018    0.0000 O   0  0  0  0  0  0  0  0  0  0  0  0
   -3.5408    2.8800    3.0243 C   0  0  0  0  0  0  0  0  0  0  0  0
   -3.7005    2.1322    3.6705 H   0  0  0  0  0  0  0  0  0  0  0  0
   -4.4067    3.1373    2.5944 H   0  0  0  0  0  0  0  0  0  0  0  0
   -3.1404    3.7384    3.5637 H   0  0  0  0  0  0  0  0  0  0  0  0
   -2.5816    2.4002    1.9469 C   0  0  0  0  0  0  0  0  0  0  0  0
   -2.8260    2.8324    1.0823 H   0  0  0  0  0  0  0  0  0  0  0  0
   -1.6526    2.6549    2.2048 H   0  0  0  0  0  0  0  0  0  0  0  0
   -2.6370    0.8924    1.7669 C   0  0  0  0  0  0  0  0  0  0  0  0
   -1.9892    0.6272    1.0402 H   0  0  0  0  0  0  0  0  0  0  0  0
   -2.3403    0.4503    2.6249 H   0  0  0  0  0  0  0  0  0  0  0  0
   -3.6310    0.5289    1.5065 H   0  0  0  0  0  0  0  0  0  0  0  0
  1  5  1  0
  5  6  1  0
  5  7  2  0
  1  2  1  0
  1  3  1  0
  1  4  1  0
  8 12  1  0
 12 15  1  0
  8  9  1  0
  8 10  1  0
  8 11  1  0
 12 13  1  0
 12 14  1  0
 15 16  1  0
 15 17  1  0
 15 18  1  0
M  CHG  1   6  -1
M  END
>  <PDB_ID>  (205) 
pdb1dt1

>  <RESIDUE_NAME>  (205) 
GLU   LYS

>  <FRAG_NAME>  (205) 
ACET   PRPA

>  <FRAG_ATOM_NUM>  (205) 
fragi: 7  fragj: 11

>  <atom.prop.CHAIN_ID>  (205) 
A A A A A A A Z Z Z Z Z Z Z Z Z Z Z

>  <atom.prop.IS_HEAVY_ATOM>  (205) 
1 0 0 0 1 1 1 1 0 0 0 1 0 0 1 0 0 0

>  <DIFUSE_FUNC_ATOM>  (205) 
atom 6   atom 7   

>  <FINAL_SINGLE_POINT_ENERGY>  (205) 
0

>  <NONCOV_INTER_ENERGY_QM>  (205) 
0

>  <FF_Energy>  (205) 
26.29

>  <QM_Energy>  (205) 
3.06

>  <source>  (205) 
ACET_PRPA_02

>  <Index>  (205) 
3732

$$$$
ACET-pdb1dp4-A-ASP-160:PRPA-pdb1dp4-A-ARG-157
     RDKit          3D

 18 16  0  0  0  0  0  0  0  0999 V2000
   -0.0086    1.5128    0.0061 C   0  0  0  0  0  0  0  0  0  0  0  0
   -0.2547    1.8351   -0.8993 H   0  0  0  0  0  0  0  0  0  0  0  0
    0.8929    1.8374    0.2617 H   0  0  0  0  0  0  0  0  0  0  0  0
   -0.7292    1.9173    0.7167 H   0  0  0  0  0  0  0  0  0  0  0  0
    0.0000    0.0000    0.0000 C   0  0  0  0  0  0  0  0  0  0  0  0
   -1.1036   -0.5980   -0.0000 O   0  0  0  0  0  1  0  0  0  0  0  0
    1.1036   -0.5859   -0.0000 O   0  0  0  0  0  0  0  0  0  0  0  0
    2.6939   -3.0616    1.7441 C   0  0  0  0  0  0  0  0  0  0  0  0
    3.5074   -3.6461    1.8386 H   0  0  0  0  0  0  0  0  0  0  0  0
    2.0836   -3.4404    0.9242 H   0  0  0  0  0  0  0  0  0  0  0  0
    2.1392   -3.0823    2.6822 H   0  0  0  0  0  0  0  0  0  0  0  0
    3.1633   -1.6316    1.4707 C   0  0  0  0  0  0  0  0  0  0  0  0
    2.3702   -1.0933    1.1982 H   0  0  0  0  0  0  0  0  0  0  0  0
    3.5477   -1.2666    2.3140 H   0  0  0  0  0  0  0  0  0  0  0  0
    4.2067   -1.5254    0.3865 C   0  0  0  0  0  0  0  0  0  0  0  0
    4.7558   -2.3551    0.3616 H   0  0  0  0  0  0  0  0  0  0  0  0
    3.7672   -1.3771   -0.4948 H   0  0  0  0  0  0  0  0  0  0  0  0
    4.8781   -0.6862    0.5684 H   0  0  0  0  0  0  0  0  0  0  0  0
  1  5  1  0
  5  6  1  0
  5  7  2  0
  1  2  1  0
  1  3  1  0
  1  4  1  0
  8 12  1  0
 12 15  1  0
  8  9  1  0
  8 10  1  0
  8 11  1  0
 12 13  1  0
 12 14  1  0
 15 16  1  0
 15 17  1  0
 15 18  1  0
M  CHG  1   6  -1
M  END
>  <PDB_ID>  (206) 
pdb1dp4

>  <RESIDUE_NAME>  (206) 
ASP   ARG

>  <FRAG_NAME>  (206) 
ACET   PRPA

>  <FRAG_ATOM_NUM>  (206) 
fragi: 7  fragj: 11

>  <atom.prop.CHAIN_ID>  (206) 
A A A A A A A Z Z Z Z Z Z Z Z Z Z Z

>  <atom.prop.IS_HEAVY_ATOM>  (206) 
1 0 0 0 1 1 1 1 0 0 0 1 0 0 1 0 0 0

>  <DIFUSE_FUNC_ATOM>  (206) 
atom 6   atom 7   

>  <FINAL_SINGLE_POINT_ENERGY>  (206) 
0

>  <NONCOV_INTER_ENERGY_QM>  (206) 
0

>  <FF_Energy>  (206) 
29.88

>  <QM_Energy>  (206) 
-1.08

>  <source>  (206) 
ACET_PRPA_02

>  <Index>  (206) 
5383

$$$$
ACET-pdb1dp4-A-ASP-160:PRPA-pdb1dp4-A-ARG-157
     RDKit          3D

 18 16  0  0  0  0  0  0  0  0999 V2000
   -0.0086    1.5128    0.0061 C   0  0  0  0  0  0  0  0  0  0  0  0
   -0.2547    1.8351   -0.8993 H   0  0  0  0  0  0  0  0  0  0  0  0
    0.8929    1.8374    0.2617 H   0  0  0  0  0  0  0  0  0  0  0  0
   -0.7292    1.9173    0.7167 H   0  0  0  0  0  0  0  0  0  0  0  0
    0.0000    0.0000    0.0000 C   0  0  0  0  0  0  0  0  0  0  0  0
   -1.1036   -0.5980   -0.0000 O   0  0  0  0  0  1  0  0  0  0  0  0
    1.1036   -0.5859   -0.0000 O   0  0  0  0  0  0  0  0  0  0  0  0
    3.1633   -1.6316    1.4707 C   0  0  0  0  0  0  0  0  0  0  0  0
    2.3702   -1.0933    1.1982 H   0  0  0  0  0  0  0  0  0  0  0  0
    3.5477   -1.2666    2.3140 H   0  0  0  0  0  0  0  0  0  0  0  0
    2.8288   -2.6505    1.6655 H   0  0  0  0  0  0  0  0  0  0  0  0
    4.2067   -1.5254    0.3865 C   0  0  0  0  0  0  0  0  0  0  0  0
    4.7558   -2.3551    0.3616 H   0  0  0  0  0  0  0  0  0  0  0  0
    3.7672   -1.3771   -0.4948 H   0  0  0  0  0  0  0  0  0  0  0  0
    5.1479   -0.3490    0.6414 C   0  0  0  0  0  0  0  0  0  0  0  0
    4.6248    0.4892    0.5391 H   0  0  0  0  0  0  0  0  0  0  0  0
    5.4974   -0.4325    1.5683 H   0  0  0  0  0  0  0  0  0  0  0  0
    5.9813   -0.3447   -0.0611 H   0  0  0  0  0  0  0  0  0  0  0  0
  1  5  1  0
  5  6  1  0
  5  7  2  0
  1  2  1  0
  1  3  1  0
  1  4  1  0
  8 12  1  0
 12 15  1  0
  8  9  1  0
  8 10  1  0
  8 11  1  0
 12 13  1  0
 12 14  1  0
 15 16  1  0
 15 17  1  0
 15 18  1  0
M  CHG  1   6  -1
M  END
>  <PDB_ID>  (207) 
pdb1dp4

>  <RESIDUE_NAME>  (207) 
ASP   ARG

>  <FRAG_NAME>  (207) 
ACET   PRPA

>  <FRAG_ATOM_NUM>  (207) 
fragi: 7  fragj: 11

>  <atom.prop.CHAIN_ID>  (207) 
A A A A A A A Z Z Z Z Z Z Z Z Z Z Z

>  <atom.prop.IS_HEAVY_ATOM>  (207) 
1 0 0 0 1 1 1 1 0 0 0 1 0 0 1 0 0 0

>  <DIFUSE_FUNC_ATOM>  (207) 
atom 6   atom 7   

>  <FINAL_SINGLE_POINT_ENERGY>  (207) 
0

>  <NONCOV_INTER_ENERGY_QM>  (207) 
0

>  <FF_Energy>  (207) 
25.63

>  <QM_Energy>  (207) 
-0.64

>  <source>  (207) 
ACET_PRPA_02

>  <Index>  (207) 
5386

$$$$
ACET-pdb2dym-G-GLU-233:PRPA-pdb2dym-G-LYS-230
     RDKit          3D

 18 16  0  0  0  0  0  0  0  0999 V2000
    0.1673    1.4839    0.0137 C   0  0  0  0  0  0  0  0  0  0  0  0
    0.6877    1.7427   -0.8030 H   0  0  0  0  0  0  0  0  0  0  0  0
    0.6995    1.7247    0.8296 H   0  0  0  0  0  0  0  0  0  0  0  0
   -0.7430    2.0833    0.0261 H   0  0  0  0  0  0  0  0  0  0  0  0
    0.0000    0.0000    0.0000 C   0  0  0  0  0  0  0  0  0  0  0  0
   -1.0899   -0.5594   -0.0000 O   0  0  0  0  0  1  0  0  0  0  0  0
    1.0899   -0.6045   -0.0000 O   0  0  0  0  0  0  0  0  0  0  0  0
    2.9833    1.3073    1.3225 C   0  0  0  0  0  0  0  0  0  0  0  0
    2.3341    1.2807    0.5546 H   0  0  0  0  0  0  0  0  0  0  0  0
    3.8489    1.9042    1.0353 H   0  0  0  0  0  0  0  0  0  0  0  0
    2.4826    1.7453    2.1859 H   0  0  0  0  0  0  0  0  0  0  0  0
    3.4137   -0.1240    1.6399 C   0  0  0  0  0  0  0  0  0  0  0  0
    4.0651   -0.0939    2.4002 H   0  0  0  0  0  0  0  0  0  0  0  0
    2.6022   -0.6382    1.9252 H   0  0  0  0  0  0  0  0  0  0  0  0
    4.0676   -0.8696    0.4852 C   0  0  0  0  0  0  0  0  0  0  0  0
    3.4213   -0.9132   -0.2810 H   0  0  0  0  0  0  0  0  0  0  0  0
    4.8861   -0.3686    0.1953 H   0  0  0  0  0  0  0  0  0  0  0  0
    4.3530   -1.8838    0.7648 H   0  0  0  0  0  0  0  0  0  0  0  0
  1  5  1  0
  5  6  1  0
  5  7  2  0
  1  2  1  0
  1  3  1  0
  1  4  1  0
  8 12  1  0
 12 15  1  0
  8  9  1  0
  8 10  1  0
  8 11  1  0
 12 13  1  0
 12 14  1  0
 15 16  1  0
 15 17  1  0
 15 18  1  0
M  CHG  1   6  -1
M  END
>  <PDB_ID>  (208) 
pdb2dym

>  <RESIDUE_NAME>  (208) 
GLU   LYS

>  <FRAG_NAME>  (208) 
ACET   PRPA

>  <FRAG_ATOM_NUM>  (208) 
fragi: 7  fragj: 11

>  <atom.prop.CHAIN_ID>  (208) 
A A A A A A A Z Z Z Z Z Z Z Z Z Z Z

>  <atom.prop.IS_HEAVY_ATOM>  (208) 
1 0 0 0 1 1 1 1 0 0 0 1 0 0 1 0 0 0

>  <DIFUSE_FUNC_ATOM>  (208) 
atom 6   atom 7   

>  <FINAL_SINGLE_POINT_ENERGY>  (208) 
0

>  <NONCOV_INTER_ENERGY_QM>  (208) 
0

>  <FF_Energy>  (208) 
17.66

>  <QM_Energy>  (208) 
0.86

>  <source>  (208) 
ACET_PRPA_02

>  <Index>  (208) 
5956

$$$$
ACET-pdb1dr0-A-ASP-78:PRPA-pdb1dr0-A-PRO-75
     RDKit          3D

 18 16  0  0  0  0  0  0  0  0999 V2000
   -0.0020    1.5059   -0.0108 C   0  0  0  0  0  0  0  0  0  0  0  0
   -0.4158    1.8248   -0.8582 H   0  0  0  0  0  0  0  0  0  0  0  0
    0.9346    1.8333    0.0603 H   0  0  0  0  0  0  0  0  0  0  0  0
   -0.5676    1.9356    0.8159 H   0  0  0  0  0  0  0  0  0  0  0  0
    0.0000    0.0000    0.0000 C   0  0  0  0  0  0  0  0  0  0  0  0
   -1.0958   -0.5889    0.0000 O   0  0  0  0  0  1  0  0  0  0  0  0
    1.0958   -0.5967    0.0000 O   0  0  0  0  0  0  0  0  0  0  0  0
    0.4157   -3.1062    0.7473 C   0  0  0  0  0  0  0  0  0  0  0  0
    0.4800   -2.3737    0.0467 H   0  0  0  0  0  0  0  0  0  0  0  0
    1.3359   -3.1625    1.3288 H   0  0  0  0  0  0  0  0  0  0  0  0
   -0.4686   -2.9637    1.3685 H   0  0  0  0  0  0  0  0  0  0  0  0
    0.3914   -4.4364    0.0011 C   0  0  0  0  0  0  0  0  0  0  0  0
   -0.1259   -5.1237    0.5133 H   0  0  0  0  0  0  0  0  0  0  0  0
   -0.0105   -4.3289   -0.9086 H   0  0  0  0  0  0  0  0  0  0  0  0
    1.8380   -4.8252   -0.0986 C   0  0  0  0  0  0  0  0  0  0  0  0
    1.9222   -5.8212   -0.2051 H   0  0  0  0  0  0  0  0  0  0  0  0
    2.2617   -4.3802   -0.8941 H   0  0  0  0  0  0  0  0  0  0  0  0
    2.2903   -4.4865    0.8335 H   0  0  0  0  0  0  0  0  0  0  0  0
  1  5  1  0
  5  6  1  0
  5  7  2  0
  1  2  1  0
  1  3  1  0
  1  4  1  0
  8 12  1  0
 12 15  1  0
  8  9  1  0
  8 10  1  0
  8 11  1  0
 12 13  1  0
 12 14  1  0
 15 16  1  0
 15 17  1  0
 15 18  1  0
M  CHG  1   6  -1
M  END
>  <PDB_ID>  (209) 
pdb1dr0

>  <RESIDUE_NAME>  (209) 
ASP   PRO

>  <FRAG_NAME>  (209) 
ACET   PRPA

>  <FRAG_ATOM_NUM>  (209) 
fragi: 7  fragj: 11

>  <atom.prop.CHAIN_ID>  (209) 
A A A A A A A Z Z Z Z Z Z Z Z Z Z Z

>  <atom.prop.IS_HEAVY_ATOM>  (209) 
1 0 0 0 1 1 1 1 0 0 0 1 0 0 1 0 0 0

>  <DIFUSE_FUNC_ATOM>  (209) 
atom 6   atom 7   

>  <FINAL_SINGLE_POINT_ENERGY>  (209) 
0

>  <NONCOV_INTER_ENERGY_QM>  (209) 
0

>  <FF_Energy>  (209) 
20.45

>  <QM_Energy>  (209) 
3.84

>  <source>  (209) 
ACET_PRPA_02

>  <Index>  (209) 
5962

$$$$
ACET-pdb1do8-A-GLU-93:PRPA-pdb1do8-A-ARG-33
     RDKit          3D

 18 16  0  0  0  0  0  0  0  0999 V2000
   -0.0137    1.5039   -0.0133 C   0  0  0  0  0  0  0  0  0  0  0  0
    0.8194    1.8139    0.3985 H   0  0  0  0  0  0  0  0  0  0  0  0
   -0.8111    1.7984    0.4748 H   0  0  0  0  0  0  0  0  0  0  0  0
   -0.0639    1.8898   -1.0316 H   0  0  0  0  0  0  0  0  0  0  0  0
    0.0000    0.0000    0.0000 C   0  0  0  0  0  0  0  0  0  0  0  0
   -1.0870   -0.5971    0.0000 O   0  0  0  0  0  1  0  0  0  0  0  0
    1.0870   -0.6027   -0.0000 O   0  0  0  0  0  0  0  0  0  0  0  0
    2.3117   -1.9561   -3.7666 C   0  0  0  0  0  0  0  0  0  0  0  0
    1.3951   -2.3484   -3.7197 H   0  0  0  0  0  0  0  0  0  0  0  0
    2.7776   -2.2881   -4.5845 H   0  0  0  0  0  0  0  0  0  0  0  0
    2.2151   -0.8733   -3.8454 H   0  0  0  0  0  0  0  0  0  0  0  0
    3.0919   -2.4360   -2.5541 C   0  0  0  0  0  0  0  0  0  0  0  0
    3.5657   -3.2865   -2.7777 H   0  0  0  0  0  0  0  0  0  0  0  0
    3.7579   -1.7403   -2.2898 H   0  0  0  0  0  0  0  0  0  0  0  0
    2.1874   -2.6997   -1.3572 C   0  0  0  0  0  0  0  0  0  0  0  0
    2.7703   -2.9421   -0.5770 H   0  0  0  0  0  0  0  0  0  0  0  0
    1.6995   -1.8483   -1.1469 H   0  0  0  0  0  0  0  0  0  0  0  0
    1.4621   -3.4965   -1.5220 H   0  0  0  0  0  0  0  0  0  0  0  0
  1  5  1  0
  5  6  1  0
  5  7  2  0
  1  2  1  0
  1  3  1  0
  1  4  1  0
  8 12  1  0
 12 15  1  0
  8  9  1  0
  8 10  1  0
  8 11  1  0
 12 13  1  0
 12 14  1  0
 15 16  1  0
 15 17  1  0
 15 18  1  0
M  CHG  1   6  -1
M  END
>  <PDB_ID>  (210) 
pdb1do8

>  <RESIDUE_NAME>  (210) 
GLU   ARG

>  <FRAG_NAME>  (210) 
ACET   PRPA

>  <FRAG_ATOM_NUM>  (210) 
fragi: 7  fragj: 11

>  <atom.prop.CHAIN_ID>  (210) 
A A A A A A A Z Z Z Z Z Z Z Z Z Z Z

>  <atom.prop.IS_HEAVY_ATOM>  (210) 
1 0 0 0 1 1 1 1 0 0 0 1 0 0 1 0 0 0

>  <DIFUSE_FUNC_ATOM>  (210) 
atom 6   atom 7   

>  <FINAL_SINGLE_POINT_ENERGY>  (210) 
0

>  <NONCOV_INTER_ENERGY_QM>  (210) 
0

>  <FF_Energy>  (210) 
28.06

>  <QM_Energy>  (210) 
1.62

>  <source>  (210) 
ACET_PRPA_02

>  <Index>  (210) 
6048

$$$$
ACET-pdb2ea7-A-GLU-319:PRPA-pdb2ea7-A-GLN-308
     RDKit          3D

 18 16  0  0  0  0  0  0  0  0999 V2000
   -0.0045    1.5149   -0.0164 C   0  0  0  0  0  0  0  0  0  0  0  0
   -0.2774    1.8022   -0.9131 H   0  0  0  0  0  0  0  0  0  0  0  0
    0.8981    1.8172    0.2185 H   0  0  0  0  0  0  0  0  0  0  0  0
   -0.7067    1.9318    0.7055 H   0  0  0  0  0  0  0  0  0  0  0  0
    0.0000    0.0000    0.0000 C   0  0  0  0  0  0  0  0  0  0  0  0
   -1.0973   -0.5966    0.0000 O   0  0  0  0  0  1  0  0  0  0  0  0
    1.0973   -0.5953   -0.0000 O   0  0  0  0  0  0  0  0  0  0  0  0
    4.7367    0.3401    3.5059 C   0  0  0  0  0  0  0  0  0  0  0  0
    4.4184   -0.1359    4.3459 H   0  0  0  0  0  0  0  0  0  0  0  0
    4.4708    1.3930    3.5997 H   0  0  0  0  0  0  0  0  0  0  0  0
    5.8089    0.1660    3.4147 H   0  0  0  0  0  0  0  0  0  0  0  0
    4.0258   -0.2616    2.2929 C   0  0  0  0  0  0  0  0  0  0  0  0
    4.3689    0.1862    1.4649 H   0  0  0  0  0  0  0  0  0  0  0  0
    4.2375   -1.2407    2.2490 H   0  0  0  0  0  0  0  0  0  0  0  0
    2.5145   -0.1062    2.3237 C   0  0  0  0  0  0  0  0  0  0  0  0
    2.2938    0.8593    2.4687 H   0  0  0  0  0  0  0  0  0  0  0  0
    2.1438   -0.4031    1.4431 H   0  0  0  0  0  0  0  0  0  0  0  0
    2.0451   -0.6916    3.1143 H   0  0  0  0  0  0  0  0  0  0  0  0
  1  5  1  0
  5  6  1  0
  5  7  2  0
  1  2  1  0
  1  3  1  0
  1  4  1  0
  8 12  1  0
 12 15  1  0
  8  9  1  0
  8 10  1  0
  8 11  1  0
 12 13  1  0
 12 14  1  0
 15 16  1  0
 15 17  1  0
 15 18  1  0
M  CHG  1   6  -1
M  END
>  <PDB_ID>  (211) 
pdb2ea7

>  <RESIDUE_NAME>  (211) 
GLU   GLN

>  <FRAG_NAME>  (211) 
ACET   PRPA

>  <FRAG_ATOM_NUM>  (211) 
fragi: 7  fragj: 11

>  <atom.prop.CHAIN_ID>  (211) 
A A A A A A A Z Z Z Z Z Z Z Z Z Z Z

>  <atom.prop.IS_HEAVY_ATOM>  (211) 
1 0 0 0 1 1 1 1 0 0 0 1 0 0 1 0 0 0

>  <DIFUSE_FUNC_ATOM>  (211) 
atom 6   atom 7   

>  <FINAL_SINGLE_POINT_ENERGY>  (211) 
0

>  <NONCOV_INTER_ENERGY_QM>  (211) 
0

>  <FF_Energy>  (211) 
28.62

>  <QM_Energy>  (211) 
0.99

>  <source>  (211) 
ACET_PRPA_02

>  <Index>  (211) 
6225

$$$$
ACET-pdb1e12-A-GLU-25:PRPA-pdb1e12-A-LEU-28
     RDKit          3D

 18 16  0  0  0  0  0  0  0  0999 V2000
    0.1544    1.4842    0.0140 C   0  0  0  0  0  0  0  0  0  0  0  0
    0.6748    1.7481   -0.8037 H   0  0  0  0  0  0  0  0  0  0  0  0
    0.6857    1.7306    0.8293 H   0  0  0  0  0  0  0  0  0  0  0  0
   -0.7572    2.0817    0.0255 H   0  0  0  0  0  0  0  0  0  0  0  0
    0.0000    0.0000    0.0000 C   0  0  0  0  0  0  0  0  0  0  0  0
   -1.0902   -0.5642   -0.0000 O   0  0  0  0  0  1  0  0  0  0  0  0
    1.0902   -0.5975   -0.0000 O   0  0  0  0  0  0  0  0  0  0  0  0
   -2.6139    1.6764   -3.2334 C   0  0  0  0  0  0  0  0  0  0  0  0
   -1.6539    1.9582   -3.4292 H   0  0  0  0  0  0  0  0  0  0  0  0
   -2.7639    1.8283   -2.2382 H   0  0  0  0  0  0  0  0  0  0  0  0
   -3.2671    2.3670   -3.7666 H   0  0  0  0  0  0  0  0  0  0  0  0
   -2.6967    0.1801   -3.4750 C   0  0  0  0  0  0  0  0  0  0  0  0
   -3.6458   -0.1145   -3.4159 H   0  0  0  0  0  0  0  0  0  0  0  0
   -2.3149   -0.0501   -4.4697 H   0  0  0  0  0  0  0  0  0  0  0  0
   -1.8548   -0.5196   -2.4304 C   0  0  0  0  0  0  0  0  0  0  0  0
   -2.2006   -0.3029   -1.5148 H   0  0  0  0  0  0  0  0  0  0  0  0
   -1.8954   -1.5112   -2.5712 H   0  0  0  0  0  0  0  0  0  0  0  0
   -0.9029   -0.2154   -2.5025 H   0  0  0  0  0  0  0  0  0  0  0  0
  1  5  1  0
  5  6  1  0
  5  7  2  0
  1  2  1  0
  1  3  1  0
  1  4  1  0
  8 12  1  0
 12 15  1  0
  8  9  1  0
  8 10  1  0
  8 11  1  0
 12 13  1  0
 12 14  1  0
 15 16  1  0
 15 17  1  0
 15 18  1  0
M  CHG  1   6  -1
M  END
>  <PDB_ID>  (212) 
pdb1e12

>  <RESIDUE_NAME>  (212) 
GLU   LEU

>  <FRAG_NAME>  (212) 
ACET   PRPA

>  <FRAG_ATOM_NUM>  (212) 
fragi: 7  fragj: 11

>  <atom.prop.CHAIN_ID>  (212) 
A A A A A A A Z Z Z Z Z Z Z Z Z Z Z

>  <atom.prop.IS_HEAVY_ATOM>  (212) 
1 0 0 0 1 1 1 1 0 0 0 1 0 0 1 0 0 0

>  <DIFUSE_FUNC_ATOM>  (212) 
atom 6   atom 7   

>  <FINAL_SINGLE_POINT_ENERGY>  (212) 
0

>  <NONCOV_INTER_ENERGY_QM>  (212) 
0

>  <FF_Energy>  (212) 
21.39

>  <QM_Energy>  (212) 
3.86

>  <source>  (212) 
ACET_PRPA_02

>  <Index>  (212) 
8258

$$$$
ACET-pdb2dy3-D-GLU-239:PRPA-pdb2dy3-D-LYS-323
     RDKit          3D

 18 16  0  0  0  0  0  0  0  0999 V2000
   -0.0018    1.5238    0.0113 C   0  0  0  0  0  0  0  0  0  0  0  0
   -0.3299    1.8100    0.8920 H   0  0  0  0  0  0  0  0  0  0  0  0
   -0.5863    1.8207   -0.7198 H   0  0  0  0  0  0  0  0  0  0  0  0
    0.9910    1.9464   -0.1429 H   0  0  0  0  0  0  0  0  0  0  0  0
    0.0000    0.0000    0.0000 C   0  0  0  0  0  0  0  0  0  0  0  0
   -1.0932   -0.5984    0.0000 O   0  0  0  0  0  1  0  0  0  0  0  0
    1.0932   -0.6002    0.0000 O   0  0  0  0  0  0  0  0  0  0  0  0
    1.5693   -0.9180   -3.2318 C   0  0  0  0  0  0  0  0  0  0  0  0
    2.3746   -0.5110   -2.7984 H   0  0  0  0  0  0  0  0  0  0  0  0
    0.8491   -0.2267   -3.3072 H   0  0  0  0  0  0  0  0  0  0  0  0
    1.8363   -1.2705   -4.2281 H   0  0  0  0  0  0  0  0  0  0  0  0
    1.0641   -2.0548   -2.3504 C   0  0  0  0  0  0  0  0  0  0  0  0
    0.5934   -1.6667   -1.5643 H   0  0  0  0  0  0  0  0  0  0  0  0
    0.4406   -2.6208   -2.8809 H   0  0  0  0  0  0  0  0  0  0  0  0
    2.2056   -2.9318   -1.8472 C   0  0  0  0  0  0  0  0  0  0  0  0
    2.6739   -3.3386   -2.6332 H   0  0  0  0  0  0  0  0  0  0  0  0
    2.8531   -2.3621   -1.3383 H   0  0  0  0  0  0  0  0  0  0  0  0
    1.8444   -3.7280   -1.1963 H   0  0  0  0  0  0  0  0  0  0  0  0
  1  5  1  0
  5  6  1  0
  5  7  2  0
  1  2  1  0
  1  3  1  0
  1  4  1  0
  8 12  1  0
 12 15  1  0
  8  9  1  0
  8 10  1  0
  8 11  1  0
 12 13  1  0
 12 14  1  0
 15 16  1  0
 15 17  1  0
 15 18  1  0
M  CHG  1   6  -1
M  END
>  <PDB_ID>  (213) 
pdb2dy3

>  <RESIDUE_NAME>  (213) 
GLU   LYS

>  <FRAG_NAME>  (213) 
ACET   PRPA

>  <FRAG_ATOM_NUM>  (213) 
fragi: 7  fragj: 11

>  <atom.prop.CHAIN_ID>  (213) 
A A A A A A A Z Z Z Z Z Z Z Z Z Z Z

>  <atom.prop.IS_HEAVY_ATOM>  (213) 
1 0 0 0 1 1 1 1 0 0 0 1 0 0 1 0 0 0

>  <DIFUSE_FUNC_ATOM>  (213) 
atom 6   atom 7   

>  <FINAL_SINGLE_POINT_ENERGY>  (213) 
0

>  <NONCOV_INTER_ENERGY_QM>  (213) 
0

>  <FF_Energy>  (213) 
15.22

>  <QM_Energy>  (213) 
-2.39

>  <source>  (213) 
ACET_PRPA_02

>  <Index>  (213) 
10059

$$$$
ACET-pdb1dm5-A-GLU-296:PRPA-pdb1dm5-A-LYS-292
     RDKit          3D

 18 16  0  0  0  0  0  0  0  0999 V2000
    0.0109    1.5119    0.0135 C   0  0  0  0  0  0  0  0  0  0  0  0
    0.6615    1.8118   -0.6614 H   0  0  0  0  0  0  0  0  0  0  0  0
    0.2612    1.8010    0.9213 H   0  0  0  0  0  0  0  0  0  0  0  0
   -0.9581    1.9476   -0.2297 H   0  0  0  0  0  0  0  0  0  0  0  0
    0.0000    0.0000    0.0000 C   0  0  0  0  0  0  0  0  0  0  0  0
   -1.0891   -0.6183   -0.0000 O   0  0  0  0  0  1  0  0  0  0  0  0
    1.0891   -0.6104    0.0000 O   0  0  0  0  0  0  0  0  0  0  0  0
   -2.5295   -3.1787    1.0845 C   0  0  0  0  0  0  0  0  0  0  0  0
   -1.7823   -3.2826    0.4316 H   0  0  0  0  0  0  0  0  0  0  0  0
   -2.9175   -4.1664    1.3337 H   0  0  0  0  0  0  0  0  0  0  0  0
   -2.1467   -2.7136    1.9929 H   0  0  0  0  0  0  0  0  0  0  0  0
   -3.6582   -2.3489    0.4837 C   0  0  0  0  0  0  0  0  0  0  0  0
   -4.4954   -2.9239    0.4731 H   0  0  0  0  0  0  0  0  0  0  0  0
   -3.8424   -1.5720    1.1132 H   0  0  0  0  0  0  0  0  0  0  0  0
   -3.4607   -1.7852   -0.9095 C   0  0  0  0  0  0  0  0  0  0  0  0
   -2.5674   -1.3534   -0.9684 H   0  0  0  0  0  0  0  0  0  0  0  0
   -3.5375   -2.5162   -1.5776 H   0  0  0  0  0  0  0  0  0  0  0  0
   -4.2234   -1.0364   -1.1238 H   0  0  0  0  0  0  0  0  0  0  0  0
  1  5  1  0
  5  6  1  0
  5  7  2  0
  1  2  1  0
  1  3  1  0
  1  4  1  0
  8 12  1  0
 12 15  1  0
  8  9  1  0
  8 10  1  0
  8 11  1  0
 12 13  1  0
 12 14  1  0
 15 16  1  0
 15 17  1  0
 15 18  1  0
M  CHG  1   6  -1
M  END
>  <PDB_ID>  (214) 
pdb1dm5

>  <RESIDUE_NAME>  (214) 
GLU   LYS

>  <FRAG_NAME>  (214) 
ACET   PRPA

>  <FRAG_ATOM_NUM>  (214) 
fragi: 7  fragj: 11

>  <atom.prop.CHAIN_ID>  (214) 
A A A A A A A Z Z Z Z Z Z Z Z Z Z Z

>  <atom.prop.IS_HEAVY_ATOM>  (214) 
1 0 0 0 1 1 1 1 0 0 0 1 0 0 1 0 0 0

>  <DIFUSE_FUNC_ATOM>  (214) 
atom 6   atom 7   

>  <FINAL_SINGLE_POINT_ENERGY>  (214) 
0

>  <NONCOV_INTER_ENERGY_QM>  (214) 
0

>  <FF_Energy>  (214) 
15.36

>  <QM_Energy>  (214) 
-2.41

>  <source>  (214) 
ACET_PRPA_02

>  <Index>  (214) 
10112

$$$$
ACET-pdb1e0d-A-GLU-157:PRPA-pdb1e0d-A-ILE-139
     RDKit          3D

 18 16  0  0  0  0  0  0  0  0999 V2000
   -0.0149    1.5316    0.0496 C   0  0  0  0  0  0  0  0  0  0  0  0
   -0.7023    1.8297   -0.5773 H   0  0  0  0  0  0  0  0  0  0  0  0
    0.8830    1.8322   -0.1902 H   0  0  0  0  0  0  0  0  0  0  0  0
   -0.2602    1.8909    1.0490 H   0  0  0  0  0  0  0  0  0  0  0  0
    0.0000    0.0000    0.0000 C   0  0  0  0  0  0  0  0  0  0  0  0
   -1.1250   -0.5938   -0.0000 O   0  0  0  0  0  1  0  0  0  0  0  0
    1.1250   -0.6017    0.0000 O   0  0  0  0  0  0  0  0  0  0  0  0
    1.4269   -1.4136    2.8017 C   0  0  0  0  0  0  0  0  0  0  0  0
    0.8549   -0.7377    2.3692 H   0  0  0  0  0  0  0  0  0  0  0  0
    0.8240   -1.8965    3.5708 H   0  0  0  0  0  0  0  0  0  0  0  0
    2.2514   -0.8449    3.2316 H   0  0  0  0  0  0  0  0  0  0  0  0
    1.8322   -2.4544    1.7632 C   0  0  0  0  0  0  0  0  0  0  0  0
    2.3942   -2.0300    1.0633 H   0  0  0  0  0  0  0  0  0  0  0  0
    2.3463   -3.1829    2.2045 H   0  0  0  0  0  0  0  0  0  0  0  0
    0.6089   -3.1441    1.0210 C   0  0  0  0  0  0  0  0  0  0  0  0
    0.1032   -2.4310    0.5630 H   0  0  0  0  0  0  0  0  0  0  0  0
    0.9831   -3.7929    0.3782 H   0  0  0  0  0  0  0  0  0  0  0  0
    0.0620   -3.5916    1.7103 H   0  0  0  0  0  0  0  0  0  0  0  0
  1  5  1  0
  5  6  1  0
  5  7  2  0
  1  2  1  0
  1  3  1  0
  1  4  1  0
  8 12  1  0
 12 15  1  0
  8  9  1  0
  8 10  1  0
  8 11  1  0
 12 13  1  0
 12 14  1  0
 15 16  1  0
 15 17  1  0
 15 18  1  0
M  CHG  1   6  -1
M  END
>  <PDB_ID>  (215) 
pdb1e0d

>  <RESIDUE_NAME>  (215) 
GLU   ILE

>  <FRAG_NAME>  (215) 
ACET   PRPA

>  <FRAG_ATOM_NUM>  (215) 
fragi: 7  fragj: 11

>  <atom.prop.CHAIN_ID>  (215) 
A A A A A A A Z Z Z Z Z Z Z Z Z Z Z

>  <atom.prop.IS_HEAVY_ATOM>  (215) 
1 0 0 0 1 1 1 1 0 0 0 1 0 0 1 0 0 0

>  <DIFUSE_FUNC_ATOM>  (215) 
atom 6   atom 7   

>  <FINAL_SINGLE_POINT_ENERGY>  (215) 
0

>  <NONCOV_INTER_ENERGY_QM>  (215) 
0

>  <FF_Energy>  (215) 
15.21

>  <QM_Energy>  (215) 
-0.51

>  <source>  (215) 
ACET_PRPA_02

>  <Index>  (215) 
10603

$$$$
ACET-pdb1duv-G-GLU-291:PRPA-pdb1duv-G-LYS-287
     RDKit          3D

 18 16  0  0  0  0  0  0  0  0999 V2000
    0.1905    1.4860    0.0165 C   0  0  0  0  0  0  0  0  0  0  0  0
    0.7090    1.7346   -0.8002 H   0  0  0  0  0  0  0  0  0  0  0  0
    0.7209    1.7150    0.8323 H   0  0  0  0  0  0  0  0  0  0  0  0
   -0.7199    2.0852    0.0288 H   0  0  0  0  0  0  0  0  0  0  0  0
    0.0000    0.0000    0.0000 C   0  0  0  0  0  0  0  0  0  0  0  0
   -1.0891   -0.5530   -0.0000 O   0  0  0  0  0  1  0  0  0  0  0  0
    1.0891   -0.6157   -0.0000 O   0  0  0  0  0  0  0  0  0  0  0  0
    1.7854   -0.7454    2.7999 C   0  0  0  0  0  0  0  0  0  0  0  0
    1.1137   -1.3209    3.2679 H   0  0  0  0  0  0  0  0  0  0  0  0
    1.4893   -0.5936    1.8556 H   0  0  0  0  0  0  0  0  0  0  0  0
    1.8130    0.2207    3.3038 H   0  0  0  0  0  0  0  0  0  0  0  0
    3.1137   -1.4880    2.7727 C   0  0  0  0  0  0  0  0  0  0  0  0
    3.7924   -0.9212    2.2998 H   0  0  0  0  0  0  0  0  0  0  0  0
    3.4160   -1.6491    3.7125 H   0  0  0  0  0  0  0  0  0  0  0  0
    2.9989   -2.8195    2.0552 C   0  0  0  0  0  0  0  0  0  0  0  0
    2.3180   -3.3817    2.5288 H   0  0  0  0  0  0  0  0  0  0  0  0
    2.6959   -2.6543    1.1154 H   0  0  0  0  0  0  0  0  0  0  0  0
    3.9421   -3.3648    2.0263 H   0  0  0  0  0  0  0  0  0  0  0  0
  1  5  1  0
  5  6  1  0
  5  7  2  0
  1  2  1  0
  1  3  1  0
  1  4  1  0
  8 12  1  0
 12 15  1  0
  8  9  1  0
  8 10  1  0
  8 11  1  0
 12 13  1  0
 12 14  1  0
 15 16  1  0
 15 17  1  0
 15 18  1  0
M  CHG  1   6  -1
M  END
>  <PDB_ID>  (216) 
pdb1duv

>  <RESIDUE_NAME>  (216) 
GLU   LYS

>  <FRAG_NAME>  (216) 
ACET   PRPA

>  <FRAG_ATOM_NUM>  (216) 
fragi: 7  fragj: 11

>  <atom.prop.CHAIN_ID>  (216) 
A A A A A A A Z Z Z Z Z Z Z Z Z Z Z

>  <atom.prop.IS_HEAVY_ATOM>  (216) 
1 0 0 0 1 1 1 1 0 0 0 1 0 0 1 0 0 0

>  <DIFUSE_FUNC_ATOM>  (216) 
atom 6   atom 7   

>  <FINAL_SINGLE_POINT_ENERGY>  (216) 
0

>  <NONCOV_INTER_ENERGY_QM>  (216) 
0

>  <FF_Energy>  (216) 
38.85

>  <QM_Energy>  (216) 
-2.13

>  <source>  (216) 
ACET_PRPA_02

>  <Index>  (216) 
11201

$$$$
ACET-pdb2e9x-D-ASP-157:PRPA-pdb2e9x-D-ARG-160
     RDKit          3D

 18 16  0  0  0  0  0  0  0  0999 V2000
    0.0070    1.5162   -0.0204 C   0  0  0  0  0  0  0  0  0  0  0  0
   -0.2740    1.8267   -0.9217 H   0  0  0  0  0  0  0  0  0  0  0  0
    0.9237    1.8363    0.1865 H   0  0  0  0  0  0  0  0  0  0  0  0
   -0.6731    1.9528    0.7110 H   0  0  0  0  0  0  0  0  0  0  0  0
    0.0000    0.0000    0.0000 C   0  0  0  0  0  0  0  0  0  0  0  0
   -1.0948   -0.6001    0.0000 O   0  0  0  0  0  1  0  0  0  0  0  0
    1.0948   -0.5942    0.0000 O   0  0  0  0  0  0  0  0  0  0  0  0
    4.0243    0.7656    1.6247 C   0  0  0  0  0  0  0  0  0  0  0  0
    3.3198    1.4458    1.4665 H   0  0  0  0  0  0  0  0  0  0  0  0
    4.9248    1.1788    1.5946 H   0  0  0  0  0  0  0  0  0  0  0  0
    3.8744    0.3418    2.6176 H   0  0  0  0  0  0  0  0  0  0  0  0
    3.9424   -0.2687    0.5011 C   0  0  0  0  0  0  0  0  0  0  0  0
    4.3512   -1.1230    0.8092 H   0  0  0  0  0  0  0  0  0  0  0  0
    2.9873   -0.4149    0.2573 H   0  0  0  0  0  0  0  0  0  0  0  0
    4.6862    0.1916   -0.7495 C   0  0  0  0  0  0  0  0  0  0  0  0
    5.6504    0.2953   -0.5116 H   0  0  0  0  0  0  0  0  0  0  0  0
    4.5854   -0.5189   -1.4444 H   0  0  0  0  0  0  0  0  0  0  0  0
    4.3060    1.1358   -1.1394 H   0  0  0  0  0  0  0  0  0  0  0  0
  1  5  1  0
  5  6  1  0
  5  7  2  0
  1  2  1  0
  1  3  1  0
  1  4  1  0
  8 12  1  0
 12 15  1  0
  8  9  1  0
  8 10  1  0
  8 11  1  0
 12 13  1  0
 12 14  1  0
 15 16  1  0
 15 17  1  0
 15 18  1  0
M  CHG  1   6  -1
M  END
>  <PDB_ID>  (217) 
pdb2e9x

>  <RESIDUE_NAME>  (217) 
ASP   ARG

>  <FRAG_NAME>  (217) 
ACET   PRPA

>  <FRAG_ATOM_NUM>  (217) 
fragi: 7  fragj: 11

>  <atom.prop.CHAIN_ID>  (217) 
A A A A A A A Z Z Z Z Z Z Z Z Z Z Z

>  <atom.prop.IS_HEAVY_ATOM>  (217) 
1 0 0 0 1 1 1 1 0 0 0 1 0 0 1 0 0 0

>  <DIFUSE_FUNC_ATOM>  (217) 
atom 6   atom 7   

>  <FINAL_SINGLE_POINT_ENERGY>  (217) 
0

>  <NONCOV_INTER_ENERGY_QM>  (217) 
0

>  <FF_Energy>  (217) 
13.32

>  <QM_Energy>  (217) 
-2.21

>  <source>  (217) 
ACET_PRPA_02

>  <Index>  (217) 
11286

$$$$
ACET-pdb1dm5-B-ASP-230:PRPA-pdb1dm5-B-LYS-105
     RDKit          3D

 18 16  0  0  0  0  0  0  0  0999 V2000
    0.0308    1.5201    0.0426 C   0  0  0  0  0  0  0  0  0  0  0  0
   -0.8272    1.8465    0.3836 H   0  0  0  0  0  0  0  0  0  0  0  0
    0.2383    1.8599   -0.8518 H   0  0  0  0  0  0  0  0  0  0  0  0
    0.8147    1.8519    0.7234 H   0  0  0  0  0  0  0  0  0  0  0  0
    0.0000    0.0000    0.0000 C   0  0  0  0  0  0  0  0  0  0  0  0
   -1.0924   -0.5948    0.0000 O   0  0  0  0  0  1  0  0  0  0  0  0
    1.0924   -0.6097    0.0000 O   0  0  0  0  0  0  0  0  0  0  0  0
   -0.1095   -2.3251   -3.4680 C   0  0  0  0  0  0  0  0  0  0  0  0
   -0.5221   -1.7029   -4.1472 H   0  0  0  0  0  0  0  0  0  0  0  0
   -0.1249   -3.2588   -3.8476 H   0  0  0  0  0  0  0  0  0  0  0  0
    0.9283   -2.0297   -3.3137 H   0  0  0  0  0  0  0  0  0  0  0  0
   -0.9385   -2.2927   -2.2027 C   0  0  0  0  0  0  0  0  0  0  0  0
   -0.6193   -1.5486   -1.6232 H   0  0  0  0  0  0  0  0  0  0  0  0
   -1.8950   -2.1568   -2.4428 H   0  0  0  0  0  0  0  0  0  0  0  0
   -0.8180   -3.5944   -1.4249 C   0  0  0  0  0  0  0  0  0  0  0  0
   -1.4220   -4.2768   -1.8353 H   0  0  0  0  0  0  0  0  0  0  0  0
    0.1275   -3.9153   -1.4703 H   0  0  0  0  0  0  0  0  0  0  0  0
   -1.0967   -3.4546   -0.3804 H   0  0  0  0  0  0  0  0  0  0  0  0
  1  5  1  0
  5  6  1  0
  5  7  2  0
  1  2  1  0
  1  3  1  0
  1  4  1  0
  8 12  1  0
 12 15  1  0
  8  9  1  0
  8 10  1  0
  8 11  1  0
 12 13  1  0
 12 14  1  0
 15 16  1  0
 15 17  1  0
 15 18  1  0
M  CHG  1   6  -1
M  END
>  <PDB_ID>  (218) 
pdb1dm5

>  <RESIDUE_NAME>  (218) 
ASP   LYS

>  <FRAG_NAME>  (218) 
ACET   PRPA

>  <FRAG_ATOM_NUM>  (218) 
fragi: 7  fragj: 11

>  <atom.prop.CHAIN_ID>  (218) 
A A A A A A A Z Z Z Z Z Z Z Z Z Z Z

>  <atom.prop.IS_HEAVY_ATOM>  (218) 
1 0 0 0 1 1 1 1 0 0 0 1 0 0 1 0 0 0

>  <DIFUSE_FUNC_ATOM>  (218) 
atom 6   atom 7   

>  <FINAL_SINGLE_POINT_ENERGY>  (218) 
0

>  <NONCOV_INTER_ENERGY_QM>  (218) 
0

>  <FF_Energy>  (218) 
16.0

>  <QM_Energy>  (218) 
-0.83

>  <source>  (218) 
ACET_PRPA_02

>  <Index>  (218) 
11372

$$$$
ACET-pdb2ew1-A-GLU-159:PRPA-pdb2ew1-A-LEU-163
     RDKit          3D

 18 16  0  0  0  0  0  0  0  0999 V2000
   -0.0155    1.5606   -0.0026 C   0  0  0  0  0  0  0  0  0  0  0  0
   -0.3842    1.8400    0.8668 H   0  0  0  0  0  0  0  0  0  0  0  0
   -0.5941    1.8337   -0.7516 H   0  0  0  0  0  0  0  0  0  0  0  0
    0.9618    2.0262   -0.1298 H   0  0  0  0  0  0  0  0  0  0  0  0
    0.0000    0.0000    0.0000 C   0  0  0  0  0  0  0  0  0  0  0  0
   -1.0952   -0.6204   -0.0000 O   0  0  0  0  0  1  0  0  0  0  0  0
    1.0952   -0.6126    0.0000 O   0  0  0  0  0  0  0  0  0  0  0  0
   -2.9117    2.8659   -4.1114 C   0  0  0  0  0  0  0  0  0  0  0  0
   -2.6060    3.8242   -3.9509 H   0  0  0  0  0  0  0  0  0  0  0  0
   -3.9231    2.8598   -4.0027 H   0  0  0  0  0  0  0  0  0  0  0  0
   -2.6852    2.6126   -5.1470 H   0  0  0  0  0  0  0  0  0  0  0  0
   -2.3462    2.0299   -2.9326 C   0  0  0  0  0  0  0  0  0  0  0  0
   -1.4182    1.7612   -3.1597 H   0  0  0  0  0  0  0  0  0  0  0  0
   -2.8593    1.0809   -2.7770 H   0  0  0  0  0  0  0  0  0  0  0  0
   -2.3559    2.8721   -1.6839 C   0  0  0  0  0  0  0  0  0  0  0  0
   -3.2938    3.1582   -1.4709 H   0  0  0  0  0  0  0  0  0  0  0  0
   -1.9921    2.3443   -0.9125 H   0  0  0  0  0  0  0  0  0  0  0  0
   -1.7886    3.6884   -1.8171 H   0  0  0  0  0  0  0  0  0  0  0  0
  1  5  1  0
  5  6  1  0
  5  7  2  0
  1  2  1  0
  1  3  1  0
  1  4  1  0
  8 12  1  0
 12 15  1  0
  8  9  1  0
  8 10  1  0
  8 11  1  0
 12 13  1  0
 12 14  1  0
 15 16  1  0
 15 17  1  0
 15 18  1  0
M  CHG  1   6  -1
M  END
>  <PDB_ID>  (219) 
pdb2ew1

>  <RESIDUE_NAME>  (219) 
GLU   LEU

>  <FRAG_NAME>  (219) 
ACET   PRPA

>  <FRAG_ATOM_NUM>  (219) 
fragi: 7  fragj: 11

>  <atom.prop.CHAIN_ID>  (219) 
A A A A A A A Z Z Z Z Z Z Z Z Z Z Z

>  <atom.prop.IS_HEAVY_ATOM>  (219) 
1 0 0 0 1 1 1 1 0 0 0 1 0 0 1 0 0 0

>  <DIFUSE_FUNC_ATOM>  (219) 
atom 6   atom 7   

>  <FINAL_SINGLE_POINT_ENERGY>  (219) 
0

>  <NONCOV_INTER_ENERGY_QM>  (219) 
0

>  <FF_Energy>  (219) 
32.34

>  <QM_Energy>  (219) 
4.42

>  <source>  (219) 
ACET_PRPA_02

>  <Index>  (219) 
12518

$$$$
ACET-pdb2ew1-A-GLU-159:PRPA-pdb2ew1-A-LEU-163
     RDKit          3D

 18 16  0  0  0  0  0  0  0  0999 V2000
   -0.0155    1.5606   -0.0026 C   0  0  0  0  0  0  0  0  0  0  0  0
   -0.3842    1.8400    0.8668 H   0  0  0  0  0  0  0  0  0  0  0  0
   -0.5941    1.8337   -0.7516 H   0  0  0  0  0  0  0  0  0  0  0  0
    0.9618    2.0262   -0.1298 H   0  0  0  0  0  0  0  0  0  0  0  0
    0.0000    0.0000    0.0000 C   0  0  0  0  0  0  0  0  0  0  0  0
   -1.0952   -0.6204   -0.0000 O   0  0  0  0  0  1  0  0  0  0  0  0
    1.0952   -0.6126    0.0000 O   0  0  0  0  0  0  0  0  0  0  0  0
   -2.3559    2.8721   -1.6839 C   0  0  0  0  0  0  0  0  0  0  0  0
   -3.2938    3.1582   -1.4709 H   0  0  0  0  0  0  0  0  0  0  0  0
   -1.9921    2.3443   -0.9125 H   0  0  0  0  0  0  0  0  0  0  0  0
   -1.7886    3.6884   -1.8171 H   0  0  0  0  0  0  0  0  0  0  0  0
   -2.3462    2.0299   -2.9326 C   0  0  0  0  0  0  0  0  0  0  0  0
   -1.4182    1.7612   -3.1597 H   0  0  0  0  0  0  0  0  0  0  0  0
   -2.7434    2.6170   -3.7605 H   0  0  0  0  0  0  0  0  0  0  0  0
   -3.0634    0.7032   -2.7151 C   0  0  0  0  0  0  0  0  0  0  0  0
   -2.9850    0.1426   -3.5396 H   0  0  0  0  0  0  0  0  0  0  0  0
   -2.6474    0.2213   -1.9431 H   0  0  0  0  0  0  0  0  0  0  0  0
   -4.0293    0.8748   -2.5195 H   0  0  0  0  0  0  0  0  0  0  0  0
  1  5  1  0
  5  6  1  0
  5  7  2  0
  1  2  1  0
  1  3  1  0
  1  4  1  0
  8 12  1  0
 12 15  1  0
  8  9  1  0
  8 10  1  0
  8 11  1  0
 12 13  1  0
 12 14  1  0
 15 16  1  0
 15 17  1  0
 15 18  1  0
M  CHG  1   6  -1
M  END
>  <PDB_ID>  (220) 
pdb2ew1

>  <RESIDUE_NAME>  (220) 
GLU   LEU

>  <FRAG_NAME>  (220) 
ACET   PRPA

>  <FRAG_ATOM_NUM>  (220) 
fragi: 7  fragj: 11

>  <atom.prop.CHAIN_ID>  (220) 
A A A A A A A Z Z Z Z Z Z Z Z Z Z Z

>  <atom.prop.IS_HEAVY_ATOM>  (220) 
1 0 0 0 1 1 1 1 0 0 0 1 0 0 1 0 0 0

>  <DIFUSE_FUNC_ATOM>  (220) 
atom 6   atom 7   

>  <FINAL_SINGLE_POINT_ENERGY>  (220) 
0

>  <NONCOV_INTER_ENERGY_QM>  (220) 
0

>  <FF_Energy>  (220) 
32.14

>  <QM_Energy>  (220) 
2.77

>  <source>  (220) 
ACET_PRPA_02

>  <Index>  (220) 
12537

$$$$
ACET-pdb2elc-C-GLU-29:PRPA-pdb2elc-A-PRO-162
     RDKit          3D

 18 16  0  0  0  0  0  0  0  0999 V2000
   -0.0005    1.5132   -0.0175 C   0  0  0  0  0  0  0  0  0  0  0  0
    0.0853    1.7988   -0.9512 H   0  0  0  0  0  0  0  0  0  0  0  0
    0.7453    1.8169    0.5419 H   0  0  0  0  0  0  0  0  0  0  0  0
   -0.9263    1.9235    0.3860 H   0  0  0  0  0  0  0  0  0  0  0  0
    0.0000    0.0000    0.0000 C   0  0  0  0  0  0  0  0  0  0  0  0
   -1.0972   -0.5940    0.0000 O   0  0  0  0  0  1  0  0  0  0  0  0
    1.0972   -0.5964    0.0000 O   0  0  0  0  0  0  0  0  0  0  0  0
    3.5947   -1.7311   -0.3507 C   0  0  0  0  0  0  0  0  0  0  0  0
    4.1621   -1.0007    0.0217 H   0  0  0  0  0  0  0  0  0  0  0  0
    2.6544   -1.6243   -0.0395 H   0  0  0  0  0  0  0  0  0  0  0  0
    3.6438   -1.7412   -1.4395 H   0  0  0  0  0  0  0  0  0  0  0  0
    4.1341   -3.0693    0.0111 C   0  0  0  0  0  0  0  0  0  0  0  0
    4.4004   -3.0991    0.9664 H   0  0  0  0  0  0  0  0  0  0  0  0
    3.4780   -3.7841   -0.1941 H   0  0  0  0  0  0  0  0  0  0  0  0
    5.3413   -3.1723   -0.8873 C   0  0  0  0  0  0  0  0  0  0  0  0
    6.1084   -2.6529   -0.5274 H   0  0  0  0  0  0  0  0  0  0  0  0
    5.6056   -4.1203   -1.0361 H   0  0  0  0  0  0  0  0  0  0  0  0
    4.9759   -2.7255   -1.8119 H   0  0  0  0  0  0  0  0  0  0  0  0
  1  5  1  0
  5  6  1  0
  5  7  2  0
  1  2  1  0
  1  3  1  0
  1  4  1  0
  8 12  1  0
 12 15  1  0
  8  9  1  0
  8 10  1  0
  8 11  1  0
 12 13  1  0
 12 14  1  0
 15 16  1  0
 15 17  1  0
 15 18  1  0
M  CHG  1   6  -1
M  END
>  <PDB_ID>  (221) 
pdb2elc

>  <RESIDUE_NAME>  (221) 
GLU   PRO

>  <FRAG_NAME>  (221) 
ACET   PRPA

>  <FRAG_ATOM_NUM>  (221) 
fragi: 7  fragj: 11

>  <atom.prop.CHAIN_ID>  (221) 
A A A A A A A Z Z Z Z Z Z Z Z Z Z Z

>  <atom.prop.IS_HEAVY_ATOM>  (221) 
1 0 0 0 1 1 1 1 0 0 0 1 0 0 1 0 0 0

>  <DIFUSE_FUNC_ATOM>  (221) 
atom 6   atom 7   

>  <FINAL_SINGLE_POINT_ENERGY>  (221) 
0

>  <NONCOV_INTER_ENERGY_QM>  (221) 
0

>  <FF_Energy>  (221) 
42.63

>  <QM_Energy>  (221) 
0.88

>  <source>  (221) 
ACET_PRPA_02

>  <Index>  (221) 
12565

$$$$
ACET-pdb2ew5-A-GLU-85:PRPA-pdb2ew5-A-LYS-113
     RDKit          3D

 18 16  0  0  0  0  0  0  0  0999 V2000
    0.0075    1.5238   -0.0087 C   0  0  0  0  0  0  0  0  0  0  0  0
   -0.4466    1.8136   -0.8316 H   0  0  0  0  0  0  0  0  0  0  0  0
    0.9483    1.8110    0.0163 H   0  0  0  0  0  0  0  0  0  0  0  0
   -0.5120    1.9592    0.8450 H   0  0  0  0  0  0  0  0  0  0  0  0
    0.0000    0.0000    0.0000 C   0  0  0  0  0  0  0  0  0  0  0  0
   -1.0981   -0.5972    0.0000 O   0  0  0  0  0  1  0  0  0  0  0  0
    1.0981   -0.6014   -0.0000 O   0  0  0  0  0  0  0  0  0  0  0  0
    1.1966    3.4920   -3.5232 C   0  0  0  0  0  0  0  0  0  0  0  0
    1.7420    3.3351   -4.3234 H   0  0  0  0  0  0  0  0  0  0  0  0
    1.8122    3.9464   -2.7469 H   0  0  0  0  0  0  0  0  0  0  0  0
    0.4552    4.2611   -3.7398 H   0  0  0  0  0  0  0  0  0  0  0  0
    0.5137    2.2182   -3.0294 C   0  0  0  0  0  0  0  0  0  0  0  0
    1.2146    1.5438   -2.8261 H   0  0  0  0  0  0  0  0  0  0  0  0
   -0.0042    2.4370   -2.2088 H   0  0  0  0  0  0  0  0  0  0  0  0
   -0.4467    1.6140   -4.0526 C   0  0  0  0  0  0  0  0  0  0  0  0
   -1.3876    1.7180   -3.7171 H   0  0  0  0  0  0  0  0  0  0  0  0
   -0.3542    2.1115   -4.9193 H   0  0  0  0  0  0  0  0  0  0  0  0
   -0.2566    0.5564   -4.2350 H   0  0  0  0  0  0  0  0  0  0  0  0
  1  5  1  0
  5  6  1  0
  5  7  2  0
  1  2  1  0
  1  3  1  0
  1  4  1  0
  8 12  1  0
 12 15  1  0
  8  9  1  0
  8 10  1  0
  8 11  1  0
 12 13  1  0
 12 14  1  0
 15 16  1  0
 15 17  1  0
 15 18  1  0
M  CHG  1   6  -1
M  END
>  <PDB_ID>  (222) 
pdb2ew5

>  <RESIDUE_NAME>  (222) 
GLU   LYS

>  <FRAG_NAME>  (222) 
ACET   PRPA

>  <FRAG_ATOM_NUM>  (222) 
fragi: 7  fragj: 11

>  <atom.prop.CHAIN_ID>  (222) 
A A A A A A A Z Z Z Z Z Z Z Z Z Z Z

>  <atom.prop.IS_HEAVY_ATOM>  (222) 
1 0 0 0 1 1 1 1 0 0 0 1 0 0 1 0 0 0

>  <DIFUSE_FUNC_ATOM>  (222) 
atom 6   atom 7   

>  <FINAL_SINGLE_POINT_ENERGY>  (222) 
0

>  <NONCOV_INTER_ENERGY_QM>  (222) 
0

>  <FF_Energy>  (222) 
18.96

>  <QM_Energy>  (222) 
2.78

>  <source>  (222) 
ACET_PRPA_02

>  <Index>  (222) 
12709

$$$$
ACET-pdb1e5r-A-ASP-19:PRPA-pdb1e5r-A-VAL-75
     RDKit          3D

 18 16  0  0  0  0  0  0  0  0999 V2000
    0.0066    1.5358   -0.0260 C   0  0  0  0  0  0  0  0  0  0  0  0
   -0.1760    1.8351   -0.9548 H   0  0  0  0  0  0  0  0  0  0  0  0
    0.8972    1.8520    0.2748 H   0  0  0  0  0  0  0  0  0  0  0  0
   -0.7460    1.9811    0.6248 H   0  0  0  0  0  0  0  0  0  0  0  0
    0.0000    0.0000    0.0000 C   0  0  0  0  0  0  0  0  0  0  0  0
   -1.0808   -0.6100    0.0000 O   0  0  0  0  0  1  0  0  0  0  0  0
    1.0808   -0.6184   -0.0000 O   0  0  0  0  0  0  0  0  0  0  0  0
   -0.9705   -2.3354    2.9943 C   0  0  0  0  0  0  0  0  0  0  0  0
   -1.6969   -2.7396    2.4500 H   0  0  0  0  0  0  0  0  0  0  0  0
   -0.8988   -2.8694    3.9418 H   0  0  0  0  0  0  0  0  0  0  0  0
   -0.0418   -2.4790    2.4420 H   0  0  0  0  0  0  0  0  0  0  0  0
   -1.3921   -0.8909    3.2894 C   0  0  0  0  0  0  0  0  0  0  0  0
   -0.5812   -0.3204    3.2233 H   0  0  0  0  0  0  0  0  0  0  0  0
   -1.9059   -0.8604    4.2503 H   0  0  0  0  0  0  0  0  0  0  0  0
   -2.3610   -0.4178    2.2341 C   0  0  0  0  0  0  0  0  0  0  0  0
   -3.0924    0.1190    2.6588 H   0  0  0  0  0  0  0  0  0  0  0  0
   -1.8825    0.1543    1.5646 H   0  0  0  0  0  0  0  0  0  0  0  0
   -2.7644   -1.2055    1.7638 H   0  0  0  0  0  0  0  0  0  0  0  0
  1  5  1  0
  5  6  1  0
  5  7  2  0
  1  2  1  0
  1  3  1  0
  1  4  1  0
  8 12  1  0
 12 15  1  0
  8  9  1  0
  8 10  1  0
  8 11  1  0
 12 13  1  0
 12 14  1  0
 15 16  1  0
 15 17  1  0
 15 18  1  0
M  CHG  1   6  -1
M  END
>  <PDB_ID>  (223) 
pdb1e5r

>  <RESIDUE_NAME>  (223) 
ASP   VAL

>  <FRAG_NAME>  (223) 
ACET   PRPA

>  <FRAG_ATOM_NUM>  (223) 
fragi: 7  fragj: 11

>  <atom.prop.CHAIN_ID>  (223) 
A A A A A A A Z Z Z Z Z Z Z Z Z Z Z

>  <atom.prop.IS_HEAVY_ATOM>  (223) 
1 0 0 0 1 1 1 1 0 0 0 1 0 0 1 0 0 0

>  <DIFUSE_FUNC_ATOM>  (223) 
atom 6   atom 7   

>  <FINAL_SINGLE_POINT_ENERGY>  (223) 
0

>  <NONCOV_INTER_ENERGY_QM>  (223) 
0

>  <FF_Energy>  (223) 
20.02

>  <QM_Energy>  (223) 
2.49

>  <source>  (223) 
ACET_PRPA_02

>  <Index>  (223) 
13115

$$$$
ACET-pdb2eq5-A-GLU-194:PRPA-pdb2eq5-A-ILE-161
     RDKit          3D

 18 16  0  0  0  0  0  0  0  0999 V2000
    0.0035    1.5240   -0.0050 C   0  0  0  0  0  0  0  0  0  0  0  0
   -0.3191    1.8136   -0.8851 H   0  0  0  0  0  0  0  0  0  0  0  0
    0.9241    1.8139    0.1724 H   0  0  0  0  0  0  0  0  0  0  0  0
   -0.6486    1.9446    0.7605 H   0  0  0  0  0  0  0  0  0  0  0  0
    0.0000    0.0000    0.0000 C   0  0  0  0  0  0  0  0  0  0  0  0
   -1.1068   -0.5970   -0.0000 O   0  0  0  0  0  1  0  0  0  0  0  0
    1.1068   -0.5917   -0.0000 O   0  0  0  0  0  0  0  0  0  0  0  0
   -1.7722    4.1725   -4.0283 C   0  0  0  0  0  0  0  0  0  0  0  0
   -2.0143    4.6524   -3.1864 H   0  0  0  0  0  0  0  0  0  0  0  0
   -2.3473    4.6389   -4.8282 H   0  0  0  0  0  0  0  0  0  0  0  0
   -0.7110    4.3571   -4.1959 H   0  0  0  0  0  0  0  0  0  0  0  0
   -2.0346    2.6543   -3.9669 C   0  0  0  0  0  0  0  0  0  0  0  0
   -2.0277    2.3054   -4.8938 H   0  0  0  0  0  0  0  0  0  0  0  0
   -3.0223    2.4730   -3.5429 H   0  0  0  0  0  0  0  0  0  0  0  0
   -0.9513    1.9657   -3.1395 C   0  0  0  0  0  0  0  0  0  0  0  0
   -1.1200    0.9827   -3.1263 H   0  0  0  0  0  0  0  0  0  0  0  0
   -0.0582    2.1462   -3.5477 H   0  0  0  0  0  0  0  0  0  0  0  0
   -0.9713    2.3210   -2.2069 H   0  0  0  0  0  0  0  0  0  0  0  0
  1  5  1  0
  5  6  1  0
  5  7  2  0
  1  2  1  0
  1  3  1  0
  1  4  1  0
  8 12  1  0
 12 15  1  0
  8  9  1  0
  8 10  1  0
  8 11  1  0
 12 13  1  0
 12 14  1  0
 15 16  1  0
 15 17  1  0
 15 18  1  0
M  CHG  1   6  -1
M  END
>  <PDB_ID>  (224) 
pdb2eq5

>  <RESIDUE_NAME>  (224) 
GLU   ILE

>  <FRAG_NAME>  (224) 
ACET   PRPA

>  <FRAG_ATOM_NUM>  (224) 
fragi: 7  fragj: 11

>  <atom.prop.CHAIN_ID>  (224) 
A A A A A A A Z Z Z Z Z Z Z Z Z Z Z

>  <atom.prop.IS_HEAVY_ATOM>  (224) 
1 0 0 0 1 1 1 1 0 0 0 1 0 0 1 0 0 0

>  <DIFUSE_FUNC_ATOM>  (224) 
atom 6   atom 7   

>  <FINAL_SINGLE_POINT_ENERGY>  (224) 
0

>  <NONCOV_INTER_ENERGY_QM>  (224) 
0

>  <FF_Energy>  (224) 
17.86

>  <QM_Energy>  (224) 
2.82

>  <source>  (224) 
ACET_PRPA_02

>  <Index>  (224) 
13537

$$$$
ACET-pdb2f1f-A-GLU-75:PRPA-pdb2f1f-A-ARG-3
     RDKit          3D

 18 16  0  0  0  0  0  0  0  0999 V2000
    0.0064    1.5715    0.0037 C   0  0  0  0  0  0  0  0  0  0  0  0
   -0.2387    1.8562   -0.9038 H   0  0  0  0  0  0  0  0  0  0  0  0
    0.9164    1.8482    0.2485 H   0  0  0  0  0  0  0  0  0  0  0  0
   -0.6906    2.0315    0.7043 H   0  0  0  0  0  0  0  0  0  0  0  0
    0.0000    0.0000    0.0000 C   0  0  0  0  0  0  0  0  0  0  0  0
   -1.1067   -0.5942   -0.0000 O   0  0  0  0  0  1  0  0  0  0  0  0
    1.1067   -0.6444   -0.0000 O   0  0  0  0  0  0  0  0  0  0  0  0
    4.6872    0.4559   -0.6274 C   0  0  0  0  0  0  0  0  0  0  0  0
    5.4661    0.6023   -0.0069 H   0  0  0  0  0  0  0  0  0  0  0  0
    3.8788    0.9081   -0.2328 H   0  0  0  0  0  0  0  0  0  0  0  0
    4.9143    0.9275   -1.5834 H   0  0  0  0  0  0  0  0  0  0  0  0
    4.4128   -1.0108   -0.6901 C   0  0  0  0  0  0  0  0  0  0  0  0
    5.2234   -1.4959   -1.0279 H   0  0  0  0  0  0  0  0  0  0  0  0
    4.1864   -1.3549    0.2248 H   0  0  0  0  0  0  0  0  0  0  0  0
    3.2617   -1.3329   -1.6056 C   0  0  0  0  0  0  0  0  0  0  0  0
    2.4251   -1.0032   -1.1951 H   0  0  0  0  0  0  0  0  0  0  0  0
    3.4249   -0.9094   -2.4839 H   0  0  0  0  0  0  0  0  0  0  0  0
    3.1863   -2.4117   -1.7422 H   0  0  0  0  0  0  0  0  0  0  0  0
  1  5  1  0
  5  6  1  0
  5  7  2  0
  1  2  1  0
  1  3  1  0
  1  4  1  0
  8 12  1  0
 12 15  1  0
  8  9  1  0
  8 10  1  0
  8 11  1  0
 12 13  1  0
 12 14  1  0
 15 16  1  0
 15 17  1  0
 15 18  1  0
M  CHG  1   6  -1
M  END
>  <PDB_ID>  (225) 
pdb2f1f

>  <RESIDUE_NAME>  (225) 
GLU   ARG

>  <FRAG_NAME>  (225) 
ACET   PRPA

>  <FRAG_ATOM_NUM>  (225) 
fragi: 7  fragj: 11

>  <atom.prop.CHAIN_ID>  (225) 
A A A A A A A Z Z Z Z Z Z Z Z Z Z Z

>  <atom.prop.IS_HEAVY_ATOM>  (225) 
1 0 0 0 1 1 1 1 0 0 0 1 0 0 1 0 0 0

>  <DIFUSE_FUNC_ATOM>  (225) 
atom 6   atom 7   

>  <FINAL_SINGLE_POINT_ENERGY>  (225) 
0

>  <NONCOV_INTER_ENERGY_QM>  (225) 
0

>  <FF_Energy>  (225) 
25.04

>  <QM_Energy>  (225) 
-0.9

>  <source>  (225) 
ACET_PRPA_02

>  <Index>  (225) 
13559

$$$$
ACET-pdb1e5x-A-ASP-22:PRPA-pdb1e5x-A-ARG-19
     RDKit          3D

 18 16  0  0  0  0  0  0  0  0999 V2000
    0.0192    1.5154    0.0227 C   0  0  0  0  0  0  0  0  0  0  0  0
    0.9313    1.8292   -0.2184 H   0  0  0  0  0  0  0  0  0  0  0  0
   -0.2230    1.8279    0.9349 H   0  0  0  0  0  0  0  0  0  0  0  0
   -0.6830    1.9644   -0.6797 H   0  0  0  0  0  0  0  0  0  0  0  0
    0.0000    0.0000    0.0000 C   0  0  0  0  0  0  0  0  0  0  0  0
   -1.1012   -0.5996   -0.0000 O   0  0  0  0  0  1  0  0  0  0  0  0
    1.1012   -0.5944   -0.0000 O   0  0  0  0  0  0  0  0  0  0  0  0
    2.8001   -0.9691   -3.4165 C   0  0  0  0  0  0  0  0  0  0  0  0
    2.7256   -0.9883   -4.4120 H   0  0  0  0  0  0  0  0  0  0  0  0
    3.3096   -1.7666   -3.1012 H   0  0  0  0  0  0  0  0  0  0  0  0
    3.3547   -0.0748   -3.1326 H   0  0  0  0  0  0  0  0  0  0  0  0
    1.3972   -1.0495   -2.8386 C   0  0  0  0  0  0  0  0  0  0  0  0
    1.4315   -0.8789   -1.8652 H   0  0  0  0  0  0  0  0  0  0  0  0
    0.8133   -0.3961   -3.2972 H   0  0  0  0  0  0  0  0  0  0  0  0
    0.8419   -2.4340   -3.0668 C   0  0  0  0  0  0  0  0  0  0  0  0
    0.1677   -2.6225   -2.3649 H   0  0  0  0  0  0  0  0  0  0  0  0
    0.4327   -2.4629   -3.9693 H   0  0  0  0  0  0  0  0  0  0  0  0
    1.6377   -3.1766   -3.0091 H   0  0  0  0  0  0  0  0  0  0  0  0
  1  5  1  0
  5  6  1  0
  5  7  2  0
  1  2  1  0
  1  3  1  0
  1  4  1  0
  8 12  1  0
 12 15  1  0
  8  9  1  0
  8 10  1  0
  8 11  1  0
 12 13  1  0
 12 14  1  0
 15 16  1  0
 15 17  1  0
 15 18  1  0
M  CHG  1   6  -1
M  END
>  <PDB_ID>  (226) 
pdb1e5x

>  <RESIDUE_NAME>  (226) 
ASP   ARG

>  <FRAG_NAME>  (226) 
ACET   PRPA

>  <FRAG_ATOM_NUM>  (226) 
fragi: 7  fragj: 11

>  <atom.prop.CHAIN_ID>  (226) 
A A A A A A A Z Z Z Z Z Z Z Z Z Z Z

>  <atom.prop.IS_HEAVY_ATOM>  (226) 
1 0 0 0 1 1 1 1 0 0 0 1 0 0 1 0 0 0

>  <DIFUSE_FUNC_ATOM>  (226) 
atom 6   atom 7   

>  <FINAL_SINGLE_POINT_ENERGY>  (226) 
0

>  <NONCOV_INTER_ENERGY_QM>  (226) 
0

>  <FF_Energy>  (226) 
14.81

>  <QM_Energy>  (226) 
-2.05

>  <source>  (226) 
ACET_PRPA_02

>  <Index>  (226) 
14306

$$$$
ACET-pdb1e5f-A-ASP-165:PRPA-pdb1e5f-A-ARG-168
     RDKit          3D

 18 16  0  0  0  0  0  0  0  0999 V2000
    0.1595    1.4713    0.1040 C   0  0  0  0  0  0  0  0  0  0  0  0
    0.9045    1.7726   -0.4749 H   0  0  0  0  0  0  0  0  0  0  0  0
    0.3159    1.7288    1.0472 H   0  0  0  0  0  0  0  0  0  0  0  0
   -0.7381    1.9931   -0.2279 H   0  0  0  0  0  0  0  0  0  0  0  0
    0.0000    0.0000    0.0000 C   0  0  0  0  0  0  0  0  0  0  0  0
   -1.1024   -0.4911    0.0000 O   0  0  0  0  0  1  0  0  0  0  0  0
    1.1024   -0.6499   -0.0000 O   0  0  0  0  0  0  0  0  0  0  0  0
   -1.5339   -1.1014    3.9461 C   0  0  0  0  0  0  0  0  0  0  0  0
   -1.4466   -2.0165    4.3459 H   0  0  0  0  0  0  0  0  0  0  0  0
   -2.2430   -1.1211    3.1185 H   0  0  0  0  0  0  0  0  0  0  0  0
   -1.9072   -0.4316    4.7207 H   0  0  0  0  0  0  0  0  0  0  0  0
   -0.0988   -0.5832    3.6400 C   0  0  0  0  0  0  0  0  0  0  0  0
   -0.1732    0.3533    3.3465 H   0  0  0  0  0  0  0  0  0  0  0  0
    0.4353   -0.6712    4.4619 H   0  0  0  0  0  0  0  0  0  0  0  0
    0.5822   -1.3865    2.5324 C   0  0  0  0  0  0  0  0  0  0  0  0
    0.6586   -2.3328    2.8160 H   0  0  0  0  0  0  0  0  0  0  0  0
    0.0517   -1.3072    1.6995 H   0  0  0  0  0  0  0  0  0  0  0  0
    1.5820   -0.9936    2.3478 H   0  0  0  0  0  0  0  0  0  0  0  0
  1  5  1  0
  5  6  1  0
  5  7  2  0
  1  2  1  0
  1  3  1  0
  1  4  1  0
  8 12  1  0
 12 15  1  0
  8  9  1  0
  8 10  1  0
  8 11  1  0
 12 13  1  0
 12 14  1  0
 15 16  1  0
 15 17  1  0
 15 18  1  0
M  CHG  1   6  -1
M  END
>  <PDB_ID>  (227) 
pdb1e5f

>  <RESIDUE_NAME>  (227) 
ASP   ARG

>  <FRAG_NAME>  (227) 
ACET   PRPA

>  <FRAG_ATOM_NUM>  (227) 
fragi: 7  fragj: 11

>  <atom.prop.CHAIN_ID>  (227) 
A A A A A A A Z Z Z Z Z Z Z Z Z Z Z

>  <atom.prop.IS_HEAVY_ATOM>  (227) 
1 0 0 0 1 1 1 1 0 0 0 1 0 0 1 0 0 0

>  <DIFUSE_FUNC_ATOM>  (227) 
atom 6   atom 7   

>  <FINAL_SINGLE_POINT_ENERGY>  (227) 
0

>  <NONCOV_INTER_ENERGY_QM>  (227) 
0

>  <FF_Energy>  (227) 
17.73

>  <QM_Energy>  (227) 
2.36

>  <source>  (227) 
ACET_PRPA_02

>  <Index>  (227) 
14891

$$$$
ACET-pdb1e5f-A-ASP-165:PRPA-pdb1e5f-A-ARG-168
     RDKit          3D

 18 16  0  0  0  0  0  0  0  0999 V2000
    0.1595    1.4713    0.1040 C   0  0  0  0  0  0  0  0  0  0  0  0
    0.9045    1.7726   -0.4749 H   0  0  0  0  0  0  0  0  0  0  0  0
    0.3159    1.7288    1.0472 H   0  0  0  0  0  0  0  0  0  0  0  0
   -0.7381    1.9931   -0.2279 H   0  0  0  0  0  0  0  0  0  0  0  0
    0.0000    0.0000    0.0000 C   0  0  0  0  0  0  0  0  0  0  0  0
   -1.1024   -0.4911    0.0000 O   0  0  0  0  0  1  0  0  0  0  0  0
    1.1024   -0.6499   -0.0000 O   0  0  0  0  0  0  0  0  0  0  0  0
   -0.0988   -0.5832    3.6400 C   0  0  0  0  0  0  0  0  0  0  0  0
   -0.1732    0.3533    3.3465 H   0  0  0  0  0  0  0  0  0  0  0  0
    0.4353   -0.6712    4.4619 H   0  0  0  0  0  0  0  0  0  0  0  0
   -1.1040   -0.9461    3.8544 H   0  0  0  0  0  0  0  0  0  0  0  0
    0.5822   -1.3865    2.5324 C   0  0  0  0  0  0  0  0  0  0  0  0
    0.6586   -2.3328    2.8160 H   0  0  0  0  0  0  0  0  0  0  0  0
    0.0517   -1.3072    1.6995 H   0  0  0  0  0  0  0  0  0  0  0  0
    1.9654   -0.8429    2.2769 C   0  0  0  0  0  0  0  0  0  0  0  0
    1.8845    0.1064    1.9979 H   0  0  0  0  0  0  0  0  0  0  0  0
    2.4926   -0.9187    3.1149 H   0  0  0  0  0  0  0  0  0  0  0  0
    2.4647   -1.4061    1.4885 H   0  0  0  0  0  0  0  0  0  0  0  0
  1  5  1  0
  5  6  1  0
  5  7  2  0
  1  2  1  0
  1  3  1  0
  1  4  1  0
  8 12  1  0
 12 15  1  0
  8  9  1  0
  8 10  1  0
  8 11  1  0
 12 13  1  0
 12 14  1  0
 15 16  1  0
 15 17  1  0
 15 18  1  0
M  CHG  1   6  -1
M  END
>  <PDB_ID>  (228) 
pdb1e5f

>  <RESIDUE_NAME>  (228) 
ASP   ARG

>  <FRAG_NAME>  (228) 
ACET   PRPA

>  <FRAG_ATOM_NUM>  (228) 
fragi: 7  fragj: 11

>  <atom.prop.CHAIN_ID>  (228) 
A A A A A A A Z Z Z Z Z Z Z Z Z Z Z

>  <atom.prop.IS_HEAVY_ATOM>  (228) 
1 0 0 0 1 1 1 1 0 0 0 1 0 0 1 0 0 0

>  <DIFUSE_FUNC_ATOM>  (228) 
atom 6   atom 7   

>  <FINAL_SINGLE_POINT_ENERGY>  (228) 
0

>  <NONCOV_INTER_ENERGY_QM>  (228) 
0

>  <FF_Energy>  (228) 
37.38

>  <QM_Energy>  (228) 
6.98

>  <source>  (228) 
ACET_PRPA_02

>  <Index>  (228) 
14898

$$$$
ACET-pdb1dm5-C-GLU-88:PRPA-pdb1dm5-C-LYS-85
     RDKit          3D

 18 16  0  0  0  0  0  0  0  0999 V2000
    0.0198    1.5256   -0.0198 C   0  0  0  0  0  0  0  0  0  0  0  0
   -0.9079    1.8265   -0.1832 H   0  0  0  0  0  0  0  0  0  0  0  0
    0.6209    1.7985   -0.7562 H   0  0  0  0  0  0  0  0  0  0  0  0
    0.3739    1.9801    0.9054 H   0  0  0  0  0  0  0  0  0  0  0  0
    0.0000    0.0000    0.0000 C   0  0  0  0  0  0  0  0  0  0  0  0
   -1.1113   -0.6045   -0.0000 O   0  0  0  0  0  1  0  0  0  0  0  0
    1.1113   -0.5884    0.0000 O   0  0  0  0  0  0  0  0  0  0  0  0
    1.9205    4.1667   -2.5354 C   0  0  0  0  0  0  0  0  0  0  0  0
    2.1923    4.6499   -3.3597 H   0  0  0  0  0  0  0  0  0  0  0  0
    2.8134    3.8659   -1.9875 H   0  0  0  0  0  0  0  0  0  0  0  0
    1.3538    4.8477   -1.9004 H   0  0  0  0  0  0  0  0  0  0  0  0
    1.0890    2.9475   -2.9095 C   0  0  0  0  0  0  0  0  0  0  0  0
    0.8144    2.4834   -2.0782 H   0  0  0  0  0  0  0  0  0  0  0  0
    0.2951    3.2499   -3.4218 H   0  0  0  0  0  0  0  0  0  0  0  0
    1.8645    1.9528   -3.7755 C   0  0  0  0  0  0  0  0  0  0  0  0
    2.2463    2.4384   -4.5597 H   0  0  0  0  0  0  0  0  0  0  0  0
    2.6006    1.5567   -3.2313 H   0  0  0  0  0  0  0  0  0  0  0  0
    1.2139    1.1542   -4.1320 H   0  0  0  0  0  0  0  0  0  0  0  0
  1  5  1  0
  5  6  1  0
  5  7  2  0
  1  2  1  0
  1  3  1  0
  1  4  1  0
  8 12  1  0
 12 15  1  0
  8  9  1  0
  8 10  1  0
  8 11  1  0
 12 13  1  0
 12 14  1  0
 15 16  1  0
 15 17  1  0
 15 18  1  0
M  CHG  1   6  -1
M  END
>  <PDB_ID>  (229) 
pdb1dm5

>  <RESIDUE_NAME>  (229) 
GLU   LYS

>  <FRAG_NAME>  (229) 
ACET   PRPA

>  <FRAG_ATOM_NUM>  (229) 
fragi: 7  fragj: 11

>  <atom.prop.CHAIN_ID>  (229) 
A A A A A A A Z Z Z Z Z Z Z Z Z Z Z

>  <atom.prop.IS_HEAVY_ATOM>  (229) 
1 0 0 0 1 1 1 1 0 0 0 1 0 0 1 0 0 0

>  <DIFUSE_FUNC_ATOM>  (229) 
atom 6   atom 7   

>  <FINAL_SINGLE_POINT_ENERGY>  (229) 
0

>  <NONCOV_INTER_ENERGY_QM>  (229) 
0

>  <FF_Energy>  (229) 
30.44

>  <QM_Energy>  (229) 
2.84

>  <source>  (229) 
ACET_PRPA_02

>  <Index>  (229) 
15000

$$$$
ACET-pdb1dm5-C-GLU-88:PRPA-pdb1dm5-C-LYS-85
     RDKit          3D

 18 16  0  0  0  0  0  0  0  0999 V2000
    0.0198    1.5256   -0.0198 C   0  0  0  0  0  0  0  0  0  0  0  0
   -0.9079    1.8265   -0.1832 H   0  0  0  0  0  0  0  0  0  0  0  0
    0.6209    1.7985   -0.7562 H   0  0  0  0  0  0  0  0  0  0  0  0
    0.3739    1.9801    0.9054 H   0  0  0  0  0  0  0  0  0  0  0  0
    0.0000    0.0000    0.0000 C   0  0  0  0  0  0  0  0  0  0  0  0
   -1.1113   -0.6045   -0.0000 O   0  0  0  0  0  1  0  0  0  0  0  0
    1.1113   -0.5884    0.0000 O   0  0  0  0  0  0  0  0  0  0  0  0
    1.0890    2.9475   -2.9095 C   0  0  0  0  0  0  0  0  0  0  0  0
    0.8144    2.4834   -2.0782 H   0  0  0  0  0  0  0  0  0  0  0  0
    0.2951    3.2499   -3.4218 H   0  0  0  0  0  0  0  0  0  0  0  0
    1.6843    3.8205   -2.6417 H   0  0  0  0  0  0  0  0  0  0  0  0
    1.8645    1.9528   -3.7755 C   0  0  0  0  0  0  0  0  0  0  0  0
    2.2463    2.4384   -4.5597 H   0  0  0  0  0  0  0  0  0  0  0  0
    2.6006    1.5567   -3.2313 H   0  0  0  0  0  0  0  0  0  0  0  0
    0.9590    0.8413   -4.2718 C   0  0  0  0  0  0  0  0  0  0  0  0
    0.0199    1.1672   -4.2800 H   0  0  0  0  0  0  0  0  0  0  0  0
    1.2430    0.5744   -5.1857 H   0  0  0  0  0  0  0  0  0  0  0  0
    1.0158   -0.0331   -3.6234 H   0  0  0  0  0  0  0  0  0  0  0  0
  1  5  1  0
  5  6  1  0
  5  7  2  0
  1  2  1  0
  1  3  1  0
  1  4  1  0
  8 12  1  0
 12 15  1  0
  8  9  1  0
  8 10  1  0
  8 11  1  0
 12 13  1  0
 12 14  1  0
 15 16  1  0
 15 17  1  0
 15 18  1  0
M  CHG  1   6  -1
M  END
>  <PDB_ID>  (230) 
pdb1dm5

>  <RESIDUE_NAME>  (230) 
GLU   LYS

>  <FRAG_NAME>  (230) 
ACET   PRPA

>  <FRAG_ATOM_NUM>  (230) 
fragi: 7  fragj: 11

>  <atom.prop.CHAIN_ID>  (230) 
A A A A A A A Z Z Z Z Z Z Z Z Z Z Z

>  <atom.prop.IS_HEAVY_ATOM>  (230) 
1 0 0 0 1 1 1 1 0 0 0 1 0 0 1 0 0 0

>  <DIFUSE_FUNC_ATOM>  (230) 
atom 6   atom 7   

>  <FINAL_SINGLE_POINT_ENERGY>  (230) 
0

>  <NONCOV_INTER_ENERGY_QM>  (230) 
0

>  <FF_Energy>  (230) 
25.87

>  <QM_Energy>  (230) 
2.53

>  <source>  (230) 
ACET_PRPA_02

>  <Index>  (230) 
15002

$$$$
ACET-pdb2eua-A-ASP-29:PRPA-pdb2eua-A-ARG-124
     RDKit          3D

 18 16  0  0  0  0  0  0  0  0999 V2000
   -0.0012    1.5274   -0.0081 C   0  0  0  0  0  0  0  0  0  0  0  0
    0.7349    1.8402   -0.5972 H   0  0  0  0  0  0  0  0  0  0  0  0
    0.1354    1.8475    0.9215 H   0  0  0  0  0  0  0  0  0  0  0  0
   -0.9350    1.9493   -0.3798 H   0  0  0  0  0  0  0  0  0  0  0  0
    0.0000    0.0000    0.0000 C   0  0  0  0  0  0  0  0  0  0  0  0
   -1.1011   -0.5892   -0.0000 O   0  0  0  0  0  1  0  0  0  0  0  0
    1.1011   -0.6223    0.0000 O   0  0  0  0  0  0  0  0  0  0  0  0
   -4.6998   -1.5847    1.2037 C   0  0  0  0  0  0  0  0  0  0  0  0
   -4.7177   -1.5057    2.2031 H   0  0  0  0  0  0  0  0  0  0  0  0
   -5.3187   -2.3214    0.9230 H   0  0  0  0  0  0  0  0  0  0  0  0
   -5.0750   -0.6509    0.7847 H   0  0  0  0  0  0  0  0  0  0  0  0
   -3.3410   -1.9121    0.7737 C   0  0  0  0  0  0  0  0  0  0  0  0
   -2.9241   -1.1114    0.3194 H   0  0  0  0  0  0  0  0  0  0  0  0
   -2.7740   -2.1416    1.5783 H   0  0  0  0  0  0  0  0  0  0  0  0
   -3.3329   -3.0337   -0.1437 C   0  0  0  0  0  0  0  0  0  0  0  0
   -4.2735   -3.3075   -0.3563 H   0  0  0  0  0  0  0  0  0  0  0  0
   -2.8669   -2.7750   -0.9924 H   0  0  0  0  0  0  0  0  0  0  0  0
   -2.8149   -3.8929    0.2825 H   0  0  0  0  0  0  0  0  0  0  0  0
  1  5  1  0
  5  6  1  0
  5  7  2  0
  1  2  1  0
  1  3  1  0
  1  4  1  0
  8 12  1  0
 12 15  1  0
  8  9  1  0
  8 10  1  0
  8 11  1  0
 12 13  1  0
 12 14  1  0
 15 16  1  0
 15 17  1  0
 15 18  1  0
M  CHG  1   6  -1
M  END
>  <PDB_ID>  (231) 
pdb2eua

>  <RESIDUE_NAME>  (231) 
ASP   ARG

>  <FRAG_NAME>  (231) 
ACET   PRPA

>  <FRAG_ATOM_NUM>  (231) 
fragi: 7  fragj: 11

>  <atom.prop.CHAIN_ID>  (231) 
A A A A A A A Z Z Z Z Z Z Z Z Z Z Z

>  <atom.prop.IS_HEAVY_ATOM>  (231) 
1 0 0 0 1 1 1 1 0 0 0 1 0 0 1 0 0 0

>  <DIFUSE_FUNC_ATOM>  (231) 
atom 6   atom 7   

>  <FINAL_SINGLE_POINT_ENERGY>  (231) 
0

>  <NONCOV_INTER_ENERGY_QM>  (231) 
0

>  <FF_Energy>  (231) 
15.03

>  <QM_Energy>  (231) 
-0.38

>  <source>  (231) 
ACET_PRPA_02

>  <Index>  (231) 
15126

$$$$
ACET-pdb2f1l-A-ASP-123:PRPA-pdb2f1l-A-LYS-137
     RDKit          3D

 18 16  0  0  0  0  0  0  0  0999 V2000
   -0.0098    1.4987    0.0022 C   0  0  0  0  0  0  0  0  0  0  0  0
   -0.7349    1.8222   -0.5967 H   0  0  0  0  0  0  0  0  0  0  0  0
    0.8721    1.8323   -0.3124 H   0  0  0  0  0  0  0  0  0  0  0  0
   -0.1886    1.9121    0.9948 H   0  0  0  0  0  0  0  0  0  0  0  0
    0.0000    0.0000    0.0000 C   0  0  0  0  0  0  0  0  0  0  0  0
   -1.0886   -0.5754    0.0000 O   0  0  0  0  0  1  0  0  0  0  0  0
    1.0886   -0.5978    0.0000 O   0  0  0  0  0  0  0  0  0  0  0  0
   -2.6519    2.4580   -1.8104 C   0  0  0  0  0  0  0  0  0  0  0  0
   -1.8333    2.8543   -1.4014 H   0  0  0  0  0  0  0  0  0  0  0  0
   -3.4519    3.0008   -1.5643 H   0  0  0  0  0  0  0  0  0  0  0  0
   -2.5434    2.4535   -2.8950 H   0  0  0  0  0  0  0  0  0  0  0  0
   -2.8330    1.0419   -1.2749 C   0  0  0  0  0  0  0  0  0  0  0  0
   -3.6514    0.6473   -1.6883 H   0  0  0  0  0  0  0  0  0  0  0  0
   -2.0330    0.5008   -1.5244 H   0  0  0  0  0  0  0  0  0  0  0  0
   -2.9874    1.0141    0.2316 C   0  0  0  0  0  0  0  0  0  0  0  0
   -2.2084    1.4807    0.6493 H   0  0  0  0  0  0  0  0  0  0  0  0
   -3.8323    1.4837    0.4826 H   0  0  0  0  0  0  0  0  0  0  0  0
   -3.0266   -0.0141    0.5915 H   0  0  0  0  0  0  0  0  0  0  0  0
  1  5  1  0
  5  6  1  0
  5  7  2  0
  1  2  1  0
  1  3  1  0
  1  4  1  0
  8 12  1  0
 12 15  1  0
  8  9  1  0
  8 10  1  0
  8 11  1  0
 12 13  1  0
 12 14  1  0
 15 16  1  0
 15 17  1  0
 15 18  1  0
M  CHG  1   6  -1
M  END
>  <PDB_ID>  (232) 
pdb2f1l

>  <RESIDUE_NAME>  (232) 
ASP   LYS

>  <FRAG_NAME>  (232) 
ACET   PRPA

>  <FRAG_ATOM_NUM>  (232) 
fragi: 7  fragj: 11

>  <atom.prop.CHAIN_ID>  (232) 
A A A A A A A Z Z Z Z Z Z Z Z Z Z Z

>  <atom.prop.IS_HEAVY_ATOM>  (232) 
1 0 0 0 1 1 1 1 0 0 0 1 0 0 1 0 0 0

>  <DIFUSE_FUNC_ATOM>  (232) 
atom 6   atom 7   

>  <FINAL_SINGLE_POINT_ENERGY>  (232) 
0

>  <NONCOV_INTER_ENERGY_QM>  (232) 
0

>  <FF_Energy>  (232) 
42.32

>  <QM_Energy>  (232) 
12.17

>  <source>  (232) 
ACET_PRPA_02

>  <Index>  (232) 
15641

$$$$
ACET-pdb1e1e-A-ASP-427:PRPA-pdb1e1e-A-ARG-430
     RDKit          3D

 18 16  0  0  0  0  0  0  0  0999 V2000
    0.0272    1.5360    0.0235 C   0  0  0  0  0  0  0  0  0  0  0  0
    0.7669    1.8439   -0.5643 H   0  0  0  0  0  0  0  0  0  0  0  0
    0.1789    1.8310    0.9591 H   0  0  0  0  0  0  0  0  0  0  0  0
   -0.8993    1.9880   -0.3306 H   0  0  0  0  0  0  0  0  0  0  0  0
    0.0000    0.0000    0.0000 C   0  0  0  0  0  0  0  0  0  0  0  0
   -1.0948   -0.6080    0.0000 O   0  0  0  0  0  1  0  0  0  0  0  0
    1.0948   -0.6041   -0.0000 O   0  0  0  0  0  0  0  0  0  0  0  0
    2.8959    1.4723   -2.5319 C   0  0  0  0  0  0  0  0  0  0  0  0
    3.4837    2.0494   -1.9707 H   0  0  0  0  0  0  0  0  0  0  0  0
    1.9882    1.4132   -2.1250 H   0  0  0  0  0  0  0  0  0  0  0  0
    2.8005    1.9351   -3.5141 H   0  0  0  0  0  0  0  0  0  0  0  0
    3.4970    0.0615   -2.5431 C   0  0  0  0  0  0  0  0  0  0  0  0
    2.8799   -0.5558   -3.0303 H   0  0  0  0  0  0  0  0  0  0  0  0
    4.3815    0.0844   -3.0064 H   0  0  0  0  0  0  0  0  0  0  0  0
    3.7154   -0.4995   -1.1355 C   0  0  0  0  0  0  0  0  0  0  0  0
    2.8469   -0.4484   -0.6487 H   0  0  0  0  0  0  0  0  0  0  0  0
    3.9978   -1.4524   -1.2281 H   0  0  0  0  0  0  0  0  0  0  0  0
    4.4748    0.0505   -0.5797 H   0  0  0  0  0  0  0  0  0  0  0  0
  1  5  1  0
  5  6  1  0
  5  7  2  0
  1  2  1  0
  1  3  1  0
  1  4  1  0
  8 12  1  0
 12 15  1  0
  8  9  1  0
  8 10  1  0
  8 11  1  0
 12 13  1  0
 12 14  1  0
 15 16  1  0
 15 17  1  0
 15 18  1  0
M  CHG  1   6  -1
M  END
>  <PDB_ID>  (233) 
pdb1e1e

>  <RESIDUE_NAME>  (233) 
ASP   ARG

>  <FRAG_NAME>  (233) 
ACET   PRPA

>  <FRAG_ATOM_NUM>  (233) 
fragi: 7  fragj: 11

>  <atom.prop.CHAIN_ID>  (233) 
A A A A A A A Z Z Z Z Z Z Z Z Z Z Z

>  <atom.prop.IS_HEAVY_ATOM>  (233) 
1 0 0 0 1 1 1 1 0 0 0 1 0 0 1 0 0 0

>  <DIFUSE_FUNC_ATOM>  (233) 
atom 6   atom 7   

>  <FINAL_SINGLE_POINT_ENERGY>  (233) 
0

>  <NONCOV_INTER_ENERGY_QM>  (233) 
0

>  <FF_Energy>  (233) 
16.36

>  <QM_Energy>  (233) 
-1.61

>  <source>  (233) 
ACET_PRPA_02

>  <Index>  (233) 
15843

$$$$
ACET-pdb1duv-I-ASP-217:PRPA-pdb1duv-I-LYS-220
     RDKit          3D

 18 16  0  0  0  0  0  0  0  0999 V2000
    0.0381    1.5110    0.0167 C   0  0  0  0  0  0  0  0  0  0  0  0
    0.9871    1.8071   -0.0495 H   0  0  0  0  0  0  0  0  0  0  0  0
   -0.3600    1.8313    0.8714 H   0  0  0  0  0  0  0  0  0  0  0  0
   -0.5167    1.9598   -0.8072 H   0  0  0  0  0  0  0  0  0  0  0  0
    0.0000    0.0000    0.0000 C   0  0  0  0  0  0  0  0  0  0  0  0
   -1.0954   -0.6005    0.0000 O   0  0  0  0  0  1  0  0  0  0  0  0
    1.0954   -0.5881    0.0000 O   0  0  0  0  0  0  0  0  0  0  0  0
   -1.6038   -0.9339    3.4721 C   0  0  0  0  0  0  0  0  0  0  0  0
   -1.5395   -0.9252    4.4778 H   0  0  0  0  0  0  0  0  0  0  0  0
   -1.1103   -1.7468    3.1347 H   0  0  0  0  0  0  0  0  0  0  0  0
   -2.6547   -1.0514    3.2078 H   0  0  0  0  0  0  0  0  0  0  0  0
   -0.9113    0.3015    2.9395 C   0  0  0  0  0  0  0  0  0  0  0  0
   -0.8727    0.2649    1.9488 H   0  0  0  0  0  0  0  0  0  0  0  0
   -1.3904    1.1142    3.2440 H   0  0  0  0  0  0  0  0  0  0  0  0
    0.5390    0.3662    3.4765 C   0  0  0  0  0  0  0  0  0  0  0  0
    0.5079    0.3741    4.4782 H   0  0  0  0  0  0  0  0  0  0  0  0
    1.0299   -0.4515    3.1690 H   0  0  0  0  0  0  0  0  0  0  0  0
    1.1067    1.2386    3.1529 H   0  0  0  0  0  0  0  0  0  0  0  0
  1  5  1  0
  5  6  1  0
  5  7  2  0
  1  2  1  0
  1  3  1  0
  1  4  1  0
  8 12  1  0
 12 15  1  0
  8  9  1  0
  8 10  1  0
  8 11  1  0
 12 13  1  0
 12 14  1  0
 15 16  1  0
 15 17  1  0
 15 18  1  0
M  CHG  1   6  -1
M  END
>  <PDB_ID>  (234) 
pdb1duv

>  <RESIDUE_NAME>  (234) 
ASP   LYS

>  <FRAG_NAME>  (234) 
ACET   PRPA

>  <FRAG_ATOM_NUM>  (234) 
fragi: 7  fragj: 11

>  <atom.prop.CHAIN_ID>  (234) 
A A A A A A A Z Z Z Z Z Z Z Z Z Z Z

>  <atom.prop.IS_HEAVY_ATOM>  (234) 
1 0 0 0 1 1 1 1 0 0 0 1 0 0 1 0 0 0

>  <DIFUSE_FUNC_ATOM>  (234) 
atom 6   atom 7   

>  <FINAL_SINGLE_POINT_ENERGY>  (234) 
0

>  <NONCOV_INTER_ENERGY_QM>  (234) 
0

>  <FF_Energy>  (234) 
14.65

>  <QM_Energy>  (234) 
-1.13

>  <source>  (234) 
ACET_PRPA_02

>  <Index>  (234) 
16836

$$$$
ACET-pdb1duv-I-ASP-217:PRPA-pdb1duv-I-LYS-220
     RDKit          3D

 18 16  0  0  0  0  0  0  0  0999 V2000
    0.0381    1.5110    0.0167 C   0  0  0  0  0  0  0  0  0  0  0  0
    0.9871    1.8071   -0.0495 H   0  0  0  0  0  0  0  0  0  0  0  0
   -0.3600    1.8313    0.8714 H   0  0  0  0  0  0  0  0  0  0  0  0
   -0.5167    1.9598   -0.8072 H   0  0  0  0  0  0  0  0  0  0  0  0
    0.0000    0.0000    0.0000 C   0  0  0  0  0  0  0  0  0  0  0  0
   -1.0954   -0.6005    0.0000 O   0  0  0  0  0  1  0  0  0  0  0  0
    1.0954   -0.5881    0.0000 O   0  0  0  0  0  0  0  0  0  0  0  0
   -0.9113    0.3015    2.9395 C   0  0  0  0  0  0  0  0  0  0  0  0
   -0.8727    0.2649    1.9488 H   0  0  0  0  0  0  0  0  0  0  0  0
   -1.3904    1.1142    3.2440 H   0  0  0  0  0  0  0  0  0  0  0  0
   -1.4102   -0.5885    3.3232 H   0  0  0  0  0  0  0  0  0  0  0  0
    0.5390    0.3662    3.4765 C   0  0  0  0  0  0  0  0  0  0  0  0
    0.5079    0.3741    4.4782 H   0  0  0  0  0  0  0  0  0  0  0  0
    1.0299   -0.4515    3.1690 H   0  0  0  0  0  0  0  0  0  0  0  0
    1.3493    1.6114    3.0147 C   0  0  0  0  0  0  0  0  0  0  0  0
    2.3230    1.4553    3.2485 H   0  0  0  0  0  0  0  0  0  0  0  0
    1.2877    1.6673    2.0048 H   0  0  0  0  0  0  0  0  0  0  0  0
    1.0297    2.5619    3.4421 H   0  0  0  0  0  0  0  0  0  0  0  0
  1  5  1  0
  5  6  1  0
  5  7  2  0
  1  2  1  0
  1  3  1  0
  1  4  1  0
  8 12  1  0
 12 15  1  0
  8  9  1  0
  8 10  1  0
  8 11  1  0
 12 13  1  0
 12 14  1  0
 15 16  1  0
 15 17  1  0
 15 18  1  0
M  CHG  1   6  -1
M  END
>  <PDB_ID>  (235) 
pdb1duv

>  <RESIDUE_NAME>  (235) 
ASP   LYS

>  <FRAG_NAME>  (235) 
ACET   PRPA

>  <FRAG_ATOM_NUM>  (235) 
fragi: 7  fragj: 11

>  <atom.prop.CHAIN_ID>  (235) 
A A A A A A A Z Z Z Z Z Z Z Z Z Z Z

>  <atom.prop.IS_HEAVY_ATOM>  (235) 
1 0 0 0 1 1 1 1 0 0 0 1 0 0 1 0 0 0

>  <DIFUSE_FUNC_ATOM>  (235) 
atom 6   atom 7   

>  <FINAL_SINGLE_POINT_ENERGY>  (235) 
0

>  <NONCOV_INTER_ENERGY_QM>  (235) 
0

>  <FF_Energy>  (235) 
16.81

>  <QM_Energy>  (235) 
1.07

>  <source>  (235) 
ACET_PRPA_02

>  <Index>  (235) 
16838

$$$$
ACET-pdb1eay-B-GLU-35:PRPA-pdb1eay-B-ARG-18
     RDKit          3D

 18 16  0  0  0  0  0  0  0  0999 V2000
    0.2553    1.5199   -0.0668 C   0  0  0  0  0  0  0  0  0  0  0  0
    0.6324    1.7170   -0.9567 H   0  0  0  0  0  0  0  0  0  0  0  0
    0.8895    1.7447    0.6548 H   0  0  0  0  0  0  0  0  0  0  0  0
   -0.6269    2.1468    0.0624 H   0  0  0  0  0  0  0  0  0  0  0  0
    0.0000    0.0000    0.0000 C   0  0  0  0  0  0  0  0  0  0  0  0
   -1.0937   -0.5280    0.0000 O   0  0  0  0  0  1  0  0  0  0  0  0
    1.0937   -0.7080    0.0000 O   0  0  0  0  0  0  0  0  0  0  0  0
   -0.4681   -1.4460   -3.4762 C   0  0  0  0  0  0  0  0  0  0  0  0
   -0.9608   -2.2492   -3.1427 H   0  0  0  0  0  0  0  0  0  0  0  0
    0.1304   -1.0993   -2.7553 H   0  0  0  0  0  0  0  0  0  0  0  0
    0.1526   -1.7506   -4.3188 H   0  0  0  0  0  0  0  0  0  0  0  0
   -1.5021   -0.3602   -3.7856 C   0  0  0  0  0  0  0  0  0  0  0  0
   -1.1093    0.2999   -4.4252 H   0  0  0  0  0  0  0  0  0  0  0  0
   -2.3124   -0.7808   -4.1928 H   0  0  0  0  0  0  0  0  0  0  0  0
   -1.9509    0.4080   -2.5335 C   0  0  0  0  0  0  0  0  0  0  0  0
   -1.5741   -0.0684   -1.7399 H   0  0  0  0  0  0  0  0  0  0  0  0
   -1.5599    1.3256   -2.5910 H   0  0  0  0  0  0  0  0  0  0  0  0
   -3.0357    0.4717   -2.4480 H   0  0  0  0  0  0  0  0  0  0  0  0
  1  5  1  0
  5  6  1  0
  5  7  2  0
  1  2  1  0
  1  3  1  0
  1  4  1  0
  8 12  1  0
 12 15  1  0
  8  9  1  0
  8 10  1  0
  8 11  1  0
 12 13  1  0
 12 14  1  0
 15 16  1  0
 15 17  1  0
 15 18  1  0
M  CHG  1   6  -1
M  END
>  <PDB_ID>  (236) 
pdb1eay

>  <RESIDUE_NAME>  (236) 
GLU   ARG

>  <FRAG_NAME>  (236) 
ACET   PRPA

>  <FRAG_ATOM_NUM>  (236) 
fragi: 7  fragj: 11

>  <atom.prop.CHAIN_ID>  (236) 
A A A A A A A Z Z Z Z Z Z Z Z Z Z Z

>  <atom.prop.IS_HEAVY_ATOM>  (236) 
1 0 0 0 1 1 1 1 0 0 0 1 0 0 1 0 0 0

>  <DIFUSE_FUNC_ATOM>  (236) 
atom 6   atom 7   

>  <FINAL_SINGLE_POINT_ENERGY>  (236) 
0

>  <NONCOV_INTER_ENERGY_QM>  (236) 
0

>  <FF_Energy>  (236) 
19.77

>  <QM_Energy>  (236) 
0.12

>  <source>  (236) 
ACET_PRPA_02

>  <Index>  (236) 
16999

$$$$
ACET-pdb1e8y-A-GLU-406:PRPA-pdb1e8y-A-LEU-373
     RDKit          3D

 18 16  0  0  0  0  0  0  0  0999 V2000
    0.0092    1.5150    0.0030 C   0  0  0  0  0  0  0  0  0  0  0  0
    0.9262    1.8121    0.2090 H   0  0  0  0  0  0  0  0  0  0  0  0
   -0.6359    1.8203    0.6837 H   0  0  0  0  0  0  0  0  0  0  0  0
   -0.2765    1.9622   -0.9491 H   0  0  0  0  0  0  0  0  0  0  0  0
    0.0000    0.0000    0.0000 C   0  0  0  0  0  0  0  0  0  0  0  0
   -1.1146   -0.5875   -0.0000 O   0  0  0  0  0  1  0  0  0  0  0  0
    1.1146   -0.5948    0.0000 O   0  0  0  0  0  0  0  0  0  0  0  0
    4.8546    2.3580   -0.4922 C   0  0  0  0  0  0  0  0  0  0  0  0
    5.6169    2.9446   -0.7732 H   0  0  0  0  0  0  0  0  0  0  0  0
    4.1790    2.3192   -1.2308 H   0  0  0  0  0  0  0  0  0  0  0  0
    5.2510    1.3515   -0.3591 H   0  0  0  0  0  0  0  0  0  0  0  0
    4.1829    3.0249    0.7089 C   0  0  0  0  0  0  0  0  0  0  0  0
    4.8304    3.0401    1.4674 H   0  0  0  0  0  0  0  0  0  0  0  0
    3.8928    4.0404    0.4391 H   0  0  0  0  0  0  0  0  0  0  0  0
    2.9879    2.2244    1.1528 C   0  0  0  0  0  0  0  0  0  0  0  0
    3.2733    1.2986    1.4154 H   0  0  0  0  0  0  0  0  0  0  0  0
    2.5518    2.6672    1.9414 H   0  0  0  0  0  0  0  0  0  0  0  0
    2.3210    2.1602    0.4050 H   0  0  0  0  0  0  0  0  0  0  0  0
  1  5  1  0
  5  6  1  0
  5  7  2  0
  1  2  1  0
  1  3  1  0
  1  4  1  0
  8 12  1  0
 12 15  1  0
  8  9  1  0
  8 10  1  0
  8 11  1  0
 12 13  1  0
 12 14  1  0
 15 16  1  0
 15 17  1  0
 15 18  1  0
M  CHG  1   6  -1
M  END
>  <PDB_ID>  (237) 
pdb1e8y

>  <RESIDUE_NAME>  (237) 
GLU   LEU

>  <FRAG_NAME>  (237) 
ACET   PRPA

>  <FRAG_ATOM_NUM>  (237) 
fragi: 7  fragj: 11

>  <atom.prop.CHAIN_ID>  (237) 
A A A A A A A Z Z Z Z Z Z Z Z Z Z Z

>  <atom.prop.IS_HEAVY_ATOM>  (237) 
1 0 0 0 1 1 1 1 0 0 0 1 0 0 1 0 0 0

>  <DIFUSE_FUNC_ATOM>  (237) 
atom 6   atom 7   

>  <FINAL_SINGLE_POINT_ENERGY>  (237) 
0

>  <NONCOV_INTER_ENERGY_QM>  (237) 
0

>  <FF_Energy>  (237) 
40.55

>  <QM_Energy>  (237) 
4.75

>  <source>  (237) 
ACET_PRPA_02

>  <Index>  (237) 
17711

$$$$
ACET-pdb1e8g-A-GLU-156:PRPA-pdb1e8g-A-ARG-161
     RDKit          3D

 18 16  0  0  0  0  0  0  0  0999 V2000
   -0.0035    1.5151   -0.0306 C   0  0  0  0  0  0  0  0  0  0  0  0
   -0.7182    1.7977   -0.6571 H   0  0  0  0  0  0  0  0  0  0  0  0
    0.8865    1.8076   -0.3575 H   0  0  0  0  0  0  0  0  0  0  0  0
   -0.1871    1.9912    0.9326 H   0  0  0  0  0  0  0  0  0  0  0  0
    0.0000    0.0000    0.0000 C   0  0  0  0  0  0  0  0  0  0  0  0
   -1.1022   -0.6106   -0.0000 O   0  0  0  0  0  1  0  0  0  0  0  0
    1.1022   -0.5995   -0.0000 O   0  0  0  0  0  0  0  0  0  0  0  0
   -4.1866   -1.4197   -0.9898 C   0  0  0  0  0  0  0  0  0  0  0  0
   -3.9283   -0.2761   -1.3659 H   0  0  0  0  0  0  0  0  0  0  0  0
   -4.1515   -0.9005    0.1253 H   0  0  0  0  0  0  0  0  0  0  0  0
   -5.2503   -1.1898   -1.0527 H   0  0  0  0  0  0  0  0  0  0  0  0
   -3.8378   -1.9031   -1.1400 C   0  0  0  0  0  0  0  0  0  0  0  0
   -4.3138   -2.9814   -1.5528 H   0  0  0  0  0  0  0  0  0  0  0  0
   -3.2098   -1.9785   -2.2166 H   0  0  0  0  0  0  0  0  0  0  0  0
   -2.7173   -2.6854   -0.4608 C   0  0  0  0  0  0  0  0  0  0  0  0
   -2.0837   -2.0295   -0.0621 H   0  0  0  0  0  0  0  0  0  0  0  0
   -3.1254   -3.2467    0.2532 H   0  0  0  0  0  0  0  0  0  0  0  0
   -2.1836   -3.3241   -1.1646 H   0  0  0  0  0  0  0  0  0  0  0  0
  1  5  1  0
  5  6  1  0
  5  7  2  0
  1  2  1  0
  1  3  1  0
  1  4  1  0
  8 12  1  0
 12 15  1  0
  8  9  1  0
  8 10  1  0
  8 11  1  0
 12 13  1  0
 12 14  1  0
 15 16  1  0
 15 17  1  0
 15 18  1  0
M  CHG  1   6  -1
M  END
>  <PDB_ID>  (238) 
pdb1e8g

>  <RESIDUE_NAME>  (238) 
GLU   ARG

>  <FRAG_NAME>  (238) 
ACET   PRPA

>  <FRAG_ATOM_NUM>  (238) 
fragi: 7  fragj: 11

>  <atom.prop.CHAIN_ID>  (238) 
A A A A A A A Z Z Z Z Z Z Z Z Z Z Z

>  <atom.prop.IS_HEAVY_ATOM>  (238) 
1 0 0 0 1 1 1 1 0 0 0 1 0 0 1 0 0 0

>  <DIFUSE_FUNC_ATOM>  (238) 
atom 6   atom 7   

>  <FINAL_SINGLE_POINT_ENERGY>  (238) 
0

>  <NONCOV_INTER_ENERGY_QM>  (238) 
0

>  <FF_Energy>  (238) 
27.29

>  <QM_Energy>  (238) 
-0.95

>  <source>  (238) 
ACET_PRPA_02

>  <Index>  (238) 
17782

$$$$
ACET-pdb2f4e-B-GLU-129:PRPA-pdb2f4e-B-LYS-50
     RDKit          3D

 18 16  0  0  0  0  0  0  0  0999 V2000
    0.0315    1.5193    0.0104 C   0  0  0  0  0  0  0  0  0  0  0  0
    0.9518    1.7935   -0.2067 H   0  0  0  0  0  0  0  0  0  0  0  0
   -0.2353    1.8102    0.9127 H   0  0  0  0  0  0  0  0  0  0  0  0
   -0.6475    1.9624   -0.7180 H   0  0  0  0  0  0  0  0  0  0  0  0
    0.0000    0.0000    0.0000 C   0  0  0  0  0  0  0  0  0  0  0  0
   -1.1079   -0.5897   -0.0000 O   0  0  0  0  0  1  0  0  0  0  0  0
    1.1079   -0.5849    0.0000 O   0  0  0  0  0  0  0  0  0  0  0  0
   -0.2444   -1.0076   -3.7521 C   0  0  0  0  0  0  0  0  0  0  0  0
    0.5073   -0.8373   -4.3977 H   0  0  0  0  0  0  0  0  0  0  0  0
   -0.2676   -0.2591   -3.0810 H   0  0  0  0  0  0  0  0  0  0  0  0
   -1.1880   -1.0326   -4.2971 H   0  0  0  0  0  0  0  0  0  0  0  0
    0.0439   -2.3136   -3.0100 C   0  0  0  0  0  0  0  0  0  0  0  0
   -0.6543   -2.4551   -2.3258 H   0  0  0  0  0  0  0  0  0  0  0  0
    0.0681   -3.0554   -3.6617 H   0  0  0  0  0  0  0  0  0  0  0  0
    1.4067   -2.2411   -2.3059 C   0  0  0  0  0  0  0  0  0  0  0  0
    2.0955   -1.9320   -2.9683 H   0  0  0  0  0  0  0  0  0  0  0  0
    1.3496   -1.5682   -1.5623 H   0  0  0  0  0  0  0  0  0  0  0  0
    1.7201   -3.1994   -1.8917 H   0  0  0  0  0  0  0  0  0  0  0  0
  1  5  1  0
  5  6  1  0
  5  7  2  0
  1  2  1  0
  1  3  1  0
  1  4  1  0
  8 12  1  0
 12 15  1  0
  8  9  1  0
  8 10  1  0
  8 11  1  0
 12 13  1  0
 12 14  1  0
 15 16  1  0
 15 17  1  0
 15 18  1  0
M  CHG  1   6  -1
M  END
>  <PDB_ID>  (239) 
pdb2f4e

>  <RESIDUE_NAME>  (239) 
GLU   LYS

>  <FRAG_NAME>  (239) 
ACET   PRPA

>  <FRAG_ATOM_NUM>  (239) 
fragi: 7  fragj: 11

>  <atom.prop.CHAIN_ID>  (239) 
A A A A A A A Z Z Z Z Z Z Z Z Z Z Z

>  <atom.prop.IS_HEAVY_ATOM>  (239) 
1 0 0 0 1 1 1 1 0 0 0 1 0 0 1 0 0 0

>  <DIFUSE_FUNC_ATOM>  (239) 
atom 6   atom 7   

>  <FINAL_SINGLE_POINT_ENERGY>  (239) 
0

>  <NONCOV_INTER_ENERGY_QM>  (239) 
0

>  <FF_Energy>  (239) 
17.76

>  <QM_Energy>  (239) 
-2.27

>  <source>  (239) 
ACET_PRPA_02

>  <Index>  (239) 
17794

$$$$
ACET-pdb2e3t-B-GLU-400:PRPA-pdb2e3t-B-PRO-252
     RDKit          3D

 18 16  0  0  0  0  0  0  0  0999 V2000
    0.0008    1.5224    0.0077 C   0  0  0  0  0  0  0  0  0  0  0  0
    0.9408    1.8185    0.0300 H   0  0  0  0  0  0  0  0  0  0  0  0
   -0.4953    1.8147    0.8076 H   0  0  0  0  0  0  0  0  0  0  0  0
   -0.4736    1.9659   -0.8677 H   0  0  0  0  0  0  0  0  0  0  0  0
    0.0000    0.0000    0.0000 C   0  0  0  0  0  0  0  0  0  0  0  0
   -1.0997   -0.5976   -0.0000 O   0  0  0  0  0  1  0  0  0  0  0  0
    1.0997   -0.6001   -0.0000 O   0  0  0  0  0  0  0  0  0  0  0  0
    2.3485    3.4865    1.9653 C   0  0  0  0  0  0  0  0  0  0  0  0
    2.4959    3.7022    2.9269 H   0  0  0  0  0  0  0  0  0  0  0  0
    1.4123    3.7055    1.7056 H   0  0  0  0  0  0  0  0  0  0  0  0
    3.0642    4.0121    1.3331 H   0  0  0  0  0  0  0  0  0  0  0  0
    2.6553    2.0427    1.6898 C   0  0  0  0  0  0  0  0  0  0  0  0
    2.2847    1.4652    2.4067 H   0  0  0  0  0  0  0  0  0  0  0  0
    2.2975    1.7741    0.8042 H   0  0  0  0  0  0  0  0  0  0  0  0
    4.1579    2.0249    1.6983 C   0  0  0  0  0  0  0  0  0  0  0  0
    4.5192    2.0182    2.6249 H   0  0  0  0  0  0  0  0  0  0  0  0
    4.5181    1.2519    1.1833 H   0  0  0  0  0  0  0  0  0  0  0  0
    4.3983    2.9641    1.1998 H   0  0  0  0  0  0  0  0  0  0  0  0
  1  5  1  0
  5  6  1  0
  5  7  2  0
  1  2  1  0
  1  3  1  0
  1  4  1  0
  8 12  1  0
 12 15  1  0
  8  9  1  0
  8 10  1  0
  8 11  1  0
 12 13  1  0
 12 14  1  0
 15 16  1  0
 15 17  1  0
 15 18  1  0
M  CHG  1   6  -1
M  END
>  <PDB_ID>  (240) 
pdb2e3t

>  <RESIDUE_NAME>  (240) 
GLU   PRO

>  <FRAG_NAME>  (240) 
ACET   PRPA

>  <FRAG_ATOM_NUM>  (240) 
fragi: 7  fragj: 11

>  <atom.prop.CHAIN_ID>  (240) 
A A A A A A A Z Z Z Z Z Z Z Z Z Z Z

>  <atom.prop.IS_HEAVY_ATOM>  (240) 
1 0 0 0 1 1 1 1 0 0 0 1 0 0 1 0 0 0

>  <DIFUSE_FUNC_ATOM>  (240) 
atom 6   atom 7   

>  <FINAL_SINGLE_POINT_ENERGY>  (240) 
0

>  <NONCOV_INTER_ENERGY_QM>  (240) 
0

>  <FF_Energy>  (240) 
20.08

>  <QM_Energy>  (240) 
1.33

>  <source>  (240) 
ACET_PRPA_02

>  <Index>  (240) 
18883

$$$$
ACET-pdb2f59-A-GLU-55:PRPA-pdb2f59-A-PRO-51
     RDKit          3D

 18 16  0  0  0  0  0  0  0  0999 V2000
    0.0203    1.5082    0.0107 C   0  0  0  0  0  0  0  0  0  0  0  0
    0.6687    1.7977   -0.6761 H   0  0  0  0  0  0  0  0  0  0  0  0
    0.3027    1.7902    0.9150 H   0  0  0  0  0  0  0  0  0  0  0  0
   -0.9519    1.9478   -0.2120 H   0  0  0  0  0  0  0  0  0  0  0  0
    0.0000    0.0000    0.0000 C   0  0  0  0  0  0  0  0  0  0  0  0
   -1.0929   -0.5996    0.0000 O   0  0  0  0  0  1  0  0  0  0  0  0
    1.0929   -0.5863    0.0000 O   0  0  0  0  0  0  0  0  0  0  0  0
    4.0044   -0.3198    2.1801 C   0  0  0  0  0  0  0  0  0  0  0  0
    3.9344   -1.2670    1.8675 H   0  0  0  0  0  0  0  0  0  0  0  0
    4.4922   -0.2911    3.0513 H   0  0  0  0  0  0  0  0  0  0  0  0
    4.5093    0.2947    1.4347 H   0  0  0  0  0  0  0  0  0  0  0  0
    2.6573    0.3077    2.2971 C   0  0  0  0  0  0  0  0  0  0  0  0
    2.0709    0.0307    1.5371 H   0  0  0  0  0  0  0  0  0  0  0  0
    2.2258    0.0576    3.1622 H   0  0  0  0  0  0  0  0  0  0  0  0
    2.9465    1.7799    2.2452 C   0  0  0  0  0  0  0  0  0  0  0  0
    2.1631    2.2972    1.9137 H   0  0  0  0  0  0  0  0  0  0  0  0
    3.2369    2.1288    3.1323 H   0  0  0  0  0  0  0  0  0  0  0  0
    3.7663    1.8269    1.5284 H   0  0  0  0  0  0  0  0  0  0  0  0
  1  5  1  0
  5  6  1  0
  5  7  2  0
  1  2  1  0
  1  3  1  0
  1  4  1  0
  8 12  1  0
 12 15  1  0
  8  9  1  0
  8 10  1  0
  8 11  1  0
 12 13  1  0
 12 14  1  0
 15 16  1  0
 15 17  1  0
 15 18  1  0
M  CHG  1   6  -1
M  END
>  <PDB_ID>  (241) 
pdb2f59

>  <RESIDUE_NAME>  (241) 
GLU   PRO

>  <FRAG_NAME>  (241) 
ACET   PRPA

>  <FRAG_ATOM_NUM>  (241) 
fragi: 7  fragj: 11

>  <atom.prop.CHAIN_ID>  (241) 
A A A A A A A Z Z Z Z Z Z Z Z Z Z Z

>  <atom.prop.IS_HEAVY_ATOM>  (241) 
1 0 0 0 1 1 1 1 0 0 0 1 0 0 1 0 0 0

>  <DIFUSE_FUNC_ATOM>  (241) 
atom 6   atom 7   

>  <FINAL_SINGLE_POINT_ENERGY>  (241) 
0

>  <NONCOV_INTER_ENERGY_QM>  (241) 
0

>  <FF_Energy>  (241) 
13.58

>  <QM_Energy>  (241) 
-2.03

>  <source>  (241) 
ACET_PRPA_02

>  <Index>  (241) 
18915

$$$$
ACET-pdb2f4n-A-ASP-169:PRPA-pdb2f4n-A-LYS-172
     RDKit          3D

 18 16  0  0  0  0  0  0  0  0999 V2000
   -0.0053    1.5351    0.0108 C   0  0  0  0  0  0  0  0  0  0  0  0
   -0.4352    1.8514   -0.8217 H   0  0  0  0  0  0  0  0  0  0  0  0
    0.9296    1.8504    0.0740 H   0  0  0  0  0  0  0  0  0  0  0  0
   -0.5609    1.9400    0.8567 H   0  0  0  0  0  0  0  0  0  0  0  0
    0.0000    0.0000    0.0000 C   0  0  0  0  0  0  0  0  0  0  0  0
   -1.0964   -0.6046   -0.0000 O   0  0  0  0  0  1  0  0  0  0  0  0
    1.0964   -0.6037   -0.0000 O   0  0  0  0  0  0  0  0  0  0  0  0
    3.6914   -2.4835    1.6713 C   0  0  0  0  0  0  0  0  0  0  0  0
    3.9348   -3.4092    1.4375 H   0  0  0  0  0  0  0  0  0  0  0  0
    2.6234   -2.4328    1.8834 H   0  0  0  0  0  0  0  0  0  0  0  0
    4.1903   -2.2150    2.6025 H   0  0  0  0  0  0  0  0  0  0  0  0
    4.0715   -1.4902    0.5545 C   0  0  0  0  0  0  0  0  0  0  0  0
    3.8421   -0.5717    0.8702 H   0  0  0  0  0  0  0  0  0  0  0  0
    5.0570   -1.5584    0.4063 H   0  0  0  0  0  0  0  0  0  0  0  0
    3.3651   -1.7352   -0.7699 C   0  0  0  0  0  0  0  0  0  0  0  0
    3.5917   -2.6543   -1.0950 H   0  0  0  0  0  0  0  0  0  0  0  0
    2.3775   -1.6664   -0.6318 H   0  0  0  0  0  0  0  0  0  0  0  0
    3.6683   -1.0092   -1.5243 H   0  0  0  0  0  0  0  0  0  0  0  0
  1  5  1  0
  5  6  1  0
  5  7  2  0
  1  2  1  0
  1  3  1  0
  1  4  1  0
  8 12  1  0
 12 15  1  0
  8  9  1  0
  8 10  1  0
  8 11  1  0
 12 13  1  0
 12 14  1  0
 15 16  1  0
 15 17  1  0
 15 18  1  0
M  CHG  1   6  -1
M  END
>  <PDB_ID>  (242) 
pdb2f4n

>  <RESIDUE_NAME>  (242) 
ASP   LYS

>  <FRAG_NAME>  (242) 
ACET   PRPA

>  <FRAG_ATOM_NUM>  (242) 
fragi: 7  fragj: 11

>  <atom.prop.CHAIN_ID>  (242) 
A A A A A A A Z Z Z Z Z Z Z Z Z Z Z

>  <atom.prop.IS_HEAVY_ATOM>  (242) 
1 0 0 0 1 1 1 1 0 0 0 1 0 0 1 0 0 0

>  <DIFUSE_FUNC_ATOM>  (242) 
atom 6   atom 7   

>  <FINAL_SINGLE_POINT_ENERGY>  (242) 
0

>  <NONCOV_INTER_ENERGY_QM>  (242) 
0

>  <FF_Energy>  (242) 
34.55

>  <QM_Energy>  (242) 
0.81

>  <source>  (242) 
ACET_PRPA_02

>  <Index>  (242) 
19527

$$$$
ACET-pdb2e3t-B-GLU-413:PRPA-pdb2e3t-B-GLN-321
     RDKit          3D

 18 16  0  0  0  0  0  0  0  0999 V2000
   -0.0035    1.5215    0.0160 C   0  0  0  0  0  0  0  0  0  0  0  0
    0.9009    1.8216   -0.2216 H   0  0  0  0  0  0  0  0  0  0  0  0
   -0.2681    1.8063    0.9177 H   0  0  0  0  0  0  0  0  0  0  0  0
   -0.7054    1.9486   -0.7002 H   0  0  0  0  0  0  0  0  0  0  0  0
    0.0000    0.0000    0.0000 C   0  0  0  0  0  0  0  0  0  0  0  0
   -1.1005   -0.5955   -0.0000 O   0  0  0  0  0  1  0  0  0  0  0  0
    1.1005   -0.5992    0.0000 O   0  0  0  0  0  0  0  0  0  0  0  0
    2.8438   -2.9833   -3.7503 C   0  0  0  0  0  0  0  0  0  0  0  0
    2.1536   -3.2523   -4.4297 H   0  0  0  0  0  0  0  0  0  0  0  0
    3.4817   -3.8458   -3.5569 H   0  0  0  0  0  0  0  0  0  0  0  0
    3.4232   -2.1632   -4.1741 H   0  0  0  0  0  0  0  0  0  0  0  0
    2.1433   -2.5087   -2.4725 C   0  0  0  0  0  0  0  0  0  0  0  0
    1.5123   -3.2165   -2.1675 H   0  0  0  0  0  0  0  0  0  0  0  0
    2.8311   -2.3380   -1.7709 H   0  0  0  0  0  0  0  0  0  0  0  0
    1.3430   -1.2171   -2.6720 C   0  0  0  0  0  0  0  0  0  0  0  0
    0.9749   -0.9297   -1.7863 H   0  0  0  0  0  0  0  0  0  0  0  0
    1.9610   -0.5089   -3.0179 H   0  0  0  0  0  0  0  0  0  0  0  0
    0.5125   -1.3197   -3.3705 H   0  0  0  0  0  0  0  0  0  0  0  0
  1  5  1  0
  5  6  1  0
  5  7  2  0
  1  2  1  0
  1  3  1  0
  1  4  1  0
  8 12  1  0
 12 15  1  0
  8  9  1  0
  8 10  1  0
  8 11  1  0
 12 13  1  0
 12 14  1  0
 15 16  1  0
 15 17  1  0
 15 18  1  0
M  CHG  1   6  -1
M  END
>  <PDB_ID>  (243) 
pdb2e3t

>  <RESIDUE_NAME>  (243) 
GLU   GLN

>  <FRAG_NAME>  (243) 
ACET   PRPA

>  <FRAG_ATOM_NUM>  (243) 
fragi: 7  fragj: 11

>  <atom.prop.CHAIN_ID>  (243) 
A A A A A A A Z Z Z Z Z Z Z Z Z Z Z

>  <atom.prop.IS_HEAVY_ATOM>  (243) 
1 0 0 0 1 1 1 1 0 0 0 1 0 0 1 0 0 0

>  <DIFUSE_FUNC_ATOM>  (243) 
atom 6   atom 7   

>  <FINAL_SINGLE_POINT_ENERGY>  (243) 
0

>  <NONCOV_INTER_ENERGY_QM>  (243) 
0

>  <FF_Energy>  (243) 
28.7

>  <QM_Energy>  (243) 
1.05

>  <source>  (243) 
ACET_PRPA_02

>  <Index>  (243) 
19702

$$$$
ACET-pdb1egw-A-ASP-61:PRPA-pdb1egw-A-LYS-64
     RDKit          3D

 18 16  0  0  0  0  0  0  0  0999 V2000
    0.0498    1.5139   -0.0186 C   0  0  0  0  0  0  0  0  0  0  0  0
    0.5346    1.8130   -0.8360 H   0  0  0  0  0  0  0  0  0  0  0  0
    0.5242    1.8331    0.7958 H   0  0  0  0  0  0  0  0  0  0  0  0
   -0.9341    1.9828   -0.0312 H   0  0  0  0  0  0  0  0  0  0  0  0
    0.0000    0.0000    0.0000 C   0  0  0  0  0  0  0  0  0  0  0  0
   -1.0947   -0.5980    0.0000 O   0  0  0  0  0  1  0  0  0  0  0  0
    1.0947   -0.5931   -0.0000 O   0  0  0  0  0  0  0  0  0  0  0  0
    1.6400    3.7914   -3.5779 C   0  0  0  0  0  0  0  0  0  0  0  0
    0.8340    4.0744   -4.0971 H   0  0  0  0  0  0  0  0  0  0  0  0
    2.3242    3.4163   -4.2045 H   0  0  0  0  0  0  0  0  0  0  0  0
    2.0643    4.6744   -3.1000 H   0  0  0  0  0  0  0  0  0  0  0  0
    1.2220    2.6886   -2.6139 C   0  0  0  0  0  0  0  0  0  0  0  0
    1.0205    3.0957   -1.7214 H   0  0  0  0  0  0  0  0  0  0  0  0
    0.3985    2.2420   -2.9671 H   0  0  0  0  0  0  0  0  0  0  0  0
    2.3142    1.6480   -2.4446 C   0  0  0  0  0  0  0  0  0  0  0  0
    2.5144    1.2439   -3.3383 H   0  0  0  0  0  0  0  0  0  0  0  0
    3.1353    2.0981   -2.0918 H   0  0  0  0  0  0  0  0  0  0  0  0
    2.0312    0.8508   -1.7572 H   0  0  0  0  0  0  0  0  0  0  0  0
  1  5  1  0
  5  6  1  0
  5  7  2  0
  1  2  1  0
  1  3  1  0
  1  4  1  0
  8 12  1  0
 12 15  1  0
  8  9  1  0
  8 10  1  0
  8 11  1  0
 12 13  1  0
 12 14  1  0
 15 16  1  0
 15 17  1  0
 15 18  1  0
M  CHG  1   6  -1
M  END
>  <PDB_ID>  (244) 
pdb1egw

>  <RESIDUE_NAME>  (244) 
ASP   LYS

>  <FRAG_NAME>  (244) 
ACET   PRPA

>  <FRAG_ATOM_NUM>  (244) 
fragi: 7  fragj: 11

>  <atom.prop.CHAIN_ID>  (244) 
A A A A A A A Z Z Z Z Z Z Z Z Z Z Z

>  <atom.prop.IS_HEAVY_ATOM>  (244) 
1 0 0 0 1 1 1 1 0 0 0 1 0 0 1 0 0 0

>  <DIFUSE_FUNC_ATOM>  (244) 
atom 6   atom 7   

>  <FINAL_SINGLE_POINT_ENERGY>  (244) 
0

>  <NONCOV_INTER_ENERGY_QM>  (244) 
0

>  <FF_Energy>  (244) 
22.78

>  <QM_Energy>  (244) 
3.3

>  <source>  (244) 
ACET_PRPA_02

>  <Index>  (244) 
19719

$$$$
ACET-pdb2f2a-D-GLU-9:PRPA-pdb2f2a-D-LYS-221
     RDKit          3D

 18 16  0  0  0  0  0  0  0  0999 V2000
   -0.0059    1.5055   -0.0008 C   0  0  0  0  0  0  0  0  0  0  0  0
   -0.3282    1.7998   -0.8806 H   0  0  0  0  0  0  0  0  0  0  0  0
    0.9112    1.8046    0.1823 H   0  0  0  0  0  0  0  0  0  0  0  0
   -0.6685    1.9031    0.7681 H   0  0  0  0  0  0  0  0  0  0  0  0
    0.0000    0.0000    0.0000 C   0  0  0  0  0  0  0  0  0  0  0  0
   -1.1001   -0.5913    0.0000 O   0  0  0  0  0  1  0  0  0  0  0  0
    1.1001   -0.5900   -0.0000 O   0  0  0  0  0  0  0  0  0  0  0  0
   -0.4977   -3.1985    2.2669 C   0  0  0  0  0  0  0  0  0  0  0  0
   -0.4038   -4.1923    2.1474 H   0  0  0  0  0  0  0  0  0  0  0  0
   -0.6244   -2.7773    1.3631 H   0  0  0  0  0  0  0  0  0  0  0  0
   -1.3801   -2.9993    2.8751 H   0  0  0  0  0  0  0  0  0  0  0  0
    0.7764   -2.6560    2.8874 C   0  0  0  0  0  0  0  0  0  0  0  0
    0.5920   -1.7635    3.2832 H   0  0  0  0  0  0  0  0  0  0  0  0
    1.0958   -3.2881    3.5832 H   0  0  0  0  0  0  0  0  0  0  0  0
    1.8794   -2.4981    1.8392 C   0  0  0  0  0  0  0  0  0  0  0  0
    1.6526   -1.7085    1.2515 H   0  0  0  0  0  0  0  0  0  0  0  0
    2.7464   -2.2906    2.3145 H   0  0  0  0  0  0  0  0  0  0  0  0
    2.0174   -3.3802    1.2138 H   0  0  0  0  0  0  0  0  0  0  0  0
  1  5  1  0
  5  6  1  0
  5  7  2  0
  1  2  1  0
  1  3  1  0
  1  4  1  0
  8 12  1  0
 12 15  1  0
  8  9  1  0
  8 10  1  0
  8 11  1  0
 12 13  1  0
 12 14  1  0
 15 16  1  0
 15 17  1  0
 15 18  1  0
M  CHG  1   6  -1
M  END
>  <PDB_ID>  (245) 
pdb2f2a

>  <RESIDUE_NAME>  (245) 
GLU   LYS

>  <FRAG_NAME>  (245) 
ACET   PRPA

>  <FRAG_ATOM_NUM>  (245) 
fragi: 7  fragj: 11

>  <atom.prop.CHAIN_ID>  (245) 
A A A A A A A Z Z Z Z Z Z Z Z Z Z Z

>  <atom.prop.IS_HEAVY_ATOM>  (245) 
1 0 0 0 1 1 1 1 0 0 0 1 0 0 1 0 0 0

>  <DIFUSE_FUNC_ATOM>  (245) 
atom 6   atom 7   

>  <FINAL_SINGLE_POINT_ENERGY>  (245) 
0

>  <NONCOV_INTER_ENERGY_QM>  (245) 
0

>  <FF_Energy>  (245) 
34.33

>  <QM_Energy>  (245) 
-0.44

>  <source>  (245) 
ACET_PRPA_02

>  <Index>  (245) 
20327

$$$$
ACET-pdb1e1e-B-ASP-461:PRPA-pdb1e1e-B-ARG-472
     RDKit          3D

 18 16  0  0  0  0  0  0  0  0999 V2000
    0.0049    1.5221   -0.0265 C   0  0  0  0  0  0  0  0  0  0  0  0
   -0.7316    1.8532    0.5544 H   0  0  0  0  0  0  0  0  0  0  0  0
   -0.1314    1.8256   -0.9635 H   0  0  0  0  0  0  0  0  0  0  0  0
    0.9366    1.9575    0.3345 H   0  0  0  0  0  0  0  0  0  0  0  0
    0.0000    0.0000    0.0000 C   0  0  0  0  0  0  0  0  0  0  0  0
   -1.0940   -0.6072    0.0000 O   0  0  0  0  0  1  0  0  0  0  0  0
    1.0940   -0.5899   -0.0000 O   0  0  0  0  0  0  0  0  0  0  0  0
    1.4118   -1.9574   -2.4298 C   0  0  0  0  0  0  0  0  0  0  0  0
    1.5142   -2.9188   -2.6764 H   0  0  0  0  0  0  0  0  0  0  0  0
    1.2320   -1.8773   -1.4514 H   0  0  0  0  0  0  0  0  0  0  0  0
    2.3555   -1.4543   -2.6406 H   0  0  0  0  0  0  0  0  0  0  0  0
    0.2235   -1.3988   -3.1781 C   0  0  0  0  0  0  0  0  0  0  0  0
    0.0999   -0.4349   -2.9488 H   0  0  0  0  0  0  0  0  0  0  0  0
    0.3664   -1.4943   -4.1622 H   0  0  0  0  0  0  0  0  0  0  0  0
   -1.0770   -2.1310   -2.8261 C   0  0  0  0  0  0  0  0  0  0  0  0
   -0.9306   -3.1052   -2.9784 H   0  0  0  0  0  0  0  0  0  0  0  0
   -1.2724   -1.9600   -1.8639 H   0  0  0  0  0  0  0  0  0  0  0  0
   -1.9217   -1.7968   -3.4287 H   0  0  0  0  0  0  0  0  0  0  0  0
  1  5  1  0
  5  6  1  0
  5  7  2  0
  1  2  1  0
  1  3  1  0
  1  4  1  0
  8 12  1  0
 12 15  1  0
  8  9  1  0
  8 10  1  0
  8 11  1  0
 12 13  1  0
 12 14  1  0
 15 16  1  0
 15 17  1  0
 15 18  1  0
M  CHG  1   6  -1
M  END
>  <PDB_ID>  (246) 
pdb1e1e

>  <RESIDUE_NAME>  (246) 
ASP   ARG

>  <FRAG_NAME>  (246) 
ACET   PRPA

>  <FRAG_ATOM_NUM>  (246) 
fragi: 7  fragj: 11

>  <atom.prop.CHAIN_ID>  (246) 
A A A A A A A Z Z Z Z Z Z Z Z Z Z Z

>  <atom.prop.IS_HEAVY_ATOM>  (246) 
1 0 0 0 1 1 1 1 0 0 0 1 0 0 1 0 0 0

>  <DIFUSE_FUNC_ATOM>  (246) 
atom 6   atom 7   

>  <FINAL_SINGLE_POINT_ENERGY>  (246) 
0

>  <NONCOV_INTER_ENERGY_QM>  (246) 
0

>  <FF_Energy>  (246) 
44.78

>  <QM_Energy>  (246) 
-3.1

>  <source>  (246) 
ACET_PRPA_02

>  <Index>  (246) 
20885

$$$$
ACET-pdb2fcr-A-ASP-29:PRPA-pdb2fcr-A-LYS-1
     RDKit          3D

 18 16  0  0  0  0  0  0  0  0999 V2000
   -0.0107    1.4920    0.0189 C   0  0  0  0  0  0  0  0  0  0  0  0
   -0.4442    1.8016    0.8901 H   0  0  0  0  0  0  0  0  0  0  0  0
   -0.6163    1.8207   -0.7334 H   0  0  0  0  0  0  0  0  0  0  0  0
    0.9435    2.0102   -0.0760 H   0  0  0  0  0  0  0  0  0  0  0  0
    0.0000    0.0000    0.0000 C   0  0  0  0  0  0  0  0  0  0  0  0
   -1.0781   -0.6261    0.0000 O   0  0  0  0  0  1  0  0  0  0  0  0
    1.0781   -0.6273   -0.0000 O   0  0  0  0  0  0  0  0  0  0  0  0
    1.0577   -1.8347    3.4566 C   0  0  0  0  0  0  0  0  0  0  0  0
    0.6636   -2.4233    2.7810 H   0  0  0  0  0  0  0  0  0  0  0  0
    0.6950   -0.9259    3.4319 H   0  0  0  0  0  0  0  0  0  0  0  0
    0.8946   -2.2619    4.4461 H   0  0  0  0  0  0  0  0  0  0  0  0
    2.5857   -1.7677    3.2275 C   0  0  0  0  0  0  0  0  0  0  0  0
    2.9069   -0.8898    3.5253 H   0  0  0  0  0  0  0  0  0  0  0  0
    3.0070   -2.5088    3.7133 H   0  0  0  0  0  0  0  0  0  0  0  0
    2.8735   -1.9231    1.7349 C   0  0  0  0  0  0  0  0  0  0  0  0
    2.8728   -2.8938    1.5047 H   0  0  0  0  0  0  0  0  0  0  0  0
    2.1625   -1.4517    1.2175 H   0  0  0  0  0  0  0  0  0  0  0  0
    3.8437   -1.4948    1.4832 H   0  0  0  0  0  0  0  0  0  0  0  0
  1  5  1  0
  5  6  1  0
  5  7  2  0
  1  2  1  0
  1  3  1  0
  1  4  1  0
  8 12  1  0
 12 15  1  0
  8  9  1  0
  8 10  1  0
  8 11  1  0
 12 13  1  0
 12 14  1  0
 15 16  1  0
 15 17  1  0
 15 18  1  0
M  CHG  1   6  -1
M  END
>  <PDB_ID>  (247) 
pdb2fcr

>  <RESIDUE_NAME>  (247) 
ASP   LYS

>  <FRAG_NAME>  (247) 
ACET   PRPA

>  <FRAG_ATOM_NUM>  (247) 
fragi: 7  fragj: 11

>  <atom.prop.CHAIN_ID>  (247) 
A A A A A A A Z Z Z Z Z Z Z Z Z Z Z

>  <atom.prop.IS_HEAVY_ATOM>  (247) 
1 0 0 0 1 1 1 1 0 0 0 1 0 0 1 0 0 0

>  <DIFUSE_FUNC_ATOM>  (247) 
atom 6   atom 7   

>  <FINAL_SINGLE_POINT_ENERGY>  (247) 
0

>  <NONCOV_INTER_ENERGY_QM>  (247) 
0

>  <FF_Energy>  (247) 
22.3

>  <QM_Energy>  (247) 
-0.98

>  <source>  (247) 
ACET_PRPA_02

>  <Index>  (247) 
21838

$$$$
ACET-pdb2fa4-B-GLU-84:PRPA-pdb2fa4-B-ARG-87
     RDKit          3D

 18 16  0  0  0  0  0  0  0  0999 V2000
   -0.0734    1.5167   -0.0574 C   0  0  0  0  0  0  0  0  0  0  0  0
   -0.6582    1.8201    0.6810 H   0  0  0  0  0  0  0  0  0  0  0  0
   -0.4511    1.7680   -0.9377 H   0  0  0  0  0  0  0  0  0  0  0  0
    0.8816    2.0311    0.0494 H   0  0  0  0  0  0  0  0  0  0  0  0
    0.0000    0.0000    0.0000 C   0  0  0  0  0  0  0  0  0  0  0  0
   -1.1029   -0.5956    0.0000 O   0  0  0  0  0  1  0  0  0  0  0  0
    1.1029   -0.6273    0.0000 O   0  0  0  0  0  0  0  0  0  0  0  0
   -3.3424   -1.6531   -2.8515 C   0  0  0  0  0  0  0  0  0  0  0  0
   -3.1433   -2.2496   -3.6145 H   0  0  0  0  0  0  0  0  0  0  0  0
   -2.5304   -1.1790   -2.5455 H   0  0  0  0  0  0  0  0  0  0  0  0
   -4.1128   -0.9343   -3.1308 H   0  0  0  0  0  0  0  0  0  0  0  0
   -3.7682   -2.6090   -1.6491 C   0  0  0  0  0  0  0  0  0  0  0  0
   -4.5121   -2.1878   -1.1798 H   0  0  0  0  0  0  0  0  0  0  0  0
   -3.9862   -3.4831   -2.0232 H   0  0  0  0  0  0  0  0  0  0  0  0
   -2.5802   -2.7493   -0.6943 C   0  0  0  0  0  0  0  0  0  0  0  0
   -1.9774   -1.9642   -0.8566 H   0  0  0  0  0  0  0  0  0  0  0  0
   -2.9449   -2.6929    0.2388 H   0  0  0  0  0  0  0  0  0  0  0  0
   -2.0343   -3.6825   -0.8329 H   0  0  0  0  0  0  0  0  0  0  0  0
  1  5  1  0
  5  6  1  0
  5  7  2  0
  1  2  1  0
  1  3  1  0
  1  4  1  0
  8 12  1  0
 12 15  1  0
  8  9  1  0
  8 10  1  0
  8 11  1  0
 12 13  1  0
 12 14  1  0
 15 16  1  0
 15 17  1  0
 15 18  1  0
M  CHG  1   6  -1
M  END
>  <PDB_ID>  (248) 
pdb2fa4

>  <RESIDUE_NAME>  (248) 
GLU   ARG

>  <FRAG_NAME>  (248) 
ACET   PRPA

>  <FRAG_ATOM_NUM>  (248) 
fragi: 7  fragj: 11

>  <atom.prop.CHAIN_ID>  (248) 
A A A A A A A Z Z Z Z Z Z Z Z Z Z Z

>  <atom.prop.IS_HEAVY_ATOM>  (248) 
1 0 0 0 1 1 1 1 0 0 0 1 0 0 1 0 0 0

>  <DIFUSE_FUNC_ATOM>  (248) 
atom 6   atom 7   

>  <FINAL_SINGLE_POINT_ENERGY>  (248) 
0

>  <NONCOV_INTER_ENERGY_QM>  (248) 
0

>  <FF_Energy>  (248) 
22.59

>  <QM_Energy>  (248) 
0.93

>  <source>  (248) 
ACET_PRPA_02

>  <Index>  (248) 
21842

$$$$
ACET-pdb2fa1-A-GLU-219:PRPA-pdb2fa1-A-ARG-216
     RDKit          3D

 18 16  0  0  0  0  0  0  0  0999 V2000
   -0.0344    1.5460   -0.0247 C   0  0  0  0  0  0  0  0  0  0  0  0
    0.2145    1.8541    0.8675 H   0  0  0  0  0  0  0  0  0  0  0  0
   -0.9369    1.8096   -0.2891 H   0  0  0  0  0  0  0  0  0  0  0  0
    0.6711    1.9663   -0.7414 H   0  0  0  0  0  0  0  0  0  0  0  0
    0.0000    0.0000    0.0000 C   0  0  0  0  0  0  0  0  0  0  0  0
   -1.0953   -0.6047    0.0000 O   0  0  0  0  0  1  0  0  0  0  0  0
    1.0953   -0.6097    0.0000 O   0  0  0  0  0  0  0  0  0  0  0  0
   -4.1837   -1.2490   -1.9147 C   0  0  0  0  0  0  0  0  0  0  0  0
   -5.0897   -1.5800   -2.0552 H   0  0  0  0  0  0  0  0  0  0  0  0
   -3.6437   -1.2800   -2.8610 H   0  0  0  0  0  0  0  0  0  0  0  0
   -4.2201   -0.1811   -1.6998 H   0  0  0  0  0  0  0  0  0  0  0  0
   -3.4393   -1.9371   -0.7732 C   0  0  0  0  0  0  0  0  0  0  0  0
   -2.5771   -1.4401   -0.6343 H   0  0  0  0  0  0  0  0  0  0  0  0
   -4.0031   -1.8429    0.0525 H   0  0  0  0  0  0  0  0  0  0  0  0
   -3.1460   -3.3612   -0.9979 C   0  0  0  0  0  0  0  0  0  0  0  0
   -3.9809   -3.8984   -1.0724 H   0  0  0  0  0  0  0  0  0  0  0  0
   -2.5787   -3.4937   -1.8051 H   0  0  0  0  0  0  0  0  0  0  0  0
   -2.5873   -3.7773   -0.1595 H   0  0  0  0  0  0  0  0  0  0  0  0
  1  5  1  0
  5  6  1  0
  5  7  2  0
  1  2  1  0
  1  3  1  0
  1  4  1  0
  8 12  1  0
 12 15  1  0
  8  9  1  0
  8 10  1  0
  8 11  1  0
 12 13  1  0
 12 14  1  0
 15 16  1  0
 15 17  1  0
 15 18  1  0
M  CHG  1   6  -1
M  END
>  <PDB_ID>  (249) 
pdb2fa1

>  <RESIDUE_NAME>  (249) 
GLU   ARG

>  <FRAG_NAME>  (249) 
ACET   PRPA

>  <FRAG_ATOM_NUM>  (249) 
fragi: 7  fragj: 11

>  <atom.prop.CHAIN_ID>  (249) 
A A A A A A A Z Z Z Z Z Z Z Z Z Z Z

>  <atom.prop.IS_HEAVY_ATOM>  (249) 
1 0 0 0 1 1 1 1 0 0 0 1 0 0 1 0 0 0

>  <DIFUSE_FUNC_ATOM>  (249) 
atom 6   atom 7   

>  <FINAL_SINGLE_POINT_ENERGY>  (249) 
0

>  <NONCOV_INTER_ENERGY_QM>  (249) 
0

>  <FF_Energy>  (249) 
28.12

>  <QM_Energy>  (249) 
-0.79

>  <source>  (249) 
ACET_PRPA_02

>  <Index>  (249) 
21890

$$$$
ACET-pdb2fa1-A-GLU-219:PRPA-pdb2fa1-A-ARG-216
     RDKit          3D

 18 16  0  0  0  0  0  0  0  0999 V2000
   -0.0344    1.5460   -0.0247 C   0  0  0  0  0  0  0  0  0  0  0  0
    0.2145    1.8541    0.8675 H   0  0  0  0  0  0  0  0  0  0  0  0
   -0.9369    1.8096   -0.2891 H   0  0  0  0  0  0  0  0  0  0  0  0
    0.6711    1.9663   -0.7414 H   0  0  0  0  0  0  0  0  0  0  0  0
    0.0000    0.0000    0.0000 C   0  0  0  0  0  0  0  0  0  0  0  0
   -1.0953   -0.6047    0.0000 O   0  0  0  0  0  1  0  0  0  0  0  0
    1.0953   -0.6097    0.0000 O   0  0  0  0  0  0  0  0  0  0  0  0
   -3.4393   -1.9371   -0.7732 C   0  0  0  0  0  0  0  0  0  0  0  0
   -2.5771   -1.4401   -0.6343 H   0  0  0  0  0  0  0  0  0  0  0  0
   -4.0031   -1.8429    0.0525 H   0  0  0  0  0  0  0  0  0  0  0  0
   -3.9708   -1.4458   -1.5882 H   0  0  0  0  0  0  0  0  0  0  0  0
   -3.1460   -3.3612   -0.9979 C   0  0  0  0  0  0  0  0  0  0  0  0
   -3.9809   -3.8984   -1.0724 H   0  0  0  0  0  0  0  0  0  0  0  0
   -2.5787   -3.4937   -1.8051 H   0  0  0  0  0  0  0  0  0  0  0  0
   -2.3460   -3.9571    0.2028 C   0  0  0  0  0  0  0  0  0  0  0  0
   -2.3453   -4.9347    0.0956 H   0  0  0  0  0  0  0  0  0  0  0  0
   -1.4388   -3.5782    0.1640 H   0  0  0  0  0  0  0  0  0  0  0  0
   -2.8269   -3.6828    1.1417 H   0  0  0  0  0  0  0  0  0  0  0  0
  1  5  1  0
  5  6  1  0
  5  7  2  0
  1  2  1  0
  1  3  1  0
  1  4  1  0
  8 12  1  0
 12 15  1  0
  8  9  1  0
  8 10  1  0
  8 11  1  0
 12 13  1  0
 12 14  1  0
 15 16  1  0
 15 17  1  0
 15 18  1  0
M  CHG  1   6  -1
M  END
>  <PDB_ID>  (250) 
pdb2fa1

>  <RESIDUE_NAME>  (250) 
GLU   ARG

>  <FRAG_NAME>  (250) 
ACET   PRPA

>  <FRAG_ATOM_NUM>  (250) 
fragi: 7  fragj: 11

>  <atom.prop.CHAIN_ID>  (250) 
A A A A A A A Z Z Z Z Z Z Z Z Z Z Z

>  <atom.prop.IS_HEAVY_ATOM>  (250) 
1 0 0 0 1 1 1 1 0 0 0 1 0 0 1 0 0 0

>  <DIFUSE_FUNC_ATOM>  (250) 
atom 6   atom 7   

>  <FINAL_SINGLE_POINT_ENERGY>  (250) 
0

>  <NONCOV_INTER_ENERGY_QM>  (250) 
0

>  <FF_Energy>  (250) 
24.52

>  <QM_Energy>  (250) 
-1.12

>  <source>  (250) 
ACET_PRPA_02

>  <Index>  (250) 
21901

$$$$
ACET-pdb1e9r-A-GLU-434:PRPA-pdb1e9r-A-ARG-89
     RDKit          3D

 18 16  0  0  0  0  0  0  0  0999 V2000
    0.0103    1.5047   -0.0028 C   0  0  0  0  0  0  0  0  0  0  0  0
   -0.4003    1.8072   -0.8445 H   0  0  0  0  0  0  0  0  0  0  0  0
    0.9466    1.7993    0.0775 H   0  0  0  0  0  0  0  0  0  0  0  0
   -0.5557    1.9307    0.8256 H   0  0  0  0  0  0  0  0  0  0  0  0
    0.0000    0.0000    0.0000 C   0  0  0  0  0  0  0  0  0  0  0  0
   -1.1032   -0.5886    0.0000 O   0  0  0  0  0  1  0  0  0  0  0  0
    1.1032   -0.5949   -0.0000 O   0  0  0  0  0  0  0  0  0  0  0  0
   -4.9908    0.7975    2.9384 C   0  0  0  0  0  0  0  0  0  0  0  0
   -4.5206    0.5507    3.7763 H   0  0  0  0  0  0  0  0  0  0  0  0
   -5.8703    0.3420    2.8812 H   0  0  0  0  0  0  0  0  0  0  0  0
   -5.1680    1.8728    2.9562 H   0  0  0  0  0  0  0  0  0  0  0  0
   -4.1481    0.3612    1.7675 C   0  0  0  0  0  0  0  0  0  0  0  0
   -4.7111   -0.1902    1.1324 H   0  0  0  0  0  0  0  0  0  0  0  0
   -3.8254    1.1754    1.2609 H   0  0  0  0  0  0  0  0  0  0  0  0
   -2.9254   -0.4646    2.1351 C   0  0  0  0  0  0  0  0  0  0  0  0
   -2.3297   -0.5097    1.3275 H   0  0  0  0  0  0  0  0  0  0  0  0
   -2.4376    0.0190    2.8687 H   0  0  0  0  0  0  0  0  0  0  0  0
   -3.1597   -1.4767    2.4653 H   0  0  0  0  0  0  0  0  0  0  0  0
  1  5  1  0
  5  6  1  0
  5  7  2  0
  1  2  1  0
  1  3  1  0
  1  4  1  0
  8 12  1  0
 12 15  1  0
  8  9  1  0
  8 10  1  0
  8 11  1  0
 12 13  1  0
 12 14  1  0
 15 16  1  0
 15 17  1  0
 15 18  1  0
M  CHG  1   6  -1
M  END
>  <PDB_ID>  (251) 
pdb1e9r

>  <RESIDUE_NAME>  (251) 
GLU   ARG

>  <FRAG_NAME>  (251) 
ACET   PRPA

>  <FRAG_ATOM_NUM>  (251) 
fragi: 7  fragj: 11

>  <atom.prop.CHAIN_ID>  (251) 
A A A A A A A Z Z Z Z Z Z Z Z Z Z Z

>  <atom.prop.IS_HEAVY_ATOM>  (251) 
1 0 0 0 1 1 1 1 0 0 0 1 0 0 1 0 0 0

>  <DIFUSE_FUNC_ATOM>  (251) 
atom 6   atom 7   

>  <FINAL_SINGLE_POINT_ENERGY>  (251) 
0

>  <NONCOV_INTER_ENERGY_QM>  (251) 
0

>  <FF_Energy>  (251) 
24.77

>  <QM_Energy>  (251) 
-0.28

>  <source>  (251) 
ACET_PRPA_02

>  <Index>  (251) 
22677

$$$$
ACET-pdb1e0t-C-ASP-174:PRPA-pdb1e0t-C-LEU-170
     RDKit          3D

 18 16  0  0  0  0  0  0  0  0999 V2000
    0.0086    1.5414    0.0003 C   0  0  0  0  0  0  0  0  0  0  0  0
    0.6265    1.8449   -0.7245 H   0  0  0  0  0  0  0  0  0  0  0  0
    0.3548    1.8467    0.8853 H   0  0  0  0  0  0  0  0  0  0  0  0
   -0.9670    1.9989   -0.1646 H   0  0  0  0  0  0  0  0  0  0  0  0
    0.0000    0.0000    0.0000 C   0  0  0  0  0  0  0  0  0  0  0  0
   -1.1330   -0.5620    0.0000 O   0  0  0  0  0  1  0  0  0  0  0  0
    1.1330   -0.5899   -0.0000 O   0  0  0  0  0  0  0  0  0  0  0  0
    3.2543    3.7734   -0.2095 C   0  0  0  0  0  0  0  0  0  0  0  0
    4.0276    4.4725   -0.4095 H   0  0  0  0  0  0  0  0  0  0  0  0
    2.5394    4.0568   -0.9394 H   0  0  0  0  0  0  0  0  0  0  0  0
    3.6397    2.8072   -0.5349 H   0  0  0  0  0  0  0  0  0  0  0  0
    2.6719    4.1690    1.1194 C   0  0  0  0  0  0  0  0  0  0  0  0
    3.3363    4.0490    1.8307 H   0  0  0  0  0  0  0  0  0  0  0  0
    2.4353    5.2296    1.0335 H   0  0  0  0  0  0  0  0  0  0  0  0
    1.5220    3.3523    1.6556 C   0  0  0  0  0  0  0  0  0  0  0  0
    1.8072    2.3973    1.7725 H   0  0  0  0  0  0  0  0  0  0  0  0
    1.2285    3.7174    2.5420 H   0  0  0  0  0  0  0  0  0  0  0  0
    0.7505    3.3876    1.0155 H   0  0  0  0  0  0  0  0  0  0  0  0
  1  5  1  0
  5  6  1  0
  5  7  2  0
  1  2  1  0
  1  3  1  0
  1  4  1  0
  8 12  1  0
 12 15  1  0
  8  9  1  0
  8 10  1  0
  8 11  1  0
 12 13  1  0
 12 14  1  0
 15 16  1  0
 15 17  1  0
 15 18  1  0
M  CHG  1   6  -1
M  END
>  <PDB_ID>  (252) 
pdb1e0t

>  <RESIDUE_NAME>  (252) 
ASP   LEU

>  <FRAG_NAME>  (252) 
ACET   PRPA

>  <FRAG_ATOM_NUM>  (252) 
fragi: 7  fragj: 11

>  <atom.prop.CHAIN_ID>  (252) 
A A A A A A A Z Z Z Z Z Z Z Z Z Z Z

>  <atom.prop.IS_HEAVY_ATOM>  (252) 
1 0 0 0 1 1 1 1 0 0 0 1 0 0 1 0 0 0

>  <DIFUSE_FUNC_ATOM>  (252) 
atom 6   atom 7   

>  <FINAL_SINGLE_POINT_ENERGY>  (252) 
0

>  <NONCOV_INTER_ENERGY_QM>  (252) 
0

>  <FF_Energy>  (252) 
37.46

>  <QM_Energy>  (252) 
10.08

>  <source>  (252) 
ACET_PRPA_02

>  <Index>  (252) 
24910

$$$$
ACET-pdb1e0t-C-ASP-174:PRPA-pdb1e0t-C-LEU-170
     RDKit          3D

 18 16  0  0  0  0  0  0  0  0999 V2000
    0.0086    1.5414    0.0003 C   0  0  0  0  0  0  0  0  0  0  0  0
    0.6265    1.8449   -0.7245 H   0  0  0  0  0  0  0  0  0  0  0  0
    0.3548    1.8467    0.8853 H   0  0  0  0  0  0  0  0  0  0  0  0
   -0.9670    1.9989   -0.1646 H   0  0  0  0  0  0  0  0  0  0  0  0
    0.0000    0.0000    0.0000 C   0  0  0  0  0  0  0  0  0  0  0  0
   -1.1330   -0.5620    0.0000 O   0  0  0  0  0  1  0  0  0  0  0  0
    1.1330   -0.5899   -0.0000 O   0  0  0  0  0  0  0  0  0  0  0  0
    2.3378    5.6666    0.9981 C   0  0  0  0  0  0  0  0  0  0  0  0
    1.6811    5.7949    0.2587 H   0  0  0  0  0  0  0  0  0  0  0  0
    1.9447    5.9831    1.8587 H   0  0  0  0  0  0  0  0  0  0  0  0
    3.1748    6.1717    0.8002 H   0  0  0  0  0  0  0  0  0  0  0  0
    2.6719    4.1690    1.1194 C   0  0  0  0  0  0  0  0  0  0  0  0
    3.3363    4.0490    1.8307 H   0  0  0  0  0  0  0  0  0  0  0  0
    3.0941    3.8823    0.1562 H   0  0  0  0  0  0  0  0  0  0  0  0
    1.5220    3.3523    1.6556 C   0  0  0  0  0  0  0  0  0  0  0  0
    1.8072    2.3973    1.7725 H   0  0  0  0  0  0  0  0  0  0  0  0
    1.2285    3.7174    2.5420 H   0  0  0  0  0  0  0  0  0  0  0  0
    0.7505    3.3876    1.0155 H   0  0  0  0  0  0  0  0  0  0  0  0
  1  5  1  0
  5  6  1  0
  5  7  2  0
  1  2  1  0
  1  3  1  0
  1  4  1  0
  8 12  1  0
 12 15  1  0
  8  9  1  0
  8 10  1  0
  8 11  1  0
 12 13  1  0
 12 14  1  0
 15 16  1  0
 15 17  1  0
 15 18  1  0
M  CHG  1   6  -1
M  END
>  <PDB_ID>  (253) 
pdb1e0t

>  <RESIDUE_NAME>  (253) 
ASP   LEU

>  <FRAG_NAME>  (253) 
ACET   PRPA

>  <FRAG_ATOM_NUM>  (253) 
fragi: 7  fragj: 11

>  <atom.prop.CHAIN_ID>  (253) 
A A A A A A A Z Z Z Z Z Z Z Z Z Z Z

>  <atom.prop.IS_HEAVY_ATOM>  (253) 
1 0 0 0 1 1 1 1 0 0 0 1 0 0 1 0 0 0

>  <DIFUSE_FUNC_ATOM>  (253) 
atom 6   atom 7   

>  <FINAL_SINGLE_POINT_ENERGY>  (253) 
0

>  <NONCOV_INTER_ENERGY_QM>  (253) 
0

>  <FF_Energy>  (253) 
37.14

>  <QM_Energy>  (253) 
10.23

>  <source>  (253) 
ACET_PRPA_02

>  <Index>  (253) 
24920

$$$$
ACET-pdb2exh-B-GLU-289:PRPA-pdb2exh-B-ARG-268
     RDKit          3D

 18 16  0  0  0  0  0  0  0  0999 V2000
    0.0096    1.5058    0.0103 C   0  0  0  0  0  0  0  0  0  0  0  0
   -0.8141    1.8197   -0.4309 H   0  0  0  0  0  0  0  0  0  0  0  0
    0.8188    1.8085   -0.4642 H   0  0  0  0  0  0  0  0  0  0  0  0
    0.0318    1.9317    1.0134 H   0  0  0  0  0  0  0  0  0  0  0  0
    0.0000    0.0000    0.0000 C   0  0  0  0  0  0  0  0  0  0  0  0
   -1.0938   -0.5879   -0.0000 O   0  0  0  0  0  1  0  0  0  0  0  0
    1.0938   -0.6002   -0.0000 O   0  0  0  0  0  0  0  0  0  0  0  0
    3.9633   -3.2233    0.4953 C   0  0  0  0  0  0  0  0  0  0  0  0
    3.3752   -3.0509   -0.2922 H   0  0  0  0  0  0  0  0  0  0  0  0
    4.1040   -4.2057    0.6014 H   0  0  0  0  0  0  0  0  0  0  0  0
    4.9307   -2.7581    0.3061 H   0  0  0  0  0  0  0  0  0  0  0  0
    3.2597   -2.7123    1.7308 C   0  0  0  0  0  0  0  0  0  0  0  0
    3.3395   -3.3715    2.4561 H   0  0  0  0  0  0  0  0  0  0  0  0
    3.6257   -1.8354    1.9834 H   0  0  0  0  0  0  0  0  0  0  0  0
    1.7979   -2.5426    1.3930 C   0  0  0  0  0  0  0  0  0  0  0  0
    1.4333   -1.8119    1.9575 H   0  0  0  0  0  0  0  0  0  0  0  0
    1.7299   -2.3087    0.4306 H   0  0  0  0  0  0  0  0  0  0  0  0
    1.2564   -3.4680    1.5889 H   0  0  0  0  0  0  0  0  0  0  0  0
  1  5  1  0
  5  6  1  0
  5  7  2  0
  1  2  1  0
  1  3  1  0
  1  4  1  0
  8 12  1  0
 12 15  1  0
  8  9  1  0
  8 10  1  0
  8 11  1  0
 12 13  1  0
 12 14  1  0
 15 16  1  0
 15 17  1  0
 15 18  1  0
M  CHG  1   6  -1
M  END
>  <PDB_ID>  (254) 
pdb2exh

>  <RESIDUE_NAME>  (254) 
GLU   ARG

>  <FRAG_NAME>  (254) 
ACET   PRPA

>  <FRAG_ATOM_NUM>  (254) 
fragi: 7  fragj: 11

>  <atom.prop.CHAIN_ID>  (254) 
A A A A A A A Z Z Z Z Z Z Z Z Z Z Z

>  <atom.prop.IS_HEAVY_ATOM>  (254) 
1 0 0 0 1 1 1 1 0 0 0 1 0 0 1 0 0 0

>  <DIFUSE_FUNC_ATOM>  (254) 
atom 6   atom 7   

>  <FINAL_SINGLE_POINT_ENERGY>  (254) 
0

>  <NONCOV_INTER_ENERGY_QM>  (254) 
0

>  <FF_Energy>  (254) 
26.7

>  <QM_Energy>  (254) 
5.99

>  <source>  (254) 
ACET_PRPA_02

>  <Index>  (254) 
26729

$$$$
ACET-pdb2fk7-A-ASP-63:PRPA-pdb2fk7-A-ARG-90
     RDKit          3D

 18 16  0  0  0  0  0  0  0  0999 V2000
   -0.0182    1.5526   -0.0018 C   0  0  0  0  0  0  0  0  0  0  0  0
    0.6209    1.8711   -0.6798 H   0  0  0  0  0  0  0  0  0  0  0  0
    0.2149    1.8686    0.9009 H   0  0  0  0  0  0  0  0  0  0  0  0
   -0.9988    1.9563   -0.2536 H   0  0  0  0  0  0  0  0  0  0  0  0
    0.0000    0.0000    0.0000 C   0  0  0  0  0  0  0  0  0  0  0  0
   -1.0915   -0.6326   -0.0000 O   0  0  0  0  0  1  0  0  0  0  0  0
    1.0915   -0.6058    0.0000 O   0  0  0  0  0  0  0  0  0  0  0  0
   -4.4298   -3.4781   -2.1367 C   0  0  0  0  0  0  0  0  0  0  0  0
   -3.8562   -3.8452   -2.8448 H   0  0  0  0  0  0  0  0  0  0  0  0
   -5.0129   -2.7577   -2.4640 H   0  0  0  0  0  0  0  0  0  0  0  0
   -5.0518   -4.2796   -1.7383 H   0  0  0  0  0  0  0  0  0  0  0  0
   -3.4553   -2.8208   -1.0510 C   0  0  0  0  0  0  0  0  0  0  0  0
   -3.8344   -1.8915   -0.8207 H   0  0  0  0  0  0  0  0  0  0  0  0
   -3.5487   -3.3679   -0.1839 H   0  0  0  0  0  0  0  0  0  0  0  0
   -1.9173   -2.6403   -1.3202 C   0  0  0  0  0  0  0  0  0  0  0  0
   -1.8418   -2.0129   -2.0864 H   0  0  0  0  0  0  0  0  0  0  0  0
   -1.5386   -2.2327   -0.4964 H   0  0  0  0  0  0  0  0  0  0  0  0
   -1.4373   -3.5931   -1.5437 H   0  0  0  0  0  0  0  0  0  0  0  0
  1  5  1  0
  5  6  1  0
  5  7  2  0
  1  2  1  0
  1  3  1  0
  1  4  1  0
  8 12  1  0
 12 15  1  0
  8  9  1  0
  8 10  1  0
  8 11  1  0
 12 13  1  0
 12 14  1  0
 15 16  1  0
 15 17  1  0
 15 18  1  0
M  CHG  1   6  -1
M  END
>  <PDB_ID>  (255) 
pdb2fk7

>  <RESIDUE_NAME>  (255) 
ASP   ARG

>  <FRAG_NAME>  (255) 
ACET   PRPA

>  <FRAG_ATOM_NUM>  (255) 
fragi: 7  fragj: 11

>  <atom.prop.CHAIN_ID>  (255) 
A A A A A A A Z Z Z Z Z Z Z Z Z Z Z

>  <atom.prop.IS_HEAVY_ATOM>  (255) 
1 0 0 0 1 1 1 1 0 0 0 1 0 0 1 0 0 0

>  <DIFUSE_FUNC_ATOM>  (255) 
atom 6   atom 7   

>  <FINAL_SINGLE_POINT_ENERGY>  (255) 
0

>  <NONCOV_INTER_ENERGY_QM>  (255) 
0

>  <FF_Energy>  (255) 
41.54

>  <QM_Energy>  (255) 
4.45

>  <source>  (255) 
ACET_PRPA_02

>  <Index>  (255) 
26865

$$$$
ACET-pdb1dm5-F-ASP-278:PRPA-pdb1dm5-F-ARG-274
     RDKit          3D

 18 16  0  0  0  0  0  0  0  0999 V2000
    0.0066    1.5128    0.0664 C   0  0  0  0  0  0  0  0  0  0  0  0
    0.2072    1.8732   -0.8392 H   0  0  0  0  0  0  0  0  0  0  0  0
    0.7031    1.8037    0.7144 H   0  0  0  0  0  0  0  0  0  0  0  0
   -0.9467    1.9310    0.3895 H   0  0  0  0  0  0  0  0  0  0  0  0
    0.0000    0.0000    0.0000 C   0  0  0  0  0  0  0  0  0  0  0  0
   -1.1016   -0.5883    0.0000 O   0  0  0  0  0  1  0  0  0  0  0  0
    1.1016   -0.5919    0.0000 O   0  0  0  0  0  0  0  0  0  0  0  0
   -4.0710   -2.3921    0.1279 C   0  0  0  0  0  0  0  0  0  0  0  0
   -4.8387   -2.3126   -0.5029 H   0  0  0  0  0  0  0  0  0  0  0  0
   -3.4707   -1.6028    0.0347 H   0  0  0  0  0  0  0  0  0  0  0  0
   -4.4631   -2.4066    1.1448 H   0  0  0  0  0  0  0  0  0  0  0  0
   -3.2744   -3.6348   -0.2558 C   0  0  0  0  0  0  0  0  0  0  0  0
   -3.5171   -4.3805    0.3395 H   0  0  0  0  0  0  0  0  0  0  0  0
   -3.4340   -3.8505   -1.2032 H   0  0  0  0  0  0  0  0  0  0  0  0
   -1.7862   -3.3438   -0.0770 C   0  0  0  0  0  0  0  0  0  0  0  0
   -1.3250   -3.5784   -0.9253 H   0  0  0  0  0  0  0  0  0  0  0  0
   -1.6871   -2.3734    0.1168 H   0  0  0  0  0  0  0  0  0  0  0  0
   -1.3640   -3.9258    0.7423 H   0  0  0  0  0  0  0  0  0  0  0  0
  1  5  1  0
  5  6  1  0
  5  7  2  0
  1  2  1  0
  1  3  1  0
  1  4  1  0
  8 12  1  0
 12 15  1  0
  8  9  1  0
  8 10  1  0
  8 11  1  0
 12 13  1  0
 12 14  1  0
 15 16  1  0
 15 17  1  0
 15 18  1  0
M  CHG  1   6  -1
M  END
>  <PDB_ID>  (256) 
pdb1dm5

>  <RESIDUE_NAME>  (256) 
ASP   ARG

>  <FRAG_NAME>  (256) 
ACET   PRPA

>  <FRAG_ATOM_NUM>  (256) 
fragi: 7  fragj: 11

>  <atom.prop.CHAIN_ID>  (256) 
A A A A A A A Z Z Z Z Z Z Z Z Z Z Z

>  <atom.prop.IS_HEAVY_ATOM>  (256) 
1 0 0 0 1 1 1 1 0 0 0 1 0 0 1 0 0 0

>  <DIFUSE_FUNC_ATOM>  (256) 
atom 6   atom 7   

>  <FINAL_SINGLE_POINT_ENERGY>  (256) 
0

>  <NONCOV_INTER_ENERGY_QM>  (256) 
0

>  <FF_Energy>  (256) 
15.23

>  <QM_Energy>  (256) 
-1.11

>  <source>  (256) 
ACET_PRPA_02

>  <Index>  (256) 
27186

$$$$
ACET-pdb1eqw-A-GLU-148:PRPA-pdb1eqw-A-LYS-111
     RDKit          3D

 18 16  0  0  0  0  0  0  0  0999 V2000
    0.1686    1.4840    0.0131 C   0  0  0  0  0  0  0  0  0  0  0  0
    0.6891    1.7407   -0.8041 H   0  0  0  0  0  0  0  0  0  0  0  0
    0.7009    1.7243    0.8279 H   0  0  0  0  0  0  0  0  0  0  0  0
   -0.7417    2.0833    0.0251 H   0  0  0  0  0  0  0  0  0  0  0  0
    0.0000    0.0000    0.0000 C   0  0  0  0  0  0  0  0  0  0  0  0
   -1.0901   -0.5597    0.0000 O   0  0  0  0  0  1  0  0  0  0  0  0
    1.0901   -0.6057    0.0000 O   0  0  0  0  0  0  0  0  0  0  0  0
   -4.1151    0.6604    2.9318 C   0  0  0  0  0  0  0  0  0  0  0  0
   -4.9990    0.3187    3.2292 H   0  0  0  0  0  0  0  0  0  0  0  0
   -4.1766    1.0315    2.0119 H   0  0  0  0  0  0  0  0  0  0  0  0
   -3.8164    1.4648    3.6040 H   0  0  0  0  0  0  0  0  0  0  0  0
   -3.1301   -0.5112    2.9126 C   0  0  0  0  0  0  0  0  0  0  0  0
   -3.0574   -0.8862    3.8393 H   0  0  0  0  0  0  0  0  0  0  0  0
   -3.4820   -1.2185    2.2972 H   0  0  0  0  0  0  0  0  0  0  0  0
   -1.7459   -0.0884    2.4416 C   0  0  0  0  0  0  0  0  0  0  0  0
   -1.8196    0.3050    1.5310 H   0  0  0  0  0  0  0  0  0  0  0  0
   -1.3767    0.5801    3.0787 H   0  0  0  0  0  0  0  0  0  0  0  0
   -1.0588   -0.9333    2.3952 H   0  0  0  0  0  0  0  0  0  0  0  0
  1  5  1  0
  5  6  1  0
  5  7  2  0
  1  2  1  0
  1  3  1  0
  1  4  1  0
  8 12  1  0
 12 15  1  0
  8  9  1  0
  8 10  1  0
  8 11  1  0
 12 13  1  0
 12 14  1  0
 15 16  1  0
 15 17  1  0
 15 18  1  0
M  CHG  1   6  -1
M  END
>  <PDB_ID>  (257) 
pdb1eqw

>  <RESIDUE_NAME>  (257) 
GLU   LYS

>  <FRAG_NAME>  (257) 
ACET   PRPA

>  <FRAG_ATOM_NUM>  (257) 
fragi: 7  fragj: 11

>  <atom.prop.CHAIN_ID>  (257) 
A A A A A A A Z Z Z Z Z Z Z Z Z Z Z

>  <atom.prop.IS_HEAVY_ATOM>  (257) 
1 0 0 0 1 1 1 1 0 0 0 1 0 0 1 0 0 0

>  <DIFUSE_FUNC_ATOM>  (257) 
atom 6   atom 7   

>  <FINAL_SINGLE_POINT_ENERGY>  (257) 
0

>  <NONCOV_INTER_ENERGY_QM>  (257) 
0

>  <FF_Energy>  (257) 
22.7

>  <QM_Energy>  (257) 
5.34

>  <source>  (257) 
ACET_PRPA_02

>  <Index>  (257) 
28516

$$$$
ACET-pdb1eqw-A-GLU-148:PRPA-pdb1eqw-A-LYS-111
     RDKit          3D

 18 16  0  0  0  0  0  0  0  0999 V2000
    0.1686    1.4840    0.0131 C   0  0  0  0  0  0  0  0  0  0  0  0
    0.6891    1.7407   -0.8041 H   0  0  0  0  0  0  0  0  0  0  0  0
    0.7009    1.7243    0.8279 H   0  0  0  0  0  0  0  0  0  0  0  0
   -0.7417    2.0833    0.0251 H   0  0  0  0  0  0  0  0  0  0  0  0
    0.0000    0.0000    0.0000 C   0  0  0  0  0  0  0  0  0  0  0  0
   -1.0901   -0.5597    0.0000 O   0  0  0  0  0  1  0  0  0  0  0  0
    1.0901   -0.6057    0.0000 O   0  0  0  0  0  0  0  0  0  0  0  0
   -3.1301   -0.5112    2.9126 C   0  0  0  0  0  0  0  0  0  0  0  0
   -3.0574   -0.8862    3.8393 H   0  0  0  0  0  0  0  0  0  0  0  0
   -3.4820   -1.2185    2.2972 H   0  0  0  0  0  0  0  0  0  0  0  0
   -3.8314    0.3230    2.9262 H   0  0  0  0  0  0  0  0  0  0  0  0
   -1.7459   -0.0884    2.4416 C   0  0  0  0  0  0  0  0  0  0  0  0
   -1.8196    0.3050    1.5310 H   0  0  0  0  0  0  0  0  0  0  0  0
   -1.3767    0.5801    3.0787 H   0  0  0  0  0  0  0  0  0  0  0  0
   -0.7810   -1.2748    2.3764 C   0  0  0  0  0  0  0  0  0  0  0  0
   -0.7465   -1.7101    3.2799 H   0  0  0  0  0  0  0  0  0  0  0  0
   -1.1319   -1.9381    1.7099 H   0  0  0  0  0  0  0  0  0  0  0  0
    0.2245   -0.9713    2.0851 H   0  0  0  0  0  0  0  0  0  0  0  0
  1  5  1  0
  5  6  1  0
  5  7  2  0
  1  2  1  0
  1  3  1  0
  1  4  1  0
  8 12  1  0
 12 15  1  0
  8  9  1  0
  8 10  1  0
  8 11  1  0
 12 13  1  0
 12 14  1  0
 15 16  1  0
 15 17  1  0
 15 18  1  0
M  CHG  1   6  -1
M  END
>  <PDB_ID>  (258) 
pdb1eqw

>  <RESIDUE_NAME>  (258) 
GLU   LYS

>  <FRAG_NAME>  (258) 
ACET   PRPA

>  <FRAG_ATOM_NUM>  (258) 
fragi: 7  fragj: 11

>  <atom.prop.CHAIN_ID>  (258) 
A A A A A A A Z Z Z Z Z Z Z Z Z Z Z

>  <atom.prop.IS_HEAVY_ATOM>  (258) 
1 0 0 0 1 1 1 1 0 0 0 1 0 0 1 0 0 0

>  <DIFUSE_FUNC_ATOM>  (258) 
atom 6   atom 7   

>  <FINAL_SINGLE_POINT_ENERGY>  (258) 
0

>  <NONCOV_INTER_ENERGY_QM>  (258) 
0

>  <FF_Energy>  (258) 
44.6

>  <QM_Energy>  (258) 
8.62

>  <source>  (258) 
ACET_PRPA_02

>  <Index>  (258) 
28527

$$$$
ACET-pdb1e0t-D-ASP-39:PRPA-pdb1e0t-D-GLU-42
     RDKit          3D

 18 16  0  0  0  0  0  0  0  0999 V2000
    0.0289    1.5175    0.0266 C   0  0  0  0  0  0  0  0  0  0  0  0
    0.3051    1.8460   -0.8681 H   0  0  0  0  0  0  0  0  0  0  0  0
    0.6744    1.8113    0.7210 H   0  0  0  0  0  0  0  0  0  0  0  0
   -0.9439    1.9493    0.2616 H   0  0  0  0  0  0  0  0  0  0  0  0
    0.0000    0.0000    0.0000 C   0  0  0  0  0  0  0  0  0  0  0  0
   -1.0716   -0.6445   -0.0000 O   0  0  0  0  0  1  0  0  0  0  0  0
    1.0716   -0.6255    0.0000 O   0  0  0  0  0  0  0  0  0  0  0  0
   -3.9095   -2.6904    0.4438 C   0  0  0  0  0  0  0  0  0  0  0  0
   -3.9250   -3.7073    0.4571 H   0  0  0  0  0  0  0  0  0  0  0  0
   -3.3053   -2.3426   -0.3941 H   0  0  0  0  0  0  0  0  0  0  0  0
   -4.9332   -2.3175    0.4093 H   0  0  0  0  0  0  0  0  0  0  0  0
   -3.2922   -2.1153    1.7135 C   0  0  0  0  0  0  0  0  0  0  0  0
   -3.3652   -1.1346    1.6626 H   0  0  0  0  0  0  0  0  0  0  0  0
   -3.7877   -2.4842    2.4797 H   0  0  0  0  0  0  0  0  0  0  0  0
   -1.8378   -2.4633    1.8895 C   0  0  0  0  0  0  0  0  0  0  0  0
   -1.7693   -3.3994    2.1332 H   0  0  0  0  0  0  0  0  0  0  0  0
   -1.3584   -2.2200    1.0816 H   0  0  0  0  0  0  0  0  0  0  0  0
   -1.4310   -1.8724    2.7102 H   0  0  0  0  0  0  0  0  0  0  0  0
  1  5  1  0
  5  6  1  0
  5  7  2  0
  1  2  1  0
  1  3  1  0
  1  4  1  0
  8 12  1  0
 12 15  1  0
  8  9  1  0
  8 10  1  0
  8 11  1  0
 12 13  1  0
 12 14  1  0
 15 16  1  0
 15 17  1  0
 15 18  1  0
M  CHG  1   6  -1
M  END
>  <PDB_ID>  (259) 
pdb1e0t

>  <RESIDUE_NAME>  (259) 
ASP   GLU

>  <FRAG_NAME>  (259) 
ACET   PRPA

>  <FRAG_ATOM_NUM>  (259) 
fragi: 7  fragj: 11

>  <atom.prop.CHAIN_ID>  (259) 
A A A A A A A Z Z Z Z Z Z Z Z Z Z Z

>  <atom.prop.IS_HEAVY_ATOM>  (259) 
1 0 0 0 1 1 1 1 0 0 0 1 0 0 1 0 0 0

>  <DIFUSE_FUNC_ATOM>  (259) 
atom 6   atom 7   

>  <FINAL_SINGLE_POINT_ENERGY>  (259) 
0

>  <NONCOV_INTER_ENERGY_QM>  (259) 
0

>  <FF_Energy>  (259) 
13.36

>  <QM_Energy>  (259) 
-2.32

>  <source>  (259) 
ACET_PRPA_02

>  <Index>  (259) 
28746

$$$$
ACET-pdb1eg7-A-ASP-1498:PRPA-pdb1eg7-A-ILE-1528
     RDKit          3D

 18 16  0  0  0  0  0  0  0  0999 V2000
    0.0167    1.5121   -0.0094 C   0  0  0  0  0  0  0  0  0  0  0  0
    0.3289    1.8236   -0.9020 H   0  0  0  0  0  0  0  0  0  0  0  0
    0.6358    1.8302    0.7014 H   0  0  0  0  0  0  0  0  0  0  0  0
   -0.9652    1.9475    0.1764 H   0  0  0  0  0  0  0  0  0  0  0  0
    0.0000    0.0000    0.0000 C   0  0  0  0  0  0  0  0  0  0  0  0
   -1.1006   -0.5943    0.0000 O   0  0  0  0  0  1  0  0  0  0  0  0
    1.1006   -0.5955    0.0000 O   0  0  0  0  0  0  0  0  0  0  0  0
    4.4374    2.8469   -2.1867 C   0  0  0  0  0  0  0  0  0  0  0  0
    5.1323    2.1501   -1.9948 H   0  0  0  0  0  0  0  0  0  0  0  0
    4.9388    3.8124   -2.1185 H   0  0  0  0  0  0  0  0  0  0  0  0
    4.0973    2.6741   -3.2078 H   0  0  0  0  0  0  0  0  0  0  0  0
    3.2063    2.7831   -1.2873 C   0  0  0  0  0  0  0  0  0  0  0  0
    2.5077    3.3811   -1.6714 H   0  0  0  0  0  0  0  0  0  0  0  0
    3.4421    3.1430   -0.2858 H   0  0  0  0  0  0  0  0  0  0  0  0
    2.7127    1.3505   -1.2425 C   0  0  0  0  0  0  0  0  0  0  0  0
    1.8875    1.2961   -0.6800 H   0  0  0  0  0  0  0  0  0  0  0  0
    2.5019    1.0375   -2.1683 H   0  0  0  0  0  0  0  0  0  0  0  0
    3.4192    0.7632   -0.8497 H   0  0  0  0  0  0  0  0  0  0  0  0
  1  5  1  0
  5  6  1  0
  5  7  2  0
  1  2  1  0
  1  3  1  0
  1  4  1  0
  8 12  1  0
 12 15  1  0
  8  9  1  0
  8 10  1  0
  8 11  1  0
 12 13  1  0
 12 14  1  0
 15 16  1  0
 15 17  1  0
 15 18  1  0
M  CHG  1   6  -1
M  END
>  <PDB_ID>  (260) 
pdb1eg7

>  <RESIDUE_NAME>  (260) 
ASP   ILE

>  <FRAG_NAME>  (260) 
ACET   PRPA

>  <FRAG_ATOM_NUM>  (260) 
fragi: 7  fragj: 11

>  <atom.prop.CHAIN_ID>  (260) 
A A A A A A A Z Z Z Z Z Z Z Z Z Z Z

>  <atom.prop.IS_HEAVY_ATOM>  (260) 
1 0 0 0 1 1 1 1 0 0 0 1 0 0 1 0 0 0

>  <DIFUSE_FUNC_ATOM>  (260) 
atom 6   atom 7   

>  <FINAL_SINGLE_POINT_ENERGY>  (260) 
0

>  <NONCOV_INTER_ENERGY_QM>  (260) 
0

>  <FF_Energy>  (260) 
38.25

>  <QM_Energy>  (260) 
7.64

>  <source>  (260) 
ACET_PRPA_02

>  <Index>  (260) 
28811

$$$$
ACET-pdb1eg7-A-ASP-1498:PRPA-pdb1eg7-A-ILE-1528
     RDKit          3D

 18 16  0  0  0  0  0  0  0  0999 V2000
    0.0167    1.5121   -0.0094 C   0  0  0  0  0  0  0  0  0  0  0  0
    0.3289    1.8236   -0.9020 H   0  0  0  0  0  0  0  0  0  0  0  0
    0.6358    1.8302    0.7014 H   0  0  0  0  0  0  0  0  0  0  0  0
   -0.9652    1.9475    0.1764 H   0  0  0  0  0  0  0  0  0  0  0  0
    0.0000    0.0000    0.0000 C   0  0  0  0  0  0  0  0  0  0  0  0
   -1.1006   -0.5943    0.0000 O   0  0  0  0  0  1  0  0  0  0  0  0
    1.1006   -0.5955    0.0000 O   0  0  0  0  0  0  0  0  0  0  0  0
    3.5367    3.2873    0.1159 C   0  0  0  0  0  0  0  0  0  0  0  0
    3.8931    4.2199    0.0385 H   0  0  0  0  0  0  0  0  0  0  0  0
    2.6850    3.3199    0.6422 H   0  0  0  0  0  0  0  0  0  0  0  0
    4.2593    2.6702    0.6499 H   0  0  0  0  0  0  0  0  0  0  0  0
    3.2063    2.7831   -1.2873 C   0  0  0  0  0  0  0  0  0  0  0  0
    2.5077    3.3811   -1.6714 H   0  0  0  0  0  0  0  0  0  0  0  0
    4.0857    2.8286   -1.9298 H   0  0  0  0  0  0  0  0  0  0  0  0
    2.7127    1.3505   -1.2425 C   0  0  0  0  0  0  0  0  0  0  0  0
    1.8875    1.2961   -0.6800 H   0  0  0  0  0  0  0  0  0  0  0  0
    2.5019    1.0375   -2.1683 H   0  0  0  0  0  0  0  0  0  0  0  0
    3.4192    0.7632   -0.8497 H   0  0  0  0  0  0  0  0  0  0  0  0
  1  5  1  0
  5  6  1  0
  5  7  2  0
  1  2  1  0
  1  3  1  0
  1  4  1  0
  8 12  1  0
 12 15  1  0
  8  9  1  0
  8 10  1  0
  8 11  1  0
 12 13  1  0
 12 14  1  0
 15 16  1  0
 15 17  1  0
 15 18  1  0
M  CHG  1   6  -1
M  END
>  <PDB_ID>  (261) 
pdb1eg7

>  <RESIDUE_NAME>  (261) 
ASP   ILE

>  <FRAG_NAME>  (261) 
ACET   PRPA

>  <FRAG_ATOM_NUM>  (261) 
fragi: 7  fragj: 11

>  <atom.prop.CHAIN_ID>  (261) 
A A A A A A A Z Z Z Z Z Z Z Z Z Z Z

>  <atom.prop.IS_HEAVY_ATOM>  (261) 
1 0 0 0 1 1 1 1 0 0 0 1 0 0 1 0 0 0

>  <DIFUSE_FUNC_ATOM>  (261) 
atom 6   atom 7   

>  <FINAL_SINGLE_POINT_ENERGY>  (261) 
0

>  <NONCOV_INTER_ENERGY_QM>  (261) 
0

>  <FF_Energy>  (261) 
38.22

>  <QM_Energy>  (261) 
7.5

>  <source>  (261) 
ACET_PRPA_02

>  <Index>  (261) 
28830

$$$$
ACET-pdb1ew3-A-GLU-152:PRPA-pdb1ew3-A-LYS-155
     RDKit          3D

 18 16  0  0  0  0  0  0  0  0999 V2000
   -0.0384    1.5246    0.0434 C   0  0  0  0  0  0  0  0  0  0  0  0
   -0.6983    1.8232   -0.6382 H   0  0  0  0  0  0  0  0  0  0  0  0
    0.8714    1.8497   -0.1927 H   0  0  0  0  0  0  0  0  0  0  0  0
   -0.3179    1.9707    0.9978 H   0  0  0  0  0  0  0  0  0  0  0  0
    0.0000    0.0000    0.0000 C   0  0  0  0  0  0  0  0  0  0  0  0
   -1.1007   -0.6088   -0.0000 O   0  0  0  0  0  1  0  0  0  0  0  0
    1.1007   -0.6131    0.0000 O   0  0  0  0  0  0  0  0  0  0  0  0
    1.5068   -2.8068    2.2967 C   0  0  0  0  0  0  0  0  0  0  0  0
    2.0238   -2.0346    1.9610 H   0  0  0  0  0  0  0  0  0  0  0  0
    1.9444   -3.6623    2.0676 H   0  0  0  0  0  0  0  0  0  0  0  0
    1.3842   -2.7291    3.3770 H   0  0  0  0  0  0  0  0  0  0  0  0
    0.1159   -2.7815    1.6407 C   0  0  0  0  0  0  0  0  0  0  0  0
   -0.5651   -2.9215    2.3426 H   0  0  0  0  0  0  0  0  0  0  0  0
   -0.0034   -1.9124    1.1877 H   0  0  0  0  0  0  0  0  0  0  0  0
   -0.0013   -3.8962    0.6096 C   0  0  0  0  0  0  0  0  0  0  0  0
    0.8954   -4.0433    0.1870 H   0  0  0  0  0  0  0  0  0  0  0  0
   -0.2882   -4.7379    1.0719 H   0  0  0  0  0  0  0  0  0  0  0  0
   -0.7256   -3.6510   -0.1670 H   0  0  0  0  0  0  0  0  0  0  0  0
  1  5  1  0
  5  6  1  0
  5  7  2  0
  1  2  1  0
  1  3  1  0
  1  4  1  0
  8 12  1  0
 12 15  1  0
  8  9  1  0
  8 10  1  0
  8 11  1  0
 12 13  1  0
 12 14  1  0
 15 16  1  0
 15 17  1  0
 15 18  1  0
M  CHG  1   6  -1
M  END
>  <PDB_ID>  (262) 
pdb1ew3

>  <RESIDUE_NAME>  (262) 
GLU   LYS

>  <FRAG_NAME>  (262) 
ACET   PRPA

>  <FRAG_ATOM_NUM>  (262) 
fragi: 7  fragj: 11

>  <atom.prop.CHAIN_ID>  (262) 
A A A A A A A Z Z Z Z Z Z Z Z Z Z Z

>  <atom.prop.IS_HEAVY_ATOM>  (262) 
1 0 0 0 1 1 1 1 0 0 0 1 0 0 1 0 0 0

>  <DIFUSE_FUNC_ATOM>  (262) 
atom 6   atom 7   

>  <FINAL_SINGLE_POINT_ENERGY>  (262) 
0

>  <NONCOV_INTER_ENERGY_QM>  (262) 
0

>  <FF_Energy>  (262) 
15.76

>  <QM_Energy>  (262) 
-2.55

>  <source>  (262) 
ACET_PRPA_02

>  <Index>  (262) 
29435

$$$$
ACET-pdb1ezj-A-GLU-25:PRPA-pdb1ezj-A-ILE-20
     RDKit          3D

 18 16  0  0  0  0  0  0  0  0999 V2000
   -0.0160    1.5086   -0.0036 C   0  0  0  0  0  0  0  0  0  0  0  0
   -0.2686    1.8003   -0.9022 H   0  0  0  0  0  0  0  0  0  0  0  0
    0.8742    1.8143    0.2644 H   0  0  0  0  0  0  0  0  0  0  0  0
   -0.7486    1.8905    0.7074 H   0  0  0  0  0  0  0  0  0  0  0  0
    0.0000    0.0000    0.0000 C   0  0  0  0  0  0  0  0  0  0  0  0
   -1.0981   -0.5977   -0.0000 O   0  0  0  0  0  1  0  0  0  0  0  0
    1.0981   -0.5912    0.0000 O   0  0  0  0  0  0  0  0  0  0  0  0
   -1.3853   -2.4838   -2.7810 C   0  0  0  0  0  0  0  0  0  0  0  0
   -0.4482   -2.7269   -2.5882 H   0  0  0  0  0  0  0  0  0  0  0  0
   -1.6467   -2.9727   -3.7194 H   0  0  0  0  0  0  0  0  0  0  0  0
   -1.9930   -2.9656   -2.0151 H   0  0  0  0  0  0  0  0  0  0  0  0
   -1.6615   -0.9582   -2.8138 C   0  0  0  0  0  0  0  0  0  0  0  0
   -1.4394   -0.5920   -1.9163 H   0  0  0  0  0  0  0  0  0  0  0  0
   -2.7151   -0.7615   -3.0117 H   0  0  0  0  0  0  0  0  0  0  0  0
   -0.8028   -0.3033   -3.8910 C   0  0  0  0  0  0  0  0  0  0  0  0
   -0.9614    0.6820   -3.8887 H   0  0  0  0  0  0  0  0  0  0  0  0
    0.1604   -0.4866   -3.7045 H   0  0  0  0  0  0  0  0  0  0  0  0
   -1.0474   -0.6780   -4.7829 H   0  0  0  0  0  0  0  0  0  0  0  0
  1  5  1  0
  5  6  1  0
  5  7  2  0
  1  2  1  0
  1  3  1  0
  1  4  1  0
  8 12  1  0
 12 15  1  0
  8  9  1  0
  8 10  1  0
  8 11  1  0
 12 13  1  0
 12 14  1  0
 15 16  1  0
 15 17  1  0
 15 18  1  0
M  CHG  1   6  -1
M  END
>  <PDB_ID>  (263) 
pdb1ezj

>  <RESIDUE_NAME>  (263) 
GLU   ILE

>  <FRAG_NAME>  (263) 
ACET   PRPA

>  <FRAG_ATOM_NUM>  (263) 
fragi: 7  fragj: 11

>  <atom.prop.CHAIN_ID>  (263) 
A A A A A A A Z Z Z Z Z Z Z Z Z Z Z

>  <atom.prop.IS_HEAVY_ATOM>  (263) 
1 0 0 0 1 1 1 1 0 0 0 1 0 0 1 0 0 0

>  <DIFUSE_FUNC_ATOM>  (263) 
atom 6   atom 7   

>  <FINAL_SINGLE_POINT_ENERGY>  (263) 
0

>  <NONCOV_INTER_ENERGY_QM>  (263) 
0

>  <FF_Energy>  (263) 
12.9

>  <QM_Energy>  (263) 
-2.31

>  <source>  (263) 
ACET_PRPA_02

>  <Index>  (263) 
30404

$$$$
ACET-pdb2frh-A-ASP-108:PRPA-pdb2frh-A-GLU-111
     RDKit          3D

 18 16  0  0  0  0  0  0  0  0999 V2000
   -0.0368    1.4949    0.0408 C   0  0  0  0  0  0  0  0  0  0  0  0
   -0.1362    1.7993    0.9840 H   0  0  0  0  0  0  0  0  0  0  0  0
   -0.7996    1.8239   -0.5077 H   0  0  0  0  0  0  0  0  0  0  0  0
    0.8690    1.9552   -0.3540 H   0  0  0  0  0  0  0  0  0  0  0  0
    0.0000    0.0000    0.0000 C   0  0  0  0  0  0  0  0  0  0  0  0
   -1.0833   -0.5756    0.0000 O   0  0  0  0  0  1  0  0  0  0  0  0
    1.0833   -0.5987   -0.0000 O   0  0  0  0  0  0  0  0  0  0  0  0
    4.0497   -2.6463   -1.2385 C   0  0  0  0  0  0  0  0  0  0  0  0
    4.0481   -3.6506   -1.2584 H   0  0  0  0  0  0  0  0  0  0  0  0
    3.7110   -2.3012   -0.2616 H   0  0  0  0  0  0  0  0  0  0  0  0
    5.0541   -2.2715   -1.4355 H   0  0  0  0  0  0  0  0  0  0  0  0
    3.0733   -2.2023   -2.3175 C   0  0  0  0  0  0  0  0  0  0  0  0
    3.1300   -1.2382   -2.3819 H   0  0  0  0  0  0  0  0  0  0  0  0
    3.2977   -2.6798   -3.1289 H   0  0  0  0  0  0  0  0  0  0  0  0
    1.7064   -2.5768   -1.9010 C   0  0  0  0  0  0  0  0  0  0  0  0
    1.6887   -3.5563   -1.7147 H   0  0  0  0  0  0  0  0  0  0  0  0
    1.4747   -2.0709   -1.0727 H   0  0  0  0  0  0  0  0  0  0  0  0
    0.9374   -2.3654   -2.6440 H   0  0  0  0  0  0  0  0  0  0  0  0
  1  5  1  0
  5  6  1  0
  5  7  2  0
  1  2  1  0
  1  3  1  0
  1  4  1  0
  8 12  1  0
 12 15  1  0
  8  9  1  0
  8 10  1  0
  8 11  1  0
 12 13  1  0
 12 14  1  0
 15 16  1  0
 15 17  1  0
 15 18  1  0
M  CHG  1   6  -1
M  END
>  <PDB_ID>  (264) 
pdb2frh

>  <RESIDUE_NAME>  (264) 
ASP   GLU

>  <FRAG_NAME>  (264) 
ACET   PRPA

>  <FRAG_ATOM_NUM>  (264) 
fragi: 7  fragj: 11

>  <atom.prop.CHAIN_ID>  (264) 
A A A A A A A Z Z Z Z Z Z Z Z Z Z Z

>  <atom.prop.IS_HEAVY_ATOM>  (264) 
1 0 0 0 1 1 1 1 0 0 0 1 0 0 1 0 0 0

>  <DIFUSE_FUNC_ATOM>  (264) 
atom 6   atom 7   

>  <FINAL_SINGLE_POINT_ENERGY>  (264) 
0

>  <NONCOV_INTER_ENERGY_QM>  (264) 
0

>  <FF_Energy>  (264) 
17.72

>  <QM_Energy>  (264) 
-1.45

>  <source>  (264) 
ACET_PRPA_02

>  <Index>  (264) 
31075

$$$$
ACET-pdb1eg7-B-ASP-1387:PRPA-pdb1eg7-B-VAL-1334
     RDKit          3D

 18 16  0  0  0  0  0  0  0  0999 V2000
    0.0009    1.5193    0.0254 C   0  0  0  0  0  0  0  0  0  0  0  0
    0.8357    1.8454   -0.4034 H   0  0  0  0  0  0  0  0  0  0  0  0
   -0.0471    1.8235    0.9690 H   0  0  0  0  0  0  0  0  0  0  0  0
   -0.8436    1.9523   -0.5107 H   0  0  0  0  0  0  0  0  0  0  0  0
    0.0000    0.0000    0.0000 C   0  0  0  0  0  0  0  0  0  0  0  0
   -1.0998   -0.5982   -0.0000 O   0  0  0  0  0  1  0  0  0  0  0  0
    1.0998   -0.5957   -0.0000 O   0  0  0  0  0  0  0  0  0  0  0  0
   -1.0454   -2.6059    3.4120 C   0  0  0  0  0  0  0  0  0  0  0  0
   -1.0726   -2.5228    4.4042 H   0  0  0  0  0  0  0  0  0  0  0  0
   -0.1081   -3.0876    3.1333 H   0  0  0  0  0  0  0  0  0  0  0  0
   -1.8628   -3.2576    3.1036 H   0  0  0  0  0  0  0  0  0  0  0  0
   -1.1983   -1.2287    2.7239 C   0  0  0  0  0  0  0  0  0  0  0  0
   -1.0185   -1.3580    1.7551 H   0  0  0  0  0  0  0  0  0  0  0  0
   -0.5108   -0.5112    3.1717 H   0  0  0  0  0  0  0  0  0  0  0  0
   -2.6252   -0.7319    2.8558 C   0  0  0  0  0  0  0  0  0  0  0  0
   -2.6451    0.2632    2.7576 H   0  0  0  0  0  0  0  0  0  0  0  0
   -3.1931   -1.1458    2.1430 H   0  0  0  0  0  0  0  0  0  0  0  0
   -2.9875   -0.9829    3.7546 H   0  0  0  0  0  0  0  0  0  0  0  0
  1  5  1  0
  5  6  1  0
  5  7  2  0
  1  2  1  0
  1  3  1  0
  1  4  1  0
  8 12  1  0
 12 15  1  0
  8  9  1  0
  8 10  1  0
  8 11  1  0
 12 13  1  0
 12 14  1  0
 15 16  1  0
 15 17  1  0
 15 18  1  0
M  CHG  1   6  -1
M  END
>  <PDB_ID>  (265) 
pdb1eg7

>  <RESIDUE_NAME>  (265) 
ASP   VAL

>  <FRAG_NAME>  (265) 
ACET   PRPA

>  <FRAG_ATOM_NUM>  (265) 
fragi: 7  fragj: 11

>  <atom.prop.CHAIN_ID>  (265) 
A A A A A A A Z Z Z Z Z Z Z Z Z Z Z

>  <atom.prop.IS_HEAVY_ATOM>  (265) 
1 0 0 0 1 1 1 1 0 0 0 1 0 0 1 0 0 0

>  <DIFUSE_FUNC_ATOM>  (265) 
atom 6   atom 7   

>  <FINAL_SINGLE_POINT_ENERGY>  (265) 
0

>  <NONCOV_INTER_ENERGY_QM>  (265) 
0

>  <FF_Energy>  (265) 
16.64

>  <QM_Energy>  (265) 
-1.39

>  <source>  (265) 
ACET_PRPA_02

>  <Index>  (265) 
31853

$$$$
ACET-pdb1eg7-B-ASP-1387:PRPA-pdb1eg7-B-VAL-1334
     RDKit          3D

 18 16  0  0  0  0  0  0  0  0999 V2000
    0.0009    1.5193    0.0254 C   0  0  0  0  0  0  0  0  0  0  0  0
    0.8357    1.8454   -0.4034 H   0  0  0  0  0  0  0  0  0  0  0  0
   -0.0471    1.8235    0.9690 H   0  0  0  0  0  0  0  0  0  0  0  0
   -0.8436    1.9523   -0.5107 H   0  0  0  0  0  0  0  0  0  0  0  0
    0.0000    0.0000    0.0000 C   0  0  0  0  0  0  0  0  0  0  0  0
   -1.0998   -0.5982   -0.0000 O   0  0  0  0  0  1  0  0  0  0  0  0
    1.0998   -0.5957   -0.0000 O   0  0  0  0  0  0  0  0  0  0  0  0
   -1.0454   -2.6059    3.4120 C   0  0  0  0  0  0  0  0  0  0  0  0
   -1.0726   -2.5228    4.4042 H   0  0  0  0  0  0  0  0  0  0  0  0
   -0.1081   -3.0876    3.1333 H   0  0  0  0  0  0  0  0  0  0  0  0
   -1.8628   -3.2576    3.1036 H   0  0  0  0  0  0  0  0  0  0  0  0
   -1.1983   -1.2287    2.7239 C   0  0  0  0  0  0  0  0  0  0  0  0
   -1.0185   -1.3580    1.7551 H   0  0  0  0  0  0  0  0  0  0  0  0
   -2.2238   -0.8717    2.8187 H   0  0  0  0  0  0  0  0  0  0  0  0
   -0.2386   -0.2271    3.3490 C   0  0  0  0  0  0  0  0  0  0  0  0
    0.6974   -0.5667    3.2590 H   0  0  0  0  0  0  0  0  0  0  0  0
   -0.3247    0.6504    2.8781 H   0  0  0  0  0  0  0  0  0  0  0  0
   -0.4642   -0.1131    4.3163 H   0  0  0  0  0  0  0  0  0  0  0  0
  1  5  1  0
  5  6  1  0
  5  7  2  0
  1  2  1  0
  1  3  1  0
  1  4  1  0
  8 12  1  0
 12 15  1  0
  8  9  1  0
  8 10  1  0
  8 11  1  0
 12 13  1  0
 12 14  1  0
 15 16  1  0
 15 17  1  0
 15 18  1  0
M  CHG  1   6  -1
M  END
>  <PDB_ID>  (266) 
pdb1eg7

>  <RESIDUE_NAME>  (266) 
ASP   VAL

>  <FRAG_NAME>  (266) 
ACET   PRPA

>  <FRAG_ATOM_NUM>  (266) 
fragi: 7  fragj: 11

>  <atom.prop.CHAIN_ID>  (266) 
A A A A A A A Z Z Z Z Z Z Z Z Z Z Z

>  <atom.prop.IS_HEAVY_ATOM>  (266) 
1 0 0 0 1 1 1 1 0 0 0 1 0 0 1 0 0 0

>  <DIFUSE_FUNC_ATOM>  (266) 
atom 6   atom 7   

>  <FINAL_SINGLE_POINT_ENERGY>  (266) 
0

>  <NONCOV_INTER_ENERGY_QM>  (266) 
0

>  <FF_Energy>  (266) 
16.7

>  <QM_Energy>  (266) 
-1.28

>  <source>  (266) 
ACET_PRPA_02

>  <Index>  (266) 
31857

$$$$
ACET-pdb1exz-A-GLU-47:PRPA-pdb1exz-A-LYS-103
     RDKit          3D

 18 16  0  0  0  0  0  0  0  0999 V2000
    0.0109    1.5266   -0.0128 C   0  0  0  0  0  0  0  0  0  0  0  0
    0.0407    1.8135   -0.9503 H   0  0  0  0  0  0  0  0  0  0  0  0
    0.7968    1.8195    0.4967 H   0  0  0  0  0  0  0  0  0  0  0  0
   -0.8771    1.9591    0.4481 H   0  0  0  0  0  0  0  0  0  0  0  0
    0.0000    0.0000    0.0000 C   0  0  0  0  0  0  0  0  0  0  0  0
   -1.0943   -0.6046    0.0000 O   0  0  0  0  0  1  0  0  0  0  0  0
    1.0943   -0.5980    0.0000 O   0  0  0  0  0  0  0  0  0  0  0  0
    0.5632   -1.8080   -2.5833 C   0  0  0  0  0  0  0  0  0  0  0  0
    0.5597   -1.0323   -1.9479 H   0  0  0  0  0  0  0  0  0  0  0  0
   -0.0706   -1.5687   -3.4373 H   0  0  0  0  0  0  0  0  0  0  0  0
    1.5852   -1.9825   -2.9199 H   0  0  0  0  0  0  0  0  0  0  0  0
    0.0369   -3.0336   -1.8243 C   0  0  0  0  0  0  0  0  0  0  0  0
   -0.9095   -2.8591   -1.5698 H   0  0  0  0  0  0  0  0  0  0  0  0
    0.0892   -3.8217   -2.4317 H   0  0  0  0  0  0  0  0  0  0  0  0
    0.8236   -3.3534   -0.5542 C   0  0  0  0  0  0  0  0  0  0  0  0
    1.7288   -3.6990   -0.8127 H   0  0  0  0  0  0  0  0  0  0  0  0
    0.9337   -2.5128   -0.0206 H   0  0  0  0  0  0  0  0  0  0  0  0
    0.3240   -4.1001    0.0629 H   0  0  0  0  0  0  0  0  0  0  0  0
  1  5  1  0
  5  6  1  0
  5  7  2  0
  1  2  1  0
  1  3  1  0
  1  4  1  0
  8 12  1  0
 12 15  1  0
  8  9  1  0
  8 10  1  0
  8 11  1  0
 12 13  1  0
 12 14  1  0
 15 16  1  0
 15 17  1  0
 15 18  1  0
M  CHG  1   6  -1
M  END
>  <PDB_ID>  (267) 
pdb1exz

>  <RESIDUE_NAME>  (267) 
GLU   LYS

>  <FRAG_NAME>  (267) 
ACET   PRPA

>  <FRAG_ATOM_NUM>  (267) 
fragi: 7  fragj: 11

>  <atom.prop.CHAIN_ID>  (267) 
A A A A A A A Z Z Z Z Z Z Z Z Z Z Z

>  <atom.prop.IS_HEAVY_ATOM>  (267) 
1 0 0 0 1 1 1 1 0 0 0 1 0 0 1 0 0 0

>  <DIFUSE_FUNC_ATOM>  (267) 
atom 6   atom 7   

>  <FINAL_SINGLE_POINT_ENERGY>  (267) 
0

>  <NONCOV_INTER_ENERGY_QM>  (267) 
0

>  <FF_Energy>  (267) 
23.77

>  <QM_Energy>  (267) 
-0.36

>  <source>  (267) 
ACET_PRPA_02

>  <Index>  (267) 
32270

$$$$
ACET-pdb2frh-B-ASP-108:PRPA-pdb2frh-B-GLU-111
     RDKit          3D

 18 16  0  0  0  0  0  0  0  0999 V2000
   -0.0290    1.4963    0.0377 C   0  0  0  0  0  0  0  0  0  0  0  0
   -0.1602    1.7999    0.9779 H   0  0  0  0  0  0  0  0  0  0  0  0
   -0.7746    1.8268   -0.5340 H   0  0  0  0  0  0  0  0  0  0  0  0
    0.8917    1.9515   -0.3276 H   0  0  0  0  0  0  0  0  0  0  0  0
    0.0000    0.0000    0.0000 C   0  0  0  0  0  0  0  0  0  0  0  0
   -1.0741   -0.6088    0.0000 O   0  0  0  0  0  1  0  0  0  0  0  0
    1.0741   -0.5835    0.0000 O   0  0  0  0  0  0  0  0  0  0  0  0
    4.0526   -2.6881   -1.0791 C   0  0  0  0  0  0  0  0  0  0  0  0
    4.0440   -3.6940   -1.0898 H   0  0  0  0  0  0  0  0  0  0  0  0
    3.6869   -2.3291   -0.1171 H   0  0  0  0  0  0  0  0  0  0  0  0
    5.0656   -2.3262   -1.2552 H   0  0  0  0  0  0  0  0  0  0  0  0
    3.1143   -2.2387   -2.1812 C   0  0  0  0  0  0  0  0  0  0  0  0
    3.1846   -1.2738   -2.2506 H   0  0  0  0  0  0  0  0  0  0  0  0
    3.3553   -2.7208   -2.9872 H   0  0  0  0  0  0  0  0  0  0  0  0
    1.7304   -2.5924   -1.8078 C   0  0  0  0  0  0  0  0  0  0  0  0
    1.6955   -3.5655   -1.5989 H   0  0  0  0  0  0  0  0  0  0  0  0
    1.4691   -2.0613   -1.0059 H   0  0  0  0  0  0  0  0  0  0  0  0
    0.9961   -2.3949   -2.5887 H   0  0  0  0  0  0  0  0  0  0  0  0
  1  5  1  0
  5  6  1  0
  5  7  2  0
  1  2  1  0
  1  3  1  0
  1  4  1  0
  8 12  1  0
 12 15  1  0
  8  9  1  0
  8 10  1  0
  8 11  1  0
 12 13  1  0
 12 14  1  0
 15 16  1  0
 15 17  1  0
 15 18  1  0
M  CHG  1   6  -1
M  END
>  <PDB_ID>  (268) 
pdb2frh

>  <RESIDUE_NAME>  (268) 
ASP   GLU

>  <FRAG_NAME>  (268) 
ACET   PRPA

>  <FRAG_ATOM_NUM>  (268) 
fragi: 7  fragj: 11

>  <atom.prop.CHAIN_ID>  (268) 
A A A A A A A Z Z Z Z Z Z Z Z Z Z Z

>  <atom.prop.IS_HEAVY_ATOM>  (268) 
1 0 0 0 1 1 1 1 0 0 0 1 0 0 1 0 0 0

>  <DIFUSE_FUNC_ATOM>  (268) 
atom 6   atom 7   

>  <FINAL_SINGLE_POINT_ENERGY>  (268) 
0

>  <NONCOV_INTER_ENERGY_QM>  (268) 
0

>  <FF_Energy>  (268) 
22.47

>  <QM_Energy>  (268) 
-0.91

>  <source>  (268) 
ACET_PRPA_02

>  <Index>  (268) 
33376

$$$$
ACET-pdb1eg7-B-ASP-1498:PRPA-pdb1eg7-B-ILE-1528
     RDKit          3D

 18 16  0  0  0  0  0  0  0  0999 V2000
    0.0026    1.5158    0.0090 C   0  0  0  0  0  0  0  0  0  0  0  0
   -0.7016    1.8398   -0.6142 H   0  0  0  0  0  0  0  0  0  0  0  0
    0.8971    1.8357   -0.2847 H   0  0  0  0  0  0  0  0  0  0  0  0
   -0.1998    1.9339    0.9951 H   0  0  0  0  0  0  0  0  0  0  0  0
    0.0000    0.0000    0.0000 C   0  0  0  0  0  0  0  0  0  0  0  0
   -1.0988   -0.5941    0.0000 O   0  0  0  0  0  1  0  0  0  0  0  0
    1.0988   -0.5982   -0.0000 O   0  0  0  0  0  0  0  0  0  0  0  0
    0.3727    4.2244   -4.5729 C   0  0  0  0  0  0  0  0  0  0  0  0
    0.8201    3.5986   -5.1979 H   0  0  0  0  0  0  0  0  0  0  0  0
    0.6561    5.2301   -4.8835 H   0  0  0  0  0  0  0  0  0  0  0  0
   -0.6985    4.1335   -4.7530 H   0  0  0  0  0  0  0  0  0  0  0  0
    0.6578    3.9925   -3.0863 C   0  0  0  0  0  0  0  0  0  0  0  0
    0.1994    4.7048   -2.5686 H   0  0  0  0  0  0  0  0  0  0  0  0
    1.7288    4.0763   -2.9023 H   0  0  0  0  0  0  0  0  0  0  0  0
    0.1759    2.6225   -2.6848 C   0  0  0  0  0  0  0  0  0  0  0  0
    0.3535    2.4700   -1.7108 H   0  0  0  0  0  0  0  0  0  0  0  0
   -0.8079    2.5434   -2.8531 H   0  0  0  0  0  0  0  0  0  0  0  0
    0.6549    1.9233   -3.2168 H   0  0  0  0  0  0  0  0  0  0  0  0
  1  5  1  0
  5  6  1  0
  5  7  2  0
  1  2  1  0
  1  3  1  0
  1  4  1  0
  8 12  1  0
 12 15  1  0
  8  9  1  0
  8 10  1  0
  8 11  1  0
 12 13  1  0
 12 14  1  0
 15 16  1  0
 15 17  1  0
 15 18  1  0
M  CHG  1   6  -1
M  END
>  <PDB_ID>  (269) 
pdb1eg7

>  <RESIDUE_NAME>  (269) 
ASP   ILE

>  <FRAG_NAME>  (269) 
ACET   PRPA

>  <FRAG_ATOM_NUM>  (269) 
fragi: 7  fragj: 11

>  <atom.prop.CHAIN_ID>  (269) 
A A A A A A A Z Z Z Z Z Z Z Z Z Z Z

>  <atom.prop.IS_HEAVY_ATOM>  (269) 
1 0 0 0 1 1 1 1 0 0 0 1 0 0 1 0 0 0

>  <DIFUSE_FUNC_ATOM>  (269) 
atom 6   atom 7   

>  <FINAL_SINGLE_POINT_ENERGY>  (269) 
0

>  <NONCOV_INTER_ENERGY_QM>  (269) 
0

>  <FF_Energy>  (269) 
41.07

>  <QM_Energy>  (269) 
9.07

>  <source>  (269) 
ACET_PRPA_02

>  <Index>  (269) 
33746

$$$$
ACET-pdb2fo5-A-GLU-55:PRPA-pdb2fo5-A-VAL-102
     RDKit          3D

 18 16  0  0  0  0  0  0  0  0999 V2000
    0.0295    1.5132    0.0164 C   0  0  0  0  0  0  0  0  0  0  0  0
    0.7070    1.8057   -0.6427 H   0  0  0  0  0  0  0  0  0  0  0  0
    0.2750    1.7974    0.9322 H   0  0  0  0  0  0  0  0  0  0  0  0
   -0.9196    1.9827   -0.2423 H   0  0  0  0  0  0  0  0  0  0  0  0
    0.0000    0.0000    0.0000 C   0  0  0  0  0  0  0  0  0  0  0  0
   -1.0983   -0.5908    0.0000 O   0  0  0  0  0  1  0  0  0  0  0  0
    1.0983   -0.5961   -0.0000 O   0  0  0  0  0  0  0  0  0  0  0  0
    0.1713    1.0280    5.6123 C   0  0  0  0  0  0  0  0  0  0  0  0
   -0.8234    1.2075    5.6742 H   0  0  0  0  0  0  0  0  0  0  0  0
    0.6977    1.9557    5.8366 H   0  0  0  0  0  0  0  0  0  0  0  0
    0.4124    0.2351    6.3203 H   0  0  0  0  0  0  0  0  0  0  0  0
    0.4594    0.5326    4.1805 C   0  0  0  0  0  0  0  0  0  0  0  0
   -0.0189   -0.3282    4.0633 H   0  0  0  0  0  0  0  0  0  0  0  0
    1.5306    0.4027    4.0259 H   0  0  0  0  0  0  0  0  0  0  0  0
   -0.1109    1.5082    3.1954 C   0  0  0  0  0  0  0  0  0  0  0  0
    0.5507    1.6858    2.4624 H   0  0  0  0  0  0  0  0  0  0  0  0
   -0.9515    1.1384    2.7898 H   0  0  0  0  0  0  0  0  0  0  0  0
   -0.3265    2.3754    3.6530 H   0  0  0  0  0  0  0  0  0  0  0  0
  1  5  1  0
  5  6  1  0
  5  7  2  0
  1  2  1  0
  1  3  1  0
  1  4  1  0
  8 12  1  0
 12 15  1  0
  8  9  1  0
  8 10  1  0
  8 11  1  0
 12 13  1  0
 12 14  1  0
 15 16  1  0
 15 17  1  0
 15 18  1  0
M  CHG  1   6  -1
M  END
>  <PDB_ID>  (270) 
pdb2fo5

>  <RESIDUE_NAME>  (270) 
GLU   VAL

>  <FRAG_NAME>  (270) 
ACET   PRPA

>  <FRAG_ATOM_NUM>  (270) 
fragi: 7  fragj: 11

>  <atom.prop.CHAIN_ID>  (270) 
A A A A A A A Z Z Z Z Z Z Z Z Z Z Z

>  <atom.prop.IS_HEAVY_ATOM>  (270) 
1 0 0 0 1 1 1 1 0 0 0 1 0 0 1 0 0 0

>  <DIFUSE_FUNC_ATOM>  (270) 
atom 6   atom 7   

>  <FINAL_SINGLE_POINT_ENERGY>  (270) 
0

>  <NONCOV_INTER_ENERGY_QM>  (270) 
0

>  <FF_Energy>  (270) 
19.07

>  <QM_Energy>  (270) 
2.31

>  <source>  (270) 
ACET_PRPA_02

>  <Index>  (270) 
33752

$$$$
ACET-pdb1eg7-B-ASP-1498:PRPA-pdb1eg7-B-ILE-1528
     RDKit          3D

 18 16  0  0  0  0  0  0  0  0999 V2000
    0.0026    1.5158    0.0090 C   0  0  0  0  0  0  0  0  0  0  0  0
   -0.7016    1.8398   -0.6142 H   0  0  0  0  0  0  0  0  0  0  0  0
    0.8971    1.8357   -0.2847 H   0  0  0  0  0  0  0  0  0  0  0  0
   -0.1998    1.9339    0.9951 H   0  0  0  0  0  0  0  0  0  0  0  0
    0.0000    0.0000    0.0000 C   0  0  0  0  0  0  0  0  0  0  0  0
   -1.0988   -0.5941    0.0000 O   0  0  0  0  0  1  0  0  0  0  0  0
    1.0988   -0.5982   -0.0000 O   0  0  0  0  0  0  0  0  0  0  0  0
    2.1569    4.1099   -2.8288 C   0  0  0  0  0  0  0  0  0  0  0  0
    2.4387    5.0515   -3.0036 H   0  0  0  0  0  0  0  0  0  0  0  0
    2.3298    3.8967   -1.8682 H   0  0  0  0  0  0  0  0  0  0  0  0
    2.7614    3.4435   -3.4442 H   0  0  0  0  0  0  0  0  0  0  0  0
    0.6578    3.9925   -3.0863 C   0  0  0  0  0  0  0  0  0  0  0  0
    0.1994    4.7048   -2.5686 H   0  0  0  0  0  0  0  0  0  0  0  0
    0.4548    4.1576   -4.1445 H   0  0  0  0  0  0  0  0  0  0  0  0
    0.1759    2.6225   -2.6848 C   0  0  0  0  0  0  0  0  0  0  0  0
    0.3535    2.4700   -1.7108 H   0  0  0  0  0  0  0  0  0  0  0  0
   -0.8079    2.5434   -2.8531 H   0  0  0  0  0  0  0  0  0  0  0  0
    0.6549    1.9233   -3.2168 H   0  0  0  0  0  0  0  0  0  0  0  0
  1  5  1  0
  5  6  1  0
  5  7  2  0
  1  2  1  0
  1  3  1  0
  1  4  1  0
  8 12  1  0
 12 15  1  0
  8  9  1  0
  8 10  1  0
  8 11  1  0
 12 13  1  0
 12 14  1  0
 15 16  1  0
 15 17  1  0
 15 18  1  0
M  CHG  1   6  -1
M  END
>  <PDB_ID>  (271) 
pdb1eg7

>  <RESIDUE_NAME>  (271) 
ASP   ILE

>  <FRAG_NAME>  (271) 
ACET   PRPA

>  <FRAG_ATOM_NUM>  (271) 
fragi: 7  fragj: 11

>  <atom.prop.CHAIN_ID>  (271) 
A A A A A A A Z Z Z Z Z Z Z Z Z Z Z

>  <atom.prop.IS_HEAVY_ATOM>  (271) 
1 0 0 0 1 1 1 1 0 0 0 1 0 0 1 0 0 0

>  <DIFUSE_FUNC_ATOM>  (271) 
atom 6   atom 7   

>  <FINAL_SINGLE_POINT_ENERGY>  (271) 
0

>  <NONCOV_INTER_ENERGY_QM>  (271) 
0

>  <FF_Energy>  (271) 
40.95

>  <QM_Energy>  (271) 
8.98

>  <source>  (271) 
ACET_PRPA_02

>  <Index>  (271) 
33762

$$$$
ACET-pdb2fo5-A-GLU-55:PRPA-pdb2fo5-A-VAL-102
     RDKit          3D

 18 16  0  0  0  0  0  0  0  0999 V2000
    0.0295    1.5132    0.0164 C   0  0  0  0  0  0  0  0  0  0  0  0
    0.7070    1.8057   -0.6427 H   0  0  0  0  0  0  0  0  0  0  0  0
    0.2750    1.7974    0.9322 H   0  0  0  0  0  0  0  0  0  0  0  0
   -0.9196    1.9827   -0.2423 H   0  0  0  0  0  0  0  0  0  0  0  0
    0.0000    0.0000    0.0000 C   0  0  0  0  0  0  0  0  0  0  0  0
   -1.0983   -0.5908    0.0000 O   0  0  0  0  0  1  0  0  0  0  0  0
    1.0983   -0.5961   -0.0000 O   0  0  0  0  0  0  0  0  0  0  0  0
   -0.1109    1.5082    3.1954 C   0  0  0  0  0  0  0  0  0  0  0  0
    0.5507    1.6858    2.4624 H   0  0  0  0  0  0  0  0  0  0  0  0
   -0.9515    1.1384    2.7898 H   0  0  0  0  0  0  0  0  0  0  0  0
   -0.3265    2.3754    3.6530 H   0  0  0  0  0  0  0  0  0  0  0  0
    0.4594    0.5326    4.1805 C   0  0  0  0  0  0  0  0  0  0  0  0
   -0.0189   -0.3282    4.0633 H   0  0  0  0  0  0  0  0  0  0  0  0
    0.2557    0.8827    5.1924 H   0  0  0  0  0  0  0  0  0  0  0  0
    1.9539    0.3514    3.9649 C   0  0  0  0  0  0  0  0  0  0  0  0
    2.3537   -0.0846    4.7706 H   0  0  0  0  0  0  0  0  0  0  0  0
    2.1053   -0.2248    3.1616 H   0  0  0  0  0  0  0  0  0  0  0  0
    2.3778    1.2459    3.8212 H   0  0  0  0  0  0  0  0  0  0  0  0
  1  5  1  0
  5  6  1  0
  5  7  2  0
  1  2  1  0
  1  3  1  0
  1  4  1  0
  8 12  1  0
 12 15  1  0
  8  9  1  0
  8 10  1  0
  8 11  1  0
 12 13  1  0
 12 14  1  0
 15 16  1  0
 15 17  1  0
 15 18  1  0
M  CHG  1   6  -1
M  END
>  <PDB_ID>  (272) 
pdb2fo5

>  <RESIDUE_NAME>  (272) 
GLU   VAL

>  <FRAG_NAME>  (272) 
ACET   PRPA

>  <FRAG_ATOM_NUM>  (272) 
fragi: 7  fragj: 11

>  <atom.prop.CHAIN_ID>  (272) 
A A A A A A A Z Z Z Z Z Z Z Z Z Z Z

>  <atom.prop.IS_HEAVY_ATOM>  (272) 
1 0 0 0 1 1 1 1 0 0 0 1 0 0 1 0 0 0

>  <DIFUSE_FUNC_ATOM>  (272) 
atom 6   atom 7   

>  <FINAL_SINGLE_POINT_ENERGY>  (272) 
0

>  <NONCOV_INTER_ENERGY_QM>  (272) 
0

>  <FF_Energy>  (272) 
19.07

>  <QM_Energy>  (272) 
1.53

>  <source>  (272) 
ACET_PRPA_02

>  <Index>  (272) 
33766

$$$$
ACET-pdb1e9r-D-GLU-434:PRPA-pdb1e9r-D-ARG-89
     RDKit          3D

 18 16  0  0  0  0  0  0  0  0999 V2000
   -0.0079    1.5021   -0.0010 C   0  0  0  0  0  0  0  0  0  0  0  0
   -0.4019    1.8002   -0.8495 H   0  0  0  0  0  0  0  0  0  0  0  0
    0.9189    1.8072    0.1104 H   0  0  0  0  0  0  0  0  0  0  0  0
   -0.6060    1.9036    0.8170 H   0  0  0  0  0  0  0  0  0  0  0  0
    0.0000    0.0000    0.0000 C   0  0  0  0  0  0  0  0  0  0  0  0
   -1.1000   -0.5829   -0.0000 O   0  0  0  0  0  1  0  0  0  0  0  0
    1.1000   -0.5985   -0.0000 O   0  0  0  0  0  0  0  0  0  0  0  0
   -4.8850    0.5165    3.2699 C   0  0  0  0  0  0  0  0  0  0  0  0
   -4.3490    0.1908    4.0394 H   0  0  0  0  0  0  0  0  0  0  0  0
   -5.7896    0.1084    3.2754 H   0  0  0  0  0  0  0  0  0  0  0  0
   -5.0006    1.5955    3.3722 H   0  0  0  0  0  0  0  0  0  0  0  0
   -4.1832    0.1045    1.9893 C   0  0  0  0  0  0  0  0  0  0  0  0
   -4.7960   -0.4881    1.4487 H   0  0  0  0  0  0  0  0  0  0  0  0
   -3.9822    0.9278    1.4398 H   0  0  0  0  0  0  0  0  0  0  0  0
   -2.8779   -0.6437    2.1999 C   0  0  0  0  0  0  0  0  0  0  0  0
   -2.3624   -0.6149    1.3425 H   0  0  0  0  0  0  0  0  0  0  0  0
   -2.3614   -0.1680    2.9138 H   0  0  0  0  0  0  0  0  0  0  0  0
   -3.0262   -1.6824    2.4952 H   0  0  0  0  0  0  0  0  0  0  0  0
  1  5  1  0
  5  6  1  0
  5  7  2  0
  1  2  1  0
  1  3  1  0
  1  4  1  0
  8 12  1  0
 12 15  1  0
  8  9  1  0
  8 10  1  0
  8 11  1  0
 12 13  1  0
 12 14  1  0
 15 16  1  0
 15 17  1  0
 15 18  1  0
M  CHG  1   6  -1
M  END
>  <PDB_ID>  (273) 
pdb1e9r

>  <RESIDUE_NAME>  (273) 
GLU   ARG

>  <FRAG_NAME>  (273) 
ACET   PRPA

>  <FRAG_ATOM_NUM>  (273) 
fragi: 7  fragj: 11

>  <atom.prop.CHAIN_ID>  (273) 
A A A A A A A Z Z Z Z Z Z Z Z Z Z Z

>  <atom.prop.IS_HEAVY_ATOM>  (273) 
1 0 0 0 1 1 1 1 0 0 0 1 0 0 1 0 0 0

>  <DIFUSE_FUNC_ATOM>  (273) 
atom 6   atom 7   

>  <FINAL_SINGLE_POINT_ENERGY>  (273) 
0

>  <NONCOV_INTER_ENERGY_QM>  (273) 
0

>  <FF_Energy>  (273) 
19.44

>  <QM_Energy>  (273) 
-0.55

>  <source>  (273) 
ACET_PRPA_02

>  <Index>  (273) 
34949

$$$$
ACET-pdb1f4o-A-ASP-69:PRPA-pdb1f4o-A-GLU-72
     RDKit          3D

 18 16  0  0  0  0  0  0  0  0999 V2000
    0.0203    1.5188   -0.0100 C   0  0  0  0  0  0  0  0  0  0  0  0
    0.3876    1.8272   -0.8806 H   0  0  0  0  0  0  0  0  0  0  0  0
    0.5904    1.8357    0.7387 H   0  0  0  0  0  0  0  0  0  0  0  0
   -0.9699    1.9580    0.1114 H   0  0  0  0  0  0  0  0  0  0  0  0
    0.0000    0.0000    0.0000 C   0  0  0  0  0  0  0  0  0  0  0  0
   -1.0921   -0.5990    0.0000 O   0  0  0  0  0  1  0  0  0  0  0  0
    1.0921   -0.5983   -0.0000 O   0  0  0  0  0  0  0  0  0  0  0  0
   -3.9363   -2.5824    0.6678 C   0  0  0  0  0  0  0  0  0  0  0  0
   -3.9415   -3.5765    0.7852 H   0  0  0  0  0  0  0  0  0  0  0  0
   -3.3525   -2.3176   -0.2137 H   0  0  0  0  0  0  0  0  0  0  0  0
   -4.9572   -2.2212    0.5431 H   0  0  0  0  0  0  0  0  0  0  0  0
   -3.2812   -1.9769    1.9176 C   0  0  0  0  0  0  0  0  0  0  0  0
   -3.3639   -1.0085    1.8581 H   0  0  0  0  0  0  0  0  0  0  0  0
   -3.7127   -2.3634    2.6993 H   0  0  0  0  0  0  0  0  0  0  0  0
   -1.7900   -2.3113    1.9987 C   0  0  0  0  0  0  0  0  0  0  0  0
   -1.7034   -3.2785    2.1847 H   0  0  0  0  0  0  0  0  0  0  0  0
   -1.3745   -2.0743    1.1329 H   0  0  0  0  0  0  0  0  0  0  0  0
   -1.2462   -1.7778    2.7782 H   0  0  0  0  0  0  0  0  0  0  0  0
  1  5  1  0
  5  6  1  0
  5  7  2  0
  1  2  1  0
  1  3  1  0
  1  4  1  0
  8 12  1  0
 12 15  1  0
  8  9  1  0
  8 10  1  0
  8 11  1  0
 12 13  1  0
 12 14  1  0
 15 16  1  0
 15 17  1  0
 15 18  1  0
M  CHG  1   6  -1
M  END
>  <PDB_ID>  (274) 
pdb1f4o

>  <RESIDUE_NAME>  (274) 
ASP   GLU

>  <FRAG_NAME>  (274) 
ACET   PRPA

>  <FRAG_ATOM_NUM>  (274) 
fragi: 7  fragj: 11

>  <atom.prop.CHAIN_ID>  (274) 
A A A A A A A Z Z Z Z Z Z Z Z Z Z Z

>  <atom.prop.IS_HEAVY_ATOM>  (274) 
1 0 0 0 1 1 1 1 0 0 0 1 0 0 1 0 0 0

>  <DIFUSE_FUNC_ATOM>  (274) 
atom 6   atom 7   

>  <FINAL_SINGLE_POINT_ENERGY>  (274) 
0

>  <NONCOV_INTER_ENERGY_QM>  (274) 
0

>  <FF_Energy>  (274) 
17.72

>  <QM_Energy>  (274) 
-1.11

>  <source>  (274) 
ACET_PRPA_02

>  <Index>  (274) 
35584

$$$$
ACET-pdb1ekj-E-GLU-268:PRPA-pdb1ekj-E-PRO-265
     RDKit          3D

 18 16  0  0  0  0  0  0  0  0999 V2000
   -0.0030    1.5192    0.0015 C   0  0  0  0  0  0  0  0  0  0  0  0
   -0.3968    1.8116   -0.8439 H   0  0  0  0  0  0  0  0  0  0  0  0
    0.9219    1.8131    0.1178 H   0  0  0  0  0  0  0  0  0  0  0  0
   -0.6035    1.9104    0.8227 H   0  0  0  0  0  0  0  0  0  0  0  0
    0.0000    0.0000    0.0000 C   0  0  0  0  0  0  0  0  0  0  0  0
   -1.1062   -0.5988   -0.0000 O   0  0  0  0  0  1  0  0  0  0  0  0
    1.1062   -0.5879    0.0000 O   0  0  0  0  0  0  0  0  0  0  0  0
    3.9627    1.2963    2.3091 C   0  0  0  0  0  0  0  0  0  0  0  0
    3.4260    1.8380    1.6716 H   0  0  0  0  0  0  0  0  0  0  0  0
    4.8824    1.6620    2.3865 H   0  0  0  0  0  0  0  0  0  0  0  0
    3.4778    1.2494    3.2843 H   0  0  0  0  0  0  0  0  0  0  0  0
    3.9876   -0.1411    1.9037 C   0  0  0  0  0  0  0  0  0  0  0  0
    4.1586   -0.2306    0.9299 H   0  0  0  0  0  0  0  0  0  0  0  0
    4.6666   -0.6425    2.4256 H   0  0  0  0  0  0  0  0  0  0  0  0
    2.5931   -0.5990    2.2510 C   0  0  0  0  0  0  0  0  0  0  0  0
    1.9358   -0.3248    1.5568 H   0  0  0  0  0  0  0  0  0  0  0  0
    2.5561   -1.5840    2.3896 H   0  0  0  0  0  0  0  0  0  0  0  0
    2.4054   -0.0724    3.1867 H   0  0  0  0  0  0  0  0  0  0  0  0
  1  5  1  0
  5  6  1  0
  5  7  2  0
  1  2  1  0
  1  3  1  0
  1  4  1  0
  8 12  1  0
 12 15  1  0
  8  9  1  0
  8 10  1  0
  8 11  1  0
 12 13  1  0
 12 14  1  0
 15 16  1  0
 15 17  1  0
 15 18  1  0
M  CHG  1   6  -1
M  END
>  <PDB_ID>  (275) 
pdb1ekj

>  <RESIDUE_NAME>  (275) 
GLU   PRO

>  <FRAG_NAME>  (275) 
ACET   PRPA

>  <FRAG_ATOM_NUM>  (275) 
fragi: 7  fragj: 11

>  <atom.prop.CHAIN_ID>  (275) 
A A A A A A A Z Z Z Z Z Z Z Z Z Z Z

>  <atom.prop.IS_HEAVY_ATOM>  (275) 
1 0 0 0 1 1 1 1 0 0 0 1 0 0 1 0 0 0

>  <DIFUSE_FUNC_ATOM>  (275) 
atom 6   atom 7   

>  <FINAL_SINGLE_POINT_ENERGY>  (275) 
0

>  <NONCOV_INTER_ENERGY_QM>  (275) 
0

>  <FF_Energy>  (275) 
32.64

>  <QM_Energy>  (275) 
1.47

>  <source>  (275) 
ACET_PRPA_02

>  <Index>  (275) 
36333

$$$$
ACET-pdb2fz6-B-ASP-43:PRPA-pdb2fz6-B-VAL-38
     RDKit          3D

 18 16  0  0  0  0  0  0  0  0999 V2000
    0.0579    1.5041   -0.0289 C   0  0  0  0  0  0  0  0  0  0  0  0
   -0.0564    1.8136   -0.9803 H   0  0  0  0  0  0  0  0  0  0  0  0
    0.9643    1.8000    0.2934 H   0  0  0  0  0  0  0  0  0  0  0  0
   -0.6910    2.0142    0.5769 H   0  0  0  0  0  0  0  0  0  0  0  0
    0.0000    0.0000    0.0000 C   0  0  0  0  0  0  0  0  0  0  0  0
   -1.0835   -0.6316   -0.0000 O   0  0  0  0  0  1  0  0  0  0  0  0
    1.0835   -0.6249    0.0000 O   0  0  0  0  0  0  0  0  0  0  0  0
    3.3723    0.1645    1.3834 C   0  0  0  0  0  0  0  0  0  0  0  0
    2.4253   -0.0318    1.0593 H   0  0  0  0  0  0  0  0  0  0  0  0
    3.8175   -0.7691    1.7275 H   0  0  0  0  0  0  0  0  0  0  0  0
    3.9115    0.6288    0.5578 H   0  0  0  0  0  0  0  0  0  0  0  0
    3.2703    1.1811    2.5457 C   0  0  0  0  0  0  0  0  0  0  0  0
    2.6316    1.8894    2.2676 H   0  0  0  0  0  0  0  0  0  0  0  0
    4.2256    1.6204    2.8329 H   0  0  0  0  0  0  0  0  0  0  0  0
    2.6920    0.5141    3.7828 C   0  0  0  0  0  0  0  0  0  0  0  0
    3.2433   -0.2862    4.0204 H   0  0  0  0  0  0  0  0  0  0  0  0
    2.6989    1.1600    4.5464 H   0  0  0  0  0  0  0  0  0  0  0  0
    1.7514    0.2263    3.5999 H   0  0  0  0  0  0  0  0  0  0  0  0
  1  5  1  0
  5  6  1  0
  5  7  2  0
  1  2  1  0
  1  3  1  0
  1  4  1  0
  8 12  1  0
 12 15  1  0
  8  9  1  0
  8 10  1  0
  8 11  1  0
 12 13  1  0
 12 14  1  0
 15 16  1  0
 15 17  1  0
 15 18  1  0
M  CHG  1   6  -1
M  END
>  <PDB_ID>  (276) 
pdb2fz6

>  <RESIDUE_NAME>  (276) 
ASP   VAL

>  <FRAG_NAME>  (276) 
ACET   PRPA

>  <FRAG_ATOM_NUM>  (276) 
fragi: 7  fragj: 11

>  <atom.prop.CHAIN_ID>  (276) 
A A A A A A A Z Z Z Z Z Z Z Z Z Z Z

>  <atom.prop.IS_HEAVY_ATOM>  (276) 
1 0 0 0 1 1 1 1 0 0 0 1 0 0 1 0 0 0

>  <DIFUSE_FUNC_ATOM>  (276) 
atom 6   atom 7   

>  <FINAL_SINGLE_POINT_ENERGY>  (276) 
0

>  <NONCOV_INTER_ENERGY_QM>  (276) 
0

>  <FF_Energy>  (276) 
25.3

>  <QM_Energy>  (276) 
0.09

>  <source>  (276) 
ACET_PRPA_02

>  <Index>  (276) 
36393

$$$$
ACET-pdb2fz6-B-ASP-43:PRPA-pdb2fz6-B-VAL-38
     RDKit          3D

 18 16  0  0  0  0  0  0  0  0999 V2000
    0.0579    1.5041   -0.0289 C   0  0  0  0  0  0  0  0  0  0  0  0
   -0.0564    1.8136   -0.9803 H   0  0  0  0  0  0  0  0  0  0  0  0
    0.9643    1.8000    0.2934 H   0  0  0  0  0  0  0  0  0  0  0  0
   -0.6910    2.0142    0.5769 H   0  0  0  0  0  0  0  0  0  0  0  0
    0.0000    0.0000    0.0000 C   0  0  0  0  0  0  0  0  0  0  0  0
   -1.0835   -0.6316   -0.0000 O   0  0  0  0  0  1  0  0  0  0  0  0
    1.0835   -0.6249    0.0000 O   0  0  0  0  0  0  0  0  0  0  0  0
    3.3723    0.1645    1.3834 C   0  0  0  0  0  0  0  0  0  0  0  0
    2.4253   -0.0318    1.0593 H   0  0  0  0  0  0  0  0  0  0  0  0
    3.8175   -0.7691    1.7275 H   0  0  0  0  0  0  0  0  0  0  0  0
    3.9115    0.6288    0.5578 H   0  0  0  0  0  0  0  0  0  0  0  0
    3.2703    1.1811    2.5457 C   0  0  0  0  0  0  0  0  0  0  0  0
    2.6316    1.8894    2.2676 H   0  0  0  0  0  0  0  0  0  0  0  0
    2.8555    0.7027    3.4330 H   0  0  0  0  0  0  0  0  0  0  0  0
    4.5996    1.7925    2.9454 C   0  0  0  0  0  0  0  0  0  0  0  0
    4.4713    2.7630    3.1515 H   0  0  0  0  0  0  0  0  0  0  0  0
    4.9517    1.3226    3.7554 H   0  0  0  0  0  0  0  0  0  0  0  0
    5.2506    1.6938    2.1918 H   0  0  0  0  0  0  0  0  0  0  0  0
  1  5  1  0
  5  6  1  0
  5  7  2  0
  1  2  1  0
  1  3  1  0
  1  4  1  0
  8 12  1  0
 12 15  1  0
  8  9  1  0
  8 10  1  0
  8 11  1  0
 12 13  1  0
 12 14  1  0
 15 16  1  0
 15 17  1  0
 15 18  1  0
M  CHG  1   6  -1
M  END
>  <PDB_ID>  (277) 
pdb2fz6

>  <RESIDUE_NAME>  (277) 
ASP   VAL

>  <FRAG_NAME>  (277) 
ACET   PRPA

>  <FRAG_ATOM_NUM>  (277) 
fragi: 7  fragj: 11

>  <atom.prop.CHAIN_ID>  (277) 
A A A A A A A Z Z Z Z Z Z Z Z Z Z Z

>  <atom.prop.IS_HEAVY_ATOM>  (277) 
1 0 0 0 1 1 1 1 0 0 0 1 0 0 1 0 0 0

>  <DIFUSE_FUNC_ATOM>  (277) 
atom 6   atom 7   

>  <FINAL_SINGLE_POINT_ENERGY>  (277) 
0

>  <NONCOV_INTER_ENERGY_QM>  (277) 
0

>  <FF_Energy>  (277) 
25.03

>  <QM_Energy>  (277) 
0.76

>  <source>  (277) 
ACET_PRPA_02

>  <Index>  (277) 
36398

$$$$
ACET-pdb1f46-B-GLU-138:PRPA-pdb1f46-B-LYS-5
     RDKit          3D

 18 16  0  0  0  0  0  0  0  0999 V2000
   -0.0128    1.5182    0.0119 C   0  0  0  0  0  0  0  0  0  0  0  0
    0.7410    1.8224   -0.5315 H   0  0  0  0  0  0  0  0  0  0  0  0
    0.0447    1.8040    0.9454 H   0  0  0  0  0  0  0  0  0  0  0  0
   -0.9348    1.9080   -0.4195 H   0  0  0  0  0  0  0  0  0  0  0  0
    0.0000    0.0000    0.0000 C   0  0  0  0  0  0  0  0  0  0  0  0
   -1.0973   -0.6053    0.0000 O   0  0  0  0  0  1  0  0  0  0  0  0
    1.0973   -0.5944   -0.0000 O   0  0  0  0  0  0  0  0  0  0  0  0
    3.7910   -0.6585   -0.1008 C   0  0  0  0  0  0  0  0  0  0  0  0
    2.8820   -0.7364    0.3213 H   0  0  0  0  0  0  0  0  0  0  0  0
    4.2729   -1.6344   -0.0424 H   0  0  0  0  0  0  0  0  0  0  0  0
    3.6779   -0.3252   -1.1324 H   0  0  0  0  0  0  0  0  0  0  0  0
    4.5994    0.3600    0.7040 C   0  0  0  0  0  0  0  0  0  0  0  0
    4.1146    1.2342    0.6745 H   0  0  0  0  0  0  0  0  0  0  0  0
    4.6488    0.0393    1.6498 H   0  0  0  0  0  0  0  0  0  0  0  0
    6.0125    0.5785    0.1973 C   0  0  0  0  0  0  0  0  0  0  0  0
    6.6453    0.5436    0.9686 H   0  0  0  0  0  0  0  0  0  0  0  0
    6.2398   -0.1375   -0.4586 H   0  0  0  0  0  0  0  0  0  0  0  0
    6.1021    1.5491   -0.2904 H   0  0  0  0  0  0  0  0  0  0  0  0
  1  5  1  0
  5  6  1  0
  5  7  2  0
  1  2  1  0
  1  3  1  0
  1  4  1  0
  8 12  1  0
 12 15  1  0
  8  9  1  0
  8 10  1  0
  8 11  1  0
 12 13  1  0
 12 14  1  0
 15 16  1  0
 15 17  1  0
 15 18  1  0
M  CHG  1   6  -1
M  END
>  <PDB_ID>  (278) 
pdb1f46

>  <RESIDUE_NAME>  (278) 
GLU   LYS

>  <FRAG_NAME>  (278) 
ACET   PRPA

>  <FRAG_ATOM_NUM>  (278) 
fragi: 7  fragj: 11

>  <atom.prop.CHAIN_ID>  (278) 
A A A A A A A Z Z Z Z Z Z Z Z Z Z Z

>  <atom.prop.IS_HEAVY_ATOM>  (278) 
1 0 0 0 1 1 1 1 0 0 0 1 0 0 1 0 0 0

>  <DIFUSE_FUNC_ATOM>  (278) 
atom 6   atom 7   

>  <FINAL_SINGLE_POINT_ENERGY>  (278) 
0

>  <NONCOV_INTER_ENERGY_QM>  (278) 
0

>  <FF_Energy>  (278) 
24.94

>  <QM_Energy>  (278) 
1.89

>  <source>  (278) 
ACET_PRPA_02

>  <Index>  (278) 
36786

$$$$
ACET-pdb2fvz-A-GLU-62:PRPA-pdb2fvz-A-GLH-82
     RDKit          3D

 18 16  0  0  0  0  0  0  0  0999 V2000
    0.0220    1.5233    0.0022 C   0  0  0  0  0  0  0  0  0  0  0  0
   -0.7444    1.8284   -0.5224 H   0  0  0  0  0  0  0  0  0  0  0  0
    0.8802    1.8048   -0.3721 H   0  0  0  0  0  0  0  0  0  0  0  0
   -0.0662    1.9260    1.0112 H   0  0  0  0  0  0  0  0  0  0  0  0
    0.0000    0.0000    0.0000 C   0  0  0  0  0  0  0  0  0  0  0  0
   -1.1041   -0.5924    0.0000 O   0  0  0  0  0  1  0  0  0  0  0  0
    1.1041   -0.5973    0.0000 O   0  0  0  0  0  0  0  0  0  0  0  0
    1.8928   -3.8092   -1.1264 C   0  0  0  0  0  0  0  0  0  0  0  0
    1.7370   -4.7780   -1.3396 H   0  0  0  0  0  0  0  0  0  0  0  0
    2.7715   -3.7052   -0.4899 H   0  0  0  0  0  0  0  0  0  0  0  0
    2.0283   -3.2556   -2.0556 H   0  0  0  0  0  0  0  0  0  0  0  0
    0.6348   -3.3214   -0.3969 C   0  0  0  0  0  0  0  0  0  0  0  0
    0.5953   -2.3450   -0.4905 H   0  0  0  0  0  0  0  0  0  0  0  0
   -0.1384   -3.7703   -0.8010 H   0  0  0  0  0  0  0  0  0  0  0  0
    0.6292   -3.6432    1.0947 C   0  0  0  0  0  0  0  0  0  0  0  0
    1.2933   -3.0671    1.5329 H   0  0  0  0  0  0  0  0  0  0  0  0
   -0.2796   -3.4932    1.4361 H   0  0  0  0  0  0  0  0  0  0  0  0
    0.8968   -4.6794    1.3014 H   0  0  0  0  0  0  0  0  0  0  0  0
  1  5  1  0
  5  6  1  0
  5  7  2  0
  1  2  1  0
  1  3  1  0
  1  4  1  0
  8 12  1  0
 12 15  1  0
  8  9  1  0
  8 10  1  0
  8 11  1  0
 12 13  1  0
 12 14  1  0
 15 16  1  0
 15 17  1  0
 15 18  1  0
M  CHG  1   6  -1
M  END
>  <PDB_ID>  (279) 
pdb2fvz

>  <RESIDUE_NAME>  (279) 
GLU   GLH

>  <FRAG_NAME>  (279) 
ACET   PRPA

>  <FRAG_ATOM_NUM>  (279) 
fragi: 7  fragj: 11

>  <atom.prop.CHAIN_ID>  (279) 
A A A A A A A Z Z Z Z Z Z Z Z Z Z Z

>  <atom.prop.IS_HEAVY_ATOM>  (279) 
1 0 0 0 1 1 1 1 0 0 0 1 0 0 1 0 0 0

>  <DIFUSE_FUNC_ATOM>  (279) 
atom 6   atom 7   

>  <FINAL_SINGLE_POINT_ENERGY>  (279) 
0

>  <NONCOV_INTER_ENERGY_QM>  (279) 
0

>  <FF_Energy>  (279) 
37.32

>  <QM_Energy>  (279) 
-1.66

>  <source>  (279) 
ACET_PRPA_02

>  <Index>  (279) 
36913

$$$$
ACET-pdb2g3p-A-GLU-50:PRPA-pdb2g3p-A-LYS-22
     RDKit          3D

 18 16  0  0  0  0  0  0  0  0999 V2000
   -0.0232    1.5187    0.0025 C   0  0  0  0  0  0  0  0  0  0  0  0
   -0.7448    1.8074   -0.5921 H   0  0  0  0  0  0  0  0  0  0  0  0
    0.8586    1.8303   -0.2850 H   0  0  0  0  0  0  0  0  0  0  0  0
   -0.2202    1.9217    0.9959 H   0  0  0  0  0  0  0  0  0  0  0  0
    0.0000    0.0000    0.0000 C   0  0  0  0  0  0  0  0  0  0  0  0
   -1.0922   -0.5980    0.0000 O   0  0  0  0  0  1  0  0  0  0  0  0
    1.0922   -0.5930   -0.0000 O   0  0  0  0  0  0  0  0  0  0  0  0
   -3.8943   -2.7745    0.8435 C   0  0  0  0  0  0  0  0  0  0  0  0
   -3.5881   -1.8169    0.9458 H   0  0  0  0  0  0  0  0  0  0  0  0
   -3.4528   -3.3175    1.5738 H   0  0  0  0  0  0  0  0  0  0  0  0
   -4.9720   -2.8045    1.0041 H   0  0  0  0  0  0  0  0  0  0  0  0
   -3.3849   -3.2878   -0.4947 C   0  0  0  0  0  0  0  0  0  0  0  0
   -3.3642   -4.2806   -0.4789 H   0  0  0  0  0  0  0  0  0  0  0  0
   -3.9775   -2.9607   -1.2194 H   0  0  0  0  0  0  0  0  0  0  0  0
   -1.9672   -2.7697   -0.7453 C   0  0  0  0  0  0  0  0  0  0  0  0
   -1.5009   -3.3685   -1.3550 H   0  0  0  0  0  0  0  0  0  0  0  0
   -2.0015   -1.8444   -1.0471 H   0  0  0  0  0  0  0  0  0  0  0  0
   -1.4305   -2.7850    0.2033 H   0  0  0  0  0  0  0  0  0  0  0  0
  1  5  1  0
  5  6  1  0
  5  7  2  0
  1  2  1  0
  1  3  1  0
  1  4  1  0
  8 12  1  0
 12 15  1  0
  8  9  1  0
  8 10  1  0
  8 11  1  0
 12 13  1  0
 12 14  1  0
 15 16  1  0
 15 17  1  0
 15 18  1  0
M  CHG  1   6  -1
M  END
>  <PDB_ID>  (280) 
pdb2g3p

>  <RESIDUE_NAME>  (280) 
GLU   LYS

>  <FRAG_NAME>  (280) 
ACET   PRPA

>  <FRAG_ATOM_NUM>  (280) 
fragi: 7  fragj: 11

>  <atom.prop.CHAIN_ID>  (280) 
A A A A A A A Z Z Z Z Z Z Z Z Z Z Z

>  <atom.prop.IS_HEAVY_ATOM>  (280) 
1 0 0 0 1 1 1 1 0 0 0 1 0 0 1 0 0 0

>  <DIFUSE_FUNC_ATOM>  (280) 
atom 6   atom 7   

>  <FINAL_SINGLE_POINT_ENERGY>  (280) 
0

>  <NONCOV_INTER_ENERGY_QM>  (280) 
0

>  <FF_Energy>  (280) 
30.1

>  <QM_Energy>  (280) 
7.66

>  <source>  (280) 
ACET_PRPA_02

>  <Index>  (280) 
37317

$$$$
ACET-pdb1e9r-E-GLU-434:PRPA-pdb1e9r-E-ARG-89
     RDKit          3D

 18 16  0  0  0  0  0  0  0  0999 V2000
    0.0079    1.5053   -0.0012 C   0  0  0  0  0  0  0  0  0  0  0  0
   -0.4442    1.8108   -0.8211 H   0  0  0  0  0  0  0  0  0  0  0  0
    0.9454    1.8028    0.0359 H   0  0  0  0  0  0  0  0  0  0  0  0
   -0.5171    1.9347    0.8522 H   0  0  0  0  0  0  0  0  0  0  0  0
    0.0000    0.0000    0.0000 C   0  0  0  0  0  0  0  0  0  0  0  0
   -1.0959   -0.5901    0.0000 O   0  0  0  0  0  1  0  0  0  0  0  0
    1.0959   -0.5968   -0.0000 O   0  0  0  0  0  0  0  0  0  0  0  0
   -4.8467    0.9668    2.9684 C   0  0  0  0  0  0  0  0  0  0  0  0
   -4.2975    0.7963    3.7743 H   0  0  0  0  0  0  0  0  0  0  0  0
   -5.7191    0.5044    3.0279 H   0  0  0  0  0  0  0  0  0  0  0  0
   -5.0319    2.0389    2.9019 H   0  0  0  0  0  0  0  0  0  0  0  0
   -4.1016    0.4236    1.7601 C   0  0  0  0  0  0  0  0  0  0  0  0
   -4.7129   -0.1888    1.2412 H   0  0  0  0  0  0  0  0  0  0  0  0
   -3.8429    1.1905    1.1579 H   0  0  0  0  0  0  0  0  0  0  0  0
   -2.8410   -0.3493    2.0991 C   0  0  0  0  0  0  0  0  0  0  0  0
   -2.3221   -0.4817    1.2523 H   0  0  0  0  0  0  0  0  0  0  0  0
   -2.2993    0.2068    2.7335 H   0  0  0  0  0  0  0  0  0  0  0  0
   -3.0430   -1.3197    2.5525 H   0  0  0  0  0  0  0  0  0  0  0  0
  1  5  1  0
  5  6  1  0
  5  7  2  0
  1  2  1  0
  1  3  1  0
  1  4  1  0
  8 12  1  0
 12 15  1  0
  8  9  1  0
  8 10  1  0
  8 11  1  0
 12 13  1  0
 12 14  1  0
 15 16  1  0
 15 17  1  0
 15 18  1  0
M  CHG  1   6  -1
M  END
>  <PDB_ID>  (281) 
pdb1e9r

>  <RESIDUE_NAME>  (281) 
GLU   ARG

>  <FRAG_NAME>  (281) 
ACET   PRPA

>  <FRAG_ATOM_NUM>  (281) 
fragi: 7  fragj: 11

>  <atom.prop.CHAIN_ID>  (281) 
A A A A A A A Z Z Z Z Z Z Z Z Z Z Z

>  <atom.prop.IS_HEAVY_ATOM>  (281) 
1 0 0 0 1 1 1 1 0 0 0 1 0 0 1 0 0 0

>  <DIFUSE_FUNC_ATOM>  (281) 
atom 6   atom 7   

>  <FINAL_SINGLE_POINT_ENERGY>  (281) 
0

>  <NONCOV_INTER_ENERGY_QM>  (281) 
0

>  <FF_Energy>  (281) 
36.96

>  <QM_Energy>  (281) 
1.13

>  <source>  (281) 
ACET_PRPA_02

>  <Index>  (281) 
39025

$$$$
ACET-pdb1f4t-A-ASP-140:PRPA-pdb1f4t-A-LYS-143
     RDKit          3D

 18 16  0  0  0  0  0  0  0  0999 V2000
   -0.0018    1.5142    0.0222 C   0  0  0  0  0  0  0  0  0  0  0  0
    0.8797    1.8414   -0.2975 H   0  0  0  0  0  0  0  0  0  0  0  0
   -0.1726    1.8218    0.9499 H   0  0  0  0  0  0  0  0  0  0  0  0
   -0.7710    1.9421   -0.6206 H   0  0  0  0  0  0  0  0  0  0  0  0
    0.0000    0.0000    0.0000 C   0  0  0  0  0  0  0  0  0  0  0  0
   -1.0938   -0.5989    0.0000 O   0  0  0  0  0  1  0  0  0  0  0  0
    1.0938   -0.5978    0.0000 O   0  0  0  0  0  0  0  0  0  0  0  0
    0.2774   -0.0312    3.1716 C   0  0  0  0  0  0  0  0  0  0  0  0
    0.3971   -0.8426    3.7475 H   0  0  0  0  0  0  0  0  0  0  0  0
    0.0186   -0.3193    2.2475 H   0  0  0  0  0  0  0  0  0  0  0  0
   -0.5162    0.5890    3.5885 H   0  0  0  0  0  0  0  0  0  0  0  0
    1.5994    0.7163    3.0994 C   0  0  0  0  0  0  0  0  0  0  0  0
    1.4647    1.5638    2.6010 H   0  0  0  0  0  0  0  0  0  0  0  0
    1.9207    0.8956    4.0205 H   0  0  0  0  0  0  0  0  0  0  0  0
    2.6534   -0.1117    2.3716 C   0  0  0  0  0  0  0  0  0  0  0  0
    2.3631   -0.2397    1.4169 H   0  0  0  0  0  0  0  0  0  0  0  0
    3.5231    0.3953    2.3747 H   0  0  0  0  0  0  0  0  0  0  0  0
    2.8110   -1.0889    2.8281 H   0  0  0  0  0  0  0  0  0  0  0  0
  1  5  1  0
  5  6  1  0
  5  7  2  0
  1  2  1  0
  1  3  1  0
  1  4  1  0
  8 12  1  0
 12 15  1  0
  8  9  1  0
  8 10  1  0
  8 11  1  0
 12 13  1  0
 12 14  1  0
 15 16  1  0
 15 17  1  0
 15 18  1  0
M  CHG  1   6  -1
M  END
>  <PDB_ID>  (282) 
pdb1f4t

>  <RESIDUE_NAME>  (282) 
ASP   LYS

>  <FRAG_NAME>  (282) 
ACET   PRPA

>  <FRAG_ATOM_NUM>  (282) 
fragi: 7  fragj: 11

>  <atom.prop.CHAIN_ID>  (282) 
A A A A A A A Z Z Z Z Z Z Z Z Z Z Z

>  <atom.prop.IS_HEAVY_ATOM>  (282) 
1 0 0 0 1 1 1 1 0 0 0 1 0 0 1 0 0 0

>  <DIFUSE_FUNC_ATOM>  (282) 
atom 6   atom 7   

>  <FINAL_SINGLE_POINT_ENERGY>  (282) 
0

>  <NONCOV_INTER_ENERGY_QM>  (282) 
0

>  <FF_Energy>  (282) 
15.32

>  <QM_Energy>  (282) 
-1.9

>  <source>  (282) 
ACET_PRPA_02

>  <Index>  (282) 
39029

$$$$
ACET-pdb1f07-B-GLU-1011:PRPA-pdb1f07-B-LYS-1015
     RDKit          3D

 18 16  0  0  0  0  0  0  0  0999 V2000
   -0.0210    1.5232   -0.0034 C   0  0  0  0  0  0  0  0  0  0  0  0
    0.9016    1.8274   -0.1047 H   0  0  0  0  0  0  0  0  0  0  0  0
   -0.4339    1.8107    0.8334 H   0  0  0  0  0  0  0  0  0  0  0  0
   -0.6101    1.9065   -0.8366 H   0  0  0  0  0  0  0  0  0  0  0  0
    0.0000    0.0000    0.0000 C   0  0  0  0  0  0  0  0  0  0  0  0
   -1.0957   -0.5924   -0.0000 O   0  0  0  0  0  1  0  0  0  0  0  0
    1.0957   -0.6103    0.0000 O   0  0  0  0  0  0  0  0  0  0  0  0
   -3.2231   -1.0695    2.8729 C   0  0  0  0  0  0  0  0  0  0  0  0
   -2.2607   -1.1534    3.1529 H   0  0  0  0  0  0  0  0  0  0  0  0
   -3.7591   -1.7678    3.3581 H   0  0  0  0  0  0  0  0  0  0  0  0
   -3.5890   -0.0821    3.1544 H   0  0  0  0  0  0  0  0  0  0  0  0
   -3.3207   -1.3297    1.3782 C   0  0  0  0  0  0  0  0  0  0  0  0
   -4.2737   -1.3513    1.1129 H   0  0  0  0  0  0  0  0  0  0  0  0
   -2.8277   -0.6242    0.8907 H   0  0  0  0  0  0  0  0  0  0  0  0
   -2.6926   -2.6878    1.0238 C   0  0  0  0  0  0  0  0  0  0  0  0
   -1.7613   -2.7148    1.3916 H   0  0  0  0  0  0  0  0  0  0  0  0
   -3.2358   -3.4126    1.4520 H   0  0  0  0  0  0  0  0  0  0  0  0
   -2.6581   -2.8534   -0.0530 H   0  0  0  0  0  0  0  0  0  0  0  0
  1  5  1  0
  5  6  1  0
  5  7  2  0
  1  2  1  0
  1  3  1  0
  1  4  1  0
  8 12  1  0
 12 15  1  0
  8  9  1  0
  8 10  1  0
  8 11  1  0
 12 13  1  0
 12 14  1  0
 15 16  1  0
 15 17  1  0
 15 18  1  0
M  CHG  1   6  -1
M  END
>  <PDB_ID>  (283) 
pdb1f07

>  <RESIDUE_NAME>  (283) 
GLU   LYS

>  <FRAG_NAME>  (283) 
ACET   PRPA

>  <FRAG_ATOM_NUM>  (283) 
fragi: 7  fragj: 11

>  <atom.prop.CHAIN_ID>  (283) 
A A A A A A A Z Z Z Z Z Z Z Z Z Z Z

>  <atom.prop.IS_HEAVY_ATOM>  (283) 
1 0 0 0 1 1 1 1 0 0 0 1 0 0 1 0 0 0

>  <DIFUSE_FUNC_ATOM>  (283) 
atom 6   atom 7   

>  <FINAL_SINGLE_POINT_ENERGY>  (283) 
0

>  <NONCOV_INTER_ENERGY_QM>  (283) 
0

>  <FF_Energy>  (283) 
15.7

>  <QM_Energy>  (283) 
-0.7

>  <source>  (283) 
ACET_PRPA_02

>  <Index>  (283) 
39051

$$$$
ACET-pdb1ezr-B-GLU-84:PRPA-pdb1ezr-B-ILE-81
     RDKit          3D

 18 16  0  0  0  0  0  0  0  0999 V2000
    0.1753    1.4845    0.0139 C   0  0  0  0  0  0  0  0  0  0  0  0
    0.6943    1.7395   -0.8035 H   0  0  0  0  0  0  0  0  0  0  0  0
    0.7070    1.7224    0.8289 H   0  0  0  0  0  0  0  0  0  0  0  0
   -0.7348    2.0841    0.0257 H   0  0  0  0  0  0  0  0  0  0  0  0
    0.0000    0.0000    0.0000 C   0  0  0  0  0  0  0  0  0  0  0  0
   -1.0895   -0.5575   -0.0000 O   0  0  0  0  0  1  0  0  0  0  0  0
    1.0895   -0.6080   -0.0000 O   0  0  0  0  0  0  0  0  0  0  0  0
   -4.6357    0.2581   -1.1612 C   0  0  0  0  0  0  0  0  0  0  0  0
   -5.3413    0.1203   -0.4609 H   0  0  0  0  0  0  0  0  0  0  0  0
   -4.8230   -0.4849   -1.9363 H   0  0  0  0  0  0  0  0  0  0  0  0
   -4.7738    1.2707   -1.5402 H   0  0  0  0  0  0  0  0  0  0  0  0
   -3.2232    0.0836   -0.6214 C   0  0  0  0  0  0  0  0  0  0  0  0
   -2.5854    0.1348   -1.3975 H   0  0  0  0  0  0  0  0  0  0  0  0
   -3.0836   -0.8794   -0.1305 H   0  0  0  0  0  0  0  0  0  0  0  0
   -2.8746    1.2244    0.3219 C   0  0  0  0  0  0  0  0  0  0  0  0
   -2.2118    1.2049    0.8090 H   0  0  0  0  0  0  0  0  0  0  0  0
   -3.2453    2.0930   -0.0846 H   0  0  0  0  0  0  0  0  0  0  0  0
   -3.8159    1.1137    1.0865 H   0  0  0  0  0  0  0  0  0  0  0  0
  1  5  1  0
  5  6  1  0
  5  7  2  0
  1  2  1  0
  1  3  1  0
  1  4  1  0
  8 12  1  0
 12 15  1  0
  8  9  1  0
  8 10  1  0
  8 11  1  0
 12 13  1  0
 12 14  1  0
 15 16  1  0
 15 17  1  0
 15 18  1  0
M  CHG  1   6  -1
M  END
>  <PDB_ID>  (284) 
pdb1ezr

>  <RESIDUE_NAME>  (284) 
GLU   ILE

>  <FRAG_NAME>  (284) 
ACET   PRPA

>  <FRAG_ATOM_NUM>  (284) 
fragi: 7  fragj: 11

>  <atom.prop.CHAIN_ID>  (284) 
A A A A A A A Z Z Z Z Z Z Z Z Z Z Z

>  <atom.prop.IS_HEAVY_ATOM>  (284) 
1 0 0 0 1 1 1 1 0 0 0 1 0 0 1 0 0 0

>  <DIFUSE_FUNC_ATOM>  (284) 
atom 6   atom 7   

>  <FINAL_SINGLE_POINT_ENERGY>  (284) 
0

>  <NONCOV_INTER_ENERGY_QM>  (284) 
0

>  <FF_Energy>  (284) 
49.91

>  <QM_Energy>  (284) 
13.05

>  <source>  (284) 
ACET_PRPA_02

>  <Index>  (284) 
39564

$$$$
ACET-pdb2fv2-B-GLU-156:PRPA-pdb2fv2-B-ILE-196
     RDKit          3D

 18 16  0  0  0  0  0  0  0  0999 V2000
   -0.0150    1.5078    0.0202 C   0  0  0  0  0  0  0  0  0  0  0  0
   -0.6066    1.8096   -0.6989 H   0  0  0  0  0  0  0  0  0  0  0  0
    0.9083    1.8165   -0.0894 H   0  0  0  0  0  0  0  0  0  0  0  0
   -0.3988    1.8886    0.9666 H   0  0  0  0  0  0  0  0  0  0  0  0
    0.0000    0.0000    0.0000 C   0  0  0  0  0  0  0  0  0  0  0  0
   -1.1006   -0.5888    0.0000 O   0  0  0  0  0  1  0  0  0  0  0  0
    1.1006   -0.5952    0.0000 O   0  0  0  0  0  0  0  0  0  0  0  0
   -5.2226   -1.2450    1.1160 C   0  0  0  0  0  0  0  0  0  0  0  0
   -6.2161   -1.2484    1.1436 H   0  0  0  0  0  0  0  0  0  0  0  0
   -4.8647   -1.7957    1.9859 H   0  0  0  0  0  0  0  0  0  0  0  0
   -4.8299   -0.2286    1.1442 H   0  0  0  0  0  0  0  0  0  0  0  0
   -4.7786   -1.9307   -0.1848 C   0  0  0  0  0  0  0  0  0  0  0  0
   -5.2304   -2.8213   -0.2373 H   0  0  0  0  0  0  0  0  0  0  0  0
   -5.0949   -1.3703   -0.9516 H   0  0  0  0  0  0  0  0  0  0  0  0
   -3.2877   -2.1230   -0.3010 C   0  0  0  0  0  0  0  0  0  0  0  0
   -2.9645   -2.6906    0.4561 H   0  0  0  0  0  0  0  0  0  0  0  0
   -3.0754   -2.5726   -1.1689 H   0  0  0  0  0  0  0  0  0  0  0  0
   -2.8330   -1.2336   -0.2679 H   0  0  0  0  0  0  0  0  0  0  0  0
  1  5  1  0
  5  6  1  0
  5  7  2  0
  1  2  1  0
  1  3  1  0
  1  4  1  0
  8 12  1  0
 12 15  1  0
  8  9  1  0
  8 10  1  0
  8 11  1  0
 12 13  1  0
 12 14  1  0
 15 16  1  0
 15 17  1  0
 15 18  1  0
M  CHG  1   6  -1
M  END
>  <PDB_ID>  (285) 
pdb2fv2

>  <RESIDUE_NAME>  (285) 
GLU   ILE

>  <FRAG_NAME>  (285) 
ACET   PRPA

>  <FRAG_ATOM_NUM>  (285) 
fragi: 7  fragj: 11

>  <atom.prop.CHAIN_ID>  (285) 
A A A A A A A Z Z Z Z Z Z Z Z Z Z Z

>  <atom.prop.IS_HEAVY_ATOM>  (285) 
1 0 0 0 1 1 1 1 0 0 0 1 0 0 1 0 0 0

>  <DIFUSE_FUNC_ATOM>  (285) 
atom 6   atom 7   

>  <FINAL_SINGLE_POINT_ENERGY>  (285) 
0

>  <NONCOV_INTER_ENERGY_QM>  (285) 
0

>  <FF_Energy>  (285) 
19.08

>  <QM_Energy>  (285) 
1.67

>  <source>  (285) 
ACET_PRPA_03

>  <Index>  (285) 
381

$$$$
ACET-pdb1f80-D-GLU-60:PRPA-pdb1f80-B-ARG-70
     RDKit          3D

 18 16  0  0  0  0  0  0  0  0999 V2000
   -0.0076    1.5045   -0.0343 C   0  0  0  0  0  0  0  0  0  0  0  0
    0.7985    1.8180    0.4276 H   0  0  0  0  0  0  0  0  0  0  0  0
   -0.8332    1.8093    0.3974 H   0  0  0  0  0  0  0  0  0  0  0  0
    0.0099    1.8825   -1.0565 H   0  0  0  0  0  0  0  0  0  0  0  0
    0.0000    0.0000    0.0000 C   0  0  0  0  0  0  0  0  0  0  0  0
   -1.1163   -0.5982   -0.0000 O   0  0  0  0  0  1  0  0  0  0  0  0
    1.1163   -0.5748    0.0000 O   0  0  0  0  0  0  0  0  0  0  0  0
    3.4716   -0.9958   -1.4391 C   0  0  0  0  0  0  0  0  0  0  0  0
    3.0346   -1.5824   -0.7591 H   0  0  0  0  0  0  0  0  0  0  0  0
    4.4579   -1.1480   -1.4301 H   0  0  0  0  0  0  0  0  0  0  0  0
    3.1037   -1.3041   -2.4178 H   0  0  0  0  0  0  0  0  0  0  0  0
    3.2043    0.4514   -1.0729 C   0  0  0  0  0  0  0  0  0  0  0  0
    3.6394    1.0449   -1.7500 H   0  0  0  0  0  0  0  0  0  0  0  0
    2.2165    0.6114   -1.0780 H   0  0  0  0  0  0  0  0  0  0  0  0
    3.7389    0.7808    0.2740 C   0  0  0  0  0  0  0  0  0  0  0  0
    3.3016    0.1885    0.9511 H   0  0  0  0  0  0  0  0  0  0  0  0
    4.7262    0.6216    0.2788 H   0  0  0  0  0  0  0  0  0  0  0  0
    3.5506    1.8196    0.5456 H   0  0  0  0  0  0  0  0  0  0  0  0
  1  5  1  0
  5  6  1  0
  5  7  2  0
  1  2  1  0
  1  3  1  0
  1  4  1  0
  8 12  1  0
 12 15  1  0
  8  9  1  0
  8 10  1  0
  8 11  1  0
 12 13  1  0
 12 14  1  0
 15 16  1  0
 15 17  1  0
 15 18  1  0
M  CHG  1   6  -1
M  END
>  <PDB_ID>  (286) 
pdb1f80

>  <RESIDUE_NAME>  (286) 
GLU   ARG

>  <FRAG_NAME>  (286) 
ACET   PRPA

>  <FRAG_ATOM_NUM>  (286) 
fragi: 7  fragj: 11

>  <atom.prop.CHAIN_ID>  (286) 
A A A A A A A Z Z Z Z Z Z Z Z Z Z Z

>  <atom.prop.IS_HEAVY_ATOM>  (286) 
1 0 0 0 1 1 1 1 0 0 0 1 0 0 1 0 0 0

>  <DIFUSE_FUNC_ATOM>  (286) 
atom 6   atom 7   

>  <FINAL_SINGLE_POINT_ENERGY>  (286) 
0

>  <NONCOV_INTER_ENERGY_QM>  (286) 
0

>  <FF_Energy>  (286) 
23.72

>  <QM_Energy>  (286) 
2.16

>  <source>  (286) 
ACET_PRPA_03

>  <Index>  (286) 
576

$$$$
ACET-pdb1f80-D-GLU-60:PRPA-pdb1f80-B-ARG-70
     RDKit          3D

 18 16  0  0  0  0  0  0  0  0999 V2000
   -0.0076    1.5045   -0.0343 C   0  0  0  0  0  0  0  0  0  0  0  0
    0.7985    1.8180    0.4276 H   0  0  0  0  0  0  0  0  0  0  0  0
   -0.8332    1.8093    0.3974 H   0  0  0  0  0  0  0  0  0  0  0  0
    0.0099    1.8825   -1.0565 H   0  0  0  0  0  0  0  0  0  0  0  0
    0.0000    0.0000    0.0000 C   0  0  0  0  0  0  0  0  0  0  0  0
   -1.1163   -0.5982   -0.0000 O   0  0  0  0  0  1  0  0  0  0  0  0
    1.1163   -0.5748    0.0000 O   0  0  0  0  0  0  0  0  0  0  0  0
    2.9457   -1.4366   -2.8385 C   0  0  0  0  0  0  0  0  0  0  0  0
    3.3772   -0.8327   -3.5242 H   0  0  0  0  0  0  0  0  0  0  0  0
    1.8637   -1.3117   -2.8831 H   0  0  0  0  0  0  0  0  0  0  0  0
    3.2406   -2.4634   -3.0547 H   0  0  0  0  0  0  0  0  0  0  0  0
    3.4716   -0.9958   -1.4391 C   0  0  0  0  0  0  0  0  0  0  0  0
    3.0346   -1.5824   -0.7591 H   0  0  0  0  0  0  0  0  0  0  0  0
    4.4579   -1.1480   -1.4301 H   0  0  0  0  0  0  0  0  0  0  0  0
    3.2043    0.4514   -1.0729 C   0  0  0  0  0  0  0  0  0  0  0  0
    3.6394    1.0449   -1.7500 H   0  0  0  0  0  0  0  0  0  0  0  0
    2.2165    0.6114   -1.0780 H   0  0  0  0  0  0  0  0  0  0  0  0
    3.5964    0.6931   -0.0849 H   0  0  0  0  0  0  0  0  0  0  0  0
  1  5  1  0
  5  6  1  0
  5  7  2  0
  1  2  1  0
  1  3  1  0
  1  4  1  0
  8 12  1  0
 12 15  1  0
  8  9  1  0
  8 10  1  0
  8 11  1  0
 12 13  1  0
 12 14  1  0
 15 16  1  0
 15 17  1  0
 15 18  1  0
M  CHG  1   6  -1
M  END
>  <PDB_ID>  (287) 
pdb1f80

>  <RESIDUE_NAME>  (287) 
GLU   ARG

>  <FRAG_NAME>  (287) 
ACET   PRPA

>  <FRAG_ATOM_NUM>  (287) 
fragi: 7  fragj: 11

>  <atom.prop.CHAIN_ID>  (287) 
A A A A A A A Z Z Z Z Z Z Z Z Z Z Z

>  <atom.prop.IS_HEAVY_ATOM>  (287) 
1 0 0 0 1 1 1 1 0 0 0 1 0 0 1 0 0 0

>  <DIFUSE_FUNC_ATOM>  (287) 
atom 6   atom 7   

>  <FINAL_SINGLE_POINT_ENERGY>  (287) 
0

>  <NONCOV_INTER_ENERGY_QM>  (287) 
0

>  <FF_Energy>  (287) 
21.8

>  <QM_Energy>  (287) 
3.18

>  <source>  (287) 
ACET_PRPA_03

>  <Index>  (287) 
584

$$$$
ACET-pdb1fd9-A-ASP-60:PRPA-pdb1fd9-A-GLN-56
     RDKit          3D

 18 16  0  0  0  0  0  0  0  0999 V2000
   -0.0030    1.5109    0.0047 C   0  0  0  0  0  0  0  0  0  0  0  0
    0.9205    1.8350   -0.1643 H   0  0  0  0  0  0  0  0  0  0  0  0
   -0.3275    1.8298    0.8873 H   0  0  0  0  0  0  0  0  0  0  0  0
   -0.6525    1.9293   -0.7642 H   0  0  0  0  0  0  0  0  0  0  0  0
    0.0000    0.0000    0.0000 C   0  0  0  0  0  0  0  0  0  0  0  0
   -1.1069   -0.5899   -0.0000 O   0  0  0  0  0  1  0  0  0  0  0  0
    1.1069   -0.5903   -0.0000 O   0  0  0  0  0  0  0  0  0  0  0  0
    1.4464   -2.9826   -2.9280 C   0  0  0  0  0  0  0  0  0  0  0  0
    0.5146   -2.9386   -3.2667 H   0  0  0  0  0  0  0  0  0  0  0  0
    2.0927   -3.3307   -3.7337 H   0  0  0  0  0  0  0  0  0  0  0  0
    1.7578   -1.9663   -2.6867 H   0  0  0  0  0  0  0  0  0  0  0  0
    1.6011   -3.8930   -1.7038 C   0  0  0  0  0  0  0  0  0  0  0  0
    1.1803   -4.7816   -1.9087 H   0  0  0  0  0  0  0  0  0  0  0  0
    2.5813   -4.0337   -1.5293 H   0  0  0  0  0  0  0  0  0  0  0  0
    0.9682   -3.3603   -0.4171 C   0  0  0  0  0  0  0  0  0  0  0  0
    1.2316   -3.9605    0.3383 H   0  0  0  0  0  0  0  0  0  0  0  0
    1.3194   -2.4386   -0.2479 H   0  0  0  0  0  0  0  0  0  0  0  0
   -0.1199   -3.3156   -0.4620 H   0  0  0  0  0  0  0  0  0  0  0  0
  1  5  1  0
  5  6  1  0
  5  7  2  0
  1  2  1  0
  1  3  1  0
  1  4  1  0
  8 12  1  0
 12 15  1  0
  8  9  1  0
  8 10  1  0
  8 11  1  0
 12 13  1  0
 12 14  1  0
 15 16  1  0
 15 17  1  0
 15 18  1  0
M  CHG  1   6  -1
M  END
>  <PDB_ID>  (288) 
pdb1fd9

>  <RESIDUE_NAME>  (288) 
ASP   GLN

>  <FRAG_NAME>  (288) 
ACET   PRPA

>  <FRAG_ATOM_NUM>  (288) 
fragi: 7  fragj: 11

>  <atom.prop.CHAIN_ID>  (288) 
A A A A A A A Z Z Z Z Z Z Z Z Z Z Z

>  <atom.prop.IS_HEAVY_ATOM>  (288) 
1 0 0 0 1 1 1 1 0 0 0 1 0 0 1 0 0 0

>  <DIFUSE_FUNC_ATOM>  (288) 
atom 6   atom 7   

>  <FINAL_SINGLE_POINT_ENERGY>  (288) 
0

>  <NONCOV_INTER_ENERGY_QM>  (288) 
0

>  <FF_Energy>  (288) 
16.38

>  <QM_Energy>  (288) 
0.26

>  <source>  (288) 
ACET_PRPA_03

>  <Index>  (288) 
828

$$$$
ACET-pdb1ekj-G-ASP-308:PRPA-pdb1ekj-G-LYS-311
     RDKit          3D

 18 16  0  0  0  0  0  0  0  0999 V2000
   -0.0045    1.5258   -0.0074 C   0  0  0  0  0  0  0  0  0  0  0  0
    0.8887    1.8455   -0.2939 H   0  0  0  0  0  0  0  0  0  0  0  0
   -0.2225    1.8482    0.9019 H   0  0  0  0  0  0  0  0  0  0  0  0
   -0.7434    1.9374   -0.6951 H   0  0  0  0  0  0  0  0  0  0  0  0
    0.0000    0.0000    0.0000 C   0  0  0  0  0  0  0  0  0  0  0  0
   -1.0959   -0.6048   -0.0000 O   0  0  0  0  0  1  0  0  0  0  0  0
    1.0959   -0.5914    0.0000 O   0  0  0  0  0  0  0  0  0  0  0  0
   -0.9047   -1.0753    3.6345 C   0  0  0  0  0  0  0  0  0  0  0  0
   -0.5930   -0.3250    3.0460 H   0  0  0  0  0  0  0  0  0  0  0  0
   -0.6308   -0.8815    4.5800 H   0  0  0  0  0  0  0  0  0  0  0  0
   -1.9937   -1.1045    3.5974 H   0  0  0  0  0  0  0  0  0  0  0  0
   -0.1935   -2.3545    3.1873 C   0  0  0  0  0  0  0  0  0  0  0  0
    0.7953   -2.2234    3.2729 H   0  0  0  0  0  0  0  0  0  0  0  0
   -0.4799   -3.1096    3.7777 H   0  0  0  0  0  0  0  0  0  0  0  0
   -0.5163   -2.7171    1.7341 C   0  0  0  0  0  0  0  0  0  0  0  0
   -1.3820   -3.2189    1.7136 H   0  0  0  0  0  0  0  0  0  0  0  0
   -0.6097   -1.8731    1.2058 H   0  0  0  0  0  0  0  0  0  0  0  0
    0.2471   -3.3340    1.2600 H   0  0  0  0  0  0  0  0  0  0  0  0
  1  5  1  0
  5  6  1  0
  5  7  2  0
  1  2  1  0
  1  3  1  0
  1  4  1  0
  8 12  1  0
 12 15  1  0
  8  9  1  0
  8 10  1  0
  8 11  1  0
 12 13  1  0
 12 14  1  0
 15 16  1  0
 15 17  1  0
 15 18  1  0
M  CHG  1   6  -1
M  END
>  <PDB_ID>  (289) 
pdb1ekj

>  <RESIDUE_NAME>  (289) 
ASP   LYS

>  <FRAG_NAME>  (289) 
ACET   PRPA

>  <FRAG_ATOM_NUM>  (289) 
fragi: 7  fragj: 11

>  <atom.prop.CHAIN_ID>  (289) 
A A A A A A A Z Z Z Z Z Z Z Z Z Z Z

>  <atom.prop.IS_HEAVY_ATOM>  (289) 
1 0 0 0 1 1 1 1 0 0 0 1 0 0 1 0 0 0

>  <DIFUSE_FUNC_ATOM>  (289) 
atom 6   atom 7   

>  <FINAL_SINGLE_POINT_ENERGY>  (289) 
0

>  <NONCOV_INTER_ENERGY_QM>  (289) 
0

>  <FF_Energy>  (289) 
27.95

>  <QM_Energy>  (289) 
0.74

>  <source>  (289) 
ACET_PRPA_03

>  <Index>  (289) 
877

$$$$
ACET-pdb1ekj-G-ASP-308:PRPA-pdb1ekj-G-LYS-311
     RDKit          3D

 18 16  0  0  0  0  0  0  0  0999 V2000
   -0.0045    1.5258   -0.0074 C   0  0  0  0  0  0  0  0  0  0  0  0
    0.8887    1.8455   -0.2939 H   0  0  0  0  0  0  0  0  0  0  0  0
   -0.2225    1.8482    0.9019 H   0  0  0  0  0  0  0  0  0  0  0  0
   -0.7434    1.9374   -0.6951 H   0  0  0  0  0  0  0  0  0  0  0  0
    0.0000    0.0000    0.0000 C   0  0  0  0  0  0  0  0  0  0  0  0
   -1.0959   -0.6048   -0.0000 O   0  0  0  0  0  1  0  0  0  0  0  0
    1.0959   -0.5914    0.0000 O   0  0  0  0  0  0  0  0  0  0  0  0
   -0.1935   -2.3545    3.1873 C   0  0  0  0  0  0  0  0  0  0  0  0
    0.7953   -2.2234    3.2729 H   0  0  0  0  0  0  0  0  0  0  0  0
   -0.4799   -3.1096    3.7777 H   0  0  0  0  0  0  0  0  0  0  0  0
   -0.7000   -1.4434    3.5058 H   0  0  0  0  0  0  0  0  0  0  0  0
   -0.5163   -2.7171    1.7341 C   0  0  0  0  0  0  0  0  0  0  0  0
   -1.3820   -3.2189    1.7136 H   0  0  0  0  0  0  0  0  0  0  0  0
   -0.6097   -1.8731    1.2058 H   0  0  0  0  0  0  0  0  0  0  0  0
    0.5581   -3.5854    1.0669 C   0  0  0  0  0  0  0  0  0  0  0  0
    1.4619   -3.2702    1.3654 H   0  0  0  0  0  0  0  0  0  0  0  0
    0.4327   -4.5372    1.3558 H   0  0  0  0  0  0  0  0  0  0  0  0
    0.5147   -3.5420   -0.0214 H   0  0  0  0  0  0  0  0  0  0  0  0
  1  5  1  0
  5  6  1  0
  5  7  2  0
  1  2  1  0
  1  3  1  0
  1  4  1  0
  8 12  1  0
 12 15  1  0
  8  9  1  0
  8 10  1  0
  8 11  1  0
 12 13  1  0
 12 14  1  0
 15 16  1  0
 15 17  1  0
 15 18  1  0
M  CHG  1   6  -1
M  END
>  <PDB_ID>  (290) 
pdb1ekj

>  <RESIDUE_NAME>  (290) 
ASP   LYS

>  <FRAG_NAME>  (290) 
ACET   PRPA

>  <FRAG_ATOM_NUM>  (290) 
fragi: 7  fragj: 11

>  <atom.prop.CHAIN_ID>  (290) 
A A A A A A A Z Z Z Z Z Z Z Z Z Z Z

>  <atom.prop.IS_HEAVY_ATOM>  (290) 
1 0 0 0 1 1 1 1 0 0 0 1 0 0 1 0 0 0

>  <DIFUSE_FUNC_ATOM>  (290) 
atom 6   atom 7   

>  <FINAL_SINGLE_POINT_ENERGY>  (290) 
0

>  <NONCOV_INTER_ENERGY_QM>  (290) 
0

>  <FF_Energy>  (290) 
32.81

>  <QM_Energy>  (290) 
0.03

>  <source>  (290) 
ACET_PRPA_03

>  <Index>  (290) 
887

$$$$
ACET-pdb1f3u-D-GLU-161:PRPA-pdb1f3u-D-ILE-56
     RDKit          3D

 18 16  0  0  0  0  0  0  0  0999 V2000
    0.0019    1.5217   -0.0004 C   0  0  0  0  0  0  0  0  0  0  0  0
    0.5209    1.8162   -0.7800 H   0  0  0  0  0  0  0  0  0  0  0  0
    0.4011    1.8162    0.8478 H   0  0  0  0  0  0  0  0  0  0  0  0
   -0.9996    1.9455   -0.0750 H   0  0  0  0  0  0  0  0  0  0  0  0
    0.0000    0.0000    0.0000 C   0  0  0  0  0  0  0  0  0  0  0  0
   -1.0983   -0.5989    0.0000 O   0  0  0  0  0  1  0  0  0  0  0  0
    1.0983   -0.5956    0.0000 O   0  0  0  0  0  0  0  0  0  0  0  0
    3.7316    4.2923   -3.0954 C   0  0  0  0  0  0  0  0  0  0  0  0
    3.7759    5.1085   -2.5338 H   0  0  0  0  0  0  0  0  0  0  0  0
    4.7478    3.9230   -3.2338 H   0  0  0  0  0  0  0  0  0  0  0  0
    3.2828    4.5129   -4.0639 H   0  0  0  0  0  0  0  0  0  0  0  0
    2.8944    3.2489   -2.3510 C   0  0  0  0  0  0  0  0  0  0  0  0
    2.9584    2.3822   -2.8475 H   0  0  0  0  0  0  0  0  0  0  0  0
    3.2937    3.1212   -1.4410 H   0  0  0  0  0  0  0  0  0  0  0  0
    1.4388    3.6209   -2.1949 C   0  0  0  0  0  0  0  0  0  0  0  0
    1.0268    3.7384   -3.0983 H   0  0  0  0  0  0  0  0  0  0  0  0
    0.9610    2.8940   -1.7020 H   0  0  0  0  0  0  0  0  0  0  0  0
    1.3677    4.4760   -1.6819 H   0  0  0  0  0  0  0  0  0  0  0  0
  1  5  1  0
  5  6  1  0
  5  7  2  0
  1  2  1  0
  1  3  1  0
  1  4  1  0
  8 12  1  0
 12 15  1  0
  8  9  1  0
  8 10  1  0
  8 11  1  0
 12 13  1  0
 12 14  1  0
 15 16  1  0
 15 17  1  0
 15 18  1  0
M  CHG  1   6  -1
M  END
>  <PDB_ID>  (291) 
pdb1f3u

>  <RESIDUE_NAME>  (291) 
GLU   ILE

>  <FRAG_NAME>  (291) 
ACET   PRPA

>  <FRAG_ATOM_NUM>  (291) 
fragi: 7  fragj: 11

>  <atom.prop.CHAIN_ID>  (291) 
A A A A A A A Z Z Z Z Z Z Z Z Z Z Z

>  <atom.prop.IS_HEAVY_ATOM>  (291) 
1 0 0 0 1 1 1 1 0 0 0 1 0 0 1 0 0 0

>  <DIFUSE_FUNC_ATOM>  (291) 
atom 6   atom 7   

>  <FINAL_SINGLE_POINT_ENERGY>  (291) 
0

>  <NONCOV_INTER_ENERGY_QM>  (291) 
0

>  <FF_Energy>  (291) 
29.78

>  <QM_Energy>  (291) 
3.64

>  <source>  (291) 
ACET_PRPA_03

>  <Index>  (291) 
992

$$$$
ACET-pdb1fdq-A-GLU-72:PRPA-pdb1fdq-A-ILE-62
     RDKit          3D

 18 16  0  0  0  0  0  0  0  0999 V2000
    0.0149    1.5218   -0.0254 C   0  0  0  0  0  0  0  0  0  0  0  0
   -0.6650    1.7801   -0.6846 H   0  0  0  0  0  0  0  0  0  0  0  0
    0.9231    1.7703   -0.3051 H   0  0  0  0  0  0  0  0  0  0  0  0
   -0.2223    1.8916    0.9722 H   0  0  0  0  0  0  0  0  0  0  0  0
    0.0000    0.0000    0.0000 C   0  0  0  0  0  0  0  0  0  0  0  0
   -1.0938   -0.5996    0.0000 O   0  0  0  0  0  1  0  0  0  0  0  0
    1.0938   -0.5943    0.0000 O   0  0  0  0  0  0  0  0  0  0  0  0
    5.2255    0.8826    1.1922 C   0  0  0  0  0  0  0  0  0  0  0  0
    5.5754   -0.0457    1.0277 H   0  0  0  0  0  0  0  0  0  0  0  0
    6.0726    1.5520    1.3417 H   0  0  0  0  0  0  0  0  0  0  0  0
    4.5443    0.8743    2.0430 H   0  0  0  0  0  0  0  0  0  0  0  0
    4.3780    1.2743   -0.0173 C   0  0  0  0  0  0  0  0  0  0  0  0
    4.0549    2.2057    0.1055 H   0  0  0  0  0  0  0  0  0  0  0  0
    4.9467    1.2260   -0.8325 H   0  0  0  0  0  0  0  0  0  0  0  0
    3.1687    0.3597   -0.2197 C   0  0  0  0  0  0  0  0  0  0  0  0
    2.5899    0.4058    0.5903 H   0  0  0  0  0  0  0  0  0  0  0  0
    2.6610    0.6677   -1.0194 H   0  0  0  0  0  0  0  0  0  0  0  0
    3.4889   -0.5737   -0.3574 H   0  0  0  0  0  0  0  0  0  0  0  0
  1  5  1  0
  5  6  1  0
  5  7  2  0
  1  2  1  0
  1  3  1  0
  1  4  1  0
  8 12  1  0
 12 15  1  0
  8  9  1  0
  8 10  1  0
  8 11  1  0
 12 13  1  0
 12 14  1  0
 15 16  1  0
 15 17  1  0
 15 18  1  0
M  CHG  1   6  -1
M  END
>  <PDB_ID>  (292) 
pdb1fdq

>  <RESIDUE_NAME>  (292) 
GLU   ILE

>  <FRAG_NAME>  (292) 
ACET   PRPA

>  <FRAG_ATOM_NUM>  (292) 
fragi: 7  fragj: 11

>  <atom.prop.CHAIN_ID>  (292) 
A A A A A A A Z Z Z Z Z Z Z Z Z Z Z

>  <atom.prop.IS_HEAVY_ATOM>  (292) 
1 0 0 0 1 1 1 1 0 0 0 1 0 0 1 0 0 0

>  <DIFUSE_FUNC_ATOM>  (292) 
atom 6   atom 7   

>  <FINAL_SINGLE_POINT_ENERGY>  (292) 
0

>  <NONCOV_INTER_ENERGY_QM>  (292) 
0

>  <FF_Energy>  (292) 
47.19

>  <QM_Energy>  (292) 
13.73

>  <source>  (292) 
ACET_PRPA_03

>  <Index>  (292) 
1074

$$$$
ACET-pdb2gax-B-ASP-108:PRPA-pdb2gax-A-ARG-121
     RDKit          3D

 18 16  0  0  0  0  0  0  0  0999 V2000
    0.0092    1.4886   -0.0415 C   0  0  0  0  0  0  0  0  0  0  0  0
    0.9365    1.8164    0.1049 H   0  0  0  0  0  0  0  0  0  0  0  0
   -0.5981    1.8422    0.6608 H   0  0  0  0  0  0  0  0  0  0  0  0
   -0.3328    1.8701   -1.0035 H   0  0  0  0  0  0  0  0  0  0  0  0
    0.0000    0.0000    0.0000 C   0  0  0  0  0  0  0  0  0  0  0  0
   -1.0992   -0.5844    0.0000 O   0  0  0  0  0  1  0  0  0  0  0  0
    1.0992   -0.5818    0.0000 O   0  0  0  0  0  0  0  0  0  0  0  0
    4.5502   -2.4550    2.3003 C   0  0  0  0  0  0  0  0  0  0  0  0
    4.8318   -1.6455    1.7837 H   0  0  0  0  0  0  0  0  0  0  0  0
    4.8585   -3.2772    1.8218 H   0  0  0  0  0  0  0  0  0  0  0  0
    5.0409   -2.4242    3.2732 H   0  0  0  0  0  0  0  0  0  0  0  0
    3.0146   -2.4807    2.3284 C   0  0  0  0  0  0  0  0  0  0  0  0
    2.7108   -3.2260    2.9078 H   0  0  0  0  0  0  0  0  0  0  0  0
    2.6801   -1.6109    2.6697 H   0  0  0  0  0  0  0  0  0  0  0  0
    2.4483   -2.6969    0.9303 C   0  0  0  0  0  0  0  0  0  0  0  0
    1.6893   -2.0543    0.8027 H   0  0  0  0  0  0  0  0  0  0  0  0
    3.1724   -2.4844    0.2691 H   0  0  0  0  0  0  0  0  0  0  0  0
    2.0910   -3.7118    0.7561 H   0  0  0  0  0  0  0  0  0  0  0  0
  1  5  1  0
  5  6  1  0
  5  7  2  0
  1  2  1  0
  1  3  1  0
  1  4  1  0
  8 12  1  0
 12 15  1  0
  8  9  1  0
  8 10  1  0
  8 11  1  0
 12 13  1  0
 12 14  1  0
 15 16  1  0
 15 17  1  0
 15 18  1  0
M  CHG  1   6  -1
M  END
>  <PDB_ID>  (293) 
pdb2gax

>  <RESIDUE_NAME>  (293) 
ASP   ARG

>  <FRAG_NAME>  (293) 
ACET   PRPA

>  <FRAG_ATOM_NUM>  (293) 
fragi: 7  fragj: 11

>  <atom.prop.CHAIN_ID>  (293) 
A A A A A A A Z Z Z Z Z Z Z Z Z Z Z

>  <atom.prop.IS_HEAVY_ATOM>  (293) 
1 0 0 0 1 1 1 1 0 0 0 1 0 0 1 0 0 0

>  <DIFUSE_FUNC_ATOM>  (293) 
atom 6   atom 7   

>  <FINAL_SINGLE_POINT_ENERGY>  (293) 
0

>  <NONCOV_INTER_ENERGY_QM>  (293) 
0

>  <FF_Energy>  (293) 
33.41

>  <QM_Energy>  (293) 
1.63

>  <source>  (293) 
ACET_PRPA_03

>  <Index>  (293) 
1197

$$$$
ACET-pdb1feu-A-GLU-60:PRPA-pdb1feu-A-ARG-4
     RDKit          3D

 18 16  0  0  0  0  0  0  0  0999 V2000
    0.0038    1.5278    0.0107 C   0  0  0  0  0  0  0  0  0  0  0  0
    0.8386    1.8212   -0.4096 H   0  0  0  0  0  0  0  0  0  0  0  0
   -0.0728    1.8137    0.9450 H   0  0  0  0  0  0  0  0  0  0  0  0
   -0.8313    1.9479   -0.5497 H   0  0  0  0  0  0  0  0  0  0  0  0
    0.0000    0.0000    0.0000 C   0  0  0  0  0  0  0  0  0  0  0  0
   -1.1001   -0.6021   -0.0000 O   0  0  0  0  0  1  0  0  0  0  0  0
    1.1001   -0.5957    0.0000 O   0  0  0  0  0  0  0  0  0  0  0  0
    2.2543    1.7386    4.5748 C   0  0  0  0  0  0  0  0  0  0  0  0
    3.2381    1.6021    4.5519 H   0  0  0  0  0  0  0  0  0  0  0  0
    1.8201    1.0410    5.1335 H   0  0  0  0  0  0  0  0  0  0  0  0
    2.0569    2.7094    5.0295 H   0  0  0  0  0  0  0  0  0  0  0  0
    1.7234    1.6067    3.1540 C   0  0  0  0  0  0  0  0  0  0  0  0
    0.7439    1.8080    3.1458 H   0  0  0  0  0  0  0  0  0  0  0  0
    2.2019    2.2535    2.5605 H   0  0  0  0  0  0  0  0  0  0  0  0
    1.9251    0.2101    2.5911 C   0  0  0  0  0  0  0  0  0  0  0  0
    1.4299   -0.4325    3.1731 H   0  0  0  0  0  0  0  0  0  0  0  0
    1.5434    0.1908    1.6678 H   0  0  0  0  0  0  0  0  0  0  0  0
    2.9759   -0.0769    2.5512 H   0  0  0  0  0  0  0  0  0  0  0  0
  1  5  1  0
  5  6  1  0
  5  7  2  0
  1  2  1  0
  1  3  1  0
  1  4  1  0
  8 12  1  0
 12 15  1  0
  8  9  1  0
  8 10  1  0
  8 11  1  0
 12 13  1  0
 12 14  1  0
 15 16  1  0
 15 17  1  0
 15 18  1  0
M  CHG  1   6  -1
M  END
>  <PDB_ID>  (294) 
pdb1feu

>  <RESIDUE_NAME>  (294) 
GLU   ARG

>  <FRAG_NAME>  (294) 
ACET   PRPA

>  <FRAG_ATOM_NUM>  (294) 
fragi: 7  fragj: 11

>  <atom.prop.CHAIN_ID>  (294) 
A A A A A A A Z Z Z Z Z Z Z Z Z Z Z

>  <atom.prop.IS_HEAVY_ATOM>  (294) 
1 0 0 0 1 1 1 1 0 0 0 1 0 0 1 0 0 0

>  <DIFUSE_FUNC_ATOM>  (294) 
atom 6   atom 7   

>  <FINAL_SINGLE_POINT_ENERGY>  (294) 
0

>  <NONCOV_INTER_ENERGY_QM>  (294) 
0

>  <FF_Energy>  (294) 
17.76

>  <QM_Energy>  (294) 
1.17

>  <source>  (294) 
ACET_PRPA_03

>  <Index>  (294) 
1438

$$$$
ACET-pdb1fdh-A-GLU-116:PRPA-pdb1fdh-A-LYS-16
     RDKit          3D

 18 16  0  0  0  0  0  0  0  0999 V2000
    0.2386    1.5569   -0.0096 C   0  0  0  0  0  0  0  0  0  0  0  0
    0.6745    1.7646   -0.8664 H   0  0  0  0  0  0  0  0  0  0  0  0
    0.8207    1.7514    0.7592 H   0  0  0  0  0  0  0  0  0  0  0  0
   -0.6650    2.1606    0.0754 H   0  0  0  0  0  0  0  0  0  0  0  0
    0.0000    0.0000    0.0000 C   0  0  0  0  0  0  0  0  0  0  0  0
   -1.0996   -0.4673    0.0000 O   0  0  0  0  0  1  0  0  0  0  0  0
    1.0996   -0.5532   -0.0000 O   0  0  0  0  0  0  0  0  0  0  0  0
    0.8737   -1.1075    3.0777 C   0  0  0  0  0  0  0  0  0  0  0  0
    0.3909   -1.9737    3.1937 H   0  0  0  0  0  0  0  0  0  0  0  0
    0.5909   -0.6748    2.2242 H   0  0  0  0  0  0  0  0  0  0  0  0
    0.6350   -0.4481    3.9121 H   0  0  0  0  0  0  0  0  0  0  0  0
    2.3713   -1.3884    3.0128 C   0  0  0  0  0  0  0  0  0  0  0  0
    2.8629   -0.5313    3.1316 H   0  0  0  0  0  0  0  0  0  0  0  0
    2.6093   -2.0277    3.7365 H   0  0  0  0  0  0  0  0  0  0  0  0
    2.7693   -1.9959    1.6767 C   0  0  0  0  0  0  0  0  0  0  0  0
    2.3320   -2.8910    1.5863 H   0  0  0  0  0  0  0  0  0  0  0  0
    2.4517   -1.3960    0.9415 H   0  0  0  0  0  0  0  0  0  0  0  0
    3.8511   -2.1118    1.6091 H   0  0  0  0  0  0  0  0  0  0  0  0
  1  5  1  0
  5  6  1  0
  5  7  2  0
  1  2  1  0
  1  3  1  0
  1  4  1  0
  8 12  1  0
 12 15  1  0
  8  9  1  0
  8 10  1  0
  8 11  1  0
 12 13  1  0
 12 14  1  0
 15 16  1  0
 15 17  1  0
 15 18  1  0
M  CHG  1   6  -1
M  END
>  <PDB_ID>  (295) 
pdb1fdh

>  <RESIDUE_NAME>  (295) 
GLU   LYS

>  <FRAG_NAME>  (295) 
ACET   PRPA

>  <FRAG_ATOM_NUM>  (295) 
fragi: 7  fragj: 11

>  <atom.prop.CHAIN_ID>  (295) 
A A A A A A A Z Z Z Z Z Z Z Z Z Z Z

>  <atom.prop.IS_HEAVY_ATOM>  (295) 
1 0 0 0 1 1 1 1 0 0 0 1 0 0 1 0 0 0

>  <DIFUSE_FUNC_ATOM>  (295) 
atom 6   atom 7   

>  <FINAL_SINGLE_POINT_ENERGY>  (295) 
0

>  <NONCOV_INTER_ENERGY_QM>  (295) 
0

>  <FF_Energy>  (295) 
22.86

>  <QM_Energy>  (295) 
-0.48

>  <source>  (295) 
ACET_PRPA_03

>  <Index>  (295) 
1869

$$$$
ACET-pdb2gd9-A-GLU-75:PRPA-pdb2gd9-A-LYS-78
     RDKit          3D

 18 16  0  0  0  0  0  0  0  0999 V2000
   -0.0059    1.5179    0.0004 C   0  0  0  0  0  0  0  0  0  0  0  0
   -0.8083    1.8085   -0.4820 H   0  0  0  0  0  0  0  0  0  0  0  0
    0.8241    1.8143   -0.4307 H   0  0  0  0  0  0  0  0  0  0  0  0
   -0.0407    1.9243    1.0112 H   0  0  0  0  0  0  0  0  0  0  0  0
    0.0000    0.0000    0.0000 C   0  0  0  0  0  0  0  0  0  0  0  0
   -1.1048   -0.5929   -0.0000 O   0  0  0  0  0  1  0  0  0  0  0  0
    1.1048   -0.5985   -0.0000 O   0  0  0  0  0  0  0  0  0  0  0  0
   -1.9816   -2.4612    3.8594 C   0  0  0  0  0  0  0  0  0  0  0  0
   -1.2443   -1.8108    3.6911 H   0  0  0  0  0  0  0  0  0  0  0  0
   -1.6289   -3.3933    3.8007 H   0  0  0  0  0  0  0  0  0  0  0  0
   -2.3412   -2.3031    4.8761 H   0  0  0  0  0  0  0  0  0  0  0  0
   -3.0430   -2.2781    2.7854 C   0  0  0  0  0  0  0  0  0  0  0  0
   -3.7855   -2.9284    2.9462 H   0  0  0  0  0  0  0  0  0  0  0  0
   -3.4004   -1.3453    2.8351 H   0  0  0  0  0  0  0  0  0  0  0  0
   -2.4744   -2.5134    1.3971 C   0  0  0  0  0  0  0  0  0  0  0  0
   -1.7309   -1.8634    1.2397 H   0  0  0  0  0  0  0  0  0  0  0  0
   -2.1165   -3.4461    1.3495 H   0  0  0  0  0  0  0  0  0  0  0  0
   -3.2204   -2.3866    0.6126 H   0  0  0  0  0  0  0  0  0  0  0  0
  1  5  1  0
  5  6  1  0
  5  7  2  0
  1  2  1  0
  1  3  1  0
  1  4  1  0
  8 12  1  0
 12 15  1  0
  8  9  1  0
  8 10  1  0
  8 11  1  0
 12 13  1  0
 12 14  1  0
 15 16  1  0
 15 17  1  0
 15 18  1  0
M  CHG  1   6  -1
M  END
>  <PDB_ID>  (296) 
pdb2gd9

>  <RESIDUE_NAME>  (296) 
GLU   LYS

>  <FRAG_NAME>  (296) 
ACET   PRPA

>  <FRAG_ATOM_NUM>  (296) 
fragi: 7  fragj: 11

>  <atom.prop.CHAIN_ID>  (296) 
A A A A A A A Z Z Z Z Z Z Z Z Z Z Z

>  <atom.prop.IS_HEAVY_ATOM>  (296) 
1 0 0 0 1 1 1 1 0 0 0 1 0 0 1 0 0 0

>  <DIFUSE_FUNC_ATOM>  (296) 
atom 6   atom 7   

>  <FINAL_SINGLE_POINT_ENERGY>  (296) 
0

>  <NONCOV_INTER_ENERGY_QM>  (296) 
0

>  <FF_Energy>  (296) 
16.63

>  <QM_Energy>  (296) 
0.61

>  <source>  (296) 
ACET_PRPA_03

>  <Index>  (296) 
1920

$$$$
ACET-pdb2gel-A-GLU-28:PRPA-pdb2gel-A-ARG-37
     RDKit          3D

 18 16  0  0  0  0  0  0  0  0999 V2000
   -0.0096    1.5123    0.0093 C   0  0  0  0  0  0  0  0  0  0  0  0
   -0.0492    1.8046    0.9476 H   0  0  0  0  0  0  0  0  0  0  0  0
   -0.7940    1.8079   -0.5055 H   0  0  0  0  0  0  0  0  0  0  0  0
    0.8835    1.9402   -0.4460 H   0  0  0  0  0  0  0  0  0  0  0  0
    0.0000    0.0000    0.0000 C   0  0  0  0  0  0  0  0  0  0  0  0
   -1.0995   -0.5902   -0.0000 O   0  0  0  0  0  1  0  0  0  0  0  0
    1.0995   -0.5930    0.0000 O   0  0  0  0  0  0  0  0  0  0  0  0
   -3.8298   -2.1028    2.0970 C   0  0  0  0  0  0  0  0  0  0  0  0
   -4.5138   -1.3831    2.1523 H   0  0  0  0  0  0  0  0  0  0  0  0
   -2.9320   -1.7447    2.3282 H   0  0  0  0  0  0  0  0  0  0  0  0
   -4.0872   -2.8727    2.8244 H   0  0  0  0  0  0  0  0  0  0  0  0
   -3.7859   -2.6078    0.6693 C   0  0  0  0  0  0  0  0  0  0  0  0
   -4.3357   -3.4308    0.5889 H   0  0  0  0  0  0  0  0  0  0  0  0
   -4.1192   -1.9024    0.0559 H   0  0  0  0  0  0  0  0  0  0  0  0
   -2.3610   -2.9460    0.2733 C   0  0  0  0  0  0  0  0  0  0  0  0
   -2.3927   -3.6566   -0.4245 H   0  0  0  0  0  0  0  0  0  0  0  0
   -1.9379   -2.1228   -0.0962 H   0  0  0  0  0  0  0  0  0  0  0  0
   -1.7769   -3.3006    1.1225 H   0  0  0  0  0  0  0  0  0  0  0  0
  1  5  1  0
  5  6  1  0
  5  7  2  0
  1  2  1  0
  1  3  1  0
  1  4  1  0
  8 12  1  0
 12 15  1  0
  8  9  1  0
  8 10  1  0
  8 11  1  0
 12 13  1  0
 12 14  1  0
 15 16  1  0
 15 17  1  0
 15 18  1  0
M  CHG  1   6  -1
M  END
>  <PDB_ID>  (297) 
pdb2gel

>  <RESIDUE_NAME>  (297) 
GLU   ARG

>  <FRAG_NAME>  (297) 
ACET   PRPA

>  <FRAG_ATOM_NUM>  (297) 
fragi: 7  fragj: 11

>  <atom.prop.CHAIN_ID>  (297) 
A A A A A A A Z Z Z Z Z Z Z Z Z Z Z

>  <atom.prop.IS_HEAVY_ATOM>  (297) 
1 0 0 0 1 1 1 1 0 0 0 1 0 0 1 0 0 0

>  <DIFUSE_FUNC_ATOM>  (297) 
atom 6   atom 7   

>  <FINAL_SINGLE_POINT_ENERGY>  (297) 
0

>  <NONCOV_INTER_ENERGY_QM>  (297) 
0

>  <FF_Energy>  (297) 
40.09

>  <QM_Energy>  (297) 
1.86

>  <source>  (297) 
ACET_PRPA_03

>  <Index>  (297) 
2679

$$$$
ACET-pdb1fcb-A-ASP-72:PRPA-pdb1fcb-A-PRO-2
     RDKit          3D

 18 16  0  0  0  0  0  0  0  0999 V2000
    0.1226    1.5108    0.0796 C   0  0  0  0  0  0  0  0  0  0  0  0
   -0.5019    1.9155   -0.5441 H   0  0  0  0  0  0  0  0  0  0  0  0
    1.0486    1.7642   -0.0561 H   0  0  0  0  0  0  0  0  0  0  0  0
   -0.1661    1.8070    1.0880 H   0  0  0  0  0  0  0  0  0  0  0  0
    0.0000    0.0000    0.0000 C   0  0  0  0  0  0  0  0  0  0  0  0
   -1.1306   -0.4877   -0.0000 O   0  0  0  0  0  1  0  0  0  0  0  0
    1.1306   -0.5484    0.0000 O   0  0  0  0  0  0  0  0  0  0  0  0
   -5.0677   -3.4637    0.1686 C   0  0  0  0  0  0  0  0  0  0  0  0
   -5.5217   -3.8216   -0.6306 H   0  0  0  0  0  0  0  0  0  0  0  0
   -5.4877   -2.5046    0.4719 H   0  0  0  0  0  0  0  0  0  0  0  0
   -5.1903   -4.1312    1.0215 H   0  0  0  0  0  0  0  0  0  0  0  0
   -3.5703   -3.1858   -0.0661 C   0  0  0  0  0  0  0  0  0  0  0  0
   -3.0186   -3.9486    0.2508 H   0  0  0  0  0  0  0  0  0  0  0  0
   -3.3935   -3.0039   -1.0265 H   0  0  0  0  0  0  0  0  0  0  0  0
   -3.3259   -1.9599    0.7695 C   0  0  0  0  0  0  0  0  0  0  0  0
   -3.1974   -2.2067    1.7249 H   0  0  0  0  0  0  0  0  0  0  0  0
   -2.5345   -1.4595    0.4337 H   0  0  0  0  0  0  0  0  0  0  0  0
   -4.2375   -1.3766    0.6395 H   0  0  0  0  0  0  0  0  0  0  0  0
  1  5  1  0
  5  6  1  0
  5  7  2  0
  1  2  1  0
  1  3  1  0
  1  4  1  0
  8 12  1  0
 12 15  1  0
  8  9  1  0
  8 10  1  0
  8 11  1  0
 12 13  1  0
 12 14  1  0
 15 16  1  0
 15 17  1  0
 15 18  1  0
M  CHG  1   6  -1
M  END
>  <PDB_ID>  (298) 
pdb1fcb

>  <RESIDUE_NAME>  (298) 
ASP   PRO

>  <FRAG_NAME>  (298) 
ACET   PRPA

>  <FRAG_ATOM_NUM>  (298) 
fragi: 7  fragj: 11

>  <atom.prop.CHAIN_ID>  (298) 
A A A A A A A Z Z Z Z Z Z Z Z Z Z Z

>  <atom.prop.IS_HEAVY_ATOM>  (298) 
1 0 0 0 1 1 1 1 0 0 0 1 0 0 1 0 0 0

>  <DIFUSE_FUNC_ATOM>  (298) 
atom 6   atom 7   

>  <FINAL_SINGLE_POINT_ENERGY>  (298) 
0

>  <NONCOV_INTER_ENERGY_QM>  (298) 
0

>  <FF_Energy>  (298) 
35.83

>  <QM_Energy>  (298) 
1.33

>  <source>  (298) 
ACET_PRPA_03

>  <Index>  (298) 
3021

$$$$
ACET-pdb1f3t-A-GLU-419:PRPA-pdb1f3t-A-VAL-409
     RDKit          3D

 18 16  0  0  0  0  0  0  0  0999 V2000
   -0.0192    1.5072    0.0017 C   0  0  0  0  0  0  0  0  0  0  0  0
   -0.5916    1.7954    0.7520 H   0  0  0  0  0  0  0  0  0  0  0  0
   -0.3844    1.7995   -0.8673 H   0  0  0  0  0  0  0  0  0  0  0  0
    0.9701    1.9464    0.1304 H   0  0  0  0  0  0  0  0  0  0  0  0
    0.0000    0.0000    0.0000 C   0  0  0  0  0  0  0  0  0  0  0  0
   -1.0992   -0.5866   -0.0000 O   0  0  0  0  0  1  0  0  0  0  0  0
    1.0992   -0.5939    0.0000 O   0  0  0  0  0  0  0  0  0  0  0  0
   -2.5658   -1.4320   -2.3660 C   0  0  0  0  0  0  0  0  0  0  0  0
   -2.0478   -0.5908   -2.5470 H   0  0  0  0  0  0  0  0  0  0  0  0
   -3.1538   -1.6262   -3.1566 H   0  0  0  0  0  0  0  0  0  0  0  0
   -3.1459   -1.2879   -1.5597 H   0  0  0  0  0  0  0  0  0  0  0  0
   -1.6268   -2.5754   -2.1277 C   0  0  0  0  0  0  0  0  0  0  0  0
   -0.7236   -2.2966   -2.4508 H   0  0  0  0  0  0  0  0  0  0  0  0
   -1.9248   -3.4485   -2.7082 H   0  0  0  0  0  0  0  0  0  0  0  0
   -1.5858   -2.9572   -0.6461 C   0  0  0  0  0  0  0  0  0  0  0  0
   -1.6032   -3.9526   -0.5652 H   0  0  0  0  0  0  0  0  0  0  0  0
   -0.7474   -2.5976   -0.2402 H   0  0  0  0  0  0  0  0  0  0  0  0
   -2.3811   -2.5651   -0.1860 H   0  0  0  0  0  0  0  0  0  0  0  0
  1  5  1  0
  5  6  1  0
  5  7  2  0
  1  2  1  0
  1  3  1  0
  1  4  1  0
  8 12  1  0
 12 15  1  0
  8  9  1  0
  8 10  1  0
  8 11  1  0
 12 13  1  0
 12 14  1  0
 15 16  1  0
 15 17  1  0
 15 18  1  0
M  CHG  1   6  -1
M  END
>  <PDB_ID>  (299) 
pdb1f3t

>  <RESIDUE_NAME>  (299) 
GLU   VAL

>  <FRAG_NAME>  (299) 
ACET   PRPA

>  <FRAG_ATOM_NUM>  (299) 
fragi: 7  fragj: 11

>  <atom.prop.CHAIN_ID>  (299) 
A A A A A A A Z Z Z Z Z Z Z Z Z Z Z

>  <atom.prop.IS_HEAVY_ATOM>  (299) 
1 0 0 0 1 1 1 1 0 0 0 1 0 0 1 0 0 0

>  <DIFUSE_FUNC_ATOM>  (299) 
atom 6   atom 7   

>  <FINAL_SINGLE_POINT_ENERGY>  (299) 
0

>  <NONCOV_INTER_ENERGY_QM>  (299) 
0

>  <FF_Energy>  (299) 
18.6

>  <QM_Energy>  (299) 
2.0

>  <source>  (299) 
ACET_PRPA_03

>  <Index>  (299) 
3140

$$$$
ACET-pdb1fep-A-ASP-34:PRPA-pdb1fep-A-LYS-38
     RDKit          3D

 18 16  0  0  0  0  0  0  0  0999 V2000
   -0.0553    1.5024    0.0770 C   0  0  0  0  0  0  0  0  0  0  0  0
   -0.7315    1.8291   -0.5668 H   0  0  0  0  0  0  0  0  0  0  0  0
    0.8411    1.8646   -0.1306 H   0  0  0  0  0  0  0  0  0  0  0  0
   -0.3407    1.8257    1.0780 H   0  0  0  0  0  0  0  0  0  0  0  0
    0.0000    0.0000    0.0000 C   0  0  0  0  0  0  0  0  0  0  0  0
   -1.1221   -0.5715   -0.0000 O   0  0  0  0  0  1  0  0  0  0  0  0
    1.1221   -0.5928   -0.0000 O   0  0  0  0  0  0  0  0  0  0  0  0
    2.1462   -2.0901    3.9529 C   0  0  0  0  0  0  0  0  0  0  0  0
    1.7903   -3.0044    4.1788 H   0  0  0  0  0  0  0  0  0  0  0  0
    1.3678   -1.4612    3.8538 H   0  0  0  0  0  0  0  0  0  0  0  0
    2.7898   -1.7440    4.7617 H   0  0  0  0  0  0  0  0  0  0  0  0
    2.8940   -2.1516    2.6900 C   0  0  0  0  0  0  0  0  0  0  0  0
    3.2792   -1.2632    2.4716 H   0  0  0  0  0  0  0  0  0  0  0  0
    3.6060   -2.8408    2.7407 H   0  0  0  0  0  0  0  0  0  0  0  0
    1.9505   -2.5401    1.5575 C   0  0  0  0  0  0  0  0  0  0  0  0
    1.3359   -1.7819    1.3842 H   0  0  0  0  0  0  0  0  0  0  0  0
    2.4908   -2.7481    0.7531 H   0  0  0  0  0  0  0  0  0  0  0  0
    1.3884   -3.4187    1.8739 H   0  0  0  0  0  0  0  0  0  0  0  0
  1  5  1  0
  5  6  1  0
  5  7  2  0
  1  2  1  0
  1  3  1  0
  1  4  1  0
  8 12  1  0
 12 15  1  0
  8  9  1  0
  8 10  1  0
  8 11  1  0
 12 13  1  0
 12 14  1  0
 15 16  1  0
 15 17  1  0
 15 18  1  0
M  CHG  1   6  -1
M  END
>  <PDB_ID>  (300) 
pdb1fep

>  <RESIDUE_NAME>  (300) 
ASP   LYS

>  <FRAG_NAME>  (300) 
ACET   PRPA

>  <FRAG_ATOM_NUM>  (300) 
fragi: 7  fragj: 11

>  <atom.prop.CHAIN_ID>  (300) 
A A A A A A A Z Z Z Z Z Z Z Z Z Z Z

>  <atom.prop.IS_HEAVY_ATOM>  (300) 
1 0 0 0 1 1 1 1 0 0 0 1 0 0 1 0 0 0

>  <DIFUSE_FUNC_ATOM>  (300) 
atom 6   atom 7   

>  <FINAL_SINGLE_POINT_ENERGY>  (300) 
0

>  <NONCOV_INTER_ENERGY_QM>  (300) 
0

>  <FF_Energy>  (300) 
24.96

>  <QM_Energy>  (300) 
2.7

>  <source>  (300) 
ACET_PRPA_03

>  <Index>  (300) 
3165

$$$$
ACET-pdb1f3t-A-GLU-419:PRPA-pdb1f3t-A-VAL-416
     RDKit          3D

 18 16  0  0  0  0  0  0  0  0999 V2000
   -0.0192    1.5072    0.0017 C   0  0  0  0  0  0  0  0  0  0  0  0
   -0.5916    1.7954    0.7520 H   0  0  0  0  0  0  0  0  0  0  0  0
   -0.3844    1.7995   -0.8673 H   0  0  0  0  0  0  0  0  0  0  0  0
    0.9701    1.9464    0.1304 H   0  0  0  0  0  0  0  0  0  0  0  0
    0.0000    0.0000    0.0000 C   0  0  0  0  0  0  0  0  0  0  0  0
   -1.0992   -0.5866   -0.0000 O   0  0  0  0  0  1  0  0  0  0  0  0
    1.0992   -0.5939    0.0000 O   0  0  0  0  0  0  0  0  0  0  0  0
   -3.0660    0.8297    1.5028 C   0  0  0  0  0  0  0  0  0  0  0  0
   -2.2279    0.4891    1.1056 H   0  0  0  0  0  0  0  0  0  0  0  0
   -3.0168    0.6977    2.5837 H   0  0  0  0  0  0  0  0  0  0  0  0
   -3.1066    1.9068    1.3410 H   0  0  0  0  0  0  0  0  0  0  0  0
   -4.3502    0.1789    0.9330 C   0  0  0  0  0  0  0  0  0  0  0  0
   -5.1260    0.6123    1.3781 H   0  0  0  0  0  0  0  0  0  0  0  0
   -4.3411   -0.8941    1.1245 H   0  0  0  0  0  0  0  0  0  0  0  0
   -4.4681    0.4590   -0.5530 C   0  0  0  0  0  0  0  0  0  0  0  0
   -3.8972   -0.1859   -1.0631 H   0  0  0  0  0  0  0  0  0  0  0  0
   -5.4214    0.3569   -0.8407 H   0  0  0  0  0  0  0  0  0  0  0  0
   -4.1639    1.3925   -0.7449 H   0  0  0  0  0  0  0  0  0  0  0  0
  1  5  1  0
  5  6  1  0
  5  7  2  0
  1  2  1  0
  1  3  1  0
  1  4  1  0
  8 12  1  0
 12 15  1  0
  8  9  1  0
  8 10  1  0
  8 11  1  0
 12 13  1  0
 12 14  1  0
 15 16  1  0
 15 17  1  0
 15 18  1  0
M  CHG  1   6  -1
M  END
>  <PDB_ID>  (301) 
pdb1f3t

>  <RESIDUE_NAME>  (301) 
GLU   VAL

>  <FRAG_NAME>  (301) 
ACET   PRPA

>  <FRAG_ATOM_NUM>  (301) 
fragi: 7  fragj: 11

>  <atom.prop.CHAIN_ID>  (301) 
A A A A A A A Z Z Z Z Z Z Z Z Z Z Z

>  <atom.prop.IS_HEAVY_ATOM>  (301) 
1 0 0 0 1 1 1 1 0 0 0 1 0 0 1 0 0 0

>  <DIFUSE_FUNC_ATOM>  (301) 
atom 6   atom 7   

>  <FINAL_SINGLE_POINT_ENERGY>  (301) 
0

>  <NONCOV_INTER_ENERGY_QM>  (301) 
0

>  <FF_Energy>  (301) 
15.02

>  <QM_Energy>  (301) 
-0.84

>  <source>  (301) 
ACET_PRPA_03

>  <Index>  (301) 
3206

$$$$
ACET-pdb1f3t-A-GLU-419:PRPA-pdb1f3t-A-VAL-416
     RDKit          3D

 18 16  0  0  0  0  0  0  0  0999 V2000
   -0.0192    1.5072    0.0017 C   0  0  0  0  0  0  0  0  0  0  0  0
   -0.5916    1.7954    0.7520 H   0  0  0  0  0  0  0  0  0  0  0  0
   -0.3844    1.7995   -0.8673 H   0  0  0  0  0  0  0  0  0  0  0  0
    0.9701    1.9464    0.1304 H   0  0  0  0  0  0  0  0  0  0  0  0
    0.0000    0.0000    0.0000 C   0  0  0  0  0  0  0  0  0  0  0  0
   -1.0992   -0.5866   -0.0000 O   0  0  0  0  0  1  0  0  0  0  0  0
    1.0992   -0.5939    0.0000 O   0  0  0  0  0  0  0  0  0  0  0  0
   -3.0660    0.8297    1.5028 C   0  0  0  0  0  0  0  0  0  0  0  0
   -2.2279    0.4891    1.1056 H   0  0  0  0  0  0  0  0  0  0  0  0
   -3.0168    0.6977    2.5837 H   0  0  0  0  0  0  0  0  0  0  0  0
   -3.1066    1.9068    1.3410 H   0  0  0  0  0  0  0  0  0  0  0  0
   -4.3502    0.1789    0.9330 C   0  0  0  0  0  0  0  0  0  0  0  0
   -5.1260    0.6123    1.3781 H   0  0  0  0  0  0  0  0  0  0  0  0
   -4.4350    0.3801   -0.1349 H   0  0  0  0  0  0  0  0  0  0  0  0
   -4.3375   -1.3203    1.2006 C   0  0  0  0  0  0  0  0  0  0  0  0
   -5.2202   -1.7086    0.9396 H   0  0  0  0  0  0  0  0  0  0  0  0
   -3.6097   -1.7454    0.6621 H   0  0  0  0  0  0  0  0  0  0  0  0
   -4.1741   -1.4803    2.1737 H   0  0  0  0  0  0  0  0  0  0  0  0
  1  5  1  0
  5  6  1  0
  5  7  2  0
  1  2  1  0
  1  3  1  0
  1  4  1  0
  8 12  1  0
 12 15  1  0
  8  9  1  0
  8 10  1  0
  8 11  1  0
 12 13  1  0
 12 14  1  0
 15 16  1  0
 15 17  1  0
 15 18  1  0
M  CHG  1   6  -1
M  END
>  <PDB_ID>  (302) 
pdb1f3t

>  <RESIDUE_NAME>  (302) 
GLU   VAL

>  <FRAG_NAME>  (302) 
ACET   PRPA

>  <FRAG_ATOM_NUM>  (302) 
fragi: 7  fragj: 11

>  <atom.prop.CHAIN_ID>  (302) 
A A A A A A A Z Z Z Z Z Z Z Z Z Z Z

>  <atom.prop.IS_HEAVY_ATOM>  (302) 
1 0 0 0 1 1 1 1 0 0 0 1 0 0 1 0 0 0

>  <DIFUSE_FUNC_ATOM>  (302) 
atom 6   atom 7   

>  <FINAL_SINGLE_POINT_ENERGY>  (302) 
0

>  <NONCOV_INTER_ENERGY_QM>  (302) 
0

>  <FF_Energy>  (302) 
15.04

>  <QM_Energy>  (302) 
-0.98

>  <source>  (302) 
ACET_PRPA_03

>  <Index>  (302) 
3212

$$$$
ACET-pdb1fdh-B-GLU-116:PRPA-pdb1fdh-B-LYS-16
     RDKit          3D

 18 16  0  0  0  0  0  0  0  0999 V2000
    0.2386    1.5569   -0.0096 C   0  0  0  0  0  0  0  0  0  0  0  0
    0.6745    1.7646   -0.8664 H   0  0  0  0  0  0  0  0  0  0  0  0
    0.8207    1.7514    0.7592 H   0  0  0  0  0  0  0  0  0  0  0  0
   -0.6650    2.1606    0.0754 H   0  0  0  0  0  0  0  0  0  0  0  0
    0.0000    0.0000    0.0000 C   0  0  0  0  0  0  0  0  0  0  0  0
   -1.0996   -0.4673    0.0000 O   0  0  0  0  0  1  0  0  0  0  0  0
    1.0996   -0.5532   -0.0000 O   0  0  0  0  0  0  0  0  0  0  0  0
    0.8737   -1.1075    3.0777 C   0  0  0  0  0  0  0  0  0  0  0  0
    0.3909   -1.9737    3.1937 H   0  0  0  0  0  0  0  0  0  0  0  0
    0.5909   -0.6748    2.2242 H   0  0  0  0  0  0  0  0  0  0  0  0
    0.6350   -0.4481    3.9121 H   0  0  0  0  0  0  0  0  0  0  0  0
    2.3713   -1.3884    3.0128 C   0  0  0  0  0  0  0  0  0  0  0  0
    2.8629   -0.5313    3.1316 H   0  0  0  0  0  0  0  0  0  0  0  0
    2.6093   -2.0277    3.7365 H   0  0  0  0  0  0  0  0  0  0  0  0
    2.7693   -1.9959    1.6767 C   0  0  0  0  0  0  0  0  0  0  0  0
    2.3320   -2.8910    1.5863 H   0  0  0  0  0  0  0  0  0  0  0  0
    2.4517   -1.3960    0.9415 H   0  0  0  0  0  0  0  0  0  0  0  0
    3.8511   -2.1118    1.6091 H   0  0  0  0  0  0  0  0  0  0  0  0
  1  5  1  0
  5  6  1  0
  5  7  2  0
  1  2  1  0
  1  3  1  0
  1  4  1  0
  8 12  1  0
 12 15  1  0
  8  9  1  0
  8 10  1  0
  8 11  1  0
 12 13  1  0
 12 14  1  0
 15 16  1  0
 15 17  1  0
 15 18  1  0
M  CHG  1   6  -1
M  END
>  <PDB_ID>  (303) 
pdb1fdh

>  <RESIDUE_NAME>  (303) 
GLU   LYS

>  <FRAG_NAME>  (303) 
ACET   PRPA

>  <FRAG_ATOM_NUM>  (303) 
fragi: 7  fragj: 11

>  <atom.prop.CHAIN_ID>  (303) 
A A A A A A A Z Z Z Z Z Z Z Z Z Z Z

>  <atom.prop.IS_HEAVY_ATOM>  (303) 
1 0 0 0 1 1 1 1 0 0 0 1 0 0 1 0 0 0

>  <DIFUSE_FUNC_ATOM>  (303) 
atom 6   atom 7   

>  <FINAL_SINGLE_POINT_ENERGY>  (303) 
0

>  <NONCOV_INTER_ENERGY_QM>  (303) 
0

>  <FF_Energy>  (303) 
22.86

>  <QM_Energy>  (303) 
-0.48

>  <source>  (303) 
ACET_PRPA_03

>  <Index>  (303) 
3608

$$$$
ACET-pdb1f8r-A-GLU-192:PRPA-pdb1f8r-A-LYS-163
     RDKit          3D

 18 16  0  0  0  0  0  0  0  0999 V2000
    0.0004    1.5154    0.0051 C   0  0  0  0  0  0  0  0  0  0  0  0
    0.9179    1.8139   -0.1778 H   0  0  0  0  0  0  0  0  0  0  0  0
   -0.3206    1.8099    0.8848 H   0  0  0  0  0  0  0  0  0  0  0  0
   -0.6543    1.9371   -0.7576 H   0  0  0  0  0  0  0  0  0  0  0  0
    0.0000    0.0000    0.0000 C   0  0  0  0  0  0  0  0  0  0  0  0
   -1.1001   -0.5979    0.0000 O   0  0  0  0  0  1  0  0  0  0  0  0
    1.1001   -0.5934    0.0000 O   0  0  0  0  0  0  0  0  0  0  0  0
   -4.7291    0.5276   -0.6712 C   0  0  0  0  0  0  0  0  0  0  0  0
   -5.5450   -0.0445   -0.7962 H   0  0  0  0  0  0  0  0  0  0  0  0
   -4.3308    0.7242   -1.5720 H   0  0  0  0  0  0  0  0  0  0  0  0
   -5.0094    1.4614   -0.1837 H   0  0  0  0  0  0  0  0  0  0  0  0
   -3.7102   -0.2615    0.1443 C   0  0  0  0  0  0  0  0  0  0  0  0
   -2.8936    0.3059    0.2663 H   0  0  0  0  0  0  0  0  0  0  0  0
   -4.1088   -0.4632    1.0413 H   0  0  0  0  0  0  0  0  0  0  0  0
   -3.3073   -1.5598   -0.5118 C   0  0  0  0  0  0  0  0  0  0  0  0
   -4.1201   -2.1317   -0.6337 H   0  0  0  0  0  0  0  0  0  0  0  0
   -2.9048   -1.3635   -1.4084 H   0  0  0  0  0  0  0  0  0  0  0  0
   -2.5793   -2.0935    0.0992 H   0  0  0  0  0  0  0  0  0  0  0  0
  1  5  1  0
  5  6  1  0
  5  7  2  0
  1  2  1  0
  1  3  1  0
  1  4  1  0
  8 12  1  0
 12 15  1  0
  8  9  1  0
  8 10  1  0
  8 11  1  0
 12 13  1  0
 12 14  1  0
 15 16  1  0
 15 17  1  0
 15 18  1  0
M  CHG  1   6  -1
M  END
>  <PDB_ID>  (304) 
pdb1f8r

>  <RESIDUE_NAME>  (304) 
GLU   LYS

>  <FRAG_NAME>  (304) 
ACET   PRPA

>  <FRAG_ATOM_NUM>  (304) 
fragi: 7  fragj: 11

>  <atom.prop.CHAIN_ID>  (304) 
A A A A A A A Z Z Z Z Z Z Z Z Z Z Z

>  <atom.prop.IS_HEAVY_ATOM>  (304) 
1 0 0 0 1 1 1 1 0 0 0 1 0 0 1 0 0 0

>  <DIFUSE_FUNC_ATOM>  (304) 
atom 6   atom 7   

>  <FINAL_SINGLE_POINT_ENERGY>  (304) 
0

>  <NONCOV_INTER_ENERGY_QM>  (304) 
0

>  <FF_Energy>  (304) 
26.82

>  <QM_Energy>  (304) 
5.57

>  <source>  (304) 
ACET_PRPA_03

>  <Index>  (304) 
3809

$$$$
ACET-pdb2gcl-A-GLU-457:PRPA-pdb2gcl-A-VAL-384
     RDKit          3D

 18 16  0  0  0  0  0  0  0  0999 V2000
    0.0391    1.5303    0.0037 C   0  0  0  0  0  0  0  0  0  0  0  0
    0.5678    1.8152   -0.7840 H   0  0  0  0  0  0  0  0  0  0  0  0
    0.4789    1.8137    0.8460 H   0  0  0  0  0  0  0  0  0  0  0  0
   -0.9297    2.0269   -0.0497 H   0  0  0  0  0  0  0  0  0  0  0  0
    0.0000    0.0000    0.0000 C   0  0  0  0  0  0  0  0  0  0  0  0
   -1.0956   -0.6097    0.0000 O   0  0  0  0  0  1  0  0  0  0  0  0
    1.0956   -0.6067    0.0000 O   0  0  0  0  0  0  0  0  0  0  0  0
    1.9711    2.5945   -2.5222 C   0  0  0  0  0  0  0  0  0  0  0  0
    2.9164    2.2673   -2.4617 H   0  0  0  0  0  0  0  0  0  0  0  0
    1.8931    3.4663   -2.0341 H   0  0  0  0  0  0  0  0  0  0  0  0
    1.3641    1.9233   -2.0930 H   0  0  0  0  0  0  0  0  0  0  0  0
    1.5855    2.7821   -3.9697 C   0  0  0  0  0  0  0  0  0  0  0  0
    0.7304    2.3010   -4.1208 H   0  0  0  0  0  0  0  0  0  0  0  0
    2.3263    2.3205   -4.6226 H   0  0  0  0  0  0  0  0  0  0  0  0
    1.3829    4.2706   -4.2790 C   0  0  0  0  0  0  0  0  0  0  0  0
    1.7155    4.4581   -5.2009 H   0  0  0  0  0  0  0  0  0  0  0  0
    0.4101    4.4856   -4.2170 H   0  0  0  0  0  0  0  0  0  0  0  0
    1.8951    4.8121   -3.6154 H   0  0  0  0  0  0  0  0  0  0  0  0
  1  5  1  0
  5  6  1  0
  5  7  2  0
  1  2  1  0
  1  3  1  0
  1  4  1  0
  8 12  1  0
 12 15  1  0
  8  9  1  0
  8 10  1  0
  8 11  1  0
 12 13  1  0
 12 14  1  0
 15 16  1  0
 15 17  1  0
 15 18  1  0
M  CHG  1   6  -1
M  END
>  <PDB_ID>  (305) 
pdb2gcl

>  <RESIDUE_NAME>  (305) 
GLU   VAL

>  <FRAG_NAME>  (305) 
ACET   PRPA

>  <FRAG_ATOM_NUM>  (305) 
fragi: 7  fragj: 11

>  <atom.prop.CHAIN_ID>  (305) 
A A A A A A A Z Z Z Z Z Z Z Z Z Z Z

>  <atom.prop.IS_HEAVY_ATOM>  (305) 
1 0 0 0 1 1 1 1 0 0 0 1 0 0 1 0 0 0

>  <DIFUSE_FUNC_ATOM>  (305) 
atom 6   atom 7   

>  <FINAL_SINGLE_POINT_ENERGY>  (305) 
0

>  <NONCOV_INTER_ENERGY_QM>  (305) 
0

>  <FF_Energy>  (305) 
20.46

>  <QM_Energy>  (305) 
3.17

>  <source>  (305) 
ACET_PRPA_03

>  <Index>  (305) 
3811

$$$$
ACET-pdb1fcb-A-ASP-72:PRPA-pdb1fcb-A-PRO-2
     RDKit          3D

 18 16  0  0  0  0  0  0  0  0999 V2000
    0.1226    1.5108    0.0796 C   0  0  0  0  0  0  0  0  0  0  0  0
   -0.5019    1.9155   -0.5441 H   0  0  0  0  0  0  0  0  0  0  0  0
    1.0486    1.7642   -0.0561 H   0  0  0  0  0  0  0  0  0  0  0  0
   -0.1661    1.8070    1.0880 H   0  0  0  0  0  0  0  0  0  0  0  0
    0.0000    0.0000    0.0000 C   0  0  0  0  0  0  0  0  0  0  0  0
   -1.1306   -0.4877   -0.0000 O   0  0  0  0  0  1  0  0  0  0  0  0
    1.1306   -0.5484    0.0000 O   0  0  0  0  0  0  0  0  0  0  0  0
   -3.5703   -3.1858   -0.0661 C   0  0  0  0  0  0  0  0  0  0  0  0
   -3.0186   -3.9486    0.2508 H   0  0  0  0  0  0  0  0  0  0  0  0
   -3.3935   -3.0039   -1.0265 H   0  0  0  0  0  0  0  0  0  0  0  0
   -4.6295   -3.3824    0.0998 H   0  0  0  0  0  0  0  0  0  0  0  0
   -3.3259   -1.9599    0.7695 C   0  0  0  0  0  0  0  0  0  0  0  0
   -3.1974   -2.2067    1.7249 H   0  0  0  0  0  0  0  0  0  0  0  0
   -2.5345   -1.4595    0.4337 H   0  0  0  0  0  0  0  0  0  0  0  0
   -4.5953   -1.1477    0.5884 C   0  0  0  0  0  0  0  0  0  0  0  0
   -4.7265   -0.5167    1.3485 H   0  0  0  0  0  0  0  0  0  0  0  0
   -4.5779   -0.6436   -0.2732 H   0  0  0  0  0  0  0  0  0  0  0  0
   -5.3676   -1.9169    0.5784 H   0  0  0  0  0  0  0  0  0  0  0  0
  1  5  1  0
  5  6  1  0
  5  7  2  0
  1  2  1  0
  1  3  1  0
  1  4  1  0
  8 12  1  0
 12 15  1  0
  8  9  1  0
  8 10  1  0
  8 11  1  0
 12 13  1  0
 12 14  1  0
 15 16  1  0
 15 17  1  0
 15 18  1  0
M  CHG  1   6  -1
M  END
>  <PDB_ID>  (306) 
pdb1fcb

>  <RESIDUE_NAME>  (306) 
ASP   PRO

>  <FRAG_NAME>  (306) 
ACET   PRPA

>  <FRAG_ATOM_NUM>  (306) 
fragi: 7  fragj: 11

>  <atom.prop.CHAIN_ID>  (306) 
A A A A A A A Z Z Z Z Z Z Z Z Z Z Z

>  <atom.prop.IS_HEAVY_ATOM>  (306) 
1 0 0 0 1 1 1 1 0 0 0 1 0 0 1 0 0 0

>  <DIFUSE_FUNC_ATOM>  (306) 
atom 6   atom 7   

>  <FINAL_SINGLE_POINT_ENERGY>  (306) 
0

>  <NONCOV_INTER_ENERGY_QM>  (306) 
0

>  <FF_Energy>  (306) 
42.08

>  <QM_Energy>  (306) 
0.21

>  <source>  (306) 
ACET_PRPA_03

>  <Index>  (306) 
3878

$$$$
ACET-pdb1fea-A-ASP-151:PRPA-pdb1fea-A-ARG-2
     RDKit          3D

 18 16  0  0  0  0  0  0  0  0999 V2000
    0.0149    1.5363    0.0340 C   0  0  0  0  0  0  0  0  0  0  0  0
   -0.7507    1.8712   -0.4956 H   0  0  0  0  0  0  0  0  0  0  0  0
    0.8742    1.8515   -0.3382 H   0  0  0  0  0  0  0  0  0  0  0  0
   -0.0784    1.9335    1.0447 H   0  0  0  0  0  0  0  0  0  0  0  0
    0.0000    0.0000    0.0000 C   0  0  0  0  0  0  0  0  0  0  0  0
   -1.1066   -0.6116   -0.0000 O   0  0  0  0  0  1  0  0  0  0  0  0
    1.1066   -0.5856    0.0000 O   0  0  0  0  0  0  0  0  0  0  0  0
    4.3111   -2.6191   -0.5404 C   0  0  0  0  0  0  0  0  0  0  0  0
    3.7356   -2.6563   -1.3090 H   0  0  0  0  0  0  0  0  0  0  0  0
    5.2597   -3.1027   -0.7738 H   0  0  0  0  0  0  0  0  0  0  0  0
    4.6506   -1.5908   -0.4158 H   0  0  0  0  0  0  0  0  0  0  0  0
    3.7629   -3.2124    0.7835 C   0  0  0  0  0  0  0  0  0  0  0  0
    3.6753   -4.2042    0.6523 H   0  0  0  0  0  0  0  0  0  0  0  0
    4.4498   -3.0404    1.4950 H   0  0  0  0  0  0  0  0  0  0  0  0
    2.4357   -2.6725    1.2586 C   0  0  0  0  0  0  0  0  0  0  0  0
    2.5316   -2.3131    2.1911 H   0  0  0  0  0  0  0  0  0  0  0  0
    2.1380   -1.9294    0.6530 H   0  0  0  0  0  0  0  0  0  0  0  0
    1.6499   -3.4278    1.2707 H   0  0  0  0  0  0  0  0  0  0  0  0
  1  5  1  0
  5  6  1  0
  5  7  2  0
  1  2  1  0
  1  3  1  0
  1  4  1  0
  8 12  1  0
 12 15  1  0
  8  9  1  0
  8 10  1  0
  8 11  1  0
 12 13  1  0
 12 14  1  0
 15 16  1  0
 15 17  1  0
 15 18  1  0
M  CHG  1   6  -1
M  END
>  <PDB_ID>  (307) 
pdb1fea

>  <RESIDUE_NAME>  (307) 
ASP   ARG

>  <FRAG_NAME>  (307) 
ACET   PRPA

>  <FRAG_ATOM_NUM>  (307) 
fragi: 7  fragj: 11

>  <atom.prop.CHAIN_ID>  (307) 
A A A A A A A Z Z Z Z Z Z Z Z Z Z Z

>  <atom.prop.IS_HEAVY_ATOM>  (307) 
1 0 0 0 1 1 1 1 0 0 0 1 0 0 1 0 0 0

>  <DIFUSE_FUNC_ATOM>  (307) 
atom 6   atom 7   

>  <FINAL_SINGLE_POINT_ENERGY>  (307) 
0

>  <NONCOV_INTER_ENERGY_QM>  (307) 
0

>  <FF_Energy>  (307) 
25.31

>  <QM_Energy>  (307) 
0.98

>  <source>  (307) 
ACET_PRPA_03

>  <Index>  (307) 
4248

$$$$
ACET-pdb1fea-A-ASP-151:PRPA-pdb1fea-A-ARG-2
     RDKit          3D

 18 16  0  0  0  0  0  0  0  0999 V2000
    0.0149    1.5363    0.0340 C   0  0  0  0  0  0  0  0  0  0  0  0
   -0.7507    1.8712   -0.4956 H   0  0  0  0  0  0  0  0  0  0  0  0
    0.8742    1.8515   -0.3382 H   0  0  0  0  0  0  0  0  0  0  0  0
   -0.0784    1.9335    1.0447 H   0  0  0  0  0  0  0  0  0  0  0  0
    0.0000    0.0000    0.0000 C   0  0  0  0  0  0  0  0  0  0  0  0
   -1.1066   -0.6116   -0.0000 O   0  0  0  0  0  1  0  0  0  0  0  0
    1.1066   -0.5856    0.0000 O   0  0  0  0  0  0  0  0  0  0  0  0
    3.7629   -3.2124    0.7835 C   0  0  0  0  0  0  0  0  0  0  0  0
    3.6753   -4.2042    0.6523 H   0  0  0  0  0  0  0  0  0  0  0  0
    4.4498   -3.0404    1.4950 H   0  0  0  0  0  0  0  0  0  0  0  0
    4.1481   -2.7954   -0.1470 H   0  0  0  0  0  0  0  0  0  0  0  0
    2.4357   -2.6725    1.2586 C   0  0  0  0  0  0  0  0  0  0  0  0
    2.5316   -2.3131    2.1911 H   0  0  0  0  0  0  0  0  0  0  0  0
    2.1380   -1.9294    0.6530 H   0  0  0  0  0  0  0  0  0  0  0  0
    1.3396   -3.7260    1.2755 C   0  0  0  0  0  0  0  0  0  0  0  0
    1.4810   -4.3340    0.5051 H   0  0  0  0  0  0  0  0  0  0  0  0
    1.3994   -4.2217    2.1328 H   0  0  0  0  0  0  0  0  0  0  0  0
    0.3548   -3.2661    1.1938 H   0  0  0  0  0  0  0  0  0  0  0  0
  1  5  1  0
  5  6  1  0
  5  7  2  0
  1  2  1  0
  1  3  1  0
  1  4  1  0
  8 12  1  0
 12 15  1  0
  8  9  1  0
  8 10  1  0
  8 11  1  0
 12 13  1  0
 12 14  1  0
 15 16  1  0
 15 17  1  0
 15 18  1  0
M  CHG  1   6  -1
M  END
>  <PDB_ID>  (308) 
pdb1fea

>  <RESIDUE_NAME>  (308) 
ASP   ARG

>  <FRAG_NAME>  (308) 
ACET   PRPA

>  <FRAG_ATOM_NUM>  (308) 
fragi: 7  fragj: 11

>  <atom.prop.CHAIN_ID>  (308) 
A A A A A A A Z Z Z Z Z Z Z Z Z Z Z

>  <atom.prop.IS_HEAVY_ATOM>  (308) 
1 0 0 0 1 1 1 1 0 0 0 1 0 0 1 0 0 0

>  <DIFUSE_FUNC_ATOM>  (308) 
atom 6   atom 7   

>  <FINAL_SINGLE_POINT_ENERGY>  (308) 
0

>  <NONCOV_INTER_ENERGY_QM>  (308) 
0

>  <FF_Energy>  (308) 
28.42

>  <QM_Energy>  (308) 
-0.53

>  <source>  (308) 
ACET_PRPA_03

>  <Index>  (308) 
4256

$$$$
ACET-pdb2gb3-B-GLU-59:PRPA-pdb2gb3-A-LYS-44
     RDKit          3D

 18 16  0  0  0  0  0  0  0  0999 V2000
    0.1774    1.4862    0.0158 C   0  0  0  0  0  0  0  0  0  0  0  0
    0.6964    1.7407   -0.8011 H   0  0  0  0  0  0  0  0  0  0  0  0
    0.7075    1.7216    0.8311 H   0  0  0  0  0  0  0  0  0  0  0  0
   -0.7327    2.0858    0.0282 H   0  0  0  0  0  0  0  0  0  0  0  0
    0.0000    0.0000    0.0000 C   0  0  0  0  0  0  0  0  0  0  0  0
   -1.0891   -0.5556    0.0000 O   0  0  0  0  0  1  0  0  0  0  0  0
    1.0891   -0.6092    0.0000 O   0  0  0  0  0  0  0  0  0  0  0  0
   -4.0606    1.3657   -3.7800 C   0  0  0  0  0  0  0  0  0  0  0  0
   -4.8044    0.7624   -3.4682 H   0  0  0  0  0  0  0  0  0  0  0  0
   -3.6317    0.9465   -4.5891 H   0  0  0  0  0  0  0  0  0  0  0  0
   -4.4782    2.3338   -4.0566 H   0  0  0  0  0  0  0  0  0  0  0  0
   -3.0106    1.4509   -2.6669 C   0  0  0  0  0  0  0  0  0  0  0  0
   -2.2802    2.0539   -2.9578 H   0  0  0  0  0  0  0  0  0  0  0  0
   -3.4413    1.7873   -1.8412 H   0  0  0  0  0  0  0  0  0  0  0  0
   -2.3990    0.0655   -2.3610 C   0  0  0  0  0  0  0  0  0  0  0  0
   -1.7437    0.1694   -1.6020 H   0  0  0  0  0  0  0  0  0  0  0  0
   -3.1391   -0.5467   -2.0546 H   0  0  0  0  0  0  0  0  0  0  0  0
   -1.8909   -0.3873   -3.2124 H   0  0  0  0  0  0  0  0  0  0  0  0
  1  5  1  0
  5  6  1  0
  5  7  2  0
  1  2  1  0
  1  3  1  0
  1  4  1  0
  8 12  1  0
 12 15  1  0
  8  9  1  0
  8 10  1  0
  8 11  1  0
 12 13  1  0
 12 14  1  0
 15 16  1  0
 15 17  1  0
 15 18  1  0
M  CHG  1   6  -1
M  END
>  <PDB_ID>  (309) 
pdb2gb3

>  <RESIDUE_NAME>  (309) 
GLU   LYS

>  <FRAG_NAME>  (309) 
ACET   PRPA

>  <FRAG_ATOM_NUM>  (309) 
fragi: 7  fragj: 11

>  <atom.prop.CHAIN_ID>  (309) 
A A A A A A A Z Z Z Z Z Z Z Z Z Z Z

>  <atom.prop.IS_HEAVY_ATOM>  (309) 
1 0 0 0 1 1 1 1 0 0 0 1 0 0 1 0 0 0

>  <DIFUSE_FUNC_ATOM>  (309) 
atom 6   atom 7   

>  <FINAL_SINGLE_POINT_ENERGY>  (309) 
0

>  <NONCOV_INTER_ENERGY_QM>  (309) 
0

>  <FF_Energy>  (309) 
16.29

>  <QM_Energy>  (309) 
1.54

>  <source>  (309) 
ACET_PRPA_03

>  <Index>  (309) 
4528

$$$$
ACET-pdb2g5f-A-ASP-51:PRPA-pdb2g5f-A-VAL-234
     RDKit          3D

 18 16  0  0  0  0  0  0  0  0999 V2000
    0.0215    1.5159   -0.0181 C   0  0  0  0  0  0  0  0  0  0  0  0
    0.5180    1.8172   -0.8355 H   0  0  0  0  0  0  0  0  0  0  0  0
    0.5072    1.8373    0.7969 H   0  0  0  0  0  0  0  0  0  0  0  0
   -0.9623    1.9852   -0.0306 H   0  0  0  0  0  0  0  0  0  0  0  0
    0.0000    0.0000    0.0000 C   0  0  0  0  0  0  0  0  0  0  0  0
   -1.0958   -0.6030    0.0000 O   0  0  0  0  0  1  0  0  0  0  0  0
    1.0958   -0.5762   -0.0000 O   0  0  0  0  0  0  0  0  0  0  0  0
   -2.8246   -1.8883    1.1593 C   0  0  0  0  0  0  0  0  0  0  0  0
   -2.3485   -1.0767    1.5059 H   0  0  0  0  0  0  0  0  0  0  0  0
   -3.5459   -2.2102    1.9106 H   0  0  0  0  0  0  0  0  0  0  0  0
   -3.3439   -1.6067    0.2433 H   0  0  0  0  0  0  0  0  0  0  0  0
   -1.7875   -2.9876    0.8407 C   0  0  0  0  0  0  0  0  0  0  0  0
   -1.2459   -2.6776    0.0712 H   0  0  0  0  0  0  0  0  0  0  0  0
   -2.2910   -3.9250    0.6042 H   0  0  0  0  0  0  0  0  0  0  0  0
   -0.8301   -3.1525    2.0220 C   0  0  0  0  0  0  0  0  0  0  0  0
   -0.4384   -2.2637    2.2560 H   0  0  0  0  0  0  0  0  0  0  0  0
   -1.3323   -3.5149    2.8056 H   0  0  0  0  0  0  0  0  0  0  0  0
   -0.0996   -3.7844    1.7695 H   0  0  0  0  0  0  0  0  0  0  0  0
  1  5  1  0
  5  6  1  0
  5  7  2  0
  1  2  1  0
  1  3  1  0
  1  4  1  0
  8 12  1  0
 12 15  1  0
  8  9  1  0
  8 10  1  0
  8 11  1  0
 12 13  1  0
 12 14  1  0
 15 16  1  0
 15 17  1  0
 15 18  1  0
M  CHG  1   6  -1
M  END
>  <PDB_ID>  (310) 
pdb2g5f

>  <RESIDUE_NAME>  (310) 
ASP   VAL

>  <FRAG_NAME>  (310) 
ACET   PRPA

>  <FRAG_ATOM_NUM>  (310) 
fragi: 7  fragj: 11

>  <atom.prop.CHAIN_ID>  (310) 
A A A A A A A Z Z Z Z Z Z Z Z Z Z Z

>  <atom.prop.IS_HEAVY_ATOM>  (310) 
1 0 0 0 1 1 1 1 0 0 0 1 0 0 1 0 0 0

>  <DIFUSE_FUNC_ATOM>  (310) 
atom 6   atom 7   

>  <FINAL_SINGLE_POINT_ENERGY>  (310) 
0

>  <NONCOV_INTER_ENERGY_QM>  (310) 
0

>  <FF_Energy>  (310) 
29.81

>  <QM_Energy>  (310) 
3.6

>  <source>  (310) 
ACET_PRPA_03

>  <Index>  (310) 
5187

$$$$
ACET-pdb2g5f-A-ASP-51:PRPA-pdb2g5f-A-VAL-234
     RDKit          3D

 18 16  0  0  0  0  0  0  0  0999 V2000
    0.0215    1.5159   -0.0181 C   0  0  0  0  0  0  0  0  0  0  0  0
    0.5180    1.8172   -0.8355 H   0  0  0  0  0  0  0  0  0  0  0  0
    0.5072    1.8373    0.7969 H   0  0  0  0  0  0  0  0  0  0  0  0
   -0.9623    1.9852   -0.0306 H   0  0  0  0  0  0  0  0  0  0  0  0
    0.0000    0.0000    0.0000 C   0  0  0  0  0  0  0  0  0  0  0  0
   -1.0958   -0.6030    0.0000 O   0  0  0  0  0  1  0  0  0  0  0  0
    1.0958   -0.5762   -0.0000 O   0  0  0  0  0  0  0  0  0  0  0  0
   -2.8246   -1.8883    1.1593 C   0  0  0  0  0  0  0  0  0  0  0  0
   -2.3485   -1.0767    1.5059 H   0  0  0  0  0  0  0  0  0  0  0  0
   -3.5459   -2.2102    1.9106 H   0  0  0  0  0  0  0  0  0  0  0  0
   -3.3439   -1.6067    0.2433 H   0  0  0  0  0  0  0  0  0  0  0  0
   -1.7875   -2.9876    0.8407 C   0  0  0  0  0  0  0  0  0  0  0  0
   -1.2459   -2.6776    0.0712 H   0  0  0  0  0  0  0  0  0  0  0  0
   -1.1052   -3.1051    1.6826 H   0  0  0  0  0  0  0  0  0  0  0  0
   -2.4899   -4.2955    0.5107 C   0  0  0  0  0  0  0  0  0  0  0  0
   -2.1687   -4.6286   -0.3753 H   0  0  0  0  0  0  0  0  0  0  0  0
   -2.2824   -4.9703    1.2193 H   0  0  0  0  0  0  0  0  0  0  0  0
   -3.4770   -4.1406    0.4735 H   0  0  0  0  0  0  0  0  0  0  0  0
  1  5  1  0
  5  6  1  0
  5  7  2  0
  1  2  1  0
  1  3  1  0
  1  4  1  0
  8 12  1  0
 12 15  1  0
  8  9  1  0
  8 10  1  0
  8 11  1  0
 12 13  1  0
 12 14  1  0
 15 16  1  0
 15 17  1  0
 15 18  1  0
M  CHG  1   6  -1
M  END
>  <PDB_ID>  (311) 
pdb2g5f

>  <RESIDUE_NAME>  (311) 
ASP   VAL

>  <FRAG_NAME>  (311) 
ACET   PRPA

>  <FRAG_ATOM_NUM>  (311) 
fragi: 7  fragj: 11

>  <atom.prop.CHAIN_ID>  (311) 
A A A A A A A Z Z Z Z Z Z Z Z Z Z Z

>  <atom.prop.IS_HEAVY_ATOM>  (311) 
1 0 0 0 1 1 1 1 0 0 0 1 0 0 1 0 0 0

>  <DIFUSE_FUNC_ATOM>  (311) 
atom 6   atom 7   

>  <FINAL_SINGLE_POINT_ENERGY>  (311) 
0

>  <NONCOV_INTER_ENERGY_QM>  (311) 
0

>  <FF_Energy>  (311) 
28.78

>  <QM_Energy>  (311) 
5.51

>  <source>  (311) 
ACET_PRPA_03

>  <Index>  (311) 
5190

$$$$
ACET-pdb1fcb-A-GLU-101:PRPA-pdb1fcb-A-LYS-138
     RDKit          3D

 18 16  0  0  0  0  0  0  0  0999 V2000
    0.2178    1.4925   -0.1241 C   0  0  0  0  0  0  0  0  0  0  0  0
   -0.0407    1.9084    0.7375 H   0  0  0  0  0  0  0  0  0  0  0  0
   -0.3561    1.8210   -0.8626 H   0  0  0  0  0  0  0  0  0  0  0  0
    1.2432    1.7911   -0.3415 H   0  0  0  0  0  0  0  0  0  0  0  0
    0.0000    0.0000    0.0000 C   0  0  0  0  0  0  0  0  0  0  0  0
   -1.0666   -0.5665    0.0000 O   0  0  0  0  0  1  0  0  0  0  0  0
    1.0666   -0.6658   -0.0000 O   0  0  0  0  0  0  0  0  0  0  0  0
    1.2244   -3.8229    1.9953 C   0  0  0  0  0  0  0  0  0  0  0  0
    0.6280   -4.6287    1.9059 H   0  0  0  0  0  0  0  0  0  0  0  0
    0.6202   -2.9530    2.2528 H   0  0  0  0  0  0  0  0  0  0  0  0
    1.9587   -4.0273    2.7745 H   0  0  0  0  0  0  0  0  0  0  0  0
    2.0320   -3.8173    0.7060 C   0  0  0  0  0  0  0  0  0  0  0  0
    2.8017   -3.1872    0.8170 H   0  0  0  0  0  0  0  0  0  0  0  0
    2.3847   -4.7425    0.5496 H   0  0  0  0  0  0  0  0  0  0  0  0
    1.2519   -3.3934   -0.5366 C   0  0  0  0  0  0  0  0  0  0  0  0
    0.3072   -3.7081   -0.4495 H   0  0  0  0  0  0  0  0  0  0  0  0
    1.2685   -2.3969   -0.6075 H   0  0  0  0  0  0  0  0  0  0  0  0
    1.6821   -3.8186   -1.4434 H   0  0  0  0  0  0  0  0  0  0  0  0
  1  5  1  0
  5  6  1  0
  5  7  2  0
  1  2  1  0
  1  3  1  0
  1  4  1  0
  8 12  1  0
 12 15  1  0
  8  9  1  0
  8 10  1  0
  8 11  1  0
 12 13  1  0
 12 14  1  0
 15 16  1  0
 15 17  1  0
 15 18  1  0
M  CHG  1   6  -1
M  END
>  <PDB_ID>  (312) 
pdb1fcb

>  <RESIDUE_NAME>  (312) 
GLU   LYS

>  <FRAG_NAME>  (312) 
ACET   PRPA

>  <FRAG_ATOM_NUM>  (312) 
fragi: 7  fragj: 11

>  <atom.prop.CHAIN_ID>  (312) 
A A A A A A A Z Z Z Z Z Z Z Z Z Z Z

>  <atom.prop.IS_HEAVY_ATOM>  (312) 
1 0 0 0 1 1 1 1 0 0 0 1 0 0 1 0 0 0

>  <DIFUSE_FUNC_ATOM>  (312) 
atom 6   atom 7   

>  <FINAL_SINGLE_POINT_ENERGY>  (312) 
0

>  <NONCOV_INTER_ENERGY_QM>  (312) 
0

>  <FF_Energy>  (312) 
21.21

>  <QM_Energy>  (312) 
-1.01

>  <source>  (312) 
ACET_PRPA_03

>  <Index>  (312) 
5269

$$$$
ACET-pdb1fcb-A-GLU-101:PRPA-pdb1fcb-A-LYS-138
     RDKit          3D

 18 16  0  0  0  0  0  0  0  0999 V2000
    0.2178    1.4925   -0.1241 C   0  0  0  0  0  0  0  0  0  0  0  0
   -0.0407    1.9084    0.7375 H   0  0  0  0  0  0  0  0  0  0  0  0
   -0.3561    1.8210   -0.8626 H   0  0  0  0  0  0  0  0  0  0  0  0
    1.2432    1.7911   -0.3415 H   0  0  0  0  0  0  0  0  0  0  0  0
    0.0000    0.0000    0.0000 C   0  0  0  0  0  0  0  0  0  0  0  0
   -1.0666   -0.5665    0.0000 O   0  0  0  0  0  1  0  0  0  0  0  0
    1.0666   -0.6658   -0.0000 O   0  0  0  0  0  0  0  0  0  0  0  0
    2.0320   -3.8173    0.7060 C   0  0  0  0  0  0  0  0  0  0  0  0
    2.8017   -3.1872    0.8170 H   0  0  0  0  0  0  0  0  0  0  0  0
    2.3847   -4.7425    0.5496 H   0  0  0  0  0  0  0  0  0  0  0  0
    1.4534   -3.8214    1.6297 H   0  0  0  0  0  0  0  0  0  0  0  0
    1.2519   -3.3934   -0.5366 C   0  0  0  0  0  0  0  0  0  0  0  0
    0.3072   -3.7081   -0.4495 H   0  0  0  0  0  0  0  0  0  0  0  0
    1.2685   -2.3969   -0.6075 H   0  0  0  0  0  0  0  0  0  0  0  0
    1.8542   -3.9887   -1.8064 C   0  0  0  0  0  0  0  0  0  0  0  0
    2.2606   -3.2779   -2.3282 H   0  0  0  0  0  0  0  0  0  0  0  0
    2.4610   -4.7073   -1.5645 H   0  0  0  0  0  0  0  0  0  0  0  0
    1.0159   -4.4048   -2.3651 H   0  0  0  0  0  0  0  0  0  0  0  0
  1  5  1  0
  5  6  1  0
  5  7  2  0
  1  2  1  0
  1  3  1  0
  1  4  1  0
  8 12  1  0
 12 15  1  0
  8  9  1  0
  8 10  1  0
  8 11  1  0
 12 13  1  0
 12 14  1  0
 15 16  1  0
 15 17  1  0
 15 18  1  0
M  CHG  1   6  -1
M  END
>  <PDB_ID>  (313) 
pdb1fcb

>  <RESIDUE_NAME>  (313) 
GLU   LYS

>  <FRAG_NAME>  (313) 
ACET   PRPA

>  <FRAG_ATOM_NUM>  (313) 
fragi: 7  fragj: 11

>  <atom.prop.CHAIN_ID>  (313) 
A A A A A A A Z Z Z Z Z Z Z Z Z Z Z

>  <atom.prop.IS_HEAVY_ATOM>  (313) 
1 0 0 0 1 1 1 1 0 0 0 1 0 0 1 0 0 0

>  <DIFUSE_FUNC_ATOM>  (313) 
atom 6   atom 7   

>  <FINAL_SINGLE_POINT_ENERGY>  (313) 
0

>  <NONCOV_INTER_ENERGY_QM>  (313) 
0

>  <FF_Energy>  (313) 
23.32

>  <QM_Energy>  (313) 
-0.51

>  <source>  (313) 
ACET_PRPA_03

>  <Index>  (313) 
5281

$$$$
ACET-pdb1fcb-A-GLU-101:PRPA-pdb1fcb-A-LYS-138
     RDKit          3D

 18 16  0  0  0  0  0  0  0  0999 V2000
    0.2178    1.4925   -0.1241 C   0  0  0  0  0  0  0  0  0  0  0  0
   -0.0407    1.9084    0.7375 H   0  0  0  0  0  0  0  0  0  0  0  0
   -0.3561    1.8210   -0.8626 H   0  0  0  0  0  0  0  0  0  0  0  0
    1.2432    1.7911   -0.3415 H   0  0  0  0  0  0  0  0  0  0  0  0
    0.0000    0.0000    0.0000 C   0  0  0  0  0  0  0  0  0  0  0  0
   -1.0666   -0.5665    0.0000 O   0  0  0  0  0  1  0  0  0  0  0  0
    1.0666   -0.6658   -0.0000 O   0  0  0  0  0  0  0  0  0  0  0  0
    1.2519   -3.3934   -0.5366 C   0  0  0  0  0  0  0  0  0  0  0  0
    0.3072   -3.7081   -0.4495 H   0  0  0  0  0  0  0  0  0  0  0  0
    1.2685   -2.3969   -0.6075 H   0  0  0  0  0  0  0  0  0  0  0  0
    1.8087   -3.6960    0.3502 H   0  0  0  0  0  0  0  0  0  0  0  0
    1.8542   -3.9887   -1.8064 C   0  0  0  0  0  0  0  0  0  0  0  0
    2.2606   -3.2779   -2.3282 H   0  0  0  0  0  0  0  0  0  0  0  0
    2.4610   -4.7073   -1.5645 H   0  0  0  0  0  0  0  0  0  0  0  0
    0.6837   -4.5697   -2.5865 C   0  0  0  0  0  0  0  0  0  0  0  0
   -0.1566   -4.4262   -2.0713 H   0  0  0  0  0  0  0  0  0  0  0  0
    0.6240   -4.1181   -3.4718 H   0  0  0  0  0  0  0  0  0  0  0  0
    0.8269   -5.6389   -2.7422 H   0  0  0  0  0  0  0  0  0  0  0  0
  1  5  1  0
  5  6  1  0
  5  7  2  0
  1  2  1  0
  1  3  1  0
  1  4  1  0
  8 12  1  0
 12 15  1  0
  8  9  1  0
  8 10  1  0
  8 11  1  0
 12 13  1  0
 12 14  1  0
 15 16  1  0
 15 17  1  0
 15 18  1  0
M  CHG  1   6  -1
M  END
>  <PDB_ID>  (314) 
pdb1fcb

>  <RESIDUE_NAME>  (314) 
GLU   LYS

>  <FRAG_NAME>  (314) 
ACET   PRPA

>  <FRAG_ATOM_NUM>  (314) 
fragi: 7  fragj: 11

>  <atom.prop.CHAIN_ID>  (314) 
A A A A A A A Z Z Z Z Z Z Z Z Z Z Z

>  <atom.prop.IS_HEAVY_ATOM>  (314) 
1 0 0 0 1 1 1 1 0 0 0 1 0 0 1 0 0 0

>  <DIFUSE_FUNC_ATOM>  (314) 
atom 6   atom 7   

>  <FINAL_SINGLE_POINT_ENERGY>  (314) 
0

>  <NONCOV_INTER_ENERGY_QM>  (314) 
0

>  <FF_Energy>  (314) 
19.97

>  <QM_Energy>  (314) 
0.5

>  <source>  (314) 
ACET_PRPA_03

>  <Index>  (314) 
5294

$$$$
ACET-pdb1fl2-A-ASP-254:PRPA-pdb1fl2-A-LYS-263
     RDKit          3D

 18 16  0  0  0  0  0  0  0  0999 V2000
    0.0008    1.5171   -0.0202 C   0  0  0  0  0  0  0  0  0  0  0  0
    0.6297    1.8272   -0.7236 H   0  0  0  0  0  0  0  0  0  0  0  0
    0.2840    1.8482    0.8714 H   0  0  0  0  0  0  0  0  0  0  0  0
   -0.9820    1.9343   -0.2395 H   0  0  0  0  0  0  0  0  0  0  0  0
    0.0000    0.0000    0.0000 C   0  0  0  0  0  0  0  0  0  0  0  0
   -1.0979   -0.6185   -0.0000 O   0  0  0  0  0  1  0  0  0  0  0  0
    1.0979   -0.5923   -0.0000 O   0  0  0  0  0  0  0  0  0  0  0  0
   -2.2211   -2.1806    2.8171 C   0  0  0  0  0  0  0  0  0  0  0  0
   -2.9127   -2.3975    2.1359 H   0  0  0  0  0  0  0  0  0  0  0  0
   -2.0077   -1.2096    2.7971 H   0  0  0  0  0  0  0  0  0  0  0  0
   -2.5959   -2.4464    3.8055 H   0  0  0  0  0  0  0  0  0  0  0  0
   -0.9823   -2.9697    2.5380 C   0  0  0  0  0  0  0  0  0  0  0  0
   -0.3515   -2.8723    3.3099 H   0  0  0  0  0  0  0  0  0  0  0  0
   -1.2258   -3.9348    2.4281 H   0  0  0  0  0  0  0  0  0  0  0  0
   -0.2982   -2.5016    1.2949 C   0  0  0  0  0  0  0  0  0  0  0  0
   -0.8812   -2.6245    0.5240 H   0  0  0  0  0  0  0  0  0  0  0  0
    0.0154   -1.5853    1.4086 H   0  0  0  0  0  0  0  0  0  0  0  0
    0.5616   -3.1652    1.2034 H   0  0  0  0  0  0  0  0  0  0  0  0
  1  5  1  0
  5  6  1  0
  5  7  2  0
  1  2  1  0
  1  3  1  0
  1  4  1  0
  8 12  1  0
 12 15  1  0
  8  9  1  0
  8 10  1  0
  8 11  1  0
 12 13  1  0
 12 14  1  0
 15 16  1  0
 15 17  1  0
 15 18  1  0
M  CHG  1   6  -1
M  END
>  <PDB_ID>  (315) 
pdb1fl2

>  <RESIDUE_NAME>  (315) 
ASP   LYS

>  <FRAG_NAME>  (315) 
ACET   PRPA

>  <FRAG_ATOM_NUM>  (315) 
fragi: 7  fragj: 11

>  <atom.prop.CHAIN_ID>  (315) 
A A A A A A A Z Z Z Z Z Z Z Z Z Z Z

>  <atom.prop.IS_HEAVY_ATOM>  (315) 
1 0 0 0 1 1 1 1 0 0 0 1 0 0 1 0 0 0

>  <DIFUSE_FUNC_ATOM>  (315) 
atom 6   atom 7   

>  <FINAL_SINGLE_POINT_ENERGY>  (315) 
0

>  <NONCOV_INTER_ENERGY_QM>  (315) 
0

>  <FF_Energy>  (315) 
46.1

>  <QM_Energy>  (315) 
13.04

>  <source>  (315) 
ACET_PRPA_03

>  <Index>  (315) 
5621

$$$$
ACET-pdb2fok-B-GLU-413:PRPA-pdb2fok-B-LEU-390
     RDKit          3D

 18 16  0  0  0  0  0  0  0  0999 V2000
    0.0215    1.5339   -0.0195 C   0  0  0  0  0  0  0  0  0  0  0  0
   -0.3198    1.8168   -0.9011 H   0  0  0  0  0  0  0  0  0  0  0  0
    0.9595    1.8112    0.1119 H   0  0  0  0  0  0  0  0  0  0  0  0
   -0.5894    2.0003    0.7533 H   0  0  0  0  0  0  0  0  0  0  0  0
    0.0000    0.0000    0.0000 C   0  0  0  0  0  0  0  0  0  0  0  0
   -1.0972   -0.6108   -0.0000 O   0  0  0  0  0  1  0  0  0  0  0  0
    1.0972   -0.5954    0.0000 O   0  0  0  0  0  0  0  0  0  0  0  0
    1.8268    2.2630   -4.9848 C   0  0  0  0  0  0  0  0  0  0  0  0
    1.1376    2.4312   -5.6974 H   0  0  0  0  0  0  0  0  0  0  0  0
    1.9881    1.2749   -4.9170 H   0  0  0  0  0  0  0  0  0  0  0  0
    2.7575    2.7284   -5.3090 H   0  0  0  0  0  0  0  0  0  0  0  0
    1.2210    2.7153   -3.6562 C   0  0  0  0  0  0  0  0  0  0  0  0
    1.9336    2.7180   -2.9575 H   0  0  0  0  0  0  0  0  0  0  0  0
    0.8076    3.7191   -3.7547 H   0  0  0  0  0  0  0  0  0  0  0  0
    0.1475    1.7221   -3.2515 C   0  0  0  0  0  0  0  0  0  0  0  0
    0.5530    0.8126   -3.1480 H   0  0  0  0  0  0  0  0  0  0  0  0
   -0.2608    2.0034   -2.3811 H   0  0  0  0  0  0  0  0  0  0  0  0
   -0.5635    1.6896   -3.9556 H   0  0  0  0  0  0  0  0  0  0  0  0
  1  5  1  0
  5  6  1  0
  5  7  2  0
  1  2  1  0
  1  3  1  0
  1  4  1  0
  8 12  1  0
 12 15  1  0
  8  9  1  0
  8 10  1  0
  8 11  1  0
 12 13  1  0
 12 14  1  0
 15 16  1  0
 15 17  1  0
 15 18  1  0
M  CHG  1   6  -1
M  END
>  <PDB_ID>  (316) 
pdb2fok

>  <RESIDUE_NAME>  (316) 
GLU   LEU

>  <FRAG_NAME>  (316) 
ACET   PRPA

>  <FRAG_ATOM_NUM>  (316) 
fragi: 7  fragj: 11

>  <atom.prop.CHAIN_ID>  (316) 
A A A A A A A Z Z Z Z Z Z Z Z Z Z Z

>  <atom.prop.IS_HEAVY_ATOM>  (316) 
1 0 0 0 1 1 1 1 0 0 0 1 0 0 1 0 0 0

>  <DIFUSE_FUNC_ATOM>  (316) 
atom 6   atom 7   

>  <FINAL_SINGLE_POINT_ENERGY>  (316) 
0

>  <NONCOV_INTER_ENERGY_QM>  (316) 
0

>  <FF_Energy>  (316) 
28.58

>  <QM_Energy>  (316) 
3.1

>  <source>  (316) 
ACET_PRPA_03

>  <Index>  (316) 
6334

$$$$
ACET-pdb1fdy-A-ASP-130:PRPA-pdb1fdy-A-LYS-96
     RDKit          3D

 18 16  0  0  0  0  0  0  0  0999 V2000
    0.0485    1.5279    0.0055 C   0  0  0  0  0  0  0  0  0  0  0  0
    0.5384    1.8321   -0.8069 H   0  0  0  0  0  0  0  0  0  0  0  0
    0.5276    1.8263    0.8250 H   0  0  0  0  0  0  0  0  0  0  0  0
   -0.9342    1.9994    0.0006 H   0  0  0  0  0  0  0  0  0  0  0  0
    0.0000    0.0000    0.0000 C   0  0  0  0  0  0  0  0  0  0  0  0
   -1.1019   -0.6068   -0.0000 O   0  0  0  0  0  1  0  0  0  0  0  0
    1.1019   -0.5986    0.0000 O   0  0  0  0  0  0  0  0  0  0  0  0
    2.5870    4.0395    3.4417 C   0  0  0  0  0  0  0  0  0  0  0  0
    1.8438    4.4992    2.9971 H   0  0  0  0  0  0  0  0  0  0  0  0
    3.3734    3.9450    2.8634 H   0  0  0  0  0  0  0  0  0  0  0  0
    2.8742    4.6196    4.3186 H   0  0  0  0  0  0  0  0  0  0  0  0
    2.1208    2.6520    3.8628 C   0  0  0  0  0  0  0  0  0  0  0  0
    2.8088    2.2610    4.4962 H   0  0  0  0  0  0  0  0  0  0  0  0
    1.2545    2.7464    4.3793 H   0  0  0  0  0  0  0  0  0  0  0  0
    1.9094    1.6986    2.7190 C   0  0  0  0  0  0  0  0  0  0  0  0
    1.1801    2.0346    2.1395 H   0  0  0  0  0  0  0  0  0  0  0  0
    2.7527    1.5997    2.2099 H   0  0  0  0  0  0  0  0  0  0  0  0
    1.6217    0.7182    3.0989 H   0  0  0  0  0  0  0  0  0  0  0  0
  1  5  1  0
  5  6  1  0
  5  7  2  0
  1  2  1  0
  1  3  1  0
  1  4  1  0
  8 12  1  0
 12 15  1  0
  8  9  1  0
  8 10  1  0
  8 11  1  0
 12 13  1  0
 12 14  1  0
 15 16  1  0
 15 17  1  0
 15 18  1  0
M  CHG  1   6  -1
M  END
>  <PDB_ID>  (317) 
pdb1fdy

>  <RESIDUE_NAME>  (317) 
ASP   LYS

>  <FRAG_NAME>  (317) 
ACET   PRPA

>  <FRAG_ATOM_NUM>  (317) 
fragi: 7  fragj: 11

>  <atom.prop.CHAIN_ID>  (317) 
A A A A A A A Z Z Z Z Z Z Z Z Z Z Z

>  <atom.prop.IS_HEAVY_ATOM>  (317) 
1 0 0 0 1 1 1 1 0 0 0 1 0 0 1 0 0 0

>  <DIFUSE_FUNC_ATOM>  (317) 
atom 6   atom 7   

>  <FINAL_SINGLE_POINT_ENERGY>  (317) 
0

>  <NONCOV_INTER_ENERGY_QM>  (317) 
0

>  <FF_Energy>  (317) 
31.15

>  <QM_Energy>  (317) 
3.97

>  <source>  (317) 
ACET_PRPA_03

>  <Index>  (317) 
6335

$$$$
ACET-pdb1fl9-A-GLU-72:PRPA-pdb1fl9-A-LYS-64
     RDKit          3D

 18 16  0  0  0  0  0  0  0  0999 V2000
    0.0181    1.5244    0.0360 C   0  0  0  0  0  0  0  0  0  0  0  0
   -0.4032    1.8444   -0.7796 H   0  0  0  0  0  0  0  0  0  0  0  0
    0.9427    1.8063    0.1442 H   0  0  0  0  0  0  0  0  0  0  0  0
   -0.5561    1.8955    0.8849 H   0  0  0  0  0  0  0  0  0  0  0  0
    0.0000    0.0000    0.0000 C   0  0  0  0  0  0  0  0  0  0  0  0
   -1.0775   -0.6251    0.0000 O   0  0  0  0  0  1  0  0  0  0  0  0
    1.0775   -0.6149   -0.0000 O   0  0  0  0  0  0  0  0  0  0  0  0
   -1.9290   -1.3306   -2.2335 C   0  0  0  0  0  0  0  0  0  0  0  0
   -1.7919   -0.3798   -1.8662 H   0  0  0  0  0  0  0  0  0  0  0  0
   -1.6558   -1.9568   -1.4641 H   0  0  0  0  0  0  0  0  0  0  0  0
   -3.0019   -1.4600   -2.3762 H   0  0  0  0  0  0  0  0  0  0  0  0
   -0.9896   -1.5386   -3.3712 C   0  0  0  0  0  0  0  0  0  0  0  0
   -0.3842   -2.3058   -3.1837 H   0  0  0  0  0  0  0  0  0  0  0  0
   -1.4942   -1.6945   -4.2131 H   0  0  0  0  0  0  0  0  0  0  0  0
   -0.1163   -0.2825   -3.5659 C   0  0  0  0  0  0  0  0  0  0  0  0
    0.5828   -0.2755   -2.8774 H   0  0  0  0  0  0  0  0  0  0  0  0
    0.2490   -0.2907   -4.4764 H   0  0  0  0  0  0  0  0  0  0  0  0
   -0.7372    0.6051   -3.4443 H   0  0  0  0  0  0  0  0  0  0  0  0
  1  5  1  0
  5  6  1  0
  5  7  2  0
  1  2  1  0
  1  3  1  0
  1  4  1  0
  8 12  1  0
 12 15  1  0
  8  9  1  0
  8 10  1  0
  8 11  1  0
 12 13  1  0
 12 14  1  0
 15 16  1  0
 15 17  1  0
 15 18  1  0
M  CHG  1   6  -1
M  END
>  <PDB_ID>  (318) 
pdb1fl9

>  <RESIDUE_NAME>  (318) 
GLU   LYS

>  <FRAG_NAME>  (318) 
ACET   PRPA

>  <FRAG_ATOM_NUM>  (318) 
fragi: 7  fragj: 11

>  <atom.prop.CHAIN_ID>  (318) 
A A A A A A A Z Z Z Z Z Z Z Z Z Z Z

>  <atom.prop.IS_HEAVY_ATOM>  (318) 
1 0 0 0 1 1 1 1 0 0 0 1 0 0 1 0 0 0

>  <DIFUSE_FUNC_ATOM>  (318) 
atom 6   atom 7   

>  <FINAL_SINGLE_POINT_ENERGY>  (318) 
0

>  <NONCOV_INTER_ENERGY_QM>  (318) 
0

>  <FF_Energy>  (318) 
20.73

>  <QM_Energy>  (318) 
5.55

>  <source>  (318) 
ACET_PRPA_03

>  <Index>  (318) 
6538

$$$$
ACET-pdb2gf7-B-ASP-950:PRPA-pdb2gf7-B-GLN-953
     RDKit          3D

 18 16  0  0  0  0  0  0  0  0999 V2000
   -0.0035    1.5175    0.0134 C   0  0  0  0  0  0  0  0  0  0  0  0
    0.8588    1.8420   -0.3554 H   0  0  0  0  0  0  0  0  0  0  0  0
   -0.1249    1.8281    0.9469 H   0  0  0  0  0  0  0  0  0  0  0  0
   -0.8087    1.9363   -0.5903 H   0  0  0  0  0  0  0  0  0  0  0  0
    0.0000    0.0000    0.0000 C   0  0  0  0  0  0  0  0  0  0  0  0
   -1.0965   -0.5999    0.0000 O   0  0  0  0  0  1  0  0  0  0  0  0
    1.0965   -0.5953   -0.0000 O   0  0  0  0  0  0  0  0  0  0  0  0
   -2.5701   -2.0987    2.8857 C   0  0  0  0  0  0  0  0  0  0  0  0
   -2.8677   -3.0365    3.1739 H   0  0  0  0  0  0  0  0  0  0  0  0
   -2.8345   -1.9774    1.8352 H   0  0  0  0  0  0  0  0  0  0  0  0
   -3.0293   -1.3850    3.5698 H   0  0  0  0  0  0  0  0  0  0  0  0
   -1.0479   -2.0680    3.0741 C   0  0  0  0  0  0  0  0  0  0  0  0
   -0.8324   -2.4377    3.9865 H   0  0  0  0  0  0  0  0  0  0  0  0
   -0.6300   -2.6703    2.3826 H   0  0  0  0  0  0  0  0  0  0  0  0
   -0.4072   -0.6980    2.9563 C   0  0  0  0  0  0  0  0  0  0  0  0
   -0.4156   -0.4168    1.9979 H   0  0  0  0  0  0  0  0  0  0  0  0
   -0.9306   -0.0465    3.5034 H   0  0  0  0  0  0  0  0  0  0  0  0
    0.6252   -0.6875    3.3061 H   0  0  0  0  0  0  0  0  0  0  0  0
  1  5  1  0
  5  6  1  0
  5  7  2  0
  1  2  1  0
  1  3  1  0
  1  4  1  0
  8 12  1  0
 12 15  1  0
  8  9  1  0
  8 10  1  0
  8 11  1  0
 12 13  1  0
 12 14  1  0
 15 16  1  0
 15 17  1  0
 15 18  1  0
M  CHG  1   6  -1
M  END
>  <PDB_ID>  (319) 
pdb2gf7

>  <RESIDUE_NAME>  (319) 
ASP   GLN

>  <FRAG_NAME>  (319) 
ACET   PRPA

>  <FRAG_ATOM_NUM>  (319) 
fragi: 7  fragj: 11

>  <atom.prop.CHAIN_ID>  (319) 
A A A A A A A Z Z Z Z Z Z Z Z Z Z Z

>  <atom.prop.IS_HEAVY_ATOM>  (319) 
1 0 0 0 1 1 1 1 0 0 0 1 0 0 1 0 0 0

>  <DIFUSE_FUNC_ATOM>  (319) 
atom 6   atom 7   

>  <FINAL_SINGLE_POINT_ENERGY>  (319) 
0

>  <NONCOV_INTER_ENERGY_QM>  (319) 
0

>  <FF_Energy>  (319) 
15.46

>  <QM_Energy>  (319) 
-1.6

>  <source>  (319) 
ACET_PRPA_03

>  <Index>  (319) 
6736

$$$$
ACET-pdb2gk4-A-GLU-64:PRPA-pdb2gk4-A-LYS-49
     RDKit          3D

 18 16  0  0  0  0  0  0  0  0999 V2000
   -0.0163    1.5378   -0.0224 C   0  0  0  0  0  0  0  0  0  0  0  0
   -0.6487    1.8234    0.6759 H   0  0  0  0  0  0  0  0  0  0  0  0
   -0.3158    1.8033   -0.9216 H   0  0  0  0  0  0  0  0  0  0  0  0
    0.9607    1.9785    0.1767 H   0  0  0  0  0  0  0  0  0  0  0  0
    0.0000    0.0000    0.0000 C   0  0  0  0  0  0  0  0  0  0  0  0
   -1.0944   -0.5973   -0.0000 O   0  0  0  0  0  1  0  0  0  0  0  0
    1.0944   -0.6169   -0.0000 O   0  0  0  0  0  0  0  0  0  0  0  0
   -3.8718   -0.3037    0.0847 C   0  0  0  0  0  0  0  0  0  0  0  0
   -2.9202   -0.6741    0.0786 H   0  0  0  0  0  0  0  0  0  0  0  0
   -3.8410    0.7491   -0.1962 H   0  0  0  0  0  0  0  0  0  0  0  0
   -4.4817   -0.9257   -0.5703 H   0  0  0  0  0  0  0  0  0  0  0  0
   -4.3108   -0.4465    1.5505 C   0  0  0  0  0  0  0  0  0  0  0  0
   -3.8939    0.2899    2.0700 H   0  0  0  0  0  0  0  0  0  0  0  0
   -5.3019   -0.3784    1.5823 H   0  0  0  0  0  0  0  0  0  0  0  0
   -3.8938   -1.7686    2.1641 C   0  0  0  0  0  0  0  0  0  0  0  0
   -4.2446   -1.8270    3.0981 H   0  0  0  0  0  0  0  0  0  0  0  0
   -4.2639   -2.5203    1.6203 H   0  0  0  0  0  0  0  0  0  0  0  0
   -2.8094   -1.8723    2.1991 H   0  0  0  0  0  0  0  0  0  0  0  0
  1  5  1  0
  5  6  1  0
  5  7  2  0
  1  2  1  0
  1  3  1  0
  1  4  1  0
  8 12  1  0
 12 15  1  0
  8  9  1  0
  8 10  1  0
  8 11  1  0
 12 13  1  0
 12 14  1  0
 15 16  1  0
 15 17  1  0
 15 18  1  0
M  CHG  1   6  -1
M  END
>  <PDB_ID>  (320) 
pdb2gk4

>  <RESIDUE_NAME>  (320) 
GLU   LYS

>  <FRAG_NAME>  (320) 
ACET   PRPA

>  <FRAG_ATOM_NUM>  (320) 
fragi: 7  fragj: 11

>  <atom.prop.CHAIN_ID>  (320) 
A A A A A A A Z Z Z Z Z Z Z Z Z Z Z

>  <atom.prop.IS_HEAVY_ATOM>  (320) 
1 0 0 0 1 1 1 1 0 0 0 1 0 0 1 0 0 0

>  <DIFUSE_FUNC_ATOM>  (320) 
atom 6   atom 7   

>  <FINAL_SINGLE_POINT_ENERGY>  (320) 
0

>  <NONCOV_INTER_ENERGY_QM>  (320) 
0

>  <FF_Energy>  (320) 
22.09

>  <QM_Energy>  (320) 
0.24

>  <source>  (320) 
ACET_PRPA_03

>  <Index>  (320) 
7685

$$$$
ACET-pdb1ezr-D-GLU-84:PRPA-pdb1ezr-D-ILE-81
     RDKit          3D

 18 16  0  0  0  0  0  0  0  0999 V2000
    0.1762    1.4855    0.0144 C   0  0  0  0  0  0  0  0  0  0  0  0
    0.6949    1.7406   -0.8020 H   0  0  0  0  0  0  0  0  0  0  0  0
    0.7062    1.7226    0.8298 H   0  0  0  0  0  0  0  0  0  0  0  0
   -0.7344    2.0845    0.0261 H   0  0  0  0  0  0  0  0  0  0  0  0
    0.0000    0.0000    0.0000 C   0  0  0  0  0  0  0  0  0  0  0  0
   -1.0898   -0.5567    0.0000 O   0  0  0  0  0  1  0  0  0  0  0  0
    1.0898   -0.6077   -0.0000 O   0  0  0  0  0  0  0  0  0  0  0  0
   -2.6345    3.2616    3.8582 C   0  0  0  0  0  0  0  0  0  0  0  0
   -2.1969    4.0155    4.3561 H   0  0  0  0  0  0  0  0  0  0  0  0
   -3.1325    2.6484    4.6092 H   0  0  0  0  0  0  0  0  0  0  0  0
   -3.3542    3.7182    3.1787 H   0  0  0  0  0  0  0  0  0  0  0  0
   -1.6237    2.4113    3.0798 C   0  0  0  0  0  0  0  0  0  0  0  0
   -2.1381    1.8339    2.4419 H   0  0  0  0  0  0  0  0  0  0  0  0
   -1.0445    1.7641    3.7385 H   0  0  0  0  0  0  0  0  0  0  0  0
   -0.7131    3.3048    2.2572 C   0  0  0  0  0  0  0  0  0  0  0  0
   -0.1057    2.7407    1.6979 H   0  0  0  0  0  0  0  0  0  0  0  0
   -1.2642    3.8881    1.6612 H   0  0  0  0  0  0  0  0  0  0  0  0
   -0.1647    3.8770    2.8650 H   0  0  0  0  0  0  0  0  0  0  0  0
  1  5  1  0
  5  6  1  0
  5  7  2  0
  1  2  1  0
  1  3  1  0
  1  4  1  0
  8 12  1  0
 12 15  1  0
  8  9  1  0
  8 10  1  0
  8 11  1  0
 12 13  1  0
 12 14  1  0
 15 16  1  0
 15 17  1  0
 15 18  1  0
M  CHG  1   6  -1
M  END
>  <PDB_ID>  (321) 
pdb1ezr

>  <RESIDUE_NAME>  (321) 
GLU   ILE

>  <FRAG_NAME>  (321) 
ACET   PRPA

>  <FRAG_ATOM_NUM>  (321) 
fragi: 7  fragj: 11

>  <atom.prop.CHAIN_ID>  (321) 
A A A A A A A Z Z Z Z Z Z Z Z Z Z Z

>  <atom.prop.IS_HEAVY_ATOM>  (321) 
1 0 0 0 1 1 1 1 0 0 0 1 0 0 1 0 0 0

>  <DIFUSE_FUNC_ATOM>  (321) 
atom 6   atom 7   

>  <FINAL_SINGLE_POINT_ENERGY>  (321) 
0

>  <NONCOV_INTER_ENERGY_QM>  (321) 
0

>  <FF_Energy>  (321) 
27.83

>  <QM_Energy>  (321) 
5.67

>  <source>  (321) 
ACET_PRPA_03

>  <Index>  (321) 
8062

$$$$
ACET-pdb1fp5-A-GLU-452:PRPA-pdb1fp5-A-ARG-460
     RDKit          3D

 18 16  0  0  0  0  0  0  0  0999 V2000
   -0.0105    1.5366   -0.0280 C   0  0  0  0  0  0  0  0  0  0  0  0
   -0.1358    1.8111   -0.9617 H   0  0  0  0  0  0  0  0  0  0  0  0
    0.8458    1.8416    0.3419 H   0  0  0  0  0  0  0  0  0  0  0  0
   -0.8135    1.9748    0.5648 H   0  0  0  0  0  0  0  0  0  0  0  0
    0.0000    0.0000    0.0000 C   0  0  0  0  0  0  0  0  0  0  0  0
   -1.0956   -0.6028   -0.0000 O   0  0  0  0  0  1  0  0  0  0  0  0
    1.0956   -0.6115    0.0000 O   0  0  0  0  0  0  0  0  0  0  0  0
   -1.1580   -1.1387   -3.2645 C   0  0  0  0  0  0  0  0  0  0  0  0
   -1.0628   -1.1659   -2.2832 H   0  0  0  0  0  0  0  0  0  0  0  0
   -0.2000   -1.3619   -3.7342 H   0  0  0  0  0  0  0  0  0  0  0  0
   -1.8207   -1.9480   -3.5709 H   0  0  0  0  0  0  0  0  0  0  0  0
   -1.6360    0.2386   -3.7006 C   0  0  0  0  0  0  0  0  0  0  0  0
   -1.6166    0.2809   -4.6810 H   0  0  0  0  0  0  0  0  0  0  0  0
   -2.5332    0.3894   -3.3347 H   0  0  0  0  0  0  0  0  0  0  0  0
   -0.7129    1.3101   -3.1570 C   0  0  0  0  0  0  0  0  0  0  0  0
   -0.8926    1.4459   -2.1868 H   0  0  0  0  0  0  0  0  0  0  0  0
    0.2346    1.0358   -3.2947 H   0  0  0  0  0  0  0  0  0  0  0  0
   -0.8698    2.2596   -3.6689 H   0  0  0  0  0  0  0  0  0  0  0  0
  1  5  1  0
  5  6  1  0
  5  7  2  0
  1  2  1  0
  1  3  1  0
  1  4  1  0
  8 12  1  0
 12 15  1  0
  8  9  1  0
  8 10  1  0
  8 11  1  0
 12 13  1  0
 12 14  1  0
 15 16  1  0
 15 17  1  0
 15 18  1  0
M  CHG  1   6  -1
M  END
>  <PDB_ID>  (322) 
pdb1fp5

>  <RESIDUE_NAME>  (322) 
GLU   ARG

>  <FRAG_NAME>  (322) 
ACET   PRPA

>  <FRAG_ATOM_NUM>  (322) 
fragi: 7  fragj: 11

>  <atom.prop.CHAIN_ID>  (322) 
A A A A A A A Z Z Z Z Z Z Z Z Z Z Z

>  <atom.prop.IS_HEAVY_ATOM>  (322) 
1 0 0 0 1 1 1 1 0 0 0 1 0 0 1 0 0 0

>  <DIFUSE_FUNC_ATOM>  (322) 
atom 6   atom 7   

>  <FINAL_SINGLE_POINT_ENERGY>  (322) 
0

>  <NONCOV_INTER_ENERGY_QM>  (322) 
0

>  <FF_Energy>  (322) 
33.57

>  <QM_Energy>  (322) 
1.48

>  <source>  (322) 
ACET_PRPA_03

>  <Index>  (322) 
8361

$$$$
ACET-pdb1fp5-A-GLU-452:PRPA-pdb1fp5-A-ARG-460
     RDKit          3D

 18 16  0  0  0  0  0  0  0  0999 V2000
   -0.0105    1.5366   -0.0280 C   0  0  0  0  0  0  0  0  0  0  0  0
   -0.1358    1.8111   -0.9617 H   0  0  0  0  0  0  0  0  0  0  0  0
    0.8458    1.8416    0.3419 H   0  0  0  0  0  0  0  0  0  0  0  0
   -0.8135    1.9748    0.5648 H   0  0  0  0  0  0  0  0  0  0  0  0
    0.0000    0.0000    0.0000 C   0  0  0  0  0  0  0  0  0  0  0  0
   -1.0956   -0.6028   -0.0000 O   0  0  0  0  0  1  0  0  0  0  0  0
    1.0956   -0.6115    0.0000 O   0  0  0  0  0  0  0  0  0  0  0  0
   -1.6360    0.2386   -3.7006 C   0  0  0  0  0  0  0  0  0  0  0  0
   -1.6166    0.2809   -4.6810 H   0  0  0  0  0  0  0  0  0  0  0  0
   -2.5332    0.3894   -3.3347 H   0  0  0  0  0  0  0  0  0  0  0  0
   -1.2935   -0.7479   -3.3882 H   0  0  0  0  0  0  0  0  0  0  0  0
   -0.7129    1.3101   -3.1570 C   0  0  0  0  0  0  0  0  0  0  0  0
   -0.8926    1.4459   -2.1868 H   0  0  0  0  0  0  0  0  0  0  0  0
    0.2346    1.0358   -3.2947 H   0  0  0  0  0  0  0  0  0  0  0  0
   -0.9312    2.6313   -3.8694 C   0  0  0  0  0  0  0  0  0  0  0  0
   -0.9058    2.4627   -4.8531 H   0  0  0  0  0  0  0  0  0  0  0  0
   -1.8298    2.9801   -3.6080 H   0  0  0  0  0  0  0  0  0  0  0  0
   -0.1716    3.3699   -3.6129 H   0  0  0  0  0  0  0  0  0  0  0  0
  1  5  1  0
  5  6  1  0
  5  7  2  0
  1  2  1  0
  1  3  1  0
  1  4  1  0
  8 12  1  0
 12 15  1  0
  8  9  1  0
  8 10  1  0
  8 11  1  0
 12 13  1  0
 12 14  1  0
 15 16  1  0
 15 17  1  0
 15 18  1  0
M  CHG  1   6  -1
M  END
>  <PDB_ID>  (323) 
pdb1fp5

>  <RESIDUE_NAME>  (323) 
GLU   ARG

>  <FRAG_NAME>  (323) 
ACET   PRPA

>  <FRAG_ATOM_NUM>  (323) 
fragi: 7  fragj: 11

>  <atom.prop.CHAIN_ID>  (323) 
A A A A A A A Z Z Z Z Z Z Z Z Z Z Z

>  <atom.prop.IS_HEAVY_ATOM>  (323) 
1 0 0 0 1 1 1 1 0 0 0 1 0 0 1 0 0 0

>  <DIFUSE_FUNC_ATOM>  (323) 
atom 6   atom 7   

>  <FINAL_SINGLE_POINT_ENERGY>  (323) 
0

>  <NONCOV_INTER_ENERGY_QM>  (323) 
0

>  <FF_Energy>  (323) 
37.11

>  <QM_Energy>  (323) 
2.99

>  <source>  (323) 
ACET_PRPA_03

>  <Index>  (323) 
8363

$$$$
ACET-pdb1fqi-A-ASP-286:PRPA-pdb1fqi-A-LYS-308
     RDKit          3D

 18 16  0  0  0  0  0  0  0  0999 V2000
    0.0063    1.5212    0.0052 C   0  0  0  0  0  0  0  0  0  0  0  0
    0.5930    1.8397   -0.7300 H   0  0  0  0  0  0  0  0  0  0  0  0
    0.3463    1.8346    0.8832 H   0  0  0  0  0  0  0  0  0  0  0  0
   -0.9855    1.9475   -0.1459 H   0  0  0  0  0  0  0  0  0  0  0  0
    0.0000    0.0000    0.0000 C   0  0  0  0  0  0  0  0  0  0  0  0
   -1.0956   -0.5981    0.0000 O   0  0  0  0  0  1  0  0  0  0  0  0
    1.0956   -0.6000   -0.0000 O   0  0  0  0  0  0  0  0  0  0  0  0
    1.2505   -0.1441    3.5680 C   0  0  0  0  0  0  0  0  0  0  0  0
    1.8997   -0.3259    2.8351 H   0  0  0  0  0  0  0  0  0  0  0  0
    0.3182   -0.2687    3.2406 H   0  0  0  0  0  0  0  0  0  0  0  0
    1.4365   -0.8378    4.3879 H   0  0  0  0  0  0  0  0  0  0  0  0
    1.4221    1.3050    4.0298 C   0  0  0  0  0  0  0  0  0  0  0  0
    0.6202    1.5647    4.5593 H   0  0  0  0  0  0  0  0  0  0  0  0
    2.2406    1.3634    4.5929 H   0  0  0  0  0  0  0  0  0  0  0  0
    1.5651    2.2560    2.8579 C   0  0  0  0  0  0  0  0  0  0  0  0
    2.2958    1.9259    2.2552 H   0  0  0  0  0  0  0  0  0  0  0  0
    0.7032    2.2749    2.3437 H   0  0  0  0  0  0  0  0  0  0  0  0
    1.8052    3.2671    3.1867 H   0  0  0  0  0  0  0  0  0  0  0  0
  1  5  1  0
  5  6  1  0
  5  7  2  0
  1  2  1  0
  1  3  1  0
  1  4  1  0
  8 12  1  0
 12 15  1  0
  8  9  1  0
  8 10  1  0
  8 11  1  0
 12 13  1  0
 12 14  1  0
 15 16  1  0
 15 17  1  0
 15 18  1  0
M  CHG  1   6  -1
M  END
>  <PDB_ID>  (324) 
pdb1fqi

>  <RESIDUE_NAME>  (324) 
ASP   LYS

>  <FRAG_NAME>  (324) 
ACET   PRPA

>  <FRAG_ATOM_NUM>  (324) 
fragi: 7  fragj: 11

>  <atom.prop.CHAIN_ID>  (324) 
A A A A A A A Z Z Z Z Z Z Z Z Z Z Z

>  <atom.prop.IS_HEAVY_ATOM>  (324) 
1 0 0 0 1 1 1 1 0 0 0 1 0 0 1 0 0 0

>  <DIFUSE_FUNC_ATOM>  (324) 
atom 6   atom 7   

>  <FINAL_SINGLE_POINT_ENERGY>  (324) 
0

>  <NONCOV_INTER_ENERGY_QM>  (324) 
0

>  <FF_Energy>  (324) 
16.26

>  <QM_Energy>  (324) 
1.23

>  <source>  (324) 
ACET_PRPA_03

>  <Index>  (324) 
9057

$$$$
ACET-pdb1fo0-A-ASP-50:PRPA-pdb1fo0-A-LYS-53
     RDKit          3D

 18 16  0  0  0  0  0  0  0  0999 V2000
   -0.0543    1.5277   -0.0203 C   0  0  0  0  0  0  0  0  0  0  0  0
    0.6745    1.8558   -0.5852 H   0  0  0  0  0  0  0  0  0  0  0  0
   -0.0004    1.8525    0.9014 H   0  0  0  0  0  0  0  0  0  0  0  0
   -1.0044    1.8435   -0.4511 H   0  0  0  0  0  0  0  0  0  0  0  0
    0.0000    0.0000    0.0000 C   0  0  0  0  0  0  0  0  0  0  0  0
   -1.1046   -0.6013   -0.0000 O   0  0  0  0  0  1  0  0  0  0  0  0
    1.1046   -0.5700    0.0000 O   0  0  0  0  0  0  0  0  0  0  0  0
    2.3135    4.1312   -2.2548 C   0  0  0  0  0  0  0  0  0  0  0  0
    1.4372    3.8897   -2.6268 H   0  0  0  0  0  0  0  0  0  0  0  0
    3.0161    4.1605   -2.9425 H   0  0  0  0  0  0  0  0  0  0  0  0
    2.2448    5.1031   -1.7663 H   0  0  0  0  0  0  0  0  0  0  0  0
    2.7019    3.0544   -1.2311 C   0  0  0  0  0  0  0  0  0  0  0  0
    3.4075    3.4320   -0.6275 H   0  0  0  0  0  0  0  0  0  0  0  0
    1.8921    2.8285   -0.6853 H   0  0  0  0  0  0  0  0  0  0  0  0
    3.2250    1.8055   -1.8926 C   0  0  0  0  0  0  0  0  0  0  0  0
    2.5044    1.4055   -2.4542 H   0  0  0  0  0  0  0  0  0  0  0  0
    4.0098    2.0391   -2.4613 H   0  0  0  0  0  0  0  0  0  0  0  0
    3.5401    1.0651   -1.1575 H   0  0  0  0  0  0  0  0  0  0  0  0
  1  5  1  0
  5  6  1  0
  5  7  2  0
  1  2  1  0
  1  3  1  0
  1  4  1  0
  8 12  1  0
 12 15  1  0
  8  9  1  0
  8 10  1  0
  8 11  1  0
 12 13  1  0
 12 14  1  0
 15 16  1  0
 15 17  1  0
 15 18  1  0
M  CHG  1   6  -1
M  END
>  <PDB_ID>  (325) 
pdb1fo0

>  <RESIDUE_NAME>  (325) 
ASP   LYS

>  <FRAG_NAME>  (325) 
ACET   PRPA

>  <FRAG_ATOM_NUM>  (325) 
fragi: 7  fragj: 11

>  <atom.prop.CHAIN_ID>  (325) 
A A A A A A A Z Z Z Z Z Z Z Z Z Z Z

>  <atom.prop.IS_HEAVY_ATOM>  (325) 
1 0 0 0 1 1 1 1 0 0 0 1 0 0 1 0 0 0

>  <DIFUSE_FUNC_ATOM>  (325) 
atom 6   atom 7   

>  <FINAL_SINGLE_POINT_ENERGY>  (325) 
0

>  <NONCOV_INTER_ENERGY_QM>  (325) 
0

>  <FF_Energy>  (325) 
19.19

>  <QM_Energy>  (325) 
1.52

>  <source>  (325) 
ACET_PRPA_03

>  <Index>  (325) 
9122

$$$$
ACET-pdb1fo0-A-ASP-50:PRPA-pdb1fo0-A-LYS-53
     RDKit          3D

 18 16  0  0  0  0  0  0  0  0999 V2000
   -0.0543    1.5277   -0.0203 C   0  0  0  0  0  0  0  0  0  0  0  0
    0.6745    1.8558   -0.5852 H   0  0  0  0  0  0  0  0  0  0  0  0
   -0.0004    1.8525    0.9014 H   0  0  0  0  0  0  0  0  0  0  0  0
   -1.0044    1.8435   -0.4511 H   0  0  0  0  0  0  0  0  0  0  0  0
    0.0000    0.0000    0.0000 C   0  0  0  0  0  0  0  0  0  0  0  0
   -1.1046   -0.6013   -0.0000 O   0  0  0  0  0  1  0  0  0  0  0  0
    1.1046   -0.5700    0.0000 O   0  0  0  0  0  0  0  0  0  0  0  0
    2.7019    3.0544   -1.2311 C   0  0  0  0  0  0  0  0  0  0  0  0
    3.4075    3.4320   -0.6275 H   0  0  0  0  0  0  0  0  0  0  0  0
    1.8921    2.8285   -0.6853 H   0  0  0  0  0  0  0  0  0  0  0  0
    2.4262    3.8186   -1.9578 H   0  0  0  0  0  0  0  0  0  0  0  0
    3.2250    1.8055   -1.8926 C   0  0  0  0  0  0  0  0  0  0  0  0
    2.5044    1.4055   -2.4542 H   0  0  0  0  0  0  0  0  0  0  0  0
    4.0098    2.0391   -2.4613 H   0  0  0  0  0  0  0  0  0  0  0  0
    3.6636    0.7748   -0.8693 C   0  0  0  0  0  0  0  0  0  0  0  0
    4.4406    1.1374   -0.3504 H   0  0  0  0  0  0  0  0  0  0  0  0
    2.9053    0.5922   -0.2398 H   0  0  0  0  0  0  0  0  0  0  0  0
    3.9611   -0.1604   -1.3437 H   0  0  0  0  0  0  0  0  0  0  0  0
  1  5  1  0
  5  6  1  0
  5  7  2  0
  1  2  1  0
  1  3  1  0
  1  4  1  0
  8 12  1  0
 12 15  1  0
  8  9  1  0
  8 10  1  0
  8 11  1  0
 12 13  1  0
 12 14  1  0
 15 16  1  0
 15 17  1  0
 15 18  1  0
M  CHG  1   6  -1
M  END
>  <PDB_ID>  (326) 
pdb1fo0

>  <RESIDUE_NAME>  (326) 
ASP   LYS

>  <FRAG_NAME>  (326) 
ACET   PRPA

>  <FRAG_ATOM_NUM>  (326) 
fragi: 7  fragj: 11

>  <atom.prop.CHAIN_ID>  (326) 
A A A A A A A Z Z Z Z Z Z Z Z Z Z Z

>  <atom.prop.IS_HEAVY_ATOM>  (326) 
1 0 0 0 1 1 1 1 0 0 0 1 0 0 1 0 0 0

>  <DIFUSE_FUNC_ATOM>  (326) 
atom 6   atom 7   

>  <FINAL_SINGLE_POINT_ENERGY>  (326) 
0

>  <NONCOV_INTER_ENERGY_QM>  (326) 
0

>  <FF_Energy>  (326) 
19.64

>  <QM_Energy>  (326) 
1.56

>  <source>  (326) 
ACET_PRPA_03

>  <Index>  (326) 
9128

$$$$
ACET-pdb1fpo-A-GLU-69:PRPA-pdb1fpo-A-LEU-79
     RDKit          3D

 18 16  0  0  0  0  0  0  0  0999 V2000
   -0.0182    1.5120   -0.0185 C   0  0  0  0  0  0  0  0  0  0  0  0
   -0.6582    1.8126    0.6704 H   0  0  0  0  0  0  0  0  0  0  0  0
   -0.2987    1.7966   -0.9217 H   0  0  0  0  0  0  0  0  0  0  0  0
    0.9481    1.9683    0.1967 H   0  0  0  0  0  0  0  0  0  0  0  0
    0.0000    0.0000    0.0000 C   0  0  0  0  0  0  0  0  0  0  0  0
   -1.0992   -0.5941   -0.0000 O   0  0  0  0  0  1  0  0  0  0  0  0
    1.0992   -0.5939   -0.0000 O   0  0  0  0  0  0  0  0  0  0  0  0
   -1.4440    1.8681    3.7228 C   0  0  0  0  0  0  0  0  0  0  0  0
   -0.5503    1.6409    3.3758 H   0  0  0  0  0  0  0  0  0  0  0  0
   -2.1428    1.2776    3.3595 H   0  0  0  0  0  0  0  0  0  0  0  0
   -1.4277    1.7486    4.8061 H   0  0  0  0  0  0  0  0  0  0  0  0
   -1.7642    3.2974    3.2673 C   0  0  0  0  0  0  0  0  0  0  0  0
   -1.0004    3.8901    3.5092 H   0  0  0  0  0  0  0  0  0  0  0  0
   -2.6563    3.6585    3.7791 H   0  0  0  0  0  0  0  0  0  0  0  0
   -1.9758    3.3235    1.7661 C   0  0  0  0  0  0  0  0  0  0  0  0
   -2.7381    2.7216    1.5224 H   0  0  0  0  0  0  0  0  0  0  0  0
   -2.1849    4.2571    1.4714 H   0  0  0  0  0  0  0  0  0  0  0  0
   -1.1456    3.0089    1.3030 H   0  0  0  0  0  0  0  0  0  0  0  0
  1  5  1  0
  5  6  1  0
  5  7  2  0
  1  2  1  0
  1  3  1  0
  1  4  1  0
  8 12  1  0
 12 15  1  0
  8  9  1  0
  8 10  1  0
  8 11  1  0
 12 13  1  0
 12 14  1  0
 15 16  1  0
 15 17  1  0
 15 18  1  0
M  CHG  1   6  -1
M  END
>  <PDB_ID>  (327) 
pdb1fpo

>  <RESIDUE_NAME>  (327) 
GLU   LEU

>  <FRAG_NAME>  (327) 
ACET   PRPA

>  <FRAG_ATOM_NUM>  (327) 
fragi: 7  fragj: 11

>  <atom.prop.CHAIN_ID>  (327) 
A A A A A A A Z Z Z Z Z Z Z Z Z Z Z

>  <atom.prop.IS_HEAVY_ATOM>  (327) 
1 0 0 0 1 1 1 1 0 0 0 1 0 0 1 0 0 0

>  <DIFUSE_FUNC_ATOM>  (327) 
atom 6   atom 7   

>  <FINAL_SINGLE_POINT_ENERGY>  (327) 
0

>  <NONCOV_INTER_ENERGY_QM>  (327) 
0

>  <FF_Energy>  (327) 
47.15

>  <QM_Energy>  (327) 
5.74

>  <source>  (327) 
ACET_PRPA_03

>  <Index>  (327) 
9173

$$$$
ACET-pdb1fpo-A-GLU-69:PRPA-pdb1fpo-A-LEU-79
     RDKit          3D

 18 16  0  0  0  0  0  0  0  0999 V2000
   -0.0182    1.5120   -0.0185 C   0  0  0  0  0  0  0  0  0  0  0  0
   -0.6582    1.8126    0.6704 H   0  0  0  0  0  0  0  0  0  0  0  0
   -0.2987    1.7966   -0.9217 H   0  0  0  0  0  0  0  0  0  0  0  0
    0.9481    1.9683    0.1967 H   0  0  0  0  0  0  0  0  0  0  0  0
    0.0000    0.0000    0.0000 C   0  0  0  0  0  0  0  0  0  0  0  0
   -1.0992   -0.5941   -0.0000 O   0  0  0  0  0  1  0  0  0  0  0  0
    1.0992   -0.5939   -0.0000 O   0  0  0  0  0  0  0  0  0  0  0  0
   -1.9758    3.3235    1.7661 C   0  0  0  0  0  0  0  0  0  0  0  0
   -2.7381    2.7216    1.5224 H   0  0  0  0  0  0  0  0  0  0  0  0
   -2.1849    4.2571    1.4714 H   0  0  0  0  0  0  0  0  0  0  0  0
   -1.1456    3.0089    1.3030 H   0  0  0  0  0  0  0  0  0  0  0  0
   -1.7642    3.2974    3.2673 C   0  0  0  0  0  0  0  0  0  0  0  0
   -1.0004    3.8901    3.5092 H   0  0  0  0  0  0  0  0  0  0  0  0
   -1.5367    2.2818    3.5909 H   0  0  0  0  0  0  0  0  0  0  0  0
   -3.0113    3.8022    3.9827 C   0  0  0  0  0  0  0  0  0  0  0  0
   -2.8537    3.7985    4.9707 H   0  0  0  0  0  0  0  0  0  0  0  0
   -3.2147    4.7342    3.6809 H   0  0  0  0  0  0  0  0  0  0  0  0
   -3.7848    3.2057    3.7666 H   0  0  0  0  0  0  0  0  0  0  0  0
  1  5  1  0
  5  6  1  0
  5  7  2  0
  1  2  1  0
  1  3  1  0
  1  4  1  0
  8 12  1  0
 12 15  1  0
  8  9  1  0
  8 10  1  0
  8 11  1  0
 12 13  1  0
 12 14  1  0
 15 16  1  0
 15 17  1  0
 15 18  1  0
M  CHG  1   6  -1
M  END
>  <PDB_ID>  (328) 
pdb1fpo

>  <RESIDUE_NAME>  (328) 
GLU   LEU

>  <FRAG_NAME>  (328) 
ACET   PRPA

>  <FRAG_ATOM_NUM>  (328) 
fragi: 7  fragj: 11

>  <atom.prop.CHAIN_ID>  (328) 
A A A A A A A Z Z Z Z Z Z Z Z Z Z Z

>  <atom.prop.IS_HEAVY_ATOM>  (328) 
1 0 0 0 1 1 1 1 0 0 0 1 0 0 1 0 0 0

>  <DIFUSE_FUNC_ATOM>  (328) 
atom 6   atom 7   

>  <FINAL_SINGLE_POINT_ENERGY>  (328) 
0

>  <NONCOV_INTER_ENERGY_QM>  (328) 
0

>  <FF_Energy>  (328) 
47.27

>  <QM_Energy>  (328) 
6.33

>  <source>  (328) 
ACET_PRPA_03

>  <Index>  (328) 
9193

$$$$
ACET-pdb1fpr-A-GLU-386:PRPA-pdb1fpr-A-LYS-393
     RDKit          3D

 18 16  0  0  0  0  0  0  0  0999 V2000
    0.0096    1.5206   -0.0123 C   0  0  0  0  0  0  0  0  0  0  0  0
    0.6179    1.8148    0.6946 H   0  0  0  0  0  0  0  0  0  0  0  0
   -0.9112    1.8190    0.1242 H   0  0  0  0  0  0  0  0  0  0  0  0
    0.3671    1.9076   -0.9665 H   0  0  0  0  0  0  0  0  0  0  0  0
    0.0000    0.0000    0.0000 C   0  0  0  0  0  0  0  0  0  0  0  0
   -1.0940   -0.6028   -0.0000 O   0  0  0  0  0  1  0  0  0  0  0  0
    1.0940   -0.5977    0.0000 O   0  0  0  0  0  0  0  0  0  0  0  0
    0.2132   -1.0675   -4.9978 C   0  0  0  0  0  0  0  0  0  0  0  0
   -0.1306   -1.9912   -4.8121 H   0  0  0  0  0  0  0  0  0  0  0  0
    1.1924   -1.1218   -5.2104 H   0  0  0  0  0  0  0  0  0  0  0  0
   -0.3023   -0.6867   -5.8794 H   0  0  0  0  0  0  0  0  0  0  0  0
    0.0485   -0.2355   -3.7260 C   0  0  0  0  0  0  0  0  0  0  0  0
    0.3513    0.6994   -3.9111 H   0  0  0  0  0  0  0  0  0  0  0  0
   -0.9163   -0.2304   -3.4665 H   0  0  0  0  0  0  0  0  0  0  0  0
    0.8679   -0.8044   -2.5826 C   0  0  0  0  0  0  0  0  0  0  0  0
    1.8064   -0.9407   -2.8910 H   0  0  0  0  0  0  0  0  0  0  0  0
    0.8496   -0.1650   -1.8182 H   0  0  0  0  0  0  0  0  0  0  0  0
    0.4795   -1.7622   -2.2364 H   0  0  0  0  0  0  0  0  0  0  0  0
  1  5  1  0
  5  6  1  0
  5  7  2  0
  1  2  1  0
  1  3  1  0
  1  4  1  0
  8 12  1  0
 12 15  1  0
  8  9  1  0
  8 10  1  0
  8 11  1  0
 12 13  1  0
 12 14  1  0
 15 16  1  0
 15 17  1  0
 15 18  1  0
M  CHG  1   6  -1
M  END
>  <PDB_ID>  (329) 
pdb1fpr

>  <RESIDUE_NAME>  (329) 
GLU   LYS

>  <FRAG_NAME>  (329) 
ACET   PRPA

>  <FRAG_ATOM_NUM>  (329) 
fragi: 7  fragj: 11

>  <atom.prop.CHAIN_ID>  (329) 
A A A A A A A Z Z Z Z Z Z Z Z Z Z Z

>  <atom.prop.IS_HEAVY_ATOM>  (329) 
1 0 0 0 1 1 1 1 0 0 0 1 0 0 1 0 0 0

>  <DIFUSE_FUNC_ATOM>  (329) 
atom 6   atom 7   

>  <FINAL_SINGLE_POINT_ENERGY>  (329) 
0

>  <NONCOV_INTER_ENERGY_QM>  (329) 
0

>  <FF_Energy>  (329) 
40.01

>  <QM_Energy>  (329) 
7.05

>  <source>  (329) 
ACET_PRPA_03

>  <Index>  (329) 
9370

$$$$
ACET-pdb1f07-D-ASP-3244:PRPA-pdb1f07-D-LYS-3248
     RDKit          3D

 18 16  0  0  0  0  0  0  0  0999 V2000
   -0.0027    1.5148   -0.0146 C   0  0  0  0  0  0  0  0  0  0  0  0
    0.9292    1.8370    0.0975 H   0  0  0  0  0  0  0  0  0  0  0  0
   -0.5776    1.8408    0.7254 H   0  0  0  0  0  0  0  0  0  0  0  0
   -0.3903    1.9215   -0.9486 H   0  0  0  0  0  0  0  0  0  0  0  0
    0.0000    0.0000    0.0000 C   0  0  0  0  0  0  0  0  0  0  0  0
   -1.0980   -0.5987   -0.0000 O   0  0  0  0  0  1  0  0  0  0  0  0
    1.0980   -0.5944    0.0000 O   0  0  0  0  0  0  0  0  0  0  0  0
    3.9446    0.0443   -2.5589 C   0  0  0  0  0  0  0  0  0  0  0  0
    3.2797    0.7325   -2.2498 H   0  0  0  0  0  0  0  0  0  0  0  0
    3.4514   -0.6843   -3.0437 H   0  0  0  0  0  0  0  0  0  0  0  0
    4.6492    0.5146   -3.2448 H   0  0  0  0  0  0  0  0  0  0  0  0
    4.6323   -0.5498   -1.3504 C   0  0  0  0  0  0  0  0  0  0  0  0
    5.3823   -1.1212   -1.6518 H   0  0  0  0  0  0  0  0  0  0  0  0
    4.9533    0.1816   -0.7658 H   0  0  0  0  0  0  0  0  0  0  0  0
    3.6558   -1.4057   -0.5653 C   0  0  0  0  0  0  0  0  0  0  0  0
    2.9000   -0.8238   -0.2424 H   0  0  0  0  0  0  0  0  0  0  0  0
    3.2749   -2.1086   -1.1773 H   0  0  0  0  0  0  0  0  0  0  0  0
    4.1251   -1.8913    0.2904 H   0  0  0  0  0  0  0  0  0  0  0  0
  1  5  1  0
  5  6  1  0
  5  7  2  0
  1  2  1  0
  1  3  1  0
  1  4  1  0
  8 12  1  0
 12 15  1  0
  8  9  1  0
  8 10  1  0
  8 11  1  0
 12 13  1  0
 12 14  1  0
 15 16  1  0
 15 17  1  0
 15 18  1  0
M  CHG  1   6  -1
M  END
>  <PDB_ID>  (330) 
pdb1f07

>  <RESIDUE_NAME>  (330) 
ASP   LYS

>  <FRAG_NAME>  (330) 
ACET   PRPA

>  <FRAG_ATOM_NUM>  (330) 
fragi: 7  fragj: 11

>  <atom.prop.CHAIN_ID>  (330) 
A A A A A A A Z Z Z Z Z Z Z Z Z Z Z

>  <atom.prop.IS_HEAVY_ATOM>  (330) 
1 0 0 0 1 1 1 1 0 0 0 1 0 0 1 0 0 0

>  <DIFUSE_FUNC_ATOM>  (330) 
atom 6   atom 7   

>  <FINAL_SINGLE_POINT_ENERGY>  (330) 
0

>  <NONCOV_INTER_ENERGY_QM>  (330) 
0

>  <FF_Energy>  (330) 
22.34

>  <QM_Energy>  (330) 
0.44

>  <source>  (330) 
ACET_PRPA_03

>  <Index>  (330) 
9605

$$$$
ACET-pdb1ftp-A-ASP-73:PRPA-pdb1ftp-A-LYS-81
     RDKit          3D

 18 16  0  0  0  0  0  0  0  0999 V2000
   -0.2168    1.4901   -0.0100 C   0  0  0  0  0  0  0  0  0  0  0  0
    0.6169    1.9431   -0.3498 H   0  0  0  0  0  0  0  0  0  0  0  0
   -0.3870    1.8066    0.9309 H   0  0  0  0  0  0  0  0  0  0  0  0
   -1.0436    1.8554   -0.6192 H   0  0  0  0  0  0  0  0  0  0  0  0
    0.0000    0.0000    0.0000 C   0  0  0  0  0  0  0  0  0  0  0  0
   -1.1195   -0.6880   -0.0000 O   0  0  0  0  0  1  0  0  0  0  0  0
    1.1195   -0.5098   -0.0000 O   0  0  0  0  0  0  0  0  0  0  0  0
   -1.1865    2.2323    4.2290 C   0  0  0  0  0  0  0  0  0  0  0  0
   -1.0496    1.2403    4.3412 H   0  0  0  0  0  0  0  0  0  0  0  0
   -1.8354    2.3789    3.4731 H   0  0  0  0  0  0  0  0  0  0  0  0
   -1.6138    2.6363    5.1467 H   0  0  0  0  0  0  0  0  0  0  0  0
    0.1503    2.8680    3.8529 C   0  0  0  0  0  0  0  0  0  0  0  0
   -0.0256    3.7116    3.3450 H   0  0  0  0  0  0  0  0  0  0  0  0
    0.6535    3.0827    4.6906 H   0  0  0  0  0  0  0  0  0  0  0  0
    1.0306    1.9600    2.9847 C   0  0  0  0  0  0  0  0  0  0  0  0
    0.5634    1.8151    2.1034 H   0  0  0  0  0  0  0  0  0  0  0  0
    1.8987    2.4399    2.8029 H   0  0  0  0  0  0  0  0  0  0  0  0
    1.2387    0.9957    3.4484 H   0  0  0  0  0  0  0  0  0  0  0  0
  1  5  1  0
  5  6  1  0
  5  7  2  0
  1  2  1  0
  1  3  1  0
  1  4  1  0
  8 12  1  0
 12 15  1  0
  8  9  1  0
  8 10  1  0
  8 11  1  0
 12 13  1  0
 12 14  1  0
 15 16  1  0
 15 17  1  0
 15 18  1  0
M  CHG  1   6  -1
M  END
>  <PDB_ID>  (331) 
pdb1ftp

>  <RESIDUE_NAME>  (331) 
ASP   LYS

>  <FRAG_NAME>  (331) 
ACET   PRPA

>  <FRAG_ATOM_NUM>  (331) 
fragi: 7  fragj: 11

>  <atom.prop.CHAIN_ID>  (331) 
A A A A A A A Z Z Z Z Z Z Z Z Z Z Z

>  <atom.prop.IS_HEAVY_ATOM>  (331) 
1 0 0 0 1 1 1 1 0 0 0 1 0 0 1 0 0 0

>  <DIFUSE_FUNC_ATOM>  (331) 
atom 6   atom 7   

>  <FINAL_SINGLE_POINT_ENERGY>  (331) 
0

>  <NONCOV_INTER_ENERGY_QM>  (331) 
0

>  <FF_Energy>  (331) 
26.74

>  <QM_Energy>  (331) 
3.35

>  <source>  (331) 
ACET_PRPA_03

>  <Index>  (331) 
10490

$$$$
ACET-pdb1fnu-A-ASP-155:PRPA-pdb1fnu-A-LYS-151
     RDKit          3D

 18 16  0  0  0  0  0  0  0  0999 V2000
   -0.0071    1.5183    0.0901 C   0  0  0  0  0  0  0  0  0  0  0  0
    0.7932    1.8671   -0.3770 H   0  0  0  0  0  0  0  0  0  0  0  0
   -0.0024    1.7789    1.0451 H   0  0  0  0  0  0  0  0  0  0  0  0
   -0.8913    1.9508   -0.3780 H   0  0  0  0  0  0  0  0  0  0  0  0
    0.0000    0.0000    0.0000 C   0  0  0  0  0  0  0  0  0  0  0  0
   -1.1172   -0.6113    0.0000 O   0  0  0  0  0  1  0  0  0  0  0  0
    1.1172   -0.5772   -0.0000 O   0  0  0  0  0  0  0  0  0  0  0  0
    4.1687   -1.3833   -2.5723 C   0  0  0  0  0  0  0  0  0  0  0  0
    5.2011   -1.2149   -2.3918 H   0  0  0  0  0  0  0  0  0  0  0  0
    3.7551   -0.4841   -2.1909 H   0  0  0  0  0  0  0  0  0  0  0  0
    4.0026   -1.4156   -3.6490 H   0  0  0  0  0  0  0  0  0  0  0  0
    3.7436   -2.5041   -1.5633 C   0  0  0  0  0  0  0  0  0  0  0  0
    4.0595   -3.3898   -1.9698 H   0  0  0  0  0  0  0  0  0  0  0  0
    4.3125   -2.3644   -0.7233 H   0  0  0  0  0  0  0  0  0  0  0  0
    2.3246   -2.5981   -1.1978 C   0  0  0  0  0  0  0  0  0  0  0  0
    1.8965   -1.6624   -1.1592 H   0  0  0  0  0  0  0  0  0  0  0  0
    1.7943   -3.1014   -1.9236 H   0  0  0  0  0  0  0  0  0  0  0  0
    2.0714   -3.0814   -0.2542 H   0  0  0  0  0  0  0  0  0  0  0  0
  1  5  1  0
  5  6  1  0
  5  7  2  0
  1  2  1  0
  1  3  1  0
  1  4  1  0
  8 12  1  0
 12 15  1  0
  8  9  1  0
  8 10  1  0
  8 11  1  0
 12 13  1  0
 12 14  1  0
 15 16  1  0
 15 17  1  0
 15 18  1  0
M  CHG  1   6  -1
M  END
>  <PDB_ID>  (332) 
pdb1fnu

>  <RESIDUE_NAME>  (332) 
ASP   LYS

>  <FRAG_NAME>  (332) 
ACET   PRPA

>  <FRAG_ATOM_NUM>  (332) 
fragi: 7  fragj: 11

>  <atom.prop.CHAIN_ID>  (332) 
A A A A A A A Z Z Z Z Z Z Z Z Z Z Z

>  <atom.prop.IS_HEAVY_ATOM>  (332) 
1 0 0 0 1 1 1 1 0 0 0 1 0 0 1 0 0 0

>  <DIFUSE_FUNC_ATOM>  (332) 
atom 6   atom 7   

>  <FINAL_SINGLE_POINT_ENERGY>  (332) 
0

>  <NONCOV_INTER_ENERGY_QM>  (332) 
0

>  <FF_Energy>  (332) 
36.37

>  <QM_Energy>  (332) 
3.82

>  <source>  (332) 
ACET_PRPA_03

>  <Index>  (332) 
11787

$$$$
ACET-pdb2gpt-A-ASP-103:PRPA-pdb2gpt-A-LYS-131
     RDKit          3D

 18 16  0  0  0  0  0  0  0  0999 V2000
    0.0090    1.5136   -0.0129 C   0  0  0  0  0  0  0  0  0  0  0  0
    0.2754    1.8253   -0.9184 H   0  0  0  0  0  0  0  0  0  0  0  0
    0.6541    1.8373    0.6693 H   0  0  0  0  0  0  0  0  0  0  0  0
   -0.9663    1.9431    0.2158 H   0  0  0  0  0  0  0  0  0  0  0  0
    0.0000    0.0000    0.0000 C   0  0  0  0  0  0  0  0  0  0  0  0
   -1.0964   -0.5965    0.0000 O   0  0  0  0  0  1  0  0  0  0  0  0
    1.0964   -0.5952    0.0000 O   0  0  0  0  0  0  0  0  0  0  0  0
    1.2935    1.4834   -2.9839 C   0  0  0  0  0  0  0  0  0  0  0  0
    0.9459    1.9674   -2.1802 H   0  0  0  0  0  0  0  0  0  0  0  0
    1.1397    0.5016   -2.8736 H   0  0  0  0  0  0  0  0  0  0  0  0
    0.7562    1.8304   -3.8665 H   0  0  0  0  0  0  0  0  0  0  0  0
    2.7956    1.7358   -3.0967 C   0  0  0  0  0  0  0  0  0  0  0  0
    3.1230    1.3389   -3.9455 H   0  0  0  0  0  0  0  0  0  0  0  0
    2.9582    2.7154   -3.0820 H   0  0  0  0  0  0  0  0  0  0  0  0
    3.5508    1.0994   -1.9368 C   0  0  0  0  0  0  0  0  0  0  0  0
    3.2797    1.5548   -1.0848 H   0  0  0  0  0  0  0  0  0  0  0  0
    3.3009    0.1289   -1.8794 H   0  0  0  0  0  0  0  0  0  0  0  0
    4.6307    1.1830   -2.0582 H   0  0  0  0  0  0  0  0  0  0  0  0
  1  5  1  0
  5  6  1  0
  5  7  2  0
  1  2  1  0
  1  3  1  0
  1  4  1  0
  8 12  1  0
 12 15  1  0
  8  9  1  0
  8 10  1  0
  8 11  1  0
 12 13  1  0
 12 14  1  0
 15 16  1  0
 15 17  1  0
 15 18  1  0
M  CHG  1   6  -1
M  END
>  <PDB_ID>  (333) 
pdb2gpt

>  <RESIDUE_NAME>  (333) 
ASP   LYS

>  <FRAG_NAME>  (333) 
ACET   PRPA

>  <FRAG_ATOM_NUM>  (333) 
fragi: 7  fragj: 11

>  <atom.prop.CHAIN_ID>  (333) 
A A A A A A A Z Z Z Z Z Z Z Z Z Z Z

>  <atom.prop.IS_HEAVY_ATOM>  (333) 
1 0 0 0 1 1 1 1 0 0 0 1 0 0 1 0 0 0

>  <DIFUSE_FUNC_ATOM>  (333) 
atom 6   atom 7   

>  <FINAL_SINGLE_POINT_ENERGY>  (333) 
0

>  <NONCOV_INTER_ENERGY_QM>  (333) 
0

>  <FF_Energy>  (333) 
45.12

>  <QM_Energy>  (333) 
3.39

>  <source>  (333) 
ACET_PRPA_03

>  <Index>  (333) 
12336

$$$$
ACET-pdb2gp6-A-GLU-75:PRPA-pdb2gp6-A-LEU-71
     RDKit          3D

 18 16  0  0  0  0  0  0  0  0999 V2000
    0.0017    1.5221   -0.0056 C   0  0  0  0  0  0  0  0  0  0  0  0
   -0.5056    1.8233    0.7802 H   0  0  0  0  0  0  0  0  0  0  0  0
   -0.4074    1.8167   -0.8487 H   0  0  0  0  0  0  0  0  0  0  0  0
    1.0028    1.9492    0.0539 H   0  0  0  0  0  0  0  0  0  0  0  0
    0.0000    0.0000    0.0000 C   0  0  0  0  0  0  0  0  0  0  0  0
   -1.0934   -0.6056    0.0000 O   0  0  0  0  0  1  0  0  0  0  0  0
    1.0934   -0.5954   -0.0000 O   0  0  0  0  0  0  0  0  0  0  0  0
    4.1947   -2.0074   -1.2869 C   0  0  0  0  0  0  0  0  0  0  0  0
    3.4814   -2.7391   -1.3571 H   0  0  0  0  0  0  0  0  0  0  0  0
    5.1546   -2.4994   -1.1297 H   0  0  0  0  0  0  0  0  0  0  0  0
    4.1443   -1.3781   -2.1756 H   0  0  0  0  0  0  0  0  0  0  0  0
    3.7417   -1.3760   -0.0013 C   0  0  0  0  0  0  0  0  0  0  0  0
    2.7502   -1.1034   -0.1297 H   0  0  0  0  0  0  0  0  0  0  0  0
    3.7066   -2.1267    0.7103 H   0  0  0  0  0  0  0  0  0  0  0  0
    4.4295   -0.2090    0.6368 C   0  0  0  0  0  0  0  0  0  0  0  0
    4.0766    0.6533    0.2201 H   0  0  0  0  0  0  0  0  0  0  0  0
    4.3084   -0.1577    1.7188 H   0  0  0  0  0  0  0  0  0  0  0  0
    5.4125    0.0561    0.2476 H   0  0  0  0  0  0  0  0  0  0  0  0
  1  5  1  0
  5  6  1  0
  5  7  2  0
  1  2  1  0
  1  3  1  0
  1  4  1  0
  8 12  1  0
 12 15  1  0
  8  9  1  0
  8 10  1  0
  8 11  1  0
 12 13  1  0
 12 14  1  0
 15 16  1  0
 15 17  1  0
 15 18  1  0
M  CHG  1   6  -1
M  END
>  <PDB_ID>  (334) 
pdb2gp6

>  <RESIDUE_NAME>  (334) 
GLU   LEU

>  <FRAG_NAME>  (334) 
ACET   PRPA

>  <FRAG_ATOM_NUM>  (334) 
fragi: 7  fragj: 11

>  <atom.prop.CHAIN_ID>  (334) 
A A A A A A A Z Z Z Z Z Z Z Z Z Z Z

>  <atom.prop.IS_HEAVY_ATOM>  (334) 
1 0 0 0 1 1 1 1 0 0 0 1 0 0 1 0 0 0

>  <DIFUSE_FUNC_ATOM>  (334) 
atom 6   atom 7   

>  <FINAL_SINGLE_POINT_ENERGY>  (334) 
0

>  <NONCOV_INTER_ENERGY_QM>  (334) 
0

>  <FF_Energy>  (334) 
48.55

>  <QM_Energy>  (334) 
-0.28

>  <source>  (334) 
ACET_PRPA_03

>  <Index>  (334) 
13539

$$$$
ACET-pdb2gp6-A-GLU-75:PRPA-pdb2gp6-A-LEU-71
     RDKit          3D

 18 16  0  0  0  0  0  0  0  0999 V2000
    0.0017    1.5221   -0.0056 C   0  0  0  0  0  0  0  0  0  0  0  0
   -0.5056    1.8233    0.7802 H   0  0  0  0  0  0  0  0  0  0  0  0
   -0.4074    1.8167   -0.8487 H   0  0  0  0  0  0  0  0  0  0  0  0
    1.0028    1.9492    0.0539 H   0  0  0  0  0  0  0  0  0  0  0  0
    0.0000    0.0000    0.0000 C   0  0  0  0  0  0  0  0  0  0  0  0
   -1.0934   -0.6056    0.0000 O   0  0  0  0  0  1  0  0  0  0  0  0
    1.0934   -0.5954   -0.0000 O   0  0  0  0  0  0  0  0  0  0  0  0
    3.7417   -1.3760   -0.0013 C   0  0  0  0  0  0  0  0  0  0  0  0
    2.7502   -1.1034   -0.1297 H   0  0  0  0  0  0  0  0  0  0  0  0
    3.7066   -2.1267    0.7103 H   0  0  0  0  0  0  0  0  0  0  0  0
    4.0704   -1.8341   -0.9342 H   0  0  0  0  0  0  0  0  0  0  0  0
    4.4295   -0.2090    0.6368 C   0  0  0  0  0  0  0  0  0  0  0  0
    4.0766    0.6533    0.2201 H   0  0  0  0  0  0  0  0  0  0  0  0
    5.4125    0.0561    0.2476 H   0  0  0  0  0  0  0  0  0  0  0  0
    4.2631   -0.1385    2.1231 C   0  0  0  0  0  0  0  0  0  0  0  0
    4.6383   -0.9655    2.5529 H   0  0  0  0  0  0  0  0  0  0  0  0
    4.7458    0.6625    2.4887 H   0  0  0  0  0  0  0  0  0  0  0  0
    3.2897   -0.0646    2.3601 H   0  0  0  0  0  0  0  0  0  0  0  0
  1  5  1  0
  5  6  1  0
  5  7  2  0
  1  2  1  0
  1  3  1  0
  1  4  1  0
  8 12  1  0
 12 15  1  0
  8  9  1  0
  8 10  1  0
  8 11  1  0
 12 13  1  0
 12 14  1  0
 15 16  1  0
 15 17  1  0
 15 18  1  0
M  CHG  1   6  -1
M  END
>  <PDB_ID>  (335) 
pdb2gp6

>  <RESIDUE_NAME>  (335) 
GLU   LEU

>  <FRAG_NAME>  (335) 
ACET   PRPA

>  <FRAG_ATOM_NUM>  (335) 
fragi: 7  fragj: 11

>  <atom.prop.CHAIN_ID>  (335) 
A A A A A A A Z Z Z Z Z Z Z Z Z Z Z

>  <atom.prop.IS_HEAVY_ATOM>  (335) 
1 0 0 0 1 1 1 1 0 0 0 1 0 0 1 0 0 0

>  <DIFUSE_FUNC_ATOM>  (335) 
atom 6   atom 7   

>  <FINAL_SINGLE_POINT_ENERGY>  (335) 
0

>  <NONCOV_INTER_ENERGY_QM>  (335) 
0

>  <FF_Energy>  (335) 
41.62

>  <QM_Energy>  (335) 
-0.15

>  <source>  (335) 
ACET_PRPA_03

>  <Index>  (335) 
13549

$$$$
ACET-pdb2gp6-A-GLU-75:PRPA-pdb2gp6-A-LEU-71
     RDKit          3D

 18 16  0  0  0  0  0  0  0  0999 V2000
    0.0017    1.5221   -0.0056 C   0  0  0  0  0  0  0  0  0  0  0  0
   -0.5056    1.8233    0.7802 H   0  0  0  0  0  0  0  0  0  0  0  0
   -0.4074    1.8167   -0.8487 H   0  0  0  0  0  0  0  0  0  0  0  0
    1.0028    1.9492    0.0539 H   0  0  0  0  0  0  0  0  0  0  0  0
    0.0000    0.0000    0.0000 C   0  0  0  0  0  0  0  0  0  0  0  0
   -1.0934   -0.6056    0.0000 O   0  0  0  0  0  1  0  0  0  0  0  0
    1.0934   -0.5954   -0.0000 O   0  0  0  0  0  0  0  0  0  0  0  0
    3.7417   -1.3760   -0.0013 C   0  0  0  0  0  0  0  0  0  0  0  0
    2.7502   -1.1034   -0.1297 H   0  0  0  0  0  0  0  0  0  0  0  0
    3.7066   -2.1267    0.7103 H   0  0  0  0  0  0  0  0  0  0  0  0
    4.0704   -1.8341   -0.9342 H   0  0  0  0  0  0  0  0  0  0  0  0
    4.4295   -0.2090    0.6368 C   0  0  0  0  0  0  0  0  0  0  0  0
    4.0766    0.6533    0.2201 H   0  0  0  0  0  0  0  0  0  0  0  0
    4.3084   -0.1577    1.7188 H   0  0  0  0  0  0  0  0  0  0  0  0
    5.7731    0.1533    0.1048 C   0  0  0  0  0  0  0  0  0  0  0  0
    5.7120    0.3870   -0.8715 H   0  0  0  0  0  0  0  0  0  0  0  0
    6.1443    0.9464    0.6010 H   0  0  0  0  0  0  0  0  0  0  0  0
    6.4116   -0.6175    0.2102 H   0  0  0  0  0  0  0  0  0  0  0  0
  1  5  1  0
  5  6  1  0
  5  7  2  0
  1  2  1  0
  1  3  1  0
  1  4  1  0
  8 12  1  0
 12 15  1  0
  8  9  1  0
  8 10  1  0
  8 11  1  0
 12 13  1  0
 12 14  1  0
 15 16  1  0
 15 17  1  0
 15 18  1  0
M  CHG  1   6  -1
M  END
>  <PDB_ID>  (336) 
pdb2gp6

>  <RESIDUE_NAME>  (336) 
GLU   LEU

>  <FRAG_NAME>  (336) 
ACET   PRPA

>  <FRAG_ATOM_NUM>  (336) 
fragi: 7  fragj: 11

>  <atom.prop.CHAIN_ID>  (336) 
A A A A A A A Z Z Z Z Z Z Z Z Z Z Z

>  <atom.prop.IS_HEAVY_ATOM>  (336) 
1 0 0 0 1 1 1 1 0 0 0 1 0 0 1 0 0 0

>  <DIFUSE_FUNC_ATOM>  (336) 
atom 6   atom 7   

>  <FINAL_SINGLE_POINT_ENERGY>  (336) 
0

>  <NONCOV_INTER_ENERGY_QM>  (336) 
0

>  <FF_Energy>  (336) 
41.29

>  <QM_Energy>  (336) 
0.65

>  <source>  (336) 
ACET_PRPA_03

>  <Index>  (336) 
13558

$$$$
ACET-pdb2g47-C-GLU-22:PRPA-pdb2g47-A-ILE-832
     RDKit          3D

 18 16  0  0  0  0  0  0  0  0999 V2000
    0.1825    1.4859    0.0147 C   0  0  0  0  0  0  0  0  0  0  0  0
    0.7005    1.7383   -0.8027 H   0  0  0  0  0  0  0  0  0  0  0  0
    0.7122    1.7203    0.8297 H   0  0  0  0  0  0  0  0  0  0  0  0
   -0.7275    2.0856    0.0270 H   0  0  0  0  0  0  0  0  0  0  0  0
    0.0000    0.0000    0.0000 C   0  0  0  0  0  0  0  0  0  0  0  0
   -1.0891   -0.5546   -0.0000 O   0  0  0  0  0  1  0  0  0  0  0  0
    1.0891   -0.6110    0.0000 O   0  0  0  0  0  0  0  0  0  0  0  0
   -1.4508   -1.0269    4.4925 C   0  0  0  0  0  0  0  0  0  0  0  0
   -1.4989   -0.0539    4.2462 H   0  0  0  0  0  0  0  0  0  0  0  0
   -0.4204   -1.2195    4.7914 H   0  0  0  0  0  0  0  0  0  0  0  0
   -2.1295   -1.1684    5.3335 H   0  0  0  0  0  0  0  0  0  0  0  0
   -1.8865   -1.9600    3.3420 C   0  0  0  0  0  0  0  0  0  0  0  0
   -1.7602   -2.8958    3.6437 H   0  0  0  0  0  0  0  0  0  0  0  0
   -2.9277   -1.7672    3.0833 H   0  0  0  0  0  0  0  0  0  0  0  0
   -0.9942   -1.7286    2.1202 C   0  0  0  0  0  0  0  0  0  0  0  0
   -1.1560   -0.8029    1.7825 H   0  0  0  0  0  0  0  0  0  0  0  0
   -0.0413   -1.8002    2.4129 H   0  0  0  0  0  0  0  0  0  0  0  0
   -1.1666   -2.4379    1.3107 H   0  0  0  0  0  0  0  0  0  0  0  0
  1  5  1  0
  5  6  1  0
  5  7  2  0
  1  2  1  0
  1  3  1  0
  1  4  1  0
  8 12  1  0
 12 15  1  0
  8  9  1  0
  8 10  1  0
  8 11  1  0
 12 13  1  0
 12 14  1  0
 15 16  1  0
 15 17  1  0
 15 18  1  0
M  CHG  1   6  -1
M  END
>  <PDB_ID>  (337) 
pdb2g47

>  <RESIDUE_NAME>  (337) 
GLU   ILE

>  <FRAG_NAME>  (337) 
ACET   PRPA

>  <FRAG_ATOM_NUM>  (337) 
fragi: 7  fragj: 11

>  <atom.prop.CHAIN_ID>  (337) 
A A A A A A A Z Z Z Z Z Z Z Z Z Z Z

>  <atom.prop.IS_HEAVY_ATOM>  (337) 
1 0 0 0 1 1 1 1 0 0 0 1 0 0 1 0 0 0

>  <DIFUSE_FUNC_ATOM>  (337) 
atom 6   atom 7   

>  <FINAL_SINGLE_POINT_ENERGY>  (337) 
0

>  <NONCOV_INTER_ENERGY_QM>  (337) 
0

>  <FF_Energy>  (337) 
47.39

>  <QM_Energy>  (337) 
11.3

>  <source>  (337) 
ACET_PRPA_03

>  <Index>  (337) 
13600

$$$$
ACET-pdb2g47-C-GLU-22:PRPA-pdb2g47-A-ILE-832
     RDKit          3D

 18 16  0  0  0  0  0  0  0  0999 V2000
    0.1825    1.4859    0.0147 C   0  0  0  0  0  0  0  0  0  0  0  0
    0.7005    1.7383   -0.8027 H   0  0  0  0  0  0  0  0  0  0  0  0
    0.7122    1.7203    0.8297 H   0  0  0  0  0  0  0  0  0  0  0  0
   -0.7275    2.0856    0.0270 H   0  0  0  0  0  0  0  0  0  0  0  0
    0.0000    0.0000    0.0000 C   0  0  0  0  0  0  0  0  0  0  0  0
   -1.0891   -0.5546   -0.0000 O   0  0  0  0  0  1  0  0  0  0  0  0
    1.0891   -0.6110    0.0000 O   0  0  0  0  0  0  0  0  0  0  0  0
   -0.9942   -1.7286    2.1202 C   0  0  0  0  0  0  0  0  0  0  0  0
   -1.1560   -0.8029    1.7825 H   0  0  0  0  0  0  0  0  0  0  0  0
   -0.0413   -1.8002    2.4129 H   0  0  0  0  0  0  0  0  0  0  0  0
   -1.1666   -2.4379    1.3107 H   0  0  0  0  0  0  0  0  0  0  0  0
   -1.8865   -1.9600    3.3420 C   0  0  0  0  0  0  0  0  0  0  0  0
   -1.7602   -2.8958    3.6437 H   0  0  0  0  0  0  0  0  0  0  0  0
   -1.5789   -1.3012    4.1542 H   0  0  0  0  0  0  0  0  0  0  0  0
   -3.3476   -1.6894    2.9788 C   0  0  0  0  0  0  0  0  0  0  0  0
   -3.6248   -2.3060    2.2459 H   0  0  0  0  0  0  0  0  0  0  0  0
   -3.9200   -1.8424    3.7809 H   0  0  0  0  0  0  0  0  0  0  0  0
   -3.4423   -0.7444    2.6745 H   0  0  0  0  0  0  0  0  0  0  0  0
  1  5  1  0
  5  6  1  0
  5  7  2  0
  1  2  1  0
  1  3  1  0
  1  4  1  0
  8 12  1  0
 12 15  1  0
  8  9  1  0
  8 10  1  0
  8 11  1  0
 12 13  1  0
 12 14  1  0
 15 16  1  0
 15 17  1  0
 15 18  1  0
M  CHG  1   6  -1
M  END
>  <PDB_ID>  (338) 
pdb2g47

>  <RESIDUE_NAME>  (338) 
GLU   ILE

>  <FRAG_NAME>  (338) 
ACET   PRPA

>  <FRAG_ATOM_NUM>  (338) 
fragi: 7  fragj: 11

>  <atom.prop.CHAIN_ID>  (338) 
A A A A A A A Z Z Z Z Z Z Z Z Z Z Z

>  <atom.prop.IS_HEAVY_ATOM>  (338) 
1 0 0 0 1 1 1 1 0 0 0 1 0 0 1 0 0 0

>  <DIFUSE_FUNC_ATOM>  (338) 
atom 6   atom 7   

>  <FINAL_SINGLE_POINT_ENERGY>  (338) 
0

>  <NONCOV_INTER_ENERGY_QM>  (338) 
0

>  <FF_Energy>  (338) 
47.41

>  <QM_Energy>  (338) 
11.41

>  <source>  (338) 
ACET_PRPA_03

>  <Index>  (338) 
13625

$$$$
ACET-pdb2gu3-A-GLU-39:PRPA-pdb2gu3-A-LYS-34
     RDKit          3D

 18 16  0  0  0  0  0  0  0  0999 V2000
   -0.0277    1.5227   -0.0791 C   0  0  0  0  0  0  0  0  0  0  0  0
    0.5610    1.8539    0.6251 H   0  0  0  0  0  0  0  0  0  0  0  0
   -0.9586    1.7949    0.0324 H   0  0  0  0  0  0  0  0  0  0  0  0
    0.3388    1.8573   -1.0496 H   0  0  0  0  0  0  0  0  0  0  0  0
    0.0000    0.0000    0.0000 C   0  0  0  0  0  0  0  0  0  0  0  0
   -1.0982   -0.5776    0.0000 O   0  0  0  0  0  1  0  0  0  0  0  0
    1.0982   -0.5988   -0.0000 O   0  0  0  0  0  0  0  0  0  0  0  0
   -3.8150   -1.9052   -2.8582 C   0  0  0  0  0  0  0  0  0  0  0  0
   -3.9584   -0.9877   -2.5219 H   0  0  0  0  0  0  0  0  0  0  0  0
   -4.5859   -2.4888   -2.6615 H   0  0  0  0  0  0  0  0  0  0  0  0
   -3.6518   -1.8726   -3.9355 H   0  0  0  0  0  0  0  0  0  0  0  0
   -2.5716   -2.4847   -2.2073 C   0  0  0  0  0  0  0  0  0  0  0  0
   -2.4317   -3.4150   -2.5515 H   0  0  0  0  0  0  0  0  0  0  0  0
   -1.7838   -1.9190   -2.4540 H   0  0  0  0  0  0  0  0  0  0  0  0
   -2.6686   -2.5400   -0.6931 C   0  0  0  0  0  0  0  0  0  0  0  0
   -2.6207   -1.6094   -0.3252 H   0  0  0  0  0  0  0  0  0  0  0  0
   -3.5442   -2.9521   -0.4327 H   0  0  0  0  0  0  0  0  0  0  0  0
   -1.8619   -3.1302   -0.2586 H   0  0  0  0  0  0  0  0  0  0  0  0
  1  5  1  0
  5  6  1  0
  5  7  2  0
  1  2  1  0
  1  3  1  0
  1  4  1  0
  8 12  1  0
 12 15  1  0
  8  9  1  0
  8 10  1  0
  8 11  1  0
 12 13  1  0
 12 14  1  0
 15 16  1  0
 15 17  1  0
 15 18  1  0
M  CHG  1   6  -1
M  END
>  <PDB_ID>  (339) 
pdb2gu3

>  <RESIDUE_NAME>  (339) 
GLU   LYS

>  <FRAG_NAME>  (339) 
ACET   PRPA

>  <FRAG_ATOM_NUM>  (339) 
fragi: 7  fragj: 11

>  <atom.prop.CHAIN_ID>  (339) 
A A A A A A A Z Z Z Z Z Z Z Z Z Z Z

>  <atom.prop.IS_HEAVY_ATOM>  (339) 
1 0 0 0 1 1 1 1 0 0 0 1 0 0 1 0 0 0

>  <DIFUSE_FUNC_ATOM>  (339) 
atom 6   atom 7   

>  <FINAL_SINGLE_POINT_ENERGY>  (339) 
0

>  <NONCOV_INTER_ENERGY_QM>  (339) 
0

>  <FF_Energy>  (339) 
21.6

>  <QM_Energy>  (339) 
1.82

>  <source>  (339) 
ACET_PRPA_03

>  <Index>  (339) 
13704

$$$$
ACET-pdb1fxi-B-GLU-31:PRPA-pdb1fxi-B-ILE-16
     RDKit          3D

 18 16  0  0  0  0  0  0  0  0999 V2000
    0.3885    1.4578   -0.0255 C   0  0  0  0  0  0  0  0  0  0  0  0
   -0.4344    1.9858   -0.1803 H   0  0  0  0  0  0  0  0  0  0  0  0
    1.0358    1.5837   -0.7637 H   0  0  0  0  0  0  0  0  0  0  0  0
    0.8508    1.8149    0.8948 H   0  0  0  0  0  0  0  0  0  0  0  0
    0.0000    0.0000    0.0000 C   0  0  0  0  0  0  0  0  0  0  0  0
   -1.1498   -0.4374   -0.0000 O   0  0  0  0  0  1  0  0  0  0  0  0
    1.1498   -0.5394   -0.0000 O   0  0  0  0  0  0  0  0  0  0  0  0
    0.4977    3.3535   -4.6055 C   0  0  0  0  0  0  0  0  0  0  0  0
    0.5337    4.0152   -5.2866 H   0  0  0  0  0  0  0  0  0  0  0  0
    0.8624    2.4207   -5.0357 H   0  0  0  0  0  0  0  0  0  0  0  0
   -0.4865    3.5079   -4.1633 H   0  0  0  0  0  0  0  0  0  0  0  0
    1.6337    3.6754   -3.5615 C   0  0  0  0  0  0  0  0  0  0  0  0
    2.4612    3.8532   -4.0530 H   0  0  0  0  0  0  0  0  0  0  0  0
    1.3500    4.4507   -3.0332 H   0  0  0  0  0  0  0  0  0  0  0  0
    1.8790    2.4779   -2.5854 C   0  0  0  0  0  0  0  0  0  0  0  0
    2.1482    1.6929   -3.1261 H   0  0  0  0  0  0  0  0  0  0  0  0
    2.5991    2.7385   -1.9575 H   0  0  0  0  0  0  0  0  0  0  0  0
    1.0327    2.3002   -2.1003 H   0  0  0  0  0  0  0  0  0  0  0  0
  1  5  1  0
  5  6  1  0
  5  7  2  0
  1  2  1  0
  1  3  1  0
  1  4  1  0
  8 12  1  0
 12 15  1  0
  8  9  1  0
  8 10  1  0
  8 11  1  0
 12 13  1  0
 12 14  1  0
 15 16  1  0
 15 17  1  0
 15 18  1  0
M  CHG  1   6  -1
M  END
>  <PDB_ID>  (340) 
pdb1fxi

>  <RESIDUE_NAME>  (340) 
GLU   ILE

>  <FRAG_NAME>  (340) 
ACET   PRPA

>  <FRAG_ATOM_NUM>  (340) 
fragi: 7  fragj: 11

>  <atom.prop.CHAIN_ID>  (340) 
A A A A A A A Z Z Z Z Z Z Z Z Z Z Z

>  <atom.prop.IS_HEAVY_ATOM>  (340) 
1 0 0 0 1 1 1 1 0 0 0 1 0 0 1 0 0 0

>  <DIFUSE_FUNC_ATOM>  (340) 
atom 6   atom 7   

>  <FINAL_SINGLE_POINT_ENERGY>  (340) 
0

>  <NONCOV_INTER_ENERGY_QM>  (340) 
0

>  <FF_Energy>  (340) 
30.67

>  <QM_Energy>  (340) 
6.19

>  <source>  (340) 
ACET_PRPA_03

>  <Index>  (340) 
13815

$$$$
ACET-pdb2gju-A-ASP-225:PRPA-pdb2gju-A-ILE-228
     RDKit          3D

 18 16  0  0  0  0  0  0  0  0999 V2000
    0.0061    1.5190   -0.0085 C   0  0  0  0  0  0  0  0  0  0  0  0
   -0.2609    1.8340   -0.9112 H   0  0  0  0  0  0  0  0  0  0  0  0
    0.9196    1.8352    0.2156 H   0  0  0  0  0  0  0  0  0  0  0  0
   -0.6873    1.9452    0.7166 H   0  0  0  0  0  0  0  0  0  0  0  0
    0.0000    0.0000    0.0000 C   0  0  0  0  0  0  0  0  0  0  0  0
   -1.0988   -0.6043   -0.0000 O   0  0  0  0  0  1  0  0  0  0  0  0
    1.0988   -0.5887    0.0000 O   0  0  0  0  0  0  0  0  0  0  0  0
    3.1606    0.0666    1.9364 C   0  0  0  0  0  0  0  0  0  0  0  0
    3.3018    0.5831    1.0917 H   0  0  0  0  0  0  0  0  0  0  0  0
    2.1756   -0.0249    2.0900 H   0  0  0  0  0  0  0  0  0  0  0  0
    3.6042    0.6089    2.7714 H   0  0  0  0  0  0  0  0  0  0  0  0
    3.7394   -1.3312    1.7446 C   0  0  0  0  0  0  0  0  0  0  0  0
    4.7052   -1.3064    1.9776 H   0  0  0  0  0  0  0  0  0  0  0  0
    3.2584   -2.0423    2.4162 H   0  0  0  0  0  0  0  0  0  0  0  0
    3.5592   -1.7765    0.2997 C   0  0  0  0  0  0  0  0  0  0  0  0
    4.0324   -1.1398   -0.3070 H   0  0  0  0  0  0  0  0  0  0  0  0
    3.9411   -2.6919    0.1830 H   0  0  0  0  0  0  0  0  0  0  0  0
    2.5869   -1.7904    0.0744 H   0  0  0  0  0  0  0  0  0  0  0  0
  1  5  1  0
  5  6  1  0
  5  7  2  0
  1  2  1  0
  1  3  1  0
  1  4  1  0
  8 12  1  0
 12 15  1  0
  8  9  1  0
  8 10  1  0
  8 11  1  0
 12 13  1  0
 12 14  1  0
 15 16  1  0
 15 17  1  0
 15 18  1  0
M  CHG  1   6  -1
M  END
>  <PDB_ID>  (341) 
pdb2gju

>  <RESIDUE_NAME>  (341) 
ASP   ILE

>  <FRAG_NAME>  (341) 
ACET   PRPA

>  <FRAG_ATOM_NUM>  (341) 
fragi: 7  fragj: 11

>  <atom.prop.CHAIN_ID>  (341) 
A A A A A A A Z Z Z Z Z Z Z Z Z Z Z

>  <atom.prop.IS_HEAVY_ATOM>  (341) 
1 0 0 0 1 1 1 1 0 0 0 1 0 0 1 0 0 0

>  <DIFUSE_FUNC_ATOM>  (341) 
atom 6   atom 7   

>  <FINAL_SINGLE_POINT_ENERGY>  (341) 
0

>  <NONCOV_INTER_ENERGY_QM>  (341) 
0

>  <FF_Energy>  (341) 
16.22

>  <QM_Energy>  (341) 
-0.65

>  <source>  (341) 
ACET_PRPA_03

>  <Index>  (341) 
13847

$$$$
ACET-pdb2g47-A-GLU-827:PRPA-pdb2g47-A-ARG-862
     RDKit          3D

 18 16  0  0  0  0  0  0  0  0999 V2000
   -0.0000    1.5238   -0.0242 C   0  0  0  0  0  0  0  0  0  0  0  0
   -0.2068    1.8059   -0.9432 H   0  0  0  0  0  0  0  0  0  0  0  0
    0.8902    1.8251    0.2662 H   0  0  0  0  0  0  0  0  0  0  0  0
   -0.7418    1.9661    0.6408 H   0  0  0  0  0  0  0  0  0  0  0  0
    0.0000    0.0000    0.0000 C   0  0  0  0  0  0  0  0  0  0  0  0
   -1.0936   -0.5992   -0.0000 O   0  0  0  0  0  1  0  0  0  0  0  0
    1.0936   -0.6016    0.0000 O   0  0  0  0  0  0  0  0  0  0  0  0
   -1.9991   -3.9504    1.8039 C   0  0  0  0  0  0  0  0  0  0  0  0
   -2.4628   -4.1693    2.6577 H   0  0  0  0  0  0  0  0  0  0  0  0
   -1.3384   -3.2208    1.9501 H   0  0  0  0  0  0  0  0  0  0  0  0
   -1.4601   -4.8373    1.4707 H   0  0  0  0  0  0  0  0  0  0  0  0
   -3.0391   -3.4550    0.8151 C   0  0  0  0  0  0  0  0  0  0  0  0
   -3.6413   -4.2045    0.5610 H   0  0  0  0  0  0  0  0  0  0  0  0
   -3.5630   -2.7151    1.2246 H   0  0  0  0  0  0  0  0  0  0  0  0
   -2.3803   -2.9251   -0.4482 C   0  0  0  0  0  0  0  0  0  0  0  0
   -3.0667   -2.4015   -0.9577 H   0  0  0  0  0  0  0  0  0  0  0  0
   -1.6372   -2.3110   -0.1731 H   0  0  0  0  0  0  0  0  0  0  0  0
   -1.9796   -3.7121   -1.0871 H   0  0  0  0  0  0  0  0  0  0  0  0
  1  5  1  0
  5  6  1  0
  5  7  2  0
  1  2  1  0
  1  3  1  0
  1  4  1  0
  8 12  1  0
 12 15  1  0
  8  9  1  0
  8 10  1  0
  8 11  1  0
 12 13  1  0
 12 14  1  0
 15 16  1  0
 15 17  1  0
 15 18  1  0
M  CHG  1   6  -1
M  END
>  <PDB_ID>  (342) 
pdb2g47

>  <RESIDUE_NAME>  (342) 
GLU   ARG

>  <FRAG_NAME>  (342) 
ACET   PRPA

>  <FRAG_ATOM_NUM>  (342) 
fragi: 7  fragj: 11

>  <atom.prop.CHAIN_ID>  (342) 
A A A A A A A Z Z Z Z Z Z Z Z Z Z Z

>  <atom.prop.IS_HEAVY_ATOM>  (342) 
1 0 0 0 1 1 1 1 0 0 0 1 0 0 1 0 0 0

>  <DIFUSE_FUNC_ATOM>  (342) 
atom 6   atom 7   

>  <FINAL_SINGLE_POINT_ENERGY>  (342) 
0

>  <NONCOV_INTER_ENERGY_QM>  (342) 
0

>  <FF_Energy>  (342) 
28.03

>  <QM_Energy>  (342) 
1.02

>  <source>  (342) 
ACET_PRPA_03

>  <Index>  (342) 
13930

$$$$
ACET-pdb2g49-A-GLU-827:PRPA-pdb2g49-A-ARG-862
     RDKit          3D

 18 16  0  0  0  0  0  0  0  0999 V2000
   -0.0094    1.5107   -0.0181 C   0  0  0  0  0  0  0  0  0  0  0  0
   -0.2149    1.7990   -0.9380 H   0  0  0  0  0  0  0  0  0  0  0  0
    0.8799    1.8192    0.2738 H   0  0  0  0  0  0  0  0  0  0  0  0
   -0.7555    1.9452    0.6472 H   0  0  0  0  0  0  0  0  0  0  0  0
    0.0000    0.0000    0.0000 C   0  0  0  0  0  0  0  0  0  0  0  0
   -1.0975   -0.5903   -0.0000 O   0  0  0  0  0  1  0  0  0  0  0  0
    1.0975   -0.5941    0.0000 O   0  0  0  0  0  0  0  0  0  0  0  0
   -2.0741   -3.9062    1.8742 C   0  0  0  0  0  0  0  0  0  0  0  0
   -2.6229   -4.0387    2.6923 H   0  0  0  0  0  0  0  0  0  0  0  0
   -1.3888   -3.2022    2.0268 H   0  0  0  0  0  0  0  0  0  0  0  0
   -1.5632   -4.8419    1.6471 H   0  0  0  0  0  0  0  0  0  0  0  0
   -2.9917   -3.4357    0.7626 C   0  0  0  0  0  0  0  0  0  0  0  0
   -3.5323   -4.1984    0.4313 H   0  0  0  0  0  0  0  0  0  0  0  0
   -3.5771   -2.7090    1.0991 H   0  0  0  0  0  0  0  0  0  0  0  0
   -2.1750   -2.8923   -0.3917 C   0  0  0  0  0  0  0  0  0  0  0  0
   -2.7511   -2.2415   -0.8999 H   0  0  0  0  0  0  0  0  0  0  0  0
   -1.3907   -2.3913   -0.0065 H   0  0  0  0  0  0  0  0  0  0  0  0
   -1.8093   -3.6569   -1.0771 H   0  0  0  0  0  0  0  0  0  0  0  0
  1  5  1  0
  5  6  1  0
  5  7  2  0
  1  2  1  0
  1  3  1  0
  1  4  1  0
  8 12  1  0
 12 15  1  0
  8  9  1  0
  8 10  1  0
  8 11  1  0
 12 13  1  0
 12 14  1  0
 15 16  1  0
 15 17  1  0
 15 18  1  0
M  CHG  1   6  -1
M  END
>  <PDB_ID>  (343) 
pdb2g49

>  <RESIDUE_NAME>  (343) 
GLU   ARG

>  <FRAG_NAME>  (343) 
ACET   PRPA

>  <FRAG_ATOM_NUM>  (343) 
fragi: 7  fragj: 11

>  <atom.prop.CHAIN_ID>  (343) 
A A A A A A A Z Z Z Z Z Z Z Z Z Z Z

>  <atom.prop.IS_HEAVY_ATOM>  (343) 
1 0 0 0 1 1 1 1 0 0 0 1 0 0 1 0 0 0

>  <DIFUSE_FUNC_ATOM>  (343) 
atom 6   atom 7   

>  <FINAL_SINGLE_POINT_ENERGY>  (343) 
0

>  <NONCOV_INTER_ENERGY_QM>  (343) 
0

>  <FF_Energy>  (343) 
28.35

>  <QM_Energy>  (343) 
3.99

>  <source>  (343) 
ACET_PRPA_03

>  <Index>  (343) 
14476

$$$$
ACET-pdb1fxi-C-ASP-84:PRPA-pdb1fxi-C-LYS-4
     RDKit          3D

 18 16  0  0  0  0  0  0  0  0999 V2000
    0.0658    1.5177    0.1124 C   0  0  0  0  0  0  0  0  0  0  0  0
    0.7748    1.8508   -0.5029 H   0  0  0  0  0  0  0  0  0  0  0  0
    0.2894    1.7578    1.0530 H   0  0  0  0  0  0  0  0  0  0  0  0
   -0.8680    2.0154   -0.1493 H   0  0  0  0  0  0  0  0  0  0  0  0
    0.0000    0.0000    0.0000 C   0  0  0  0  0  0  0  0  0  0  0  0
   -1.0247   -0.6741    0.0000 O   0  0  0  0  0  1  0  0  0  0  0  0
    1.0247   -0.7264   -0.0000 O   0  0  0  0  0  0  0  0  0  0  0  0
   -0.4120    0.3479    3.8899 C   0  0  0  0  0  0  0  0  0  0  0  0
   -0.5262    0.0442    4.8172 H   0  0  0  0  0  0  0  0  0  0  0  0
   -1.0626   -0.2386    3.2412 H   0  0  0  0  0  0  0  0  0  0  0  0
   -0.7873    1.3667    3.7932 H   0  0  0  0  0  0  0  0  0  0  0  0
    0.9464    0.1654    3.2142 C   0  0  0  0  0  0  0  0  0  0  0  0
    1.1034    0.9082    2.5974 H   0  0  0  0  0  0  0  0  0  0  0  0
    1.6407    0.0844    3.9004 H   0  0  0  0  0  0  0  0  0  0  0  0
    0.9673   -1.1564    2.3686 C   0  0  0  0  0  0  0  0  0  0  0  0
    0.1541   -1.1883    1.8281 H   0  0  0  0  0  0  0  0  0  0  0  0
    1.7873   -1.1698    1.8389 H   0  0  0  0  0  0  0  0  0  0  0  0
    0.9719   -1.9919    3.0686 H   0  0  0  0  0  0  0  0  0  0  0  0
  1  5  1  0
  5  6  1  0
  5  7  2  0
  1  2  1  0
  1  3  1  0
  1  4  1  0
  8 12  1  0
 12 15  1  0
  8  9  1  0
  8 10  1  0
  8 11  1  0
 12 13  1  0
 12 14  1  0
 15 16  1  0
 15 17  1  0
 15 18  1  0
M  CHG  1   6  -1
M  END
>  <PDB_ID>  (344) 
pdb1fxi

>  <RESIDUE_NAME>  (344) 
ASP   LYS

>  <FRAG_NAME>  (344) 
ACET   PRPA

>  <FRAG_ATOM_NUM>  (344) 
fragi: 7  fragj: 11

>  <atom.prop.CHAIN_ID>  (344) 
A A A A A A A Z Z Z Z Z Z Z Z Z Z Z

>  <atom.prop.IS_HEAVY_ATOM>  (344) 
1 0 0 0 1 1 1 1 0 0 0 1 0 0 1 0 0 0

>  <DIFUSE_FUNC_ATOM>  (344) 
atom 6   atom 7   

>  <FINAL_SINGLE_POINT_ENERGY>  (344) 
0

>  <NONCOV_INTER_ENERGY_QM>  (344) 
0

>  <FF_Energy>  (344) 
38.01

>  <QM_Energy>  (344) 
7.09

>  <source>  (344) 
ACET_PRPA_03

>  <Index>  (344) 
14616

$$$$
ACET-pdb1fxi-C-ASP-84:PRPA-pdb1fxi-C-LYS-4
     RDKit          3D

 18 16  0  0  0  0  0  0  0  0999 V2000
    0.0658    1.5177    0.1124 C   0  0  0  0  0  0  0  0  0  0  0  0
    0.7748    1.8508   -0.5029 H   0  0  0  0  0  0  0  0  0  0  0  0
    0.2894    1.7578    1.0530 H   0  0  0  0  0  0  0  0  0  0  0  0
   -0.8680    2.0154   -0.1493 H   0  0  0  0  0  0  0  0  0  0  0  0
    0.0000    0.0000    0.0000 C   0  0  0  0  0  0  0  0  0  0  0  0
   -1.0247   -0.6741    0.0000 O   0  0  0  0  0  1  0  0  0  0  0  0
    1.0247   -0.7264   -0.0000 O   0  0  0  0  0  0  0  0  0  0  0  0
    0.9464    0.1654    3.2142 C   0  0  0  0  0  0  0  0  0  0  0  0
    1.1034    0.9082    2.5974 H   0  0  0  0  0  0  0  0  0  0  0  0
    1.6407    0.0844    3.9004 H   0  0  0  0  0  0  0  0  0  0  0  0
   -0.0226    0.2955    3.6961 H   0  0  0  0  0  0  0  0  0  0  0  0
    0.9673   -1.1564    2.3686 C   0  0  0  0  0  0  0  0  0  0  0  0
    0.1541   -1.1883    1.8281 H   0  0  0  0  0  0  0  0  0  0  0  0
    1.7873   -1.1698    1.8389 H   0  0  0  0  0  0  0  0  0  0  0  0
    0.9738   -2.3343    3.3555 C   0  0  0  0  0  0  0  0  0  0  0  0
    0.1973   -2.2350    3.9643 H   0  0  0  0  0  0  0  0  0  0  0  0
    0.9125   -3.1770    2.8372 H   0  0  0  0  0  0  0  0  0  0  0  0
    1.8923   -2.3398    3.9423 H   0  0  0  0  0  0  0  0  0  0  0  0
  1  5  1  0
  5  6  1  0
  5  7  2  0
  1  2  1  0
  1  3  1  0
  1  4  1  0
  8 12  1  0
 12 15  1  0
  8  9  1  0
  8 10  1  0
  8 11  1  0
 12 13  1  0
 12 14  1  0
 15 16  1  0
 15 17  1  0
 15 18  1  0
M  CHG  1   6  -1
M  END
>  <PDB_ID>  (345) 
pdb1fxi

>  <RESIDUE_NAME>  (345) 
ASP   LYS

>  <FRAG_NAME>  (345) 
ACET   PRPA

>  <FRAG_ATOM_NUM>  (345) 
fragi: 7  fragj: 11

>  <atom.prop.CHAIN_ID>  (345) 
A A A A A A A Z Z Z Z Z Z Z Z Z Z Z

>  <atom.prop.IS_HEAVY_ATOM>  (345) 
1 0 0 0 1 1 1 1 0 0 0 1 0 0 1 0 0 0

>  <DIFUSE_FUNC_ATOM>  (345) 
atom 6   atom 7   

>  <FINAL_SINGLE_POINT_ENERGY>  (345) 
0

>  <NONCOV_INTER_ENERGY_QM>  (345) 
0

>  <FF_Energy>  (345) 
36.18

>  <QM_Energy>  (345) 
7.37

>  <source>  (345) 
ACET_PRPA_03

>  <Index>  (345) 
14625

$$$$
ACET-pdb1fxi-C-ASP-84:PRPA-pdb1fxi-C-LYS-4
     RDKit          3D

 18 16  0  0  0  0  0  0  0  0999 V2000
    0.0658    1.5177    0.1124 C   0  0  0  0  0  0  0  0  0  0  0  0
    0.7748    1.8508   -0.5029 H   0  0  0  0  0  0  0  0  0  0  0  0
    0.2894    1.7578    1.0530 H   0  0  0  0  0  0  0  0  0  0  0  0
   -0.8680    2.0154   -0.1493 H   0  0  0  0  0  0  0  0  0  0  0  0
    0.0000    0.0000    0.0000 C   0  0  0  0  0  0  0  0  0  0  0  0
   -1.0247   -0.6741    0.0000 O   0  0  0  0  0  1  0  0  0  0  0  0
    1.0247   -0.7264   -0.0000 O   0  0  0  0  0  0  0  0  0  0  0  0
    0.9673   -1.1564    2.3686 C   0  0  0  0  0  0  0  0  0  0  0  0
    0.1541   -1.1883    1.8281 H   0  0  0  0  0  0  0  0  0  0  0  0
    1.7873   -1.1698    1.8389 H   0  0  0  0  0  0  0  0  0  0  0  0
    0.9528   -0.2383    2.9559 H   0  0  0  0  0  0  0  0  0  0  0  0
    0.9738   -2.3343    3.3555 C   0  0  0  0  0  0  0  0  0  0  0  0
    0.1973   -2.2350    3.9643 H   0  0  0  0  0  0  0  0  0  0  0  0
    0.9125   -3.1770    2.8372 H   0  0  0  0  0  0  0  0  0  0  0  0
    2.2447   -2.3419    4.1674 C   0  0  0  0  0  0  0  0  0  0  0  0
    2.6713   -3.2745    4.0930 H   0  0  0  0  0  0  0  0  0  0  0  0
    2.9184   -1.7046    3.7223 H   0  0  0  0  0  0  0  0  0  0  0  0
    2.1573   -2.0793    5.2216 H   0  0  0  0  0  0  0  0  0  0  0  0
  1  5  1  0
  5  6  1  0
  5  7  2  0
  1  2  1  0
  1  3  1  0
  1  4  1  0
  8 12  1  0
 12 15  1  0
  8  9  1  0
  8 10  1  0
  8 11  1  0
 12 13  1  0
 12 14  1  0
 15 16  1  0
 15 17  1  0
 15 18  1  0
M  CHG  1   6  -1
M  END
>  <PDB_ID>  (346) 
pdb1fxi

>  <RESIDUE_NAME>  (346) 
ASP   LYS

>  <FRAG_NAME>  (346) 
ACET   PRPA

>  <FRAG_ATOM_NUM>  (346) 
fragi: 7  fragj: 11

>  <atom.prop.CHAIN_ID>  (346) 
A A A A A A A Z Z Z Z Z Z Z Z Z Z Z

>  <atom.prop.IS_HEAVY_ATOM>  (346) 
1 0 0 0 1 1 1 1 0 0 0 1 0 0 1 0 0 0

>  <DIFUSE_FUNC_ATOM>  (346) 
atom 6   atom 7   

>  <FINAL_SINGLE_POINT_ENERGY>  (346) 
0

>  <NONCOV_INTER_ENERGY_QM>  (346) 
0

>  <FF_Energy>  (346) 
36.78

>  <QM_Energy>  (346) 
7.96

>  <source>  (346) 
ACET_PRPA_03

>  <Index>  (346) 
14636

$$$$
ACET-pdb1euz-D-GLU-266:PRPA-pdb1euz-D-LYS-262
     RDKit          3D

 18 16  0  0  0  0  0  0  0  0999 V2000
    0.1737    1.4835    0.0134 C   0  0  0  0  0  0  0  0  0  0  0  0
    0.6937    1.7384   -0.8039 H   0  0  0  0  0  0  0  0  0  0  0  0
    0.7061    1.7216    0.8282 H   0  0  0  0  0  0  0  0  0  0  0  0
   -0.7367    2.0827    0.0252 H   0  0  0  0  0  0  0  0  0  0  0  0
    0.0000    0.0000    0.0000 C   0  0  0  0  0  0  0  0  0  0  0  0
   -1.0895   -0.5595    0.0000 O   0  0  0  0  0  1  0  0  0  0  0  0
    1.0895   -0.6091    0.0000 O   0  0  0  0  0  0  0  0  0  0  0  0
    4.6230    1.4316    1.2470 C   0  0  0  0  0  0  0  0  0  0  0  0
    4.7795    1.9787    0.4202 H   0  0  0  0  0  0  0  0  0  0  0  0
    5.3729    1.6876    1.9953 H   0  0  0  0  0  0  0  0  0  0  0  0
    3.6244    1.6559    1.6218 H   0  0  0  0  0  0  0  0  0  0  0  0
    4.7342   -0.0529    0.9065 C   0  0  0  0  0  0  0  0  0  0  0  0
    5.6701   -0.2323    0.6031 H   0  0  0  0  0  0  0  0  0  0  0  0
    4.5487   -0.5763    1.7383 H   0  0  0  0  0  0  0  0  0  0  0  0
    3.7828   -0.5132   -0.1737 C   0  0  0  0  0  0  0  0  0  0  0  0
    2.8442   -0.2893    0.0921 H   0  0  0  0  0  0  0  0  0  0  0  0
    4.0048   -0.0503   -1.0325 H   0  0  0  0  0  0  0  0  0  0  0  0
    3.8498   -1.5894   -0.3327 H   0  0  0  0  0  0  0  0  0  0  0  0
  1  5  1  0
  5  6  1  0
  5  7  2  0
  1  2  1  0
  1  3  1  0
  1  4  1  0
  8 12  1  0
 12 15  1  0
  8  9  1  0
  8 10  1  0
  8 11  1  0
 12 13  1  0
 12 14  1  0
 15 16  1  0
 15 17  1  0
 15 18  1  0
M  CHG  1   6  -1
M  END
>  <PDB_ID>  (347) 
pdb1euz

>  <RESIDUE_NAME>  (347) 
GLU   LYS

>  <FRAG_NAME>  (347) 
ACET   PRPA

>  <FRAG_ATOM_NUM>  (347) 
fragi: 7  fragj: 11

>  <atom.prop.CHAIN_ID>  (347) 
A A A A A A A Z Z Z Z Z Z Z Z Z Z Z

>  <atom.prop.IS_HEAVY_ATOM>  (347) 
1 0 0 0 1 1 1 1 0 0 0 1 0 0 1 0 0 0

>  <DIFUSE_FUNC_ATOM>  (347) 
atom 6   atom 7   

>  <FINAL_SINGLE_POINT_ENERGY>  (347) 
0

>  <NONCOV_INTER_ENERGY_QM>  (347) 
0

>  <FF_Energy>  (347) 
30.83

>  <QM_Energy>  (347) 
1.96

>  <source>  (347) 
ACET_PRPA_03

>  <Index>  (347) 
14990

$$$$
ACET-pdb1euz-D-GLU-266:PRPA-pdb1euz-D-LYS-262
     RDKit          3D

 18 16  0  0  0  0  0  0  0  0999 V2000
    0.1737    1.4835    0.0134 C   0  0  0  0  0  0  0  0  0  0  0  0
    0.6937    1.7384   -0.8039 H   0  0  0  0  0  0  0  0  0  0  0  0
    0.7061    1.7216    0.8282 H   0  0  0  0  0  0  0  0  0  0  0  0
   -0.7367    2.0827    0.0252 H   0  0  0  0  0  0  0  0  0  0  0  0
    0.0000    0.0000    0.0000 C   0  0  0  0  0  0  0  0  0  0  0  0
   -1.0895   -0.5595    0.0000 O   0  0  0  0  0  1  0  0  0  0  0  0
    1.0895   -0.6091    0.0000 O   0  0  0  0  0  0  0  0  0  0  0  0
    4.7342   -0.0529    0.9065 C   0  0  0  0  0  0  0  0  0  0  0  0
    5.6701   -0.2323    0.6031 H   0  0  0  0  0  0  0  0  0  0  0  0
    4.5487   -0.5763    1.7383 H   0  0  0  0  0  0  0  0  0  0  0  0
    4.6548    1.0066    1.1495 H   0  0  0  0  0  0  0  0  0  0  0  0
    3.7828   -0.5132   -0.1737 C   0  0  0  0  0  0  0  0  0  0  0  0
    2.8442   -0.2893    0.0921 H   0  0  0  0  0  0  0  0  0  0  0  0
    4.0048   -0.0503   -1.0325 H   0  0  0  0  0  0  0  0  0  0  0  0
    3.8766   -2.0215   -0.3964 C   0  0  0  0  0  0  0  0  0  0  0  0
    4.6639   -2.2147   -0.9686 H   0  0  0  0  0  0  0  0  0  0  0  0
    3.9599   -2.4731    0.4827 H   0  0  0  0  0  0  0  0  0  0  0  0
    2.9872   -2.4049   -0.8965 H   0  0  0  0  0  0  0  0  0  0  0  0
  1  5  1  0
  5  6  1  0
  5  7  2  0
  1  2  1  0
  1  3  1  0
  1  4  1  0
  8 12  1  0
 12 15  1  0
  8  9  1  0
  8 10  1  0
  8 11  1  0
 12 13  1  0
 12 14  1  0
 15 16  1  0
 15 17  1  0
 15 18  1  0
M  CHG  1   6  -1
M  END
>  <PDB_ID>  (348) 
pdb1euz

>  <RESIDUE_NAME>  (348) 
GLU   LYS

>  <FRAG_NAME>  (348) 
ACET   PRPA

>  <FRAG_ATOM_NUM>  (348) 
fragi: 7  fragj: 11

>  <atom.prop.CHAIN_ID>  (348) 
A A A A A A A Z Z Z Z Z Z Z Z Z Z Z

>  <atom.prop.IS_HEAVY_ATOM>  (348) 
1 0 0 0 1 1 1 1 0 0 0 1 0 0 1 0 0 0

>  <DIFUSE_FUNC_ATOM>  (348) 
atom 6   atom 7   

>  <FINAL_SINGLE_POINT_ENERGY>  (348) 
0

>  <NONCOV_INTER_ENERGY_QM>  (348) 
0

>  <FF_Energy>  (348) 
36.15

>  <QM_Energy>  (348) 
1.09

>  <source>  (348) 
ACET_PRPA_03

>  <Index>  (348) 
15001

$$$$
ACET-pdb1euz-D-GLU-266:PRPA-pdb1euz-D-LYS-262
     RDKit          3D

 18 16  0  0  0  0  0  0  0  0999 V2000
    0.1737    1.4835    0.0134 C   0  0  0  0  0  0  0  0  0  0  0  0
    0.6937    1.7384   -0.8039 H   0  0  0  0  0  0  0  0  0  0  0  0
    0.7061    1.7216    0.8282 H   0  0  0  0  0  0  0  0  0  0  0  0
   -0.7367    2.0827    0.0252 H   0  0  0  0  0  0  0  0  0  0  0  0
    0.0000    0.0000    0.0000 C   0  0  0  0  0  0  0  0  0  0  0  0
   -1.0895   -0.5595    0.0000 O   0  0  0  0  0  1  0  0  0  0  0  0
    1.0895   -0.6091    0.0000 O   0  0  0  0  0  0  0  0  0  0  0  0
    3.7828   -0.5132   -0.1737 C   0  0  0  0  0  0  0  0  0  0  0  0
    2.8442   -0.2893    0.0921 H   0  0  0  0  0  0  0  0  0  0  0  0
    4.0048   -0.0503   -1.0325 H   0  0  0  0  0  0  0  0  0  0  0  0
    4.4690   -0.1812    0.6054 H   0  0  0  0  0  0  0  0  0  0  0  0
    3.8766   -2.0215   -0.3964 C   0  0  0  0  0  0  0  0  0  0  0  0
    4.6639   -2.2147   -0.9686 H   0  0  0  0  0  0  0  0  0  0  0  0
    3.9599   -2.4731    0.4827 H   0  0  0  0  0  0  0  0  0  0  0  0
    2.6243   -2.5613   -1.1005 C   0  0  0  0  0  0  0  0  0  0  0  0
    2.9073   -3.2460   -1.7846 H   0  0  0  0  0  0  0  0  0  0  0  0
    2.0417   -3.0206   -0.4182 H   0  0  0  0  0  0  0  0  0  0  0  0
    2.0364   -1.7911   -1.5998 H   0  0  0  0  0  0  0  0  0  0  0  0
  1  5  1  0
  5  6  1  0
  5  7  2  0
  1  2  1  0
  1  3  1  0
  1  4  1  0
  8 12  1  0
 12 15  1  0
  8  9  1  0
  8 10  1  0
  8 11  1  0
 12 13  1  0
 12 14  1  0
 15 16  1  0
 15 17  1  0
 15 18  1  0
M  CHG  1   6  -1
M  END
>  <PDB_ID>  (349) 
pdb1euz

>  <RESIDUE_NAME>  (349) 
GLU   LYS

>  <FRAG_NAME>  (349) 
ACET   PRPA

>  <FRAG_ATOM_NUM>  (349) 
fragi: 7  fragj: 11

>  <atom.prop.CHAIN_ID>  (349) 
A A A A A A A Z Z Z Z Z Z Z Z Z Z Z

>  <atom.prop.IS_HEAVY_ATOM>  (349) 
1 0 0 0 1 1 1 1 0 0 0 1 0 0 1 0 0 0

>  <DIFUSE_FUNC_ATOM>  (349) 
atom 6   atom 7   

>  <FINAL_SINGLE_POINT_ENERGY>  (349) 
0

>  <NONCOV_INTER_ENERGY_QM>  (349) 
0

>  <FF_Energy>  (349) 
21.15

>  <QM_Energy>  (349) 
3.24

>  <source>  (349) 
ACET_PRPA_03

>  <Index>  (349) 
15012

$$$$
ACET-pdb2gsf-A-ASP-598:PRPA-pdb2gsf-A-VAL-770
     RDKit          3D

 18 16  0  0  0  0  0  0  0  0999 V2000
   -0.0054    1.5138    0.0049 C   0  0  0  0  0  0  0  0  0  0  0  0
   -0.7710    1.8323   -0.5399 H   0  0  0  0  0  0  0  0  0  0  0  0
    0.8525    1.8380   -0.3736 H   0  0  0  0  0  0  0  0  0  0  0  0
   -0.1103    1.9241    1.0092 H   0  0  0  0  0  0  0  0  0  0  0  0
    0.0000    0.0000    0.0000 C   0  0  0  0  0  0  0  0  0  0  0  0
   -1.0988   -0.5970    0.0000 O   0  0  0  0  0  1  0  0  0  0  0  0
    1.0988   -0.5890   -0.0000 O   0  0  0  0  0  0  0  0  0  0  0  0
   -4.7387    1.0983   -1.8168 C   0  0  0  0  0  0  0  0  0  0  0  0
   -5.6359    1.3071   -1.4271 H   0  0  0  0  0  0  0  0  0  0  0  0
   -4.2966    0.3003   -1.2203 H   0  0  0  0  0  0  0  0  0  0  0  0
   -4.8781    0.7517   -2.8408 H   0  0  0  0  0  0  0  0  0  0  0  0
   -3.8674    2.3915   -1.8930 C   0  0  0  0  0  0  0  0  0  0  0  0
   -3.9479    2.7413   -2.8223 H   0  0  0  0  0  0  0  0  0  0  0  0
   -4.2434    3.1591   -1.2166 H   0  0  0  0  0  0  0  0  0  0  0  0
   -2.4165    2.0903   -1.6448 C   0  0  0  0  0  0  0  0  0  0  0  0
   -1.9101    2.9460   -1.5133 H   0  0  0  0  0  0  0  0  0  0  0  0
   -2.3226    1.5226   -0.8228 H   0  0  0  0  0  0  0  0  0  0  0  0
   -2.0329    1.5980   -2.4296 H   0  0  0  0  0  0  0  0  0  0  0  0
  1  5  1  0
  5  6  1  0
  5  7  2  0
  1  2  1  0
  1  3  1  0
  1  4  1  0
  8 12  1  0
 12 15  1  0
  8  9  1  0
  8 10  1  0
  8 11  1  0
 12 13  1  0
 12 14  1  0
 15 16  1  0
 15 17  1  0
 15 18  1  0
M  CHG  1   6  -1
M  END
>  <PDB_ID>  (350) 
pdb2gsf

>  <RESIDUE_NAME>  (350) 
ASP   VAL

>  <FRAG_NAME>  (350) 
ACET   PRPA

>  <FRAG_ATOM_NUM>  (350) 
fragi: 7  fragj: 11

>  <atom.prop.CHAIN_ID>  (350) 
A A A A A A A Z Z Z Z Z Z Z Z Z Z Z

>  <atom.prop.IS_HEAVY_ATOM>  (350) 
1 0 0 0 1 1 1 1 0 0 0 1 0 0 1 0 0 0

>  <DIFUSE_FUNC_ATOM>  (350) 
atom 6   atom 7   

>  <FINAL_SINGLE_POINT_ENERGY>  (350) 
0

>  <NONCOV_INTER_ENERGY_QM>  (350) 
0

>  <FF_Energy>  (350) 
36.04

>  <QM_Energy>  (350) 
5.59

>  <source>  (350) 
ACET_PRPA_03

>  <Index>  (350) 
15182

$$$$
ACET-pdb2gsf-A-ASP-598:PRPA-pdb2gsf-A-VAL-770
     RDKit          3D

 18 16  0  0  0  0  0  0  0  0999 V2000
   -0.0054    1.5138    0.0049 C   0  0  0  0  0  0  0  0  0  0  0  0
   -0.7710    1.8323   -0.5399 H   0  0  0  0  0  0  0  0  0  0  0  0
    0.8525    1.8380   -0.3736 H   0  0  0  0  0  0  0  0  0  0  0  0
   -0.1103    1.9241    1.0092 H   0  0  0  0  0  0  0  0  0  0  0  0
    0.0000    0.0000    0.0000 C   0  0  0  0  0  0  0  0  0  0  0  0
   -1.0988   -0.5970    0.0000 O   0  0  0  0  0  1  0  0  0  0  0  0
    1.0988   -0.5890   -0.0000 O   0  0  0  0  0  0  0  0  0  0  0  0
   -4.3877    3.4539   -0.9569 C   0  0  0  0  0  0  0  0  0  0  0  0
   -5.1456    3.0874   -0.4128 H   0  0  0  0  0  0  0  0  0  0  0  0
   -3.6560    3.7521   -0.3399 H   0  0  0  0  0  0  0  0  0  0  0  0
   -4.7136    4.2413   -1.4833 H   0  0  0  0  0  0  0  0  0  0  0  0
   -3.8674    2.3915   -1.8930 C   0  0  0  0  0  0  0  0  0  0  0  0
   -3.9479    2.7413   -2.8223 H   0  0  0  0  0  0  0  0  0  0  0  0
   -4.4758    1.4887   -1.8398 H   0  0  0  0  0  0  0  0  0  0  0  0
   -2.4165    2.0903   -1.6448 C   0  0  0  0  0  0  0  0  0  0  0  0
   -1.9101    2.9460   -1.5133 H   0  0  0  0  0  0  0  0  0  0  0  0
   -2.3226    1.5226   -0.8228 H   0  0  0  0  0  0  0  0  0  0  0  0
   -2.0329    1.5980   -2.4296 H   0  0  0  0  0  0  0  0  0  0  0  0
  1  5  1  0
  5  6  1  0
  5  7  2  0
  1  2  1  0
  1  3  1  0
  1  4  1  0
  8 12  1  0
 12 15  1  0
  8  9  1  0
  8 10  1  0
  8 11  1  0
 12 13  1  0
 12 14  1  0
 15 16  1  0
 15 17  1  0
 15 18  1  0
M  CHG  1   6  -1
M  END
>  <PDB_ID>  (351) 
pdb2gsf

>  <RESIDUE_NAME>  (351) 
ASP   VAL

>  <FRAG_NAME>  (351) 
ACET   PRPA

>  <FRAG_ATOM_NUM>  (351) 
fragi: 7  fragj: 11

>  <atom.prop.CHAIN_ID>  (351) 
A A A A A A A Z Z Z Z Z Z Z Z Z Z Z

>  <atom.prop.IS_HEAVY_ATOM>  (351) 
1 0 0 0 1 1 1 1 0 0 0 1 0 0 1 0 0 0

>  <DIFUSE_FUNC_ATOM>  (351) 
atom 6   atom 7   

>  <FINAL_SINGLE_POINT_ENERGY>  (351) 
0

>  <NONCOV_INTER_ENERGY_QM>  (351) 
0

>  <FF_Energy>  (351) 
35.99

>  <QM_Energy>  (351) 
6.01

>  <source>  (351) 
ACET_PRPA_03

>  <Index>  (351) 
15192

$$$$
ACET-pdb1g1c-A-ASP-22:PRPA-pdb1g1c-A-ARG-67
     RDKit          3D

 18 16  0  0  0  0  0  0  0  0999 V2000
    0.0381    1.5076    0.0407 C   0  0  0  0  0  0  0  0  0  0  0  0
    0.8668    1.8226   -0.4147 H   0  0  0  0  0  0  0  0  0  0  0  0
    0.0377    1.8062    0.9915 H   0  0  0  0  0  0  0  0  0  0  0  0
   -0.8129    1.9733   -0.4562 H   0  0  0  0  0  0  0  0  0  0  0  0
    0.0000    0.0000    0.0000 C   0  0  0  0  0  0  0  0  0  0  0  0
   -1.0946   -0.5980    0.0000 O   0  0  0  0  0  1  0  0  0  0  0  0
    1.0946   -0.5889    0.0000 O   0  0  0  0  0  0  0  0  0  0  0  0
   -2.7339   -0.4541    2.1383 C   0  0  0  0  0  0  0  0  0  0  0  0
   -2.0245    0.0124    1.5547 H   0  0  0  0  0  0  0  0  0  0  0  0
   -2.9936    0.2110    2.9619 H   0  0  0  0  0  0  0  0  0  0  0  0
   -3.5570   -0.7611    1.4931 H   0  0  0  0  0  0  0  0  0  0  0  0
   -1.9953   -1.6651    2.7037 C   0  0  0  0  0  0  0  0  0  0  0  0
   -2.5381   -2.0578    3.4222 H   0  0  0  0  0  0  0  0  0  0  0  0
   -1.8278   -2.3012    1.9735 H   0  0  0  0  0  0  0  0  0  0  0  0
   -0.6437   -1.2615    3.2985 C   0  0  0  0  0  0  0  0  0  0  0  0
   -0.0406   -0.9552    2.5585 H   0  0  0  0  0  0  0  0  0  0  0  0
   -0.7837   -0.5034    3.9399 H   0  0  0  0  0  0  0  0  0  0  0  0
   -0.1514   -2.0754    3.8308 H   0  0  0  0  0  0  0  0  0  0  0  0
  1  5  1  0
  5  6  1  0
  5  7  2  0
  1  2  1  0
  1  3  1  0
  1  4  1  0
  8 12  1  0
 12 15  1  0
  8  9  1  0
  8 10  1  0
  8 11  1  0
 12 13  1  0
 12 14  1  0
 15 16  1  0
 15 17  1  0
 15 18  1  0
M  CHG  1   6  -1
M  END
>  <PDB_ID>  (352) 
pdb1g1c

>  <RESIDUE_NAME>  (352) 
ASP   ARG

>  <FRAG_NAME>  (352) 
ACET   PRPA

>  <FRAG_ATOM_NUM>  (352) 
fragi: 7  fragj: 11

>  <atom.prop.CHAIN_ID>  (352) 
A A A A A A A Z Z Z Z Z Z Z Z Z Z Z

>  <atom.prop.IS_HEAVY_ATOM>  (352) 
1 0 0 0 1 1 1 1 0 0 0 1 0 0 1 0 0 0

>  <DIFUSE_FUNC_ATOM>  (352) 
atom 6   atom 7   

>  <FINAL_SINGLE_POINT_ENERGY>  (352) 
0

>  <NONCOV_INTER_ENERGY_QM>  (352) 
0

>  <FF_Energy>  (352) 
16.48

>  <QM_Energy>  (352) 
-1.25

>  <source>  (352) 
ACET_PRPA_03

>  <Index>  (352) 
15348

$$$$
ACET-pdb1euz-D-GLU-325:PRPA-pdb1euz-D-GLU-303
     RDKit          3D

 18 16  0  0  0  0  0  0  0  0999 V2000
    0.1716    1.4837    0.0137 C   0  0  0  0  0  0  0  0  0  0  0  0
    0.6913    1.7398   -0.8040 H   0  0  0  0  0  0  0  0  0  0  0  0
    0.7035    1.7224    0.8291 H   0  0  0  0  0  0  0  0  0  0  0  0
   -0.7389    2.0826    0.0257 H   0  0  0  0  0  0  0  0  0  0  0  0
    0.0000    0.0000    0.0000 C   0  0  0  0  0  0  0  0  0  0  0  0
   -1.0894   -0.5598    0.0000 O   0  0  0  0  0  1  0  0  0  0  0  0
    1.0894   -0.6067   -0.0000 O   0  0  0  0  0  0  0  0  0  0  0  0
   -5.0397    0.1427    0.1492 C   0  0  0  0  0  0  0  0  0  0  0  0
   -4.9647    0.9927   -0.3858 H   0  0  0  0  0  0  0  0  0  0  0  0
   -4.9864    0.3771    1.2123 H   0  0  0  0  0  0  0  0  0  0  0  0
   -5.9729   -0.3616   -0.1014 H   0  0  0  0  0  0  0  0  0  0  0  0
   -3.8450   -0.7479   -0.2444 C   0  0  0  0  0  0  0  0  0  0  0  0
   -4.1885   -1.4274   -0.8959 H   0  0  0  0  0  0  0  0  0  0  0  0
   -3.1791   -0.1580   -0.7047 H   0  0  0  0  0  0  0  0  0  0  0  0
   -3.1118   -1.4966    0.8520 C   0  0  0  0  0  0  0  0  0  0  0  0
   -2.7660   -0.8193    1.5034 H   0  0  0  0  0  0  0  0  0  0  0  0
   -3.7749   -2.0887    1.3130 H   0  0  0  0  0  0  0  0  0  0  0  0
   -2.2723   -2.1182    0.5407 H   0  0  0  0  0  0  0  0  0  0  0  0
  1  5  1  0
  5  6  1  0
  5  7  2  0
  1  2  1  0
  1  3  1  0
  1  4  1  0
  8 12  1  0
 12 15  1  0
  8  9  1  0
  8 10  1  0
  8 11  1  0
 12 13  1  0
 12 14  1  0
 15 16  1  0
 15 17  1  0
 15 18  1  0
M  CHG  1   6  -1
M  END
>  <PDB_ID>  (353) 
pdb1euz

>  <RESIDUE_NAME>  (353) 
GLU   GLU

>  <FRAG_NAME>  (353) 
ACET   PRPA

>  <FRAG_ATOM_NUM>  (353) 
fragi: 7  fragj: 11

>  <atom.prop.CHAIN_ID>  (353) 
A A A A A A A Z Z Z Z Z Z Z Z Z Z Z

>  <atom.prop.IS_HEAVY_ATOM>  (353) 
1 0 0 0 1 1 1 1 0 0 0 1 0 0 1 0 0 0

>  <DIFUSE_FUNC_ATOM>  (353) 
atom 6   atom 7   

>  <FINAL_SINGLE_POINT_ENERGY>  (353) 
0

>  <NONCOV_INTER_ENERGY_QM>  (353) 
0

>  <FF_Energy>  (353) 
28.91

>  <QM_Energy>  (353) 
6.3

>  <source>  (353) 
ACET_PRPA_03

>  <Index>  (353) 
15694

$$$$
ACET-pdb2gty-B-GLU-56:PRPA-pdb2gty-B-ARG-80
     RDKit          3D

 18 16  0  0  0  0  0  0  0  0999 V2000
    0.0252    1.4808   -0.0518 C   0  0  0  0  0  0  0  0  0  0  0  0
    0.0999    1.7562   -1.0011 H   0  0  0  0  0  0  0  0  0  0  0  0
    0.8078    1.7951    0.4696 H   0  0  0  0  0  0  0  0  0  0  0  0
   -0.8671    1.9487    0.3641 H   0  0  0  0  0  0  0  0  0  0  0  0
    0.0000    0.0000    0.0000 C   0  0  0  0  0  0  0  0  0  0  0  0
   -1.0946   -0.5618    0.0000 O   0  0  0  0  0  1  0  0  0  0  0  0
    1.0946   -0.6104    0.0000 O   0  0  0  0  0  0  0  0  0  0  0  0
    3.0304   -3.2646   -0.9596 C   0  0  0  0  0  0  0  0  0  0  0  0
    2.6785   -2.3583   -1.1456 H   0  0  0  0  0  0  0  0  0  0  0  0
    2.6419   -3.9323   -1.5791 H   0  0  0  0  0  0  0  0  0  0  0  0
    4.1167   -3.2647   -1.0491 H   0  0  0  0  0  0  0  0  0  0  0  0
    2.5116   -3.6513    0.4862 C   0  0  0  0  0  0  0  0  0  0  0  0
    2.6728   -4.5957    0.6428 H   0  0  0  0  0  0  0  0  0  0  0  0
    2.9166   -3.0601    1.1407 H   0  0  0  0  0  0  0  0  0  0  0  0
    0.9311   -3.4193    0.5485 C   0  0  0  0  0  0  0  0  0  0  0  0
    0.6761   -3.5488    1.4887 H   0  0  0  0  0  0  0  0  0  0  0  0
    0.7827   -2.4961    0.2441 H   0  0  0  0  0  0  0  0  0  0  0  0
    0.4232   -4.1340   -0.0990 H   0  0  0  0  0  0  0  0  0  0  0  0
  1  5  1  0
  5  6  1  0
  5  7  2  0
  1  2  1  0
  1  3  1  0
  1  4  1  0
  8 12  1  0
 12 15  1  0
  8  9  1  0
  8 10  1  0
  8 11  1  0
 12 13  1  0
 12 14  1  0
 15 16  1  0
 15 17  1  0
 15 18  1  0
M  CHG  1   6  -1
M  END
>  <PDB_ID>  (354) 
pdb2gty

>  <RESIDUE_NAME>  (354) 
GLU   ARG

>  <FRAG_NAME>  (354) 
ACET   PRPA

>  <FRAG_ATOM_NUM>  (354) 
fragi: 7  fragj: 11

>  <atom.prop.CHAIN_ID>  (354) 
A A A A A A A Z Z Z Z Z Z Z Z Z Z Z

>  <atom.prop.IS_HEAVY_ATOM>  (354) 
1 0 0 0 1 1 1 1 0 0 0 1 0 0 1 0 0 0

>  <DIFUSE_FUNC_ATOM>  (354) 
atom 6   atom 7   

>  <FINAL_SINGLE_POINT_ENERGY>  (354) 
0

>  <NONCOV_INTER_ENERGY_QM>  (354) 
0

>  <FF_Energy>  (354) 
12.13

>  <QM_Energy>  (354) 
-2.97

>  <source>  (354) 
ACET_PRPA_03

>  <Index>  (354) 
15960

$$$$
ACET-pdb1fdy-D-ASP-130:PRPA-pdb1fdy-D-LYS-96
     RDKit          3D

 18 16  0  0  0  0  0  0  0  0999 V2000
    0.0308    1.4917   -0.0009 C   0  0  0  0  0  0  0  0  0  0  0  0
    0.2456    1.8153   -0.9204 H   0  0  0  0  0  0  0  0  0  0  0  0
    0.7295    1.8068    0.6384 H   0  0  0  0  0  0  0  0  0  0  0  0
   -0.9188    1.9369    0.2961 H   0  0  0  0  0  0  0  0  0  0  0  0
    0.0000    0.0000    0.0000 C   0  0  0  0  0  0  0  0  0  0  0  0
   -1.0901   -0.6152    0.0000 O   0  0  0  0  0  1  0  0  0  0  0  0
    1.0901   -0.5702   -0.0000 O   0  0  0  0  0  0  0  0  0  0  0  0
    3.6955    2.9301    2.1640 C   0  0  0  0  0  0  0  0  0  0  0  0
    4.5447    2.4674    2.4904 H   0  0  0  0  0  0  0  0  0  0  0  0
    3.1464    3.1426    2.9969 H   0  0  0  0  0  0  0  0  0  0  0  0
    3.9716    3.8657    1.6777 H   0  0  0  0  0  0  0  0  0  0  0  0
    2.9282    1.9828    1.3078 C   0  0  0  0  0  0  0  0  0  0  0  0
    2.0106    2.3182    1.1737 H   0  0  0  0  0  0  0  0  0  0  0  0
    3.3969    1.8480    0.4500 H   0  0  0  0  0  0  0  0  0  0  0  0
    2.8445    0.6388    2.0203 C   0  0  0  0  0  0  0  0  0  0  0  0
    2.3696   -0.0169    1.4225 H   0  0  0  0  0  0  0  0  0  0  0  0
    3.7776    0.3001    2.1874 H   0  0  0  0  0  0  0  0  0  0  0  0
    2.3149    0.6988    2.9711 H   0  0  0  0  0  0  0  0  0  0  0  0
  1  5  1  0
  5  6  1  0
  5  7  2  0
  1  2  1  0
  1  3  1  0
  1  4  1  0
  8 12  1  0
 12 15  1  0
  8  9  1  0
  8 10  1  0
  8 11  1  0
 12 13  1  0
 12 14  1  0
 15 16  1  0
 15 17  1  0
 15 18  1  0
M  CHG  1   6  -1
M  END
>  <PDB_ID>  (355) 
pdb1fdy

>  <RESIDUE_NAME>  (355) 
ASP   LYS

>  <FRAG_NAME>  (355) 
ACET   PRPA

>  <FRAG_ATOM_NUM>  (355) 
fragi: 7  fragj: 11

>  <atom.prop.CHAIN_ID>  (355) 
A A A A A A A Z Z Z Z Z Z Z Z Z Z Z

>  <atom.prop.IS_HEAVY_ATOM>  (355) 
1 0 0 0 1 1 1 1 0 0 0 1 0 0 1 0 0 0

>  <DIFUSE_FUNC_ATOM>  (355) 
atom 6   atom 7   

>  <FINAL_SINGLE_POINT_ENERGY>  (355) 
0

>  <NONCOV_INTER_ENERGY_QM>  (355) 
0

>  <FF_Energy>  (355) 
45.49

>  <QM_Energy>  (355) 
3.81

>  <source>  (355) 
ACET_PRPA_03

>  <Index>  (355) 
17523

$$$$
ACET-pdb2h1k-B-GLU-42:PRPA-pdb2h1k-B-VAL-32
     RDKit          3D

 18 16  0  0  0  0  0  0  0  0999 V2000
    0.1709    1.4838    0.0154 C   0  0  0  0  0  0  0  0  0  0  0  0
    0.6906    1.7413   -0.8016 H   0  0  0  0  0  0  0  0  0  0  0  0
    0.7019    1.7226    0.8304 H   0  0  0  0  0  0  0  0  0  0  0  0
   -0.7400    2.0824    0.0271 H   0  0  0  0  0  0  0  0  0  0  0  0
    0.0000    0.0000    0.0000 C   0  0  0  0  0  0  0  0  0  0  0  0
   -1.0896   -0.5600   -0.0000 O   0  0  0  0  0  1  0  0  0  0  0  0
    1.0896   -0.6066    0.0000 O   0  0  0  0  0  0  0  0  0  0  0  0
    2.7643    1.6114   -3.1747 C   0  0  0  0  0  0  0  0  0  0  0  0
    2.3264    2.0391   -2.3749 H   0  0  0  0  0  0  0  0  0  0  0  0
    2.1654    1.8429   -4.0555 H   0  0  0  0  0  0  0  0  0  0  0  0
    3.7691    2.0234   -3.2675 H   0  0  0  0  0  0  0  0  0  0  0  0
    2.8147    0.0574   -2.9707 C   0  0  0  0  0  0  0  0  0  0  0  0
    3.1738   -0.3315   -3.8120 H   0  0  0  0  0  0  0  0  0  0  0  0
    3.5020   -0.2008   -2.1652 H   0  0  0  0  0  0  0  0  0  0  0  0
    1.4301   -0.4668   -2.6499 C   0  0  0  0  0  0  0  0  0  0  0  0
    0.7671   -0.0699   -3.2869 H   0  0  0  0  0  0  0  0  0  0  0  0
    1.4220   -1.4635   -2.7388 H   0  0  0  0  0  0  0  0  0  0  0  0
    1.1857   -0.2132   -1.7130 H   0  0  0  0  0  0  0  0  0  0  0  0
  1  5  1  0
  5  6  1  0
  5  7  2  0
  1  2  1  0
  1  3  1  0
  1  4  1  0
  8 12  1  0
 12 15  1  0
  8  9  1  0
  8 10  1  0
  8 11  1  0
 12 13  1  0
 12 14  1  0
 15 16  1  0
 15 17  1  0
 15 18  1  0
M  CHG  1   6  -1
M  END
>  <PDB_ID>  (356) 
pdb2h1k

>  <RESIDUE_NAME>  (356) 
GLU   VAL

>  <FRAG_NAME>  (356) 
ACET   PRPA

>  <FRAG_ATOM_NUM>  (356) 
fragi: 7  fragj: 11

>  <atom.prop.CHAIN_ID>  (356) 
A A A A A A A Z Z Z Z Z Z Z Z Z Z Z

>  <atom.prop.IS_HEAVY_ATOM>  (356) 
1 0 0 0 1 1 1 1 0 0 0 1 0 0 1 0 0 0

>  <DIFUSE_FUNC_ATOM>  (356) 
atom 6   atom 7   

>  <FINAL_SINGLE_POINT_ENERGY>  (356) 
0

>  <NONCOV_INTER_ENERGY_QM>  (356) 
0

>  <FF_Energy>  (356) 
49.09

>  <QM_Energy>  (356) 
4.77

>  <source>  (356) 
ACET_PRPA_03

>  <Index>  (356) 
18050

$$$$
ACET-pdb2h1k-B-GLU-42:PRPA-pdb2h1k-B-VAL-32
     RDKit          3D

 18 16  0  0  0  0  0  0  0  0999 V2000
    0.1709    1.4838    0.0154 C   0  0  0  0  0  0  0  0  0  0  0  0
    0.6906    1.7413   -0.8016 H   0  0  0  0  0  0  0  0  0  0  0  0
    0.7019    1.7226    0.8304 H   0  0  0  0  0  0  0  0  0  0  0  0
   -0.7400    2.0824    0.0271 H   0  0  0  0  0  0  0  0  0  0  0  0
    0.0000    0.0000    0.0000 C   0  0  0  0  0  0  0  0  0  0  0  0
   -1.0896   -0.5600   -0.0000 O   0  0  0  0  0  1  0  0  0  0  0  0
    1.0896   -0.6066    0.0000 O   0  0  0  0  0  0  0  0  0  0  0  0
    3.7666   -0.3001   -1.8551 C   0  0  0  0  0  0  0  0  0  0  0  0
    3.2518   -0.4863   -1.0155 H   0  0  0  0  0  0  0  0  0  0  0  0
    4.2933   -1.1155   -2.1048 H   0  0  0  0  0  0  0  0  0  0  0  0
    4.3983    0.4595   -1.6904 H   0  0  0  0  0  0  0  0  0  0  0  0
    2.8147    0.0574   -2.9707 C   0  0  0  0  0  0  0  0  0  0  0  0
    3.1738   -0.3315   -3.8120 H   0  0  0  0  0  0  0  0  0  0  0  0
    2.7797    1.1376   -3.1125 H   0  0  0  0  0  0  0  0  0  0  0  0
    1.4301   -0.4668   -2.6499 C   0  0  0  0  0  0  0  0  0  0  0  0
    0.7671   -0.0699   -3.2869 H   0  0  0  0  0  0  0  0  0  0  0  0
    1.4220   -1.4635   -2.7388 H   0  0  0  0  0  0  0  0  0  0  0  0
    1.1857   -0.2132   -1.7130 H   0  0  0  0  0  0  0  0  0  0  0  0
  1  5  1  0
  5  6  1  0
  5  7  2  0
  1  2  1  0
  1  3  1  0
  1  4  1  0
  8 12  1  0
 12 15  1  0
  8  9  1  0
  8 10  1  0
  8 11  1  0
 12 13  1  0
 12 14  1  0
 15 16  1  0
 15 17  1  0
 15 18  1  0
M  CHG  1   6  -1
M  END
>  <PDB_ID>  (357) 
pdb2h1k

>  <RESIDUE_NAME>  (357) 
GLU   VAL

>  <FRAG_NAME>  (357) 
ACET   PRPA

>  <FRAG_ATOM_NUM>  (357) 
fragi: 7  fragj: 11

>  <atom.prop.CHAIN_ID>  (357) 
A A A A A A A Z Z Z Z Z Z Z Z Z Z Z

>  <atom.prop.IS_HEAVY_ATOM>  (357) 
1 0 0 0 1 1 1 1 0 0 0 1 0 0 1 0 0 0

>  <DIFUSE_FUNC_ATOM>  (357) 
atom 6   atom 7   

>  <FINAL_SINGLE_POINT_ENERGY>  (357) 
0

>  <NONCOV_INTER_ENERGY_QM>  (357) 
0

>  <FF_Energy>  (357) 
49.58

>  <QM_Energy>  (357) 
4.3

>  <source>  (357) 
ACET_PRPA_03

>  <Index>  (357) 
18065

$$$$
ACET-pdb1fpz-E-GLU-191:PRPA-pdb1fpz-E-LYS-195
     RDKit          3D

 18 16  0  0  0  0  0  0  0  0999 V2000
   -0.0062    1.5192    0.0202 C   0  0  0  0  0  0  0  0  0  0  0  0
   -0.5534    1.8234   -0.7301 H   0  0  0  0  0  0  0  0  0  0  0  0
    0.9218    1.8192   -0.0301 H   0  0  0  0  0  0  0  0  0  0  0  0
   -0.4434    1.9028    0.9420 H   0  0  0  0  0  0  0  0  0  0  0  0
    0.0000    0.0000    0.0000 C   0  0  0  0  0  0  0  0  0  0  0  0
   -1.1017   -0.5911   -0.0000 O   0  0  0  0  0  1  0  0  0  0  0  0
    1.1017   -0.6064    0.0000 O   0  0  0  0  0  0  0  0  0  0  0  0
    4.8943    2.7135   -0.2942 C   0  0  0  0  0  0  0  0  0  0  0  0
    4.3075    3.4706   -0.5668 H   0  0  0  0  0  0  0  0  0  0  0  0
    5.6655    2.6373   -0.9211 H   0  0  0  0  0  0  0  0  0  0  0  0
    5.2854    2.9277    0.7004 H   0  0  0  0  0  0  0  0  0  0  0  0
    4.0800    1.4228   -0.3763 C   0  0  0  0  0  0  0  0  0  0  0  0
    4.6447    0.7077   -0.7899 H   0  0  0  0  0  0  0  0  0  0  0  0
    3.8145    1.1452    0.5465 H   0  0  0  0  0  0  0  0  0  0  0  0
    2.8136    1.5963   -1.2199 C   0  0  0  0  0  0  0  0  0  0  0  0
    2.0835    1.0337   -0.8129 H   0  0  0  0  0  0  0  0  0  0  0  0
    2.5323    2.5621   -1.1733 H   0  0  0  0  0  0  0  0  0  0  0  0
    2.9247    1.3166   -2.2675 H   0  0  0  0  0  0  0  0  0  0  0  0
  1  5  1  0
  5  6  1  0
  5  7  2  0
  1  2  1  0
  1  3  1  0
  1  4  1  0
  8 12  1  0
 12 15  1  0
  8  9  1  0
  8 10  1  0
  8 11  1  0
 12 13  1  0
 12 14  1  0
 15 16  1  0
 15 17  1  0
 15 18  1  0
M  CHG  1   6  -1
M  END
>  <PDB_ID>  (358) 
pdb1fpz

>  <RESIDUE_NAME>  (358) 
GLU   LYS

>  <FRAG_NAME>  (358) 
ACET   PRPA

>  <FRAG_ATOM_NUM>  (358) 
fragi: 7  fragj: 11

>  <atom.prop.CHAIN_ID>  (358) 
A A A A A A A Z Z Z Z Z Z Z Z Z Z Z

>  <atom.prop.IS_HEAVY_ATOM>  (358) 
1 0 0 0 1 1 1 1 0 0 0 1 0 0 1 0 0 0

>  <DIFUSE_FUNC_ATOM>  (358) 
atom 6   atom 7   

>  <FINAL_SINGLE_POINT_ENERGY>  (358) 
0

>  <NONCOV_INTER_ENERGY_QM>  (358) 
0

>  <FF_Energy>  (358) 
24.54

>  <QM_Energy>  (358) 
3.39

>  <source>  (358) 
ACET_PRPA_03

>  <Index>  (358) 
18343

$$$$
ACET-pdb1fpz-E-GLU-191:PRPA-pdb1fpz-E-LYS-195
     RDKit          3D

 18 16  0  0  0  0  0  0  0  0999 V2000
   -0.0062    1.5192    0.0202 C   0  0  0  0  0  0  0  0  0  0  0  0
   -0.5534    1.8234   -0.7301 H   0  0  0  0  0  0  0  0  0  0  0  0
    0.9218    1.8192   -0.0301 H   0  0  0  0  0  0  0  0  0  0  0  0
   -0.4434    1.9028    0.9420 H   0  0  0  0  0  0  0  0  0  0  0  0
    0.0000    0.0000    0.0000 C   0  0  0  0  0  0  0  0  0  0  0  0
   -1.1017   -0.5911   -0.0000 O   0  0  0  0  0  1  0  0  0  0  0  0
    1.1017   -0.6064    0.0000 O   0  0  0  0  0  0  0  0  0  0  0  0
    4.0800    1.4228   -0.3763 C   0  0  0  0  0  0  0  0  0  0  0  0
    4.6447    0.7077   -0.7899 H   0  0  0  0  0  0  0  0  0  0  0  0
    3.8145    1.1452    0.5465 H   0  0  0  0  0  0  0  0  0  0  0  0
    4.6608    2.3433   -0.3178 H   0  0  0  0  0  0  0  0  0  0  0  0
    2.8136    1.5963   -1.2199 C   0  0  0  0  0  0  0  0  0  0  0  0
    2.0835    1.0337   -0.8129 H   0  0  0  0  0  0  0  0  0  0  0  0
    2.5323    2.5621   -1.1733 H   0  0  0  0  0  0  0  0  0  0  0  0
    2.9682    1.2072   -2.6771 C   0  0  0  0  0  0  0  0  0  0  0  0
    2.1675    1.5457   -3.1919 H   0  0  0  0  0  0  0  0  0  0  0  0
    3.7896    1.6612   -3.0512 H   0  0  0  0  0  0  0  0  0  0  0  0
    3.0584    0.1315   -2.8281 H   0  0  0  0  0  0  0  0  0  0  0  0
  1  5  1  0
  5  6  1  0
  5  7  2  0
  1  2  1  0
  1  3  1  0
  1  4  1  0
  8 12  1  0
 12 15  1  0
  8  9  1  0
  8 10  1  0
  8 11  1  0
 12 13  1  0
 12 14  1  0
 15 16  1  0
 15 17  1  0
 15 18  1  0
M  CHG  1   6  -1
M  END
>  <PDB_ID>  (359) 
pdb1fpz

>  <RESIDUE_NAME>  (359) 
GLU   LYS

>  <FRAG_NAME>  (359) 
ACET   PRPA

>  <FRAG_ATOM_NUM>  (359) 
fragi: 7  fragj: 11

>  <atom.prop.CHAIN_ID>  (359) 
A A A A A A A Z Z Z Z Z Z Z Z Z Z Z

>  <atom.prop.IS_HEAVY_ATOM>  (359) 
1 0 0 0 1 1 1 1 0 0 0 1 0 0 1 0 0 0

>  <DIFUSE_FUNC_ATOM>  (359) 
atom 6   atom 7   

>  <FINAL_SINGLE_POINT_ENERGY>  (359) 
0

>  <NONCOV_INTER_ENERGY_QM>  (359) 
0

>  <FF_Energy>  (359) 
26.78

>  <QM_Energy>  (359) 
2.58

>  <source>  (359) 
ACET_PRPA_03

>  <Index>  (359) 
18354

$$$$
ACET-pdb2g5f-D-GLU-159:PRPA-pdb2g5f-D-ILE-155
     RDKit          3D

 18 16  0  0  0  0  0  0  0  0999 V2000
    0.1707    1.4835    0.0132 C   0  0  0  0  0  0  0  0  0  0  0  0
    0.6901    1.7408   -0.8039 H   0  0  0  0  0  0  0  0  0  0  0  0
    0.7018    1.7238    0.8289 H   0  0  0  0  0  0  0  0  0  0  0  0
   -0.7393    2.0834    0.0251 H   0  0  0  0  0  0  0  0  0  0  0  0
    0.0000    0.0000    0.0000 C   0  0  0  0  0  0  0  0  0  0  0  0
   -1.0897   -0.5593    0.0000 O   0  0  0  0  0  1  0  0  0  0  0  0
    1.0897   -0.6067    0.0000 O   0  0  0  0  0  0  0  0  0  0  0  0
    2.7479    1.1855    3.7053 C   0  0  0  0  0  0  0  0  0  0  0  0
    3.2029    2.0260    3.3740 H   0  0  0  0  0  0  0  0  0  0  0  0
    2.9664    1.1173    4.7710 H   0  0  0  0  0  0  0  0  0  0  0  0
    1.6850    1.3092    3.4972 H   0  0  0  0  0  0  0  0  0  0  0  0
    3.2808   -0.0584    2.9804 C   0  0  0  0  0  0  0  0  0  0  0  0
    2.8179   -0.8585    3.3689 H   0  0  0  0  0  0  0  0  0  0  0  0
    4.3549   -0.1797    3.1210 H   0  0  0  0  0  0  0  0  0  0  0  0
    2.9289    0.0059    1.5060 C   0  0  0  0  0  0  0  0  0  0  0  0
    3.2156   -0.8395    1.0549 H   0  0  0  0  0  0  0  0  0  0  0  0
    1.9410    0.1164    1.4009 H   0  0  0  0  0  0  0  0  0  0  0  0
    3.3946    0.7811    1.0824 H   0  0  0  0  0  0  0  0  0  0  0  0
  1  5  1  0
  5  6  1  0
  5  7  2  0
  1  2  1  0
  1  3  1  0
  1  4  1  0
  8 12  1  0
 12 15  1  0
  8  9  1  0
  8 10  1  0
  8 11  1  0
 12 13  1  0
 12 14  1  0
 15 16  1  0
 15 17  1  0
 15 18  1  0
M  CHG  1   6  -1
M  END
>  <PDB_ID>  (360) 
pdb2g5f

>  <RESIDUE_NAME>  (360) 
GLU   ILE

>  <FRAG_NAME>  (360) 
ACET   PRPA

>  <FRAG_ATOM_NUM>  (360) 
fragi: 7  fragj: 11

>  <atom.prop.CHAIN_ID>  (360) 
A A A A A A A Z Z Z Z Z Z Z Z Z Z Z

>  <atom.prop.IS_HEAVY_ATOM>  (360) 
1 0 0 0 1 1 1 1 0 0 0 1 0 0 1 0 0 0

>  <DIFUSE_FUNC_ATOM>  (360) 
atom 6   atom 7   

>  <FINAL_SINGLE_POINT_ENERGY>  (360) 
0

>  <NONCOV_INTER_ENERGY_QM>  (360) 
0

>  <FF_Energy>  (360) 
42.73

>  <QM_Energy>  (360) 
9.03

>  <source>  (360) 
ACET_PRPA_03

>  <Index>  (360) 
18699

$$$$
ACET-pdb2g5f-D-GLU-159:PRPA-pdb2g5f-D-ILE-155
     RDKit          3D

 18 16  0  0  0  0  0  0  0  0999 V2000
    0.1707    1.4835    0.0132 C   0  0  0  0  0  0  0  0  0  0  0  0
    0.6901    1.7408   -0.8039 H   0  0  0  0  0  0  0  0  0  0  0  0
    0.7018    1.7238    0.8289 H   0  0  0  0  0  0  0  0  0  0  0  0
   -0.7393    2.0834    0.0251 H   0  0  0  0  0  0  0  0  0  0  0  0
    0.0000    0.0000    0.0000 C   0  0  0  0  0  0  0  0  0  0  0  0
   -1.0897   -0.5593    0.0000 O   0  0  0  0  0  1  0  0  0  0  0  0
    1.0897   -0.6067    0.0000 O   0  0  0  0  0  0  0  0  0  0  0  0
    4.7679   -0.2264    3.1751 C   0  0  0  0  0  0  0  0  0  0  0  0
    5.2467    0.4180    2.5758 H   0  0  0  0  0  0  0  0  0  0  0  0
    4.9938    0.0040    4.1240 H   0  0  0  0  0  0  0  0  0  0  0  0
    5.1269   -1.2343    2.9672 H   0  0  0  0  0  0  0  0  0  0  0  0
    3.2808   -0.0584    2.9804 C   0  0  0  0  0  0  0  0  0  0  0  0
    2.8179   -0.8585    3.3689 H   0  0  0  0  0  0  0  0  0  0  0  0
    2.9024    0.8248    3.4951 H   0  0  0  0  0  0  0  0  0  0  0  0
    2.9289    0.0059    1.5060 C   0  0  0  0  0  0  0  0  0  0  0  0
    3.2156   -0.8395    1.0549 H   0  0  0  0  0  0  0  0  0  0  0  0
    1.9410    0.1164    1.4009 H   0  0  0  0  0  0  0  0  0  0  0  0
    3.3946    0.7811    1.0824 H   0  0  0  0  0  0  0  0  0  0  0  0
  1  5  1  0
  5  6  1  0
  5  7  2  0
  1  2  1  0
  1  3  1  0
  1  4  1  0
  8 12  1  0
 12 15  1  0
  8  9  1  0
  8 10  1  0
  8 11  1  0
 12 13  1  0
 12 14  1  0
 15 16  1  0
 15 17  1  0
 15 18  1  0
M  CHG  1   6  -1
M  END
>  <PDB_ID>  (361) 
pdb2g5f

>  <RESIDUE_NAME>  (361) 
GLU   ILE

>  <FRAG_NAME>  (361) 
ACET   PRPA

>  <FRAG_ATOM_NUM>  (361) 
fragi: 7  fragj: 11

>  <atom.prop.CHAIN_ID>  (361) 
A A A A A A A Z Z Z Z Z Z Z Z Z Z Z

>  <atom.prop.IS_HEAVY_ATOM>  (361) 
1 0 0 0 1 1 1 1 0 0 0 1 0 0 1 0 0 0

>  <DIFUSE_FUNC_ATOM>  (361) 
atom 6   atom 7   

>  <FINAL_SINGLE_POINT_ENERGY>  (361) 
0

>  <NONCOV_INTER_ENERGY_QM>  (361) 
0

>  <FF_Energy>  (361) 
42.77

>  <QM_Energy>  (361) 
9.91

>  <source>  (361) 
ACET_PRPA_03

>  <Index>  (361) 
18726

$$$$
ACET-pdb2h5f-B-ASP-41:PRPA-pdb2h5f-B-LYS-47
     RDKit          3D

 18 16  0  0  0  0  0  0  0  0999 V2000
   -0.0895    1.5344   -0.0416 C   0  0  0  0  0  0  0  0  0  0  0  0
   -0.5362    1.8355    0.7984 H   0  0  0  0  0  0  0  0  0  0  0  0
   -0.6472    1.7856   -0.8293 H   0  0  0  0  0  0  0  0  0  0  0  0
    0.8797    2.0266   -0.1225 H   0  0  0  0  0  0  0  0  0  0  0  0
    0.0000    0.0000    0.0000 C   0  0  0  0  0  0  0  0  0  0  0  0
   -1.1019   -0.6318    0.0000 O   0  0  0  0  0  1  0  0  0  0  0  0
    1.1019   -0.6222    0.0000 O   0  0  0  0  0  0  0  0  0  0  0  0
   -3.0543    2.0079   -3.6313 C   0  0  0  0  0  0  0  0  0  0  0  0
   -4.0466    2.1862   -3.5818 H   0  0  0  0  0  0  0  0  0  0  0  0
   -2.8862    1.0858   -3.2531 H   0  0  0  0  0  0  0  0  0  0  0  0
   -2.7892    1.9718   -4.6880 H   0  0  0  0  0  0  0  0  0  0  0  0
   -2.3347    3.0098   -2.8202 C   0  0  0  0  0  0  0  0  0  0  0  0
   -1.3440    2.8675   -2.8840 H   0  0  0  0  0  0  0  0  0  0  0  0
   -2.5521    3.9366   -3.1328 H   0  0  0  0  0  0  0  0  0  0  0  0
   -2.7255    2.9125   -1.3368 C   0  0  0  0  0  0  0  0  0  0  0  0
   -3.3803    2.1621   -1.2140 H   0  0  0  0  0  0  0  0  0  0  0  0
   -1.9071    2.7252   -0.7879 H   0  0  0  0  0  0  0  0  0  0  0  0
   -3.1885    3.8043   -0.9145 H   0  0  0  0  0  0  0  0  0  0  0  0
  1  5  1  0
  5  6  1  0
  5  7  2  0
  1  2  1  0
  1  3  1  0
  1  4  1  0
  8 12  1  0
 12 15  1  0
  8  9  1  0
  8 10  1  0
  8 11  1  0
 12 13  1  0
 12 14  1  0
 15 16  1  0
 15 17  1  0
 15 18  1  0
M  CHG  1   6  -1
M  END
>  <PDB_ID>  (362) 
pdb2h5f

>  <RESIDUE_NAME>  (362) 
ASP   LYS

>  <FRAG_NAME>  (362) 
ACET   PRPA

>  <FRAG_ATOM_NUM>  (362) 
fragi: 7  fragj: 11

>  <atom.prop.CHAIN_ID>  (362) 
A A A A A A A Z Z Z Z Z Z Z Z Z Z Z

>  <atom.prop.IS_HEAVY_ATOM>  (362) 
1 0 0 0 1 1 1 1 0 0 0 1 0 0 1 0 0 0

>  <DIFUSE_FUNC_ATOM>  (362) 
atom 6   atom 7   

>  <FINAL_SINGLE_POINT_ENERGY>  (362) 
0

>  <NONCOV_INTER_ENERGY_QM>  (362) 
0

>  <FF_Energy>  (362) 
18.43

>  <QM_Energy>  (362) 
2.75

>  <source>  (362) 
ACET_PRPA_03

>  <Index>  (362) 
19545

$$$$
ACET-pdb2h5f-B-ASP-41:PRPA-pdb2h5f-B-LYS-47
     RDKit          3D

 18 16  0  0  0  0  0  0  0  0999 V2000
   -0.0895    1.5344   -0.0416 C   0  0  0  0  0  0  0  0  0  0  0  0
   -0.5362    1.8355    0.7984 H   0  0  0  0  0  0  0  0  0  0  0  0
   -0.6472    1.7856   -0.8293 H   0  0  0  0  0  0  0  0  0  0  0  0
    0.8797    2.0266   -0.1225 H   0  0  0  0  0  0  0  0  0  0  0  0
    0.0000    0.0000    0.0000 C   0  0  0  0  0  0  0  0  0  0  0  0
   -1.1019   -0.6318    0.0000 O   0  0  0  0  0  1  0  0  0  0  0  0
    1.1019   -0.6222    0.0000 O   0  0  0  0  0  0  0  0  0  0  0  0
   -2.3347    3.0098   -2.8202 C   0  0  0  0  0  0  0  0  0  0  0  0
   -1.3440    2.8675   -2.8840 H   0  0  0  0  0  0  0  0  0  0  0  0
   -2.5521    3.9366   -3.1328 H   0  0  0  0  0  0  0  0  0  0  0  0
   -2.8660    2.2700   -3.4191 H   0  0  0  0  0  0  0  0  0  0  0  0
   -2.7255    2.9125   -1.3368 C   0  0  0  0  0  0  0  0  0  0  0  0
   -3.3803    2.1621   -1.2140 H   0  0  0  0  0  0  0  0  0  0  0  0
   -1.9071    2.7252   -0.7879 H   0  0  0  0  0  0  0  0  0  0  0  0
   -3.4021    4.2159   -0.7196 C   0  0  0  0  0  0  0  0  0  0  0  0
   -3.3794    4.0967    0.2924 H   0  0  0  0  0  0  0  0  0  0  0  0
   -2.7756    4.9912   -0.9328 H   0  0  0  0  0  0  0  0  0  0  0  0
   -4.4145    4.4408   -1.0551 H   0  0  0  0  0  0  0  0  0  0  0  0
  1  5  1  0
  5  6  1  0
  5  7  2  0
  1  2  1  0
  1  3  1  0
  1  4  1  0
  8 12  1  0
 12 15  1  0
  8  9  1  0
  8 10  1  0
  8 11  1  0
 12 13  1  0
 12 14  1  0
 15 16  1  0
 15 17  1  0
 15 18  1  0
M  CHG  1   6  -1
M  END
>  <PDB_ID>  (363) 
pdb2h5f

>  <RESIDUE_NAME>  (363) 
ASP   LYS

>  <FRAG_NAME>  (363) 
ACET   PRPA

>  <FRAG_ATOM_NUM>  (363) 
fragi: 7  fragj: 11

>  <atom.prop.CHAIN_ID>  (363) 
A A A A A A A Z Z Z Z Z Z Z Z Z Z Z

>  <atom.prop.IS_HEAVY_ATOM>  (363) 
1 0 0 0 1 1 1 1 0 0 0 1 0 0 1 0 0 0

>  <DIFUSE_FUNC_ATOM>  (363) 
atom 6   atom 7   

>  <FINAL_SINGLE_POINT_ENERGY>  (363) 
0

>  <NONCOV_INTER_ENERGY_QM>  (363) 
0

>  <FF_Energy>  (363) 
20.8

>  <QM_Energy>  (363) 
2.86

>  <source>  (363) 
ACET_PRPA_03

>  <Index>  (363) 
19551

$$$$
ACET-pdb1g3j-A-ASP-162:PRPA-pdb1g3j-A-VAL-167
     RDKit          3D

 18 16  0  0  0  0  0  0  0  0999 V2000
    0.0269    1.5184   -0.0215 C   0  0  0  0  0  0  0  0  0  0  0  0
    0.5259    1.8135   -0.8395 H   0  0  0  0  0  0  0  0  0  0  0  0
    0.5157    1.8367    0.7927 H   0  0  0  0  0  0  0  0  0  0  0  0
   -0.9569    1.9875   -0.0347 H   0  0  0  0  0  0  0  0  0  0  0  0
    0.0000    0.0000    0.0000 C   0  0  0  0  0  0  0  0  0  0  0  0
   -1.0954   -0.6010    0.0000 O   0  0  0  0  0  1  0  0  0  0  0  0
    1.0954   -0.5785    0.0000 O   0  0  0  0  0  0  0  0  0  0  0  0
    5.0224    1.4922   -1.8925 C   0  0  0  0  0  0  0  0  0  0  0  0
    5.7977    0.8716   -1.9428 H   0  0  0  0  0  0  0  0  0  0  0  0
    5.4020    2.5122   -1.8321 H   0  0  0  0  0  0  0  0  0  0  0  0
    4.4578    1.4025   -2.8206 H   0  0  0  0  0  0  0  0  0  0  0  0
    4.1117    1.1436   -0.6869 C   0  0  0  0  0  0  0  0  0  0  0  0
    3.3800    1.8147   -0.6618 H   0  0  0  0  0  0  0  0  0  0  0  0
    4.6917    1.1433    0.2360 H   0  0  0  0  0  0  0  0  0  0  0  0
    3.4637   -0.2198   -0.8879 C   0  0  0  0  0  0  0  0  0  0  0  0
    3.8563   -0.6600   -1.6956 H   0  0  0  0  0  0  0  0  0  0  0  0
    3.6310   -0.7901   -0.0842 H   0  0  0  0  0  0  0  0  0  0  0  0
    2.4787   -0.1051   -1.0166 H   0  0  0  0  0  0  0  0  0  0  0  0
  1  5  1  0
  5  6  1  0
  5  7  2  0
  1  2  1  0
  1  3  1  0
  1  4  1  0
  8 12  1  0
 12 15  1  0
  8  9  1  0
  8 10  1  0
  8 11  1  0
 12 13  1  0
 12 14  1  0
 15 16  1  0
 15 17  1  0
 15 18  1  0
M  CHG  1   6  -1
M  END
>  <PDB_ID>  (364) 
pdb1g3j

>  <RESIDUE_NAME>  (364) 
ASP   VAL

>  <FRAG_NAME>  (364) 
ACET   PRPA

>  <FRAG_ATOM_NUM>  (364) 
fragi: 7  fragj: 11

>  <atom.prop.CHAIN_ID>  (364) 
A A A A A A A Z Z Z Z Z Z Z Z Z Z Z

>  <atom.prop.IS_HEAVY_ATOM>  (364) 
1 0 0 0 1 1 1 1 0 0 0 1 0 0 1 0 0 0

>  <DIFUSE_FUNC_ATOM>  (364) 
atom 6   atom 7   

>  <FINAL_SINGLE_POINT_ENERGY>  (364) 
0

>  <NONCOV_INTER_ENERGY_QM>  (364) 
0

>  <FF_Energy>  (364) 
36.31

>  <QM_Energy>  (364) 
5.39

>  <source>  (364) 
ACET_PRPA_03

>  <Index>  (364) 
20220

$$$$
ACET-pdb1g3j-A-ASP-162:PRPA-pdb1g3j-A-VAL-167
     RDKit          3D

 18 16  0  0  0  0  0  0  0  0999 V2000
    0.0269    1.5184   -0.0215 C   0  0  0  0  0  0  0  0  0  0  0  0
    0.5259    1.8135   -0.8395 H   0  0  0  0  0  0  0  0  0  0  0  0
    0.5157    1.8367    0.7927 H   0  0  0  0  0  0  0  0  0  0  0  0
   -0.9569    1.9875   -0.0347 H   0  0  0  0  0  0  0  0  0  0  0  0
    0.0000    0.0000    0.0000 C   0  0  0  0  0  0  0  0  0  0  0  0
   -1.0954   -0.6010    0.0000 O   0  0  0  0  0  1  0  0  0  0  0  0
    1.0954   -0.5785    0.0000 O   0  0  0  0  0  0  0  0  0  0  0  0
    3.4637   -0.2198   -0.8879 C   0  0  0  0  0  0  0  0  0  0  0  0
    3.8563   -0.6600   -1.6956 H   0  0  0  0  0  0  0  0  0  0  0  0
    3.6310   -0.7901   -0.0842 H   0  0  0  0  0  0  0  0  0  0  0  0
    2.4787   -0.1051   -1.0166 H   0  0  0  0  0  0  0  0  0  0  0  0
    4.1117    1.1436   -0.6869 C   0  0  0  0  0  0  0  0  0  0  0  0
    3.3800    1.8147   -0.6618 H   0  0  0  0  0  0  0  0  0  0  0  0
    4.7518    1.3886   -1.5343 H   0  0  0  0  0  0  0  0  0  0  0  0
    4.9243    1.1432    0.6059 C   0  0  0  0  0  0  0  0  0  0  0  0
    4.7412    1.9871    1.1078 H   0  0  0  0  0  0  0  0  0  0  0  0
    4.6584    0.3548    1.1592 H   0  0  0  0  0  0  0  0  0  0  0  0
    5.8960    1.0871    0.3814 H   0  0  0  0  0  0  0  0  0  0  0  0
  1  5  1  0
  5  6  1  0
  5  7  2  0
  1  2  1  0
  1  3  1  0
  1  4  1  0
  8 12  1  0
 12 15  1  0
  8  9  1  0
  8 10  1  0
  8 11  1  0
 12 13  1  0
 12 14  1  0
 15 16  1  0
 15 17  1  0
 15 18  1  0
M  CHG  1   6  -1
M  END
>  <PDB_ID>  (365) 
pdb1g3j

>  <RESIDUE_NAME>  (365) 
ASP   VAL

>  <FRAG_NAME>  (365) 
ACET   PRPA

>  <FRAG_ATOM_NUM>  (365) 
fragi: 7  fragj: 11

>  <atom.prop.CHAIN_ID>  (365) 
A A A A A A A Z Z Z Z Z Z Z Z Z Z Z

>  <atom.prop.IS_HEAVY_ATOM>  (365) 
1 0 0 0 1 1 1 1 0 0 0 1 0 0 1 0 0 0

>  <DIFUSE_FUNC_ATOM>  (365) 
atom 6   atom 7   

>  <FINAL_SINGLE_POINT_ENERGY>  (365) 
0

>  <NONCOV_INTER_ENERGY_QM>  (365) 
0

>  <FF_Energy>  (365) 
36.46

>  <QM_Energy>  (365) 
5.4

>  <source>  (365) 
ACET_PRPA_03

>  <Index>  (365) 
20234

$$$$
ACET-pdb2h5o-A-GLU-32:PRPA-pdb2h5o-A-LYS-15
     RDKit          3D

 18 16  0  0  0  0  0  0  0  0999 V2000
   -0.0285    1.5164   -0.0298 C   0  0  0  0  0  0  0  0  0  0  0  0
   -0.9516    1.7931    0.2160 H   0  0  0  0  0  0  0  0  0  0  0  0
    0.1777    1.7905   -0.9629 H   0  0  0  0  0  0  0  0  0  0  0  0
    0.6775    1.9987    0.6462 H   0  0  0  0  0  0  0  0  0  0  0  0
    0.0000    0.0000    0.0000 C   0  0  0  0  0  0  0  0  0  0  0  0
   -1.1085   -0.5509    0.0000 O   0  0  0  0  0  1  0  0  0  0  0  0
    1.1085   -0.5737   -0.0000 O   0  0  0  0  0  0  0  0  0  0  0  0
   -3.0710    2.0987    3.9364 C   0  0  0  0  0  0  0  0  0  0  0  0
   -2.5997    1.8325    4.7925 H   0  0  0  0  0  0  0  0  0  0  0  0
   -3.9447    1.5902    3.8975 H   0  0  0  0  0  0  0  0  0  0  0  0
   -3.2894    3.1658    3.9762 H   0  0  0  0  0  0  0  0  0  0  0  0
   -2.2134    1.6865    2.7597 C   0  0  0  0  0  0  0  0  0  0  0  0
   -2.5474    2.1715    1.9338 H   0  0  0  0  0  0  0  0  0  0  0  0
   -1.2634    1.9988    2.9288 H   0  0  0  0  0  0  0  0  0  0  0  0
   -2.1823    0.2083    2.4639 C   0  0  0  0  0  0  0  0  0  0  0  0
   -3.1514   -0.1403    2.4672 H   0  0  0  0  0  0  0  0  0  0  0  0
   -1.8593    0.0808    1.4945 H   0  0  0  0  0  0  0  0  0  0  0  0
   -1.5782   -0.4140    3.1241 H   0  0  0  0  0  0  0  0  0  0  0  0
  1  5  1  0
  5  6  1  0
  5  7  2  0
  1  2  1  0
  1  3  1  0
  1  4  1  0
  8 12  1  0
 12 15  1  0
  8  9  1  0
  8 10  1  0
  8 11  1  0
 12 13  1  0
 12 14  1  0
 15 16  1  0
 15 17  1  0
 15 18  1  0
M  CHG  1   6  -1
M  END
>  <PDB_ID>  (366) 
pdb2h5o

>  <RESIDUE_NAME>  (366) 
GLU   LYS

>  <FRAG_NAME>  (366) 
ACET   PRPA

>  <FRAG_ATOM_NUM>  (366) 
fragi: 7  fragj: 11

>  <atom.prop.CHAIN_ID>  (366) 
A A A A A A A Z Z Z Z Z Z Z Z Z Z Z

>  <atom.prop.IS_HEAVY_ATOM>  (366) 
1 0 0 0 1 1 1 1 0 0 0 1 0 0 1 0 0 0

>  <DIFUSE_FUNC_ATOM>  (366) 
atom 6   atom 7   

>  <FINAL_SINGLE_POINT_ENERGY>  (366) 
0

>  <NONCOV_INTER_ENERGY_QM>  (366) 
0

>  <FF_Energy>  (366) 
31.05

>  <QM_Energy>  (366) 
1.14

>  <source>  (366) 
ACET_PRPA_03

>  <Index>  (366) 
20371

$$$$
ACET-pdb1g9f-A-GLU-202:PRPA-pdb1g9f-A-LYS-62
     RDKit          3D

 18 16  0  0  0  0  0  0  0  0999 V2000
   -0.0126    1.5145    0.0134 C   0  0  0  0  0  0  0  0  0  0  0  0
   -0.0243    1.8028    0.9535 H   0  0  0  0  0  0  0  0  0  0  0  0
   -0.8138    1.8087   -0.4762 H   0  0  0  0  0  0  0  0  0  0  0  0
    0.8648    1.9463   -0.4680 H   0  0  0  0  0  0  0  0  0  0  0  0
    0.0000    0.0000    0.0000 C   0  0  0  0  0  0  0  0  0  0  0  0
   -1.1001   -0.5866   -0.0000 O   0  0  0  0  0  1  0  0  0  0  0  0
    1.1001   -0.6046    0.0000 O   0  0  0  0  0  0  0  0  0  0  0  0
   -0.4466   -1.4439    4.2820 C   0  0  0  0  0  0  0  0  0  0  0  0
   -0.8176   -0.6841    4.8390 H   0  0  0  0  0  0  0  0  0  0  0  0
    0.4849   -1.1178    3.8194 H   0  0  0  0  0  0  0  0  0  0  0  0
   -0.3122   -2.3107    4.9292 H   0  0  0  0  0  0  0  0  0  0  0  0
   -1.4931   -1.7569    3.2043 C   0  0  0  0  0  0  0  0  0  0  0  0
   -1.1335   -2.4900    2.6273 H   0  0  0  0  0  0  0  0  0  0  0  0
   -2.3246   -2.0744    3.6629 H   0  0  0  0  0  0  0  0  0  0  0  0
   -1.8587   -0.5811    2.3104 C   0  0  0  0  0  0  0  0  0  0  0  0
   -2.2250    0.1583    2.8804 H   0  0  0  0  0  0  0  0  0  0  0  0
   -1.0345   -0.2586    1.8429 H   0  0  0  0  0  0  0  0  0  0  0  0
   -2.6049   -0.8569    1.5653 H   0  0  0  0  0  0  0  0  0  0  0  0
  1  5  1  0
  5  6  1  0
  5  7  2  0
  1  2  1  0
  1  3  1  0
  1  4  1  0
  8 12  1  0
 12 15  1  0
  8  9  1  0
  8 10  1  0
  8 11  1  0
 12 13  1  0
 12 14  1  0
 15 16  1  0
 15 17  1  0
 15 18  1  0
M  CHG  1   6  -1
M  END
>  <PDB_ID>  (367) 
pdb1g9f

>  <RESIDUE_NAME>  (367) 
GLU   LYS

>  <FRAG_NAME>  (367) 
ACET   PRPA

>  <FRAG_ATOM_NUM>  (367) 
fragi: 7  fragj: 11

>  <atom.prop.CHAIN_ID>  (367) 
A A A A A A A Z Z Z Z Z Z Z Z Z Z Z

>  <atom.prop.IS_HEAVY_ATOM>  (367) 
1 0 0 0 1 1 1 1 0 0 0 1 0 0 1 0 0 0

>  <DIFUSE_FUNC_ATOM>  (367) 
atom 6   atom 7   

>  <FINAL_SINGLE_POINT_ENERGY>  (367) 
0

>  <NONCOV_INTER_ENERGY_QM>  (367) 
0

>  <FF_Energy>  (367) 
41.29

>  <QM_Energy>  (367) 
11.15

>  <source>  (367) 
ACET_PRPA_03

>  <Index>  (367) 
20522

$$$$
ACET-pdb1g7r-A-GLU-148:PRPA-pdb1g7r-A-ARG-144
     RDKit          3D

 18 16  0  0  0  0  0  0  0  0999 V2000
   -0.0008    1.5183    0.0168 C   0  0  0  0  0  0  0  0  0  0  0  0
    0.8757    1.8160   -0.3050 H   0  0  0  0  0  0  0  0  0  0  0  0
   -0.1835    1.8013    0.9378 H   0  0  0  0  0  0  0  0  0  0  0  0
   -0.7700    1.9311   -0.6359 H   0  0  0  0  0  0  0  0  0  0  0  0
    0.0000    0.0000    0.0000 C   0  0  0  0  0  0  0  0  0  0  0  0
   -1.1001   -0.5899   -0.0000 O   0  0  0  0  0  1  0  0  0  0  0  0
    1.1001   -0.6034    0.0000 O   0  0  0  0  0  0  0  0  0  0  0  0
    1.5038   -0.1293   -3.9243 C   0  0  0  0  0  0  0  0  0  0  0  0
    1.9450    0.6756   -4.3164 H   0  0  0  0  0  0  0  0  0  0  0  0
    0.8559    0.1503   -3.2194 H   0  0  0  0  0  0  0  0  0  0  0  0
    0.9500   -0.6340   -4.7159 H   0  0  0  0  0  0  0  0  0  0  0  0
    2.5764   -0.9803   -3.2652 C   0  0  0  0  0  0  0  0  0  0  0  0
    3.0197   -1.5485   -3.9480 H   0  0  0  0  0  0  0  0  0  0  0  0
    3.2395   -0.3934   -2.8159 H   0  0  0  0  0  0  0  0  0  0  0  0
    1.9684   -1.9006   -2.2070 C   0  0  0  0  0  0  0  0  0  0  0  0
    2.7035   -2.2006   -1.6034 H   0  0  0  0  0  0  0  0  0  0  0  0
    1.2984   -1.3711   -1.6905 H   0  0  0  0  0  0  0  0  0  0  0  0
    1.4814   -2.7724   -2.6440 H   0  0  0  0  0  0  0  0  0  0  0  0
  1  5  1  0
  5  6  1  0
  5  7  2  0
  1  2  1  0
  1  3  1  0
  1  4  1  0
  8 12  1  0
 12 15  1  0
  8  9  1  0
  8 10  1  0
  8 11  1  0
 12 13  1  0
 12 14  1  0
 15 16  1  0
 15 17  1  0
 15 18  1  0
M  CHG  1   6  -1
M  END
>  <PDB_ID>  (368) 
pdb1g7r

>  <RESIDUE_NAME>  (368) 
GLU   ARG

>  <FRAG_NAME>  (368) 
ACET   PRPA

>  <FRAG_ATOM_NUM>  (368) 
fragi: 7  fragj: 11

>  <atom.prop.CHAIN_ID>  (368) 
A A A A A A A Z Z Z Z Z Z Z Z Z Z Z

>  <atom.prop.IS_HEAVY_ATOM>  (368) 
1 0 0 0 1 1 1 1 0 0 0 1 0 0 1 0 0 0

>  <DIFUSE_FUNC_ATOM>  (368) 
atom 6   atom 7   

>  <FINAL_SINGLE_POINT_ENERGY>  (368) 
0

>  <NONCOV_INTER_ENERGY_QM>  (368) 
0

>  <FF_Energy>  (368) 
19.39

>  <QM_Energy>  (368) 
1.03

>  <source>  (368) 
ACET_PRPA_03

>  <Index>  (368) 
21003

$$$$
ACET-pdb1gc5-A-GLU-235:PRPA-pdb1gc5-A-LYS-31
     RDKit          3D

 18 16  0  0  0  0  0  0  0  0999 V2000
    0.0091    1.5163    0.0016 C   0  0  0  0  0  0  0  0  0  0  0  0
    0.9472    1.8095    0.0032 H   0  0  0  0  0  0  0  0  0  0  0  0
   -0.4764    1.8165    0.8012 H   0  0  0  0  0  0  0  0  0  0  0  0
   -0.4789    1.9432   -0.8747 H   0  0  0  0  0  0  0  0  0  0  0  0
    0.0000    0.0000    0.0000 C   0  0  0  0  0  0  0  0  0  0  0  0
   -1.0945   -0.5963    0.0000 O   0  0  0  0  0  1  0  0  0  0  0  0
    1.0945   -0.5940    0.0000 O   0  0  0  0  0  0  0  0  0  0  0  0
   -2.5434    0.4923    2.9257 C   0  0  0  0  0  0  0  0  0  0  0  0
   -2.7141   -0.0833    3.7633 H   0  0  0  0  0  0  0  0  0  0  0  0
   -2.8017   -0.0989    2.0471 H   0  0  0  0  0  0  0  0  0  0  0  0
   -3.0721    1.4374    3.0497 H   0  0  0  0  0  0  0  0  0  0  0  0
   -1.0348    0.7464    2.9530 C   0  0  0  0  0  0  0  0  0  0  0  0
   -0.7597    1.0902    2.0586 H   0  0  0  0  0  0  0  0  0  0  0  0
   -0.8474    1.4326    3.6523 H   0  0  0  0  0  0  0  0  0  0  0  0
   -0.2069   -0.4930    3.2644 C   0  0  0  0  0  0  0  0  0  0  0  0
   -0.4218   -0.8095    4.1858 H   0  0  0  0  0  0  0  0  0  0  0  0
   -0.4214   -1.2081    2.6027 H   0  0  0  0  0  0  0  0  0  0  0  0
    0.8609   -0.2807    3.2116 H   0  0  0  0  0  0  0  0  0  0  0  0
  1  5  1  0
  5  6  1  0
  5  7  2  0
  1  2  1  0
  1  3  1  0
  1  4  1  0
  8 12  1  0
 12 15  1  0
  8  9  1  0
  8 10  1  0
  8 11  1  0
 12 13  1  0
 12 14  1  0
 15 16  1  0
 15 17  1  0
 15 18  1  0
M  CHG  1   6  -1
M  END
>  <PDB_ID>  (369) 
pdb1gc5

>  <RESIDUE_NAME>  (369) 
GLU   LYS

>  <FRAG_NAME>  (369) 
ACET   PRPA

>  <FRAG_ATOM_NUM>  (369) 
fragi: 7  fragj: 11

>  <atom.prop.CHAIN_ID>  (369) 
A A A A A A A Z Z Z Z Z Z Z Z Z Z Z

>  <atom.prop.IS_HEAVY_ATOM>  (369) 
1 0 0 0 1 1 1 1 0 0 0 1 0 0 1 0 0 0

>  <DIFUSE_FUNC_ATOM>  (369) 
atom 6   atom 7   

>  <FINAL_SINGLE_POINT_ENERGY>  (369) 
0

>  <NONCOV_INTER_ENERGY_QM>  (369) 
0

>  <FF_Energy>  (369) 
42.61

>  <QM_Energy>  (369) 
0.71

>  <source>  (369) 
ACET_PRPA_03

>  <Index>  (369) 
22373

$$$$
ACET-pdb1gc5-A-GLU-235:PRPA-pdb1gc5-A-LYS-31
     RDKit          3D

 18 16  0  0  0  0  0  0  0  0999 V2000
    0.0091    1.5163    0.0016 C   0  0  0  0  0  0  0  0  0  0  0  0
    0.9472    1.8095    0.0032 H   0  0  0  0  0  0  0  0  0  0  0  0
   -0.4764    1.8165    0.8012 H   0  0  0  0  0  0  0  0  0  0  0  0
   -0.4789    1.9432   -0.8747 H   0  0  0  0  0  0  0  0  0  0  0  0
    0.0000    0.0000    0.0000 C   0  0  0  0  0  0  0  0  0  0  0  0
   -1.0945   -0.5963    0.0000 O   0  0  0  0  0  1  0  0  0  0  0  0
    1.0945   -0.5940    0.0000 O   0  0  0  0  0  0  0  0  0  0  0  0
   -1.0348    0.7464    2.9530 C   0  0  0  0  0  0  0  0  0  0  0  0
   -0.7597    1.0902    2.0586 H   0  0  0  0  0  0  0  0  0  0  0  0
   -0.8474    1.4326    3.6523 H   0  0  0  0  0  0  0  0  0  0  0  0
   -2.1094    0.5654    2.9335 H   0  0  0  0  0  0  0  0  0  0  0  0
   -0.2069   -0.4930    3.2644 C   0  0  0  0  0  0  0  0  0  0  0  0
   -0.4218   -0.8095    4.1858 H   0  0  0  0  0  0  0  0  0  0  0  0
   -0.4214   -1.2081    2.6027 H   0  0  0  0  0  0  0  0  0  0  0  0
    1.2968   -0.1940    3.1900 C   0  0  0  0  0  0  0  0  0  0  0  0
    1.5809   -0.2185    2.2371 H   0  0  0  0  0  0  0  0  0  0  0  0
    1.4641    0.7060    3.5780 H   0  0  0  0  0  0  0  0  0  0  0  0
    1.8904   -0.9215    3.7437 H   0  0  0  0  0  0  0  0  0  0  0  0
  1  5  1  0
  5  6  1  0
  5  7  2  0
  1  2  1  0
  1  3  1  0
  1  4  1  0
  8 12  1  0
 12 15  1  0
  8  9  1  0
  8 10  1  0
  8 11  1  0
 12 13  1  0
 12 14  1  0
 15 16  1  0
 15 17  1  0
 15 18  1  0
M  CHG  1   6  -1
M  END
>  <PDB_ID>  (370) 
pdb1gc5

>  <RESIDUE_NAME>  (370) 
GLU   LYS

>  <FRAG_NAME>  (370) 
ACET   PRPA

>  <FRAG_ATOM_NUM>  (370) 
fragi: 7  fragj: 11

>  <atom.prop.CHAIN_ID>  (370) 
A A A A A A A Z Z Z Z Z Z Z Z Z Z Z

>  <atom.prop.IS_HEAVY_ATOM>  (370) 
1 0 0 0 1 1 1 1 0 0 0 1 0 0 1 0 0 0

>  <DIFUSE_FUNC_ATOM>  (370) 
atom 6   atom 7   

>  <FINAL_SINGLE_POINT_ENERGY>  (370) 
0

>  <NONCOV_INTER_ENERGY_QM>  (370) 
0

>  <FF_Energy>  (370) 
37.75

>  <QM_Energy>  (370) 
1.15

>  <source>  (370) 
ACET_PRPA_03

>  <Index>  (370) 
22380

$$$$
ACET-pdb1gik-A-ASP-29:PRPA-pdb1gik-A-PRO-41
     RDKit          3D

 18 16  0  0  0  0  0  0  0  0999 V2000
    0.0013    1.5548   -0.0270 C   0  0  0  0  0  0  0  0  0  0  0  0
   -0.9338    1.8637   -0.1312 H   0  0  0  0  0  0  0  0  0  0  0  0
    0.5608    1.8515   -0.7882 H   0  0  0  0  0  0  0  0  0  0  0  0
    0.4026    2.0088    0.8790 H   0  0  0  0  0  0  0  0  0  0  0  0
    0.0000    0.0000    0.0000 C   0  0  0  0  0  0  0  0  0  0  0  0
   -1.0944   -0.6193   -0.0000 O   0  0  0  0  0  1  0  0  0  0  0  0
    1.0944   -0.6040    0.0000 O   0  0  0  0  0  0  0  0  0  0  0  0
   -3.2864    2.0891   -1.3457 C   0  0  0  0  0  0  0  0  0  0  0  0
   -2.6514    1.5663   -1.9166 H   0  0  0  0  0  0  0  0  0  0  0  0
   -2.9769    3.1319   -1.2762 H   0  0  0  0  0  0  0  0  0  0  0  0
   -4.3016    2.0240   -1.7371 H   0  0  0  0  0  0  0  0  0  0  0  0
   -3.2414    1.6102    0.0829 C   0  0  0  0  0  0  0  0  0  0  0  0
   -3.9043    0.8722    0.2379 H   0  0  0  0  0  0  0  0  0  0  0  0
   -2.3259    1.2804    0.3260 H   0  0  0  0  0  0  0  0  0  0  0  0
   -3.5971    2.8168    0.8682 C   0  0  0  0  0  0  0  0  0  0  0  0
   -4.5933    2.8358    1.0722 H   0  0  0  0  0  0  0  0  0  0  0  0
   -3.1137    2.8219    1.7629 H   0  0  0  0  0  0  0  0  0  0  0  0
   -3.3200    3.6994    0.2918 H   0  0  0  0  0  0  0  0  0  0  0  0
  1  5  1  0
  5  6  1  0
  5  7  2  0
  1  2  1  0
  1  3  1  0
  1  4  1  0
  8 12  1  0
 12 15  1  0
  8  9  1  0
  8 10  1  0
  8 11  1  0
 12 13  1  0
 12 14  1  0
 15 16  1  0
 15 17  1  0
 15 18  1  0
M  CHG  1   6  -1
M  END
>  <PDB_ID>  (371) 
pdb1gik

>  <RESIDUE_NAME>  (371) 
ASP   PRO

>  <FRAG_NAME>  (371) 
ACET   PRPA

>  <FRAG_ATOM_NUM>  (371) 
fragi: 7  fragj: 11

>  <atom.prop.CHAIN_ID>  (371) 
A A A A A A A Z Z Z Z Z Z Z Z Z Z Z

>  <atom.prop.IS_HEAVY_ATOM>  (371) 
1 0 0 0 1 1 1 1 0 0 0 1 0 0 1 0 0 0

>  <DIFUSE_FUNC_ATOM>  (371) 
atom 6   atom 7   

>  <FINAL_SINGLE_POINT_ENERGY>  (371) 
0

>  <NONCOV_INTER_ENERGY_QM>  (371) 
0

>  <FF_Energy>  (371) 
21.68

>  <QM_Energy>  (371) 
0.91

>  <source>  (371) 
ACET_PRPA_03

>  <Index>  (371) 
24080

$$$$
ACET-pdb1gik-A-ASP-29:PRPA-pdb1gik-A-PRO-41
     RDKit          3D

 18 16  0  0  0  0  0  0  0  0999 V2000
    0.0013    1.5548   -0.0270 C   0  0  0  0  0  0  0  0  0  0  0  0
   -0.9338    1.8637   -0.1312 H   0  0  0  0  0  0  0  0  0  0  0  0
    0.5608    1.8515   -0.7882 H   0  0  0  0  0  0  0  0  0  0  0  0
    0.4026    2.0088    0.8790 H   0  0  0  0  0  0  0  0  0  0  0  0
    0.0000    0.0000    0.0000 C   0  0  0  0  0  0  0  0  0  0  0  0
   -1.0944   -0.6193   -0.0000 O   0  0  0  0  0  1  0  0  0  0  0  0
    1.0944   -0.6040    0.0000 O   0  0  0  0  0  0  0  0  0  0  0  0
   -3.2414    1.6102    0.0829 C   0  0  0  0  0  0  0  0  0  0  0  0
   -3.9043    0.8722    0.2379 H   0  0  0  0  0  0  0  0  0  0  0  0
   -2.3259    1.2804    0.3260 H   0  0  0  0  0  0  0  0  0  0  0  0
   -3.2739    1.9565   -0.9501 H   0  0  0  0  0  0  0  0  0  0  0  0
   -3.5971    2.8168    0.8682 C   0  0  0  0  0  0  0  0  0  0  0  0
   -4.5933    2.8358    1.0722 H   0  0  0  0  0  0  0  0  0  0  0  0
   -3.1137    2.8219    1.7629 H   0  0  0  0  0  0  0  0  0  0  0  0
   -3.2093    4.0521    0.0615 C   0  0  0  0  0  0  0  0  0  0  0  0
   -3.9761    4.6871   -0.0049 H   0  0  0  0  0  0  0  0  0  0  0  0
   -2.4239    4.5132    0.4727 H   0  0  0  0  0  0  0  0  0  0  0  0
   -2.9555    3.6404   -0.9154 H   0  0  0  0  0  0  0  0  0  0  0  0
  1  5  1  0
  5  6  1  0
  5  7  2  0
  1  2  1  0
  1  3  1  0
  1  4  1  0
  8 12  1  0
 12 15  1  0
  8  9  1  0
  8 10  1  0
  8 11  1  0
 12 13  1  0
 12 14  1  0
 15 16  1  0
 15 17  1  0
 15 18  1  0
M  CHG  1   6  -1
M  END
>  <PDB_ID>  (372) 
pdb1gik

>  <RESIDUE_NAME>  (372) 
ASP   PRO

>  <FRAG_NAME>  (372) 
ACET   PRPA

>  <FRAG_ATOM_NUM>  (372) 
fragi: 7  fragj: 11

>  <atom.prop.CHAIN_ID>  (372) 
A A A A A A A Z Z Z Z Z Z Z Z Z Z Z

>  <atom.prop.IS_HEAVY_ATOM>  (372) 
1 0 0 0 1 1 1 1 0 0 0 1 0 0 1 0 0 0

>  <DIFUSE_FUNC_ATOM>  (372) 
atom 6   atom 7   

>  <FINAL_SINGLE_POINT_ENERGY>  (372) 
0

>  <NONCOV_INTER_ENERGY_QM>  (372) 
0

>  <FF_Energy>  (372) 
18.91

>  <QM_Energy>  (372) 
2.71

>  <source>  (372) 
ACET_PRPA_03

>  <Index>  (372) 
24097

$$$$
ACET-pdb1ggl-B-ASP-39:PRPA-pdb1ggl-B-ARG-9
     RDKit          3D

 18 16  0  0  0  0  0  0  0  0999 V2000
    0.0259    1.5342   -0.0174 C   0  0  0  0  0  0  0  0  0  0  0  0
   -0.5019    1.8481   -0.7983 H   0  0  0  0  0  0  0  0  0  0  0  0
    0.9699    1.8316   -0.0938 H   0  0  0  0  0  0  0  0  0  0  0  0
   -0.3984    1.9842    0.8801 H   0  0  0  0  0  0  0  0  0  0  0  0
    0.0000    0.0000    0.0000 C   0  0  0  0  0  0  0  0  0  0  0  0
   -1.0953   -0.6101   -0.0000 O   0  0  0  0  0  1  0  0  0  0  0  0
    1.0953   -0.5992    0.0000 O   0  0  0  0  0  0  0  0  0  0  0  0
    1.8375   -2.2443    2.1474 C   0  0  0  0  0  0  0  0  0  0  0  0
    1.4064   -1.6724    1.4254 H   0  0  0  0  0  0  0  0  0  0  0  0
    2.7738   -1.7767    2.4522 H   0  0  0  0  0  0  0  0  0  0  0  0
    1.1224   -2.3602    2.9619 H   0  0  0  0  0  0  0  0  0  0  0  0
    2.1352   -3.6012    1.4816 C   0  0  0  0  0  0  0  0  0  0  0  0
    2.8174   -3.4535    0.7718 H   0  0  0  0  0  0  0  0  0  0  0  0
    2.4922   -4.2150    2.1790 H   0  0  0  0  0  0  0  0  0  0  0  0
    0.9211   -4.2682    0.8404 C   0  0  0  0  0  0  0  0  0  0  0  0
    0.3263   -4.6282    1.5524 H   0  0  0  0  0  0  0  0  0  0  0  0
    0.4305   -3.6004    0.2886 H   0  0  0  0  0  0  0  0  0  0  0  0
    1.2134   -5.0941    0.1920 H   0  0  0  0  0  0  0  0  0  0  0  0
  1  5  1  0
  5  6  1  0
  5  7  2  0
  1  2  1  0
  1  3  1  0
  1  4  1  0
  8 12  1  0
 12 15  1  0
  8  9  1  0
  8 10  1  0
  8 11  1  0
 12 13  1  0
 12 14  1  0
 15 16  1  0
 15 17  1  0
 15 18  1  0
M  CHG  1   6  -1
M  END
>  <PDB_ID>  (373) 
pdb1ggl

>  <RESIDUE_NAME>  (373) 
ASP   ARG

>  <FRAG_NAME>  (373) 
ACET   PRPA

>  <FRAG_ATOM_NUM>  (373) 
fragi: 7  fragj: 11

>  <atom.prop.CHAIN_ID>  (373) 
A A A A A A A Z Z Z Z Z Z Z Z Z Z Z

>  <atom.prop.IS_HEAVY_ATOM>  (373) 
1 0 0 0 1 1 1 1 0 0 0 1 0 0 1 0 0 0

>  <DIFUSE_FUNC_ATOM>  (373) 
atom 6   atom 7   

>  <FINAL_SINGLE_POINT_ENERGY>  (373) 
0

>  <NONCOV_INTER_ENERGY_QM>  (373) 
0

>  <FF_Energy>  (373) 
25.68

>  <QM_Energy>  (373) 
-1.5

>  <source>  (373) 
ACET_PRPA_03

>  <Index>  (373) 
24139

$$$$
ACET-pdb1ggl-B-GLU-17:PRPA-pdb1ggl-B-LEU-34
     RDKit          3D

 18 16  0  0  0  0  0  0  0  0999 V2000
   -0.0064    1.5160   -0.0056 C   0  0  0  0  0  0  0  0  0  0  0  0
   -0.6326    1.8154    0.6898 H   0  0  0  0  0  0  0  0  0  0  0  0
   -0.2770    1.8107   -0.9035 H   0  0  0  0  0  0  0  0  0  0  0  0
    0.9717    1.9448    0.2123 H   0  0  0  0  0  0  0  0  0  0  0  0
    0.0000    0.0000    0.0000 C   0  0  0  0  0  0  0  0  0  0  0  0
   -1.0984   -0.5991   -0.0000 O   0  0  0  0  0  1  0  0  0  0  0  0
    1.0984   -0.5914    0.0000 O   0  0  0  0  0  0  0  0  0  0  0  0
    4.0869   -3.7764    2.0903 C   0  0  0  0  0  0  0  0  0  0  0  0
    3.6790   -4.6104    2.4008 H   0  0  0  0  0  0  0  0  0  0  0  0
    4.2699   -3.1453    2.8143 H   0  0  0  0  0  0  0  0  0  0  0  0
    5.0270   -4.0160    1.5932 H   0  0  0  0  0  0  0  0  0  0  0  0
    3.0881   -3.1050    1.1366 C   0  0  0  0  0  0  0  0  0  0  0  0
    3.1786   -3.5149    0.2322 H   0  0  0  0  0  0  0  0  0  0  0  0
    2.0692   -3.2459    1.4973 H   0  0  0  0  0  0  0  0  0  0  0  0
    3.4304   -1.6327    0.9805 C   0  0  0  0  0  0  0  0  0  0  0  0
    4.3546   -1.5405    0.6063 H   0  0  0  0  0  0  0  0  0  0  0  0
    2.7762   -1.1999    0.3579 H   0  0  0  0  0  0  0  0  0  0  0  0
    3.3870   -1.1811    1.8732 H   0  0  0  0  0  0  0  0  0  0  0  0
  1  5  1  0
  5  6  1  0
  5  7  2  0
  1  2  1  0
  1  3  1  0
  1  4  1  0
  8 12  1  0
 12 15  1  0
  8  9  1  0
  8 10  1  0
  8 11  1  0
 12 13  1  0
 12 14  1  0
 15 16  1  0
 15 17  1  0
 15 18  1  0
M  CHG  1   6  -1
M  END
>  <PDB_ID>  (374) 
pdb1ggl

>  <RESIDUE_NAME>  (374) 
GLU   LEU

>  <FRAG_NAME>  (374) 
ACET   PRPA

>  <FRAG_ATOM_NUM>  (374) 
fragi: 7  fragj: 11

>  <atom.prop.CHAIN_ID>  (374) 
A A A A A A A Z Z Z Z Z Z Z Z Z Z Z

>  <atom.prop.IS_HEAVY_ATOM>  (374) 
1 0 0 0 1 1 1 1 0 0 0 1 0 0 1 0 0 0

>  <DIFUSE_FUNC_ATOM>  (374) 
atom 6   atom 7   

>  <FINAL_SINGLE_POINT_ENERGY>  (374) 
0

>  <NONCOV_INTER_ENERGY_QM>  (374) 
0

>  <FF_Energy>  (374) 
24.29

>  <QM_Energy>  (374) 
0.51

>  <source>  (374) 
ACET_PRPA_03

>  <Index>  (374) 
24463

$$$$
ACET-pdb1ggl-B-GLU-17:PRPA-pdb1ggl-B-LEU-34
     RDKit          3D

 18 16  0  0  0  0  0  0  0  0999 V2000
   -0.0064    1.5160   -0.0056 C   0  0  0  0  0  0  0  0  0  0  0  0
   -0.6326    1.8154    0.6898 H   0  0  0  0  0  0  0  0  0  0  0  0
   -0.2770    1.8107   -0.9035 H   0  0  0  0  0  0  0  0  0  0  0  0
    0.9717    1.9448    0.2123 H   0  0  0  0  0  0  0  0  0  0  0  0
    0.0000    0.0000    0.0000 C   0  0  0  0  0  0  0  0  0  0  0  0
   -1.0984   -0.5991   -0.0000 O   0  0  0  0  0  1  0  0  0  0  0  0
    1.0984   -0.5914    0.0000 O   0  0  0  0  0  0  0  0  0  0  0  0
    1.6596   -3.3024    1.6423 C   0  0  0  0  0  0  0  0  0  0  0  0
    1.5699   -2.8950    2.5505 H   0  0  0  0  0  0  0  0  0  0  0  0
    1.0219   -2.8612    1.0129 H   0  0  0  0  0  0  0  0  0  0  0  0
    1.4583   -4.2801    1.6923 H   0  0  0  0  0  0  0  0  0  0  0  0
    3.0881   -3.1050    1.1366 C   0  0  0  0  0  0  0  0  0  0  0  0
    3.1786   -3.5149    0.2322 H   0  0  0  0  0  0  0  0  0  0  0  0
    3.7971   -3.5815    1.8136 H   0  0  0  0  0  0  0  0  0  0  0  0
    3.4304   -1.6327    0.9805 C   0  0  0  0  0  0  0  0  0  0  0  0
    4.3546   -1.5405    0.6063 H   0  0  0  0  0  0  0  0  0  0  0  0
    2.7762   -1.1999    0.3579 H   0  0  0  0  0  0  0  0  0  0  0  0
    3.3870   -1.1811    1.8732 H   0  0  0  0  0  0  0  0  0  0  0  0
  1  5  1  0
  5  6  1  0
  5  7  2  0
  1  2  1  0
  1  3  1  0
  1  4  1  0
  8 12  1  0
 12 15  1  0
  8  9  1  0
  8 10  1  0
  8 11  1  0
 12 13  1  0
 12 14  1  0
 15 16  1  0
 15 17  1  0
 15 18  1  0
M  CHG  1   6  -1
M  END
>  <PDB_ID>  (375) 
pdb1ggl

>  <RESIDUE_NAME>  (375) 
GLU   LEU

>  <FRAG_NAME>  (375) 
ACET   PRPA

>  <FRAG_ATOM_NUM>  (375) 
fragi: 7  fragj: 11

>  <atom.prop.CHAIN_ID>  (375) 
A A A A A A A Z Z Z Z Z Z Z Z Z Z Z

>  <atom.prop.IS_HEAVY_ATOM>  (375) 
1 0 0 0 1 1 1 1 0 0 0 1 0 0 1 0 0 0

>  <DIFUSE_FUNC_ATOM>  (375) 
atom 6   atom 7   

>  <FINAL_SINGLE_POINT_ENERGY>  (375) 
0

>  <NONCOV_INTER_ENERGY_QM>  (375) 
0

>  <FF_Energy>  (375) 
25.12

>  <QM_Energy>  (375) 
-0.74

>  <source>  (375) 
ACET_PRPA_03

>  <Index>  (375) 
24475

$$$$
ACET-pdb2h66-A-GLU-25:PRPA-pdb2h66-A-LYS-13
     RDKit          3D

 18 16  0  0  0  0  0  0  0  0999 V2000
   -0.0155    1.5506   -0.0353 C   0  0  0  0  0  0  0  0  0  0  0  0
    0.9072    1.8486   -0.0035 H   0  0  0  0  0  0  0  0  0  0  0  0
   -0.5610    1.8491    0.7092 H   0  0  0  0  0  0  0  0  0  0  0  0
   -0.4625    1.9193   -0.9585 H   0  0  0  0  0  0  0  0  0  0  0  0
    0.0000    0.0000    0.0000 C   0  0  0  0  0  0  0  0  0  0  0  0
   -1.1155   -0.6116    0.0000 O   0  0  0  0  0  1  0  0  0  0  0  0
    1.1155   -0.6074    0.0000 O   0  0  0  0  0  0  0  0  0  0  0  0
    3.7992   -0.9391   -1.9904 C   0  0  0  0  0  0  0  0  0  0  0  0
    3.5766   -0.2848   -1.2915 H   0  0  0  0  0  0  0  0  0  0  0  0
    3.1339   -0.9576   -2.7129 H   0  0  0  0  0  0  0  0  0  0  0  0
    4.7793   -0.7050   -2.4059 H   0  0  0  0  0  0  0  0  0  0  0  0
    3.8648   -2.3483   -1.3429 C   0  0  0  0  0  0  0  0  0  0  0  0
    4.2189   -2.9915   -2.0194 H   0  0  0  0  0  0  0  0  0  0  0  0
    4.4795   -2.3093   -0.5577 H   0  0  0  0  0  0  0  0  0  0  0  0
    2.4874   -2.8806   -0.8484 C   0  0  0  0  0  0  0  0  0  0  0  0
    2.6410   -3.4350   -0.0268 H   0  0  0  0  0  0  0  0  0  0  0  0
    1.9134   -2.0944   -0.6089 H   0  0  0  0  0  0  0  0  0  0  0  0
    1.9678   -3.4850   -1.5920 H   0  0  0  0  0  0  0  0  0  0  0  0
  1  5  1  0
  5  6  1  0
  5  7  2  0
  1  2  1  0
  1  3  1  0
  1  4  1  0
  8 12  1  0
 12 15  1  0
  8  9  1  0
  8 10  1  0
  8 11  1  0
 12 13  1  0
 12 14  1  0
 15 16  1  0
 15 17  1  0
 15 18  1  0
M  CHG  1   6  -1
M  END
>  <PDB_ID>  (376) 
pdb2h66

>  <RESIDUE_NAME>  (376) 
GLU   LYS

>  <FRAG_NAME>  (376) 
ACET   PRPA

>  <FRAG_ATOM_NUM>  (376) 
fragi: 7  fragj: 11

>  <atom.prop.CHAIN_ID>  (376) 
A A A A A A A Z Z Z Z Z Z Z Z Z Z Z

>  <atom.prop.IS_HEAVY_ATOM>  (376) 
1 0 0 0 1 1 1 1 0 0 0 1 0 0 1 0 0 0

>  <DIFUSE_FUNC_ATOM>  (376) 
atom 6   atom 7   

>  <FINAL_SINGLE_POINT_ENERGY>  (376) 
0

>  <NONCOV_INTER_ENERGY_QM>  (376) 
0

>  <FF_Energy>  (376) 
28.84

>  <QM_Energy>  (376) 
-0.49

>  <source>  (376) 
ACET_PRPA_03

>  <Index>  (376) 
24713

$$$$
ACET-pdb1gmi-A-GLU-114:PRPA-pdb1gmi-A-ILE-128
     RDKit          3D

 18 16  0  0  0  0  0  0  0  0999 V2000
    0.0097    1.5047   -0.0027 C   0  0  0  0  0  0  0  0  0  0  0  0
    0.9382    1.7943   -0.1371 H   0  0  0  0  0  0  0  0  0  0  0  0
   -0.3558    1.8043    0.8584 H   0  0  0  0  0  0  0  0  0  0  0  0
   -0.6055    1.9079   -0.8072 H   0  0  0  0  0  0  0  0  0  0  0  0
    0.0000    0.0000    0.0000 C   0  0  0  0  0  0  0  0  0  0  0  0
   -1.0989   -0.6074   -0.0000 O   0  0  0  0  0  1  0  0  0  0  0  0
    1.0989   -0.5734   -0.0000 O   0  0  0  0  0  0  0  0  0  0  0  0
   -1.3478    4.0358    2.8936 C   0  0  0  0  0  0  0  0  0  0  0  0
   -1.3423    4.0595    1.9119 H   0  0  0  0  0  0  0  0  0  0  0  0
   -0.5349    4.6831    3.2226 H   0  0  0  0  0  0  0  0  0  0  0  0
   -2.2465    4.5619    3.2158 H   0  0  0  0  0  0  0  0  0  0  0  0
   -1.2835    2.6536    3.5585 C   0  0  0  0  0  0  0  0  0  0  0  0
   -1.3674    2.7767    4.5368 H   0  0  0  0  0  0  0  0  0  0  0  0
   -2.0911    2.0263    3.1812 H   0  0  0  0  0  0  0  0  0  0  0  0
    0.0834    2.0202    3.2773 C   0  0  0  0  0  0  0  0  0  0  0  0
    0.2203    1.9942    2.2853 H   0  0  0  0  0  0  0  0  0  0  0  0
    0.7880    2.6131    3.6737 H   0  0  0  0  0  0  0  0  0  0  0  0
    0.2078    1.0140    3.6776 H   0  0  0  0  0  0  0  0  0  0  0  0
  1  5  1  0
  5  6  1  0
  5  7  2  0
  1  2  1  0
  1  3  1  0
  1  4  1  0
  8 12  1  0
 12 15  1  0
  8  9  1  0
  8 10  1  0
  8 11  1  0
 12 13  1  0
 12 14  1  0
 15 16  1  0
 15 17  1  0
 15 18  1  0
M  CHG  1   6  -1
M  END
>  <PDB_ID>  (377) 
pdb1gmi

>  <RESIDUE_NAME>  (377) 
GLU   ILE

>  <FRAG_NAME>  (377) 
ACET   PRPA

>  <FRAG_ATOM_NUM>  (377) 
fragi: 7  fragj: 11

>  <atom.prop.CHAIN_ID>  (377) 
A A A A A A A Z Z Z Z Z Z Z Z Z Z Z

>  <atom.prop.IS_HEAVY_ATOM>  (377) 
1 0 0 0 1 1 1 1 0 0 0 1 0 0 1 0 0 0

>  <DIFUSE_FUNC_ATOM>  (377) 
atom 6   atom 7   

>  <FINAL_SINGLE_POINT_ENERGY>  (377) 
0

>  <NONCOV_INTER_ENERGY_QM>  (377) 
0

>  <FF_Energy>  (377) 
19.22

>  <QM_Energy>  (377) 
2.35

>  <source>  (377) 
ACET_PRPA_03

>  <Index>  (377) 
25616

$$$$
ACET-pdb1gmi-A-GLU-114:PRPA-pdb1gmi-A-ILE-128
     RDKit          3D

 18 16  0  0  0  0  0  0  0  0999 V2000
    0.0097    1.5047   -0.0027 C   0  0  0  0  0  0  0  0  0  0  0  0
    0.9382    1.7943   -0.1371 H   0  0  0  0  0  0  0  0  0  0  0  0
   -0.3558    1.8043    0.8584 H   0  0  0  0  0  0  0  0  0  0  0  0
   -0.6055    1.9079   -0.8072 H   0  0  0  0  0  0  0  0  0  0  0  0
    0.0000    0.0000    0.0000 C   0  0  0  0  0  0  0  0  0  0  0  0
   -1.0989   -0.6074   -0.0000 O   0  0  0  0  0  1  0  0  0  0  0  0
    1.0989   -0.5734   -0.0000 O   0  0  0  0  0  0  0  0  0  0  0  0
   -1.2835    2.6536    3.5585 C   0  0  0  0  0  0  0  0  0  0  0  0
   -1.3674    2.7767    4.5368 H   0  0  0  0  0  0  0  0  0  0  0  0
   -1.3292    3.6350    3.0864 H   0  0  0  0  0  0  0  0  0  0  0  0
   -2.0911    2.0263    3.1812 H   0  0  0  0  0  0  0  0  0  0  0  0
    0.0834    2.0202    3.2773 C   0  0  0  0  0  0  0  0  0  0  0  0
    0.2203    1.9942    2.2853 H   0  0  0  0  0  0  0  0  0  0  0  0
    0.7880    2.6131    3.6737 H   0  0  0  0  0  0  0  0  0  0  0  0
    0.2562    0.6229    3.8332 C   0  0  0  0  0  0  0  0  0  0  0  0
   -0.4314    0.0196    3.4325 H   0  0  0  0  0  0  0  0  0  0  0  0
    1.1688    0.2874    3.6063 H   0  0  0  0  0  0  0  0  0  0  0  0
    0.1446    0.6455    4.8254 H   0  0  0  0  0  0  0  0  0  0  0  0
  1  5  1  0
  5  6  1  0
  5  7  2  0
  1  2  1  0
  1  3  1  0
  1  4  1  0
  8 12  1  0
 12 15  1  0
  8  9  1  0
  8 10  1  0
  8 11  1  0
 12 13  1  0
 12 14  1  0
 15 16  1  0
 15 17  1  0
 15 18  1  0
M  CHG  1   6  -1
M  END
>  <PDB_ID>  (378) 
pdb1gmi

>  <RESIDUE_NAME>  (378) 
GLU   ILE

>  <FRAG_NAME>  (378) 
ACET   PRPA

>  <FRAG_ATOM_NUM>  (378) 
fragi: 7  fragj: 11

>  <atom.prop.CHAIN_ID>  (378) 
A A A A A A A Z Z Z Z Z Z Z Z Z Z Z

>  <atom.prop.IS_HEAVY_ATOM>  (378) 
1 0 0 0 1 1 1 1 0 0 0 1 0 0 1 0 0 0

>  <DIFUSE_FUNC_ATOM>  (378) 
atom 6   atom 7   

>  <FINAL_SINGLE_POINT_ENERGY>  (378) 
0

>  <NONCOV_INTER_ENERGY_QM>  (378) 
0

>  <FF_Energy>  (378) 
22.03

>  <QM_Energy>  (378) 
1.37

>  <source>  (378) 
ACET_PRPA_03

>  <Index>  (378) 
25623

$$$$
ACET-pdb1gik-A-GLU-126:PRPA-pdb1gik-A-ARG-134
     RDKit          3D

 18 16  0  0  0  0  0  0  0  0999 V2000
    0.0356    1.5527   -0.0196 C   0  0  0  0  0  0  0  0  0  0  0  0
   -0.0784    1.8354   -0.9580 H   0  0  0  0  0  0  0  0  0  0  0  0
    0.9137    1.8279    0.3374 H   0  0  0  0  0  0  0  0  0  0  0  0
   -0.7333    2.0509    0.5708 H   0  0  0  0  0  0  0  0  0  0  0  0
    0.0000    0.0000    0.0000 C   0  0  0  0  0  0  0  0  0  0  0  0
   -1.0785   -0.6081   -0.0000 O   0  0  0  0  0  1  0  0  0  0  0  0
    1.0785   -0.6250   -0.0000 O   0  0  0  0  0  0  0  0  0  0  0  0
    3.3677    1.1911   -2.0313 C   0  0  0  0  0  0  0  0  0  0  0  0
    3.2078    2.1366   -1.6552 H   0  0  0  0  0  0  0  0  0  0  0  0
    2.3970    0.7493   -2.2566 H   0  0  0  0  0  0  0  0  0  0  0  0
    4.0734    1.2669   -2.8585 H   0  0  0  0  0  0  0  0  0  0  0  0
    4.0175    0.4558   -0.8621 C   0  0  0  0  0  0  0  0  0  0  0  0
    5.0021    0.4066   -1.0251 H   0  0  0  0  0  0  0  0  0  0  0  0
    3.8429    0.9724   -0.0246 H   0  0  0  0  0  0  0  0  0  0  0  0
    3.5168   -0.9826   -0.6281 C   0  0  0  0  0  0  0  0  0  0  0  0
    2.5704   -1.0410   -0.8926 H   0  0  0  0  0  0  0  0  0  0  0  0
    4.0821   -1.6064   -1.1379 H   0  0  0  0  0  0  0  0  0  0  0  0
    3.6009   -1.2203    0.4323 H   0  0  0  0  0  0  0  0  0  0  0  0
  1  5  1  0
  5  6  1  0
  5  7  2  0
  1  2  1  0
  1  3  1  0
  1  4  1  0
  8 12  1  0
 12 15  1  0
  8  9  1  0
  8 10  1  0
  8 11  1  0
 12 13  1  0
 12 14  1  0
 15 16  1  0
 15 17  1  0
 15 18  1  0
M  CHG  1   6  -1
M  END
>  <PDB_ID>  (379) 
pdb1gik

>  <RESIDUE_NAME>  (379) 
GLU   ARG

>  <FRAG_NAME>  (379) 
ACET   PRPA

>  <FRAG_ATOM_NUM>  (379) 
fragi: 7  fragj: 11

>  <atom.prop.CHAIN_ID>  (379) 
A A A A A A A Z Z Z Z Z Z Z Z Z Z Z

>  <atom.prop.IS_HEAVY_ATOM>  (379) 
1 0 0 0 1 1 1 1 0 0 0 1 0 0 1 0 0 0

>  <DIFUSE_FUNC_ATOM>  (379) 
atom 6   atom 7   

>  <FINAL_SINGLE_POINT_ENERGY>  (379) 
0

>  <NONCOV_INTER_ENERGY_QM>  (379) 
0

>  <FF_Energy>  (379) 
36.09

>  <QM_Energy>  (379) 
3.0

>  <source>  (379) 
ACET_PRPA_03

>  <Index>  (379) 
25819

$$$$
ACET-pdb1gik-A-GLU-126:PRPA-pdb1gik-A-ARG-134
     RDKit          3D

 18 16  0  0  0  0  0  0  0  0999 V2000
    0.0356    1.5527   -0.0196 C   0  0  0  0  0  0  0  0  0  0  0  0
   -0.0784    1.8354   -0.9580 H   0  0  0  0  0  0  0  0  0  0  0  0
    0.9137    1.8279    0.3374 H   0  0  0  0  0  0  0  0  0  0  0  0
   -0.7333    2.0509    0.5708 H   0  0  0  0  0  0  0  0  0  0  0  0
    0.0000    0.0000    0.0000 C   0  0  0  0  0  0  0  0  0  0  0  0
   -1.0785   -0.6081   -0.0000 O   0  0  0  0  0  1  0  0  0  0  0  0
    1.0785   -0.6250   -0.0000 O   0  0  0  0  0  0  0  0  0  0  0  0
    4.0175    0.4558   -0.8621 C   0  0  0  0  0  0  0  0  0  0  0  0
    5.0021    0.4066   -1.0251 H   0  0  0  0  0  0  0  0  0  0  0  0
    3.8429    0.9724   -0.0246 H   0  0  0  0  0  0  0  0  0  0  0  0
    3.5535    0.9809   -1.6970 H   0  0  0  0  0  0  0  0  0  0  0  0
    3.5168   -0.9826   -0.6281 C   0  0  0  0  0  0  0  0  0  0  0  0
    2.5704   -1.0410   -0.8926 H   0  0  0  0  0  0  0  0  0  0  0  0
    4.0821   -1.6064   -1.1379 H   0  0  0  0  0  0  0  0  0  0  0  0
    3.6339   -1.3135    0.8483 C   0  0  0  0  0  0  0  0  0  0  0  0
    4.5279   -0.9730    1.1757 H   0  0  0  0  0  0  0  0  0  0  0  0
    2.9109   -0.8051    1.3404 H   0  0  0  0  0  0  0  0  0  0  0  0
    3.5504   -2.3702    1.1022 H   0  0  0  0  0  0  0  0  0  0  0  0
  1  5  1  0
  5  6  1  0
  5  7  2  0
  1  2  1  0
  1  3  1  0
  1  4  1  0
  8 12  1  0
 12 15  1  0
  8  9  1  0
  8 10  1  0
  8 11  1  0
 12 13  1  0
 12 14  1  0
 15 16  1  0
 15 17  1  0
 15 18  1  0
M  CHG  1   6  -1
M  END
>  <PDB_ID>  (380) 
pdb1gik

>  <RESIDUE_NAME>  (380) 
GLU   ARG

>  <FRAG_NAME>  (380) 
ACET   PRPA

>  <FRAG_ATOM_NUM>  (380) 
fragi: 7  fragj: 11

>  <atom.prop.CHAIN_ID>  (380) 
A A A A A A A Z Z Z Z Z Z Z Z Z Z Z

>  <atom.prop.IS_HEAVY_ATOM>  (380) 
1 0 0 0 1 1 1 1 0 0 0 1 0 0 1 0 0 0

>  <DIFUSE_FUNC_ATOM>  (380) 
atom 6   atom 7   

>  <FINAL_SINGLE_POINT_ENERGY>  (380) 
0

>  <NONCOV_INTER_ENERGY_QM>  (380) 
0

>  <FF_Energy>  (380) 
44.0

>  <QM_Energy>  (380) 
2.75

>  <source>  (380) 
ACET_PRPA_03

>  <Index>  (380) 
25821

$$$$
ACET-pdb1gnz-A-ASP-103:PRPA-pdb1gnz-A-LYS-113
     RDKit          3D

 18 16  0  0  0  0  0  0  0  0999 V2000
    0.0332    1.5140   -0.0187 C   0  0  0  0  0  0  0  0  0  0  0  0
    0.5249    1.8145   -0.8357 H   0  0  0  0  0  0  0  0  0  0  0  0
    0.5139    1.8349    0.7957 H   0  0  0  0  0  0  0  0  0  0  0  0
   -0.9504    1.9834   -0.0314 H   0  0  0  0  0  0  0  0  0  0  0  0
    0.0000    0.0000    0.0000 C   0  0  0  0  0  0  0  0  0  0  0  0
   -1.0955   -0.6019   -0.0000 O   0  0  0  0  0  1  0  0  0  0  0  0
    1.0955   -0.5845   -0.0000 O   0  0  0  0  0  0  0  0  0  0  0  0
    4.2429   -1.6855    0.3799 C   0  0  0  0  0  0  0  0  0  0  0  0
    3.8505   -2.5915    0.5515 H   0  0  0  0  0  0  0  0  0  0  0  0
    5.2144   -1.6966    0.6278 H   0  0  0  0  0  0  0  0  0  0  0  0
    4.1705   -1.4829   -0.6887 H   0  0  0  0  0  0  0  0  0  0  0  0
    3.5334   -0.6815    1.2747 C   0  0  0  0  0  0  0  0  0  0  0  0
    3.9230    0.2294    1.1149 H   0  0  0  0  0  0  0  0  0  0  0  0
    2.5591   -0.6661    1.0395 H   0  0  0  0  0  0  0  0  0  0  0  0
    3.6803   -1.0290    2.7418 C   0  0  0  0  0  0  0  0  0  0  0  0
    3.2911   -1.9393    2.8972 H   0  0  0  0  0  0  0  0  0  0  0  0
    4.6546   -1.0427    2.9745 H   0  0  0  0  0  0  0  0  0  0  0  0
    3.1765   -0.3184    3.3971 H   0  0  0  0  0  0  0  0  0  0  0  0
  1  5  1  0
  5  6  1  0
  5  7  2  0
  1  2  1  0
  1  3  1  0
  1  4  1  0
  8 12  1  0
 12 15  1  0
  8  9  1  0
  8 10  1  0
  8 11  1  0
 12 13  1  0
 12 14  1  0
 15 16  1  0
 15 17  1  0
 15 18  1  0
M  CHG  1   6  -1
M  END
>  <PDB_ID>  (381) 
pdb1gnz

>  <RESIDUE_NAME>  (381) 
ASP   LYS

>  <FRAG_NAME>  (381) 
ACET   PRPA

>  <FRAG_ATOM_NUM>  (381) 
fragi: 7  fragj: 11

>  <atom.prop.CHAIN_ID>  (381) 
A A A A A A A Z Z Z Z Z Z Z Z Z Z Z

>  <atom.prop.IS_HEAVY_ATOM>  (381) 
1 0 0 0 1 1 1 1 0 0 0 1 0 0 1 0 0 0

>  <DIFUSE_FUNC_ATOM>  (381) 
atom 6   atom 7   

>  <FINAL_SINGLE_POINT_ENERGY>  (381) 
0

>  <NONCOV_INTER_ENERGY_QM>  (381) 
0

>  <FF_Energy>  (381) 
32.81

>  <QM_Energy>  (381) 
0.73

>  <source>  (381) 
ACET_PRPA_03

>  <Index>  (381) 
26160

$$$$
ACET-pdb1gnz-A-ASP-103:PRPA-pdb1gnz-A-LYS-113
     RDKit          3D

 18 16  0  0  0  0  0  0  0  0999 V2000
    0.0332    1.5140   -0.0187 C   0  0  0  0  0  0  0  0  0  0  0  0
    0.5249    1.8145   -0.8357 H   0  0  0  0  0  0  0  0  0  0  0  0
    0.5139    1.8349    0.7957 H   0  0  0  0  0  0  0  0  0  0  0  0
   -0.9504    1.9834   -0.0314 H   0  0  0  0  0  0  0  0  0  0  0  0
    0.0000    0.0000    0.0000 C   0  0  0  0  0  0  0  0  0  0  0  0
   -1.0955   -0.6019   -0.0000 O   0  0  0  0  0  1  0  0  0  0  0  0
    1.0955   -0.5845   -0.0000 O   0  0  0  0  0  0  0  0  0  0  0  0
    3.5334   -0.6815    1.2747 C   0  0  0  0  0  0  0  0  0  0  0  0
    3.9230    0.2294    1.1149 H   0  0  0  0  0  0  0  0  0  0  0  0
    2.5591   -0.6661    1.0395 H   0  0  0  0  0  0  0  0  0  0  0  0
    4.0421   -1.4012    0.6333 H   0  0  0  0  0  0  0  0  0  0  0  0
    3.6803   -1.0290    2.7418 C   0  0  0  0  0  0  0  0  0  0  0  0
    3.2911   -1.9393    2.8972 H   0  0  0  0  0  0  0  0  0  0  0  0
    4.6546   -1.0427    2.9745 H   0  0  0  0  0  0  0  0  0  0  0  0
    2.9819   -0.0440    3.6501 C   0  0  0  0  0  0  0  0  0  0  0  0
    3.3690    0.8679    3.5043 H   0  0  0  0  0  0  0  0  0  0  0  0
    2.0052   -0.0276    3.4289 H   0  0  0  0  0  0  0  0  0  0  0  0
    3.1072   -0.3244    4.6960 H   0  0  0  0  0  0  0  0  0  0  0  0
  1  5  1  0
  5  6  1  0
  5  7  2  0
  1  2  1  0
  1  3  1  0
  1  4  1  0
  8 12  1  0
 12 15  1  0
  8  9  1  0
  8 10  1  0
  8 11  1  0
 12 13  1  0
 12 14  1  0
 15 16  1  0
 15 17  1  0
 15 18  1  0
M  CHG  1   6  -1
M  END
>  <PDB_ID>  (382) 
pdb1gnz

>  <RESIDUE_NAME>  (382) 
ASP   LYS

>  <FRAG_NAME>  (382) 
ACET   PRPA

>  <FRAG_ATOM_NUM>  (382) 
fragi: 7  fragj: 11

>  <atom.prop.CHAIN_ID>  (382) 
A A A A A A A Z Z Z Z Z Z Z Z Z Z Z

>  <atom.prop.IS_HEAVY_ATOM>  (382) 
1 0 0 0 1 1 1 1 0 0 0 1 0 0 1 0 0 0

>  <DIFUSE_FUNC_ATOM>  (382) 
atom 6   atom 7   

>  <FINAL_SINGLE_POINT_ENERGY>  (382) 
0

>  <NONCOV_INTER_ENERGY_QM>  (382) 
0

>  <FF_Energy>  (382) 
27.92

>  <QM_Energy>  (382) 
0.97

>  <source>  (382) 
ACET_PRPA_03

>  <Index>  (382) 
26169

$$$$
ACET-pdb1gnz-A-ASP-192:PRPA-pdb1gnz-A-LYS-169
     RDKit          3D

 18 16  0  0  0  0  0  0  0  0999 V2000
    0.0403    1.5152   -0.0186 C   0  0  0  0  0  0  0  0  0  0  0  0
    0.5300    1.8134   -0.8356 H   0  0  0  0  0  0  0  0  0  0  0  0
    0.5200    1.8339    0.7964 H   0  0  0  0  0  0  0  0  0  0  0  0
   -0.9434    1.9846   -0.0312 H   0  0  0  0  0  0  0  0  0  0  0  0
    0.0000    0.0000    0.0000 C   0  0  0  0  0  0  0  0  0  0  0  0
   -1.0955   -0.5991    0.0000 O   0  0  0  0  0  1  0  0  0  0  0  0
    1.0955   -0.5869   -0.0000 O   0  0  0  0  0  0  0  0  0  0  0  0
   -1.7421   -3.9867   -2.7835 C   0  0  0  0  0  0  0  0  0  0  0  0
   -0.8431   -3.6043   -2.9616 H   0  0  0  0  0  0  0  0  0  0  0  0
   -2.4528   -3.3840   -3.1275 H   0  0  0  0  0  0  0  0  0  0  0  0
   -1.8186   -4.9400   -3.3066 H   0  0  0  0  0  0  0  0  0  0  0  0
   -1.9160   -4.1248   -1.2782 C   0  0  0  0  0  0  0  0  0  0  0  0
   -2.7366   -4.6722   -1.0931 H   0  0  0  0  0  0  0  0  0  0  0  0
   -1.1169   -4.5984   -0.8994 H   0  0  0  0  0  0  0  0  0  0  0  0
   -2.0612   -2.7767   -0.5878 C   0  0  0  0  0  0  0  0  0  0  0  0
   -1.1976   -2.2906   -0.6387 H   0  0  0  0  0  0  0  0  0  0  0  0
   -2.7826   -2.2597   -1.0310 H   0  0  0  0  0  0  0  0  0  0  0  0
   -2.3236   -2.8977    0.4632 H   0  0  0  0  0  0  0  0  0  0  0  0
  1  5  1  0
  5  6  1  0
  5  7  2  0
  1  2  1  0
  1  3  1  0
  1  4  1  0
  8 12  1  0
 12 15  1  0
  8  9  1  0
  8 10  1  0
  8 11  1  0
 12 13  1  0
 12 14  1  0
 15 16  1  0
 15 17  1  0
 15 18  1  0
M  CHG  1   6  -1
M  END
>  <PDB_ID>  (383) 
pdb1gnz

>  <RESIDUE_NAME>  (383) 
ASP   LYS

>  <FRAG_NAME>  (383) 
ACET   PRPA

>  <FRAG_ATOM_NUM>  (383) 
fragi: 7  fragj: 11

>  <atom.prop.CHAIN_ID>  (383) 
A A A A A A A Z Z Z Z Z Z Z Z Z Z Z

>  <atom.prop.IS_HEAVY_ATOM>  (383) 
1 0 0 0 1 1 1 1 0 0 0 1 0 0 1 0 0 0

>  <DIFUSE_FUNC_ATOM>  (383) 
atom 6   atom 7   

>  <FINAL_SINGLE_POINT_ENERGY>  (383) 
0

>  <NONCOV_INTER_ENERGY_QM>  (383) 
0

>  <FF_Energy>  (383) 
36.76

>  <QM_Energy>  (383) 
7.46

>  <source>  (383) 
ACET_PRPA_03

>  <Index>  (383) 
26639

$$$$
ACET-pdb1gnz-A-ASP-192:PRPA-pdb1gnz-A-LYS-169
     RDKit          3D

 18 16  0  0  0  0  0  0  0  0999 V2000
    0.0403    1.5152   -0.0186 C   0  0  0  0  0  0  0  0  0  0  0  0
    0.5300    1.8134   -0.8356 H   0  0  0  0  0  0  0  0  0  0  0  0
    0.5200    1.8339    0.7964 H   0  0  0  0  0  0  0  0  0  0  0  0
   -0.9434    1.9846   -0.0312 H   0  0  0  0  0  0  0  0  0  0  0  0
    0.0000    0.0000    0.0000 C   0  0  0  0  0  0  0  0  0  0  0  0
   -1.0955   -0.5991    0.0000 O   0  0  0  0  0  1  0  0  0  0  0  0
    1.0955   -0.5869   -0.0000 O   0  0  0  0  0  0  0  0  0  0  0  0
   -1.9160   -4.1248   -1.2782 C   0  0  0  0  0  0  0  0  0  0  0  0
   -2.7366   -4.6722   -1.0931 H   0  0  0  0  0  0  0  0  0  0  0  0
   -1.1169   -4.5984   -0.8994 H   0  0  0  0  0  0  0  0  0  0  0  0
   -1.7914   -4.0258   -2.3565 H   0  0  0  0  0  0  0  0  0  0  0  0
   -2.0612   -2.7767   -0.5878 C   0  0  0  0  0  0  0  0  0  0  0  0
   -1.1976   -2.2906   -0.6387 H   0  0  0  0  0  0  0  0  0  0  0  0
   -2.7826   -2.2597   -1.0310 H   0  0  0  0  0  0  0  0  0  0  0  0
   -2.4305   -2.9469    0.8913 C   0  0  0  0  0  0  0  0  0  0  0  0
   -3.2303   -3.5483    0.9555 H   0  0  0  0  0  0  0  0  0  0  0  0
   -1.6596   -3.3779    1.3674 H   0  0  0  0  0  0  0  0  0  0  0  0
   -2.6596   -1.9956    1.3715 H   0  0  0  0  0  0  0  0  0  0  0  0
  1  5  1  0
  5  6  1  0
  5  7  2  0
  1  2  1  0
  1  3  1  0
  1  4  1  0
  8 12  1  0
 12 15  1  0
  8  9  1  0
  8 10  1  0
  8 11  1  0
 12 13  1  0
 12 14  1  0
 15 16  1  0
 15 17  1  0
 15 18  1  0
M  CHG  1   6  -1
M  END
>  <PDB_ID>  (384) 
pdb1gnz

>  <RESIDUE_NAME>  (384) 
ASP   LYS

>  <FRAG_NAME>  (384) 
ACET   PRPA

>  <FRAG_ATOM_NUM>  (384) 
fragi: 7  fragj: 11

>  <atom.prop.CHAIN_ID>  (384) 
A A A A A A A Z Z Z Z Z Z Z Z Z Z Z

>  <atom.prop.IS_HEAVY_ATOM>  (384) 
1 0 0 0 1 1 1 1 0 0 0 1 0 0 1 0 0 0

>  <DIFUSE_FUNC_ATOM>  (384) 
atom 6   atom 7   

>  <FINAL_SINGLE_POINT_ENERGY>  (384) 
0

>  <NONCOV_INTER_ENERGY_QM>  (384) 
0

>  <FF_Energy>  (384) 
40.75

>  <QM_Energy>  (384) 
6.35

>  <source>  (384) 
ACET_PRPA_03

>  <Index>  (384) 
26642

$$$$
ACET-pdb1gpj-B-GLU-18:PRPA-pdb1gpj-B-LYS-21
     RDKit          3D

 18 16  0  0  0  0  0  0  0  0999 V2000
    0.0105    1.5270   -0.0080 C   0  0  0  0  0  0  0  0  0  0  0  0
   -0.3537    1.8197   -0.8743 H   0  0  0  0  0  0  0  0  0  0  0  0
    0.9431    1.8147    0.1181 H   0  0  0  0  0  0  0  0  0  0  0  0
   -0.5949    1.9693    0.7832 H   0  0  0  0  0  0  0  0  0  0  0  0
    0.0000    0.0000    0.0000 C   0  0  0  0  0  0  0  0  0  0  0  0
   -1.0910   -0.6050    0.0000 O   0  0  0  0  0  1  0  0  0  0  0  0
    1.0910   -0.6032    0.0000 O   0  0  0  0  0  0  0  0  0  0  0  0
   -5.4844   -2.3680    0.4646 C   0  0  0  0  0  0  0  0  0  0  0  0
   -6.1570   -3.1047    0.5057 H   0  0  0  0  0  0  0  0  0  0  0  0
   -5.7205   -1.7366   -0.2713 H   0  0  0  0  0  0  0  0  0  0  0  0
   -5.4814   -1.8306    1.4129 H   0  0  0  0  0  0  0  0  0  0  0  0
   -4.1208   -2.9623    0.1847 C   0  0  0  0  0  0  0  0  0  0  0  0
   -3.8435   -3.5135    0.9683 H   0  0  0  0  0  0  0  0  0  0  0  0
   -4.1796   -3.5340   -0.6300 H   0  0  0  0  0  0  0  0  0  0  0  0
   -3.0892   -1.8908   -0.0470 C   0  0  0  0  0  0  0  0  0  0  0  0
   -3.4080   -1.2713   -0.7613 H   0  0  0  0  0  0  0  0  0  0  0  0
   -2.9423   -1.3813    0.7993 H   0  0  0  0  0  0  0  0  0  0  0  0
   -2.1448   -2.3360   -0.3602 H   0  0  0  0  0  0  0  0  0  0  0  0
  1  5  1  0
  5  6  1  0
  5  7  2  0
  1  2  1  0
  1  3  1  0
  1  4  1  0
  8 12  1  0
 12 15  1  0
  8  9  1  0
  8 10  1  0
  8 11  1  0
 12 13  1  0
 12 14  1  0
 15 16  1  0
 15 17  1  0
 15 18  1  0
M  CHG  1   6  -1
M  END
>  <PDB_ID>  (385) 
pdb1gpj

>  <RESIDUE_NAME>  (385) 
GLU   LYS

>  <FRAG_NAME>  (385) 
ACET   PRPA

>  <FRAG_ATOM_NUM>  (385) 
fragi: 7  fragj: 11

>  <atom.prop.CHAIN_ID>  (385) 
A A A A A A A Z Z Z Z Z Z Z Z Z Z Z

>  <atom.prop.IS_HEAVY_ATOM>  (385) 
1 0 0 0 1 1 1 1 0 0 0 1 0 0 1 0 0 0

>  <DIFUSE_FUNC_ATOM>  (385) 
atom 6   atom 7   

>  <FINAL_SINGLE_POINT_ENERGY>  (385) 
0

>  <NONCOV_INTER_ENERGY_QM>  (385) 
0

>  <FF_Energy>  (385) 
25.83

>  <QM_Energy>  (385) 
7.62

>  <source>  (385) 
ACET_PRPA_03

>  <Index>  (385) 
26825

$$$$
ACET-pdb1giq-A-GLU-70:PRPA-pdb1giq-A-ARG-56
     RDKit          3D

 18 16  0  0  0  0  0  0  0  0999 V2000
   -0.0046    1.5204   -0.0135 C   0  0  0  0  0  0  0  0  0  0  0  0
    0.3532    1.8120   -0.8800 H   0  0  0  0  0  0  0  0  0  0  0  0
    0.5459    1.8266    0.7402 H   0  0  0  0  0  0  0  0  0  0  0  0
   -1.0023    1.9443    0.1006 H   0  0  0  0  0  0  0  0  0  0  0  0
    0.0000    0.0000    0.0000 C   0  0  0  0  0  0  0  0  0  0  0  0
   -1.0947   -0.6009   -0.0000 O   0  0  0  0  0  1  0  0  0  0  0  0
    1.0947   -0.5967    0.0000 O   0  0  0  0  0  0  0  0  0  0  0  0
   -3.4201   -4.5691   -0.3442 C   0  0  0  0  0  0  0  0  0  0  0  0
   -4.0941   -4.2704    0.3357 H   0  0  0  0  0  0  0  0  0  0  0  0
   -2.8260   -5.2631    0.0707 H   0  0  0  0  0  0  0  0  0  0  0  0
   -3.9592   -5.0366   -1.1682 H   0  0  0  0  0  0  0  0  0  0  0  0
   -2.5590   -3.3727   -0.7094 C   0  0  0  0  0  0  0  0  0  0  0  0
   -2.0561   -3.5628   -1.5364 H   0  0  0  0  0  0  0  0  0  0  0  0
   -3.1257   -2.5704   -0.8028 H   0  0  0  0  0  0  0  0  0  0  0  0
   -1.5581   -3.1205    0.4108 C   0  0  0  0  0  0  0  0  0  0  0  0
   -1.0236   -2.3287    0.1699 H   0  0  0  0  0  0  0  0  0  0  0  0
   -2.0646   -2.9821    1.2460 H   0  0  0  0  0  0  0  0  0  0  0  0
   -0.9091   -3.9907    0.5093 H   0  0  0  0  0  0  0  0  0  0  0  0
  1  5  1  0
  5  6  1  0
  5  7  2  0
  1  2  1  0
  1  3  1  0
  1  4  1  0
  8 12  1  0
 12 15  1  0
  8  9  1  0
  8 10  1  0
  8 11  1  0
 12 13  1  0
 12 14  1  0
 15 16  1  0
 15 17  1  0
 15 18  1  0
M  CHG  1   6  -1
M  END
>  <PDB_ID>  (386) 
pdb1giq

>  <RESIDUE_NAME>  (386) 
GLU   ARG

>  <FRAG_NAME>  (386) 
ACET   PRPA

>  <FRAG_ATOM_NUM>  (386) 
fragi: 7  fragj: 11

>  <atom.prop.CHAIN_ID>  (386) 
A A A A A A A Z Z Z Z Z Z Z Z Z Z Z

>  <atom.prop.IS_HEAVY_ATOM>  (386) 
1 0 0 0 1 1 1 1 0 0 0 1 0 0 1 0 0 0

>  <DIFUSE_FUNC_ATOM>  (386) 
atom 6   atom 7   

>  <FINAL_SINGLE_POINT_ENERGY>  (386) 
0

>  <NONCOV_INTER_ENERGY_QM>  (386) 
0

>  <FF_Energy>  (386) 
46.69

>  <QM_Energy>  (386) 
3.7

>  <source>  (386) 
ACET_PRPA_03

>  <Index>  (386) 
27175

$$$$
ACET-pdb2h6r-A-ASP-190:PRPA-pdb2h6r-A-LYS-186
     RDKit          3D

 18 16  0  0  0  0  0  0  0  0999 V2000
    0.0029    1.5129    0.0225 C   0  0  0  0  0  0  0  0  0  0  0  0
    0.9048    1.8367   -0.2405 H   0  0  0  0  0  0  0  0  0  0  0  0
   -0.2239    1.8221    0.9391 H   0  0  0  0  0  0  0  0  0  0  0  0
   -0.7220    1.9473   -0.6660 H   0  0  0  0  0  0  0  0  0  0  0  0
    0.0000    0.0000    0.0000 C   0  0  0  0  0  0  0  0  0  0  0  0
   -1.0975   -0.5953   -0.0000 O   0  0  0  0  0  1  0  0  0  0  0  0
    1.0975   -0.5917   -0.0000 O   0  0  0  0  0  0  0  0  0  0  0  0
    3.7599   -2.6108   -2.8820 C   0  0  0  0  0  0  0  0  0  0  0  0
    3.4828   -3.5296   -3.1306 H   0  0  0  0  0  0  0  0  0  0  0  0
    4.7461   -2.5157   -2.9347 H   0  0  0  0  0  0  0  0  0  0  0  0
    3.3064   -1.9098   -3.5826 H   0  0  0  0  0  0  0  0  0  0  0  0
    3.3308   -2.3560   -1.4421 C   0  0  0  0  0  0  0  0  0  0  0  0
    3.9617   -2.8272   -0.8309 H   0  0  0  0  0  0  0  0  0  0  0  0
    3.3544   -1.3760   -1.2673 H   0  0  0  0  0  0  0  0  0  0  0  0
    1.9345   -2.8712   -1.2142 C   0  0  0  0  0  0  0  0  0  0  0  0
    1.5317   -2.3920   -0.4485 H   0  0  0  0  0  0  0  0  0  0  0  0
    1.4018   -2.7465   -2.0376 H   0  0  0  0  0  0  0  0  0  0  0  0
    1.9772   -3.9350   -0.9805 H   0  0  0  0  0  0  0  0  0  0  0  0
  1  5  1  0
  5  6  1  0
  5  7  2  0
  1  2  1  0
  1  3  1  0
  1  4  1  0
  8 12  1  0
 12 15  1  0
  8  9  1  0
  8 10  1  0
  8 11  1  0
 12 13  1  0
 12 14  1  0
 15 16  1  0
 15 17  1  0
 15 18  1  0
M  CHG  1   6  -1
M  END
>  <PDB_ID>  (387) 
pdb2h6r

>  <RESIDUE_NAME>  (387) 
ASP   LYS

>  <FRAG_NAME>  (387) 
ACET   PRPA

>  <FRAG_ATOM_NUM>  (387) 
fragi: 7  fragj: 11

>  <atom.prop.CHAIN_ID>  (387) 
A A A A A A A Z Z Z Z Z Z Z Z Z Z Z

>  <atom.prop.IS_HEAVY_ATOM>  (387) 
1 0 0 0 1 1 1 1 0 0 0 1 0 0 1 0 0 0

>  <DIFUSE_FUNC_ATOM>  (387) 
atom 6   atom 7   

>  <FINAL_SINGLE_POINT_ENERGY>  (387) 
0

>  <NONCOV_INTER_ENERGY_QM>  (387) 
0

>  <FF_Energy>  (387) 
15.47

>  <QM_Energy>  (387) 
-0.36

>  <source>  (387) 
ACET_PRPA_03

>  <Index>  (387) 
27334

$$$$
ACET-pdb2h6r-A-ASP-190:PRPA-pdb2h6r-A-LYS-186
     RDKit          3D

 18 16  0  0  0  0  0  0  0  0999 V2000
    0.0029    1.5129    0.0225 C   0  0  0  0  0  0  0  0  0  0  0  0
    0.9048    1.8367   -0.2405 H   0  0  0  0  0  0  0  0  0  0  0  0
   -0.2239    1.8221    0.9391 H   0  0  0  0  0  0  0  0  0  0  0  0
   -0.7220    1.9473   -0.6660 H   0  0  0  0  0  0  0  0  0  0  0  0
    0.0000    0.0000    0.0000 C   0  0  0  0  0  0  0  0  0  0  0  0
   -1.0975   -0.5953   -0.0000 O   0  0  0  0  0  1  0  0  0  0  0  0
    1.0975   -0.5917   -0.0000 O   0  0  0  0  0  0  0  0  0  0  0  0
    3.3308   -2.3560   -1.4421 C   0  0  0  0  0  0  0  0  0  0  0  0
    3.9617   -2.8272   -0.8309 H   0  0  0  0  0  0  0  0  0  0  0  0
    3.3544   -1.3760   -1.2673 H   0  0  0  0  0  0  0  0  0  0  0  0
    3.6377   -2.5383   -2.4720 H   0  0  0  0  0  0  0  0  0  0  0  0
    1.9345   -2.8712   -1.2142 C   0  0  0  0  0  0  0  0  0  0  0  0
    1.5317   -2.3920   -0.4485 H   0  0  0  0  0  0  0  0  0  0  0  0
    1.4018   -2.7465   -2.0376 H   0  0  0  0  0  0  0  0  0  0  0  0
    1.9935   -4.3422   -0.8910 C   0  0  0  0  0  0  0  0  0  0  0  0
    2.0596   -4.4616    0.1016 H   0  0  0  0  0  0  0  0  0  0  0  0
    1.1592   -4.7885   -1.2206 H   0  0  0  0  0  0  0  0  0  0  0  0
    2.8558   -4.8152   -1.3610 H   0  0  0  0  0  0  0  0  0  0  0  0
  1  5  1  0
  5  6  1  0
  5  7  2  0
  1  2  1  0
  1  3  1  0
  1  4  1  0
  8 12  1  0
 12 15  1  0
  8  9  1  0
  8 10  1  0
  8 11  1  0
 12 13  1  0
 12 14  1  0
 15 16  1  0
 15 17  1  0
 15 18  1  0
M  CHG  1   6  -1
M  END
>  <PDB_ID>  (388) 
pdb2h6r

>  <RESIDUE_NAME>  (388) 
ASP   LYS

>  <FRAG_NAME>  (388) 
ACET   PRPA

>  <FRAG_ATOM_NUM>  (388) 
fragi: 7  fragj: 11

>  <atom.prop.CHAIN_ID>  (388) 
A A A A A A A Z Z Z Z Z Z Z Z Z Z Z

>  <atom.prop.IS_HEAVY_ATOM>  (388) 
1 0 0 0 1 1 1 1 0 0 0 1 0 0 1 0 0 0

>  <DIFUSE_FUNC_ATOM>  (388) 
atom 6   atom 7   

>  <FINAL_SINGLE_POINT_ENERGY>  (388) 
0

>  <NONCOV_INTER_ENERGY_QM>  (388) 
0

>  <FF_Energy>  (388) 
17.03

>  <QM_Energy>  (388) 
-0.76

>  <source>  (388) 
ACET_PRPA_03

>  <Index>  (388) 
27339

$$$$
ACET-pdb1gnw-A-GLU-23:PRPA-pdb1gnw-A-LEU-85
     RDKit          3D

 18 16  0  0  0  0  0  0  0  0999 V2000
    0.0382    1.5084   -0.0322 C   0  0  0  0  0  0  0  0  0  0  0  0
   -0.5972    1.8009   -0.7415 H   0  0  0  0  0  0  0  0  0  0  0  0
    0.9679    1.7704   -0.2770 H   0  0  0  0  0  0  0  0  0  0  0  0
   -0.2320    1.9929    0.9061 H   0  0  0  0  0  0  0  0  0  0  0  0
    0.0000    0.0000    0.0000 C   0  0  0  0  0  0  0  0  0  0  0  0
   -1.0869   -0.6002    0.0000 O   0  0  0  0  0  1  0  0  0  0  0  0
    1.0869   -0.5947   -0.0000 O   0  0  0  0  0  0  0  0  0  0  0  0
   -0.3769    5.5478   -3.7571 C   0  0  0  0  0  0  0  0  0  0  0  0
   -0.2526    6.5022   -3.5568 H   0  0  0  0  0  0  0  0  0  0  0  0
   -1.2821    5.3485   -4.0807 H   0  0  0  0  0  0  0  0  0  0  0  0
    0.3295    5.2734   -4.5405 H   0  0  0  0  0  0  0  0  0  0  0  0
   -0.1678    4.7691   -2.4524 C   0  0  0  0  0  0  0  0  0  0  0  0
    0.8016    4.8128   -2.1986 H   0  0  0  0  0  0  0  0  0  0  0  0
   -0.7675    5.1776   -1.6389 H   0  0  0  0  0  0  0  0  0  0  0  0
   -0.5151    3.3169   -2.7386 C   0  0  0  0  0  0  0  0  0  0  0  0
    0.0836    2.9647   -3.4585 H   0  0  0  0  0  0  0  0  0  0  0  0
   -0.3909    2.7725   -1.9079 H   0  0  0  0  0  0  0  0  0  0  0  0
   -1.4675    3.2526   -3.0377 H   0  0  0  0  0  0  0  0  0  0  0  0
  1  5  1  0
  5  6  1  0
  5  7  2  0
  1  2  1  0
  1  3  1  0
  1  4  1  0
  8 12  1  0
 12 15  1  0
  8  9  1  0
  8 10  1  0
  8 11  1  0
 12 13  1  0
 12 14  1  0
 15 16  1  0
 15 17  1  0
 15 18  1  0
M  CHG  1   6  -1
M  END
>  <PDB_ID>  (389) 
pdb1gnw

>  <RESIDUE_NAME>  (389) 
GLU   LEU

>  <FRAG_NAME>  (389) 
ACET   PRPA

>  <FRAG_ATOM_NUM>  (389) 
fragi: 7  fragj: 11

>  <atom.prop.CHAIN_ID>  (389) 
A A A A A A A Z Z Z Z Z Z Z Z Z Z Z

>  <atom.prop.IS_HEAVY_ATOM>  (389) 
1 0 0 0 1 1 1 1 0 0 0 1 0 0 1 0 0 0

>  <DIFUSE_FUNC_ATOM>  (389) 
atom 6   atom 7   

>  <FINAL_SINGLE_POINT_ENERGY>  (389) 
0

>  <NONCOV_INTER_ENERGY_QM>  (389) 
0

>  <FF_Energy>  (389) 
22.48

>  <QM_Energy>  (389) 
3.85

>  <source>  (389) 
ACET_PRPA_03

>  <Index>  (389) 
27382

$$$$
ACET-pdb1gju-A-GLU-182:PRPA-pdb1gju-A-LYS-179
     RDKit          3D

 18 16  0  0  0  0  0  0  0  0999 V2000
    0.0263    1.5360    0.0185 C   0  0  0  0  0  0  0  0  0  0  0  0
    0.9521    1.8115   -0.1697 H   0  0  0  0  0  0  0  0  0  0  0  0
   -0.2698    1.8190    0.9129 H   0  0  0  0  0  0  0  0  0  0  0  0
   -0.6282    1.9923   -0.7241 H   0  0  0  0  0  0  0  0  0  0  0  0
    0.0000    0.0000    0.0000 C   0  0  0  0  0  0  0  0  0  0  0  0
   -1.1023   -0.6137    0.0000 O   0  0  0  0  0  1  0  0  0  0  0  0
    1.1023   -0.5890   -0.0000 O   0  0  0  0  0  0  0  0  0  0  0  0
   -3.7695    0.4632    2.4445 C   0  0  0  0  0  0  0  0  0  0  0  0
   -4.5487    0.1366    2.9683 H   0  0  0  0  0  0  0  0  0  0  0  0
   -3.5711   -0.2256    1.6234 H   0  0  0  0  0  0  0  0  0  0  0  0
   -4.0243    1.4348    2.0214 H   0  0  0  0  0  0  0  0  0  0  0  0
   -2.5332    0.5676    3.3610 C   0  0  0  0  0  0  0  0  0  0  0  0
   -2.8396    0.8747    4.2597 H   0  0  0  0  0  0  0  0  0  0  0  0
   -2.1273   -0.3416    3.4373 H   0  0  0  0  0  0  0  0  0  0  0  0
   -1.4500    1.5357    2.8681 C   0  0  0  0  0  0  0  0  0  0  0  0
   -1.4186    1.5122    1.8654 H   0  0  0  0  0  0  0  0  0  0  0  0
   -1.6789    2.4655    3.1651 H   0  0  0  0  0  0  0  0  0  0  0  0
   -0.4547    1.2961    3.2425 H   0  0  0  0  0  0  0  0  0  0  0  0
  1  5  1  0
  5  6  1  0
  5  7  2  0
  1  2  1  0
  1  3  1  0
  1  4  1  0
  8 12  1  0
 12 15  1  0
  8  9  1  0
  8 10  1  0
  8 11  1  0
 12 13  1  0
 12 14  1  0
 15 16  1  0
 15 17  1  0
 15 18  1  0
M  CHG  1   6  -1
M  END
>  <PDB_ID>  (390) 
pdb1gju

>  <RESIDUE_NAME>  (390) 
GLU   LYS

>  <FRAG_NAME>  (390) 
ACET   PRPA

>  <FRAG_ATOM_NUM>  (390) 
fragi: 7  fragj: 11

>  <atom.prop.CHAIN_ID>  (390) 
A A A A A A A Z Z Z Z Z Z Z Z Z Z Z

>  <atom.prop.IS_HEAVY_ATOM>  (390) 
1 0 0 0 1 1 1 1 0 0 0 1 0 0 1 0 0 0

>  <DIFUSE_FUNC_ATOM>  (390) 
atom 6   atom 7   

>  <FINAL_SINGLE_POINT_ENERGY>  (390) 
0

>  <NONCOV_INTER_ENERGY_QM>  (390) 
0

>  <FF_Energy>  (390) 
25.94

>  <QM_Energy>  (390) 
2.09

>  <source>  (390) 
ACET_PRPA_03

>  <Index>  (390) 
27997

$$$$
ACET-pdb1gju-A-GLU-182:PRPA-pdb1gju-A-LYS-179
     RDKit          3D

 18 16  0  0  0  0  0  0  0  0999 V2000
    0.0263    1.5360    0.0185 C   0  0  0  0  0  0  0  0  0  0  0  0
    0.9521    1.8115   -0.1697 H   0  0  0  0  0  0  0  0  0  0  0  0
   -0.2698    1.8190    0.9129 H   0  0  0  0  0  0  0  0  0  0  0  0
   -0.6282    1.9923   -0.7241 H   0  0  0  0  0  0  0  0  0  0  0  0
    0.0000    0.0000    0.0000 C   0  0  0  0  0  0  0  0  0  0  0  0
   -1.1023   -0.6137    0.0000 O   0  0  0  0  0  1  0  0  0  0  0  0
    1.1023   -0.5890   -0.0000 O   0  0  0  0  0  0  0  0  0  0  0  0
   -2.5332    0.5676    3.3610 C   0  0  0  0  0  0  0  0  0  0  0  0
   -2.8396    0.8747    4.2597 H   0  0  0  0  0  0  0  0  0  0  0  0
   -2.1273   -0.3416    3.4373 H   0  0  0  0  0  0  0  0  0  0  0  0
   -3.4068    0.4938    2.7134 H   0  0  0  0  0  0  0  0  0  0  0  0
   -1.4500    1.5357    2.8681 C   0  0  0  0  0  0  0  0  0  0  0  0
   -1.4186    1.5122    1.8654 H   0  0  0  0  0  0  0  0  0  0  0  0
   -1.6789    2.4655    3.1651 H   0  0  0  0  0  0  0  0  0  0  0  0
   -0.0294    1.1938    3.4025 C   0  0  0  0  0  0  0  0  0  0  0  0
    0.1177    0.2123    3.2887 H   0  0  0  0  0  0  0  0  0  0  0  0
    0.6381    1.7000    2.8595 H   0  0  0  0  0  0  0  0  0  0  0  0
    0.1175    1.4452    4.4529 H   0  0  0  0  0  0  0  0  0  0  0  0
  1  5  1  0
  5  6  1  0
  5  7  2  0
  1  2  1  0
  1  3  1  0
  1  4  1  0
  8 12  1  0
 12 15  1  0
  8  9  1  0
  8 10  1  0
  8 11  1  0
 12 13  1  0
 12 14  1  0
 15 16  1  0
 15 17  1  0
 15 18  1  0
M  CHG  1   6  -1
M  END
>  <PDB_ID>  (391) 
pdb1gju

>  <RESIDUE_NAME>  (391) 
GLU   LYS

>  <FRAG_NAME>  (391) 
ACET   PRPA

>  <FRAG_ATOM_NUM>  (391) 
fragi: 7  fragj: 11

>  <atom.prop.CHAIN_ID>  (391) 
A A A A A A A Z Z Z Z Z Z Z Z Z Z Z

>  <atom.prop.IS_HEAVY_ATOM>  (391) 
1 0 0 0 1 1 1 1 0 0 0 1 0 0 1 0 0 0

>  <DIFUSE_FUNC_ATOM>  (391) 
atom 6   atom 7   

>  <FINAL_SINGLE_POINT_ENERGY>  (391) 
0

>  <NONCOV_INTER_ENERGY_QM>  (391) 
0

>  <FF_Energy>  (391) 
30.29

>  <QM_Energy>  (391) 
1.65

>  <source>  (391) 
ACET_PRPA_03

>  <Index>  (391) 
28007

$$$$
ACET-pdb1gju-A-GLU-182:PRPA-pdb1gju-A-LYS-179
     RDKit          3D

 18 16  0  0  0  0  0  0  0  0999 V2000
    0.0263    1.5360    0.0185 C   0  0  0  0  0  0  0  0  0  0  0  0
    0.9521    1.8115   -0.1697 H   0  0  0  0  0  0  0  0  0  0  0  0
   -0.2698    1.8190    0.9129 H   0  0  0  0  0  0  0  0  0  0  0  0
   -0.6282    1.9923   -0.7241 H   0  0  0  0  0  0  0  0  0  0  0  0
    0.0000    0.0000    0.0000 C   0  0  0  0  0  0  0  0  0  0  0  0
   -1.1023   -0.6137    0.0000 O   0  0  0  0  0  1  0  0  0  0  0  0
    1.1023   -0.5890   -0.0000 O   0  0  0  0  0  0  0  0  0  0  0  0
   -1.4500    1.5357    2.8681 C   0  0  0  0  0  0  0  0  0  0  0  0
   -1.4186    1.5122    1.8654 H   0  0  0  0  0  0  0  0  0  0  0  0
   -1.6789    2.4655    3.1651 H   0  0  0  0  0  0  0  0  0  0  0  0
   -2.2196    0.8478    3.2183 H   0  0  0  0  0  0  0  0  0  0  0  0
   -0.0294    1.1938    3.4025 C   0  0  0  0  0  0  0  0  0  0  0  0
    0.1177    0.2123    3.2887 H   0  0  0  0  0  0  0  0  0  0  0  0
    0.6381    1.7000    2.8595 H   0  0  0  0  0  0  0  0  0  0  0  0
    0.1783    1.5492    4.8877 C   0  0  0  0  0  0  0  0  0  0  0  0
   -0.6135    1.2158    5.4111 H   0  0  0  0  0  0  0  0  0  0  0  0
    1.0009    1.0752    5.2186 H   0  0  0  0  0  0  0  0  0  0  0  0
    0.2926    2.6187    5.0645 H   0  0  0  0  0  0  0  0  0  0  0  0
  1  5  1  0
  5  6  1  0
  5  7  2  0
  1  2  1  0
  1  3  1  0
  1  4  1  0
  8 12  1  0
 12 15  1  0
  8  9  1  0
  8 10  1  0
  8 11  1  0
 12 13  1  0
 12 14  1  0
 15 16  1  0
 15 17  1  0
 15 18  1  0
M  CHG  1   6  -1
M  END
>  <PDB_ID>  (392) 
pdb1gju

>  <RESIDUE_NAME>  (392) 
GLU   LYS

>  <FRAG_NAME>  (392) 
ACET   PRPA

>  <FRAG_ATOM_NUM>  (392) 
fragi: 7  fragj: 11

>  <atom.prop.CHAIN_ID>  (392) 
A A A A A A A Z Z Z Z Z Z Z Z Z Z Z

>  <atom.prop.IS_HEAVY_ATOM>  (392) 
1 0 0 0 1 1 1 1 0 0 0 1 0 0 1 0 0 0

>  <DIFUSE_FUNC_ATOM>  (392) 
atom 6   atom 7   

>  <FINAL_SINGLE_POINT_ENERGY>  (392) 
0

>  <NONCOV_INTER_ENERGY_QM>  (392) 
0

>  <FF_Energy>  (392) 
26.39

>  <QM_Energy>  (392) 
2.29

>  <source>  (392) 
ACET_PRPA_03

>  <Index>  (392) 
28022

$$$$
ACET-pdb2hle-A-ASP-62:PRPA-pdb2hle-A-ARG-65
     RDKit          3D

 18 16  0  0  0  0  0  0  0  0999 V2000
    0.0900    1.5312   -0.0392 C   0  0  0  0  0  0  0  0  0  0  0  0
    0.0547    1.8170   -0.9992 H   0  0  0  0  0  0  0  0  0  0  0  0
    0.9738    1.7984    0.3490 H   0  0  0  0  0  0  0  0  0  0  0  0
   -0.6974    2.0527    0.5048 H   0  0  0  0  0  0  0  0  0  0  0  0
    0.0000    0.0000    0.0000 C   0  0  0  0  0  0  0  0  0  0  0  0
   -1.0710   -0.6212   -0.0000 O   0  0  0  0  0  1  0  0  0  0  0  0
    1.0710   -0.5963    0.0000 O   0  0  0  0  0  0  0  0  0  0  0  0
   -2.6278   -2.0849    1.6990 C   0  0  0  0  0  0  0  0  0  0  0  0
   -1.8022   -1.8455    1.1906 H   0  0  0  0  0  0  0  0  0  0  0  0
   -3.0491   -2.8938    1.2909 H   0  0  0  0  0  0  0  0  0  0  0  0
   -2.3518   -2.3143    2.7282 H   0  0  0  0  0  0  0  0  0  0  0  0
   -3.6493   -0.8911    1.4850 C   0  0  0  0  0  0  0  0  0  0  0  0
   -4.5121   -1.1390    1.9018 H   0  0  0  0  0  0  0  0  0  0  0  0
   -3.2711   -0.0779    1.9040 H   0  0  0  0  0  0  0  0  0  0  0  0
   -3.9069   -0.5861   -0.0223 C   0  0  0  0  0  0  0  0  0  0  0  0
   -3.1120   -0.0778   -0.3614 H   0  0  0  0  0  0  0  0  0  0  0  0
   -3.9572   -1.4688   -0.4973 H   0  0  0  0  0  0  0  0  0  0  0  0
   -4.8127   -0.0153   -0.2268 H   0  0  0  0  0  0  0  0  0  0  0  0
  1  5  1  0
  5  6  1  0
  5  7  2  0
  1  2  1  0
  1  3  1  0
  1  4  1  0
  8 12  1  0
 12 15  1  0
  8  9  1  0
  8 10  1  0
  8 11  1  0
 12 13  1  0
 12 14  1  0
 15 16  1  0
 15 17  1  0
 15 18  1  0
M  CHG  1   6  -1
M  END
>  <PDB_ID>  (393) 
pdb2hle

>  <RESIDUE_NAME>  (393) 
ASP   ARG

>  <FRAG_NAME>  (393) 
ACET   PRPA

>  <FRAG_ATOM_NUM>  (393) 
fragi: 7  fragj: 11

>  <atom.prop.CHAIN_ID>  (393) 
A A A A A A A Z Z Z Z Z Z Z Z Z Z Z

>  <atom.prop.IS_HEAVY_ATOM>  (393) 
1 0 0 0 1 1 1 1 0 0 0 1 0 0 1 0 0 0

>  <DIFUSE_FUNC_ATOM>  (393) 
atom 6   atom 7   

>  <FINAL_SINGLE_POINT_ENERGY>  (393) 
0

>  <NONCOV_INTER_ENERGY_QM>  (393) 
0

>  <FF_Energy>  (393) 
25.32

>  <QM_Energy>  (393) 
-0.07

>  <source>  (393) 
ACET_PRPA_03

>  <Index>  (393) 
28433

$$$$
ACET-pdb1gg1-A-GLU-81:PRPA-pdb1gg1-A-LYS-84
     RDKit          3D

 18 16  0  0  0  0  0  0  0  0999 V2000
    0.0021    1.5131    0.0028 C   0  0  0  0  0  0  0  0  0  0  0  0
    0.9176    1.8073   -0.1885 H   0  0  0  0  0  0  0  0  0  0  0  0
   -0.3149    1.8066    0.8825 H   0  0  0  0  0  0  0  0  0  0  0  0
   -0.6615    1.9171   -0.7616 H   0  0  0  0  0  0  0  0  0  0  0  0
    0.0000    0.0000    0.0000 C   0  0  0  0  0  0  0  0  0  0  0  0
   -1.0997   -0.6053    0.0000 O   0  0  0  0  0  1  0  0  0  0  0  0
    1.0997   -0.5845   -0.0000 O   0  0  0  0  0  0  0  0  0  0  0  0
    0.4860   -0.5847   -4.1631 C   0  0  0  0  0  0  0  0  0  0  0  0
    1.4114   -0.2801   -4.4007 H   0  0  0  0  0  0  0  0  0  0  0  0
   -0.1530    0.1763   -4.2976 H   0  0  0  0  0  0  0  0  0  0  0  0
    0.2040   -1.4039   -4.8245 H   0  0  0  0  0  0  0  0  0  0  0  0
    0.4613   -0.9985   -2.7072 C   0  0  0  0  0  0  0  0  0  0  0  0
    1.3422   -1.4179   -2.4758 H   0  0  0  0  0  0  0  0  0  0  0  0
    0.3277   -0.1825   -2.1409 H   0  0  0  0  0  0  0  0  0  0  0  0
   -0.6390   -1.9857   -2.3960 C   0  0  0  0  0  0  0  0  0  0  0  0
   -1.5232   -1.5731   -2.6184 H   0  0  0  0  0  0  0  0  0  0  0  0
   -0.5096   -2.8085   -2.9528 H   0  0  0  0  0  0  0  0  0  0  0  0
   -0.6269   -2.2611   -1.3414 H   0  0  0  0  0  0  0  0  0  0  0  0
  1  5  1  0
  5  6  1  0
  5  7  2  0
  1  2  1  0
  1  3  1  0
  1  4  1  0
  8 12  1  0
 12 15  1  0
  8  9  1  0
  8 10  1  0
  8 11  1  0
 12 13  1  0
 12 14  1  0
 15 16  1  0
 15 17  1  0
 15 18  1  0
M  CHG  1   6  -1
M  END
>  <PDB_ID>  (394) 
pdb1gg1

>  <RESIDUE_NAME>  (394) 
GLU   LYS

>  <FRAG_NAME>  (394) 
ACET   PRPA

>  <FRAG_ATOM_NUM>  (394) 
fragi: 7  fragj: 11

>  <atom.prop.CHAIN_ID>  (394) 
A A A A A A A Z Z Z Z Z Z Z Z Z Z Z

>  <atom.prop.IS_HEAVY_ATOM>  (394) 
1 0 0 0 1 1 1 1 0 0 0 1 0 0 1 0 0 0

>  <DIFUSE_FUNC_ATOM>  (394) 
atom 6   atom 7   

>  <FINAL_SINGLE_POINT_ENERGY>  (394) 
0

>  <NONCOV_INTER_ENERGY_QM>  (394) 
0

>  <FF_Energy>  (394) 
16.51

>  <QM_Energy>  (394) 
1.4

>  <source>  (394) 
ACET_PRPA_03

>  <Index>  (394) 
28832

$$$$
ACET-pdb1gu8-A-GLU-97:PRPA-pdb1gu8-A-LEU-93
     RDKit          3D

 18 16  0  0  0  0  0  0  0  0999 V2000
    0.1740    1.4835    0.0167 C   0  0  0  0  0  0  0  0  0  0  0  0
    0.6935    1.7404   -0.8004 H   0  0  0  0  0  0  0  0  0  0  0  0
    0.7056    1.7216    0.8320 H   0  0  0  0  0  0  0  0  0  0  0  0
   -0.7361    2.0832    0.0297 H   0  0  0  0  0  0  0  0  0  0  0  0
    0.0000    0.0000    0.0000 C   0  0  0  0  0  0  0  0  0  0  0  0
   -1.0894   -0.5578   -0.0000 O   0  0  0  0  0  1  0  0  0  0  0  0
    1.0894   -0.6084   -0.0000 O   0  0  0  0  0  0  0  0  0  0  0  0
   -2.8820   -1.1280    1.7353 C   0  0  0  0  0  0  0  0  0  0  0  0
   -2.0410   -1.4186    1.2504 H   0  0  0  0  0  0  0  0  0  0  0  0
   -3.5517   -1.9850    1.8068 H   0  0  0  0  0  0  0  0  0  0  0  0
   -2.5967   -0.7383    2.7124 H   0  0  0  0  0  0  0  0  0  0  0  0
   -3.5451    0.0062    0.9501 C   0  0  0  0  0  0  0  0  0  0  0  0
   -4.3968    0.2605    1.4457 H   0  0  0  0  0  0  0  0  0  0  0  0
   -2.9257    0.8107    0.9976 H   0  0  0  0  0  0  0  0  0  0  0  0
   -3.9256   -0.1757   -0.5200 C   0  0  0  0  0  0  0  0  0  0  0  0
   -4.6057   -0.8899   -0.5942 H   0  0  0  0  0  0  0  0  0  0  0  0
   -4.3446    0.7632   -0.8819 H   0  0  0  0  0  0  0  0  0  0  0  0
   -3.0531   -0.4556   -1.1103 H   0  0  0  0  0  0  0  0  0  0  0  0
  1  5  1  0
  5  6  1  0
  5  7  2  0
  1  2  1  0
  1  3  1  0
  1  4  1  0
  8 12  1  0
 12 15  1  0
  8  9  1  0
  8 10  1  0
  8 11  1  0
 12 13  1  0
 12 14  1  0
 15 16  1  0
 15 17  1  0
 15 18  1  0
M  CHG  1   6  -1
M  END
>  <PDB_ID>  (395) 
pdb1gu8

>  <RESIDUE_NAME>  (395) 
GLU   LEU

>  <FRAG_NAME>  (395) 
ACET   PRPA

>  <FRAG_ATOM_NUM>  (395) 
fragi: 7  fragj: 11

>  <atom.prop.CHAIN_ID>  (395) 
A A A A A A A Z Z Z Z Z Z Z Z Z Z Z

>  <atom.prop.IS_HEAVY_ATOM>  (395) 
1 0 0 0 1 1 1 1 0 0 0 1 0 0 1 0 0 0

>  <DIFUSE_FUNC_ATOM>  (395) 
atom 6   atom 7   

>  <FINAL_SINGLE_POINT_ENERGY>  (395) 
0

>  <NONCOV_INTER_ENERGY_QM>  (395) 
0

>  <FF_Energy>  (395) 
41.58

>  <QM_Energy>  (395) 
3.87

>  <source>  (395) 
ACET_PRPA_03

>  <Index>  (395) 
29777

$$$$
ACET-pdb2hfn-A-GLU-144:PRPA-pdb2hfn-A-LEU-153
     RDKit          3D

 18 16  0  0  0  0  0  0  0  0999 V2000
   -0.0001    1.5156    0.0018 C   0  0  0  0  0  0  0  0  0  0  0  0
   -0.0875    1.8121    0.9348 H   0  0  0  0  0  0  0  0  0  0  0  0
   -0.7522    1.8131   -0.5557 H   0  0  0  0  0  0  0  0  0  0  0  0
    0.9189    1.9359   -0.4067 H   0  0  0  0  0  0  0  0  0  0  0  0
    0.0000    0.0000    0.0000 C   0  0  0  0  0  0  0  0  0  0  0  0
   -1.0978   -0.5980   -0.0000 O   0  0  0  0  0  1  0  0  0  0  0  0
    1.0978   -0.5964    0.0000 O   0  0  0  0  0  0  0  0  0  0  0  0
    1.7231    0.1343    4.0811 C   0  0  0  0  0  0  0  0  0  0  0  0
    2.6259   -0.2243    3.8760 H   0  0  0  0  0  0  0  0  0  0  0  0
    1.0219   -0.3825    3.6072 H   0  0  0  0  0  0  0  0  0  0  0  0
    1.5564    0.0109    5.1511 H   0  0  0  0  0  0  0  0  0  0  0  0
    1.6673    1.5701    3.5723 C   0  0  0  0  0  0  0  0  0  0  0  0
    2.3707    2.1085    4.0256 H   0  0  0  0  0  0  0  0  0  0  0  0
    0.6835    1.9821    3.7974 H   0  0  0  0  0  0  0  0  0  0  0  0
    1.9181    1.5923    2.0581 C   0  0  0  0  0  0  0  0  0  0  0  0
    1.2163    1.0498    1.6012 H   0  0  0  0  0  0  0  0  0  0  0  0
    1.8805    2.5351    1.7330 H   0  0  0  0  0  0  0  0  0  0  0  0
    2.8193    1.2062    1.8691 H   0  0  0  0  0  0  0  0  0  0  0  0
  1  5  1  0
  5  6  1  0
  5  7  2  0
  1  2  1  0
  1  3  1  0
  1  4  1  0
  8 12  1  0
 12 15  1  0
  8  9  1  0
  8 10  1  0
  8 11  1  0
 12 13  1  0
 12 14  1  0
 15 16  1  0
 15 17  1  0
 15 18  1  0
M  CHG  1   6  -1
M  END
>  <PDB_ID>  (396) 
pdb2hfn

>  <RESIDUE_NAME>  (396) 
GLU   LEU

>  <FRAG_NAME>  (396) 
ACET   PRPA

>  <FRAG_ATOM_NUM>  (396) 
fragi: 7  fragj: 11

>  <atom.prop.CHAIN_ID>  (396) 
A A A A A A A Z Z Z Z Z Z Z Z Z Z Z

>  <atom.prop.IS_HEAVY_ATOM>  (396) 
1 0 0 0 1 1 1 1 0 0 0 1 0 0 1 0 0 0

>  <DIFUSE_FUNC_ATOM>  (396) 
atom 6   atom 7   

>  <FINAL_SINGLE_POINT_ENERGY>  (396) 
0

>  <NONCOV_INTER_ENERGY_QM>  (396) 
0

>  <FF_Energy>  (396) 
35.21

>  <QM_Energy>  (396) 
7.01

>  <source>  (396) 
ACET_PRPA_03

>  <Index>  (396) 
29932

$$$$
ACET-pdb2hfn-A-GLU-144:PRPA-pdb2hfn-A-LEU-153
     RDKit          3D

 18 16  0  0  0  0  0  0  0  0999 V2000
   -0.0001    1.5156    0.0018 C   0  0  0  0  0  0  0  0  0  0  0  0
   -0.0875    1.8121    0.9348 H   0  0  0  0  0  0  0  0  0  0  0  0
   -0.7522    1.8131   -0.5557 H   0  0  0  0  0  0  0  0  0  0  0  0
    0.9189    1.9359   -0.4067 H   0  0  0  0  0  0  0  0  0  0  0  0
    0.0000    0.0000    0.0000 C   0  0  0  0  0  0  0  0  0  0  0  0
   -1.0978   -0.5980   -0.0000 O   0  0  0  0  0  1  0  0  0  0  0  0
    1.0978   -0.5964    0.0000 O   0  0  0  0  0  0  0  0  0  0  0  0
    1.9181    1.5923    2.0581 C   0  0  0  0  0  0  0  0  0  0  0  0
    1.2163    1.0498    1.6012 H   0  0  0  0  0  0  0  0  0  0  0  0
    1.8805    2.5351    1.7330 H   0  0  0  0  0  0  0  0  0  0  0  0
    2.8193    1.2062    1.8691 H   0  0  0  0  0  0  0  0  0  0  0  0
    1.6673    1.5701    3.5723 C   0  0  0  0  0  0  0  0  0  0  0  0
    2.3707    2.1085    4.0256 H   0  0  0  0  0  0  0  0  0  0  0  0
    1.7071    0.5434    3.9361 H   0  0  0  0  0  0  0  0  0  0  0  0
    0.2957    2.1446    3.8861 C   0  0  0  0  0  0  0  0  0  0  0  0
    0.1446    2.1291    4.8753 H   0  0  0  0  0  0  0  0  0  0  0  0
    0.2448    3.0890    3.5573 H   0  0  0  0  0  0  0  0  0  0  0  0
   -0.4086    1.5966    3.4335 H   0  0  0  0  0  0  0  0  0  0  0  0
  1  5  1  0
  5  6  1  0
  5  7  2  0
  1  2  1  0
  1  3  1  0
  1  4  1  0
  8 12  1  0
 12 15  1  0
  8  9  1  0
  8 10  1  0
  8 11  1  0
 12 13  1  0
 12 14  1  0
 15 16  1  0
 15 17  1  0
 15 18  1  0
M  CHG  1   6  -1
M  END
>  <PDB_ID>  (397) 
pdb2hfn

>  <RESIDUE_NAME>  (397) 
GLU   LEU

>  <FRAG_NAME>  (397) 
ACET   PRPA

>  <FRAG_ATOM_NUM>  (397) 
fragi: 7  fragj: 11

>  <atom.prop.CHAIN_ID>  (397) 
A A A A A A A Z Z Z Z Z Z Z Z Z Z Z

>  <atom.prop.IS_HEAVY_ATOM>  (397) 
1 0 0 0 1 1 1 1 0 0 0 1 0 0 1 0 0 0

>  <DIFUSE_FUNC_ATOM>  (397) 
atom 6   atom 7   

>  <FINAL_SINGLE_POINT_ENERGY>  (397) 
0

>  <NONCOV_INTER_ENERGY_QM>  (397) 
0

>  <FF_Energy>  (397) 
34.99

>  <QM_Energy>  (397) 
7.43

>  <source>  (397) 
ACET_PRPA_03

>  <Index>  (397) 
29952

$$$$
ACET-pdb2hcv-A-ASP-80:PRPA-pdb2hcv-A-ARG-76
     RDKit          3D

 18 16  0  0  0  0  0  0  0  0999 V2000
    0.0142    1.5127    0.0163 C   0  0  0  0  0  0  0  0  0  0  0  0
    0.5272    1.8377   -0.7709 H   0  0  0  0  0  0  0  0  0  0  0  0
    0.4419    1.8213    0.8587 H   0  0  0  0  0  0  0  0  0  0  0  0
   -0.9848    1.9462   -0.0321 H   0  0  0  0  0  0  0  0  0  0  0  0
    0.0000    0.0000    0.0000 C   0  0  0  0  0  0  0  0  0  0  0  0
   -1.0981   -0.5981    0.0000 O   0  0  0  0  0  1  0  0  0  0  0  0
    1.0981   -0.5881   -0.0000 O   0  0  0  0  0  0  0  0  0  0  0  0
    3.7893   -1.2762   -2.4674 C   0  0  0  0  0  0  0  0  0  0  0  0
    4.0608   -1.5874   -3.3692 H   0  0  0  0  0  0  0  0  0  0  0  0
    4.3066   -1.7463   -1.7637 H   0  0  0  0  0  0  0  0  0  0  0  0
    4.0106   -0.2112   -2.3961 H   0  0  0  0  0  0  0  0  0  0  0  0
    2.3305   -1.5803   -2.2740 C   0  0  0  0  0  0  0  0  0  0  0  0
    1.9310   -0.9352   -1.6154 H   0  0  0  0  0  0  0  0  0  0  0  0
    1.8440   -1.4920   -3.1484 H   0  0  0  0  0  0  0  0  0  0  0  0
    2.0820   -2.9898   -1.7492 C   0  0  0  0  0  0  0  0  0  0  0  0
    1.9828   -3.5914   -2.5213 H   0  0  0  0  0  0  0  0  0  0  0  0
    2.8438   -3.2425   -1.1789 H   0  0  0  0  0  0  0  0  0  0  0  0
    1.1648   -2.9925   -1.1603 H   0  0  0  0  0  0  0  0  0  0  0  0
  1  5  1  0
  5  6  1  0
  5  7  2  0
  1  2  1  0
  1  3  1  0
  1  4  1  0
  8 12  1  0
 12 15  1  0
  8  9  1  0
  8 10  1  0
  8 11  1  0
 12 13  1  0
 12 14  1  0
 15 16  1  0
 15 17  1  0
 15 18  1  0
M  CHG  1   6  -1
M  END
>  <PDB_ID>  (398) 
pdb2hcv

>  <RESIDUE_NAME>  (398) 
ASP   ARG

>  <FRAG_NAME>  (398) 
ACET   PRPA

>  <FRAG_ATOM_NUM>  (398) 
fragi: 7  fragj: 11

>  <atom.prop.CHAIN_ID>  (398) 
A A A A A A A Z Z Z Z Z Z Z Z Z Z Z

>  <atom.prop.IS_HEAVY_ATOM>  (398) 
1 0 0 0 1 1 1 1 0 0 0 1 0 0 1 0 0 0

>  <DIFUSE_FUNC_ATOM>  (398) 
atom 6   atom 7   

>  <FINAL_SINGLE_POINT_ENERGY>  (398) 
0

>  <NONCOV_INTER_ENERGY_QM>  (398) 
0

>  <FF_Energy>  (398) 
23.27

>  <QM_Energy>  (398) 
-0.77

>  <source>  (398) 
ACET_PRPA_03

>  <Index>  (398) 
30291

$$$$
ACET-pdb2hoe-A-GLU-54:PRPA-pdb2hoe-A-LYS-69
     RDKit          3D

 18 16  0  0  0  0  0  0  0  0999 V2000
   -0.0017    1.5228    0.0104 C   0  0  0  0  0  0  0  0  0  0  0  0
    0.8873    1.8218   -0.2770 H   0  0  0  0  0  0  0  0  0  0  0  0
   -0.2200    1.8116    0.9229 H   0  0  0  0  0  0  0  0  0  0  0  0
   -0.7408    1.9463   -0.6695 H   0  0  0  0  0  0  0  0  0  0  0  0
    0.0000    0.0000    0.0000 C   0  0  0  0  0  0  0  0  0  0  0  0
   -1.1015   -0.6119   -0.0000 O   0  0  0  0  0  1  0  0  0  0  0  0
    1.1015   -0.5859    0.0000 O   0  0  0  0  0  0  0  0  0  0  0  0
   -4.2239   -0.9002    2.0952 C   0  0  0  0  0  0  0  0  0  0  0  0
   -5.1854   -1.0968    1.8852 H   0  0  0  0  0  0  0  0  0  0  0  0
   -4.0865    0.0938    2.0892 H   0  0  0  0  0  0  0  0  0  0  0  0
   -4.0001   -1.2790    3.0925 H   0  0  0  0  0  0  0  0  0  0  0  0
   -3.3479   -1.5288    1.0420 C   0  0  0  0  0  0  0  0  0  0  0  0
   -2.3877   -1.3308    1.2572 H   0  0  0  0  0  0  0  0  0  0  0  0
   -3.4862   -2.5215    1.0507 H   0  0  0  0  0  0  0  0  0  0  0  0
   -3.6413   -1.0166   -0.3500 C   0  0  0  0  0  0  0  0  0  0  0  0
   -4.5947   -1.2154   -0.5786 H   0  0  0  0  0  0  0  0  0  0  0  0
   -3.4964   -0.0262   -0.3729 H   0  0  0  0  0  0  0  0  0  0  0  0
   -2.9904   -1.4903   -1.0848 H   0  0  0  0  0  0  0  0  0  0  0  0
  1  5  1  0
  5  6  1  0
  5  7  2  0
  1  2  1  0
  1  3  1  0
  1  4  1  0
  8 12  1  0
 12 15  1  0
  8  9  1  0
  8 10  1  0
  8 11  1  0
 12 13  1  0
 12 14  1  0
 15 16  1  0
 15 17  1  0
 15 18  1  0
M  CHG  1   6  -1
M  END
>  <PDB_ID>  (399) 
pdb2hoe

>  <RESIDUE_NAME>  (399) 
GLU   LYS

>  <FRAG_NAME>  (399) 
ACET   PRPA

>  <FRAG_ATOM_NUM>  (399) 
fragi: 7  fragj: 11

>  <atom.prop.CHAIN_ID>  (399) 
A A A A A A A Z Z Z Z Z Z Z Z Z Z Z

>  <atom.prop.IS_HEAVY_ATOM>  (399) 
1 0 0 0 1 1 1 1 0 0 0 1 0 0 1 0 0 0

>  <DIFUSE_FUNC_ATOM>  (399) 
atom 6   atom 7   

>  <FINAL_SINGLE_POINT_ENERGY>  (399) 
0

>  <NONCOV_INTER_ENERGY_QM>  (399) 
0

>  <FF_Energy>  (399) 
22.87

>  <QM_Energy>  (399) 
2.37

>  <source>  (399) 
ACET_PRPA_03

>  <Index>  (399) 
30339

$$$$
ACET-pdb2hoq-A-ASP-134:PRPA-pdb2hoq-A-LEU-129
     RDKit          3D

 18 16  0  0  0  0  0  0  0  0999 V2000
   -0.0057    1.5172   -0.0117 C   0  0  0  0  0  0  0  0  0  0  0  0
    0.9265    1.8392   -0.1073 H   0  0  0  0  0  0  0  0  0  0  0  0
   -0.4078    1.8415    0.8332 H   0  0  0  0  0  0  0  0  0  0  0  0
   -0.5889    1.9177   -0.8409 H   0  0  0  0  0  0  0  0  0  0  0  0
    0.0000    0.0000    0.0000 C   0  0  0  0  0  0  0  0  0  0  0  0
   -1.0961   -0.5957    0.0000 O   0  0  0  0  0  1  0  0  0  0  0  0
    1.0961   -0.5961   -0.0000 O   0  0  0  0  0  0  0  0  0  0  0  0
   -2.1751   -3.4310    2.3979 C   0  0  0  0  0  0  0  0  0  0  0  0
   -2.8842   -4.0889    2.6637 H   0  0  0  0  0  0  0  0  0  0  0  0
   -1.2792   -3.7884    2.6690 H   0  0  0  0  0  0  0  0  0  0  0  0
   -2.1866   -3.3530    1.3107 H   0  0  0  0  0  0  0  0  0  0  0  0
   -2.4179   -2.1536    3.2093 C   0  0  0  0  0  0  0  0  0  0  0  0
   -3.3621   -1.8774    3.1036 H   0  0  0  0  0  0  0  0  0  0  0  0
   -2.2163   -2.3733    4.2578 H   0  0  0  0  0  0  0  0  0  0  0  0
   -1.5024   -1.0256    2.7359 C   0  0  0  0  0  0  0  0  0  0  0  0
   -1.6838   -0.8340    1.7713 H   0  0  0  0  0  0  0  0  0  0  0  0
   -1.6789   -0.2050    3.2787 H   0  0  0  0  0  0  0  0  0  0  0  0
   -0.5484   -1.3029    2.8487 H   0  0  0  0  0  0  0  0  0  0  0  0
  1  5  1  0
  5  6  1  0
  5  7  2  0
  1  2  1  0
  1  3  1  0
  1  4  1  0
  8 12  1  0
 12 15  1  0
  8  9  1  0
  8 10  1  0
  8 11  1  0
 12 13  1  0
 12 14  1  0
 15 16  1  0
 15 17  1  0
 15 18  1  0
M  CHG  1   6  -1
M  END
>  <PDB_ID>  (400) 
pdb2hoq

>  <RESIDUE_NAME>  (400) 
ASP   LEU

>  <FRAG_NAME>  (400) 
ACET   PRPA

>  <FRAG_ATOM_NUM>  (400) 
fragi: 7  fragj: 11

>  <atom.prop.CHAIN_ID>  (400) 
A A A A A A A Z Z Z Z Z Z Z Z Z Z Z

>  <atom.prop.IS_HEAVY_ATOM>  (400) 
1 0 0 0 1 1 1 1 0 0 0 1 0 0 1 0 0 0

>  <DIFUSE_FUNC_ATOM>  (400) 
atom 6   atom 7   

>  <FINAL_SINGLE_POINT_ENERGY>  (400) 
0

>  <NONCOV_INTER_ENERGY_QM>  (400) 
0

>  <FF_Energy>  (400) 
16.76

>  <QM_Energy>  (400) 
0.06

>  <source>  (400) 
ACET_PRPA_03

>  <Index>  (400) 
31188

$$$$
ACET-pdb2hoq-A-ASP-134:PRPA-pdb2hoq-A-LEU-129
     RDKit          3D

 18 16  0  0  0  0  0  0  0  0999 V2000
   -0.0057    1.5172   -0.0117 C   0  0  0  0  0  0  0  0  0  0  0  0
    0.9265    1.8392   -0.1073 H   0  0  0  0  0  0  0  0  0  0  0  0
   -0.4078    1.8415    0.8332 H   0  0  0  0  0  0  0  0  0  0  0  0
   -0.5889    1.9177   -0.8409 H   0  0  0  0  0  0  0  0  0  0  0  0
    0.0000    0.0000    0.0000 C   0  0  0  0  0  0  0  0  0  0  0  0
   -1.0961   -0.5957    0.0000 O   0  0  0  0  0  1  0  0  0  0  0  0
    1.0961   -0.5961   -0.0000 O   0  0  0  0  0  0  0  0  0  0  0  0
   -2.1365   -2.4603    4.6731 C   0  0  0  0  0  0  0  0  0  0  0  0
   -1.1870   -2.7577    4.7765 H   0  0  0  0  0  0  0  0  0  0  0  0
   -2.2890   -1.6388    5.2222 H   0  0  0  0  0  0  0  0  0  0  0  0
   -2.7479   -3.1873    4.9854 H   0  0  0  0  0  0  0  0  0  0  0  0
   -2.4179   -2.1536    3.2093 C   0  0  0  0  0  0  0  0  0  0  0  0
   -3.3621   -1.8774    3.1036 H   0  0  0  0  0  0  0  0  0  0  0  0
   -2.2452   -3.0621    2.6322 H   0  0  0  0  0  0  0  0  0  0  0  0
   -1.5024   -1.0256    2.7359 C   0  0  0  0  0  0  0  0  0  0  0  0
   -1.6838   -0.8340    1.7713 H   0  0  0  0  0  0  0  0  0  0  0  0
   -1.6789   -0.2050    3.2787 H   0  0  0  0  0  0  0  0  0  0  0  0
   -0.5484   -1.3029    2.8487 H   0  0  0  0  0  0  0  0  0  0  0  0
  1  5  1  0
  5  6  1  0
  5  7  2  0
  1  2  1  0
  1  3  1  0
  1  4  1  0
  8 12  1  0
 12 15  1  0
  8  9  1  0
  8 10  1  0
  8 11  1  0
 12 13  1  0
 12 14  1  0
 15 16  1  0
 15 17  1  0
 15 18  1  0
M  CHG  1   6  -1
M  END
>  <PDB_ID>  (401) 
pdb2hoq

>  <RESIDUE_NAME>  (401) 
ASP   LEU

>  <FRAG_NAME>  (401) 
ACET   PRPA

>  <FRAG_ATOM_NUM>  (401) 
fragi: 7  fragj: 11

>  <atom.prop.CHAIN_ID>  (401) 
A A A A A A A Z Z Z Z Z Z Z Z Z Z Z

>  <atom.prop.IS_HEAVY_ATOM>  (401) 
1 0 0 0 1 1 1 1 0 0 0 1 0 0 1 0 0 0

>  <DIFUSE_FUNC_ATOM>  (401) 
atom 6   atom 7   

>  <FINAL_SINGLE_POINT_ENERGY>  (401) 
0

>  <NONCOV_INTER_ENERGY_QM>  (401) 
0

>  <FF_Energy>  (401) 
16.25

>  <QM_Energy>  (401) 
0.55

>  <source>  (401) 
ACET_PRPA_03

>  <Index>  (401) 
31198

$$$$
ACET-pdb1fwx-C-ASP-116:PRPA-pdb1fwx-C-ARG-107
     RDKit          3D

 18 16  0  0  0  0  0  0  0  0999 V2000
   -0.0173    1.5252   -0.0193 C   0  0  0  0  0  0  0  0  0  0  0  0
   -0.8388    1.8408    0.4413 H   0  0  0  0  0  0  0  0  0  0  0  0
   -0.0063    1.8322   -0.9629 H   0  0  0  0  0  0  0  0  0  0  0  0
    0.8398    1.9697    0.4865 H   0  0  0  0  0  0  0  0  0  0  0  0
    0.0000    0.0000    0.0000 C   0  0  0  0  0  0  0  0  0  0  0  0
   -1.0936   -0.6172   -0.0000 O   0  0  0  0  0  1  0  0  0  0  0  0
    1.0936   -0.5941    0.0000 O   0  0  0  0  0  0  0  0  0  0  0  0
    3.9821   -3.0415    0.0477 C   0  0  0  0  0  0  0  0  0  0  0  0
    4.2907   -3.9043    0.4271 H   0  0  0  0  0  0  0  0  0  0  0  0
    3.5532   -2.4829    0.7446 H   0  0  0  0  0  0  0  0  0  0  0  0
    4.8507   -2.5057   -0.3353 H   0  0  0  0  0  0  0  0  0  0  0  0
    2.9462   -3.3381   -1.0248 C   0  0  0  0  0  0  0  0  0  0  0  0
    3.0593   -2.7039   -1.7792 H   0  0  0  0  0  0  0  0  0  0  0  0
    3.0503   -4.2745   -1.3353 H   0  0  0  0  0  0  0  0  0  0  0  0
    1.5450   -3.1740   -0.4676 C   0  0  0  0  0  0  0  0  0  0  0  0
    1.5365   -2.3588    0.1084 H   0  0  0  0  0  0  0  0  0  0  0  0
    0.9216   -3.0511   -1.2371 H   0  0  0  0  0  0  0  0  0  0  0  0
    1.2375   -4.0401    0.1186 H   0  0  0  0  0  0  0  0  0  0  0  0
  1  5  1  0
  5  6  1  0
  5  7  2  0
  1  2  1  0
  1  3  1  0
  1  4  1  0
  8 12  1  0
 12 15  1  0
  8  9  1  0
  8 10  1  0
  8 11  1  0
 12 13  1  0
 12 14  1  0
 15 16  1  0
 15 17  1  0
 15 18  1  0
M  CHG  1   6  -1
M  END
>  <PDB_ID>  (402) 
pdb1fwx

>  <RESIDUE_NAME>  (402) 
ASP   ARG

>  <FRAG_NAME>  (402) 
ACET   PRPA

>  <FRAG_ATOM_NUM>  (402) 
fragi: 7  fragj: 11

>  <atom.prop.CHAIN_ID>  (402) 
A A A A A A A Z Z Z Z Z Z Z Z Z Z Z

>  <atom.prop.IS_HEAVY_ATOM>  (402) 
1 0 0 0 1 1 1 1 0 0 0 1 0 0 1 0 0 0

>  <DIFUSE_FUNC_ATOM>  (402) 
atom 6   atom 7   

>  <FINAL_SINGLE_POINT_ENERGY>  (402) 
0

>  <NONCOV_INTER_ENERGY_QM>  (402) 
0

>  <FF_Energy>  (402) 
26.05

>  <QM_Energy>  (402) 
2.19

>  <source>  (402) 
ACET_PRPA_03

>  <Index>  (402) 
31618

$$$$
ACET-pdb2hwn-F-GLU-2:PRPA-pdb2hwn-C-VAL-18
     RDKit          3D

 18 16  0  0  0  0  0  0  0  0999 V2000
    0.1493    1.4842    0.0129 C   0  0  0  0  0  0  0  0  0  0  0  0
   -0.4433    1.8478    0.7379 H   0  0  0  0  0  0  0  0  0  0  0  0
   -0.1737    1.8346   -0.8715 H   0  0  0  0  0  0  0  0  0  0  0  0
    1.1477    1.8891    0.1779 H   0  0  0  0  0  0  0  0  0  0  0  0
    0.0000    0.0000    0.0000 C   0  0  0  0  0  0  0  0  0  0  0  0
   -1.0904   -0.5648    0.0000 O   0  0  0  0  0  1  0  0  0  0  0  0
    1.0904   -0.5954   -0.0000 O   0  0  0  0  0  0  0  0  0  0  0  0
   -4.7108   -0.6837   -0.1663 C   0  0  0  0  0  0  0  0  0  0  0  0
   -4.2423   -0.8145   -1.0449 H   0  0  0  0  0  0  0  0  0  0  0  0
   -5.7515   -0.9858   -0.2834 H   0  0  0  0  0  0  0  0  0  0  0  0
   -4.2100   -1.3103    0.5717 H   0  0  0  0  0  0  0  0  0  0  0  0
   -4.5374    0.8364    0.0973 C   0  0  0  0  0  0  0  0  0  0  0  0
   -5.1681    1.3193   -0.5057 H   0  0  0  0  0  0  0  0  0  0  0  0
   -4.8104    1.1014    1.1188 H   0  0  0  0  0  0  0  0  0  0  0  0
   -3.0980    1.2592   -0.2439 C   0  0  0  0  0  0  0  0  0  0  0  0
   -3.0555    1.5059   -1.2087 H   0  0  0  0  0  0  0  0  0  0  0  0
   -2.8503    2.0418    0.3214 H   0  0  0  0  0  0  0  0  0  0  0  0
   -2.4857    0.4945   -0.0585 H   0  0  0  0  0  0  0  0  0  0  0  0
  1  5  1  0
  5  6  1  0
  5  7  2  0
  1  2  1  0
  1  3  1  0
  1  4  1  0
  8 12  1  0
 12 15  1  0
  8  9  1  0
  8 10  1  0
  8 11  1  0
 12 13  1  0
 12 14  1  0
 15 16  1  0
 15 17  1  0
 15 18  1  0
M  CHG  1   6  -1
M  END
>  <PDB_ID>  (403) 
pdb2hwn

>  <RESIDUE_NAME>  (403) 
GLU   VAL

>  <FRAG_NAME>  (403) 
ACET   PRPA

>  <FRAG_ATOM_NUM>  (403) 
fragi: 7  fragj: 11

>  <atom.prop.CHAIN_ID>  (403) 
A A A A A A A Z Z Z Z Z Z Z Z Z Z Z

>  <atom.prop.IS_HEAVY_ATOM>  (403) 
1 0 0 0 1 1 1 1 0 0 0 1 0 0 1 0 0 0

>  <DIFUSE_FUNC_ATOM>  (403) 
atom 6   atom 7   

>  <FINAL_SINGLE_POINT_ENERGY>  (403) 
0

>  <NONCOV_INTER_ENERGY_QM>  (403) 
0

>  <FF_Energy>  (403) 
39.93

>  <QM_Energy>  (403) 
2.71

>  <source>  (403) 
ACET_PRPA_03

>  <Index>  (403) 
34313

$$$$
ACET-pdb2hwn-F-GLU-2:PRPA-pdb2hwn-C-VAL-18
     RDKit          3D

 18 16  0  0  0  0  0  0  0  0999 V2000
    0.1493    1.4842    0.0129 C   0  0  0  0  0  0  0  0  0  0  0  0
   -0.4433    1.8478    0.7379 H   0  0  0  0  0  0  0  0  0  0  0  0
   -0.1737    1.8346   -0.8715 H   0  0  0  0  0  0  0  0  0  0  0  0
    1.1477    1.8891    0.1779 H   0  0  0  0  0  0  0  0  0  0  0  0
    0.0000    0.0000    0.0000 C   0  0  0  0  0  0  0  0  0  0  0  0
   -1.0904   -0.5648    0.0000 O   0  0  0  0  0  1  0  0  0  0  0  0
    1.0904   -0.5954   -0.0000 O   0  0  0  0  0  0  0  0  0  0  0  0
   -4.9208    1.2088    1.5326 C   0  0  0  0  0  0  0  0  0  0  0  0
   -4.6293    0.4815    2.1507 H   0  0  0  0  0  0  0  0  0  0  0  0
   -4.4696    2.0640    1.7826 H   0  0  0  0  0  0  0  0  0  0  0  0
   -5.9110    1.3226    1.5900 H   0  0  0  0  0  0  0  0  0  0  0  0
   -4.5374    0.8364    0.0973 C   0  0  0  0  0  0  0  0  0  0  0  0
   -5.1681    1.3193   -0.5057 H   0  0  0  0  0  0  0  0  0  0  0  0
   -4.6591   -0.2308   -0.0878 H   0  0  0  0  0  0  0  0  0  0  0  0
   -3.0980    1.2592   -0.2439 C   0  0  0  0  0  0  0  0  0  0  0  0
   -3.0555    1.5059   -1.2087 H   0  0  0  0  0  0  0  0  0  0  0  0
   -2.8503    2.0418    0.3214 H   0  0  0  0  0  0  0  0  0  0  0  0
   -2.4857    0.4945   -0.0585 H   0  0  0  0  0  0  0  0  0  0  0  0
  1  5  1  0
  5  6  1  0
  5  7  2  0
  1  2  1  0
  1  3  1  0
  1  4  1  0
  8 12  1  0
 12 15  1  0
  8  9  1  0
  8 10  1  0
  8 11  1  0
 12 13  1  0
 12 14  1  0
 15 16  1  0
 15 17  1  0
 15 18  1  0
M  CHG  1   6  -1
M  END
>  <PDB_ID>  (404) 
pdb2hwn

>  <RESIDUE_NAME>  (404) 
GLU   VAL

>  <FRAG_NAME>  (404) 
ACET   PRPA

>  <FRAG_ATOM_NUM>  (404) 
fragi: 7  fragj: 11

>  <atom.prop.CHAIN_ID>  (404) 
A A A A A A A Z Z Z Z Z Z Z Z Z Z Z

>  <atom.prop.IS_HEAVY_ATOM>  (404) 
1 0 0 0 1 1 1 1 0 0 0 1 0 0 1 0 0 0

>  <DIFUSE_FUNC_ATOM>  (404) 
atom 6   atom 7   

>  <FINAL_SINGLE_POINT_ENERGY>  (404) 
0

>  <NONCOV_INTER_ENERGY_QM>  (404) 
0

>  <FF_Energy>  (404) 
39.73

>  <QM_Energy>  (404) 
3.35

>  <source>  (404) 
ACET_PRPA_03

>  <Index>  (404) 
34319

$$$$
ACET-pdb2huf-B-ASP-56:PRPA-pdb2huf-A-VAL-10
     RDKit          3D

 18 16  0  0  0  0  0  0  0  0999 V2000
    0.0308    1.5131   -0.0235 C   0  0  0  0  0  0  0  0  0  0  0  0
    0.6317    1.8101   -0.7592 H   0  0  0  0  0  0  0  0  0  0  0  0
    0.3719    1.8410    0.8516 H   0  0  0  0  0  0  0  0  0  0  0  0
   -0.9507    1.9566   -0.1906 H   0  0  0  0  0  0  0  0  0  0  0  0
    0.0000    0.0000    0.0000 C   0  0  0  0  0  0  0  0  0  0  0  0
   -1.1082   -0.6030    0.0000 O   0  0  0  0  0  1  0  0  0  0  0  0
    1.1082   -0.5774   -0.0000 O   0  0  0  0  0  0  0  0  0  0  0  0
   -0.6375   -1.6296    4.7039 C   0  0  0  0  0  0  0  0  0  0  0  0
   -0.4088   -2.6193    4.6934 H   0  0  0  0  0  0  0  0  0  0  0  0
   -1.2265   -1.4227    5.5976 H   0  0  0  0  0  0  0  0  0  0  0  0
    0.3007   -1.0753    4.6777 H   0  0  0  0  0  0  0  0  0  0  0  0
   -1.4779   -1.4222    3.4118 C   0  0  0  0  0  0  0  0  0  0  0  0
   -2.3150   -1.9588    3.5077 H   0  0  0  0  0  0  0  0  0  0  0  0
   -1.7839   -0.3845    3.2792 H   0  0  0  0  0  0  0  0  0  0  0  0
   -0.7279   -1.9308    2.2577 C   0  0  0  0  0  0  0  0  0  0  0  0
    0.0808   -2.4534    2.5588 H   0  0  0  0  0  0  0  0  0  0  0  0
   -1.3053   -2.5395    1.6970 H   0  0  0  0  0  0  0  0  0  0  0  0
   -0.4119   -1.1709    1.6741 H   0  0  0  0  0  0  0  0  0  0  0  0
  1  5  1  0
  5  6  1  0
  5  7  2  0
  1  2  1  0
  1  3  1  0
  1  4  1  0
  8 12  1  0
 12 15  1  0
  8  9  1  0
  8 10  1  0
  8 11  1  0
 12 13  1  0
 12 14  1  0
 15 16  1  0
 15 17  1  0
 15 18  1  0
M  CHG  1   6  -1
M  END
>  <PDB_ID>  (405) 
pdb2huf

>  <RESIDUE_NAME>  (405) 
ASP   VAL

>  <FRAG_NAME>  (405) 
ACET   PRPA

>  <FRAG_ATOM_NUM>  (405) 
fragi: 7  fragj: 11

>  <atom.prop.CHAIN_ID>  (405) 
A A A A A A A Z Z Z Z Z Z Z Z Z Z Z

>  <atom.prop.IS_HEAVY_ATOM>  (405) 
1 0 0 0 1 1 1 1 0 0 0 1 0 0 1 0 0 0

>  <DIFUSE_FUNC_ATOM>  (405) 
atom 6   atom 7   

>  <FINAL_SINGLE_POINT_ENERGY>  (405) 
0

>  <NONCOV_INTER_ENERGY_QM>  (405) 
0

>  <FF_Energy>  (405) 
29.26

>  <QM_Energy>  (405) 
5.11

>  <source>  (405) 
ACET_PRPA_03

>  <Index>  (405) 
34782

$$$$
ACET-pdb2huf-B-ASP-56:PRPA-pdb2huf-A-VAL-10
     RDKit          3D

 18 16  0  0  0  0  0  0  0  0999 V2000
    0.0308    1.5131   -0.0235 C   0  0  0  0  0  0  0  0  0  0  0  0
    0.6317    1.8101   -0.7592 H   0  0  0  0  0  0  0  0  0  0  0  0
    0.3719    1.8410    0.8516 H   0  0  0  0  0  0  0  0  0  0  0  0
   -0.9507    1.9566   -0.1906 H   0  0  0  0  0  0  0  0  0  0  0  0
    0.0000    0.0000    0.0000 C   0  0  0  0  0  0  0  0  0  0  0  0
   -1.1082   -0.6030    0.0000 O   0  0  0  0  0  1  0  0  0  0  0  0
    1.1082   -0.5774   -0.0000 O   0  0  0  0  0  0  0  0  0  0  0  0
   -1.9100    0.0432    3.2246 C   0  0  0  0  0  0  0  0  0  0  0  0
   -2.4132    0.3396    4.0322 H   0  0  0  0  0  0  0  0  0  0  0  0
   -1.0979    0.6089    3.1034 H   0  0  0  0  0  0  0  0  0  0  0  0
   -2.4931    0.1098    2.4184 H   0  0  0  0  0  0  0  0  0  0  0  0
   -1.4779   -1.4222    3.4118 C   0  0  0  0  0  0  0  0  0  0  0  0
   -2.3150   -1.9588    3.5077 H   0  0  0  0  0  0  0  0  0  0  0  0
   -0.8889   -1.5676    4.3173 H   0  0  0  0  0  0  0  0  0  0  0  0
   -0.7279   -1.9308    2.2577 C   0  0  0  0  0  0  0  0  0  0  0  0
    0.0808   -2.4534    2.5588 H   0  0  0  0  0  0  0  0  0  0  0  0
   -1.3053   -2.5395    1.6970 H   0  0  0  0  0  0  0  0  0  0  0  0
   -0.4119   -1.1709    1.6741 H   0  0  0  0  0  0  0  0  0  0  0  0
  1  5  1  0
  5  6  1  0
  5  7  2  0
  1  2  1  0
  1  3  1  0
  1  4  1  0
  8 12  1  0
 12 15  1  0
  8  9  1  0
  8 10  1  0
  8 11  1  0
 12 13  1  0
 12 14  1  0
 15 16  1  0
 15 17  1  0
 15 18  1  0
M  CHG  1   6  -1
M  END
>  <PDB_ID>  (406) 
pdb2huf

>  <RESIDUE_NAME>  (406) 
ASP   VAL

>  <FRAG_NAME>  (406) 
ACET   PRPA

>  <FRAG_ATOM_NUM>  (406) 
fragi: 7  fragj: 11

>  <atom.prop.CHAIN_ID>  (406) 
A A A A A A A Z Z Z Z Z Z Z Z Z Z Z

>  <atom.prop.IS_HEAVY_ATOM>  (406) 
1 0 0 0 1 1 1 1 0 0 0 1 0 0 1 0 0 0

>  <DIFUSE_FUNC_ATOM>  (406) 
atom 6   atom 7   

>  <FINAL_SINGLE_POINT_ENERGY>  (406) 
0

>  <NONCOV_INTER_ENERGY_QM>  (406) 
0

>  <FF_Energy>  (406) 
29.54

>  <QM_Energy>  (406) 
4.66

>  <source>  (406) 
ACET_PRPA_03

>  <Index>  (406) 
34790

$$$$
ACET-pdb2hy5-A-ASP-130:PRPA-pdb2hy5-A-GLH-9
     RDKit          3D

 18 16  0  0  0  0  0  0  0  0999 V2000
    0.0076    1.5003   -0.0152 C   0  0  0  0  0  0  0  0  0  0  0  0
   -0.6164    1.8368    0.6818 H   0  0  0  0  0  0  0  0  0  0  0  0
   -0.2714    1.8183   -0.9137 H   0  0  0  0  0  0  0  0  0  0  0  0
    0.9957    1.9100    0.1944 H   0  0  0  0  0  0  0  0  0  0  0  0
    0.0000    0.0000    0.0000 C   0  0  0  0  0  0  0  0  0  0  0  0
   -1.1022   -0.5896   -0.0000 O   0  0  0  0  0  1  0  0  0  0  0  0
    1.1022   -0.5908   -0.0000 O   0  0  0  0  0  0  0  0  0  0  0  0
    0.2399   -3.9319    3.8610 C   0  0  0  0  0  0  0  0  0  0  0  0
   -0.7550   -3.6960    3.8869 H   0  0  0  0  0  0  0  0  0  0  0  0
    0.7516   -3.4122    4.6711 H   0  0  0  0  0  0  0  0  0  0  0  0
    0.3559   -5.0155    3.8843 H   0  0  0  0  0  0  0  0  0  0  0  0
    0.7415   -3.4061    2.5190 C   0  0  0  0  0  0  0  0  0  0  0  0
    1.6555   -3.7473    2.3868 H   0  0  0  0  0  0  0  0  0  0  0  0
    0.1238   -3.7250    1.8227 H   0  0  0  0  0  0  0  0  0  0  0  0
    0.7950   -1.8975    2.4364 C   0  0  0  0  0  0  0  0  0  0  0  0
    1.4413   -1.5712    3.1024 H   0  0  0  0  0  0  0  0  0  0  0  0
    1.0475   -1.6421    1.5196 H   0  0  0  0  0  0  0  0  0  0  0  0
   -0.1637   -1.4264    2.6534 H   0  0  0  0  0  0  0  0  0  0  0  0
  1  5  1  0
  5  6  1  0
  5  7  2  0
  1  2  1  0
  1  3  1  0
  1  4  1  0
  8 12  1  0
 12 15  1  0
  8  9  1  0
  8 10  1  0
  8 11  1  0
 12 13  1  0
 12 14  1  0
 15 16  1  0
 15 17  1  0
 15 18  1  0
M  CHG  1   6  -1
M  END
>  <PDB_ID>  (407) 
pdb2hy5

>  <RESIDUE_NAME>  (407) 
ASP   GLH

>  <FRAG_NAME>  (407) 
ACET   PRPA

>  <FRAG_ATOM_NUM>  (407) 
fragi: 7  fragj: 11

>  <atom.prop.CHAIN_ID>  (407) 
A A A A A A A Z Z Z Z Z Z Z Z Z Z Z

>  <atom.prop.IS_HEAVY_ATOM>  (407) 
1 0 0 0 1 1 1 1 0 0 0 1 0 0 1 0 0 0

>  <DIFUSE_FUNC_ATOM>  (407) 
atom 6   atom 7   

>  <FINAL_SINGLE_POINT_ENERGY>  (407) 
0

>  <NONCOV_INTER_ENERGY_QM>  (407) 
0

>  <FF_Energy>  (407) 
20.99

>  <QM_Energy>  (407) 
-0.14

>  <source>  (407) 
ACET_PRPA_03

>  <Index>  (407) 
34938

$$$$
ACET-pdb1gtm-A-ASP-290:PRPA-pdb1gtm-A-LYS-213
     RDKit          3D

 18 16  0  0  0  0  0  0  0  0999 V2000
    0.2021    1.4860   -0.0606 C   0  0  0  0  0  0  0  0  0  0  0  0
    0.8029    1.7008   -0.7857 H   0  0  0  0  0  0  0  0  0  0  0  0
    0.4678    1.8123    0.8079 H   0  0  0  0  0  0  0  0  0  0  0  0
   -0.7788    1.8989   -0.2959 H   0  0  0  0  0  0  0  0  0  0  0  0
    0.0000    0.0000    0.0000 C   0  0  0  0  0  0  0  0  0  0  0  0
   -1.1178   -0.4881   -0.0000 O   0  0  0  0  0  1  0  0  0  0  0  0
    1.1178   -0.6904    0.0000 O   0  0  0  0  0  0  0  0  0  0  0  0
    4.0705   -1.1937   -1.4322 C   0  0  0  0  0  0  0  0  0  0  0  0
    3.4135   -1.8326   -0.9937 H   0  0  0  0  0  0  0  0  0  0  0  0
    5.0567   -1.6570   -1.4609 H   0  0  0  0  0  0  0  0  0  0  0  0
    3.6881   -0.9450   -2.4221 H   0  0  0  0  0  0  0  0  0  0  0  0
    3.9012   -0.1766   -0.3190 C   0  0  0  0  0  0  0  0  0  0  0  0
    4.3327    0.6776   -0.5977 H   0  0  0  0  0  0  0  0  0  0  0  0
    2.9260   -0.0297   -0.1663 H   0  0  0  0  0  0  0  0  0  0  0  0
    4.5265   -0.6062    1.0115 C   0  0  0  0  0  0  0  0  0  0  0  0
    4.9427   -1.5184    0.8963 H   0  0  0  0  0  0  0  0  0  0  0  0
    5.2593    0.0438    1.2529 H   0  0  0  0  0  0  0  0  0  0  0  0
    3.8223   -0.6537    1.8422 H   0  0  0  0  0  0  0  0  0  0  0  0
  1  5  1  0
  5  6  1  0
  5  7  2  0
  1  2  1  0
  1  3  1  0
  1  4  1  0
  8 12  1  0
 12 15  1  0
  8  9  1  0
  8 10  1  0
  8 11  1  0
 12 13  1  0
 12 14  1  0
 15 16  1  0
 15 17  1  0
 15 18  1  0
M  CHG  1   6  -1
M  END
>  <PDB_ID>  (408) 
pdb1gtm

>  <RESIDUE_NAME>  (408) 
ASP   LYS

>  <FRAG_NAME>  (408) 
ACET   PRPA

>  <FRAG_ATOM_NUM>  (408) 
fragi: 7  fragj: 11

>  <atom.prop.CHAIN_ID>  (408) 
A A A A A A A Z Z Z Z Z Z Z Z Z Z Z

>  <atom.prop.IS_HEAVY_ATOM>  (408) 
1 0 0 0 1 1 1 1 0 0 0 1 0 0 1 0 0 0

>  <DIFUSE_FUNC_ATOM>  (408) 
atom 6   atom 7   

>  <FINAL_SINGLE_POINT_ENERGY>  (408) 
0

>  <NONCOV_INTER_ENERGY_QM>  (408) 
0

>  <FF_Energy>  (408) 
12.71

>  <QM_Energy>  (408) 
-3.75

>  <source>  (408) 
ACET_PRPA_03

>  <Index>  (408) 
35076

$$$$
ACET-pdb1fyz-F-ASP-10:PRPA-pdb1fyz-F-LYS-3
     RDKit          3D

 18 16  0  0  0  0  0  0  0  0999 V2000
   -0.0033    1.5087    0.0179 C   0  0  0  0  0  0  0  0  0  0  0  0
    0.8606    1.8381   -0.3457 H   0  0  0  0  0  0  0  0  0  0  0  0
   -0.1304    1.8215    0.9513 H   0  0  0  0  0  0  0  0  0  0  0  0
   -0.8039    1.9326   -0.5883 H   0  0  0  0  0  0  0  0  0  0  0  0
    0.0000    0.0000    0.0000 C   0  0  0  0  0  0  0  0  0  0  0  0
   -1.0985   -0.5944   -0.0000 O   0  0  0  0  0  1  0  0  0  0  0  0
    1.0985   -0.5895   -0.0000 O   0  0  0  0  0  0  0  0  0  0  0  0
    0.7138   -1.8294   -2.8601 C   0  0  0  0  0  0  0  0  0  0  0  0
    0.2721   -1.4782   -2.0361 H   0  0  0  0  0  0  0  0  0  0  0  0
   -0.0520   -2.2855   -3.4876 H   0  0  0  0  0  0  0  0  0  0  0  0
    1.1873   -1.0053   -3.3937 H   0  0  0  0  0  0  0  0  0  0  0  0
    1.7566   -2.8796   -2.4683 C   0  0  0  0  0  0  0  0  0  0  0  0
    1.2724   -3.6868   -2.1350 H   0  0  0  0  0  0  0  0  0  0  0  0
    2.2786   -3.1173   -3.2872 H   0  0  0  0  0  0  0  0  0  0  0  0
    2.7237   -2.4229   -1.3968 C   0  0  0  0  0  0  0  0  0  0  0  0
    3.3848   -1.7902   -1.7999 H   0  0  0  0  0  0  0  0  0  0  0  0
    2.2166   -1.9598   -0.6716 H   0  0  0  0  0  0  0  0  0  0  0  0
    3.2601   -3.2698   -0.9688 H   0  0  0  0  0  0  0  0  0  0  0  0
  1  5  1  0
  5  6  1  0
  5  7  2  0
  1  2  1  0
  1  3  1  0
  1  4  1  0
  8 12  1  0
 12 15  1  0
  8  9  1  0
  8 10  1  0
  8 11  1  0
 12 13  1  0
 12 14  1  0
 15 16  1  0
 15 17  1  0
 15 18  1  0
M  CHG  1   6  -1
M  END
>  <PDB_ID>  (409) 
pdb1fyz

>  <RESIDUE_NAME>  (409) 
ASP   LYS

>  <FRAG_NAME>  (409) 
ACET   PRPA

>  <FRAG_ATOM_NUM>  (409) 
fragi: 7  fragj: 11

>  <atom.prop.CHAIN_ID>  (409) 
A A A A A A A Z Z Z Z Z Z Z Z Z Z Z

>  <atom.prop.IS_HEAVY_ATOM>  (409) 
1 0 0 0 1 1 1 1 0 0 0 1 0 0 1 0 0 0

>  <DIFUSE_FUNC_ATOM>  (409) 
atom 6   atom 7   

>  <FINAL_SINGLE_POINT_ENERGY>  (409) 
0

>  <NONCOV_INTER_ENERGY_QM>  (409) 
0

>  <FF_Energy>  (409) 
16.81

>  <QM_Energy>  (409) 
-2.38

>  <source>  (409) 
ACET_PRPA_03

>  <Index>  (409) 
38251

$$$$
ACET-pdb1h4v-B-GLU-254:PRPA-pdb1h4v-B-LYS-162
     RDKit          3D

 18 16  0  0  0  0  0  0  0  0999 V2000
   -0.0242    1.5270    0.0014 C   0  0  0  0  0  0  0  0  0  0  0  0
   -0.5132    1.8101    0.8092 H   0  0  0  0  0  0  0  0  0  0  0  0
   -0.4831    1.8114   -0.8234 H   0  0  0  0  0  0  0  0  0  0  0  0
    0.9671    1.9796    0.0210 H   0  0  0  0  0  0  0  0  0  0  0  0
    0.0000    0.0000    0.0000 C   0  0  0  0  0  0  0  0  0  0  0  0
   -1.1004   -0.5969    0.0000 O   0  0  0  0  0  1  0  0  0  0  0  0
    1.1004   -0.6002    0.0000 O   0  0  0  0  0  0  0  0  0  0  0  0
   -2.7594    3.8188   -0.9847 C   0  0  0  0  0  0  0  0  0  0  0  0
   -2.9081    3.9023    0.0137 H   0  0  0  0  0  0  0  0  0  0  0  0
   -3.5281    4.2905   -1.4468 H   0  0  0  0  0  0  0  0  0  0  0  0
   -1.8325    4.3317   -1.2411 H   0  0  0  0  0  0  0  0  0  0  0  0
   -2.7806    2.3606   -1.3619 C   0  0  0  0  0  0  0  0  0  0  0  0
   -2.6820    2.2736   -2.3432 H   0  0  0  0  0  0  0  0  0  0  0  0
   -2.0538    1.8859   -0.8856 H   0  0  0  0  0  0  0  0  0  0  0  0
   -4.1092    1.7363   -0.9553 C   0  0  0  0  0  0  0  0  0  0  0  0
   -4.8377    2.1175   -1.5267 H   0  0  0  0  0  0  0  0  0  0  0  0
   -4.0635    0.7461   -1.0997 H   0  0  0  0  0  0  0  0  0  0  0  0
   -4.3433    1.9298    0.0915 H   0  0  0  0  0  0  0  0  0  0  0  0
  1  5  1  0
  5  6  1  0
  5  7  2  0
  1  2  1  0
  1  3  1  0
  1  4  1  0
  8 12  1  0
 12 15  1  0
  8  9  1  0
  8 10  1  0
  8 11  1  0
 12 13  1  0
 12 14  1  0
 15 16  1  0
 15 17  1  0
 15 18  1  0
M  CHG  1   6  -1
M  END
>  <PDB_ID>  (410) 
pdb1h4v

>  <RESIDUE_NAME>  (410) 
GLU   LYS

>  <FRAG_NAME>  (410) 
ACET   PRPA

>  <FRAG_ATOM_NUM>  (410) 
fragi: 7  fragj: 11

>  <atom.prop.CHAIN_ID>  (410) 
A A A A A A A Z Z Z Z Z Z Z Z Z Z Z

>  <atom.prop.IS_HEAVY_ATOM>  (410) 
1 0 0 0 1 1 1 1 0 0 0 1 0 0 1 0 0 0

>  <DIFUSE_FUNC_ATOM>  (410) 
atom 6   atom 7   

>  <FINAL_SINGLE_POINT_ENERGY>  (410) 
0

>  <NONCOV_INTER_ENERGY_QM>  (410) 
0

>  <FF_Energy>  (410) 
22.3

>  <QM_Energy>  (410) 
2.02

>  <source>  (410) 
ACET_PRPA_03

>  <Index>  (410) 
38295

$$$$
ACET-pdb2i1a-B-GLU-209:PRPA-pdb2i1a-B-LYS-268
     RDKit          3D

 18 16  0  0  0  0  0  0  0  0999 V2000
   -0.0043    1.5307    0.0168 C   0  0  0  0  0  0  0  0  0  0  0  0
    0.8629    1.8292   -0.3265 H   0  0  0  0  0  0  0  0  0  0  0  0
   -0.1644    1.8124    0.9416 H   0  0  0  0  0  0  0  0  0  0  0  0
   -0.7873    1.9535   -0.6126 H   0  0  0  0  0  0  0  0  0  0  0  0
    0.0000    0.0000    0.0000 C   0  0  0  0  0  0  0  0  0  0  0  0
   -1.0963   -0.6036    0.0000 O   0  0  0  0  0  1  0  0  0  0  0  0
    1.0963   -0.6053   -0.0000 O   0  0  0  0  0  0  0  0  0  0  0  0
   -4.4828   -0.0632    1.5091 C   0  0  0  0  0  0  0  0  0  0  0  0
   -3.9269    0.2158    2.2891 H   0  0  0  0  0  0  0  0  0  0  0  0
   -5.3915   -0.3314    1.8186 H   0  0  0  0  0  0  0  0  0  0  0  0
   -4.5749    0.7770    0.8208 H   0  0  0  0  0  0  0  0  0  0  0  0
   -3.8198   -1.2523    0.8302 C   0  0  0  0  0  0  0  0  0  0  0  0
   -4.3624   -1.5131    0.0347 H   0  0  0  0  0  0  0  0  0  0  0  0
   -2.9013   -0.9899    0.5428 H   0  0  0  0  0  0  0  0  0  0  0  0
   -3.7096   -2.4582    1.7545 C   0  0  0  0  0  0  0  0  0  0  0  0
   -3.2067   -2.1939    2.5751 H   0  0  0  0  0  0  0  0  0  0  0  0
   -4.6274   -2.7604    2.0060 H   0  0  0  0  0  0  0  0  0  0  0  0
   -3.1857   -3.2780    1.2629 H   0  0  0  0  0  0  0  0  0  0  0  0
  1  5  1  0
  5  6  1  0
  5  7  2  0
  1  2  1  0
  1  3  1  0
  1  4  1  0
  8 12  1  0
 12 15  1  0
  8  9  1  0
  8 10  1  0
  8 11  1  0
 12 13  1  0
 12 14  1  0
 15 16  1  0
 15 17  1  0
 15 18  1  0
M  CHG  1   6  -1
M  END
>  <PDB_ID>  (411) 
pdb2i1a

>  <RESIDUE_NAME>  (411) 
GLU   LYS

>  <FRAG_NAME>  (411) 
ACET   PRPA

>  <FRAG_ATOM_NUM>  (411) 
fragi: 7  fragj: 11

>  <atom.prop.CHAIN_ID>  (411) 
A A A A A A A Z Z Z Z Z Z Z Z Z Z Z

>  <atom.prop.IS_HEAVY_ATOM>  (411) 
1 0 0 0 1 1 1 1 0 0 0 1 0 0 1 0 0 0

>  <DIFUSE_FUNC_ATOM>  (411) 
atom 6   atom 7   

>  <FINAL_SINGLE_POINT_ENERGY>  (411) 
0

>  <NONCOV_INTER_ENERGY_QM>  (411) 
0

>  <FF_Energy>  (411) 
12.93

>  <QM_Energy>  (411) 
-2.23

>  <source>  (411) 
ACET_PRPA_03

>  <Index>  (411) 
39000

$$$$
ACET-pdb1h4h-A-GLU-126:PRPA-pdb1h4h-A-LYS-142
     RDKit          3D

 18 16  0  0  0  0  0  0  0  0999 V2000
    0.0432    1.5292    0.0405 C   0  0  0  0  0  0  0  0  0  0  0  0
    0.3744    1.8367   -0.8335 H   0  0  0  0  0  0  0  0  0  0  0  0
    0.6466    1.7864    0.7749 H   0  0  0  0  0  0  0  0  0  0  0  0
   -0.9282    1.9907    0.2181 H   0  0  0  0  0  0  0  0  0  0  0  0
    0.0000    0.0000    0.0000 C   0  0  0  0  0  0  0  0  0  0  0  0
   -1.0803   -0.6244   -0.0000 O   0  0  0  0  0  1  0  0  0  0  0  0
    1.0803   -0.6256    0.0000 O   0  0  0  0  0  0  0  0  0  0  0  0
    4.4548   -0.2400    0.2735 C   0  0  0  0  0  0  0  0  0  0  0  0
    5.3367   -0.6124    0.1356 H   0  0  0  0  0  0  0  0  0  0  0  0
    3.7586   -0.8866    0.4524 H   0  0  0  0  0  0  0  0  0  0  0  0
    4.4875    0.5001    1.0731 H   0  0  0  0  0  0  0  0  0  0  0  0
    4.0600    0.5737   -0.9918 C   0  0  0  0  0  0  0  0  0  0  0  0
    3.5981    1.3849   -0.7037 H   0  0  0  0  0  0  0  0  0  0  0  0
    4.8686    0.7495   -1.5100 H   0  0  0  0  0  0  0  0  0  0  0  0
    3.1041   -0.2787   -1.8281 C   0  0  0  0  0  0  0  0  0  0  0  0
    2.3942   -0.6477   -1.2292 H   0  0  0  0  0  0  0  0  0  0  0  0
    2.6847    0.2993   -2.5274 H   0  0  0  0  0  0  0  0  0  0  0  0
    3.6316   -1.1017   -2.3100 H   0  0  0  0  0  0  0  0  0  0  0  0
  1  5  1  0
  5  6  1  0
  5  7  2  0
  1  2  1  0
  1  3  1  0
  1  4  1  0
  8 12  1  0
 12 15  1  0
  8  9  1  0
  8 10  1  0
  8 11  1  0
 12 13  1  0
 12 14  1  0
 15 16  1  0
 15 17  1  0
 15 18  1  0
M  CHG  1   6  -1
M  END
>  <PDB_ID>  (412) 
pdb1h4h

>  <RESIDUE_NAME>  (412) 
GLU   LYS

>  <FRAG_NAME>  (412) 
ACET   PRPA

>  <FRAG_ATOM_NUM>  (412) 
fragi: 7  fragj: 11

>  <atom.prop.CHAIN_ID>  (412) 
A A A A A A A Z Z Z Z Z Z Z Z Z Z Z

>  <atom.prop.IS_HEAVY_ATOM>  (412) 
1 0 0 0 1 1 1 1 0 0 0 1 0 0 1 0 0 0

>  <DIFUSE_FUNC_ATOM>  (412) 
atom 6   atom 7   

>  <FINAL_SINGLE_POINT_ENERGY>  (412) 
0

>  <NONCOV_INTER_ENERGY_QM>  (412) 
0

>  <FF_Energy>  (412) 
28.0

>  <QM_Energy>  (412) 
-0.8

>  <source>  (412) 
ACET_PRPA_03

>  <Index>  (412) 
39415

$$$$
ACET-pdb1h6p-A-GLU-201:PRPA-pdb1h6p-A-ILE-198
     RDKit          3D

 18 16  0  0  0  0  0  0  0  0999 V2000
    0.1752    1.4858    0.0119 C   0  0  0  0  0  0  0  0  0  0  0  0
   -0.1018    1.8342   -0.8843 H   0  0  0  0  0  0  0  0  0  0  0  0
    1.1482    1.6770    0.1546 H   0  0  0  0  0  0  0  0  0  0  0  0
   -0.3847    2.0368    0.7676 H   0  0  0  0  0  0  0  0  0  0  0  0
    0.0000    0.0000    0.0000 C   0  0  0  0  0  0  0  0  0  0  0  0
   -1.0892   -0.5572    0.0000 O   0  0  0  0  0  1  0  0  0  0  0  0
    1.0892   -0.6081   -0.0000 O   0  0  0  0  0  0  0  0  0  0  0  0
    3.4863   -1.6109   -0.1785 C   0  0  0  0  0  0  0  0  0  0  0  0
    2.5598   -1.7154    0.1829 H   0  0  0  0  0  0  0  0  0  0  0  0
    3.4340   -1.5879   -1.1783 H   0  0  0  0  0  0  0  0  0  0  0  0
    4.0856   -2.4703    0.1224 H   0  0  0  0  0  0  0  0  0  0  0  0
    4.0382   -0.2632    0.2987 C   0  0  0  0  0  0  0  0  0  0  0  0
    4.9227   -0.1256   -0.1279 H   0  0  0  0  0  0  0  0  0  0  0  0
    3.3780    0.5418   -0.0242 H   0  0  0  0  0  0  0  0  0  0  0  0
    4.1424   -0.2645    1.8105 C   0  0  0  0  0  0  0  0  0  0  0  0
    4.7568   -0.9960    2.1052 H   0  0  0  0  0  0  0  0  0  0  0  0
    4.5021    0.6137    2.1238 H   0  0  0  0  0  0  0  0  0  0  0  0
    3.2380   -0.4120    2.2097 H   0  0  0  0  0  0  0  0  0  0  0  0
  1  5  1  0
  5  6  1  0
  5  7  2  0
  1  2  1  0
  1  3  1  0
  1  4  1  0
  8 12  1  0
 12 15  1  0
  8  9  1  0
  8 10  1  0
  8 11  1  0
 12 13  1  0
 12 14  1  0
 15 16  1  0
 15 17  1  0
 15 18  1  0
M  CHG  1   6  -1
M  END
>  <PDB_ID>  (413) 
pdb1h6p

>  <RESIDUE_NAME>  (413) 
GLU   ILE

>  <FRAG_NAME>  (413) 
ACET   PRPA

>  <FRAG_ATOM_NUM>  (413) 
fragi: 7  fragj: 11

>  <atom.prop.CHAIN_ID>  (413) 
A A A A A A A Z Z Z Z Z Z Z Z Z Z Z

>  <atom.prop.IS_HEAVY_ATOM>  (413) 
1 0 0 0 1 1 1 1 0 0 0 1 0 0 1 0 0 0

>  <DIFUSE_FUNC_ATOM>  (413) 
atom 6   atom 7   

>  <FINAL_SINGLE_POINT_ENERGY>  (413) 
0

>  <NONCOV_INTER_ENERGY_QM>  (413) 
0

>  <FF_Energy>  (413) 
24.56

>  <QM_Energy>  (413) 
0.56

>  <source>  (413) 
ACET_PRPA_03

>  <Index>  (413) 
39461

$$$$
ACET-pdb1gg1-C-GLU-86:PRPA-pdb1gg1-C-LYS-346
     RDKit          3D

 18 16  0  0  0  0  0  0  0  0999 V2000
    0.0011    1.5146   -0.0031 C   0  0  0  0  0  0  0  0  0  0  0  0
   -0.5791    1.8201    0.7254 H   0  0  0  0  0  0  0  0  0  0  0  0
   -0.3079    1.8160   -0.8840 H   0  0  0  0  0  0  0  0  0  0  0  0
    0.9929    1.9344    0.1645 H   0  0  0  0  0  0  0  0  0  0  0  0
    0.0000    0.0000    0.0000 C   0  0  0  0  0  0  0  0  0  0  0  0
   -1.1037   -0.5993    0.0000 O   0  0  0  0  0  1  0  0  0  0  0  0
    1.1037   -0.5995   -0.0000 O   0  0  0  0  0  0  0  0  0  0  0  0
    1.7704   -1.4059   -2.7904 C   0  0  0  0  0  0  0  0  0  0  0  0
    1.9399   -1.7992   -1.8842 H   0  0  0  0  0  0  0  0  0  0  0  0
    1.7768   -0.4066   -2.7206 H   0  0  0  0  0  0  0  0  0  0  0  0
    2.5674   -1.7183   -3.4651 H   0  0  0  0  0  0  0  0  0  0  0  0
    0.4079   -1.8570   -3.2776 C   0  0  0  0  0  0  0  0  0  0  0  0
    0.2440   -1.4637   -4.1848 H   0  0  0  0  0  0  0  0  0  0  0  0
    0.4054   -2.8572   -3.3468 H   0  0  0  0  0  0  0  0  0  0  0  0
   -0.7116   -1.4340   -2.3568 C   0  0  0  0  0  0  0  0  0  0  0  0
   -0.5586   -1.8284   -1.4495 H   0  0  0  0  0  0  0  0  0  0  0  0
   -0.7204   -0.4355   -2.2863 H   0  0  0  0  0  0  0  0  0  0  0  0
   -1.6747   -1.7746   -2.7370 H   0  0  0  0  0  0  0  0  0  0  0  0
  1  5  1  0
  5  6  1  0
  5  7  2  0
  1  2  1  0
  1  3  1  0
  1  4  1  0
  8 12  1  0
 12 15  1  0
  8  9  1  0
  8 10  1  0
  8 11  1  0
 12 13  1  0
 12 14  1  0
 15 16  1  0
 15 17  1  0
 15 18  1  0
M  CHG  1   6  -1
M  END
>  <PDB_ID>  (414) 
pdb1gg1

>  <RESIDUE_NAME>  (414) 
GLU   LYS

>  <FRAG_NAME>  (414) 
ACET   PRPA

>  <FRAG_ATOM_NUM>  (414) 
fragi: 7  fragj: 11

>  <atom.prop.CHAIN_ID>  (414) 
A A A A A A A Z Z Z Z Z Z Z Z Z Z Z

>  <atom.prop.IS_HEAVY_ATOM>  (414) 
1 0 0 0 1 1 1 1 0 0 0 1 0 0 1 0 0 0

>  <DIFUSE_FUNC_ATOM>  (414) 
atom 6   atom 7   

>  <FINAL_SINGLE_POINT_ENERGY>  (414) 
0

>  <NONCOV_INTER_ENERGY_QM>  (414) 
0

>  <FF_Energy>  (414) 
25.06

>  <QM_Energy>  (414) 
5.26

>  <source>  (414) 
ACET_PRPA_03

>  <Index>  (414) 
39580

$$$$
ACET-pdb1h6p-A-GLU-201:PRPA-pdb1h6p-A-ILE-209
     RDKit          3D

 18 16  0  0  0  0  0  0  0  0999 V2000
    0.1752    1.4858    0.0119 C   0  0  0  0  0  0  0  0  0  0  0  0
   -0.1018    1.8342   -0.8843 H   0  0  0  0  0  0  0  0  0  0  0  0
    1.1482    1.6770    0.1546 H   0  0  0  0  0  0  0  0  0  0  0  0
   -0.3847    2.0368    0.7676 H   0  0  0  0  0  0  0  0  0  0  0  0
    0.0000    0.0000    0.0000 C   0  0  0  0  0  0  0  0  0  0  0  0
   -1.0892   -0.5572    0.0000 O   0  0  0  0  0  1  0  0  0  0  0  0
    1.0892   -0.6081   -0.0000 O   0  0  0  0  0  0  0  0  0  0  0  0
   -4.2978   -3.0164   -1.2621 C   0  0  0  0  0  0  0  0  0  0  0  0
   -4.9370   -3.7464   -1.5499 H   0  0  0  0  0  0  0  0  0  0  0  0
   -4.8885   -2.1014   -1.2184 H   0  0  0  0  0  0  0  0  0  0  0  0
   -3.8938   -3.3199   -0.2962 H   0  0  0  0  0  0  0  0  0  0  0  0
   -3.1155   -2.9054   -2.2769 C   0  0  0  0  0  0  0  0  0  0  0  0
   -3.4526   -2.4250   -3.0735 H   0  0  0  0  0  0  0  0  0  0  0  0
   -2.7975   -3.9018   -2.5836 H   0  0  0  0  0  0  0  0  0  0  0  0
   -1.9072   -2.2337   -1.6373 C   0  0  0  0  0  0  0  0  0  0  0  0
   -1.1650   -2.1791   -2.3030 H   0  0  0  0  0  0  0  0  0  0  0  0
   -2.1558   -1.3134   -1.3407 H   0  0  0  0  0  0  0  0  0  0  0  0
   -1.6074   -2.7680   -0.8489 H   0  0  0  0  0  0  0  0  0  0  0  0
  1  5  1  0
  5  6  1  0
  5  7  2  0
  1  2  1  0
  1  3  1  0
  1  4  1  0
  8 12  1  0
 12 15  1  0
  8  9  1  0
  8 10  1  0
  8 11  1  0
 12 13  1  0
 12 14  1  0
 15 16  1  0
 15 17  1  0
 15 18  1  0
M  CHG  1   6  -1
M  END
>  <PDB_ID>  (415) 
pdb1h6p

>  <RESIDUE_NAME>  (415) 
GLU   ILE

>  <FRAG_NAME>  (415) 
ACET   PRPA

>  <FRAG_ATOM_NUM>  (415) 
fragi: 7  fragj: 11

>  <atom.prop.CHAIN_ID>  (415) 
A A A A A A A Z Z Z Z Z Z Z Z Z Z Z

>  <atom.prop.IS_HEAVY_ATOM>  (415) 
1 0 0 0 1 1 1 1 0 0 0 1 0 0 1 0 0 0

>  <DIFUSE_FUNC_ATOM>  (415) 
atom 6   atom 7   

>  <FINAL_SINGLE_POINT_ENERGY>  (415) 
0

>  <NONCOV_INTER_ENERGY_QM>  (415) 
0

>  <FF_Energy>  (415) 
26.87

>  <QM_Energy>  (415) 
6.06

>  <source>  (415) 
ACET_PRPA_03

>  <Index>  (415) 
39702

$$$$
ACET-pdb1h6p-A-GLU-201:PRPA-pdb1h6p-A-ILE-209
     RDKit          3D

 18 16  0  0  0  0  0  0  0  0999 V2000
    0.1752    1.4858    0.0119 C   0  0  0  0  0  0  0  0  0  0  0  0
   -0.1018    1.8342   -0.8843 H   0  0  0  0  0  0  0  0  0  0  0  0
    1.1482    1.6770    0.1546 H   0  0  0  0  0  0  0  0  0  0  0  0
   -0.3847    2.0368    0.7676 H   0  0  0  0  0  0  0  0  0  0  0  0
    0.0000    0.0000    0.0000 C   0  0  0  0  0  0  0  0  0  0  0  0
   -1.0892   -0.5572    0.0000 O   0  0  0  0  0  1  0  0  0  0  0  0
    1.0892   -0.6081   -0.0000 O   0  0  0  0  0  0  0  0  0  0  0  0
   -2.6690   -4.3045   -2.7075 C   0  0  0  0  0  0  0  0  0  0  0  0
   -2.4167   -4.8213   -1.8912 H   0  0  0  0  0  0  0  0  0  0  0  0
   -3.4431   -4.7590   -3.1464 H   0  0  0  0  0  0  0  0  0  0  0  0
   -1.8271   -4.3046   -3.3998 H   0  0  0  0  0  0  0  0  0  0  0  0
   -3.1155   -2.9054   -2.2769 C   0  0  0  0  0  0  0  0  0  0  0  0
   -3.4526   -2.4250   -3.0735 H   0  0  0  0  0  0  0  0  0  0  0  0
   -3.9405   -2.9828   -1.5688 H   0  0  0  0  0  0  0  0  0  0  0  0
   -1.9072   -2.2337   -1.6373 C   0  0  0  0  0  0  0  0  0  0  0  0
   -1.1650   -2.1791   -2.3030 H   0  0  0  0  0  0  0  0  0  0  0  0
   -2.1558   -1.3134   -1.3407 H   0  0  0  0  0  0  0  0  0  0  0  0
   -1.6074   -2.7680   -0.8489 H   0  0  0  0  0  0  0  0  0  0  0  0
  1  5  1  0
  5  6  1  0
  5  7  2  0
  1  2  1  0
  1  3  1  0
  1  4  1  0
  8 12  1  0
 12 15  1  0
  8  9  1  0
  8 10  1  0
  8 11  1  0
 12 13  1  0
 12 14  1  0
 15 16  1  0
 15 17  1  0
 15 18  1  0
M  CHG  1   6  -1
M  END
>  <PDB_ID>  (416) 
pdb1h6p

>  <RESIDUE_NAME>  (416) 
GLU   ILE

>  <FRAG_NAME>  (416) 
ACET   PRPA

>  <FRAG_ATOM_NUM>  (416) 
fragi: 7  fragj: 11

>  <atom.prop.CHAIN_ID>  (416) 
A A A A A A A Z Z Z Z Z Z Z Z Z Z Z

>  <atom.prop.IS_HEAVY_ATOM>  (416) 
1 0 0 0 1 1 1 1 0 0 0 1 0 0 1 0 0 0

>  <DIFUSE_FUNC_ATOM>  (416) 
atom 6   atom 7   

>  <FINAL_SINGLE_POINT_ENERGY>  (416) 
0

>  <NONCOV_INTER_ENERGY_QM>  (416) 
0

>  <FF_Energy>  (416) 
26.61

>  <QM_Energy>  (416) 
6.41

>  <source>  (416) 
ACET_PRPA_03

>  <Index>  (416) 
39716

$$$$
ACET-pdb2i5h-A-ASP-123:PRPA-pdb2i5h-A-LEU-132
     RDKit          3D

 18 16  0  0  0  0  0  0  0  0999 V2000
   -0.0110    1.5132    0.0014 C   0  0  0  0  0  0  0  0  0  0  0  0
    0.1923    1.8346    0.9194 H   0  0  0  0  0  0  0  0  0  0  0  0
   -0.9080    1.8277   -0.2853 H   0  0  0  0  0  0  0  0  0  0  0  0
    0.7294    1.9382   -0.6762 H   0  0  0  0  0  0  0  0  0  0  0  0
    0.0000    0.0000    0.0000 C   0  0  0  0  0  0  0  0  0  0  0  0
   -1.0912   -0.5970   -0.0000 O   0  0  0  0  0  1  0  0  0  0  0  0
    1.0912   -0.6083    0.0000 O   0  0  0  0  0  0  0  0  0  0  0  0
   -0.7297   -4.4119    1.8806 C   0  0  0  0  0  0  0  0  0  0  0  0
   -0.2465   -3.9026    2.6012 H   0  0  0  0  0  0  0  0  0  0  0  0
   -0.1745   -4.3052    0.9486 H   0  0  0  0  0  0  0  0  0  0  0  0
   -0.7898   -5.4589    2.1780 H   0  0  0  0  0  0  0  0  0  0  0  0
   -2.1467   -3.8522    1.7344 C   0  0  0  0  0  0  0  0  0  0  0  0
   -2.5640   -4.2837    0.9371 H   0  0  0  0  0  0  0  0  0  0  0  0
   -2.6561   -4.0936    2.5564 H   0  0  0  0  0  0  0  0  0  0  0  0
   -2.2666   -2.3412    1.5495 C   0  0  0  0  0  0  0  0  0  0  0  0
   -1.7907   -2.0759    0.7162 H   0  0  0  0  0  0  0  0  0  0  0  0
   -3.3176   -2.0636    1.4699 H   0  0  0  0  0  0  0  0  0  0  0  0
   -1.7926   -1.8276    2.3859 H   0  0  0  0  0  0  0  0  0  0  0  0
  1  5  1  0
  5  6  1  0
  5  7  2  0
  1  2  1  0
  1  3  1  0
  1  4  1  0
  8 12  1  0
 12 15  1  0
  8  9  1  0
  8 10  1  0
  8 11  1  0
 12 13  1  0
 12 14  1  0
 15 16  1  0
 15 17  1  0
 15 18  1  0
M  CHG  1   6  -1
M  END
>  <PDB_ID>  (417) 
pdb2i5h

>  <RESIDUE_NAME>  (417) 
ASP   LEU

>  <FRAG_NAME>  (417) 
ACET   PRPA

>  <FRAG_ATOM_NUM>  (417) 
fragi: 7  fragj: 11

>  <atom.prop.CHAIN_ID>  (417) 
A A A A A A A Z Z Z Z Z Z Z Z Z Z Z

>  <atom.prop.IS_HEAVY_ATOM>  (417) 
1 0 0 0 1 1 1 1 0 0 0 1 0 0 1 0 0 0

>  <DIFUSE_FUNC_ATOM>  (417) 
atom 6   atom 7   

>  <FINAL_SINGLE_POINT_ENERGY>  (417) 
0

>  <NONCOV_INTER_ENERGY_QM>  (417) 
0

>  <FF_Energy>  (417) 
33.65

>  <QM_Energy>  (417) 
3.48

>  <source>  (417) 
ACET_PRPA_03

>  <Index>  (417) 
39739

$$$$
ACET-pdb2i5h-A-ASP-123:PRPA-pdb2i5h-A-LEU-132
     RDKit          3D

 18 16  0  0  0  0  0  0  0  0999 V2000
   -0.0110    1.5132    0.0014 C   0  0  0  0  0  0  0  0  0  0  0  0
    0.1923    1.8346    0.9194 H   0  0  0  0  0  0  0  0  0  0  0  0
   -0.9080    1.8277   -0.2853 H   0  0  0  0  0  0  0  0  0  0  0  0
    0.7294    1.9382   -0.6762 H   0  0  0  0  0  0  0  0  0  0  0  0
    0.0000    0.0000    0.0000 C   0  0  0  0  0  0  0  0  0  0  0  0
   -1.0912   -0.5970   -0.0000 O   0  0  0  0  0  1  0  0  0  0  0  0
    1.0912   -0.6083    0.0000 O   0  0  0  0  0  0  0  0  0  0  0  0
   -2.1467   -3.8522    1.7344 C   0  0  0  0  0  0  0  0  0  0  0  0
   -2.5640   -4.2837    0.9371 H   0  0  0  0  0  0  0  0  0  0  0  0
   -2.6561   -4.0936    2.5564 H   0  0  0  0  0  0  0  0  0  0  0  0
   -1.1376   -4.2508    1.8385 H   0  0  0  0  0  0  0  0  0  0  0  0
   -2.2666   -2.3412    1.5495 C   0  0  0  0  0  0  0  0  0  0  0  0
   -1.7907   -2.0759    0.7162 H   0  0  0  0  0  0  0  0  0  0  0  0
   -3.3176   -2.0636    1.4699 H   0  0  0  0  0  0  0  0  0  0  0  0
   -1.6047   -1.6239    2.7176 C   0  0  0  0  0  0  0  0  0  0  0  0
   -0.6371   -1.8759    2.7592 H   0  0  0  0  0  0  0  0  0  0  0  0
   -1.6859   -0.6343    2.5918 H   0  0  0  0  0  0  0  0  0  0  0  0
   -2.0549   -1.8889    3.5706 H   0  0  0  0  0  0  0  0  0  0  0  0
  1  5  1  0
  5  6  1  0
  5  7  2  0
  1  2  1  0
  1  3  1  0
  1  4  1  0
  8 12  1  0
 12 15  1  0
  8  9  1  0
  8 10  1  0
  8 11  1  0
 12 13  1  0
 12 14  1  0
 15 16  1  0
 15 17  1  0
 15 18  1  0
M  CHG  1   6  -1
M  END
>  <PDB_ID>  (418) 
pdb2i5h

>  <RESIDUE_NAME>  (418) 
ASP   LEU

>  <FRAG_NAME>  (418) 
ACET   PRPA

>  <FRAG_ATOM_NUM>  (418) 
fragi: 7  fragj: 11

>  <atom.prop.CHAIN_ID>  (418) 
A A A A A A A Z Z Z Z Z Z Z Z Z Z Z

>  <atom.prop.IS_HEAVY_ATOM>  (418) 
1 0 0 0 1 1 1 1 0 0 0 1 0 0 1 0 0 0

>  <DIFUSE_FUNC_ATOM>  (418) 
atom 6   atom 7   

>  <FINAL_SINGLE_POINT_ENERGY>  (418) 
0

>  <NONCOV_INTER_ENERGY_QM>  (418) 
0

>  <FF_Energy>  (418) 
39.12

>  <QM_Energy>  (418) 
1.83

>  <source>  (418) 
ACET_PRPA_03

>  <Index>  (418) 
39759

$$$$
ACET-pdb2i5h-A-ASP-123:PRPA-pdb2i5h-A-LEU-132
     RDKit          3D

 18 16  0  0  0  0  0  0  0  0999 V2000
   -0.0110    1.5132    0.0014 C   0  0  0  0  0  0  0  0  0  0  0  0
    0.1923    1.8346    0.9194 H   0  0  0  0  0  0  0  0  0  0  0  0
   -0.9080    1.8277   -0.2853 H   0  0  0  0  0  0  0  0  0  0  0  0
    0.7294    1.9382   -0.6762 H   0  0  0  0  0  0  0  0  0  0  0  0
    0.0000    0.0000    0.0000 C   0  0  0  0  0  0  0  0  0  0  0  0
   -1.0912   -0.5970   -0.0000 O   0  0  0  0  0  1  0  0  0  0  0  0
    1.0912   -0.6083    0.0000 O   0  0  0  0  0  0  0  0  0  0  0  0
   -3.7357   -1.9533    1.4383 C   0  0  0  0  0  0  0  0  0  0  0  0
   -4.2164   -2.2241    2.2724 H   0  0  0  0  0  0  0  0  0  0  0  0
   -3.8109   -0.9634    1.3175 H   0  0  0  0  0  0  0  0  0  0  0  0
   -4.1440   -2.4171    0.6523 H   0  0  0  0  0  0  0  0  0  0  0  0
   -2.2666   -2.3412    1.5495 C   0  0  0  0  0  0  0  0  0  0  0  0
   -1.7907   -2.0759    0.7162 H   0  0  0  0  0  0  0  0  0  0  0  0
   -2.1810   -3.4198    1.6815 H   0  0  0  0  0  0  0  0  0  0  0  0
   -1.6047   -1.6239    2.7176 C   0  0  0  0  0  0  0  0  0  0  0  0
   -0.6371   -1.8759    2.7592 H   0  0  0  0  0  0  0  0  0  0  0  0
   -1.6859   -0.6343    2.5918 H   0  0  0  0  0  0  0  0  0  0  0  0
   -2.0549   -1.8889    3.5706 H   0  0  0  0  0  0  0  0  0  0  0  0
  1  5  1  0
  5  6  1  0
  5  7  2  0
  1  2  1  0
  1  3  1  0
  1  4  1  0
  8 12  1  0
 12 15  1  0
  8  9  1  0
  8 10  1  0
  8 11  1  0
 12 13  1  0
 12 14  1  0
 15 16  1  0
 15 17  1  0
 15 18  1  0
M  CHG  1   6  -1
M  END
>  <PDB_ID>  (419) 
pdb2i5h

>  <RESIDUE_NAME>  (419) 
ASP   LEU

>  <FRAG_NAME>  (419) 
ACET   PRPA

>  <FRAG_ATOM_NUM>  (419) 
fragi: 7  fragj: 11

>  <atom.prop.CHAIN_ID>  (419) 
A A A A A A A Z Z Z Z Z Z Z Z Z Z Z

>  <atom.prop.IS_HEAVY_ATOM>  (419) 
1 0 0 0 1 1 1 1 0 0 0 1 0 0 1 0 0 0

>  <DIFUSE_FUNC_ATOM>  (419) 
atom 6   atom 7   

>  <FINAL_SINGLE_POINT_ENERGY>  (419) 
0

>  <NONCOV_INTER_ENERGY_QM>  (419) 
0

>  <FF_Energy>  (419) 
39.54

>  <QM_Energy>  (419) 
0.82

>  <source>  (419) 
ACET_PRPA_03

>  <Index>  (419) 
39774

$$$$
ACET-pdb2i8e-A-GLU-77:PRPA-pdb2i8e-A-LEU-4
     RDKit          3D

 18 16  0  0  0  0  0  0  0  0999 V2000
    0.0816    1.5621    0.0091 C   0  0  0  0  0  0  0  0  0  0  0  0
    0.6571    1.8176   -0.7598 H   0  0  0  0  0  0  0  0  0  0  0  0
    0.5163    1.8144    0.8666 H   0  0  0  0  0  0  0  0  0  0  0  0
   -0.8600    2.1053   -0.0724 H   0  0  0  0  0  0  0  0  0  0  0  0
    0.0000    0.0000    0.0000 C   0  0  0  0  0  0  0  0  0  0  0  0
   -1.0787   -0.6306    0.0000 O   0  0  0  0  0  1  0  0  0  0  0  0
    1.0787   -0.6116   -0.0000 O   0  0  0  0  0  0  0  0  0  0  0  0
    2.7363    0.9730   -4.6667 C   0  0  0  0  0  0  0  0  0  0  0  0
    2.2055    1.8140   -4.7929 H   0  0  0  0  0  0  0  0  0  0  0  0
    2.1964    0.1906   -4.9802 H   0  0  0  0  0  0  0  0  0  0  0  0
    3.6236    1.0412   -5.2962 H   0  0  0  0  0  0  0  0  0  0  0  0
    2.9588    0.7992   -3.1695 C   0  0  0  0  0  0  0  0  0  0  0  0
    3.7241    1.3538   -2.8947 H   0  0  0  0  0  0  0  0  0  0  0  0
    3.1760   -0.2354   -2.9037 H   0  0  0  0  0  0  0  0  0  0  0  0
    1.7084    1.2770   -2.5217 C   0  0  0  0  0  0  0  0  0  0  0  0
    0.9213    0.7337   -2.8338 H   0  0  0  0  0  0  0  0  0  0  0  0
    1.7766    1.1937   -1.5210 H   0  0  0  0  0  0  0  0  0  0  0  0
    1.5407    2.2428   -2.7505 H   0  0  0  0  0  0  0  0  0  0  0  0
  1  5  1  0
  5  6  1  0
  5  7  2  0
  1  2  1  0
  1  3  1  0
  1  4  1  0
  8 12  1  0
 12 15  1  0
  8  9  1  0
  8 10  1  0
  8 11  1  0
 12 13  1  0
 12 14  1  0
 15 16  1  0
 15 17  1  0
 15 18  1  0
M  CHG  1   6  -1
M  END
>  <PDB_ID>  (420) 
pdb2i8e

>  <RESIDUE_NAME>  (420) 
GLU   LEU

>  <FRAG_NAME>  (420) 
ACET   PRPA

>  <FRAG_ATOM_NUM>  (420) 
fragi: 7  fragj: 11

>  <atom.prop.CHAIN_ID>  (420) 
A A A A A A A Z Z Z Z Z Z Z Z Z Z Z

>  <atom.prop.IS_HEAVY_ATOM>  (420) 
1 0 0 0 1 1 1 1 0 0 0 1 0 0 1 0 0 0

>  <DIFUSE_FUNC_ATOM>  (420) 
atom 6   atom 7   

>  <FINAL_SINGLE_POINT_ENERGY>  (420) 
0

>  <NONCOV_INTER_ENERGY_QM>  (420) 
0

>  <FF_Energy>  (420) 
41.25

>  <QM_Energy>  (420) 
5.28

>  <source>  (420) 
ACET_PRPA_04

>  <Index>  (420) 
648

$$$$
ACET-pdb2i8e-A-GLU-77:PRPA-pdb2i8e-A-LEU-4
     RDKit          3D

 18 16  0  0  0  0  0  0  0  0999 V2000
    0.0816    1.5621    0.0091 C   0  0  0  0  0  0  0  0  0  0  0  0
    0.6571    1.8176   -0.7598 H   0  0  0  0  0  0  0  0  0  0  0  0
    0.5163    1.8144    0.8666 H   0  0  0  0  0  0  0  0  0  0  0  0
   -0.8600    2.1053   -0.0724 H   0  0  0  0  0  0  0  0  0  0  0  0
    0.0000    0.0000    0.0000 C   0  0  0  0  0  0  0  0  0  0  0  0
   -1.0787   -0.6306    0.0000 O   0  0  0  0  0  1  0  0  0  0  0  0
    1.0787   -0.6116   -0.0000 O   0  0  0  0  0  0  0  0  0  0  0  0
    1.7084    1.2770   -2.5217 C   0  0  0  0  0  0  0  0  0  0  0  0
    0.9213    0.7337   -2.8338 H   0  0  0  0  0  0  0  0  0  0  0  0
    1.7766    1.1937   -1.5210 H   0  0  0  0  0  0  0  0  0  0  0  0
    1.5407    2.2428   -2.7505 H   0  0  0  0  0  0  0  0  0  0  0  0
    2.9588    0.7992   -3.1695 C   0  0  0  0  0  0  0  0  0  0  0  0
    3.7241    1.3538   -2.8947 H   0  0  0  0  0  0  0  0  0  0  0  0
    2.7996    0.9235   -4.2406 H   0  0  0  0  0  0  0  0  0  0  0  0
    3.2614   -0.6418   -2.7993 C   0  0  0  0  0  0  0  0  0  0  0  0
    4.0902   -0.9437   -3.2733 H   0  0  0  0  0  0  0  0  0  0  0  0
    3.4008   -0.7129   -1.8105 H   0  0  0  0  0  0  0  0  0  0  0  0
    2.4947   -1.2266   -3.0685 H   0  0  0  0  0  0  0  0  0  0  0  0
  1  5  1  0
  5  6  1  0
  5  7  2  0
  1  2  1  0
  1  3  1  0
  1  4  1  0
  8 12  1  0
 12 15  1  0
  8  9  1  0
  8 10  1  0
  8 11  1  0
 12 13  1  0
 12 14  1  0
 15 16  1  0
 15 17  1  0
 15 18  1  0
M  CHG  1   6  -1
M  END
>  <PDB_ID>  (421) 
pdb2i8e

>  <RESIDUE_NAME>  (421) 
GLU   LEU

>  <FRAG_NAME>  (421) 
ACET   PRPA

>  <FRAG_ATOM_NUM>  (421) 
fragi: 7  fragj: 11

>  <atom.prop.CHAIN_ID>  (421) 
A A A A A A A Z Z Z Z Z Z Z Z Z Z Z

>  <atom.prop.IS_HEAVY_ATOM>  (421) 
1 0 0 0 1 1 1 1 0 0 0 1 0 0 1 0 0 0

>  <DIFUSE_FUNC_ATOM>  (421) 
atom 6   atom 7   

>  <FINAL_SINGLE_POINT_ENERGY>  (421) 
0

>  <NONCOV_INTER_ENERGY_QM>  (421) 
0

>  <FF_Energy>  (421) 
41.44

>  <QM_Energy>  (421) 
4.7

>  <source>  (421) 
ACET_PRPA_04

>  <Index>  (421) 
658

$$$$
ACET-pdb1h7z-A-ASP-223:PRPA-pdb1h7z-A-GLN-220
     RDKit          3D

 18 16  0  0  0  0  0  0  0  0999 V2000
    0.1846    1.5010    0.1065 C   0  0  0  0  0  0  0  0  0  0  0  0
    0.9381    1.7622   -0.4724 H   0  0  0  0  0  0  0  0  0  0  0  0
    0.3524    1.7260    1.0505 H   0  0  0  0  0  0  0  0  0  0  0  0
   -0.7204    2.0068   -0.2301 H   0  0  0  0  0  0  0  0  0  0  0  0
    0.0000    0.0000    0.0000 C   0  0  0  0  0  0  0  0  0  0  0  0
   -1.0622   -0.6783    0.0000 O   0  0  0  0  0  1  0  0  0  0  0  0
    1.0622   -0.6606    0.0000 O   0  0  0  0  0  0  0  0  0  0  0  0
   -4.7444    0.3963   -0.2356 C   0  0  0  0  0  0  0  0  0  0  0  0
   -4.6993    1.1612    0.4198 H   0  0  0  0  0  0  0  0  0  0  0  0
   -5.4480   -0.3384    0.1556 H   0  0  0  0  0  0  0  0  0  0  0  0
   -5.0852    0.7912   -1.1928 H   0  0  0  0  0  0  0  0  0  0  0  0
   -3.4051   -0.3229   -0.2399 C   0  0  0  0  0  0  0  0  0  0  0  0
   -2.6695    0.3538   -0.3307 H   0  0  0  0  0  0  0  0  0  0  0  0
   -3.2914   -0.8107    0.6315 H   0  0  0  0  0  0  0  0  0  0  0  0
   -3.2370   -1.3450   -1.3685 C   0  0  0  0  0  0  0  0  0  0  0  0
   -3.2222   -0.8098   -2.2587 H   0  0  0  0  0  0  0  0  0  0  0  0
   -2.2706   -1.7197   -1.2918 H   0  0  0  0  0  0  0  0  0  0  0  0
   -3.9317   -2.1787   -1.4700 H   0  0  0  0  0  0  0  0  0  0  0  0
  1  5  1  0
  5  6  1  0
  5  7  2  0
  1  2  1  0
  1  3  1  0
  1  4  1  0
  8 12  1  0
 12 15  1  0
  8  9  1  0
  8 10  1  0
  8 11  1  0
 12 13  1  0
 12 14  1  0
 15 16  1  0
 15 17  1  0
 15 18  1  0
M  CHG  1   6  -1
M  END
>  <PDB_ID>  (422) 
pdb1h7z

>  <RESIDUE_NAME>  (422) 
ASP   GLN

>  <FRAG_NAME>  (422) 
ACET   PRPA

>  <FRAG_ATOM_NUM>  (422) 
fragi: 7  fragj: 11

>  <atom.prop.CHAIN_ID>  (422) 
A A A A A A A Z Z Z Z Z Z Z Z Z Z Z

>  <atom.prop.IS_HEAVY_ATOM>  (422) 
1 0 0 0 1 1 1 1 0 0 0 1 0 0 1 0 0 0

>  <DIFUSE_FUNC_ATOM>  (422) 
atom 6   atom 7   

>  <FINAL_SINGLE_POINT_ENERGY>  (422) 
0

>  <NONCOV_INTER_ENERGY_QM>  (422) 
0

>  <FF_Energy>  (422) 
36.42

>  <QM_Energy>  (422) 
9.04

>  <source>  (422) 
ACET_PRPA_04

>  <Index>  (422) 
693

$$$$
ACET-pdb1h91-B-ASP-16:PRPA-pdb1h91-B-LYS-19
     RDKit          3D

 18 16  0  0  0  0  0  0  0  0999 V2000
   -0.0354    1.5143    0.0051 C   0  0  0  0  0  0  0  0  0  0  0  0
    0.2630    1.8373    0.9114 H   0  0  0  0  0  0  0  0  0  0  0  0
   -0.9863    1.8123   -0.1390 H   0  0  0  0  0  0  0  0  0  0  0  0
    0.5848    2.0056   -0.7447 H   0  0  0  0  0  0  0  0  0  0  0  0
    0.0000    0.0000    0.0000 C   0  0  0  0  0  0  0  0  0  0  0  0
   -1.1017   -0.5957   -0.0000 O   0  0  0  0  0  1  0  0  0  0  0  0
    1.1017   -0.5884   -0.0000 O   0  0  0  0  0  0  0  0  0  0  0  0
   -1.2850   -2.9596   -1.4825 C   0  0  0  0  0  0  0  0  0  0  0  0
   -0.9512   -2.0485   -1.2687 H   0  0  0  0  0  0  0  0  0  0  0  0
   -2.2474   -2.9278   -1.7302 H   0  0  0  0  0  0  0  0  0  0  0  0
   -0.7232   -3.3403   -2.3355 H   0  0  0  0  0  0  0  0  0  0  0  0
   -1.1382   -3.8275   -0.2410 C   0  0  0  0  0  0  0  0  0  0  0  0
   -1.5843   -4.7058   -0.4032 H   0  0  0  0  0  0  0  0  0  0  0  0
   -0.1681   -3.9709   -0.0559 H   0  0  0  0  0  0  0  0  0  0  0  0
   -1.7792   -3.1655    0.9680 C   0  0  0  0  0  0  0  0  0  0  0  0
   -1.9754   -2.2168    0.7496 H   0  0  0  0  0  0  0  0  0  0  0  0
   -2.6128   -3.6520    1.1986 H   0  0  0  0  0  0  0  0  0  0  0  0
   -1.1106   -3.1931    1.8285 H   0  0  0  0  0  0  0  0  0  0  0  0
  1  5  1  0
  5  6  1  0
  5  7  2  0
  1  2  1  0
  1  3  1  0
  1  4  1  0
  8 12  1  0
 12 15  1  0
  8  9  1  0
  8 10  1  0
  8 11  1  0
 12 13  1  0
 12 14  1  0
 15 16  1  0
 15 17  1  0
 15 18  1  0
M  CHG  1   6  -1
M  END
>  <PDB_ID>  (423) 
pdb1h91

>  <RESIDUE_NAME>  (423) 
ASP   LYS

>  <FRAG_NAME>  (423) 
ACET   PRPA

>  <FRAG_ATOM_NUM>  (423) 
fragi: 7  fragj: 11

>  <atom.prop.CHAIN_ID>  (423) 
A A A A A A A Z Z Z Z Z Z Z Z Z Z Z

>  <atom.prop.IS_HEAVY_ATOM>  (423) 
1 0 0 0 1 1 1 1 0 0 0 1 0 0 1 0 0 0

>  <DIFUSE_FUNC_ATOM>  (423) 
atom 6   atom 7   

>  <FINAL_SINGLE_POINT_ENERGY>  (423) 
0

>  <NONCOV_INTER_ENERGY_QM>  (423) 
0

>  <FF_Energy>  (423) 
21.89

>  <QM_Energy>  (423) 
0.06

>  <source>  (423) 
ACET_PRPA_04

>  <Index>  (423) 
1530

$$$$
ACET-pdb2i45-B-ASP-49:PRPA-pdb2i45-B-LYS-81
     RDKit          3D

 18 16  0  0  0  0  0  0  0  0999 V2000
   -0.0264    1.4979    0.0627 C   0  0  0  0  0  0  0  0  0  0  0  0
   -0.7458    1.7827    0.6907 H   0  0  0  0  0  0  0  0  0  0  0  0
   -0.2092    1.8570   -0.8481 H   0  0  0  0  0  0  0  0  0  0  0  0
    0.9154    1.9211    0.4118 H   0  0  0  0  0  0  0  0  0  0  0  0
    0.0000    0.0000    0.0000 C   0  0  0  0  0  0  0  0  0  0  0  0
   -1.1051   -0.6004   -0.0000 O   0  0  0  0  0  1  0  0  0  0  0  0
    1.1051   -0.6012   -0.0000 O   0  0  0  0  0  0  0  0  0  0  0  0
    4.8778   -0.7272   -0.3927 C   0  0  0  0  0  0  0  0  0  0  0  0
    5.3781    0.1077   -0.4914 H   0  0  0  0  0  0  0  0  0  0  0  0
    3.9405   -0.6272   -0.9401 H   0  0  0  0  0  0  0  0  0  0  0  0
    5.3845   -1.5379   -0.9162 H   0  0  0  0  0  0  0  0  0  0  0  0
    4.5540   -1.2344    0.9480 C   0  0  0  0  0  0  0  0  0  0  0  0
    4.3974   -2.2398    0.9030 H   0  0  0  0  0  0  0  0  0  0  0  0
    5.3524   -1.0942    1.5663 H   0  0  0  0  0  0  0  0  0  0  0  0
    3.3381   -0.6330    1.6564 C   0  0  0  0  0  0  0  0  0  0  0  0
    3.4796    0.3643    1.7401 H   0  0  0  0  0  0  0  0  0  0  0  0
    2.5246   -0.7827    1.0771 H   0  0  0  0  0  0  0  0  0  0  0  0
    3.1563   -1.0532    2.6456 H   0  0  0  0  0  0  0  0  0  0  0  0
  1  5  1  0
  5  6  1  0
  5  7  2  0
  1  2  1  0
  1  3  1  0
  1  4  1  0
  8 12  1  0
 12 15  1  0
  8  9  1  0
  8 10  1  0
  8 11  1  0
 12 13  1  0
 12 14  1  0
 15 16  1  0
 15 17  1  0
 15 18  1  0
M  CHG  1   6  -1
M  END
>  <PDB_ID>  (424) 
pdb2i45

>  <RESIDUE_NAME>  (424) 
ASP   LYS

>  <FRAG_NAME>  (424) 
ACET   PRPA

>  <FRAG_ATOM_NUM>  (424) 
fragi: 7  fragj: 11

>  <atom.prop.CHAIN_ID>  (424) 
A A A A A A A Z Z Z Z Z Z Z Z Z Z Z

>  <atom.prop.IS_HEAVY_ATOM>  (424) 
1 0 0 0 1 1 1 1 0 0 0 1 0 0 1 0 0 0

>  <DIFUSE_FUNC_ATOM>  (424) 
atom 6   atom 7   

>  <FINAL_SINGLE_POINT_ENERGY>  (424) 
0

>  <NONCOV_INTER_ENERGY_QM>  (424) 
0

>  <FF_Energy>  (424) 
28.66

>  <QM_Energy>  (424) 
0.23

>  <source>  (424) 
ACET_PRPA_04

>  <Index>  (424) 
1922

$$$$
ACET-pdb2i45-B-ASP-49:PRPA-pdb2i45-B-LYS-81
     RDKit          3D

 18 16  0  0  0  0  0  0  0  0999 V2000
   -0.0264    1.4979    0.0627 C   0  0  0  0  0  0  0  0  0  0  0  0
   -0.7458    1.7827    0.6907 H   0  0  0  0  0  0  0  0  0  0  0  0
   -0.2092    1.8570   -0.8481 H   0  0  0  0  0  0  0  0  0  0  0  0
    0.9154    1.9211    0.4118 H   0  0  0  0  0  0  0  0  0  0  0  0
    0.0000    0.0000    0.0000 C   0  0  0  0  0  0  0  0  0  0  0  0
   -1.1051   -0.6004   -0.0000 O   0  0  0  0  0  1  0  0  0  0  0  0
    1.1051   -0.6012   -0.0000 O   0  0  0  0  0  0  0  0  0  0  0  0
    4.5540   -1.2344    0.9480 C   0  0  0  0  0  0  0  0  0  0  0  0
    4.3974   -2.2398    0.9030 H   0  0  0  0  0  0  0  0  0  0  0  0
    5.3524   -1.0942    1.5663 H   0  0  0  0  0  0  0  0  0  0  0  0
    4.7942   -0.8583   -0.0464 H   0  0  0  0  0  0  0  0  0  0  0  0
    3.3381   -0.6330    1.6564 C   0  0  0  0  0  0  0  0  0  0  0  0
    3.4796    0.3643    1.7401 H   0  0  0  0  0  0  0  0  0  0  0  0
    2.5246   -0.7827    1.0771 H   0  0  0  0  0  0  0  0  0  0  0  0
    3.0871   -1.2131    3.0221 C   0  0  0  0  0  0  0  0  0  0  0  0
    2.9488   -2.2073    2.9310 H   0  0  0  0  0  0  0  0  0  0  0  0
    3.9022   -1.0594    3.5951 H   0  0  0  0  0  0  0  0  0  0  0  0
    2.2211   -0.7848    3.5268 H   0  0  0  0  0  0  0  0  0  0  0  0
  1  5  1  0
  5  6  1  0
  5  7  2  0
  1  2  1  0
  1  3  1  0
  1  4  1  0
  8 12  1  0
 12 15  1  0
  8  9  1  0
  8 10  1  0
  8 11  1  0
 12 13  1  0
 12 14  1  0
 15 16  1  0
 15 17  1  0
 15 18  1  0
M  CHG  1   6  -1
M  END
>  <PDB_ID>  (425) 
pdb2i45

>  <RESIDUE_NAME>  (425) 
ASP   LYS

>  <FRAG_NAME>  (425) 
ACET   PRPA

>  <FRAG_ATOM_NUM>  (425) 
fragi: 7  fragj: 11

>  <atom.prop.CHAIN_ID>  (425) 
A A A A A A A Z Z Z Z Z Z Z Z Z Z Z

>  <atom.prop.IS_HEAVY_ATOM>  (425) 
1 0 0 0 1 1 1 1 0 0 0 1 0 0 1 0 0 0

>  <DIFUSE_FUNC_ATOM>  (425) 
atom 6   atom 7   

>  <FINAL_SINGLE_POINT_ENERGY>  (425) 
0

>  <NONCOV_INTER_ENERGY_QM>  (425) 
0

>  <FF_Energy>  (425) 
33.62

>  <QM_Energy>  (425) 
0.65

>  <source>  (425) 
ACET_PRPA_04

>  <Index>  (425) 
1927

$$$$
ACET-pdb2i45-B-ASP-49:PRPA-pdb2i45-B-LYS-81
     RDKit          3D

 18 16  0  0  0  0  0  0  0  0999 V2000
   -0.0264    1.4979    0.0627 C   0  0  0  0  0  0  0  0  0  0  0  0
   -0.7458    1.7827    0.6907 H   0  0  0  0  0  0  0  0  0  0  0  0
   -0.2092    1.8570   -0.8481 H   0  0  0  0  0  0  0  0  0  0  0  0
    0.9154    1.9211    0.4118 H   0  0  0  0  0  0  0  0  0  0  0  0
    0.0000    0.0000    0.0000 C   0  0  0  0  0  0  0  0  0  0  0  0
   -1.1051   -0.6004   -0.0000 O   0  0  0  0  0  1  0  0  0  0  0  0
    1.1051   -0.6012   -0.0000 O   0  0  0  0  0  0  0  0  0  0  0  0
    3.3381   -0.6330    1.6564 C   0  0  0  0  0  0  0  0  0  0  0  0
    3.4796    0.3643    1.7401 H   0  0  0  0  0  0  0  0  0  0  0  0
    2.5246   -0.7827    1.0771 H   0  0  0  0  0  0  0  0  0  0  0  0
    4.2042   -1.0614    1.1518 H   0  0  0  0  0  0  0  0  0  0  0  0
    3.0871   -1.2131    3.0221 C   0  0  0  0  0  0  0  0  0  0  0  0
    2.9488   -2.2073    2.9310 H   0  0  0  0  0  0  0  0  0  0  0  0
    3.9022   -1.0594    3.5951 H   0  0  0  0  0  0  0  0  0  0  0  0
    1.8962   -0.6241    3.7160 C   0  0  0  0  0  0  0  0  0  0  0  0
    2.0281    0.3668    3.8216 H   0  0  0  0  0  0  0  0  0  0  0  0
    1.0744   -0.7801    3.1596 H   0  0  0  0  0  0  0  0  0  0  0  0
    1.7469   -1.0685    4.7001 H   0  0  0  0  0  0  0  0  0  0  0  0
  1  5  1  0
  5  6  1  0
  5  7  2  0
  1  2  1  0
  1  3  1  0
  1  4  1  0
  8 12  1  0
 12 15  1  0
  8  9  1  0
  8 10  1  0
  8 11  1  0
 12 13  1  0
 12 14  1  0
 15 16  1  0
 15 17  1  0
 15 18  1  0
M  CHG  1   6  -1
M  END
>  <PDB_ID>  (426) 
pdb2i45

>  <RESIDUE_NAME>  (426) 
ASP   LYS

>  <FRAG_NAME>  (426) 
ACET   PRPA

>  <FRAG_ATOM_NUM>  (426) 
fragi: 7  fragj: 11

>  <atom.prop.CHAIN_ID>  (426) 
A A A A A A A Z Z Z Z Z Z Z Z Z Z Z

>  <atom.prop.IS_HEAVY_ATOM>  (426) 
1 0 0 0 1 1 1 1 0 0 0 1 0 0 1 0 0 0

>  <DIFUSE_FUNC_ATOM>  (426) 
atom 6   atom 7   

>  <FINAL_SINGLE_POINT_ENERGY>  (426) 
0

>  <NONCOV_INTER_ENERGY_QM>  (426) 
0

>  <FF_Energy>  (426) 
28.63

>  <QM_Energy>  (426) 
-0.11

>  <source>  (426) 
ACET_PRPA_04

>  <Index>  (426) 
1930

$$$$
ACET-pdb1hbh-A-GLU-139:PRPA-pdb1hbh-A-LYS-78
     RDKit          3D

 18 16  0  0  0  0  0  0  0  0999 V2000
    0.2714    1.4924   -0.0035 C   0  0  0  0  0  0  0  0  0  0  0  0
    0.9148    1.6789   -0.7192 H   0  0  0  0  0  0  0  0  0  0  0  0
    0.6101    1.7379    0.8830 H   0  0  0  0  0  0  0  0  0  0  0  0
   -0.6258    2.0805   -0.1968 H   0  0  0  0  0  0  0  0  0  0  0  0
    0.0000    0.0000    0.0000 C   0  0  0  0  0  0  0  0  0  0  0  0
   -1.0693   -0.5649   -0.0000 O   0  0  0  0  0  1  0  0  0  0  0  0
    1.0693   -0.6200    0.0000 O   0  0  0  0  0  0  0  0  0  0  0  0
    1.6247    0.0102   -3.5110 C   0  0  0  0  0  0  0  0  0  0  0  0
    2.5082    0.3749   -3.7463 H   0  0  0  0  0  0  0  0  0  0  0  0
    1.0639    0.6697   -3.0448 H   0  0  0  0  0  0  0  0  0  0  0  0
    1.1184   -0.2893   -4.4286 H   0  0  0  0  0  0  0  0  0  0  0  0
    1.7820   -1.2164   -2.6716 C   0  0  0  0  0  0  0  0  0  0  0  0
    1.4926   -1.0085   -1.7219 H   0  0  0  0  0  0  0  0  0  0  0  0
    1.1668   -1.9416   -3.0229 H   0  0  0  0  0  0  0  0  0  0  0  0
    3.1883   -1.7863   -2.6160 C   0  0  0  0  0  0  0  0  0  0  0  0
    3.6007   -1.7276   -3.4790 H   0  0  0  0  0  0  0  0  0  0  0  0
    3.6699   -1.4033   -1.8805 H   0  0  0  0  0  0  0  0  0  0  0  0
    2.9837   -2.8338   -2.3948 H   0  0  0  0  0  0  0  0  0  0  0  0
  1  5  1  0
  5  6  1  0
  5  7  2  0
  1  2  1  0
  1  3  1  0
  1  4  1  0
  8 12  1  0
 12 15  1  0
  8  9  1  0
  8 10  1  0
  8 11  1  0
 12 13  1  0
 12 14  1  0
 15 16  1  0
 15 17  1  0
 15 18  1  0
M  CHG  1   6  -1
M  END
>  <PDB_ID>  (427) 
pdb1hbh

>  <RESIDUE_NAME>  (427) 
GLU   LYS

>  <FRAG_NAME>  (427) 
ACET   PRPA

>  <FRAG_ATOM_NUM>  (427) 
fragi: 7  fragj: 11

>  <atom.prop.CHAIN_ID>  (427) 
A A A A A A A Z Z Z Z Z Z Z Z Z Z Z

>  <atom.prop.IS_HEAVY_ATOM>  (427) 
1 0 0 0 1 1 1 1 0 0 0 1 0 0 1 0 0 0

>  <DIFUSE_FUNC_ATOM>  (427) 
atom 6   atom 7   

>  <FINAL_SINGLE_POINT_ENERGY>  (427) 
0

>  <NONCOV_INTER_ENERGY_QM>  (427) 
0

>  <FF_Energy>  (427) 
28.39

>  <QM_Energy>  (427) 
-1.32

>  <source>  (427) 
ACET_PRPA_04

>  <Index>  (427) 
2000

$$$$
ACET-pdb1hbh-A-GLU-139:PRPA-pdb1hbh-A-LYS-78
     RDKit          3D

 18 16  0  0  0  0  0  0  0  0999 V2000
    0.2714    1.4924   -0.0035 C   0  0  0  0  0  0  0  0  0  0  0  0
    0.9148    1.6789   -0.7192 H   0  0  0  0  0  0  0  0  0  0  0  0
    0.6101    1.7379    0.8830 H   0  0  0  0  0  0  0  0  0  0  0  0
   -0.6258    2.0805   -0.1968 H   0  0  0  0  0  0  0  0  0  0  0  0
    0.0000    0.0000    0.0000 C   0  0  0  0  0  0  0  0  0  0  0  0
   -1.0693   -0.5649   -0.0000 O   0  0  0  0  0  1  0  0  0  0  0  0
    1.0693   -0.6200    0.0000 O   0  0  0  0  0  0  0  0  0  0  0  0
    0.9111   -0.4118   -4.8044 C   0  0  0  0  0  0  0  0  0  0  0  0
    0.1366   -0.9821   -4.5501 H   0  0  0  0  0  0  0  0  0  0  0  0
    1.5585   -0.9346   -5.3502 H   0  0  0  0  0  0  0  0  0  0  0  0
    0.5523    0.4334   -5.3919 H   0  0  0  0  0  0  0  0  0  0  0  0
    1.6247    0.0102   -3.5110 C   0  0  0  0  0  0  0  0  0  0  0  0
    2.5082    0.3749   -3.7463 H   0  0  0  0  0  0  0  0  0  0  0  0
    1.0639    0.6697   -3.0448 H   0  0  0  0  0  0  0  0  0  0  0  0
    1.7820   -1.2164   -2.6716 C   0  0  0  0  0  0  0  0  0  0  0  0
    1.4926   -1.0085   -1.7219 H   0  0  0  0  0  0  0  0  0  0  0  0
    1.1668   -1.9416   -3.0229 H   0  0  0  0  0  0  0  0  0  0  0  0
    2.7915   -1.6255   -2.6317 H   0  0  0  0  0  0  0  0  0  0  0  0
  1  5  1  0
  5  6  1  0
  5  7  2  0
  1  2  1  0
  1  3  1  0
  1  4  1  0
  8 12  1  0
 12 15  1  0
  8  9  1  0
  8 10  1  0
  8 11  1  0
 12 13  1  0
 12 14  1  0
 15 16  1  0
 15 17  1  0
 15 18  1  0
M  CHG  1   6  -1
M  END
>  <PDB_ID>  (428) 
pdb1hbh

>  <RESIDUE_NAME>  (428) 
GLU   LYS

>  <FRAG_NAME>  (428) 
ACET   PRPA

>  <FRAG_ATOM_NUM>  (428) 
fragi: 7  fragj: 11

>  <atom.prop.CHAIN_ID>  (428) 
A A A A A A A Z Z Z Z Z Z Z Z Z Z Z

>  <atom.prop.IS_HEAVY_ATOM>  (428) 
1 0 0 0 1 1 1 1 0 0 0 1 0 0 1 0 0 0

>  <DIFUSE_FUNC_ATOM>  (428) 
atom 6   atom 7   

>  <FINAL_SINGLE_POINT_ENERGY>  (428) 
0

>  <NONCOV_INTER_ENERGY_QM>  (428) 
0

>  <FF_Energy>  (428) 
24.31

>  <QM_Energy>  (428) 
-0.78

>  <source>  (428) 
ACET_PRPA_04

>  <Index>  (428) 
2003

$$$$
ACET-pdb2i3o-A-ASP-227:PRPA-pdb2i3o-A-ARG-83
     RDKit          3D

 18 16  0  0  0  0  0  0  0  0999 V2000
    0.0019    1.5149    0.0192 C   0  0  0  0  0  0  0  0  0  0  0  0
    0.8774    1.8396   -0.3228 H   0  0  0  0  0  0  0  0  0  0  0  0
   -0.1433    1.8248    0.9519 H   0  0  0  0  0  0  0  0  0  0  0  0
   -0.7814    1.9467   -0.6039 H   0  0  0  0  0  0  0  0  0  0  0  0
    0.0000    0.0000    0.0000 C   0  0  0  0  0  0  0  0  0  0  0  0
   -1.1008   -0.5947   -0.0000 O   0  0  0  0  0  1  0  0  0  0  0  0
    1.1008   -0.5940   -0.0000 O   0  0  0  0  0  0  0  0  0  0  0  0
   -2.5697   -4.1077    1.0245 C   0  0  0  0  0  0  0  0  0  0  0  0
   -3.2728   -4.2789    1.7132 H   0  0  0  0  0  0  0  0  0  0  0  0
   -1.9067   -3.3199    1.3820 H   0  0  0  0  0  0  0  0  0  0  0  0
   -1.9932   -5.0214    0.8798 H   0  0  0  0  0  0  0  0  0  0  0  0
   -3.2260   -3.6926   -0.2922 C   0  0  0  0  0  0  0  0  0  0  0  0
   -2.8473   -4.2648   -1.0238 H   0  0  0  0  0  0  0  0  0  0  0  0
   -4.2107   -3.8670   -0.2196 H   0  0  0  0  0  0  0  0  0  0  0  0
   -3.0398   -2.2363   -0.6950 C   0  0  0  0  0  0  0  0  0  0  0  0
   -3.4226   -1.6500    0.0219 H   0  0  0  0  0  0  0  0  0  0  0  0
   -2.0596   -2.0484   -0.7835 H   0  0  0  0  0  0  0  0  0  0  0  0
   -3.5310   -2.0079   -1.6407 H   0  0  0  0  0  0  0  0  0  0  0  0
  1  5  1  0
  5  6  1  0
  5  7  2  0
  1  2  1  0
  1  3  1  0
  1  4  1  0
  8 12  1  0
 12 15  1  0
  8  9  1  0
  8 10  1  0
  8 11  1  0
 12 13  1  0
 12 14  1  0
 15 16  1  0
 15 17  1  0
 15 18  1  0
M  CHG  1   6  -1
M  END
>  <PDB_ID>  (429) 
pdb2i3o

>  <RESIDUE_NAME>  (429) 
ASP   ARG

>  <FRAG_NAME>  (429) 
ACET   PRPA

>  <FRAG_ATOM_NUM>  (429) 
fragi: 7  fragj: 11

>  <atom.prop.CHAIN_ID>  (429) 
A A A A A A A Z Z Z Z Z Z Z Z Z Z Z

>  <atom.prop.IS_HEAVY_ATOM>  (429) 
1 0 0 0 1 1 1 1 0 0 0 1 0 0 1 0 0 0

>  <DIFUSE_FUNC_ATOM>  (429) 
atom 6   atom 7   

>  <FINAL_SINGLE_POINT_ENERGY>  (429) 
0

>  <NONCOV_INTER_ENERGY_QM>  (429) 
0

>  <FF_Energy>  (429) 
16.71

>  <QM_Energy>  (429) 
1.61

>  <source>  (429) 
ACET_PRPA_04

>  <Index>  (429) 
2425

$$$$
ACET-pdb2i3o-A-ASP-227:PRPA-pdb2i3o-A-ARG-83
     RDKit          3D

 18 16  0  0  0  0  0  0  0  0999 V2000
    0.0019    1.5149    0.0192 C   0  0  0  0  0  0  0  0  0  0  0  0
    0.8774    1.8396   -0.3228 H   0  0  0  0  0  0  0  0  0  0  0  0
   -0.1433    1.8248    0.9519 H   0  0  0  0  0  0  0  0  0  0  0  0
   -0.7814    1.9467   -0.6039 H   0  0  0  0  0  0  0  0  0  0  0  0
    0.0000    0.0000    0.0000 C   0  0  0  0  0  0  0  0  0  0  0  0
   -1.1008   -0.5947   -0.0000 O   0  0  0  0  0  1  0  0  0  0  0  0
    1.1008   -0.5940   -0.0000 O   0  0  0  0  0  0  0  0  0  0  0  0
   -3.2260   -3.6926   -0.2922 C   0  0  0  0  0  0  0  0  0  0  0  0
   -2.8473   -4.2648   -1.0238 H   0  0  0  0  0  0  0  0  0  0  0  0
   -4.2107   -3.8670   -0.2196 H   0  0  0  0  0  0  0  0  0  0  0  0
   -2.7580   -3.9886    0.6467 H   0  0  0  0  0  0  0  0  0  0  0  0
   -3.0398   -2.2363   -0.6950 C   0  0  0  0  0  0  0  0  0  0  0  0
   -3.4226   -1.6500    0.0219 H   0  0  0  0  0  0  0  0  0  0  0  0
   -2.0596   -2.0484   -0.7835 H   0  0  0  0  0  0  0  0  0  0  0  0
   -3.7100   -1.9246   -1.9853 C   0  0  0  0  0  0  0  0  0  0  0  0
   -3.9137   -0.9448   -2.0163 H   0  0  0  0  0  0  0  0  0  0  0  0
   -3.0897   -2.1583   -2.7362 H   0  0  0  0  0  0  0  0  0  0  0  0
   -4.6390   -2.4809   -2.1100 H   0  0  0  0  0  0  0  0  0  0  0  0
  1  5  1  0
  5  6  1  0
  5  7  2  0
  1  2  1  0
  1  3  1  0
  1  4  1  0
  8 12  1  0
 12 15  1  0
  8  9  1  0
  8 10  1  0
  8 11  1  0
 12 13  1  0
 12 14  1  0
 15 16  1  0
 15 17  1  0
 15 18  1  0
M  CHG  1   6  -1
M  END
>  <PDB_ID>  (430) 
pdb2i3o

>  <RESIDUE_NAME>  (430) 
ASP   ARG

>  <FRAG_NAME>  (430) 
ACET   PRPA

>  <FRAG_ATOM_NUM>  (430) 
fragi: 7  fragj: 11

>  <atom.prop.CHAIN_ID>  (430) 
A A A A A A A Z Z Z Z Z Z Z Z Z Z Z

>  <atom.prop.IS_HEAVY_ATOM>  (430) 
1 0 0 0 1 1 1 1 0 0 0 1 0 0 1 0 0 0

>  <DIFUSE_FUNC_ATOM>  (430) 
atom 6   atom 7   

>  <FINAL_SINGLE_POINT_ENERGY>  (430) 
0

>  <NONCOV_INTER_ENERGY_QM>  (430) 
0

>  <FF_Energy>  (430) 
17.75

>  <QM_Energy>  (430) 
1.36

>  <source>  (430) 
ACET_PRPA_04

>  <Index>  (430) 
2438

$$$$
ACET-pdb2ia4-A-ASP-200:PRPA-pdb2ia4-A-LYS-118
     RDKit          3D

 18 16  0  0  0  0  0  0  0  0999 V2000
   -0.0106    1.5104   -0.0100 C   0  0  0  0  0  0  0  0  0  0  0  0
   -0.5829    1.8343    0.7358 H   0  0  0  0  0  0  0  0  0  0  0  0
   -0.3693    1.8259   -0.8819 H   0  0  0  0  0  0  0  0  0  0  0  0
    0.9819    1.9421    0.1195 H   0  0  0  0  0  0  0  0  0  0  0  0
    0.0000    0.0000    0.0000 C   0  0  0  0  0  0  0  0  0  0  0  0
   -1.0985   -0.5944    0.0000 O   0  0  0  0  0  1  0  0  0  0  0  0
    1.0985   -0.5911    0.0000 O   0  0  0  0  0  0  0  0  0  0  0  0
   -1.0101   -1.6515    3.6293 C   0  0  0  0  0  0  0  0  0  0  0  0
   -0.6326   -1.8301    4.5416 H   0  0  0  0  0  0  0  0  0  0  0  0
   -1.6148   -2.4109    3.3747 H   0  0  0  0  0  0  0  0  0  0  0  0
   -1.6152   -0.7467    3.6875 H   0  0  0  0  0  0  0  0  0  0  0  0
    0.1345   -1.5986    2.6403 C   0  0  0  0  0  0  0  0  0  0  0  0
   -0.1965   -1.2372    1.7723 H   0  0  0  0  0  0  0  0  0  0  0  0
    0.8565   -1.0141    3.0007 H   0  0  0  0  0  0  0  0  0  0  0  0
    0.6997   -2.9912    2.4084 C   0  0  0  0  0  0  0  0  0  0  0  0
    1.1040   -3.3194    3.2568 H   0  0  0  0  0  0  0  0  0  0  0  0
   -0.0378   -3.5952    2.1233 H   0  0  0  0  0  0  0  0  0  0  0  0
    1.4673   -2.9901    1.6345 H   0  0  0  0  0  0  0  0  0  0  0  0
  1  5  1  0
  5  6  1  0
  5  7  2  0
  1  2  1  0
  1  3  1  0
  1  4  1  0
  8 12  1  0
 12 15  1  0
  8  9  1  0
  8 10  1  0
  8 11  1  0
 12 13  1  0
 12 14  1  0
 15 16  1  0
 15 17  1  0
 15 18  1  0
M  CHG  1   6  -1
M  END
>  <PDB_ID>  (431) 
pdb2ia4

>  <RESIDUE_NAME>  (431) 
ASP   LYS

>  <FRAG_NAME>  (431) 
ACET   PRPA

>  <FRAG_ATOM_NUM>  (431) 
fragi: 7  fragj: 11

>  <atom.prop.CHAIN_ID>  (431) 
A A A A A A A Z Z Z Z Z Z Z Z Z Z Z

>  <atom.prop.IS_HEAVY_ATOM>  (431) 
1 0 0 0 1 1 1 1 0 0 0 1 0 0 1 0 0 0

>  <DIFUSE_FUNC_ATOM>  (431) 
atom 6   atom 7   

>  <FINAL_SINGLE_POINT_ENERGY>  (431) 
0

>  <NONCOV_INTER_ENERGY_QM>  (431) 
0

>  <FF_Energy>  (431) 
13.69

>  <QM_Energy>  (431) 
-1.7

>  <source>  (431) 
ACET_PRPA_04

>  <Index>  (431) 
4860

$$$$
ACET-pdb2ia4-A-ASP-200:PRPA-pdb2ia4-A-LYS-118
     RDKit          3D

 18 16  0  0  0  0  0  0  0  0999 V2000
   -0.0106    1.5104   -0.0100 C   0  0  0  0  0  0  0  0  0  0  0  0
   -0.5829    1.8343    0.7358 H   0  0  0  0  0  0  0  0  0  0  0  0
   -0.3693    1.8259   -0.8819 H   0  0  0  0  0  0  0  0  0  0  0  0
    0.9819    1.9421    0.1195 H   0  0  0  0  0  0  0  0  0  0  0  0
    0.0000    0.0000    0.0000 C   0  0  0  0  0  0  0  0  0  0  0  0
   -1.0985   -0.5944    0.0000 O   0  0  0  0  0  1  0  0  0  0  0  0
    1.0985   -0.5911    0.0000 O   0  0  0  0  0  0  0  0  0  0  0  0
    0.1345   -1.5986    2.6403 C   0  0  0  0  0  0  0  0  0  0  0  0
   -0.1965   -1.2372    1.7723 H   0  0  0  0  0  0  0  0  0  0  0  0
    0.8565   -1.0141    3.0007 H   0  0  0  0  0  0  0  0  0  0  0  0
   -0.6897   -1.6367    3.3525 H   0  0  0  0  0  0  0  0  0  0  0  0
    0.6997   -2.9912    2.4084 C   0  0  0  0  0  0  0  0  0  0  0  0
    1.1040   -3.3194    3.2568 H   0  0  0  0  0  0  0  0  0  0  0  0
   -0.0378   -3.5952    2.1233 H   0  0  0  0  0  0  0  0  0  0  0  0
    1.7695   -2.9897    1.3297 C   0  0  0  0  0  0  0  0  0  0  0  0
    1.3613   -2.6797    0.4678 H   0  0  0  0  0  0  0  0  0  0  0  0
    2.4961   -2.3503    1.5932 H   0  0  0  0  0  0  0  0  0  0  0  0
    2.1986   -3.9816    1.1877 H   0  0  0  0  0  0  0  0  0  0  0  0
  1  5  1  0
  5  6  1  0
  5  7  2  0
  1  2  1  0
  1  3  1  0
  1  4  1  0
  8 12  1  0
 12 15  1  0
  8  9  1  0
  8 10  1  0
  8 11  1  0
 12 13  1  0
 12 14  1  0
 15 16  1  0
 15 17  1  0
 15 18  1  0
M  CHG  1   6  -1
M  END
>  <PDB_ID>  (432) 
pdb2ia4

>  <RESIDUE_NAME>  (432) 
ASP   LYS

>  <FRAG_NAME>  (432) 
ACET   PRPA

>  <FRAG_ATOM_NUM>  (432) 
fragi: 7  fragj: 11

>  <atom.prop.CHAIN_ID>  (432) 
A A A A A A A Z Z Z Z Z Z Z Z Z Z Z

>  <atom.prop.IS_HEAVY_ATOM>  (432) 
1 0 0 0 1 1 1 1 0 0 0 1 0 0 1 0 0 0

>  <DIFUSE_FUNC_ATOM>  (432) 
atom 6   atom 7   

>  <FINAL_SINGLE_POINT_ENERGY>  (432) 
0

>  <NONCOV_INTER_ENERGY_QM>  (432) 
0

>  <FF_Energy>  (432) 
17.02

>  <QM_Energy>  (432) 
-0.38

>  <source>  (432) 
ACET_PRPA_04

>  <Index>  (432) 
4863

$$$$
ACET-pdb2iel-A-GLU-75:PRPA-pdb2iel-A-ARG-32
     RDKit          3D

 18 16  0  0  0  0  0  0  0  0999 V2000
    0.0018    1.5062   -0.0012 C   0  0  0  0  0  0  0  0  0  0  0  0
    0.9246    1.8043   -0.1731 H   0  0  0  0  0  0  0  0  0  0  0  0
   -0.3228    1.8061    0.8788 H   0  0  0  0  0  0  0  0  0  0  0  0
   -0.6448    1.9292   -0.7700 H   0  0  0  0  0  0  0  0  0  0  0  0
    0.0000    0.0000    0.0000 C   0  0  0  0  0  0  0  0  0  0  0  0
   -1.0945   -0.5924    0.0000 O   0  0  0  0  0  1  0  0  0  0  0  0
    1.0945   -0.5886    0.0000 O   0  0  0  0  0  0  0  0  0  0  0  0
   -3.7289   -1.8609   -1.7239 C   0  0  0  0  0  0  0  0  0  0  0  0
   -3.3648   -2.7315   -2.0462 H   0  0  0  0  0  0  0  0  0  0  0  0
   -2.9954   -1.1885   -1.6597 H   0  0  0  0  0  0  0  0  0  0  0  0
   -4.4621   -1.5046   -2.4474 H   0  0  0  0  0  0  0  0  0  0  0  0
   -4.2843   -2.0803   -0.3169 C   0  0  0  0  0  0  0  0  0  0  0  0
   -4.7935   -1.2780   -0.0348 H   0  0  0  0  0  0  0  0  0  0  0  0
   -4.8627   -2.8852   -0.3130 H   0  0  0  0  0  0  0  0  0  0  0  0
   -3.1511   -2.3014    0.6757 C   0  0  0  0  0  0  0  0  0  0  0  0
   -2.4240   -1.6508    0.4652 H   0  0  0  0  0  0  0  0  0  0  0  0
   -3.5058   -2.1263    1.5924 H   0  0  0  0  0  0  0  0  0  0  0  0
   -2.7502   -3.3140    0.6324 H   0  0  0  0  0  0  0  0  0  0  0  0
  1  5  1  0
  5  6  1  0
  5  7  2  0
  1  2  1  0
  1  3  1  0
  1  4  1  0
  8 12  1  0
 12 15  1  0
  8  9  1  0
  8 10  1  0
  8 11  1  0
 12 13  1  0
 12 14  1  0
 15 16  1  0
 15 17  1  0
 15 18  1  0
M  CHG  1   6  -1
M  END
>  <PDB_ID>  (433) 
pdb2iel

>  <RESIDUE_NAME>  (433) 
GLU   ARG

>  <FRAG_NAME>  (433) 
ACET   PRPA

>  <FRAG_ATOM_NUM>  (433) 
fragi: 7  fragj: 11

>  <atom.prop.CHAIN_ID>  (433) 
A A A A A A A Z Z Z Z Z Z Z Z Z Z Z

>  <atom.prop.IS_HEAVY_ATOM>  (433) 
1 0 0 0 1 1 1 1 0 0 0 1 0 0 1 0 0 0

>  <DIFUSE_FUNC_ATOM>  (433) 
atom 6   atom 7   

>  <FINAL_SINGLE_POINT_ENERGY>  (433) 
0

>  <NONCOV_INTER_ENERGY_QM>  (433) 
0

>  <FF_Energy>  (433) 
35.77

>  <QM_Energy>  (433) 
-0.4

>  <source>  (433) 
ACET_PRPA_04

>  <Index>  (433) 
5548

$$$$
ACET-pdb2ift-A-GLU-141:PRPA-pdb2ift-A-PRO-168
     RDKit          3D

 18 16  0  0  0  0  0  0  0  0999 V2000
    0.1689    1.4840    0.0128 C   0  0  0  0  0  0  0  0  0  0  0  0
    0.6896    1.7410   -0.8046 H   0  0  0  0  0  0  0  0  0  0  0  0
    0.7015    1.7252    0.8279 H   0  0  0  0  0  0  0  0  0  0  0  0
   -0.7413    2.0836    0.0243 H   0  0  0  0  0  0  0  0  0  0  0  0
    0.0000    0.0000    0.0000 C   0  0  0  0  0  0  0  0  0  0  0  0
   -1.0897   -0.5593    0.0000 O   0  0  0  0  0  1  0  0  0  0  0  0
    1.0897   -0.6060    0.0000 O   0  0  0  0  0  0  0  0  0  0  0  0
    2.7616   -3.9400   -0.8328 C   0  0  0  0  0  0  0  0  0  0  0  0
    2.2829   -4.4213    0.0104 H   0  0  0  0  0  0  0  0  0  0  0  0
    3.7570   -4.3703   -0.9430 H   0  0  0  0  0  0  0  0  0  0  0  0
    2.0164   -3.8130   -1.6180 H   0  0  0  0  0  0  0  0  0  0  0  0
    3.0684   -2.5961   -0.1953 C   0  0  0  0  0  0  0  0  0  0  0  0
    2.3321   -1.9537   -0.3318 H   0  0  0  0  0  0  0  0  0  0  0  0
    3.3000   -2.6913    0.7581 H   0  0  0  0  0  0  0  0  0  0  0  0
    4.2886   -2.1798   -0.9979 C   0  0  0  0  0  0  0  0  0  0  0  0
    4.0211   -1.8857   -1.9060 H   0  0  0  0  0  0  0  0  0  0  0  0
    4.7838   -1.4615   -0.5265 H   0  0  0  0  0  0  0  0  0  0  0  0
    4.8839   -3.0916   -1.0468 H   0  0  0  0  0  0  0  0  0  0  0  0
  1  5  1  0
  5  6  1  0
  5  7  2  0
  1  2  1  0
  1  3  1  0
  1  4  1  0
  8 12  1  0
 12 15  1  0
  8  9  1  0
  8 10  1  0
  8 11  1  0
 12 13  1  0
 12 14  1  0
 15 16  1  0
 15 17  1  0
 15 18  1  0
M  CHG  1   6  -1
M  END
>  <PDB_ID>  (434) 
pdb2ift

>  <RESIDUE_NAME>  (434) 
GLU   PRO

>  <FRAG_NAME>  (434) 
ACET   PRPA

>  <FRAG_ATOM_NUM>  (434) 
fragi: 7  fragj: 11

>  <atom.prop.CHAIN_ID>  (434) 
A A A A A A A Z Z Z Z Z Z Z Z Z Z Z

>  <atom.prop.IS_HEAVY_ATOM>  (434) 
1 0 0 0 1 1 1 1 0 0 0 1 0 0 1 0 0 0

>  <DIFUSE_FUNC_ATOM>  (434) 
atom 6   atom 7   

>  <FINAL_SINGLE_POINT_ENERGY>  (434) 
0

>  <NONCOV_INTER_ENERGY_QM>  (434) 
0

>  <FF_Energy>  (434) 
20.34

>  <QM_Energy>  (434) 
-2.05

>  <source>  (434) 
ACET_PRPA_04

>  <Index>  (434) 
7643

$$$$
ACET-pdb2ift-A-GLU-141:PRPA-pdb2ift-A-PRO-168
     RDKit          3D

 18 16  0  0  0  0  0  0  0  0999 V2000
    0.1689    1.4840    0.0128 C   0  0  0  0  0  0  0  0  0  0  0  0
    0.6896    1.7410   -0.8046 H   0  0  0  0  0  0  0  0  0  0  0  0
    0.7015    1.7252    0.8279 H   0  0  0  0  0  0  0  0  0  0  0  0
   -0.7413    2.0836    0.0243 H   0  0  0  0  0  0  0  0  0  0  0  0
    0.0000    0.0000    0.0000 C   0  0  0  0  0  0  0  0  0  0  0  0
   -1.0897   -0.5593    0.0000 O   0  0  0  0  0  1  0  0  0  0  0  0
    1.0897   -0.6060    0.0000 O   0  0  0  0  0  0  0  0  0  0  0  0
    3.0684   -2.5961   -0.1953 C   0  0  0  0  0  0  0  0  0  0  0  0
    2.3321   -1.9537   -0.3318 H   0  0  0  0  0  0  0  0  0  0  0  0
    3.3000   -2.6913    0.7581 H   0  0  0  0  0  0  0  0  0  0  0  0
    2.8481   -3.5606   -0.6528 H   0  0  0  0  0  0  0  0  0  0  0  0
    4.2886   -2.1798   -0.9979 C   0  0  0  0  0  0  0  0  0  0  0  0
    4.0211   -1.8857   -1.9060 H   0  0  0  0  0  0  0  0  0  0  0  0
    4.7838   -1.4615   -0.5265 H   0  0  0  0  0  0  0  0  0  0  0  0
    5.1238   -3.4590   -1.0665 C   0  0  0  0  0  0  0  0  0  0  0  0
    5.6208   -3.5122   -1.9269 H   0  0  0  0  0  0  0  0  0  0  0  0
    5.7568   -3.5110   -0.2993 H   0  0  0  0  0  0  0  0  0  0  0  0
    4.3697   -4.2435   -1.0036 H   0  0  0  0  0  0  0  0  0  0  0  0
  1  5  1  0
  5  6  1  0
  5  7  2  0
  1  2  1  0
  1  3  1  0
  1  4  1  0
  8 12  1  0
 12 15  1  0
  8  9  1  0
  8 10  1  0
  8 11  1  0
 12 13  1  0
 12 14  1  0
 15 16  1  0
 15 17  1  0
 15 18  1  0
M  CHG  1   6  -1
M  END
>  <PDB_ID>  (435) 
pdb2ift

>  <RESIDUE_NAME>  (435) 
GLU   PRO

>  <FRAG_NAME>  (435) 
ACET   PRPA

>  <FRAG_ATOM_NUM>  (435) 
fragi: 7  fragj: 11

>  <atom.prop.CHAIN_ID>  (435) 
A A A A A A A Z Z Z Z Z Z Z Z Z Z Z

>  <atom.prop.IS_HEAVY_ATOM>  (435) 
1 0 0 0 1 1 1 1 0 0 0 1 0 0 1 0 0 0

>  <DIFUSE_FUNC_ATOM>  (435) 
atom 6   atom 7   

>  <FINAL_SINGLE_POINT_ENERGY>  (435) 
0

>  <NONCOV_INTER_ENERGY_QM>  (435) 
0

>  <FF_Energy>  (435) 
17.67

>  <QM_Energy>  (435) 
-0.38

>  <source>  (435) 
ACET_PRPA_04

>  <Index>  (435) 
7649

$$$$
ACET-pdb2id0-A-ASP-39:PRPA-pdb2id0-A-LYS-42
     RDKit          3D

 18 16  0  0  0  0  0  0  0  0999 V2000
    0.0084    1.5036   -0.0490 C   0  0  0  0  0  0  0  0  0  0  0  0
    0.9117    1.8149   -0.3192 H   0  0  0  0  0  0  0  0  0  0  0  0
   -0.2309    1.8601    0.8456 H   0  0  0  0  0  0  0  0  0  0  0  0
   -0.7097    1.8972   -0.7685 H   0  0  0  0  0  0  0  0  0  0  0  0
    0.0000    0.0000    0.0000 C   0  0  0  0  0  0  0  0  0  0  0  0
   -1.1001   -0.5889    0.0000 O   0  0  0  0  0  1  0  0  0  0  0  0
    1.1001   -0.5944   -0.0000 O   0  0  0  0  0  0  0  0  0  0  0  0
   -4.0387   -2.1735   -0.8664 C   0  0  0  0  0  0  0  0  0  0  0  0
   -4.5232   -3.0588   -0.8414 H   0  0  0  0  0  0  0  0  0  0  0  0
   -3.2340   -2.2475   -1.5979 H   0  0  0  0  0  0  0  0  0  0  0  0
   -4.7473   -1.3848   -1.1194 H   0  0  0  0  0  0  0  0  0  0  0  0
   -3.5489   -1.9772    0.5753 C   0  0  0  0  0  0  0  0  0  0  0  0
   -2.5849   -1.6953    0.5353 H   0  0  0  0  0  0  0  0  0  0  0  0
   -4.0852   -1.2293    0.9805 H   0  0  0  0  0  0  0  0  0  0  0  0
   -3.6587   -3.1880    1.4695 C   0  0  0  0  0  0  0  0  0  0  0  0
   -3.1266   -3.9412    1.0743 H   0  0  0  0  0  0  0  0  0  0  0  0
   -3.2867   -2.9669    2.3749 H   0  0  0  0  0  0  0  0  0  0  0  0
   -4.6916   -3.5157    1.5873 H   0  0  0  0  0  0  0  0  0  0  0  0
  1  5  1  0
  5  6  1  0
  5  7  2  0
  1  2  1  0
  1  3  1  0
  1  4  1  0
  8 12  1  0
 12 15  1  0
  8  9  1  0
  8 10  1  0
  8 11  1  0
 12 13  1  0
 12 14  1  0
 15 16  1  0
 15 17  1  0
 15 18  1  0
M  CHG  1   6  -1
M  END
>  <PDB_ID>  (436) 
pdb2id0

>  <RESIDUE_NAME>  (436) 
ASP   LYS

>  <FRAG_NAME>  (436) 
ACET   PRPA

>  <FRAG_ATOM_NUM>  (436) 
fragi: 7  fragj: 11

>  <atom.prop.CHAIN_ID>  (436) 
A A A A A A A Z Z Z Z Z Z Z Z Z Z Z

>  <atom.prop.IS_HEAVY_ATOM>  (436) 
1 0 0 0 1 1 1 1 0 0 0 1 0 0 1 0 0 0

>  <DIFUSE_FUNC_ATOM>  (436) 
atom 6   atom 7   

>  <FINAL_SINGLE_POINT_ENERGY>  (436) 
0

>  <NONCOV_INTER_ENERGY_QM>  (436) 
0

>  <FF_Energy>  (436) 
13.17

>  <QM_Energy>  (436) 
-2.33

>  <source>  (436) 
ACET_PRPA_04

>  <Index>  (436) 
7774

$$$$
ACET-pdb1hw7-A-ASP-7:PRPA-pdb1hw7-A-GLU-28
     RDKit          3D

 18 16  0  0  0  0  0  0  0  0999 V2000
    0.0268    1.5242   -0.0069 C   0  0  0  0  0  0  0  0  0  0  0  0
    0.9519    1.8222    0.1942 H   0  0  0  0  0  0  0  0  0  0  0  0
   -0.6039    1.8521    0.6849 H   0  0  0  0  0  0  0  0  0  0  0  0
   -0.2685    1.9399   -0.9702 H   0  0  0  0  0  0  0  0  0  0  0  0
    0.0000    0.0000    0.0000 C   0  0  0  0  0  0  0  0  0  0  0  0
   -1.1044   -0.5908   -0.0000 O   0  0  0  0  0  1  0  0  0  0  0  0
    1.1044   -0.5971    0.0000 O   0  0  0  0  0  0  0  0  0  0  0  0
    0.6812   -3.6494    1.0885 C   0  0  0  0  0  0  0  0  0  0  0  0
    1.0154   -4.5581    0.9167 H   0  0  0  0  0  0  0  0  0  0  0  0
    0.0901   -3.2966    0.2434 H   0  0  0  0  0  0  0  0  0  0  0  0
    0.0015   -3.6708    1.9404 H   0  0  0  0  0  0  0  0  0  0  0  0
    1.8552   -2.7256    1.3976 C   0  0  0  0  0  0  0  0  0  0  0  0
    1.8478   -1.9982    0.7456 H   0  0  0  0  0  0  0  0  0  0  0  0
    1.7661   -2.4200    2.3212 H   0  0  0  0  0  0  0  0  0  0  0  0
    3.2029   -3.4362    1.2766 C   0  0  0  0  0  0  0  0  0  0  0  0
    3.2609   -4.1021    1.9970 H   0  0  0  0  0  0  0  0  0  0  0  0
    3.2521   -3.8468    0.3850 H   0  0  0  0  0  0  0  0  0  0  0  0
    4.0499   -2.7579    1.3791 H   0  0  0  0  0  0  0  0  0  0  0  0
  1  5  1  0
  5  6  1  0
  5  7  2  0
  1  2  1  0
  1  3  1  0
  1  4  1  0
  8 12  1  0
 12 15  1  0
  8  9  1  0
  8 10  1  0
  8 11  1  0
 12 13  1  0
 12 14  1  0
 15 16  1  0
 15 17  1  0
 15 18  1  0
M  CHG  1   6  -1
M  END
>  <PDB_ID>  (437) 
pdb1hw7

>  <RESIDUE_NAME>  (437) 
ASP   GLU

>  <FRAG_NAME>  (437) 
ACET   PRPA

>  <FRAG_ATOM_NUM>  (437) 
fragi: 7  fragj: 11

>  <atom.prop.CHAIN_ID>  (437) 
A A A A A A A Z Z Z Z Z Z Z Z Z Z Z

>  <atom.prop.IS_HEAVY_ATOM>  (437) 
1 0 0 0 1 1 1 1 0 0 0 1 0 0 1 0 0 0

>  <DIFUSE_FUNC_ATOM>  (437) 
atom 6   atom 7   

>  <FINAL_SINGLE_POINT_ENERGY>  (437) 
0

>  <NONCOV_INTER_ENERGY_QM>  (437) 
0

>  <FF_Energy>  (437) 
19.91

>  <QM_Energy>  (437) 
1.83

>  <source>  (437) 
ACET_PRPA_04

>  <Index>  (437) 
7862

$$$$
ACET-pdb1i04-A-GLU-97:PRPA-pdb1i04-A-LYS-94
     RDKit          3D

 18 16  0  0  0  0  0  0  0  0999 V2000
    0.0011    1.5151   -0.0096 C   0  0  0  0  0  0  0  0  0  0  0  0
   -0.4934    1.8100   -0.8071 H   0  0  0  0  0  0  0  0  0  0  0  0
    0.9388    1.8133   -0.0221 H   0  0  0  0  0  0  0  0  0  0  0  0
   -0.4815    1.9479    0.8668 H   0  0  0  0  0  0  0  0  0  0  0  0
    0.0000    0.0000    0.0000 C   0  0  0  0  0  0  0  0  0  0  0  0
   -1.0965   -0.5940    0.0000 O   0  0  0  0  0  1  0  0  0  0  0  0
    1.0965   -0.5947    0.0000 O   0  0  0  0  0  0  0  0  0  0  0  0
   -2.2554   -0.7356    3.2381 C   0  0  0  0  0  0  0  0  0  0  0  0
   -2.0764   -0.2433    2.3826 H   0  0  0  0  0  0  0  0  0  0  0  0
   -1.5396   -0.5027    3.9023 H   0  0  0  0  0  0  0  0  0  0  0  0
   -3.2095   -0.3890    3.6352 H   0  0  0  0  0  0  0  0  0  0  0  0
   -2.1698   -2.2307    2.9516 C   0  0  0  0  0  0  0  0  0  0  0  0
   -1.2311   -2.5417    3.1221 H   0  0  0  0  0  0  0  0  0  0  0  0
   -2.7926   -2.7168    3.5688 H   0  0  0  0  0  0  0  0  0  0  0  0
   -2.5434   -2.5648    1.5138 C   0  0  0  0  0  0  0  0  0  0  0  0
   -3.5118   -2.3917    1.3838 H   0  0  0  0  0  0  0  0  0  0  0  0
   -2.0016   -2.0035    0.9002 H   0  0  0  0  0  0  0  0  0  0  0  0
   -2.3456   -3.6131    1.2901 H   0  0  0  0  0  0  0  0  0  0  0  0
  1  5  1  0
  5  6  1  0
  5  7  2  0
  1  2  1  0
  1  3  1  0
  1  4  1  0
  8 12  1  0
 12 15  1  0
  8  9  1  0
  8 10  1  0
  8 11  1  0
 12 13  1  0
 12 14  1  0
 15 16  1  0
 15 17  1  0
 15 18  1  0
M  CHG  1   6  -1
M  END
>  <PDB_ID>  (438) 
pdb1i04

>  <RESIDUE_NAME>  (438) 
GLU   LYS

>  <FRAG_NAME>  (438) 
ACET   PRPA

>  <FRAG_ATOM_NUM>  (438) 
fragi: 7  fragj: 11

>  <atom.prop.CHAIN_ID>  (438) 
A A A A A A A Z Z Z Z Z Z Z Z Z Z Z

>  <atom.prop.IS_HEAVY_ATOM>  (438) 
1 0 0 0 1 1 1 1 0 0 0 1 0 0 1 0 0 0

>  <DIFUSE_FUNC_ATOM>  (438) 
atom 6   atom 7   

>  <FINAL_SINGLE_POINT_ENERGY>  (438) 
0

>  <NONCOV_INTER_ENERGY_QM>  (438) 
0

>  <FF_Energy>  (438) 
13.49

>  <QM_Energy>  (438) 
-3.03

>  <source>  (438) 
ACET_PRPA_04

>  <Index>  (438) 
10281

$$$$
ACET-pdb1i04-A-GLU-97:PRPA-pdb1i04-A-LYS-94
     RDKit          3D

 18 16  0  0  0  0  0  0  0  0999 V2000
    0.0011    1.5151   -0.0096 C   0  0  0  0  0  0  0  0  0  0  0  0
   -0.4934    1.8100   -0.8071 H   0  0  0  0  0  0  0  0  0  0  0  0
    0.9388    1.8133   -0.0221 H   0  0  0  0  0  0  0  0  0  0  0  0
   -0.4815    1.9479    0.8668 H   0  0  0  0  0  0  0  0  0  0  0  0
    0.0000    0.0000    0.0000 C   0  0  0  0  0  0  0  0  0  0  0  0
   -1.0965   -0.5940    0.0000 O   0  0  0  0  0  1  0  0  0  0  0  0
    1.0965   -0.5947    0.0000 O   0  0  0  0  0  0  0  0  0  0  0  0
   -2.1698   -2.2307    2.9516 C   0  0  0  0  0  0  0  0  0  0  0  0
   -1.2311   -2.5417    3.1221 H   0  0  0  0  0  0  0  0  0  0  0  0
   -2.7926   -2.7168    3.5688 H   0  0  0  0  0  0  0  0  0  0  0  0
   -2.2309   -1.1619    3.1564 H   0  0  0  0  0  0  0  0  0  0  0  0
   -2.5434   -2.5648    1.5138 C   0  0  0  0  0  0  0  0  0  0  0  0
   -3.5118   -2.3917    1.3838 H   0  0  0  0  0  0  0  0  0  0  0  0
   -2.0016   -2.0035    0.9002 H   0  0  0  0  0  0  0  0  0  0  0  0
   -2.2666   -4.0318    1.2007 C   0  0  0  0  0  0  0  0  0  0  0  0
   -1.3039   -4.2340    1.4193 H   0  0  0  0  0  0  0  0  0  0  0  0
   -2.8497   -4.6049    1.7904 H   0  0  0  0  0  0  0  0  0  0  0  0
   -2.4549   -4.2883    0.1582 H   0  0  0  0  0  0  0  0  0  0  0  0
  1  5  1  0
  5  6  1  0
  5  7  2  0
  1  2  1  0
  1  3  1  0
  1  4  1  0
  8 12  1  0
 12 15  1  0
  8  9  1  0
  8 10  1  0
  8 11  1  0
 12 13  1  0
 12 14  1  0
 15 16  1  0
 15 17  1  0
 15 18  1  0
M  CHG  1   6  -1
M  END
>  <PDB_ID>  (439) 
pdb1i04

>  <RESIDUE_NAME>  (439) 
GLU   LYS

>  <FRAG_NAME>  (439) 
ACET   PRPA

>  <FRAG_ATOM_NUM>  (439) 
fragi: 7  fragj: 11

>  <atom.prop.CHAIN_ID>  (439) 
A A A A A A A Z Z Z Z Z Z Z Z Z Z Z

>  <atom.prop.IS_HEAVY_ATOM>  (439) 
1 0 0 0 1 1 1 1 0 0 0 1 0 0 1 0 0 0

>  <DIFUSE_FUNC_ATOM>  (439) 
atom 6   atom 7   

>  <FINAL_SINGLE_POINT_ENERGY>  (439) 
0

>  <NONCOV_INTER_ENERGY_QM>  (439) 
0

>  <FF_Energy>  (439) 
15.63

>  <QM_Energy>  (439) 
-1.94

>  <source>  (439) 
ACET_PRPA_04

>  <Index>  (439) 
10287

$$$$
ACET-pdb1hsj-A-ASP-209:PRPA-pdb1hsj-A-ILE-212
     RDKit          3D

 18 16  0  0  0  0  0  0  0  0999 V2000
   -0.0001    1.5119   -0.0026 C   0  0  0  0  0  0  0  0  0  0  0  0
    0.9380    1.8330   -0.0743 H   0  0  0  0  0  0  0  0  0  0  0  0
   -0.4152    1.8355    0.8394 H   0  0  0  0  0  0  0  0  0  0  0  0
   -0.5629    1.9290   -0.8377 H   0  0  0  0  0  0  0  0  0  0  0  0
    0.0000    0.0000    0.0000 C   0  0  0  0  0  0  0  0  0  0  0  0
   -1.1065   -0.5851   -0.0000 O   0  0  0  0  0  1  0  0  0  0  0  0
    1.1065   -0.5975    0.0000 O   0  0  0  0  0  0  0  0  0  0  0  0
   -3.9134   -1.2401   -0.8182 C   0  0  0  0  0  0  0  0  0  0  0  0
   -3.2270   -0.5239   -0.8197 H   0  0  0  0  0  0  0  0  0  0  0  0
   -3.5877   -1.9971   -1.5316 H   0  0  0  0  0  0  0  0  0  0  0  0
   -4.8960   -0.8558   -1.0917 H   0  0  0  0  0  0  0  0  0  0  0  0
   -4.0014   -1.8288    0.5910 C   0  0  0  0  0  0  0  0  0  0  0  0
   -4.2683   -1.0929    1.2214 H   0  0  0  0  0  0  0  0  0  0  0  0
   -4.7364   -2.5148    0.5943 H   0  0  0  0  0  0  0  0  0  0  0  0
   -2.7367   -2.4691    1.0890 C   0  0  0  0  0  0  0  0  0  0  0  0
   -2.0013   -1.7914    1.1082 H   0  0  0  0  0  0  0  0  0  0  0  0
   -2.8811   -2.8260    2.0126 H   0  0  0  0  0  0  0  0  0  0  0  0
   -2.4782   -3.2208    0.4813 H   0  0  0  0  0  0  0  0  0  0  0  0
  1  5  1  0
  5  6  1  0
  5  7  2  0
  1  2  1  0
  1  3  1  0
  1  4  1  0
  8 12  1  0
 12 15  1  0
  8  9  1  0
  8 10  1  0
  8 11  1  0
 12 13  1  0
 12 14  1  0
 15 16  1  0
 15 17  1  0
 15 18  1  0
M  CHG  1   6  -1
M  END
>  <PDB_ID>  (440) 
pdb1hsj

>  <RESIDUE_NAME>  (440) 
ASP   ILE

>  <FRAG_NAME>  (440) 
ACET   PRPA

>  <FRAG_ATOM_NUM>  (440) 
fragi: 7  fragj: 11

>  <atom.prop.CHAIN_ID>  (440) 
A A A A A A A Z Z Z Z Z Z Z Z Z Z Z

>  <atom.prop.IS_HEAVY_ATOM>  (440) 
1 0 0 0 1 1 1 1 0 0 0 1 0 0 1 0 0 0

>  <DIFUSE_FUNC_ATOM>  (440) 
atom 6   atom 7   

>  <FINAL_SINGLE_POINT_ENERGY>  (440) 
0

>  <NONCOV_INTER_ENERGY_QM>  (440) 
0

>  <FF_Energy>  (440) 
21.71

>  <QM_Energy>  (440) 
-0.23

>  <source>  (440) 
ACET_PRPA_04

>  <Index>  (440) 
11072

$$$$
ACET-pdb2hzm-F-GLU-272:PRPA-pdb2hzm-F-VAL-180
     RDKit          3D

 18 16  0  0  0  0  0  0  0  0999 V2000
   -0.0114    1.5183    0.0192 C   0  0  0  0  0  0  0  0  0  0  0  0
    0.8841    1.8235   -0.2449 H   0  0  0  0  0  0  0  0  0  0  0  0
   -0.2484    1.8000    0.9302 H   0  0  0  0  0  0  0  0  0  0  0  0
   -0.7388    1.9400   -0.6744 H   0  0  0  0  0  0  0  0  0  0  0  0
    0.0000    0.0000    0.0000 C   0  0  0  0  0  0  0  0  0  0  0  0
   -1.0991   -0.5942    0.0000 O   0  0  0  0  0  1  0  0  0  0  0  0
    1.0991   -0.5976   -0.0000 O   0  0  0  0  0  0  0  0  0  0  0  0
    1.0477    1.1845    4.9160 C   0  0  0  0  0  0  0  0  0  0  0  0
    1.6527    1.6785    5.5048 H   0  0  0  0  0  0  0  0  0  0  0  0
    1.6315    0.4646    4.3424 H   0  0  0  0  0  0  0  0  0  0  0  0
    0.4162    0.5434    5.5310 H   0  0  0  0  0  0  0  0  0  0  0  0
    0.1223    2.0748    4.0584 C   0  0  0  0  0  0  0  0  0  0  0  0
   -0.2370    2.7894    4.6507 H   0  0  0  0  0  0  0  0  0  0  0  0
   -0.7058    1.4870    3.6624 H   0  0  0  0  0  0  0  0  0  0  0  0
    0.9121    2.7522    2.9617 C   0  0  0  0  0  0  0  0  0  0  0  0
    0.7281    3.7371    2.9697 H   0  0  0  0  0  0  0  0  0  0  0  0
    1.8917    2.5992    3.1058 H   0  0  0  0  0  0  0  0  0  0  0  0
    0.6476    2.3763    2.0711 H   0  0  0  0  0  0  0  0  0  0  0  0
  1  5  1  0
  5  6  1  0
  5  7  2  0
  1  2  1  0
  1  3  1  0
  1  4  1  0
  8 12  1  0
 12 15  1  0
  8  9  1  0
  8 10  1  0
  8 11  1  0
 12 13  1  0
 12 14  1  0
 15 16  1  0
 15 17  1  0
 15 18  1  0
M  CHG  1   6  -1
M  END
>  <PDB_ID>  (441) 
pdb2hzm

>  <RESIDUE_NAME>  (441) 
GLU   VAL

>  <FRAG_NAME>  (441) 
ACET   PRPA

>  <FRAG_ATOM_NUM>  (441) 
fragi: 7  fragj: 11

>  <atom.prop.CHAIN_ID>  (441) 
A A A A A A A Z Z Z Z Z Z Z Z Z Z Z

>  <atom.prop.IS_HEAVY_ATOM>  (441) 
1 0 0 0 1 1 1 1 0 0 0 1 0 0 1 0 0 0

>  <DIFUSE_FUNC_ATOM>  (441) 
atom 6   atom 7   

>  <FINAL_SINGLE_POINT_ENERGY>  (441) 
0

>  <NONCOV_INTER_ENERGY_QM>  (441) 
0

>  <FF_Energy>  (441) 
18.12

>  <QM_Energy>  (441) 
2.53

>  <source>  (441) 
ACET_PRPA_04

>  <Index>  (441) 
11901

$$$$
ACET-pdb2hzm-F-GLU-272:PRPA-pdb2hzm-F-VAL-180
     RDKit          3D

 18 16  0  0  0  0  0  0  0  0999 V2000
   -0.0114    1.5183    0.0192 C   0  0  0  0  0  0  0  0  0  0  0  0
    0.8841    1.8235   -0.2449 H   0  0  0  0  0  0  0  0  0  0  0  0
   -0.2484    1.8000    0.9302 H   0  0  0  0  0  0  0  0  0  0  0  0
   -0.7388    1.9400   -0.6744 H   0  0  0  0  0  0  0  0  0  0  0  0
    0.0000    0.0000    0.0000 C   0  0  0  0  0  0  0  0  0  0  0  0
   -1.0991   -0.5942    0.0000 O   0  0  0  0  0  1  0  0  0  0  0  0
    1.0991   -0.5976   -0.0000 O   0  0  0  0  0  0  0  0  0  0  0  0
    0.9121    2.7522    2.9617 C   0  0  0  0  0  0  0  0  0  0  0  0
    0.7281    3.7371    2.9697 H   0  0  0  0  0  0  0  0  0  0  0  0
    1.8917    2.5992    3.1058 H   0  0  0  0  0  0  0  0  0  0  0  0
    0.6476    2.3763    2.0711 H   0  0  0  0  0  0  0  0  0  0  0  0
    0.1223    2.0748    4.0584 C   0  0  0  0  0  0  0  0  0  0  0  0
   -0.2370    2.7894    4.6507 H   0  0  0  0  0  0  0  0  0  0  0  0
    0.7755    1.4464    4.6637 H   0  0  0  0  0  0  0  0  0  0  0  0
   -1.0218    1.2627    3.5111 C   0  0  0  0  0  0  0  0  0  0  0  0
   -0.7027    0.7053    2.7414 H   0  0  0  0  0  0  0  0  0  0  0  0
   -1.3826    0.6616    4.2272 H   0  0  0  0  0  0  0  0  0  0  0  0
   -1.7508    1.8751    3.1958 H   0  0  0  0  0  0  0  0  0  0  0  0
  1  5  1  0
  5  6  1  0
  5  7  2  0
  1  2  1  0
  1  3  1  0
  1  4  1  0
  8 12  1  0
 12 15  1  0
  8  9  1  0
  8 10  1  0
  8 11  1  0
 12 13  1  0
 12 14  1  0
 15 16  1  0
 15 17  1  0
 15 18  1  0
M  CHG  1   6  -1
M  END
>  <PDB_ID>  (442) 
pdb2hzm

>  <RESIDUE_NAME>  (442) 
GLU   VAL

>  <FRAG_NAME>  (442) 
ACET   PRPA

>  <FRAG_ATOM_NUM>  (442) 
fragi: 7  fragj: 11

>  <atom.prop.CHAIN_ID>  (442) 
A A A A A A A Z Z Z Z Z Z Z Z Z Z Z

>  <atom.prop.IS_HEAVY_ATOM>  (442) 
1 0 0 0 1 1 1 1 0 0 0 1 0 0 1 0 0 0

>  <DIFUSE_FUNC_ATOM>  (442) 
atom 6   atom 7   

>  <FINAL_SINGLE_POINT_ENERGY>  (442) 
0

>  <NONCOV_INTER_ENERGY_QM>  (442) 
0

>  <FF_Energy>  (442) 
18.17

>  <QM_Energy>  (442) 
2.2

>  <source>  (442) 
ACET_PRPA_04

>  <Index>  (442) 
11913

$$$$
ACET-pdb1i0z-A-GLU-47:PRPA-pdb1i0z-A-PRO-19
     RDKit          3D

 18 16  0  0  0  0  0  0  0  0999 V2000
    0.0368    1.5480    0.0360 C   0  0  0  0  0  0  0  0  0  0  0  0
    0.8573    1.8285   -0.4421 H   0  0  0  0  0  0  0  0  0  0  0  0
    0.0724    1.8130    0.9894 H   0  0  0  0  0  0  0  0  0  0  0  0
   -0.8120    2.0532   -0.4249 H   0  0  0  0  0  0  0  0  0  0  0  0
    0.0000    0.0000    0.0000 C   0  0  0  0  0  0  0  0  0  0  0  0
   -1.0711   -0.5980   -0.0000 O   0  0  0  0  0  1  0  0  0  0  0  0
    1.0711   -0.6384    0.0000 O   0  0  0  0  0  0  0  0  0  0  0  0
   -4.7230   -0.3638   -3.0185 C   0  0  0  0  0  0  0  0  0  0  0  0
   -5.3172    0.0985   -2.3558 H   0  0  0  0  0  0  0  0  0  0  0  0
   -4.6302   -1.4231   -2.7793 H   0  0  0  0  0  0  0  0  0  0  0  0
   -5.0977   -0.2426   -4.0349 H   0  0  0  0  0  0  0  0  0  0  0  0
   -3.3042    0.1824   -2.8920 C   0  0  0  0  0  0  0  0  0  0  0  0
   -2.9097    0.3748   -3.7965 H   0  0  0  0  0  0  0  0  0  0  0  0
   -3.2899    1.0285   -2.3504 H   0  0  0  0  0  0  0  0  0  0  0  0
   -2.5107   -0.9028   -2.1938 C   0  0  0  0  0  0  0  0  0  0  0  0
   -1.5636   -0.9127   -2.5405 H   0  0  0  0  0  0  0  0  0  0  0  0
   -2.4788   -0.7201   -1.2023 H   0  0  0  0  0  0  0  0  0  0  0  0
   -3.0126   -1.8479   -2.4013 H   0  0  0  0  0  0  0  0  0  0  0  0
  1  5  1  0
  5  6  1  0
  5  7  2  0
  1  2  1  0
  1  3  1  0
  1  4  1  0
  8 12  1  0
 12 15  1  0
  8  9  1  0
  8 10  1  0
  8 11  1  0
 12 13  1  0
 12 14  1  0
 15 16  1  0
 15 17  1  0
 15 18  1  0
M  CHG  1   6  -1
M  END
>  <PDB_ID>  (443) 
pdb1i0z

>  <RESIDUE_NAME>  (443) 
GLU   PRO

>  <FRAG_NAME>  (443) 
ACET   PRPA

>  <FRAG_ATOM_NUM>  (443) 
fragi: 7  fragj: 11

>  <atom.prop.CHAIN_ID>  (443) 
A A A A A A A Z Z Z Z Z Z Z Z Z Z Z

>  <atom.prop.IS_HEAVY_ATOM>  (443) 
1 0 0 0 1 1 1 1 0 0 0 1 0 0 1 0 0 0

>  <DIFUSE_FUNC_ATOM>  (443) 
atom 6   atom 7   

>  <FINAL_SINGLE_POINT_ENERGY>  (443) 
0

>  <NONCOV_INTER_ENERGY_QM>  (443) 
0

>  <FF_Energy>  (443) 
21.43

>  <QM_Energy>  (443) 
2.3

>  <source>  (443) 
ACET_PRPA_04

>  <Index>  (443) 
12198

$$$$
ACET-pdb1i7h-A-GLU-69:PRPA-pdb1i7h-A-LEU-85
     RDKit          3D

 18 16  0  0  0  0  0  0  0  0999 V2000
    0.0127    1.5189    0.0259 C   0  0  0  0  0  0  0  0  0  0  0  0
    0.8409    1.8187   -0.4193 H   0  0  0  0  0  0  0  0  0  0  0  0
   -0.0138    1.8014    0.9717 H   0  0  0  0  0  0  0  0  0  0  0  0
   -0.8312    1.9794   -0.4879 H   0  0  0  0  0  0  0  0  0  0  0  0
    0.0000    0.0000    0.0000 C   0  0  0  0  0  0  0  0  0  0  0  0
   -1.0970   -0.5978   -0.0000 O   0  0  0  0  0  1  0  0  0  0  0  0
    1.0970   -0.6016    0.0000 O   0  0  0  0  0  0  0  0  0  0  0  0
    0.9940    3.0178    2.6546 C   0  0  0  0  0  0  0  0  0  0  0  0
    0.8404    3.3286    3.5931 H   0  0  0  0  0  0  0  0  0  0  0  0
    1.2376    3.7994    2.0801 H   0  0  0  0  0  0  0  0  0  0  0  0
    0.1595    2.5941    2.3031 H   0  0  0  0  0  0  0  0  0  0  0  0
    2.1272    2.0003    2.6355 C   0  0  0  0  0  0  0  0  0  0  0  0
    2.2774    1.6890    1.6996 H   0  0  0  0  0  0  0  0  0  0  0  0
    1.8722    1.1429    3.2584 H   0  0  0  0  0  0  0  0  0  0  0  0
    3.4103    2.6238    3.1469 C   0  0  0  0  0  0  0  0  0  0  0  0
    4.1514    1.9510    3.1090 H   0  0  0  0  0  0  0  0  0  0  0  0
    3.6520    3.4134    2.5799 H   0  0  0  0  0  0  0  0  0  0  0  0
    3.2854    2.9245    4.0943 H   0  0  0  0  0  0  0  0  0  0  0  0
  1  5  1  0
  5  6  1  0
  5  7  2  0
  1  2  1  0
  1  3  1  0
  1  4  1  0
  8 12  1  0
 12 15  1  0
  8  9  1  0
  8 10  1  0
  8 11  1  0
 12 13  1  0
 12 14  1  0
 15 16  1  0
 15 17  1  0
 15 18  1  0
M  CHG  1   6  -1
M  END
>  <PDB_ID>  (444) 
pdb1i7h

>  <RESIDUE_NAME>  (444) 
GLU   LEU

>  <FRAG_NAME>  (444) 
ACET   PRPA

>  <FRAG_ATOM_NUM>  (444) 
fragi: 7  fragj: 11

>  <atom.prop.CHAIN_ID>  (444) 
A A A A A A A Z Z Z Z Z Z Z Z Z Z Z

>  <atom.prop.IS_HEAVY_ATOM>  (444) 
1 0 0 0 1 1 1 1 0 0 0 1 0 0 1 0 0 0

>  <DIFUSE_FUNC_ATOM>  (444) 
atom 6   atom 7   

>  <FINAL_SINGLE_POINT_ENERGY>  (444) 
0

>  <NONCOV_INTER_ENERGY_QM>  (444) 
0

>  <FF_Energy>  (444) 
19.1

>  <QM_Energy>  (444) 
2.59

>  <source>  (444) 
ACET_PRPA_04

>  <Index>  (444) 
15013

$$$$
ACET-pdb1i7h-A-GLU-69:PRPA-pdb1i7h-A-LEU-85
     RDKit          3D

 18 16  0  0  0  0  0  0  0  0999 V2000
    0.0127    1.5189    0.0259 C   0  0  0  0  0  0  0  0  0  0  0  0
    0.8409    1.8187   -0.4193 H   0  0  0  0  0  0  0  0  0  0  0  0
   -0.0138    1.8014    0.9717 H   0  0  0  0  0  0  0  0  0  0  0  0
   -0.8312    1.9794   -0.4879 H   0  0  0  0  0  0  0  0  0  0  0  0
    0.0000    0.0000    0.0000 C   0  0  0  0  0  0  0  0  0  0  0  0
   -1.0970   -0.5978   -0.0000 O   0  0  0  0  0  1  0  0  0  0  0  0
    1.0970   -0.6016    0.0000 O   0  0  0  0  0  0  0  0  0  0  0  0
    1.7695    0.7977    3.5092 C   0  0  0  0  0  0  0  0  0  0  0  0
    0.9251    0.4175    3.1603 H   0  0  0  0  0  0  0  0  0  0  0  0
    1.6626    1.1239    4.4352 H   0  0  0  0  0  0  0  0  0  0  0  0
    2.5189    0.0062    3.5138 H   0  0  0  0  0  0  0  0  0  0  0  0
    2.1272    2.0003    2.6355 C   0  0  0  0  0  0  0  0  0  0  0  0
    2.2774    1.6890    1.6996 H   0  0  0  0  0  0  0  0  0  0  0  0
    3.0501    2.4487    3.0033 H   0  0  0  0  0  0  0  0  0  0  0  0
    0.9940    3.0178    2.6546 C   0  0  0  0  0  0  0  0  0  0  0  0
    0.8404    3.3286    3.5931 H   0  0  0  0  0  0  0  0  0  0  0  0
    1.2376    3.7994    2.0801 H   0  0  0  0  0  0  0  0  0  0  0  0
    0.1595    2.5941    2.3031 H   0  0  0  0  0  0  0  0  0  0  0  0
  1  5  1  0
  5  6  1  0
  5  7  2  0
  1  2  1  0
  1  3  1  0
  1  4  1  0
  8 12  1  0
 12 15  1  0
  8  9  1  0
  8 10  1  0
  8 11  1  0
 12 13  1  0
 12 14  1  0
 15 16  1  0
 15 17  1  0
 15 18  1  0
M  CHG  1   6  -1
M  END
>  <PDB_ID>  (445) 
pdb1i7h

>  <RESIDUE_NAME>  (445) 
GLU   LEU

>  <FRAG_NAME>  (445) 
ACET   PRPA

>  <FRAG_ATOM_NUM>  (445) 
fragi: 7  fragj: 11

>  <atom.prop.CHAIN_ID>  (445) 
A A A A A A A Z Z Z Z Z Z Z Z Z Z Z

>  <atom.prop.IS_HEAVY_ATOM>  (445) 
1 0 0 0 1 1 1 1 0 0 0 1 0 0 1 0 0 0

>  <DIFUSE_FUNC_ATOM>  (445) 
atom 6   atom 7   

>  <FINAL_SINGLE_POINT_ENERGY>  (445) 
0

>  <NONCOV_INTER_ENERGY_QM>  (445) 
0

>  <FF_Energy>  (445) 
19.28

>  <QM_Energy>  (445) 
1.34

>  <source>  (445) 
ACET_PRPA_04

>  <Index>  (445) 
15025

$$$$
ACET-pdb1i10-A-GLU-54:PRPA-pdb1i10-A-LYS-80
     RDKit          3D

 18 16  0  0  0  0  0  0  0  0999 V2000
   -0.0103    1.5091    0.0074 C   0  0  0  0  0  0  0  0  0  0  0  0
   -0.9170    1.8098   -0.2292 H   0  0  0  0  0  0  0  0  0  0  0  0
    0.6633    1.8220   -0.6369 H   0  0  0  0  0  0  0  0  0  0  0  0
    0.2365    1.9365    0.9792 H   0  0  0  0  0  0  0  0  0  0  0  0
    0.0000    0.0000    0.0000 C   0  0  0  0  0  0  0  0  0  0  0  0
   -1.0867   -0.6096   -0.0000 O   0  0  0  0  0  1  0  0  0  0  0  0
    1.0867   -0.5655   -0.0000 O   0  0  0  0  0  0  0  0  0  0  0  0
   -1.5459    0.9867   -4.2151 C   0  0  0  0  0  0  0  0  0  0  0  0
   -1.9255    0.5622   -5.0254 H   0  0  0  0  0  0  0  0  0  0  0  0
   -1.2273    1.9038   -4.4084 H   0  0  0  0  0  0  0  0  0  0  0  0
   -2.2907    1.0073   -3.4195 H   0  0  0  0  0  0  0  0  0  0  0  0
   -0.3342    0.1440   -3.7549 C   0  0  0  0  0  0  0  0  0  0  0  0
    0.0860   -0.2608   -4.5357 H   0  0  0  0  0  0  0  0  0  0  0  0
    0.2646    0.7064   -3.2315 H   0  0  0  0  0  0  0  0  0  0  0  0
   -0.8596   -0.9976   -2.8366 C   0  0  0  0  0  0  0  0  0  0  0  0
   -0.8721   -0.6542   -1.8903 H   0  0  0  0  0  0  0  0  0  0  0  0
   -1.8049   -1.2067   -3.1112 H   0  0  0  0  0  0  0  0  0  0  0  0
   -0.2592   -1.9061   -2.8845 H   0  0  0  0  0  0  0  0  0  0  0  0
  1  5  1  0
  5  6  1  0
  5  7  2  0
  1  2  1  0
  1  3  1  0
  1  4  1  0
  8 12  1  0
 12 15  1  0
  8  9  1  0
  8 10  1  0
  8 11  1  0
 12 13  1  0
 12 14  1  0
 15 16  1  0
 15 17  1  0
 15 18  1  0
M  CHG  1   6  -1
M  END
>  <PDB_ID>  (446) 
pdb1i10

>  <RESIDUE_NAME>  (446) 
GLU   LYS

>  <FRAG_NAME>  (446) 
ACET   PRPA

>  <FRAG_ATOM_NUM>  (446) 
fragi: 7  fragj: 11

>  <atom.prop.CHAIN_ID>  (446) 
A A A A A A A Z Z Z Z Z Z Z Z Z Z Z

>  <atom.prop.IS_HEAVY_ATOM>  (446) 
1 0 0 0 1 1 1 1 0 0 0 1 0 0 1 0 0 0

>  <DIFUSE_FUNC_ATOM>  (446) 
atom 6   atom 7   

>  <FINAL_SINGLE_POINT_ENERGY>  (446) 
0

>  <NONCOV_INTER_ENERGY_QM>  (446) 
0

>  <FF_Energy>  (446) 
19.0

>  <QM_Energy>  (446) 
0.73

>  <source>  (446) 
ACET_PRPA_04

>  <Index>  (446) 
15199

$$$$
ACET-pdb2hzm-H-GLU-272:PRPA-pdb2hzm-H-VAL-180
     RDKit          3D

 18 16  0  0  0  0  0  0  0  0999 V2000
    0.0041    1.5218    0.0038 C   0  0  0  0  0  0  0  0  0  0  0  0
    0.9419    1.8159    0.0658 H   0  0  0  0  0  0  0  0  0  0  0  0
   -0.5273    1.8170    0.7785 H   0  0  0  0  0  0  0  0  0  0  0  0
   -0.4307    1.9588   -0.8951 H   0  0  0  0  0  0  0  0  0  0  0  0
    0.0000    0.0000    0.0000 C   0  0  0  0  0  0  0  0  0  0  0  0
   -1.1012   -0.5996   -0.0000 O   0  0  0  0  0  1  0  0  0  0  0  0
    1.1012   -0.5961    0.0000 O   0  0  0  0  0  0  0  0  0  0  0  0
   -1.0537    3.4331    2.7566 C   0  0  0  0  0  0  0  0  0  0  0  0
   -0.5197    3.2536    3.5855 H   0  0  0  0  0  0  0  0  0  0  0  0
   -0.5753    3.0418    1.9678 H   0  0  0  0  0  0  0  0  0  0  0  0
   -1.1410    4.4232    2.6305 H   0  0  0  0  0  0  0  0  0  0  0  0
   -2.4239    2.8102    2.8850 C   0  0  0  0  0  0  0  0  0  0  0  0
   -3.0660    3.5431    3.0820 H   0  0  0  0  0  0  0  0  0  0  0  0
   -2.4453    2.1219    3.7298 H   0  0  0  0  0  0  0  0  0  0  0  0
   -2.8020    2.0869    1.6073 C   0  0  0  0  0  0  0  0  0  0  0  0
   -3.0899    2.7542    0.9195 H   0  0  0  0  0  0  0  0  0  0  0  0
   -2.0110    1.5759    1.2673 H   0  0  0  0  0  0  0  0  0  0  0  0
   -3.5540    1.4541    1.7933 H   0  0  0  0  0  0  0  0  0  0  0  0
  1  5  1  0
  5  6  1  0
  5  7  2  0
  1  2  1  0
  1  3  1  0
  1  4  1  0
  8 12  1  0
 12 15  1  0
  8  9  1  0
  8 10  1  0
  8 11  1  0
 12 13  1  0
 12 14  1  0
 15 16  1  0
 15 17  1  0
 15 18  1  0
M  CHG  1   6  -1
M  END
>  <PDB_ID>  (447) 
pdb2hzm

>  <RESIDUE_NAME>  (447) 
GLU   VAL

>  <FRAG_NAME>  (447) 
ACET   PRPA

>  <FRAG_ATOM_NUM>  (447) 
fragi: 7  fragj: 11

>  <atom.prop.CHAIN_ID>  (447) 
A A A A A A A Z Z Z Z Z Z Z Z Z Z Z

>  <atom.prop.IS_HEAVY_ATOM>  (447) 
1 0 0 0 1 1 1 1 0 0 0 1 0 0 1 0 0 0

>  <DIFUSE_FUNC_ATOM>  (447) 
atom 6   atom 7   

>  <FINAL_SINGLE_POINT_ENERGY>  (447) 
0

>  <NONCOV_INTER_ENERGY_QM>  (447) 
0

>  <FF_Energy>  (447) 
21.6

>  <QM_Energy>  (447) 
3.99

>  <source>  (447) 
ACET_PRPA_04

>  <Index>  (447) 
15483

$$$$
ACET-pdb2ix7-A-ASP-64:PRPA-pdb2ix7-A-GLU-67
     RDKit          3D

 18 16  0  0  0  0  0  0  0  0999 V2000
    0.0280    1.5087   -0.0315 C   0  0  0  0  0  0  0  0  0  0  0  0
   -0.1571    1.8180   -0.9601 H   0  0  0  0  0  0  0  0  0  0  0  0
    0.9255    1.8236    0.2618 H   0  0  0  0  0  0  0  0  0  0  0  0
   -0.7138    1.9665    0.6230 H   0  0  0  0  0  0  0  0  0  0  0  0
    0.0000    0.0000    0.0000 C   0  0  0  0  0  0  0  0  0  0  0  0
   -1.0994   -0.6006   -0.0000 O   0  0  0  0  0  1  0  0  0  0  0  0
    1.0994   -0.5900   -0.0000 O   0  0  0  0  0  0  0  0  0  0  0  0
   -3.6747   -2.7343    1.8013 C   0  0  0  0  0  0  0  0  0  0  0  0
   -3.8028   -3.7291    1.7214 H   0  0  0  0  0  0  0  0  0  0  0  0
   -3.4691   -2.3105    0.8183 H   0  0  0  0  0  0  0  0  0  0  0  0
   -4.5679   -2.2884    2.2386 H   0  0  0  0  0  0  0  0  0  0  0  0
   -2.4600   -2.6187    2.7399 C   0  0  0  0  0  0  0  0  0  0  0  0
   -2.8143   -2.6077    3.6724 H   0  0  0  0  0  0  0  0  0  0  0  0
   -1.9034   -3.4337    2.5974 H   0  0  0  0  0  0  0  0  0  0  0  0
   -1.5756   -1.4158    2.5643 C   0  0  0  0  0  0  0  0  0  0  0  0
   -1.5237   -1.1992    1.6113 H   0  0  0  0  0  0  0  0  0  0  0  0
   -1.9301   -0.6807    3.1052 H   0  0  0  0  0  0  0  0  0  0  0  0
   -0.5613   -1.6158    2.9098 H   0  0  0  0  0  0  0  0  0  0  0  0
  1  5  1  0
  5  6  1  0
  5  7  2  0
  1  2  1  0
  1  3  1  0
  1  4  1  0
  8 12  1  0
 12 15  1  0
  8  9  1  0
  8 10  1  0
  8 11  1  0
 12 13  1  0
 12 14  1  0
 15 16  1  0
 15 17  1  0
 15 18  1  0
M  CHG  1   6  -1
M  END
>  <PDB_ID>  (448) 
pdb2ix7

>  <RESIDUE_NAME>  (448) 
ASP   GLU

>  <FRAG_NAME>  (448) 
ACET   PRPA

>  <FRAG_ATOM_NUM>  (448) 
fragi: 7  fragj: 11

>  <atom.prop.CHAIN_ID>  (448) 
A A A A A A A Z Z Z Z Z Z Z Z Z Z Z

>  <atom.prop.IS_HEAVY_ATOM>  (448) 
1 0 0 0 1 1 1 1 0 0 0 1 0 0 1 0 0 0

>  <DIFUSE_FUNC_ATOM>  (448) 
atom 6   atom 7   

>  <FINAL_SINGLE_POINT_ENERGY>  (448) 
0

>  <NONCOV_INTER_ENERGY_QM>  (448) 
0

>  <FF_Energy>  (448) 
35.06

>  <QM_Energy>  (448) 
1.35

>  <source>  (448) 
ACET_PRPA_04

>  <Index>  (448) 
15509

$$$$
ACET-pdb1hsj-B-ASP-209:PRPA-pdb1hsj-B-ILE-212
     RDKit          3D

 18 16  0  0  0  0  0  0  0  0999 V2000
   -0.0074    1.4964   -0.0054 C   0  0  0  0  0  0  0  0  0  0  0  0
    0.9281    1.8282   -0.0711 H   0  0  0  0  0  0  0  0  0  0  0  0
   -0.4315    1.8258    0.8315 H   0  0  0  0  0  0  0  0  0  0  0  0
   -0.5664    1.9070   -0.8463 H   0  0  0  0  0  0  0  0  0  0  0  0
    0.0000    0.0000    0.0000 C   0  0  0  0  0  0  0  0  0  0  0  0
   -1.0970   -0.5821    0.0000 O   0  0  0  0  0  1  0  0  0  0  0  0
    1.0970   -0.5967    0.0000 O   0  0  0  0  0  0  0  0  0  0  0  0
   -3.9152   -1.2574   -0.8304 C   0  0  0  0  0  0  0  0  0  0  0  0
   -3.2325   -0.5370   -0.8311 H   0  0  0  0  0  0  0  0  0  0  0  0
   -3.5873   -2.0181   -1.5388 H   0  0  0  0  0  0  0  0  0  0  0  0
   -4.8975   -0.8747   -1.1079 H   0  0  0  0  0  0  0  0  0  0  0  0
   -4.0047   -1.8368    0.5849 C   0  0  0  0  0  0  0  0  0  0  0  0
   -4.2632   -1.0948    1.2124 H   0  0  0  0  0  0  0  0  0  0  0  0
   -4.7467   -2.5160    0.5960 H   0  0  0  0  0  0  0  0  0  0  0  0
   -2.7421   -2.4935    1.0975 C   0  0  0  0  0  0  0  0  0  0  0  0
   -2.0019   -1.8227    1.1122 H   0  0  0  0  0  0  0  0  0  0  0  0
   -2.8999   -2.8381    2.0216 H   0  0  0  0  0  0  0  0  0  0  0  0
   -2.4949   -3.2522    0.4957 H   0  0  0  0  0  0  0  0  0  0  0  0
  1  5  1  0
  5  6  1  0
  5  7  2  0
  1  2  1  0
  1  3  1  0
  1  4  1  0
  8 12  1  0
 12 15  1  0
  8  9  1  0
  8 10  1  0
  8 11  1  0
 12 13  1  0
 12 14  1  0
 15 16  1  0
 15 17  1  0
 15 18  1  0
M  CHG  1   6  -1
M  END
>  <PDB_ID>  (449) 
pdb1hsj

>  <RESIDUE_NAME>  (449) 
ASP   ILE

>  <FRAG_NAME>  (449) 
ACET   PRPA

>  <FRAG_ATOM_NUM>  (449) 
fragi: 7  fragj: 11

>  <atom.prop.CHAIN_ID>  (449) 
A A A A A A A Z Z Z Z Z Z Z Z Z Z Z

>  <atom.prop.IS_HEAVY_ATOM>  (449) 
1 0 0 0 1 1 1 1 0 0 0 1 0 0 1 0 0 0

>  <DIFUSE_FUNC_ATOM>  (449) 
atom 6   atom 7   

>  <FINAL_SINGLE_POINT_ENERGY>  (449) 
0

>  <NONCOV_INTER_ENERGY_QM>  (449) 
0

>  <FF_Energy>  (449) 
17.91

>  <QM_Energy>  (449) 
-0.94

>  <source>  (449) 
ACET_PRPA_04

>  <Index>  (449) 
16157

$$$$
ACET-pdb1iau-A-ASP-49:PRPA-pdb1iau-A-LYS-111
     RDKit          3D

 18 16  0  0  0  0  0  0  0  0999 V2000
    0.0116    1.5176    0.0026 C   0  0  0  0  0  0  0  0  0  0  0  0
    0.3244    1.8363   -0.8843 H   0  0  0  0  0  0  0  0  0  0  0  0
    0.6210    1.8322    0.7208 H   0  0  0  0  0  0  0  0  0  0  0  0
   -0.9734    1.9472    0.1852 H   0  0  0  0  0  0  0  0  0  0  0  0
    0.0000    0.0000    0.0000 C   0  0  0  0  0  0  0  0  0  0  0  0
   -1.0979   -0.6031    0.0000 O   0  0  0  0  0  1  0  0  0  0  0  0
    1.0979   -0.5963   -0.0000 O   0  0  0  0  0  0  0  0  0  0  0  0
    2.7630    2.7401    3.1709 C   0  0  0  0  0  0  0  0  0  0  0  0
    3.7116    2.9395    3.4060 H   0  0  0  0  0  0  0  0  0  0  0  0
    2.5656    1.7777    3.3525 H   0  0  0  0  0  0  0  0  0  0  0  0
    2.1189    3.3464    3.8078 H   0  0  0  0  0  0  0  0  0  0  0  0
    2.5764    2.9934    1.6827 C   0  0  0  0  0  0  0  0  0  0  0  0
    1.6398    2.7627    1.4263 H   0  0  0  0  0  0  0  0  0  0  0  0
    2.7539    3.9551    1.4891 H   0  0  0  0  0  0  0  0  0  0  0  0
    3.5352    2.1406    0.8607 C   0  0  0  0  0  0  0  0  0  0  0  0
    4.2732    1.8309    1.4488 H   0  0  0  0  0  0  0  0  0  0  0  0
    3.0379    1.3674    0.4857 H   0  0  0  0  0  0  0  0  0  0  0  0
    3.9620    2.7129    0.0370 H   0  0  0  0  0  0  0  0  0  0  0  0
  1  5  1  0
  5  6  1  0
  5  7  2  0
  1  2  1  0
  1  3  1  0
  1  4  1  0
  8 12  1  0
 12 15  1  0
  8  9  1  0
  8 10  1  0
  8 11  1  0
 12 13  1  0
 12 14  1  0
 15 16  1  0
 15 17  1  0
 15 18  1  0
M  CHG  1   6  -1
M  END
>  <PDB_ID>  (450) 
pdb1iau

>  <RESIDUE_NAME>  (450) 
ASP   LYS

>  <FRAG_NAME>  (450) 
ACET   PRPA

>  <FRAG_ATOM_NUM>  (450) 
fragi: 7  fragj: 11

>  <atom.prop.CHAIN_ID>  (450) 
A A A A A A A Z Z Z Z Z Z Z Z Z Z Z

>  <atom.prop.IS_HEAVY_ATOM>  (450) 
1 0 0 0 1 1 1 1 0 0 0 1 0 0 1 0 0 0

>  <DIFUSE_FUNC_ATOM>  (450) 
atom 6   atom 7   

>  <FINAL_SINGLE_POINT_ENERGY>  (450) 
0

>  <NONCOV_INTER_ENERGY_QM>  (450) 
0

>  <FF_Energy>  (450) 
20.33

>  <QM_Energy>  (450) 
0.4

>  <source>  (450) 
ACET_PRPA_04

>  <Index>  (450) 
17052

$$$$
ACET-pdb1iau-A-ASP-49:PRPA-pdb1iau-A-LYS-111
     RDKit          3D

 18 16  0  0  0  0  0  0  0  0999 V2000
    0.0116    1.5176    0.0026 C   0  0  0  0  0  0  0  0  0  0  0  0
    0.3244    1.8363   -0.8843 H   0  0  0  0  0  0  0  0  0  0  0  0
    0.6210    1.8322    0.7208 H   0  0  0  0  0  0  0  0  0  0  0  0
   -0.9734    1.9472    0.1852 H   0  0  0  0  0  0  0  0  0  0  0  0
    0.0000    0.0000    0.0000 C   0  0  0  0  0  0  0  0  0  0  0  0
   -1.0979   -0.6031    0.0000 O   0  0  0  0  0  1  0  0  0  0  0  0
    1.0979   -0.5963   -0.0000 O   0  0  0  0  0  0  0  0  0  0  0  0
    2.5764    2.9934    1.6827 C   0  0  0  0  0  0  0  0  0  0  0  0
    1.6398    2.7627    1.4263 H   0  0  0  0  0  0  0  0  0  0  0  0
    2.7539    3.9551    1.4891 H   0  0  0  0  0  0  0  0  0  0  0  0
    2.7102    2.8119    2.7492 H   0  0  0  0  0  0  0  0  0  0  0  0
    3.5352    2.1406    0.8607 C   0  0  0  0  0  0  0  0  0  0  0  0
    4.2732    1.8309    1.4488 H   0  0  0  0  0  0  0  0  0  0  0  0
    3.0379    1.3674    0.4857 H   0  0  0  0  0  0  0  0  0  0  0  0
    4.1309    2.9395   -0.2891 C   0  0  0  0  0  0  0  0  0  0  0  0
    3.3975    3.4685   -0.7311 H   0  0  0  0  0  0  0  0  0  0  0  0
    4.8099    3.5838    0.0809 H   0  0  0  0  0  0  0  0  0  0  0  0
    4.6109    2.3037   -1.0331 H   0  0  0  0  0  0  0  0  0  0  0  0
  1  5  1  0
  5  6  1  0
  5  7  2  0
  1  2  1  0
  1  3  1  0
  1  4  1  0
  8 12  1  0
 12 15  1  0
  8  9  1  0
  8 10  1  0
  8 11  1  0
 12 13  1  0
 12 14  1  0
 15 16  1  0
 15 17  1  0
 15 18  1  0
M  CHG  1   6  -1
M  END
>  <PDB_ID>  (451) 
pdb1iau

>  <RESIDUE_NAME>  (451) 
ASP   LYS

>  <FRAG_NAME>  (451) 
ACET   PRPA

>  <FRAG_ATOM_NUM>  (451) 
fragi: 7  fragj: 11

>  <atom.prop.CHAIN_ID>  (451) 
A A A A A A A Z Z Z Z Z Z Z Z Z Z Z

>  <atom.prop.IS_HEAVY_ATOM>  (451) 
1 0 0 0 1 1 1 1 0 0 0 1 0 0 1 0 0 0

>  <DIFUSE_FUNC_ATOM>  (451) 
atom 6   atom 7   

>  <FINAL_SINGLE_POINT_ENERGY>  (451) 
0

>  <NONCOV_INTER_ENERGY_QM>  (451) 
0

>  <FF_Energy>  (451) 
17.43

>  <QM_Energy>  (451) 
0.48

>  <source>  (451) 
ACET_PRPA_04

>  <Index>  (451) 
17054

$$$$
ACET-pdb2ixe-A-GLU-574:PRPA-pdb2ixe-A-ARG-570
     RDKit          3D

 18 16  0  0  0  0  0  0  0  0999 V2000
    0.0197    1.5085   -0.0067 C   0  0  0  0  0  0  0  0  0  0  0  0
    0.7690    1.7969   -0.5792 H   0  0  0  0  0  0  0  0  0  0  0  0
    0.1341    1.8109    0.9246 H   0  0  0  0  0  0  0  0  0  0  0  0
   -0.8969    1.9489   -0.3988 H   0  0  0  0  0  0  0  0  0  0  0  0
    0.0000    0.0000    0.0000 C   0  0  0  0  0  0  0  0  0  0  0  0
   -1.0957   -0.5980   -0.0000 O   0  0  0  0  0  1  0  0  0  0  0  0
    1.0957   -0.5899    0.0000 O   0  0  0  0  0  0  0  0  0  0  0  0
   -3.2753   -1.8936    2.6682 C   0  0  0  0  0  0  0  0  0  0  0  0
   -2.3843   -1.5032    2.8915 H   0  0  0  0  0  0  0  0  0  0  0  0
   -3.6834   -2.2918    3.4870 H   0  0  0  0  0  0  0  0  0  0  0  0
   -3.9220   -1.0858    2.3257 H   0  0  0  0  0  0  0  0  0  0  0  0
   -3.0678   -3.0000    1.6576 C   0  0  0  0  0  0  0  0  0  0  0  0
   -3.2281   -3.8800    2.0897 H   0  0  0  0  0  0  0  0  0  0  0  0
   -3.6870   -2.8705    0.8908 H   0  0  0  0  0  0  0  0  0  0  0  0
   -1.6520   -2.9741    1.1360 C   0  0  0  0  0  0  0  0  0  0  0  0
   -1.6729   -3.2485    0.1795 H   0  0  0  0  0  0  0  0  0  0  0  0
   -1.3130   -2.0417    1.2186 H   0  0  0  0  0  0  0  0  0  0  0  0
   -1.0216   -3.6552    1.7077 H   0  0  0  0  0  0  0  0  0  0  0  0
  1  5  1  0
  5  6  1  0
  5  7  2  0
  1  2  1  0
  1  3  1  0
  1  4  1  0
  8 12  1  0
 12 15  1  0
  8  9  1  0
  8 10  1  0
  8 11  1  0
 12 13  1  0
 12 14  1  0
 15 16  1  0
 15 17  1  0
 15 18  1  0
M  CHG  1   6  -1
M  END
>  <PDB_ID>  (452) 
pdb2ixe

>  <RESIDUE_NAME>  (452) 
GLU   ARG

>  <FRAG_NAME>  (452) 
ACET   PRPA

>  <FRAG_ATOM_NUM>  (452) 
fragi: 7  fragj: 11

>  <atom.prop.CHAIN_ID>  (452) 
A A A A A A A Z Z Z Z Z Z Z Z Z Z Z

>  <atom.prop.IS_HEAVY_ATOM>  (452) 
1 0 0 0 1 1 1 1 0 0 0 1 0 0 1 0 0 0

>  <DIFUSE_FUNC_ATOM>  (452) 
atom 6   atom 7   

>  <FINAL_SINGLE_POINT_ENERGY>  (452) 
0

>  <NONCOV_INTER_ENERGY_QM>  (452) 
0

>  <FF_Energy>  (452) 
16.43

>  <QM_Energy>  (452) 
1.42

>  <source>  (452) 
ACET_PRPA_04

>  <Index>  (452) 
17112

$$$$
ACET-pdb1ial-A-GLU-139:PRPA-pdb1ial-A-ARG-101
     RDKit          3D

 18 16  0  0  0  0  0  0  0  0999 V2000
   -0.0013    1.5130    0.0002 C   0  0  0  0  0  0  0  0  0  0  0  0
    0.6705    1.8109   -0.6521 H   0  0  0  0  0  0  0  0  0  0  0  0
    0.2062    1.8099    0.9132 H   0  0  0  0  0  0  0  0  0  0  0  0
   -0.9677    1.9269   -0.2873 H   0  0  0  0  0  0  0  0  0  0  0  0
    0.0000    0.0000    0.0000 C   0  0  0  0  0  0  0  0  0  0  0  0
   -1.0962   -0.5901   -0.0000 O   0  0  0  0  0  1  0  0  0  0  0  0
    1.0962   -0.5993    0.0000 O   0  0  0  0  0  0  0  0  0  0  0  0
   -4.4699   -1.7482   -0.3214 C   0  0  0  0  0  0  0  0  0  0  0  0
   -4.6464   -0.8655   -0.7381 H   0  0  0  0  0  0  0  0  0  0  0  0
   -3.8458   -1.6561    0.4443 H   0  0  0  0  0  0  0  0  0  0  0  0
   -5.4137   -2.1449    0.0528 H   0  0  0  0  0  0  0  0  0  0  0  0
   -3.8288   -2.6424   -1.3523 C   0  0  0  0  0  0  0  0  0  0  0  0
   -4.1920   -3.5634   -1.2661 H   0  0  0  0  0  0  0  0  0  0  0  0
   -4.0056   -2.2818   -2.2608 H   0  0  0  0  0  0  0  0  0  0  0  0
   -2.3489   -2.6870   -1.1343 C   0  0  0  0  0  0  0  0  0  0  0  0
   -1.8952   -2.3263   -1.9518 H   0  0  0  0  0  0  0  0  0  0  0  0
   -2.1250   -2.1046   -0.3498 H   0  0  0  0  0  0  0  0  0  0  0  0
   -1.9843   -3.6961   -0.9427 H   0  0  0  0  0  0  0  0  0  0  0  0
  1  5  1  0
  5  6  1  0
  5  7  2  0
  1  2  1  0
  1  3  1  0
  1  4  1  0
  8 12  1  0
 12 15  1  0
  8  9  1  0
  8 10  1  0
  8 11  1  0
 12 13  1  0
 12 14  1  0
 15 16  1  0
 15 17  1  0
 15 18  1  0
M  CHG  1   6  -1
M  END
>  <PDB_ID>  (453) 
pdb1ial

>  <RESIDUE_NAME>  (453) 
GLU   ARG

>  <FRAG_NAME>  (453) 
ACET   PRPA

>  <FRAG_ATOM_NUM>  (453) 
fragi: 7  fragj: 11

>  <atom.prop.CHAIN_ID>  (453) 
A A A A A A A Z Z Z Z Z Z Z Z Z Z Z

>  <atom.prop.IS_HEAVY_ATOM>  (453) 
1 0 0 0 1 1 1 1 0 0 0 1 0 0 1 0 0 0

>  <DIFUSE_FUNC_ATOM>  (453) 
atom 6   atom 7   

>  <FINAL_SINGLE_POINT_ENERGY>  (453) 
0

>  <NONCOV_INTER_ENERGY_QM>  (453) 
0

>  <FF_Energy>  (453) 
19.46

>  <QM_Energy>  (453) 
1.31

>  <source>  (453) 
ACET_PRPA_04

>  <Index>  (453) 
17120

$$$$
ACET-pdb2ivd-A-GLU-336:PRPA-pdb2ivd-A-GLN-158
     RDKit          3D

 18 16  0  0  0  0  0  0  0  0999 V2000
    0.0119    1.5237    0.0075 C   0  0  0  0  0  0  0  0  0  0  0  0
    0.3311    1.8216   -0.8744 H   0  0  0  0  0  0  0  0  0  0  0  0
    0.6093    1.8112    0.7343 H   0  0  0  0  0  0  0  0  0  0  0  0
   -0.9702    1.9641    0.1791 H   0  0  0  0  0  0  0  0  0  0  0  0
    0.0000    0.0000    0.0000 C   0  0  0  0  0  0  0  0  0  0  0  0
   -1.0954   -0.5958   -0.0000 O   0  0  0  0  0  1  0  0  0  0  0  0
    1.0954   -0.6034    0.0000 O   0  0  0  0  0  0  0  0  0  0  0  0
   -0.8394   -1.0517   -4.7107 C   0  0  0  0  0  0  0  0  0  0  0  0
   -1.6063   -0.4206   -4.8775 H   0  0  0  0  0  0  0  0  0  0  0  0
   -0.8389   -1.7983   -5.5047 H   0  0  0  0  0  0  0  0  0  0  0  0
    0.0801   -0.4664   -4.7195 H   0  0  0  0  0  0  0  0  0  0  0  0
   -1.0248   -1.7205   -3.3472 C   0  0  0  0  0  0  0  0  0  0  0  0
   -1.4562   -2.6138   -3.4841 H   0  0  0  0  0  0  0  0  0  0  0  0
   -0.1227   -1.8523   -2.9291 H   0  0  0  0  0  0  0  0  0  0  0  0
   -1.8834   -0.9245   -2.3781 C   0  0  0  0  0  0  0  0  0  0  0  0
   -1.9037   -1.4028   -1.5008 H   0  0  0  0  0  0  0  0  0  0  0  0
   -1.4758   -0.0201   -2.2568 H   0  0  0  0  0  0  0  0  0  0  0  0
   -2.9075   -0.8004   -2.7300 H   0  0  0  0  0  0  0  0  0  0  0  0
  1  5  1  0
  5  6  1  0
  5  7  2  0
  1  2  1  0
  1  3  1  0
  1  4  1  0
  8 12  1  0
 12 15  1  0
  8  9  1  0
  8 10  1  0
  8 11  1  0
 12 13  1  0
 12 14  1  0
 15 16  1  0
 15 17  1  0
 15 18  1  0
M  CHG  1   6  -1
M  END
>  <PDB_ID>  (454) 
pdb2ivd

>  <RESIDUE_NAME>  (454) 
GLU   GLN

>  <FRAG_NAME>  (454) 
ACET   PRPA

>  <FRAG_ATOM_NUM>  (454) 
fragi: 7  fragj: 11

>  <atom.prop.CHAIN_ID>  (454) 
A A A A A A A Z Z Z Z Z Z Z Z Z Z Z

>  <atom.prop.IS_HEAVY_ATOM>  (454) 
1 0 0 0 1 1 1 1 0 0 0 1 0 0 1 0 0 0

>  <DIFUSE_FUNC_ATOM>  (454) 
atom 6   atom 7   

>  <FINAL_SINGLE_POINT_ENERGY>  (454) 
0

>  <NONCOV_INTER_ENERGY_QM>  (454) 
0

>  <FF_Energy>  (454) 
23.7

>  <QM_Energy>  (454) 
4.48

>  <source>  (454) 
ACET_PRPA_04

>  <Index>  (454) 
17431

$$$$
ACET-pdb1i4k-1-ASP-7:PRPA-pdb1i4k-1-ARG-4
     RDKit          3D

 18 16  0  0  0  0  0  0  0  0999 V2000
    0.0012    1.5218    0.0153 C   0  0  0  0  0  0  0  0  0  0  0  0
    0.9179    1.8418   -0.1939 H   0  0  0  0  0  0  0  0  0  0  0  0
   -0.2814    1.8320    0.9142 H   0  0  0  0  0  0  0  0  0  0  0  0
   -0.6805    1.9519   -0.7185 H   0  0  0  0  0  0  0  0  0  0  0  0
    0.0000    0.0000    0.0000 C   0  0  0  0  0  0  0  0  0  0  0  0
   -1.0963   -0.5985    0.0000 O   0  0  0  0  0  1  0  0  0  0  0  0
    1.0963   -0.5957   -0.0000 O   0  0  0  0  0  0  0  0  0  0  0  0
    3.9934    0.2295   -2.3306 C   0  0  0  0  0  0  0  0  0  0  0  0
    4.6676   -0.0786   -3.0088 H   0  0  0  0  0  0  0  0  0  0  0  0
    4.5200    0.5444   -1.4297 H   0  0  0  0  0  0  0  0  0  0  0  0
    3.4292    1.0613   -2.7524 H   0  0  0  0  0  0  0  0  0  0  0  0
    3.0400   -0.9236   -1.9972 C   0  0  0  0  0  0  0  0  0  0  0  0
    3.5648   -1.6371   -1.5358 H   0  0  0  0  0  0  0  0  0  0  0  0
    2.3352   -0.5751   -1.3822 H   0  0  0  0  0  0  0  0  0  0  0  0
    2.3496   -1.5493   -3.1995 C   0  0  0  0  0  0  0  0  0  0  0  0
    1.4931   -1.9692   -2.9098 H   0  0  0  0  0  0  0  0  0  0  0  0
    2.1695   -0.8459   -3.8824 H   0  0  0  0  0  0  0  0  0  0  0  0
    2.9669   -2.3197   -3.6614 H   0  0  0  0  0  0  0  0  0  0  0  0
  1  5  1  0
  5  6  1  0
  5  7  2  0
  1  2  1  0
  1  3  1  0
  1  4  1  0
  8 12  1  0
 12 15  1  0
  8  9  1  0
  8 10  1  0
  8 11  1  0
 12 13  1  0
 12 14  1  0
 15 16  1  0
 15 17  1  0
 15 18  1  0
M  CHG  1   6  -1
M  END
>  <PDB_ID>  (455) 
pdb1i4k

>  <RESIDUE_NAME>  (455) 
ASP   ARG

>  <FRAG_NAME>  (455) 
ACET   PRPA

>  <FRAG_ATOM_NUM>  (455) 
fragi: 7  fragj: 11

>  <atom.prop.CHAIN_ID>  (455) 
A A A A A A A Z Z Z Z Z Z Z Z Z Z Z

>  <atom.prop.IS_HEAVY_ATOM>  (455) 
1 0 0 0 1 1 1 1 0 0 0 1 0 0 1 0 0 0

>  <DIFUSE_FUNC_ATOM>  (455) 
atom 6   atom 7   

>  <FINAL_SINGLE_POINT_ENERGY>  (455) 
0

>  <NONCOV_INTER_ENERGY_QM>  (455) 
0

>  <FF_Energy>  (455) 
21.26

>  <QM_Energy>  (455) 
-0.87

>  <source>  (455) 
ACET_PRPA_04

>  <Index>  (455) 
17525

$$$$
ACET-pdb2j0n-A-ASP-254:PRPA-pdb2j0n-A-LYS-203
     RDKit          3D

 18 16  0  0  0  0  0  0  0  0999 V2000
    0.0153    1.5001   -0.1192 C   0  0  0  0  0  0  0  0  0  0  0  0
    0.7821    1.7746   -0.6898 H   0  0  0  0  0  0  0  0  0  0  0  0
    0.0993    1.8991    0.7873 H   0  0  0  0  0  0  0  0  0  0  0  0
   -0.8928    1.8974   -0.5728 H   0  0  0  0  0  0  0  0  0  0  0  0
    0.0000    0.0000    0.0000 C   0  0  0  0  0  0  0  0  0  0  0  0
   -1.1027   -0.5881   -0.0000 O   0  0  0  0  0  1  0  0  0  0  0  0
    1.1027   -0.5875   -0.0000 O   0  0  0  0  0  0  0  0  0  0  0  0
   -3.8173   -3.3567   -1.5133 C   0  0  0  0  0  0  0  0  0  0  0  0
   -3.0027   -3.8918   -1.7198 H   0  0  0  0  0  0  0  0  0  0  0  0
   -3.9544   -2.6596   -2.2117 H   0  0  0  0  0  0  0  0  0  0  0  0
   -4.6867   -4.0128   -1.4708 H   0  0  0  0  0  0  0  0  0  0  0  0
   -3.6266   -2.6757   -0.1762 C   0  0  0  0  0  0  0  0  0  0  0  0
   -3.6256   -1.6901   -0.3105 H   0  0  0  0  0  0  0  0  0  0  0  0
   -4.3657   -2.9406    0.4336 H   0  0  0  0  0  0  0  0  0  0  0  0
   -2.3067   -3.0772    0.4633 C   0  0  0  0  0  0  0  0  0  0  0  0
   -2.0296   -3.9700    0.1030 H   0  0  0  0  0  0  0  0  0  0  0  0
   -1.6111   -2.3962    0.2272 H   0  0  0  0  0  0  0  0  0  0  0  0
   -2.3952   -3.1390    1.5479 H   0  0  0  0  0  0  0  0  0  0  0  0
  1  5  1  0
  5  6  1  0
  5  7  2  0
  1  2  1  0
  1  3  1  0
  1  4  1  0
  8 12  1  0
 12 15  1  0
  8  9  1  0
  8 10  1  0
  8 11  1  0
 12 13  1  0
 12 14  1  0
 15 16  1  0
 15 17  1  0
 15 18  1  0
M  CHG  1   6  -1
M  END
>  <PDB_ID>  (456) 
pdb2j0n

>  <RESIDUE_NAME>  (456) 
ASP   LYS

>  <FRAG_NAME>  (456) 
ACET   PRPA

>  <FRAG_ATOM_NUM>  (456) 
fragi: 7  fragj: 11

>  <atom.prop.CHAIN_ID>  (456) 
A A A A A A A Z Z Z Z Z Z Z Z Z Z Z

>  <atom.prop.IS_HEAVY_ATOM>  (456) 
1 0 0 0 1 1 1 1 0 0 0 1 0 0 1 0 0 0

>  <DIFUSE_FUNC_ATOM>  (456) 
atom 6   atom 7   

>  <FINAL_SINGLE_POINT_ENERGY>  (456) 
0

>  <NONCOV_INTER_ENERGY_QM>  (456) 
0

>  <FF_Energy>  (456) 
18.75

>  <QM_Energy>  (456) 
-1.78

>  <source>  (456) 
ACET_PRPA_04

>  <Index>  (456) 
17531

$$$$
ACET-pdb2iz5-A-ASP-72:PRPA-pdb2iz5-A-VAL-85
     RDKit          3D

 18 16  0  0  0  0  0  0  0  0999 V2000
    0.0319    1.5159   -0.0174 C   0  0  0  0  0  0  0  0  0  0  0  0
    0.5255    1.8152   -0.8340 H   0  0  0  0  0  0  0  0  0  0  0  0
    0.5146    1.8352    0.7982 H   0  0  0  0  0  0  0  0  0  0  0  0
   -0.9519    1.9850   -0.0299 H   0  0  0  0  0  0  0  0  0  0  0  0
    0.0000    0.0000    0.0000 C   0  0  0  0  0  0  0  0  0  0  0  0
   -1.0953   -0.6008   -0.0000 O   0  0  0  0  0  1  0  0  0  0  0  0
    1.0953   -0.5823    0.0000 O   0  0  0  0  0  0  0  0  0  0  0  0
    2.2161   -2.5026    2.4706 C   0  0  0  0  0  0  0  0  0  0  0  0
    2.7985   -1.9297    1.9172 H   0  0  0  0  0  0  0  0  0  0  0  0
    2.3412   -3.5355    2.1455 H   0  0  0  0  0  0  0  0  0  0  0  0
    2.5862   -2.4848    3.4957 H   0  0  0  0  0  0  0  0  0  0  0  0
    0.7405   -2.0528    2.4479 C   0  0  0  0  0  0  0  0  0  0  0  0
    0.2717   -2.4965    3.2014 H   0  0  0  0  0  0  0  0  0  0  0  0
    0.2587   -2.3281    1.5098 H   0  0  0  0  0  0  0  0  0  0  0  0
    0.6322   -0.5290    2.7032 C   0  0  0  0  0  0  0  0  0  0  0  0
    1.5442   -0.1654    2.8691 H   0  0  0  0  0  0  0  0  0  0  0  0
    0.2316   -0.0972    1.9003 H   0  0  0  0  0  0  0  0  0  0  0  0
    0.0532   -0.3773    3.4987 H   0  0  0  0  0  0  0  0  0  0  0  0
  1  5  1  0
  5  6  1  0
  5  7  2  0
  1  2  1  0
  1  3  1  0
  1  4  1  0
  8 12  1  0
 12 15  1  0
  8  9  1  0
  8 10  1  0
  8 11  1  0
 12 13  1  0
 12 14  1  0
 15 16  1  0
 15 17  1  0
 15 18  1  0
M  CHG  1   6  -1
M  END
>  <PDB_ID>  (457) 
pdb2iz5

>  <RESIDUE_NAME>  (457) 
ASP   VAL

>  <FRAG_NAME>  (457) 
ACET   PRPA

>  <FRAG_ATOM_NUM>  (457) 
fragi: 7  fragj: 11

>  <atom.prop.CHAIN_ID>  (457) 
A A A A A A A Z Z Z Z Z Z Z Z Z Z Z

>  <atom.prop.IS_HEAVY_ATOM>  (457) 
1 0 0 0 1 1 1 1 0 0 0 1 0 0 1 0 0 0

>  <DIFUSE_FUNC_ATOM>  (457) 
atom 6   atom 7   

>  <FINAL_SINGLE_POINT_ENERGY>  (457) 
0

>  <NONCOV_INTER_ENERGY_QM>  (457) 
0

>  <FF_Energy>  (457) 
44.4

>  <QM_Energy>  (457) 
2.47

>  <source>  (457) 
ACET_PRPA_04

>  <Index>  (457) 
18678

$$$$
ACET-pdb1icp-A-GLU-26:PRPA-pdb1icp-A-LYS-21
     RDKit          3D

 18 16  0  0  0  0  0  0  0  0999 V2000
   -0.0144    1.5178    0.0080 C   0  0  0  0  0  0  0  0  0  0  0  0
    0.9026    1.8258   -0.1505 H   0  0  0  0  0  0  0  0  0  0  0  0
   -0.3675    1.8068    0.8758 H   0  0  0  0  0  0  0  0  0  0  0  0
   -0.6520    1.9280   -0.7752 H   0  0  0  0  0  0  0  0  0  0  0  0
    0.0000    0.0000    0.0000 C   0  0  0  0  0  0  0  0  0  0  0  0
   -1.0962   -0.5961    0.0000 O   0  0  0  0  0  1  0  0  0  0  0  0
    1.0962   -0.6005    0.0000 O   0  0  0  0  0  0  0  0  0  0  0  0
    1.6229   -3.2602   -2.4404 C   0  0  0  0  0  0  0  0  0  0  0  0
    2.2465   -3.9843   -2.7252 H   0  0  0  0  0  0  0  0  0  0  0  0
    2.1043   -2.6098   -1.8554 H   0  0  0  0  0  0  0  0  0  0  0  0
    1.2844   -2.7311   -3.3312 H   0  0  0  0  0  0  0  0  0  0  0  0
    0.4972   -3.8943   -1.6244 C   0  0  0  0  0  0  0  0  0  0  0  0
    0.1043   -4.6525   -2.1507 H   0  0  0  0  0  0  0  0  0  0  0  0
    0.8792   -4.2532   -0.7697 H   0  0  0  0  0  0  0  0  0  0  0  0
   -0.6089   -2.9015   -1.2909 C   0  0  0  0  0  0  0  0  0  0  0  0
   -0.2307   -2.1786   -0.7174 H   0  0  0  0  0  0  0  0  0  0  0  0
   -0.9612   -2.5136   -2.1389 H   0  0  0  0  0  0  0  0  0  0  0  0
   -1.4353   -3.3692   -0.7558 H   0  0  0  0  0  0  0  0  0  0  0  0
  1  5  1  0
  5  6  1  0
  5  7  2  0
  1  2  1  0
  1  3  1  0
  1  4  1  0
  8 12  1  0
 12 15  1  0
  8  9  1  0
  8 10  1  0
  8 11  1  0
 12 13  1  0
 12 14  1  0
 15 16  1  0
 15 17  1  0
 15 18  1  0
M  CHG  1   6  -1
M  END
>  <PDB_ID>  (458) 
pdb1icp

>  <RESIDUE_NAME>  (458) 
GLU   LYS

>  <FRAG_NAME>  (458) 
ACET   PRPA

>  <FRAG_ATOM_NUM>  (458) 
fragi: 7  fragj: 11

>  <atom.prop.CHAIN_ID>  (458) 
A A A A A A A Z Z Z Z Z Z Z Z Z Z Z

>  <atom.prop.IS_HEAVY_ATOM>  (458) 
1 0 0 0 1 1 1 1 0 0 0 1 0 0 1 0 0 0

>  <DIFUSE_FUNC_ATOM>  (458) 
atom 6   atom 7   

>  <FINAL_SINGLE_POINT_ENERGY>  (458) 
0

>  <NONCOV_INTER_ENERGY_QM>  (458) 
0

>  <FF_Energy>  (458) 
18.35

>  <QM_Energy>  (458) 
1.57

>  <source>  (458) 
ACET_PRPA_04

>  <Index>  (458) 
18976

$$$$
ACET-pdb1icp-A-GLU-26:PRPA-pdb1icp-A-LYS-21
     RDKit          3D

 18 16  0  0  0  0  0  0  0  0999 V2000
   -0.0144    1.5178    0.0080 C   0  0  0  0  0  0  0  0  0  0  0  0
    0.9026    1.8258   -0.1505 H   0  0  0  0  0  0  0  0  0  0  0  0
   -0.3675    1.8068    0.8758 H   0  0  0  0  0  0  0  0  0  0  0  0
   -0.6520    1.9280   -0.7752 H   0  0  0  0  0  0  0  0  0  0  0  0
    0.0000    0.0000    0.0000 C   0  0  0  0  0  0  0  0  0  0  0  0
   -1.0962   -0.5961    0.0000 O   0  0  0  0  0  1  0  0  0  0  0  0
    1.0962   -0.6005    0.0000 O   0  0  0  0  0  0  0  0  0  0  0  0
    0.4972   -3.8943   -1.6244 C   0  0  0  0  0  0  0  0  0  0  0  0
    0.1043   -4.6525   -2.1507 H   0  0  0  0  0  0  0  0  0  0  0  0
    0.8792   -4.2532   -0.7697 H   0  0  0  0  0  0  0  0  0  0  0  0
    1.3002   -3.4420   -2.2065 H   0  0  0  0  0  0  0  0  0  0  0  0
   -0.6089   -2.9015   -1.2909 C   0  0  0  0  0  0  0  0  0  0  0  0
   -0.2307   -2.1786   -0.7174 H   0  0  0  0  0  0  0  0  0  0  0  0
   -0.9612   -2.5136   -2.1389 H   0  0  0  0  0  0  0  0  0  0  0  0
   -1.7655   -3.5560   -0.5420 C   0  0  0  0  0  0  0  0  0  0  0  0
   -1.4039   -4.0188    0.2729 H   0  0  0  0  0  0  0  0  0  0  0  0
   -2.4081   -2.8413   -0.2477 H   0  0  0  0  0  0  0  0  0  0  0  0
   -2.2993   -4.2820   -1.1553 H   0  0  0  0  0  0  0  0  0  0  0  0
  1  5  1  0
  5  6  1  0
  5  7  2  0
  1  2  1  0
  1  3  1  0
  1  4  1  0
  8 12  1  0
 12 15  1  0
  8  9  1  0
  8 10  1  0
  8 11  1  0
 12 13  1  0
 12 14  1  0
 15 16  1  0
 15 17  1  0
 15 18  1  0
M  CHG  1   6  -1
M  END
>  <PDB_ID>  (459) 
pdb1icp

>  <RESIDUE_NAME>  (459) 
GLU   LYS

>  <FRAG_NAME>  (459) 
ACET   PRPA

>  <FRAG_ATOM_NUM>  (459) 
fragi: 7  fragj: 11

>  <atom.prop.CHAIN_ID>  (459) 
A A A A A A A Z Z Z Z Z Z Z Z Z Z Z

>  <atom.prop.IS_HEAVY_ATOM>  (459) 
1 0 0 0 1 1 1 1 0 0 0 1 0 0 1 0 0 0

>  <DIFUSE_FUNC_ATOM>  (459) 
atom 6   atom 7   

>  <FINAL_SINGLE_POINT_ENERGY>  (459) 
0

>  <NONCOV_INTER_ENERGY_QM>  (459) 
0

>  <FF_Energy>  (459) 
20.66

>  <QM_Energy>  (459) 
0.12

>  <source>  (459) 
ACET_PRPA_04

>  <Index>  (459) 
18979

$$$$
ACET-pdb1hqz-8-ASP-127:PRPA-pdb1hqz-8-GLU-130
     RDKit          3D

 18 16  0  0  0  0  0  0  0  0999 V2000
   -0.0099    1.5261    0.0196 C   0  0  0  0  0  0  0  0  0  0  0  0
   -0.6429    1.8458   -0.6713 H   0  0  0  0  0  0  0  0  0  0  0  0
    0.9076    1.8501   -0.1607 H   0  0  0  0  0  0  0  0  0  0  0  0
   -0.3284    1.9231    0.9835 H   0  0  0  0  0  0  0  0  0  0  0  0
    0.0000    0.0000    0.0000 C   0  0  0  0  0  0  0  0  0  0  0  0
   -1.0958   -0.5997    0.0000 O   0  0  0  0  0  1  0  0  0  0  0  0
    1.0958   -0.6030   -0.0000 O   0  0  0  0  0  0  0  0  0  0  0  0
    4.3645    0.7050    0.1980 C   0  0  0  0  0  0  0  0  0  0  0  0
    5.0086    0.1642   -0.3585 H   0  0  0  0  0  0  0  0  0  0  0  0
    3.7413    0.0381    0.7937 H   0  0  0  0  0  0  0  0  0  0  0  0
    4.9262    1.3914    0.8315 H   0  0  0  0  0  0  0  0  0  0  0  0
    3.5105    1.4861   -0.8084 C   0  0  0  0  0  0  0  0  0  0  0  0
    2.8353    1.9898   -0.3017 H   0  0  0  0  0  0  0  0  0  0  0  0
    4.1093    2.0744   -1.3193 H   0  0  0  0  0  0  0  0  0  0  0  0
    2.7645    0.6057   -1.8163 C   0  0  0  0  0  0  0  0  0  0  0  0
    2.1537    0.0194   -1.3156 H   0  0  0  0  0  0  0  0  0  0  0  0
    2.2837    1.1944   -2.4410 H   0  0  0  0  0  0  0  0  0  0  0  0
    3.4218   -0.0321   -2.4073 H   0  0  0  0  0  0  0  0  0  0  0  0
  1  5  1  0
  5  6  1  0
  5  7  2  0
  1  2  1  0
  1  3  1  0
  1  4  1  0
  8 12  1  0
 12 15  1  0
  8  9  1  0
  8 10  1  0
  8 11  1  0
 12 13  1  0
 12 14  1  0
 15 16  1  0
 15 17  1  0
 15 18  1  0
M  CHG  1   6  -1
M  END
>  <PDB_ID>  (460) 
pdb1hqz

>  <RESIDUE_NAME>  (460) 
ASP   GLU

>  <FRAG_NAME>  (460) 
ACET   PRPA

>  <FRAG_ATOM_NUM>  (460) 
fragi: 7  fragj: 11

>  <atom.prop.CHAIN_ID>  (460) 
A A A A A A A Z Z Z Z Z Z Z Z Z Z Z

>  <atom.prop.IS_HEAVY_ATOM>  (460) 
1 0 0 0 1 1 1 1 0 0 0 1 0 0 1 0 0 0

>  <DIFUSE_FUNC_ATOM>  (460) 
atom 6   atom 7   

>  <FINAL_SINGLE_POINT_ENERGY>  (460) 
0

>  <NONCOV_INTER_ENERGY_QM>  (460) 
0

>  <FF_Energy>  (460) 
30.74

>  <QM_Energy>  (460) 
0.82

>  <source>  (460) 
ACET_PRPA_04

>  <Index>  (460) 
19145

$$$$
ACET-pdb1ihr-B-GLU-216:PRPA-pdb1ihr-B-LYS-219
     RDKit          3D

 18 16  0  0  0  0  0  0  0  0999 V2000
    0.0046    1.5145    0.0076 C   0  0  0  0  0  0  0  0  0  0  0  0
   -0.8405    1.8142    0.3788 H   0  0  0  0  0  0  0  0  0  0  0  0
    0.1751    1.8172   -0.8991 H   0  0  0  0  0  0  0  0  0  0  0  0
    0.8078    1.8786    0.6482 H   0  0  0  0  0  0  0  0  0  0  0  0
    0.0000    0.0000    0.0000 C   0  0  0  0  0  0  0  0  0  0  0  0
   -1.1042   -0.5911   -0.0000 O   0  0  0  0  0  1  0  0  0  0  0  0
    1.1042   -0.5929    0.0000 O   0  0  0  0  0  0  0  0  0  0  0  0
   -0.8459   -1.6518    2.8951 C   0  0  0  0  0  0  0  0  0  0  0  0
   -1.7320   -2.1126    2.9557 H   0  0  0  0  0  0  0  0  0  0  0  0
   -0.9285   -0.8533    2.2972 H   0  0  0  0  0  0  0  0  0  0  0  0
   -0.5527   -1.3194    3.8909 H   0  0  0  0  0  0  0  0  0  0  0  0
    0.1692   -2.6099    2.3030 C   0  0  0  0  0  0  0  0  0  0  0  0
    1.0291   -2.1305    2.1699 H   0  0  0  0  0  0  0  0  0  0  0  0
    0.2906   -3.3791    2.9201 H   0  0  0  0  0  0  0  0  0  0  0  0
   -0.2992   -3.1438    0.9542 C   0  0  0  0  0  0  0  0  0  0  0  0
   -0.8998   -3.9336    1.1084 H   0  0  0  0  0  0  0  0  0  0  0  0
   -0.8238   -2.4272    0.4850 H   0  0  0  0  0  0  0  0  0  0  0  0
    0.5320   -3.4487    0.3183 H   0  0  0  0  0  0  0  0  0  0  0  0
  1  5  1  0
  5  6  1  0
  5  7  2  0
  1  2  1  0
  1  3  1  0
  1  4  1  0
  8 12  1  0
 12 15  1  0
  8  9  1  0
  8 10  1  0
  8 11  1  0
 12 13  1  0
 12 14  1  0
 15 16  1  0
 15 17  1  0
 15 18  1  0
M  CHG  1   6  -1
M  END
>  <PDB_ID>  (461) 
pdb1ihr

>  <RESIDUE_NAME>  (461) 
GLU   LYS

>  <FRAG_NAME>  (461) 
ACET   PRPA

>  <FRAG_ATOM_NUM>  (461) 
fragi: 7  fragj: 11

>  <atom.prop.CHAIN_ID>  (461) 
A A A A A A A Z Z Z Z Z Z Z Z Z Z Z

>  <atom.prop.IS_HEAVY_ATOM>  (461) 
1 0 0 0 1 1 1 1 0 0 0 1 0 0 1 0 0 0

>  <DIFUSE_FUNC_ATOM>  (461) 
atom 6   atom 7   

>  <FINAL_SINGLE_POINT_ENERGY>  (461) 
0

>  <NONCOV_INTER_ENERGY_QM>  (461) 
0

>  <FF_Energy>  (461) 
16.42

>  <QM_Energy>  (461) 
-1.67

>  <source>  (461) 
ACET_PRPA_04

>  <Index>  (461) 
20674

$$$$
ACET-pdb1i7q-A-ASP-185:PRPA-pdb1i7q-A-ARG-188
     RDKit          3D

 18 16  0  0  0  0  0  0  0  0999 V2000
    0.0133    1.5266    0.0112 C   0  0  0  0  0  0  0  0  0  0  0  0
    0.8921    1.8356   -0.3284 H   0  0  0  0  0  0  0  0  0  0  0  0
   -0.1328    1.8358    0.9413 H   0  0  0  0  0  0  0  0  0  0  0  0
   -0.7664    1.9548   -0.6188 H   0  0  0  0  0  0  0  0  0  0  0  0
    0.0000    0.0000    0.0000 C   0  0  0  0  0  0  0  0  0  0  0  0
   -1.0996   -0.6049   -0.0000 O   0  0  0  0  0  1  0  0  0  0  0  0
    1.0996   -0.6002    0.0000 O   0  0  0  0  0  0  0  0  0  0  0  0
   -0.6865   -0.7783    3.7383 C   0  0  0  0  0  0  0  0  0  0  0  0
   -0.4088   -0.0884    3.0624 H   0  0  0  0  0  0  0  0  0  0  0  0
   -0.4298   -0.4520    4.6537 H   0  0  0  0  0  0  0  0  0  0  0  0
   -1.7719   -0.8719    3.7030 H   0  0  0  0  0  0  0  0  0  0  0  0
    0.1134   -2.0490    3.4583 C   0  0  0  0  0  0  0  0  0  0  0  0
    1.0421   -1.9404    3.8138 H   0  0  0  0  0  0  0  0  0  0  0  0
   -0.3283   -2.8241    3.9120 H   0  0  0  0  0  0  0  0  0  0  0  0
    0.2103   -2.3660    1.9705 C   0  0  0  0  0  0  0  0  0  0  0  0
   -0.5237   -3.0017    1.7404 H   0  0  0  0  0  0  0  0  0  0  0  0
    0.0927   -1.5141    1.4644 H   0  0  0  0  0  0  0  0  0  0  0  0
    1.1668   -2.8128    1.6993 H   0  0  0  0  0  0  0  0  0  0  0  0
  1  5  1  0
  5  6  1  0
  5  7  2  0
  1  2  1  0
  1  3  1  0
  1  4  1  0
  8 12  1  0
 12 15  1  0
  8  9  1  0
  8 10  1  0
  8 11  1  0
 12 13  1  0
 12 14  1  0
 15 16  1  0
 15 17  1  0
 15 18  1  0
M  CHG  1   6  -1
M  END
>  <PDB_ID>  (462) 
pdb1i7q

>  <RESIDUE_NAME>  (462) 
ASP   ARG

>  <FRAG_NAME>  (462) 
ACET   PRPA

>  <FRAG_ATOM_NUM>  (462) 
fragi: 7  fragj: 11

>  <atom.prop.CHAIN_ID>  (462) 
A A A A A A A Z Z Z Z Z Z Z Z Z Z Z

>  <atom.prop.IS_HEAVY_ATOM>  (462) 
1 0 0 0 1 1 1 1 0 0 0 1 0 0 1 0 0 0

>  <DIFUSE_FUNC_ATOM>  (462) 
atom 6   atom 7   

>  <FINAL_SINGLE_POINT_ENERGY>  (462) 
0

>  <NONCOV_INTER_ENERGY_QM>  (462) 
0

>  <FF_Energy>  (462) 
22.42

>  <QM_Energy>  (462) 
3.13

>  <source>  (462) 
ACET_PRPA_04

>  <Index>  (462) 
21308

$$$$
ACET-pdb2j7t-A-ASP-215:PRPA-pdb2j7t-A-ILE-154
     RDKit          3D

 18 16  0  0  0  0  0  0  0  0999 V2000
    0.0414    1.5379    0.0078 C   0  0  0  0  0  0  0  0  0  0  0  0
    0.6134    1.8406   -0.7464 H   0  0  0  0  0  0  0  0  0  0  0  0
    0.4213    1.8379    0.8747 H   0  0  0  0  0  0  0  0  0  0  0  0
   -0.9366    2.0050   -0.1078 H   0  0  0  0  0  0  0  0  0  0  0  0
    0.0000    0.0000    0.0000 C   0  0  0  0  0  0  0  0  0  0  0  0
   -1.0976   -0.6104   -0.0000 O   0  0  0  0  0  1  0  0  0  0  0  0
    1.0976   -0.6015   -0.0000 O   0  0  0  0  0  0  0  0  0  0  0  0
    1.4380    1.2402   -5.0810 C   0  0  0  0  0  0  0  0  0  0  0  0
    2.2973    1.6938   -4.8780 H   0  0  0  0  0  0  0  0  0  0  0  0
    1.5788    0.6373   -5.9781 H   0  0  0  0  0  0  0  0  0  0  0  0
    0.6556    1.9859   -5.2218 H   0  0  0  0  0  0  0  0  0  0  0  0
    1.0837    0.3397   -3.8881 C   0  0  0  0  0  0  0  0  0  0  0  0
    0.1268    0.0822   -3.9660 H   0  0  0  0  0  0  0  0  0  0  0  0
    1.6509   -0.4766   -3.9398 H   0  0  0  0  0  0  0  0  0  0  0  0
    1.3133    1.0160   -2.5642 C   0  0  0  0  0  0  0  0  0  0  0  0
    0.7466    1.8380   -2.5043 H   0  0  0  0  0  0  0  0  0  0  0  0
    1.0694    0.3911   -1.8211 H   0  0  0  0  0  0  0  0  0  0  0  0
    2.2766    1.2698   -2.4797 H   0  0  0  0  0  0  0  0  0  0  0  0
  1  5  1  0
  5  6  1  0
  5  7  2  0
  1  2  1  0
  1  3  1  0
  1  4  1  0
  8 12  1  0
 12 15  1  0
  8  9  1  0
  8 10  1  0
  8 11  1  0
 12 13  1  0
 12 14  1  0
 15 16  1  0
 15 17  1  0
 15 18  1  0
M  CHG  1   6  -1
M  END
>  <PDB_ID>  (463) 
pdb2j7t

>  <RESIDUE_NAME>  (463) 
ASP   ILE

>  <FRAG_NAME>  (463) 
ACET   PRPA

>  <FRAG_ATOM_NUM>  (463) 
fragi: 7  fragj: 11

>  <atom.prop.CHAIN_ID>  (463) 
A A A A A A A Z Z Z Z Z Z Z Z Z Z Z

>  <atom.prop.IS_HEAVY_ATOM>  (463) 
1 0 0 0 1 1 1 1 0 0 0 1 0 0 1 0 0 0

>  <DIFUSE_FUNC_ATOM>  (463) 
atom 6   atom 7   

>  <FINAL_SINGLE_POINT_ENERGY>  (463) 
0

>  <NONCOV_INTER_ENERGY_QM>  (463) 
0

>  <FF_Energy>  (463) 
32.28

>  <QM_Energy>  (463) 
6.09

>  <source>  (463) 
ACET_PRPA_04

>  <Index>  (463) 
21559

$$$$
ACET-pdb2jd9-A-GLU-130:PRPA-pdb2jd9-A-VAL-34
     RDKit          3D

 18 16  0  0  0  0  0  0  0  0999 V2000
   -0.0308    1.5403    0.0047 C   0  0  0  0  0  0  0  0  0  0  0  0
   -0.3021    1.8121    0.9057 H   0  0  0  0  0  0  0  0  0  0  0  0
   -0.6732    1.8093   -0.6844 H   0  0  0  0  0  0  0  0  0  0  0  0
    0.9470    1.9646   -0.2234 H   0  0  0  0  0  0  0  0  0  0  0  0
    0.0000    0.0000    0.0000 C   0  0  0  0  0  0  0  0  0  0  0  0
   -1.0859   -0.5985   -0.0000 O   0  0  0  0  0  1  0  0  0  0  0  0
    1.0859   -0.5974    0.0000 O   0  0  0  0  0  0  0  0  0  0  0  0
   -4.1283    0.9477   -1.0308 C   0  0  0  0  0  0  0  0  0  0  0  0
   -3.2730    1.5021   -1.1160 H   0  0  0  0  0  0  0  0  0  0  0  0
   -4.1517    0.5335   -0.0229 H   0  0  0  0  0  0  0  0  0  0  0  0
   -4.9696    1.5911   -1.2885 H   0  0  0  0  0  0  0  0  0  0  0  0
   -4.0022   -0.1621   -2.1071 C   0  0  0  0  0  0  0  0  0  0  0  0
   -4.1366    0.2676   -2.9931 H   0  0  0  0  0  0  0  0  0  0  0  0
   -4.7353   -0.9528   -1.9469 H   0  0  0  0  0  0  0  0  0  0  0  0
   -2.6033   -0.7523   -2.0990 C   0  0  0  0  0  0  0  0  0  0  0  0
   -2.4195   -1.1682   -1.2078 H   0  0  0  0  0  0  0  0  0  0  0  0
   -2.5295   -1.4505   -2.8114 H   0  0  0  0  0  0  0  0  0  0  0  0
   -1.9329   -0.0298   -2.2725 H   0  0  0  0  0  0  0  0  0  0  0  0
  1  5  1  0
  5  6  1  0
  5  7  2  0
  1  2  1  0
  1  3  1  0
  1  4  1  0
  8 12  1  0
 12 15  1  0
  8  9  1  0
  8 10  1  0
  8 11  1  0
 12 13  1  0
 12 14  1  0
 15 16  1  0
 15 17  1  0
 15 18  1  0
M  CHG  1   6  -1
M  END
>  <PDB_ID>  (464) 
pdb2jd9

>  <RESIDUE_NAME>  (464) 
GLU   VAL

>  <FRAG_NAME>  (464) 
ACET   PRPA

>  <FRAG_ATOM_NUM>  (464) 
fragi: 7  fragj: 11

>  <atom.prop.CHAIN_ID>  (464) 
A A A A A A A Z Z Z Z Z Z Z Z Z Z Z

>  <atom.prop.IS_HEAVY_ATOM>  (464) 
1 0 0 0 1 1 1 1 0 0 0 1 0 0 1 0 0 0

>  <DIFUSE_FUNC_ATOM>  (464) 
atom 6   atom 7   

>  <FINAL_SINGLE_POINT_ENERGY>  (464) 
0

>  <NONCOV_INTER_ENERGY_QM>  (464) 
0

>  <FF_Energy>  (464) 
19.76

>  <QM_Energy>  (464) 
3.07

>  <source>  (464) 
ACET_PRPA_04

>  <Index>  (464) 
21775

$$$$
ACET-pdb2jd9-A-GLU-130:PRPA-pdb2jd9-A-VAL-34
     RDKit          3D

 18 16  0  0  0  0  0  0  0  0999 V2000
   -0.0308    1.5403    0.0047 C   0  0  0  0  0  0  0  0  0  0  0  0
   -0.3021    1.8121    0.9057 H   0  0  0  0  0  0  0  0  0  0  0  0
   -0.6732    1.8093   -0.6844 H   0  0  0  0  0  0  0  0  0  0  0  0
    0.9470    1.9646   -0.2234 H   0  0  0  0  0  0  0  0  0  0  0  0
    0.0000    0.0000    0.0000 C   0  0  0  0  0  0  0  0  0  0  0  0
   -1.0859   -0.5985   -0.0000 O   0  0  0  0  0  1  0  0  0  0  0  0
    1.0859   -0.5974    0.0000 O   0  0  0  0  0  0  0  0  0  0  0  0
   -2.6033   -0.7523   -2.0990 C   0  0  0  0  0  0  0  0  0  0  0  0
   -2.4195   -1.1682   -1.2078 H   0  0  0  0  0  0  0  0  0  0  0  0
   -2.5295   -1.4505   -2.8114 H   0  0  0  0  0  0  0  0  0  0  0  0
   -1.9329   -0.0298   -2.2725 H   0  0  0  0  0  0  0  0  0  0  0  0
   -4.0022   -0.1621   -2.1071 C   0  0  0  0  0  0  0  0  0  0  0  0
   -4.1366    0.2676   -2.9931 H   0  0  0  0  0  0  0  0  0  0  0  0
   -4.0908    0.6178   -1.3508 H   0  0  0  0  0  0  0  0  0  0  0  0
   -5.0110   -1.2501   -1.8866 C   0  0  0  0  0  0  0  0  0  0  0  0
   -5.7943   -0.8906   -1.3722 H   0  0  0  0  0  0  0  0  0  0  0  0
   -5.3326   -1.6011   -2.7701 H   0  0  0  0  0  0  0  0  0  0  0  0
   -4.5943   -2.0011   -1.3672 H   0  0  0  0  0  0  0  0  0  0  0  0
  1  5  1  0
  5  6  1  0
  5  7  2  0
  1  2  1  0
  1  3  1  0
  1  4  1  0
  8 12  1  0
 12 15  1  0
  8  9  1  0
  8 10  1  0
  8 11  1  0
 12 13  1  0
 12 14  1  0
 15 16  1  0
 15 17  1  0
 15 18  1  0
M  CHG  1   6  -1
M  END
>  <PDB_ID>  (465) 
pdb2jd9

>  <RESIDUE_NAME>  (465) 
GLU   VAL

>  <FRAG_NAME>  (465) 
ACET   PRPA

>  <FRAG_ATOM_NUM>  (465) 
fragi: 7  fragj: 11

>  <atom.prop.CHAIN_ID>  (465) 
A A A A A A A Z Z Z Z Z Z Z Z Z Z Z

>  <atom.prop.IS_HEAVY_ATOM>  (465) 
1 0 0 0 1 1 1 1 0 0 0 1 0 0 1 0 0 0

>  <DIFUSE_FUNC_ATOM>  (465) 
atom 6   atom 7   

>  <FINAL_SINGLE_POINT_ENERGY>  (465) 
0

>  <NONCOV_INTER_ENERGY_QM>  (465) 
0

>  <FF_Energy>  (465) 
19.75

>  <QM_Energy>  (465) 
3.76

>  <source>  (465) 
ACET_PRPA_04

>  <Index>  (465) 
21787

$$$$
ACET-pdb1ik6-A-GLU-176:PRPA-pdb1ik6-A-ARG-120
     RDKit          3D

 18 16  0  0  0  0  0  0  0  0999 V2000
    0.0354    1.5272    0.0378 C   0  0  0  0  0  0  0  0  0  0  0  0
    0.7519    1.8171   -0.5775 H   0  0  0  0  0  0  0  0  0  0  0  0
    0.2330    1.7904    0.9695 H   0  0  0  0  0  0  0  0  0  0  0  0
   -0.8962    2.0038   -0.2672 H   0  0  0  0  0  0  0  0  0  0  0  0
    0.0000    0.0000    0.0000 C   0  0  0  0  0  0  0  0  0  0  0  0
   -1.0931   -0.5850    0.0000 O   0  0  0  0  0  1  0  0  0  0  0  0
    1.0931   -0.6126   -0.0000 O   0  0  0  0  0  0  0  0  0  0  0  0
    1.9559   -1.5819    3.2494 C   0  0  0  0  0  0  0  0  0  0  0  0
    1.7080   -2.3726    3.8033 H   0  0  0  0  0  0  0  0  0  0  0  0
    1.1820   -1.3018    2.6887 H   0  0  0  0  0  0  0  0  0  0  0  0
    2.2079   -0.7603    3.9200 H   0  0  0  0  0  0  0  0  0  0  0  0
    3.0865   -2.0007    2.3116 C   0  0  0  0  0  0  0  0  0  0  0  0
    3.5610   -1.2055    1.9815 H   0  0  0  0  0  0  0  0  0  0  0  0
    3.6865   -2.6296    2.7707 H   0  0  0  0  0  0  0  0  0  0  0  0
    2.4834   -2.7329    1.0881 C   0  0  0  0  0  0  0  0  0  0  0  0
    1.8649   -2.1079    0.6511 H   0  0  0  0  0  0  0  0  0  0  0  0
    3.2324   -2.9894    0.5058 H   0  0  0  0  0  0  0  0  0  0  0  0
    1.9515   -3.6161    1.4421 H   0  0  0  0  0  0  0  0  0  0  0  0
  1  5  1  0
  5  6  1  0
  5  7  2  0
  1  2  1  0
  1  3  1  0
  1  4  1  0
  8 12  1  0
 12 15  1  0
  8  9  1  0
  8 10  1  0
  8 11  1  0
 12 13  1  0
 12 14  1  0
 15 16  1  0
 15 17  1  0
 15 18  1  0
M  CHG  1   6  -1
M  END
>  <PDB_ID>  (466) 
pdb1ik6

>  <RESIDUE_NAME>  (466) 
GLU   ARG

>  <FRAG_NAME>  (466) 
ACET   PRPA

>  <FRAG_ATOM_NUM>  (466) 
fragi: 7  fragj: 11

>  <atom.prop.CHAIN_ID>  (466) 
A A A A A A A Z Z Z Z Z Z Z Z Z Z Z

>  <atom.prop.IS_HEAVY_ATOM>  (466) 
1 0 0 0 1 1 1 1 0 0 0 1 0 0 1 0 0 0

>  <DIFUSE_FUNC_ATOM>  (466) 
atom 6   atom 7   

>  <FINAL_SINGLE_POINT_ENERGY>  (466) 
0

>  <NONCOV_INTER_ENERGY_QM>  (466) 
0

>  <FF_Energy>  (466) 
27.09

>  <QM_Energy>  (466) 
-1.51

>  <source>  (466) 
ACET_PRPA_04

>  <Index>  (466) 
22209

$$$$
ACET-pdb2im5-D-ASP-243:PRPA-pdb2im5-C-LYS-263
     RDKit          3D

 18 16  0  0  0  0  0  0  0  0999 V2000
   -0.0081    1.5152    0.0255 C   0  0  0  0  0  0  0  0  0  0  0  0
    0.8670    1.8463   -0.3063 H   0  0  0  0  0  0  0  0  0  0  0  0
   -0.1663    1.8205    0.9571 H   0  0  0  0  0  0  0  0  0  0  0  0
   -0.7885    1.9415   -0.6048 H   0  0  0  0  0  0  0  0  0  0  0  0
    0.0000    0.0000    0.0000 C   0  0  0  0  0  0  0  0  0  0  0  0
   -1.0989   -0.5932    0.0000 O   0  0  0  0  0  1  0  0  0  0  0  0
    1.0989   -0.6010    0.0000 O   0  0  0  0  0  0  0  0  0  0  0  0
   -2.0550   -2.4195   -4.1166 C   0  0  0  0  0  0  0  0  0  0  0  0
   -2.4196   -1.6006   -4.5610 H   0  0  0  0  0  0  0  0  0  0  0  0
   -2.7568   -3.1314   -4.1037 H   0  0  0  0  0  0  0  0  0  0  0  0
   -1.1965   -2.7775   -4.6848 H   0  0  0  0  0  0  0  0  0  0  0  0
   -1.6748   -2.0755   -2.6861 C   0  0  0  0  0  0  0  0  0  0  0  0
   -1.3783   -2.9005   -2.2215 H   0  0  0  0  0  0  0  0  0  0  0  0
   -0.9520   -1.3958   -2.6954 H   0  0  0  0  0  0  0  0  0  0  0  0
   -2.8703   -1.4965   -1.9228 C   0  0  0  0  0  0  0  0  0  0  0  0
   -2.5608   -1.2296   -0.9991 H   0  0  0  0  0  0  0  0  0  0  0  0
   -3.1809   -0.6615   -2.3986 H   0  0  0  0  0  0  0  0  0  0  0  0
   -3.7081   -2.1881   -1.8333 H   0  0  0  0  0  0  0  0  0  0  0  0
  1  5  1  0
  5  6  1  0
  5  7  2  0
  1  2  1  0
  1  3  1  0
  1  4  1  0
  8 12  1  0
 12 15  1  0
  8  9  1  0
  8 10  1  0
  8 11  1  0
 12 13  1  0
 12 14  1  0
 15 16  1  0
 15 17  1  0
 15 18  1  0
M  CHG  1   6  -1
M  END
>  <PDB_ID>  (467) 
pdb2im5

>  <RESIDUE_NAME>  (467) 
ASP   LYS

>  <FRAG_NAME>  (467) 
ACET   PRPA

>  <FRAG_ATOM_NUM>  (467) 
fragi: 7  fragj: 11

>  <atom.prop.CHAIN_ID>  (467) 
A A A A A A A Z Z Z Z Z Z Z Z Z Z Z

>  <atom.prop.IS_HEAVY_ATOM>  (467) 
1 0 0 0 1 1 1 1 0 0 0 1 0 0 1 0 0 0

>  <DIFUSE_FUNC_ATOM>  (467) 
atom 6   atom 7   

>  <FINAL_SINGLE_POINT_ENERGY>  (467) 
0

>  <NONCOV_INTER_ENERGY_QM>  (467) 
0

>  <FF_Energy>  (467) 
16.37

>  <QM_Energy>  (467) 
-1.37

>  <source>  (467) 
ACET_PRPA_04

>  <Index>  (467) 
22257

$$$$
ACET-pdb2j9w-B-ASP-207:PRPA-pdb2j9w-B-LYS-179
     RDKit          3D

 18 16  0  0  0  0  0  0  0  0999 V2000
   -0.0168    1.5375    0.0504 C   0  0  0  0  0  0  0  0  0  0  0  0
    0.6920    1.8747   -0.5571 H   0  0  0  0  0  0  0  0  0  0  0  0
    0.1613    1.8180    0.9854 H   0  0  0  0  0  0  0  0  0  0  0  0
   -0.9699    1.9638   -0.2625 H   0  0  0  0  0  0  0  0  0  0  0  0
    0.0000    0.0000    0.0000 C   0  0  0  0  0  0  0  0  0  0  0  0
   -1.0959   -0.6057   -0.0000 O   0  0  0  0  0  1  0  0  0  0  0  0
    1.0959   -0.5981    0.0000 O   0  0  0  0  0  0  0  0  0  0  0  0
    0.6996    1.9332    4.0248 C   0  0  0  0  0  0  0  0  0  0  0  0
   -0.0725    2.3807    4.4885 H   0  0  0  0  0  0  0  0  0  0  0  0
    0.9180    2.4549    3.1922 H   0  0  0  0  0  0  0  0  0  0  0  0
    1.5645    1.9708    4.6871 H   0  0  0  0  0  0  0  0  0  0  0  0
    0.2370    0.5327    3.5914 C   0  0  0  0  0  0  0  0  0  0  0  0
    0.9267    0.1308    3.0110 H   0  0  0  0  0  0  0  0  0  0  0  0
    0.0699   -0.0156    4.3941 H   0  0  0  0  0  0  0  0  0  0  0  0
   -1.0703    0.6608    2.7951 C   0  0  0  0  0  0  0  0  0  0  0  0
   -1.7692    1.0709    3.3951 H   0  0  0  0  0  0  0  0  0  0  0  0
   -0.9119    1.2855    2.0211 H   0  0  0  0  0  0  0  0  0  0  0  0
   -1.4678   -0.2743    2.4008 H   0  0  0  0  0  0  0  0  0  0  0  0
  1  5  1  0
  5  6  1  0
  5  7  2  0
  1  2  1  0
  1  3  1  0
  1  4  1  0
  8 12  1  0
 12 15  1  0
  8  9  1  0
  8 10  1  0
  8 11  1  0
 12 13  1  0
 12 14  1  0
 15 16  1  0
 15 17  1  0
 15 18  1  0
M  CHG  1   6  -1
M  END
>  <PDB_ID>  (468) 
pdb2j9w

>  <RESIDUE_NAME>  (468) 
ASP   LYS

>  <FRAG_NAME>  (468) 
ACET   PRPA

>  <FRAG_ATOM_NUM>  (468) 
fragi: 7  fragj: 11

>  <atom.prop.CHAIN_ID>  (468) 
A A A A A A A Z Z Z Z Z Z Z Z Z Z Z

>  <atom.prop.IS_HEAVY_ATOM>  (468) 
1 0 0 0 1 1 1 1 0 0 0 1 0 0 1 0 0 0

>  <DIFUSE_FUNC_ATOM>  (468) 
atom 6   atom 7   

>  <FINAL_SINGLE_POINT_ENERGY>  (468) 
0

>  <NONCOV_INTER_ENERGY_QM>  (468) 
0

>  <FF_Energy>  (468) 
23.34

>  <QM_Energy>  (468) 
2.8

>  <source>  (468) 
ACET_PRPA_04

>  <Index>  (468) 
22662

$$$$
ACET-pdb1ilw-A-GLU-164:PRPA-pdb1ilw-A-GLU-161
     RDKit          3D

 18 16  0  0  0  0  0  0  0  0999 V2000
    0.0188    1.5192   -0.0131 C   0  0  0  0  0  0  0  0  0  0  0  0
    0.4257    1.8148    0.8237 H   0  0  0  0  0  0  0  0  0  0  0  0
   -0.9037    1.8225   -0.1236 H   0  0  0  0  0  0  0  0  0  0  0  0
    0.6145    1.8959   -0.8446 H   0  0  0  0  0  0  0  0  0  0  0  0
    0.0000    0.0000    0.0000 C   0  0  0  0  0  0  0  0  0  0  0  0
   -1.1031   -0.5753   -0.0000 O   0  0  0  0  0  1  0  0  0  0  0  0
    1.1031   -0.5923    0.0000 O   0  0  0  0  0  0  0  0  0  0  0  0
   -2.7087   -0.6480   -2.2649 C   0  0  0  0  0  0  0  0  0  0  0  0
   -1.8735   -0.6675   -1.7073 H   0  0  0  0  0  0  0  0  0  0  0  0
   -3.5442   -0.2875   -1.6649 H   0  0  0  0  0  0  0  0  0  0  0  0
   -2.5540    0.0016   -3.1264 H   0  0  0  0  0  0  0  0  0  0  0  0
   -2.9425   -2.0948   -2.6923 C   0  0  0  0  0  0  0  0  0  0  0  0
   -3.5118   -2.0836   -3.4916 H   0  0  0  0  0  0  0  0  0  0  0  0
   -2.0677   -2.5057   -2.8576 H   0  0  0  0  0  0  0  0  0  0  0  0
   -3.6497   -2.9267   -1.6337 C   0  0  0  0  0  0  0  0  0  0  0  0
   -4.2675   -2.3354   -1.1403 H   0  0  0  0  0  0  0  0  0  0  0  0
   -4.1351   -3.6572   -2.0885 H   0  0  0  0  0  0  0  0  0  0  0  0
   -2.9761   -3.3806   -0.9068 H   0  0  0  0  0  0  0  0  0  0  0  0
  1  5  1  0
  5  6  1  0
  5  7  2  0
  1  2  1  0
  1  3  1  0
  1  4  1  0
  8 12  1  0
 12 15  1  0
  8  9  1  0
  8 10  1  0
  8 11  1  0
 12 13  1  0
 12 14  1  0
 15 16  1  0
 15 17  1  0
 15 18  1  0
M  CHG  1   6  -1
M  END
>  <PDB_ID>  (469) 
pdb1ilw

>  <RESIDUE_NAME>  (469) 
GLU   GLU

>  <FRAG_NAME>  (469) 
ACET   PRPA

>  <FRAG_ATOM_NUM>  (469) 
fragi: 7  fragj: 11

>  <atom.prop.CHAIN_ID>  (469) 
A A A A A A A Z Z Z Z Z Z Z Z Z Z Z

>  <atom.prop.IS_HEAVY_ATOM>  (469) 
1 0 0 0 1 1 1 1 0 0 0 1 0 0 1 0 0 0

>  <DIFUSE_FUNC_ATOM>  (469) 
atom 6   atom 7   

>  <FINAL_SINGLE_POINT_ENERGY>  (469) 
0

>  <NONCOV_INTER_ENERGY_QM>  (469) 
0

>  <FF_Energy>  (469) 
17.57

>  <QM_Energy>  (469) 
0.64

>  <source>  (469) 
ACET_PRPA_04

>  <Index>  (469) 
23422

$$$$
ACET-pdb2jc6-A-GLU-69:PRPA-pdb2jc6-A-ILE-66
     RDKit          3D

 18 16  0  0  0  0  0  0  0  0999 V2000
    0.1718    1.4818    0.0144 C   0  0  0  0  0  0  0  0  0  0  0  0
    0.6919    1.7391   -0.8024 H   0  0  0  0  0  0  0  0  0  0  0  0
    0.7037    1.7209    0.8295 H   0  0  0  0  0  0  0  0  0  0  0  0
   -0.7380    2.0821    0.0264 H   0  0  0  0  0  0  0  0  0  0  0  0
    0.0000    0.0000    0.0000 C   0  0  0  0  0  0  0  0  0  0  0  0
   -1.0895   -0.5596   -0.0000 O   0  0  0  0  0  1  0  0  0  0  0  0
    1.0895   -0.6084    0.0000 O   0  0  0  0  0  0  0  0  0  0  0  0
    3.2749   -0.5837   -0.9746 C   0  0  0  0  0  0  0  0  0  0  0  0
    4.1525   -0.4456   -1.4229 H   0  0  0  0  0  0  0  0  0  0  0  0
    2.6268    0.2464   -1.2558 H   0  0  0  0  0  0  0  0  0  0  0  0
    3.4334   -0.5902    0.1038 H   0  0  0  0  0  0  0  0  0  0  0  0
    2.6915   -1.8957   -1.4527 C   0  0  0  0  0  0  0  0  0  0  0  0
    1.9528   -2.1634   -0.8379 H   0  0  0  0  0  0  0  0  0  0  0  0
    2.3162   -1.7628   -2.3681 H   0  0  0  0  0  0  0  0  0  0  0  0
    3.7090   -3.0098   -1.5054 C   0  0  0  0  0  0  0  0  0  0  0  0
    4.0862   -3.1604   -0.5925 H   0  0  0  0  0  0  0  0  0  0  0  0
    3.2690   -3.8478   -1.8268 H   0  0  0  0  0  0  0  0  0  0  0  0
    4.4454   -2.7590   -2.1336 H   0  0  0  0  0  0  0  0  0  0  0  0
  1  5  1  0
  5  6  1  0
  5  7  2  0
  1  2  1  0
  1  3  1  0
  1  4  1  0
  8 12  1  0
 12 15  1  0
  8  9  1  0
  8 10  1  0
  8 11  1  0
 12 13  1  0
 12 14  1  0
 15 16  1  0
 15 17  1  0
 15 18  1  0
M  CHG  1   6  -1
M  END
>  <PDB_ID>  (470) 
pdb2jc6

>  <RESIDUE_NAME>  (470) 
GLU   ILE

>  <FRAG_NAME>  (470) 
ACET   PRPA

>  <FRAG_ATOM_NUM>  (470) 
fragi: 7  fragj: 11

>  <atom.prop.CHAIN_ID>  (470) 
A A A A A A A Z Z Z Z Z Z Z Z Z Z Z

>  <atom.prop.IS_HEAVY_ATOM>  (470) 
1 0 0 0 1 1 1 1 0 0 0 1 0 0 1 0 0 0

>  <DIFUSE_FUNC_ATOM>  (470) 
atom 6   atom 7   

>  <FINAL_SINGLE_POINT_ENERGY>  (470) 
0

>  <NONCOV_INTER_ENERGY_QM>  (470) 
0

>  <FF_Energy>  (470) 
38.64

>  <QM_Energy>  (470) 
10.08

>  <source>  (470) 
ACET_PRPA_04

>  <Index>  (470) 
23813

$$$$
ACET-pdb1io1-A-ASP-217:PRPA-pdb1io1-A-LYS-232
     RDKit          3D

 18 16  0  0  0  0  0  0  0  0999 V2000
    0.0377    1.4975   -0.0991 C   0  0  0  0  0  0  0  0  0  0  0  0
    0.8769    1.7757   -0.5598 H   0  0  0  0  0  0  0  0  0  0  0  0
    0.0078    1.8893    0.8164 H   0  0  0  0  0  0  0  0  0  0  0  0
   -0.7978    1.9151   -0.6611 H   0  0  0  0  0  0  0  0  0  0  0  0
    0.0000    0.0000    0.0000 C   0  0  0  0  0  0  0  0  0  0  0  0
   -1.1425   -0.5614   -0.0000 O   0  0  0  0  0  1  0  0  0  0  0  0
    1.1425   -0.5502    0.0000 O   0  0  0  0  0  0  0  0  0  0  0  0
    3.6704    1.4075   -1.7178 C   0  0  0  0  0  0  0  0  0  0  0  0
    3.4546    0.4252   -1.7634 H   0  0  0  0  0  0  0  0  0  0  0  0
    4.6540    1.5262   -1.8905 H   0  0  0  0  0  0  0  0  0  0  0  0
    3.1111    1.9258   -2.4968 H   0  0  0  0  0  0  0  0  0  0  0  0
    3.3698    1.9020   -0.2718 C   0  0  0  0  0  0  0  0  0  0  0  0
    3.8659    2.7458   -0.1185 H   0  0  0  0  0  0  0  0  0  0  0  0
    2.3937    2.0416   -0.1827 H   0  0  0  0  0  0  0  0  0  0  0  0
    3.8136    0.8723    0.8096 C   0  0  0  0  0  0  0  0  0  0  0  0
    4.0199   -0.0128    0.3387 H   0  0  0  0  0  0  0  0  0  0  0  0
    4.7019    1.1904    1.2056 H   0  0  0  0  0  0  0  0  0  0  0  0
    3.1318    0.6651    1.6344 H   0  0  0  0  0  0  0  0  0  0  0  0
  1  5  1  0
  5  6  1  0
  5  7  2  0
  1  2  1  0
  1  3  1  0
  1  4  1  0
  8 12  1  0
 12 15  1  0
  8  9  1  0
  8 10  1  0
  8 11  1  0
 12 13  1  0
 12 14  1  0
 15 16  1  0
 15 17  1  0
 15 18  1  0
M  CHG  1   6  -1
M  END
>  <PDB_ID>  (471) 
pdb1io1

>  <RESIDUE_NAME>  (471) 
ASP   LYS

>  <FRAG_NAME>  (471) 
ACET   PRPA

>  <FRAG_ATOM_NUM>  (471) 
fragi: 7  fragj: 11

>  <atom.prop.CHAIN_ID>  (471) 
A A A A A A A Z Z Z Z Z Z Z Z Z Z Z

>  <atom.prop.IS_HEAVY_ATOM>  (471) 
1 0 0 0 1 1 1 1 0 0 0 1 0 0 1 0 0 0

>  <DIFUSE_FUNC_ATOM>  (471) 
atom 6   atom 7   

>  <FINAL_SINGLE_POINT_ENERGY>  (471) 
0

>  <NONCOV_INTER_ENERGY_QM>  (471) 
0

>  <FF_Energy>  (471) 
17.59

>  <QM_Energy>  (471) 
0.12

>  <source>  (471) 
ACET_PRPA_04

>  <Index>  (471) 
24686

$$$$
ACET-pdb1i4k-G-ASP-7:PRPA-pdb1i4k-G-ARG-4
     RDKit          3D

 18 16  0  0  0  0  0  0  0  0999 V2000
   -0.0220    1.5226    0.0218 C   0  0  0  0  0  0  0  0  0  0  0  0
    0.8618    1.8570   -0.2744 H   0  0  0  0  0  0  0  0  0  0  0  0
   -0.2239    1.8246    0.9432 H   0  0  0  0  0  0  0  0  0  0  0  0
   -0.7800    1.9355   -0.6438 H   0  0  0  0  0  0  0  0  0  0  0  0
    0.0000    0.0000    0.0000 C   0  0  0  0  0  0  0  0  0  0  0  0
   -1.0952   -0.5975   -0.0000 O   0  0  0  0  0  1  0  0  0  0  0  0
    1.0952   -0.6024    0.0000 O   0  0  0  0  0  0  0  0  0  0  0  0
    3.8059    1.0941   -2.0979 C   0  0  0  0  0  0  0  0  0  0  0  0
    4.5516    0.8600   -2.7588 H   0  0  0  0  0  0  0  0  0  0  0  0
    4.2614    1.3586   -1.1436 H   0  0  0  0  0  0  0  0  0  0  0  0
    3.1887    1.8750   -2.5421 H   0  0  0  0  0  0  0  0  0  0  0  0
    2.9623   -0.1714   -1.9439 C   0  0  0  0  0  0  0  0  0  0  0  0
    2.5982   -0.1906   -1.0093 H   0  0  0  0  0  0  0  0  0  0  0  0
    2.1966   -0.1145   -2.5897 H   0  0  0  0  0  0  0  0  0  0  0  0
    3.6884   -1.4782   -2.1918 C   0  0  0  0  0  0  0  0  0  0  0  0
    3.1496   -2.2344   -1.8083 H   0  0  0  0  0  0  0  0  0  0  0  0
    3.7849   -1.6205   -3.1822 H   0  0  0  0  0  0  0  0  0  0  0  0
    4.6821   -1.5040   -1.7446 H   0  0  0  0  0  0  0  0  0  0  0  0
  1  5  1  0
  5  6  1  0
  5  7  2  0
  1  2  1  0
  1  3  1  0
  1  4  1  0
  8 12  1  0
 12 15  1  0
  8  9  1  0
  8 10  1  0
  8 11  1  0
 12 13  1  0
 12 14  1  0
 15 16  1  0
 15 17  1  0
 15 18  1  0
M  CHG  1   6  -1
M  END
>  <PDB_ID>  (472) 
pdb1i4k

>  <RESIDUE_NAME>  (472) 
ASP   ARG

>  <FRAG_NAME>  (472) 
ACET   PRPA

>  <FRAG_ATOM_NUM>  (472) 
fragi: 7  fragj: 11

>  <atom.prop.CHAIN_ID>  (472) 
A A A A A A A Z Z Z Z Z Z Z Z Z Z Z

>  <atom.prop.IS_HEAVY_ATOM>  (472) 
1 0 0 0 1 1 1 1 0 0 0 1 0 0 1 0 0 0

>  <DIFUSE_FUNC_ATOM>  (472) 
atom 6   atom 7   

>  <FINAL_SINGLE_POINT_ENERGY>  (472) 
0

>  <NONCOV_INTER_ENERGY_QM>  (472) 
0

>  <FF_Energy>  (472) 
21.97

>  <QM_Energy>  (472) 
0.82

>  <source>  (472) 
ACET_PRPA_04

>  <Index>  (472) 
25438

$$$$
ACET-pdb1i4k-G-ASP-7:PRPA-pdb1i4k-G-ARG-4
     RDKit          3D

 18 16  0  0  0  0  0  0  0  0999 V2000
   -0.0220    1.5226    0.0218 C   0  0  0  0  0  0  0  0  0  0  0  0
    0.8618    1.8570   -0.2744 H   0  0  0  0  0  0  0  0  0  0  0  0
   -0.2239    1.8246    0.9432 H   0  0  0  0  0  0  0  0  0  0  0  0
   -0.7800    1.9355   -0.6438 H   0  0  0  0  0  0  0  0  0  0  0  0
    0.0000    0.0000    0.0000 C   0  0  0  0  0  0  0  0  0  0  0  0
   -1.0952   -0.5975   -0.0000 O   0  0  0  0  0  1  0  0  0  0  0  0
    1.0952   -0.6024    0.0000 O   0  0  0  0  0  0  0  0  0  0  0  0
    2.9623   -0.1714   -1.9439 C   0  0  0  0  0  0  0  0  0  0  0  0
    2.5982   -0.1906   -1.0093 H   0  0  0  0  0  0  0  0  0  0  0  0
    2.1966   -0.1145   -2.5897 H   0  0  0  0  0  0  0  0  0  0  0  0
    3.5639    0.7309   -2.0537 H   0  0  0  0  0  0  0  0  0  0  0  0
    3.6884   -1.4782   -2.1918 C   0  0  0  0  0  0  0  0  0  0  0  0
    3.1496   -2.2344   -1.8083 H   0  0  0  0  0  0  0  0  0  0  0  0
    3.7849   -1.6205   -3.1822 H   0  0  0  0  0  0  0  0  0  0  0  0
    5.0611   -1.5138   -1.5741 C   0  0  0  0  0  0  0  0  0  0  0  0
    5.3562   -0.5880   -1.4108 H   0  0  0  0  0  0  0  0  0  0  0  0
    5.0155   -2.0373   -0.7398 H   0  0  0  0  0  0  0  0  0  0  0  0
    5.7470   -1.9969   -2.2701 H   0  0  0  0  0  0  0  0  0  0  0  0
  1  5  1  0
  5  6  1  0
  5  7  2  0
  1  2  1  0
  1  3  1  0
  1  4  1  0
  8 12  1  0
 12 15  1  0
  8  9  1  0
  8 10  1  0
  8 11  1  0
 12 13  1  0
 12 14  1  0
 15 16  1  0
 15 17  1  0
 15 18  1  0
M  CHG  1   6  -1
M  END
>  <PDB_ID>  (473) 
pdb1i4k

>  <RESIDUE_NAME>  (473) 
ASP   ARG

>  <FRAG_NAME>  (473) 
ACET   PRPA

>  <FRAG_ATOM_NUM>  (473) 
fragi: 7  fragj: 11

>  <atom.prop.CHAIN_ID>  (473) 
A A A A A A A Z Z Z Z Z Z Z Z Z Z Z

>  <atom.prop.IS_HEAVY_ATOM>  (473) 
1 0 0 0 1 1 1 1 0 0 0 1 0 0 1 0 0 0

>  <DIFUSE_FUNC_ATOM>  (473) 
atom 6   atom 7   

>  <FINAL_SINGLE_POINT_ENERGY>  (473) 
0

>  <NONCOV_INTER_ENERGY_QM>  (473) 
0

>  <FF_Energy>  (473) 
19.8

>  <QM_Energy>  (473) 
0.67

>  <source>  (473) 
ACET_PRPA_04

>  <Index>  (473) 
25451

$$$$
ACET-pdb2jlh-A-GLU-277:PRPA-pdb2jlh-A-LYS-274
     RDKit          3D

 18 16  0  0  0  0  0  0  0  0999 V2000
    0.2055    1.4933    0.0137 C   0  0  0  0  0  0  0  0  0  0  0  0
    0.7193    1.7350   -0.8037 H   0  0  0  0  0  0  0  0  0  0  0  0
    0.7302    1.7171    0.8288 H   0  0  0  0  0  0  0  0  0  0  0  0
   -0.7058    2.0913    0.0252 H   0  0  0  0  0  0  0  0  0  0  0  0
    0.0000    0.0000    0.0000 C   0  0  0  0  0  0  0  0  0  0  0  0
   -1.0878   -0.5443   -0.0000 O   0  0  0  0  0  1  0  0  0  0  0  0
    1.0878   -0.6191   -0.0000 O   0  0  0  0  0  0  0  0  0  0  0  0
   -3.5855   -1.3745   -0.4505 C   0  0  0  0  0  0  0  0  0  0  0  0
   -3.7873   -2.2935   -0.0971 H   0  0  0  0  0  0  0  0  0  0  0  0
   -4.4401   -0.9606   -0.7776 H   0  0  0  0  0  0  0  0  0  0  0  0
   -3.1911   -0.7662    0.3635 H   0  0  0  0  0  0  0  0  0  0  0  0
   -2.6180   -1.4899   -1.6068 C   0  0  0  0  0  0  0  0  0  0  0  0
   -2.4195   -0.5693   -1.9539 H   0  0  0  0  0  0  0  0  0  0  0  0
   -1.7658   -1.9032   -1.2738 H   0  0  0  0  0  0  0  0  0  0  0  0
   -3.1509   -2.3275   -2.7394 C   0  0  0  0  0  0  0  0  0  0  0  0
   -3.3455   -3.2514   -2.4038 H   0  0  0  0  0  0  0  0  0  0  0  0
   -3.9989   -1.9192   -3.0837 H   0  0  0  0  0  0  0  0  0  0  0  0
   -2.4288   -2.3885   -3.5536 H   0  0  0  0  0  0  0  0  0  0  0  0
  1  5  1  0
  5  6  1  0
  5  7  2  0
  1  2  1  0
  1  3  1  0
  1  4  1  0
  8 12  1  0
 12 15  1  0
  8  9  1  0
  8 10  1  0
  8 11  1  0
 12 13  1  0
 12 14  1  0
 15 16  1  0
 15 17  1  0
 15 18  1  0
M  CHG  1   6  -1
M  END
>  <PDB_ID>  (474) 
pdb2jlh

>  <RESIDUE_NAME>  (474) 
GLU   LYS

>  <FRAG_NAME>  (474) 
ACET   PRPA

>  <FRAG_ATOM_NUM>  (474) 
fragi: 7  fragj: 11

>  <atom.prop.CHAIN_ID>  (474) 
A A A A A A A Z Z Z Z Z Z Z Z Z Z Z

>  <atom.prop.IS_HEAVY_ATOM>  (474) 
1 0 0 0 1 1 1 1 0 0 0 1 0 0 1 0 0 0

>  <DIFUSE_FUNC_ATOM>  (474) 
atom 6   atom 7   

>  <FINAL_SINGLE_POINT_ENERGY>  (474) 
0

>  <NONCOV_INTER_ENERGY_QM>  (474) 
0

>  <FF_Energy>  (474) 
28.74

>  <QM_Energy>  (474) 
6.72

>  <source>  (474) 
ACET_PRPA_04

>  <Index>  (474) 
26467

$$$$
ACET-pdb1iw2-A-GLU-51:PRPA-pdb1iw2-A-LEU-72
     RDKit          3D

 18 16  0  0  0  0  0  0  0  0999 V2000
    0.0031    1.5192    0.0148 C   0  0  0  0  0  0  0  0  0  0  0  0
    0.8398    1.8174   -0.4056 H   0  0  0  0  0  0  0  0  0  0  0  0
   -0.0663    1.8052    0.9526 H   0  0  0  0  0  0  0  0  0  0  0  0
   -0.8315    1.9476   -0.5401 H   0  0  0  0  0  0  0  0  0  0  0  0
    0.0000    0.0000    0.0000 C   0  0  0  0  0  0  0  0  0  0  0  0
   -1.0994   -0.5936   -0.0000 O   0  0  0  0  0  1  0  0  0  0  0  0
    1.0994   -0.5997   -0.0000 O   0  0  0  0  0  0  0  0  0  0  0  0
   -1.1140    1.2326    4.9819 C   0  0  0  0  0  0  0  0  0  0  0  0
   -1.5421    1.6169    5.8059 H   0  0  0  0  0  0  0  0  0  0  0  0
   -0.3953    0.5891    5.2626 H   0  0  0  0  0  0  0  0  0  0  0  0
   -1.8760    0.6661    4.4466 H   0  0  0  0  0  0  0  0  0  0  0  0
   -0.4251    2.3884    4.2520 C   0  0  0  0  0  0  0  0  0  0  0  0
   -1.1188    3.0085    3.9023 H   0  0  0  0  0  0  0  0  0  0  0  0
    0.2225    2.9172    4.9514 H   0  0  0  0  0  0  0  0  0  0  0  0
    0.3862    1.8567    3.0821 C   0  0  0  0  0  0  0  0  0  0  0  0
   -0.2188    1.3798    2.4427 H   0  0  0  0  0  0  0  0  0  0  0  0
    0.8336    2.6181    2.6099 H   0  0  0  0  0  0  0  0  0  0  0  0
    1.0815    1.2200    3.4179 H   0  0  0  0  0  0  0  0  0  0  0  0
  1  5  1  0
  5  6  1  0
  5  7  2  0
  1  2  1  0
  1  3  1  0
  1  4  1  0
  8 12  1  0
 12 15  1  0
  8  9  1  0
  8 10  1  0
  8 11  1  0
 12 13  1  0
 12 14  1  0
 15 16  1  0
 15 17  1  0
 15 18  1  0
M  CHG  1   6  -1
M  END
>  <PDB_ID>  (475) 
pdb1iw2

>  <RESIDUE_NAME>  (475) 
GLU   LEU

>  <FRAG_NAME>  (475) 
ACET   PRPA

>  <FRAG_ATOM_NUM>  (475) 
fragi: 7  fragj: 11

>  <atom.prop.CHAIN_ID>  (475) 
A A A A A A A Z Z Z Z Z Z Z Z Z Z Z

>  <atom.prop.IS_HEAVY_ATOM>  (475) 
1 0 0 0 1 1 1 1 0 0 0 1 0 0 1 0 0 0

>  <DIFUSE_FUNC_ATOM>  (475) 
atom 6   atom 7   

>  <FINAL_SINGLE_POINT_ENERGY>  (475) 
0

>  <NONCOV_INTER_ENERGY_QM>  (475) 
0

>  <FF_Energy>  (475) 
24.61

>  <QM_Energy>  (475) 
4.72

>  <source>  (475) 
ACET_PRPA_04

>  <Index>  (475) 
26473

$$$$
ACET-pdb1iw2-A-GLU-51:PRPA-pdb1iw2-A-LEU-72
     RDKit          3D

 18 16  0  0  0  0  0  0  0  0999 V2000
    0.0031    1.5192    0.0148 C   0  0  0  0  0  0  0  0  0  0  0  0
    0.8398    1.8174   -0.4056 H   0  0  0  0  0  0  0  0  0  0  0  0
   -0.0663    1.8052    0.9526 H   0  0  0  0  0  0  0  0  0  0  0  0
   -0.8315    1.9476   -0.5401 H   0  0  0  0  0  0  0  0  0  0  0  0
    0.0000    0.0000    0.0000 C   0  0  0  0  0  0  0  0  0  0  0  0
   -1.0994   -0.5936   -0.0000 O   0  0  0  0  0  1  0  0  0  0  0  0
    1.0994   -0.5997   -0.0000 O   0  0  0  0  0  0  0  0  0  0  0  0
    0.4748    3.1233    5.2239 C   0  0  0  0  0  0  0  0  0  0  0  0
    1.1669    2.4956    5.5844 H   0  0  0  0  0  0  0  0  0  0  0  0
    0.9302    3.8817    4.7550 H   0  0  0  0  0  0  0  0  0  0  0  0
   -0.0707    3.4838    5.9820 H   0  0  0  0  0  0  0  0  0  0  0  0
   -0.4251    2.3884    4.2520 C   0  0  0  0  0  0  0  0  0  0  0  0
   -1.1188    3.0085    3.9023 H   0  0  0  0  0  0  0  0  0  0  0  0
   -0.9156    1.5654    4.7718 H   0  0  0  0  0  0  0  0  0  0  0  0
    0.3862    1.8567    3.0821 C   0  0  0  0  0  0  0  0  0  0  0  0
   -0.2188    1.3798    2.4427 H   0  0  0  0  0  0  0  0  0  0  0  0
    0.8336    2.6181    2.6099 H   0  0  0  0  0  0  0  0  0  0  0  0
    1.0815    1.2200    3.4179 H   0  0  0  0  0  0  0  0  0  0  0  0
  1  5  1  0
  5  6  1  0
  5  7  2  0
  1  2  1  0
  1  3  1  0
  1  4  1  0
  8 12  1  0
 12 15  1  0
  8  9  1  0
  8 10  1  0
  8 11  1  0
 12 13  1  0
 12 14  1  0
 15 16  1  0
 15 17  1  0
 15 18  1  0
M  CHG  1   6  -1
M  END
>  <PDB_ID>  (476) 
pdb1iw2

>  <RESIDUE_NAME>  (476) 
GLU   LEU

>  <FRAG_NAME>  (476) 
ACET   PRPA

>  <FRAG_ATOM_NUM>  (476) 
fragi: 7  fragj: 11

>  <atom.prop.CHAIN_ID>  (476) 
A A A A A A A Z Z Z Z Z Z Z Z Z Z Z

>  <atom.prop.IS_HEAVY_ATOM>  (476) 
1 0 0 0 1 1 1 1 0 0 0 1 0 0 1 0 0 0

>  <DIFUSE_FUNC_ATOM>  (476) 
atom 6   atom 7   

>  <FINAL_SINGLE_POINT_ENERGY>  (476) 
0

>  <NONCOV_INTER_ENERGY_QM>  (476) 
0

>  <FF_Energy>  (476) 
24.39

>  <QM_Energy>  (476) 
4.87

>  <source>  (476) 
ACET_PRPA_04

>  <Index>  (476) 
26480

$$$$
ACET-pdb2lhb-A-ASP-69:PRPA-pdb2lhb-A-LYS-54
     RDKit          3D

 18 16  0  0  0  0  0  0  0  0999 V2000
    0.0020    1.5406    0.1029 C   0  0  0  0  0  0  0  0  0  0  0  0
   -0.9505    1.9060   -0.1771 H   0  0  0  0  0  0  0  0  0  0  0  0
    0.7155    1.9128   -0.5722 H   0  0  0  0  0  0  0  0  0  0  0  0
    0.2750    1.8088    1.1236 H   0  0  0  0  0  0  0  0  0  0  0  0
    0.0000    0.0000    0.0000 C   0  0  0  0  0  0  0  0  0  0  0  0
   -1.1119   -0.5274   -0.0000 O   0  0  0  0  0  1  0  0  0  0  0  0
    1.1119   -0.5664    0.0000 O   0  0  0  0  0  0  0  0  0  0  0  0
    2.1289    1.5006   -3.0189 C   0  0  0  0  0  0  0  0  0  0  0  0
    1.1497    1.8115   -2.6572 H   0  0  0  0  0  0  0  0  0  0  0  0
    2.1929    0.4303   -2.9229 H   0  0  0  0  0  0  0  0  0  0  0  0
    2.2870    1.8244   -4.0476 H   0  0  0  0  0  0  0  0  0  0  0  0
    3.2205    2.1232   -2.1361 C   0  0  0  0  0  0  0  0  0  0  0  0
    4.2023    1.7453   -2.4697 H   0  0  0  0  0  0  0  0  0  0  0  0
    3.2416    3.2171   -2.3213 H   0  0  0  0  0  0  0  0  0  0  0  0
    3.0930    1.8710   -0.6610 C   0  0  0  0  0  0  0  0  0  0  0  0
    2.1203    2.1833   -0.2813 H   0  0  0  0  0  0  0  0  0  0  0  0
    3.2322    0.8050   -0.4422 H   0  0  0  0  0  0  0  0  0  0  0  0
    3.8556    2.3993   -0.0889 H   0  0  0  0  0  0  0  0  0  0  0  0
  1  5  1  0
  5  6  1  0
  5  7  2  0
  1  2  1  0
  1  3  1  0
  1  4  1  0
  8 12  1  0
 12 15  1  0
  8  9  1  0
  8 10  1  0
  8 11  1  0
 12 13  1  0
 12 14  1  0
 15 16  1  0
 15 17  1  0
 15 18  1  0
M  CHG  1   6  -1
M  END
>  <PDB_ID>  (477) 
pdb2lhb

>  <RESIDUE_NAME>  (477) 
ASP   LYS

>  <FRAG_NAME>  (477) 
ACET   PRPA

>  <FRAG_ATOM_NUM>  (477) 
fragi: 7  fragj: 11

>  <atom.prop.CHAIN_ID>  (477) 
A A A A A A A Z Z Z Z Z Z Z Z Z Z Z

>  <atom.prop.IS_HEAVY_ATOM>  (477) 
1 0 0 0 1 1 1 1 0 0 0 1 0 0 1 0 0 0

>  <DIFUSE_FUNC_ATOM>  (477) 
atom 6   atom 7   

>  <FINAL_SINGLE_POINT_ENERGY>  (477) 
0

>  <NONCOV_INTER_ENERGY_QM>  (477) 
0

>  <FF_Energy>  (477) 
41.08

>  <QM_Energy>  (477) 
5.08

>  <source>  (477) 
ACET_PRPA_04

>  <Index>  (477) 
27069

$$$$
ACET-pdb1i4k-J-ASP-7:PRPA-pdb1i4k-J-ARG-4
     RDKit          3D

 18 16  0  0  0  0  0  0  0  0999 V2000
   -0.0058    1.5105    0.0131 C   0  0  0  0  0  0  0  0  0  0  0  0
    0.9119    1.8371   -0.1824 H   0  0  0  0  0  0  0  0  0  0  0  0
   -0.3035    1.8235    0.9068 H   0  0  0  0  0  0  0  0  0  0  0  0
   -0.6794    1.9311   -0.7335 H   0  0  0  0  0  0  0  0  0  0  0  0
    0.0000    0.0000    0.0000 C   0  0  0  0  0  0  0  0  0  0  0  0
   -1.0991   -0.5961   -0.0000 O   0  0  0  0  0  1  0  0  0  0  0  0
    1.0991   -0.5925    0.0000 O   0  0  0  0  0  0  0  0  0  0  0  0
    3.8930    0.0660   -2.2474 C   0  0  0  0  0  0  0  0  0  0  0  0
    4.5984   -0.2215   -2.9241 H   0  0  0  0  0  0  0  0  0  0  0  0
    4.3471    0.0795   -1.2566 H   0  0  0  0  0  0  0  0  0  0  0  0
    3.4888    1.0275   -2.5641 H   0  0  0  0  0  0  0  0  0  0  0  0
    2.7747   -0.9749   -2.2880 C   0  0  0  0  0  0  0  0  0  0  0  0
    2.2199   -0.8641   -1.4626 H   0  0  0  0  0  0  0  0  0  0  0  0
    2.2093   -0.7895   -3.0925 H   0  0  0  0  0  0  0  0  0  0  0  0
    3.2412   -2.4065   -2.3568 C   0  0  0  0  0  0  0  0  0  0  0  0
    3.9420   -2.5650   -1.6699 H   0  0  0  0  0  0  0  0  0  0  0  0
    2.4705   -3.0173   -2.2147 H   0  0  0  0  0  0  0  0  0  0  0  0
    3.6680   -2.6162   -3.3375 H   0  0  0  0  0  0  0  0  0  0  0  0
  1  5  1  0
  5  6  1  0
  5  7  2  0
  1  2  1  0
  1  3  1  0
  1  4  1  0
  8 12  1  0
 12 15  1  0
  8  9  1  0
  8 10  1  0
  8 11  1  0
 12 13  1  0
 12 14  1  0
 15 16  1  0
 15 17  1  0
 15 18  1  0
M  CHG  1   6  -1
M  END
>  <PDB_ID>  (478) 
pdb1i4k

>  <RESIDUE_NAME>  (478) 
ASP   ARG

>  <FRAG_NAME>  (478) 
ACET   PRPA

>  <FRAG_ATOM_NUM>  (478) 
fragi: 7  fragj: 11

>  <atom.prop.CHAIN_ID>  (478) 
A A A A A A A Z Z Z Z Z Z Z Z Z Z Z

>  <atom.prop.IS_HEAVY_ATOM>  (478) 
1 0 0 0 1 1 1 1 0 0 0 1 0 0 1 0 0 0

>  <DIFUSE_FUNC_ATOM>  (478) 
atom 6   atom 7   

>  <FINAL_SINGLE_POINT_ENERGY>  (478) 
0

>  <NONCOV_INTER_ENERGY_QM>  (478) 
0

>  <FF_Energy>  (478) 
20.14

>  <QM_Energy>  (478) 
-1.47

>  <source>  (478) 
ACET_PRPA_04

>  <Index>  (478) 
28037

$$$$
ACET-pdb1i4k-J-ASP-7:PRPA-pdb1i4k-J-ARG-4
     RDKit          3D

 18 16  0  0  0  0  0  0  0  0999 V2000
   -0.0058    1.5105    0.0131 C   0  0  0  0  0  0  0  0  0  0  0  0
    0.9119    1.8371   -0.1824 H   0  0  0  0  0  0  0  0  0  0  0  0
   -0.3035    1.8235    0.9068 H   0  0  0  0  0  0  0  0  0  0  0  0
   -0.6794    1.9311   -0.7335 H   0  0  0  0  0  0  0  0  0  0  0  0
    0.0000    0.0000    0.0000 C   0  0  0  0  0  0  0  0  0  0  0  0
   -1.0991   -0.5961   -0.0000 O   0  0  0  0  0  1  0  0  0  0  0  0
    1.0991   -0.5925    0.0000 O   0  0  0  0  0  0  0  0  0  0  0  0
    2.7747   -0.9749   -2.2880 C   0  0  0  0  0  0  0  0  0  0  0  0
    2.2199   -0.8641   -1.4626 H   0  0  0  0  0  0  0  0  0  0  0  0
    2.2093   -0.7895   -3.0925 H   0  0  0  0  0  0  0  0  0  0  0  0
    3.5723   -0.2325   -2.2590 H   0  0  0  0  0  0  0  0  0  0  0  0
    3.2412   -2.4065   -2.3568 C   0  0  0  0  0  0  0  0  0  0  0  0
    3.9420   -2.5650   -1.6699 H   0  0  0  0  0  0  0  0  0  0  0  0
    2.4705   -3.0173   -2.2147 H   0  0  0  0  0  0  0  0  0  0  0  0
    3.8321   -2.6969   -3.7147 C   0  0  0  0  0  0  0  0  0  0  0  0
    3.2683   -2.2496   -4.4036 H   0  0  0  0  0  0  0  0  0  0  0  0
    4.7577   -2.3284   -3.7376 H   0  0  0  0  0  0  0  0  0  0  0  0
    3.8657   -3.7676   -3.9167 H   0  0  0  0  0  0  0  0  0  0  0  0
  1  5  1  0
  5  6  1  0
  5  7  2  0
  1  2  1  0
  1  3  1  0
  1  4  1  0
  8 12  1  0
 12 15  1  0
  8  9  1  0
  8 10  1  0
  8 11  1  0
 12 13  1  0
 12 14  1  0
 15 16  1  0
 15 17  1  0
 15 18  1  0
M  CHG  1   6  -1
M  END
>  <PDB_ID>  (479) 
pdb1i4k

>  <RESIDUE_NAME>  (479) 
ASP   ARG

>  <FRAG_NAME>  (479) 
ACET   PRPA

>  <FRAG_ATOM_NUM>  (479) 
fragi: 7  fragj: 11

>  <atom.prop.CHAIN_ID>  (479) 
A A A A A A A Z Z Z Z Z Z Z Z Z Z Z

>  <atom.prop.IS_HEAVY_ATOM>  (479) 
1 0 0 0 1 1 1 1 0 0 0 1 0 0 1 0 0 0

>  <DIFUSE_FUNC_ATOM>  (479) 
atom 6   atom 7   

>  <FINAL_SINGLE_POINT_ENERGY>  (479) 
0

>  <NONCOV_INTER_ENERGY_QM>  (479) 
0

>  <FF_Energy>  (479) 
17.02

>  <QM_Energy>  (479) 
-0.86

>  <source>  (479) 
ACET_PRPA_04

>  <Index>  (479) 
28039

$$$$
ACET-pdb1ixl-A-GLU-65:PRPA-pdb1ixl-A-VAL-123
     RDKit          3D

 18 16  0  0  0  0  0  0  0  0999 V2000
   -0.0066    1.5101    0.0084 C   0  0  0  0  0  0  0  0  0  0  0  0
   -0.7514    1.8006   -0.5701 H   0  0  0  0  0  0  0  0  0  0  0  0
    0.8654    1.8056   -0.3455 H   0  0  0  0  0  0  0  0  0  0  0  0
   -0.1477    1.9210    1.0081 H   0  0  0  0  0  0  0  0  0  0  0  0
    0.0000    0.0000    0.0000 C   0  0  0  0  0  0  0  0  0  0  0  0
   -1.1058   -0.5929   -0.0000 O   0  0  0  0  0  1  0  0  0  0  0  0
    1.1058   -0.5883   -0.0000 O   0  0  0  0  0  0  0  0  0  0  0  0
   -4.5928    4.4067   -0.6472 C   0  0  0  0  0  0  0  0  0  0  0  0
   -4.0153    4.9624   -0.0833 H   0  0  0  0  0  0  0  0  0  0  0  0
   -5.5976    4.3971   -0.2248 H   0  0  0  0  0  0  0  0  0  0  0  0
   -4.7214    4.9202   -1.6000 H   0  0  0  0  0  0  0  0  0  0  0  0
   -4.0920    2.9731   -0.8537 C   0  0  0  0  0  0  0  0  0  0  0  0
   -4.7120    2.5218   -1.4880 H   0  0  0  0  0  0  0  0  0  0  0  0
   -4.0565    2.4652    0.1101 H   0  0  0  0  0  0  0  0  0  0  0  0
   -2.7218    2.9832   -1.5028 C   0  0  0  0  0  0  0  0  0  0  0  0
   -2.0824    2.4485   -0.9488 H   0  0  0  0  0  0  0  0  0  0  0  0
   -2.7797    2.5832   -2.4183 H   0  0  0  0  0  0  0  0  0  0  0  0
   -2.3901    3.9250   -1.5737 H   0  0  0  0  0  0  0  0  0  0  0  0
  1  5  1  0
  5  6  1  0
  5  7  2  0
  1  2  1  0
  1  3  1  0
  1  4  1  0
  8 12  1  0
 12 15  1  0
  8  9  1  0
  8 10  1  0
  8 11  1  0
 12 13  1  0
 12 14  1  0
 15 16  1  0
 15 17  1  0
 15 18  1  0
M  CHG  1   6  -1
M  END
>  <PDB_ID>  (480) 
pdb1ixl

>  <RESIDUE_NAME>  (480) 
GLU   VAL

>  <FRAG_NAME>  (480) 
ACET   PRPA

>  <FRAG_ATOM_NUM>  (480) 
fragi: 7  fragj: 11

>  <atom.prop.CHAIN_ID>  (480) 
A A A A A A A Z Z Z Z Z Z Z Z Z Z Z

>  <atom.prop.IS_HEAVY_ATOM>  (480) 
1 0 0 0 1 1 1 1 0 0 0 1 0 0 1 0 0 0

>  <DIFUSE_FUNC_ATOM>  (480) 
atom 6   atom 7   

>  <FINAL_SINGLE_POINT_ENERGY>  (480) 
0

>  <NONCOV_INTER_ENERGY_QM>  (480) 
0

>  <FF_Energy>  (480) 
20.87

>  <QM_Energy>  (480) 
2.59

>  <source>  (480) 
ACET_PRPA_04

>  <Index>  (480) 
28853

$$$$
ACET-pdb1iv1-A-GLU-13:PRPA-pdb1iv1-A-LEU-32
     RDKit          3D

 18 16  0  0  0  0  0  0  0  0999 V2000
   -0.0186    1.5138    0.0003 C   0  0  0  0  0  0  0  0  0  0  0  0
    0.2077    1.8181   -0.8998 H   0  0  0  0  0  0  0  0  0  0  0  0
    0.6080    1.8224    0.6829 H   0  0  0  0  0  0  0  0  0  0  0  0
   -1.0072    1.9000    0.2487 H   0  0  0  0  0  0  0  0  0  0  0  0
    0.0000    0.0000    0.0000 C   0  0  0  0  0  0  0  0  0  0  0  0
   -1.0988   -0.5939   -0.0000 O   0  0  0  0  0  1  0  0  0  0  0  0
    1.0988   -0.5995    0.0000 O   0  0  0  0  0  0  0  0  0  0  0  0
   -3.9756   -0.8447   -0.7100 C   0  0  0  0  0  0  0  0  0  0  0  0
   -3.3974   -0.0491   -0.6160 H   0  0  0  0  0  0  0  0  0  0  0  0
   -3.9661   -1.3977    0.1071 H   0  0  0  0  0  0  0  0  0  0  0  0
   -4.9972   -0.5062   -0.8826 H   0  0  0  0  0  0  0  0  0  0  0  0
   -3.3899   -1.7003   -1.8468 C   0  0  0  0  0  0  0  0  0  0  0  0
   -4.1278   -2.2354   -2.2577 H   0  0  0  0  0  0  0  0  0  0  0  0
   -2.9295   -1.0687   -2.6064 H   0  0  0  0  0  0  0  0  0  0  0  0
   -2.4044   -2.7139   -1.2926 C   0  0  0  0  0  0  0  0  0  0  0  0
   -2.8706   -3.3147   -0.6412 H   0  0  0  0  0  0  0  0  0  0  0  0
   -2.0312   -3.2636   -2.0414 H   0  0  0  0  0  0  0  0  0  0  0  0
   -1.6577   -2.2364   -0.8270 H   0  0  0  0  0  0  0  0  0  0  0  0
  1  5  1  0
  5  6  1  0
  5  7  2  0
  1  2  1  0
  1  3  1  0
  1  4  1  0
  8 12  1  0
 12 15  1  0
  8  9  1  0
  8 10  1  0
  8 11  1  0
 12 13  1  0
 12 14  1  0
 15 16  1  0
 15 17  1  0
 15 18  1  0
M  CHG  1   6  -1
M  END
>  <PDB_ID>  (481) 
pdb1iv1

>  <RESIDUE_NAME>  (481) 
GLU   LEU

>  <FRAG_NAME>  (481) 
ACET   PRPA

>  <FRAG_ATOM_NUM>  (481) 
fragi: 7  fragj: 11

>  <atom.prop.CHAIN_ID>  (481) 
A A A A A A A Z Z Z Z Z Z Z Z Z Z Z

>  <atom.prop.IS_HEAVY_ATOM>  (481) 
1 0 0 0 1 1 1 1 0 0 0 1 0 0 1 0 0 0

>  <DIFUSE_FUNC_ATOM>  (481) 
atom 6   atom 7   

>  <FINAL_SINGLE_POINT_ENERGY>  (481) 
0

>  <NONCOV_INTER_ENERGY_QM>  (481) 
0

>  <FF_Energy>  (481) 
14.82

>  <QM_Energy>  (481) 
-1.65

>  <source>  (481) 
ACET_PRPA_04

>  <Index>  (481) 
29837

$$$$
ACET-pdb1iv1-A-GLU-13:PRPA-pdb1iv1-A-LEU-32
     RDKit          3D

 18 16  0  0  0  0  0  0  0  0999 V2000
   -0.0186    1.5138    0.0003 C   0  0  0  0  0  0  0  0  0  0  0  0
    0.2077    1.8181   -0.8998 H   0  0  0  0  0  0  0  0  0  0  0  0
    0.6080    1.8224    0.6829 H   0  0  0  0  0  0  0  0  0  0  0  0
   -1.0072    1.9000    0.2487 H   0  0  0  0  0  0  0  0  0  0  0  0
    0.0000    0.0000    0.0000 C   0  0  0  0  0  0  0  0  0  0  0  0
   -1.0988   -0.5939   -0.0000 O   0  0  0  0  0  1  0  0  0  0  0  0
    1.0988   -0.5995    0.0000 O   0  0  0  0  0  0  0  0  0  0  0  0
   -2.7480   -0.8197   -2.9059 C   0  0  0  0  0  0  0  0  0  0  0  0
   -2.0113   -0.2827   -2.4940 H   0  0  0  0  0  0  0  0  0  0  0  0
   -2.3732   -1.3924   -3.6366 H   0  0  0  0  0  0  0  0  0  0  0  0
   -3.4345   -0.2013   -3.2891 H   0  0  0  0  0  0  0  0  0  0  0  0
   -3.3899   -1.7003   -1.8468 C   0  0  0  0  0  0  0  0  0  0  0  0
   -4.1278   -2.2354   -2.2577 H   0  0  0  0  0  0  0  0  0  0  0  0
   -3.8048   -1.0941   -1.0415 H   0  0  0  0  0  0  0  0  0  0  0  0
   -2.4044   -2.7139   -1.2926 C   0  0  0  0  0  0  0  0  0  0  0  0
   -2.8706   -3.3147   -0.6412 H   0  0  0  0  0  0  0  0  0  0  0  0
   -2.0312   -3.2636   -2.0414 H   0  0  0  0  0  0  0  0  0  0  0  0
   -1.6577   -2.2364   -0.8270 H   0  0  0  0  0  0  0  0  0  0  0  0
  1  5  1  0
  5  6  1  0
  5  7  2  0
  1  2  1  0
  1  3  1  0
  1  4  1  0
  8 12  1  0
 12 15  1  0
  8  9  1  0
  8 10  1  0
  8 11  1  0
 12 13  1  0
 12 14  1  0
 15 16  1  0
 15 17  1  0
 15 18  1  0
M  CHG  1   6  -1
M  END
>  <PDB_ID>  (482) 
pdb1iv1

>  <RESIDUE_NAME>  (482) 
GLU   LEU

>  <FRAG_NAME>  (482) 
ACET   PRPA

>  <FRAG_ATOM_NUM>  (482) 
fragi: 7  fragj: 11

>  <atom.prop.CHAIN_ID>  (482) 
A A A A A A A Z Z Z Z Z Z Z Z Z Z Z

>  <atom.prop.IS_HEAVY_ATOM>  (482) 
1 0 0 0 1 1 1 1 0 0 0 1 0 0 1 0 0 0

>  <DIFUSE_FUNC_ATOM>  (482) 
atom 6   atom 7   

>  <FINAL_SINGLE_POINT_ENERGY>  (482) 
0

>  <NONCOV_INTER_ENERGY_QM>  (482) 
0

>  <FF_Energy>  (482) 
13.3

>  <QM_Energy>  (482) 
-1.98

>  <source>  (482) 
ACET_PRPA_04

>  <Index>  (482) 
29841

$$$$
ACET-pdb2iwm-D-GLU-27:PRPA-pdb2iwm-D-ARG-324
     RDKit          3D

 18 16  0  0  0  0  0  0  0  0999 V2000
    0.0044    1.5204   -0.0054 C   0  0  0  0  0  0  0  0  0  0  0  0
    0.6318    1.8149    0.6816 H   0  0  0  0  0  0  0  0  0  0  0  0
   -0.9118    1.8177    0.1525 H   0  0  0  0  0  0  0  0  0  0  0  0
    0.3362    1.9088   -0.9683 H   0  0  0  0  0  0  0  0  0  0  0  0
    0.0000    0.0000    0.0000 C   0  0  0  0  0  0  0  0  0  0  0  0
   -1.1061   -0.5905   -0.0000 O   0  0  0  0  0  1  0  0  0  0  0  0
    1.1061   -0.6059   -0.0000 O   0  0  0  0  0  0  0  0  0  0  0  0
   -4.8516   -3.4162    0.5492 C   0  0  0  0  0  0  0  0  0  0  0  0
   -5.5920   -2.9062    0.9924 H   0  0  0  0  0  0  0  0  0  0  0  0
   -4.1787   -3.6841    1.2416 H   0  0  0  0  0  0  0  0  0  0  0  0
   -5.2750   -4.3233    0.1178 H   0  0  0  0  0  0  0  0  0  0  0  0
   -4.1731   -2.4988   -0.4345 C   0  0  0  0  0  0  0  0  0  0  0  0
   -3.3760   -2.9593   -0.8340 H   0  0  0  0  0  0  0  0  0  0  0  0
   -4.8116   -2.2583   -1.1693 H   0  0  0  0  0  0  0  0  0  0  0  0
   -3.6918   -1.2051    0.2045 C   0  0  0  0  0  0  0  0  0  0  0  0
   -4.0508   -1.1641    1.1258 H   0  0  0  0  0  0  0  0  0  0  0  0
   -2.7022   -1.2119    0.2065 H   0  0  0  0  0  0  0  0  0  0  0  0
   -4.0488   -0.3466   -0.3644 H   0  0  0  0  0  0  0  0  0  0  0  0
  1  5  1  0
  5  6  1  0
  5  7  2  0
  1  2  1  0
  1  3  1  0
  1  4  1  0
  8 12  1  0
 12 15  1  0
  8  9  1  0
  8 10  1  0
  8 11  1  0
 12 13  1  0
 12 14  1  0
 15 16  1  0
 15 17  1  0
 15 18  1  0
M  CHG  1   6  -1
M  END
>  <PDB_ID>  (483) 
pdb2iwm

>  <RESIDUE_NAME>  (483) 
GLU   ARG

>  <FRAG_NAME>  (483) 
ACET   PRPA

>  <FRAG_ATOM_NUM>  (483) 
fragi: 7  fragj: 11

>  <atom.prop.CHAIN_ID>  (483) 
A A A A A A A Z Z Z Z Z Z Z Z Z Z Z

>  <atom.prop.IS_HEAVY_ATOM>  (483) 
1 0 0 0 1 1 1 1 0 0 0 1 0 0 1 0 0 0

>  <DIFUSE_FUNC_ATOM>  (483) 
atom 6   atom 7   

>  <FINAL_SINGLE_POINT_ENERGY>  (483) 
0

>  <NONCOV_INTER_ENERGY_QM>  (483) 
0

>  <FF_Energy>  (483) 
25.03

>  <QM_Energy>  (483) 
2.63

>  <source>  (483) 
ACET_PRPA_04

>  <Index>  (483) 
30145

$$$$
ACET-pdb2jif-A-GLU-195:PRPA-pdb2jif-A-VAL-200
     RDKit          3D

 18 16  0  0  0  0  0  0  0  0999 V2000
    0.1755    1.4845    0.0165 C   0  0  0  0  0  0  0  0  0  0  0  0
    0.6950    1.7409   -0.8009 H   0  0  0  0  0  0  0  0  0  0  0  0
    0.7066    1.7215    0.8320 H   0  0  0  0  0  0  0  0  0  0  0  0
   -0.7348    2.0839    0.0293 H   0  0  0  0  0  0  0  0  0  0  0  0
    0.0000    0.0000    0.0000 C   0  0  0  0  0  0  0  0  0  0  0  0
   -1.0895   -0.5568    0.0000 O   0  0  0  0  0  1  0  0  0  0  0  0
    1.0895   -0.6087   -0.0000 O   0  0  0  0  0  0  0  0  0  0  0  0
    0.4765   -0.7395    4.9394 C   0  0  0  0  0  0  0  0  0  0  0  0
   -0.3337   -1.1500    5.3499 H   0  0  0  0  0  0  0  0  0  0  0  0
    0.3852    0.3443    5.0106 H   0  0  0  0  0  0  0  0  0  0  0  0
    1.3447   -1.0475    5.5221 H   0  0  0  0  0  0  0  0  0  0  0  0
    0.6116   -1.1997    3.4759 C   0  0  0  0  0  0  0  0  0  0  0  0
    1.4177   -0.7564    3.0931 H   0  0  0  0  0  0  0  0  0  0  0  0
    0.7811   -2.2752    3.4236 H   0  0  0  0  0  0  0  0  0  0  0  0
   -0.6416   -0.8140    2.6850 C   0  0  0  0  0  0  0  0  0  0  0  0
   -0.4011   -0.1134    2.0158 H   0  0  0  0  0  0  0  0  0  0  0  0
   -0.9941   -1.6234    2.2186 H   0  0  0  0  0  0  0  0  0  0  0  0
   -1.3287   -0.4594    3.3171 H   0  0  0  0  0  0  0  0  0  0  0  0
  1  5  1  0
  5  6  1  0
  5  7  2  0
  1  2  1  0
  1  3  1  0
  1  4  1  0
  8 12  1  0
 12 15  1  0
  8  9  1  0
  8 10  1  0
  8 11  1  0
 12 13  1  0
 12 14  1  0
 15 16  1  0
 15 17  1  0
 15 18  1  0
M  CHG  1   6  -1
M  END
>  <PDB_ID>  (484) 
pdb2jif

>  <RESIDUE_NAME>  (484) 
GLU   VAL

>  <FRAG_NAME>  (484) 
ACET   PRPA

>  <FRAG_ATOM_NUM>  (484) 
fragi: 7  fragj: 11

>  <atom.prop.CHAIN_ID>  (484) 
A A A A A A A Z Z Z Z Z Z Z Z Z Z Z

>  <atom.prop.IS_HEAVY_ATOM>  (484) 
1 0 0 0 1 1 1 1 0 0 0 1 0 0 1 0 0 0

>  <DIFUSE_FUNC_ATOM>  (484) 
atom 6   atom 7   

>  <FINAL_SINGLE_POINT_ENERGY>  (484) 
0

>  <NONCOV_INTER_ENERGY_QM>  (484) 
0

>  <FF_Energy>  (484) 
21.89

>  <QM_Energy>  (484) 
2.92

>  <source>  (484) 
ACET_PRPA_04

>  <Index>  (484) 
30204

$$$$
ACET-pdb1i4k-M-ASP-7:PRPA-pdb1i4k-M-ARG-4
     RDKit          3D

 18 16  0  0  0  0  0  0  0  0999 V2000
    0.0067    1.5197    0.0277 C   0  0  0  0  0  0  0  0  0  0  0  0
    0.7927    1.8464   -0.4836 H   0  0  0  0  0  0  0  0  0  0  0  0
    0.0536    1.8239    0.9717 H   0  0  0  0  0  0  0  0  0  0  0  0
   -0.8859    1.9579   -0.4187 H   0  0  0  0  0  0  0  0  0  0  0  0
    0.0000    0.0000    0.0000 C   0  0  0  0  0  0  0  0  0  0  0  0
   -1.0981   -0.5974    0.0000 O   0  0  0  0  0  1  0  0  0  0  0  0
    1.0981   -0.5979   -0.0000 O   0  0  0  0  0  0  0  0  0  0  0  0
    2.5639   -0.4355   -3.5170 C   0  0  0  0  0  0  0  0  0  0  0  0
    2.4166   -0.4703   -4.5007 H   0  0  0  0  0  0  0  0  0  0  0  0
    3.1603   -1.1803   -3.2335 H   0  0  0  0  0  0  0  0  0  0  0  0
    3.0646    0.5043   -3.2844 H   0  0  0  0  0  0  0  0  0  0  0  0
    1.2288   -0.6056   -2.8289 C   0  0  0  0  0  0  0  0  0  0  0  0
    1.3303   -0.4288   -1.8496 H   0  0  0  0  0  0  0  0  0  0  0  0
    0.5675    0.0384   -3.2152 H   0  0  0  0  0  0  0  0  0  0  0  0
    0.6696   -2.0080   -2.9975 C   0  0  0  0  0  0  0  0  0  0  0  0
    0.5290   -2.1721   -3.9657 H   0  0  0  0  0  0  0  0  0  0  0  0
    1.3272   -2.6500   -2.6233 H   0  0  0  0  0  0  0  0  0  0  0  0
   -0.2794   -2.1136   -2.4716 H   0  0  0  0  0  0  0  0  0  0  0  0
  1  5  1  0
  5  6  1  0
  5  7  2  0
  1  2  1  0
  1  3  1  0
  1  4  1  0
  8 12  1  0
 12 15  1  0
  8  9  1  0
  8 10  1  0
  8 11  1  0
 12 13  1  0
 12 14  1  0
 15 16  1  0
 15 17  1  0
 15 18  1  0
M  CHG  1   6  -1
M  END
>  <PDB_ID>  (485) 
pdb1i4k

>  <RESIDUE_NAME>  (485) 
ASP   ARG

>  <FRAG_NAME>  (485) 
ACET   PRPA

>  <FRAG_ATOM_NUM>  (485) 
fragi: 7  fragj: 11

>  <atom.prop.CHAIN_ID>  (485) 
A A A A A A A Z Z Z Z Z Z Z Z Z Z Z

>  <atom.prop.IS_HEAVY_ATOM>  (485) 
1 0 0 0 1 1 1 1 0 0 0 1 0 0 1 0 0 0

>  <DIFUSE_FUNC_ATOM>  (485) 
atom 6   atom 7   

>  <FINAL_SINGLE_POINT_ENERGY>  (485) 
0

>  <NONCOV_INTER_ENERGY_QM>  (485) 
0

>  <FF_Energy>  (485) 
22.45

>  <QM_Energy>  (485) 
-0.51

>  <source>  (485) 
ACET_PRPA_04

>  <Index>  (485) 
30486

$$$$
ACET-pdb1i7q-C-ASP-386:PRPA-pdb1i7q-C-LYS-389
     RDKit          3D

 18 16  0  0  0  0  0  0  0  0999 V2000
    0.0126    1.4888    0.0072 C   0  0  0  0  0  0  0  0  0  0  0  0
    0.9369    1.8109    0.2041 H   0  0  0  0  0  0  0  0  0  0  0  0
   -0.6168    1.8218    0.7063 H   0  0  0  0  0  0  0  0  0  0  0  0
   -0.2920    1.9208   -0.9460 H   0  0  0  0  0  0  0  0  0  0  0  0
    0.0000    0.0000    0.0000 C   0  0  0  0  0  0  0  0  0  0  0  0
   -1.1036   -0.5879   -0.0000 O   0  0  0  0  0  1  0  0  0  0  0  0
    1.1036   -0.5736    0.0000 O   0  0  0  0  0  0  0  0  0  0  0  0
   -3.1395    1.4237    2.3878 C   0  0  0  0  0  0  0  0  0  0  0  0
   -3.1625    2.2555    1.8200 H   0  0  0  0  0  0  0  0  0  0  0  0
   -2.1985    1.0628    2.3815 H   0  0  0  0  0  0  0  0  0  0  0  0
   -3.4324    1.6686    3.4088 H   0  0  0  0  0  0  0  0  0  0  0  0
   -4.0542    0.3768    1.7315 C   0  0  0  0  0  0  0  0  0  0  0  0
   -3.9333   -0.4836    2.1950 H   0  0  0  0  0  0  0  0  0  0  0  0
   -4.9849    0.6952    1.7777 H   0  0  0  0  0  0  0  0  0  0  0  0
   -3.6657    0.2032    0.2618 C   0  0  0  0  0  0  0  0  0  0  0  0
   -4.1886    0.8674   -0.2892 H   0  0  0  0  0  0  0  0  0  0  0  0
   -2.6848    0.4178    0.1608 H   0  0  0  0  0  0  0  0  0  0  0  0
   -3.8512   -0.8007   -0.1203 H   0  0  0  0  0  0  0  0  0  0  0  0
  1  5  1  0
  5  6  1  0
  5  7  2  0
  1  2  1  0
  1  3  1  0
  1  4  1  0
  8 12  1  0
 12 15  1  0
  8  9  1  0
  8 10  1  0
  8 11  1  0
 12 13  1  0
 12 14  1  0
 15 16  1  0
 15 17  1  0
 15 18  1  0
M  CHG  1   6  -1
M  END
>  <PDB_ID>  (486) 
pdb1i7q

>  <RESIDUE_NAME>  (486) 
ASP   LYS

>  <FRAG_NAME>  (486) 
ACET   PRPA

>  <FRAG_ATOM_NUM>  (486) 
fragi: 7  fragj: 11

>  <atom.prop.CHAIN_ID>  (486) 
A A A A A A A Z Z Z Z Z Z Z Z Z Z Z

>  <atom.prop.IS_HEAVY_ATOM>  (486) 
1 0 0 0 1 1 1 1 0 0 0 1 0 0 1 0 0 0

>  <DIFUSE_FUNC_ATOM>  (486) 
atom 6   atom 7   

>  <FINAL_SINGLE_POINT_ENERGY>  (486) 
0

>  <NONCOV_INTER_ENERGY_QM>  (486) 
0

>  <FF_Energy>  (486) 
17.69

>  <QM_Energy>  (486) 
1.57

>  <source>  (486) 
ACET_PRPA_04

>  <Index>  (486) 
30702

$$$$
ACET-pdb1iqc-B-ASP-170:PRPA-pdb1iqc-B-LYS-274
     RDKit          3D

 18 16  0  0  0  0  0  0  0  0999 V2000
   -0.0082    1.5148    0.0182 C   0  0  0  0  0  0  0  0  0  0  0  0
    0.8206    1.8448   -0.4175 H   0  0  0  0  0  0  0  0  0  0  0  0
   -0.0553    1.8243    0.9597 H   0  0  0  0  0  0  0  0  0  0  0  0
   -0.8599    1.9343   -0.5172 H   0  0  0  0  0  0  0  0  0  0  0  0
    0.0000    0.0000    0.0000 C   0  0  0  0  0  0  0  0  0  0  0  0
   -1.0980   -0.5920    0.0000 O   0  0  0  0  0  1  0  0  0  0  0  0
    1.0980   -0.5976   -0.0000 O   0  0  0  0  0  0  0  0  0  0  0  0
   -2.9908    0.3621    2.9055 C   0  0  0  0  0  0  0  0  0  0  0  0
   -3.8846   -0.0087    2.6471 H   0  0  0  0  0  0  0  0  0  0  0  0
   -2.5404    0.7347    2.0921 H   0  0  0  0  0  0  0  0  0  0  0  0
   -3.1387    1.1663    3.6263 H   0  0  0  0  0  0  0  0  0  0  0  0
   -2.1354   -0.7654    3.4700 C   0  0  0  0  0  0  0  0  0  0  0  0
   -1.2444   -0.3998    3.7176 H   0  0  0  0  0  0  0  0  0  0  0  0
   -2.5895   -1.1460    4.2682 H   0  0  0  0  0  0  0  0  0  0  0  0
   -1.9373   -1.8777    2.4485 C   0  0  0  0  0  0  0  0  0  0  0  0
   -2.8299   -2.2889    2.2405 H   0  0  0  0  0  0  0  0  0  0  0  0
   -1.5632   -1.4805    1.6045 H   0  0  0  0  0  0  0  0  0  0  0  0
   -1.2613   -2.6538    2.8075 H   0  0  0  0  0  0  0  0  0  0  0  0
  1  5  1  0
  5  6  1  0
  5  7  2  0
  1  2  1  0
  1  3  1  0
  1  4  1  0
  8 12  1  0
 12 15  1  0
  8  9  1  0
  8 10  1  0
  8 11  1  0
 12 13  1  0
 12 14  1  0
 15 16  1  0
 15 17  1  0
 15 18  1  0
M  CHG  1   6  -1
M  END
>  <PDB_ID>  (487) 
pdb1iqc

>  <RESIDUE_NAME>  (487) 
ASP   LYS

>  <FRAG_NAME>  (487) 
ACET   PRPA

>  <FRAG_ATOM_NUM>  (487) 
fragi: 7  fragj: 11

>  <atom.prop.CHAIN_ID>  (487) 
A A A A A A A Z Z Z Z Z Z Z Z Z Z Z

>  <atom.prop.IS_HEAVY_ATOM>  (487) 
1 0 0 0 1 1 1 1 0 0 0 1 0 0 1 0 0 0

>  <DIFUSE_FUNC_ATOM>  (487) 
atom 6   atom 7   

>  <FINAL_SINGLE_POINT_ENERGY>  (487) 
0

>  <NONCOV_INTER_ENERGY_QM>  (487) 
0

>  <FF_Energy>  (487) 
12.3

>  <QM_Energy>  (487) 
-2.43

>  <source>  (487) 
ACET_PRPA_04

>  <Index>  (487) 
32257

$$$$
ACET-pdb1j06-A-GLU-4:PRPA-pdb1j06-A-ARG-18
     RDKit          3D

 18 16  0  0  0  0  0  0  0  0999 V2000
   -0.0041    1.4961   -0.0222 C   0  0  0  0  0  0  0  0  0  0  0  0
    0.9116    1.8006    0.1628 H   0  0  0  0  0  0  0  0  0  0  0  0
   -0.6447    1.8024    0.6569 H   0  0  0  0  0  0  0  0  0  0  0  0
   -0.3119    1.8775   -0.9958 H   0  0  0  0  0  0  0  0  0  0  0  0
    0.0000    0.0000    0.0000 C   0  0  0  0  0  0  0  0  0  0  0  0
   -1.0997   -0.5955    0.0000 O   0  0  0  0  0  1  0  0  0  0  0  0
    1.0997   -0.5762   -0.0000 O   0  0  0  0  0  0  0  0  0  0  0  0
    4.7665   -2.4779   -1.8302 C   0  0  0  0  0  0  0  0  0  0  0  0
    3.9322   -2.9791   -1.7701 H   0  0  0  0  0  0  0  0  0  0  0  0
    5.4054   -2.6957   -1.1263 H   0  0  0  0  0  0  0  0  0  0  0  0
    5.2267   -2.6654   -2.8003 H   0  0  0  0  0  0  0  0  0  0  0  0
    4.4259   -0.9820   -1.7097 C   0  0  0  0  0  0  0  0  0  0  0  0
    5.2805   -0.4572   -1.6984 H   0  0  0  0  0  0  0  0  0  0  0  0
    3.8865   -0.7107   -2.5104 H   0  0  0  0  0  0  0  0  0  0  0  0
    3.6402   -0.6506   -0.4656 C   0  0  0  0  0  0  0  0  0  0  0  0
    3.7542    0.3147   -0.2718 H   0  0  0  0  0  0  0  0  0  0  0  0
    2.6871   -0.8681   -0.6317 H   0  0  0  0  0  0  0  0  0  0  0  0
    4.0058   -1.2371    0.3773 H   0  0  0  0  0  0  0  0  0  0  0  0
  1  5  1  0
  5  6  1  0
  5  7  2  0
  1  2  1  0
  1  3  1  0
  1  4  1  0
  8 12  1  0
 12 15  1  0
  8  9  1  0
  8 10  1  0
  8 11  1  0
 12 13  1  0
 12 14  1  0
 15 16  1  0
 15 17  1  0
 15 18  1  0
M  CHG  1   6  -1
M  END
>  <PDB_ID>  (488) 
pdb1j06

>  <RESIDUE_NAME>  (488) 
GLU   ARG

>  <FRAG_NAME>  (488) 
ACET   PRPA

>  <FRAG_ATOM_NUM>  (488) 
fragi: 7  fragj: 11

>  <atom.prop.CHAIN_ID>  (488) 
A A A A A A A Z Z Z Z Z Z Z Z Z Z Z

>  <atom.prop.IS_HEAVY_ATOM>  (488) 
1 0 0 0 1 1 1 1 0 0 0 1 0 0 1 0 0 0

>  <DIFUSE_FUNC_ATOM>  (488) 
atom 6   atom 7   

>  <FINAL_SINGLE_POINT_ENERGY>  (488) 
0

>  <NONCOV_INTER_ENERGY_QM>  (488) 
0

>  <FF_Energy>  (488) 
47.47

>  <QM_Energy>  (488) 
5.19

>  <source>  (488) 
ACET_PRPA_04

>  <Index>  (488) 
33493

$$$$
ACET-pdb1j42-A-GLU-16:PRPA-pdb1j42-A-VAL-50
     RDKit          3D

 18 16  0  0  0  0  0  0  0  0999 V2000
   -0.0164    1.5086   -0.0147 C   0  0  0  0  0  0  0  0  0  0  0  0
   -0.7603    1.7999    0.5680 H   0  0  0  0  0  0  0  0  0  0  0  0
   -0.1630    1.7915   -0.9514 H   0  0  0  0  0  0  0  0  0  0  0  0
    0.9095    1.9552    0.3479 H   0  0  0  0  0  0  0  0  0  0  0  0
    0.0000    0.0000    0.0000 C   0  0  0  0  0  0  0  0  0  0  0  0
   -1.0950   -0.5975    0.0000 O   0  0  0  0  0  1  0  0  0  0  0  0
    1.0950   -0.5880   -0.0000 O   0  0  0  0  0  0  0  0  0  0  0  0
   -4.2709    1.5479    0.7721 C   0  0  0  0  0  0  0  0  0  0  0  0
   -5.0922    1.5599    1.3069 H   0  0  0  0  0  0  0  0  0  0  0  0
   -4.0278    0.5137    0.5287 H   0  0  0  0  0  0  0  0  0  0  0  0
   -4.4913    1.9937   -0.1978 H   0  0  0  0  0  0  0  0  0  0  0  0
   -3.1094    2.2979    1.4879 C   0  0  0  0  0  0  0  0  0  0  0  0
   -3.5154    2.8448    2.2109 H   0  0  0  0  0  0  0  0  0  0  0  0
   -2.6003    2.9675    0.7947 H   0  0  0  0  0  0  0  0  0  0  0  0
   -2.1665    1.3095    2.1386 C   0  0  0  0  0  0  0  0  0  0  0  0
   -2.6894    0.6478    2.6792 H   0  0  0  0  0  0  0  0  0  0  0  0
   -1.6477    0.8227    1.4337 H   0  0  0  0  0  0  0  0  0  0  0  0
   -1.5293    1.7949    2.7401 H   0  0  0  0  0  0  0  0  0  0  0  0
  1  5  1  0
  5  6  1  0
  5  7  2  0
  1  2  1  0
  1  3  1  0
  1  4  1  0
  8 12  1  0
 12 15  1  0
  8  9  1  0
  8 10  1  0
  8 11  1  0
 12 13  1  0
 12 14  1  0
 15 16  1  0
 15 17  1  0
 15 18  1  0
M  CHG  1   6  -1
M  END
>  <PDB_ID>  (489) 
pdb1j42

>  <RESIDUE_NAME>  (489) 
GLU   VAL

>  <FRAG_NAME>  (489) 
ACET   PRPA

>  <FRAG_ATOM_NUM>  (489) 
fragi: 7  fragj: 11

>  <atom.prop.CHAIN_ID>  (489) 
A A A A A A A Z Z Z Z Z Z Z Z Z Z Z

>  <atom.prop.IS_HEAVY_ATOM>  (489) 
1 0 0 0 1 1 1 1 0 0 0 1 0 0 1 0 0 0

>  <DIFUSE_FUNC_ATOM>  (489) 
atom 6   atom 7   

>  <FINAL_SINGLE_POINT_ENERGY>  (489) 
0

>  <NONCOV_INTER_ENERGY_QM>  (489) 
0

>  <FF_Energy>  (489) 
31.98

>  <QM_Energy>  (489) 
3.81

>  <source>  (489) 
ACET_PRPA_04

>  <Index>  (489) 
33575

$$$$
ACET-pdb1j42-A-GLU-16:PRPA-pdb1j42-A-VAL-50
     RDKit          3D

 18 16  0  0  0  0  0  0  0  0999 V2000
   -0.0164    1.5086   -0.0147 C   0  0  0  0  0  0  0  0  0  0  0  0
   -0.7603    1.7999    0.5680 H   0  0  0  0  0  0  0  0  0  0  0  0
   -0.1630    1.7915   -0.9514 H   0  0  0  0  0  0  0  0  0  0  0  0
    0.9095    1.9552    0.3479 H   0  0  0  0  0  0  0  0  0  0  0  0
    0.0000    0.0000    0.0000 C   0  0  0  0  0  0  0  0  0  0  0  0
   -1.0950   -0.5975    0.0000 O   0  0  0  0  0  1  0  0  0  0  0  0
    1.0950   -0.5880   -0.0000 O   0  0  0  0  0  0  0  0  0  0  0  0
   -2.1665    1.3095    2.1386 C   0  0  0  0  0  0  0  0  0  0  0  0
   -2.6894    0.6478    2.6792 H   0  0  0  0  0  0  0  0  0  0  0  0
   -1.6477    0.8227    1.4337 H   0  0  0  0  0  0  0  0  0  0  0  0
   -1.5293    1.7949    2.7401 H   0  0  0  0  0  0  0  0  0  0  0  0
   -3.1094    2.2979    1.4879 C   0  0  0  0  0  0  0  0  0  0  0  0
   -3.5154    2.8448    2.2109 H   0  0  0  0  0  0  0  0  0  0  0  0
   -3.9225    1.7729    0.9868 H   0  0  0  0  0  0  0  0  0  0  0  0
   -2.4125    3.2144    0.5390 C   0  0  0  0  0  0  0  0  0  0  0  0
   -2.4101    2.8180   -0.3849 H   0  0  0  0  0  0  0  0  0  0  0  0
   -2.8822    4.1024    0.5096 H   0  0  0  0  0  0  0  0  0  0  0  0
   -1.4628    3.3578    0.8333 H   0  0  0  0  0  0  0  0  0  0  0  0
  1  5  1  0
  5  6  1  0
  5  7  2  0
  1  2  1  0
  1  3  1  0
  1  4  1  0
  8 12  1  0
 12 15  1  0
  8  9  1  0
  8 10  1  0
  8 11  1  0
 12 13  1  0
 12 14  1  0
 15 16  1  0
 15 17  1  0
 15 18  1  0
M  CHG  1   6  -1
M  END
>  <PDB_ID>  (490) 
pdb1j42

>  <RESIDUE_NAME>  (490) 
GLU   VAL

>  <FRAG_NAME>  (490) 
ACET   PRPA

>  <FRAG_ATOM_NUM>  (490) 
fragi: 7  fragj: 11

>  <atom.prop.CHAIN_ID>  (490) 
A A A A A A A Z Z Z Z Z Z Z Z Z Z Z

>  <atom.prop.IS_HEAVY_ATOM>  (490) 
1 0 0 0 1 1 1 1 0 0 0 1 0 0 1 0 0 0

>  <DIFUSE_FUNC_ATOM>  (490) 
atom 6   atom 7   

>  <FINAL_SINGLE_POINT_ENERGY>  (490) 
0

>  <NONCOV_INTER_ENERGY_QM>  (490) 
0

>  <FF_Energy>  (490) 
46.78

>  <QM_Energy>  (490) 
9.74

>  <source>  (490) 
ACET_PRPA_04

>  <Index>  (490) 
33631

$$$$
ACET-pdb1hzd-F-ASP-121:PRPA-pdb1hzd-F-VAL-124
     RDKit          3D

 18 16  0  0  0  0  0  0  0  0999 V2000
   -0.0095    1.5100   -0.0176 C   0  0  0  0  0  0  0  0  0  0  0  0
   -0.8511    1.8318    0.4023 H   0  0  0  0  0  0  0  0  0  0  0  0
    0.0512    1.8220   -0.9583 H   0  0  0  0  0  0  0  0  0  0  0  0
    0.8266    1.9402    0.5336 H   0  0  0  0  0  0  0  0  0  0  0  0
    0.0000    0.0000    0.0000 C   0  0  0  0  0  0  0  0  0  0  0  0
   -1.1002   -0.5937    0.0000 O   0  0  0  0  0  1  0  0  0  0  0  0
    1.1002   -0.5938   -0.0000 O   0  0  0  0  0  0  0  0  0  0  0  0
    1.8481   -1.6761   -3.9319 C   0  0  0  0  0  0  0  0  0  0  0  0
    1.5153   -2.6113   -4.1137 H   0  0  0  0  0  0  0  0  0  0  0  0
    2.3685   -1.6841   -2.9741 H   0  0  0  0  0  0  0  0  0  0  0  0
    2.5099   -1.3910   -4.7497 H   0  0  0  0  0  0  0  0  0  0  0  0
    0.6539   -0.6921   -3.9328 C   0  0  0  0  0  0  0  0  0  0  0  0
    1.0241    0.2282   -3.9711 H   0  0  0  0  0  0  0  0  0  0  0  0
    0.0521   -0.8342   -4.8305 H   0  0  0  0  0  0  0  0  0  0  0  0
   -0.1945   -0.9107   -2.7219 C   0  0  0  0  0  0  0  0  0  0  0  0
   -0.3975   -1.8890   -2.6167 H   0  0  0  0  0  0  0  0  0  0  0  0
    0.2876   -0.5883   -1.9016 H   0  0  0  0  0  0  0  0  0  0  0  0
   -1.0582   -0.4062   -2.8113 H   0  0  0  0  0  0  0  0  0  0  0  0
  1  5  1  0
  5  6  1  0
  5  7  2  0
  1  2  1  0
  1  3  1  0
  1  4  1  0
  8 12  1  0
 12 15  1  0
  8  9  1  0
  8 10  1  0
  8 11  1  0
 12 13  1  0
 12 14  1  0
 15 16  1  0
 15 17  1  0
 15 18  1  0
M  CHG  1   6  -1
M  END
>  <PDB_ID>  (491) 
pdb1hzd

>  <RESIDUE_NAME>  (491) 
ASP   VAL

>  <FRAG_NAME>  (491) 
ACET   PRPA

>  <FRAG_ATOM_NUM>  (491) 
fragi: 7  fragj: 11

>  <atom.prop.CHAIN_ID>  (491) 
A A A A A A A Z Z Z Z Z Z Z Z Z Z Z

>  <atom.prop.IS_HEAVY_ATOM>  (491) 
1 0 0 0 1 1 1 1 0 0 0 1 0 0 1 0 0 0

>  <DIFUSE_FUNC_ATOM>  (491) 
atom 6   atom 7   

>  <FINAL_SINGLE_POINT_ENERGY>  (491) 
0

>  <NONCOV_INTER_ENERGY_QM>  (491) 
0

>  <FF_Energy>  (491) 
25.34

>  <QM_Energy>  (491) 
1.69

>  <source>  (491) 
ACET_PRPA_04

>  <Index>  (491) 
33658

$$$$
ACET-pdb1hzd-F-ASP-121:PRPA-pdb1hzd-F-VAL-124
     RDKit          3D

 18 16  0  0  0  0  0  0  0  0999 V2000
   -0.0095    1.5100   -0.0176 C   0  0  0  0  0  0  0  0  0  0  0  0
   -0.8511    1.8318    0.4023 H   0  0  0  0  0  0  0  0  0  0  0  0
    0.0512    1.8220   -0.9583 H   0  0  0  0  0  0  0  0  0  0  0  0
    0.8266    1.9402    0.5336 H   0  0  0  0  0  0  0  0  0  0  0  0
    0.0000    0.0000    0.0000 C   0  0  0  0  0  0  0  0  0  0  0  0
   -1.1002   -0.5937    0.0000 O   0  0  0  0  0  1  0  0  0  0  0  0
    1.1002   -0.5938   -0.0000 O   0  0  0  0  0  0  0  0  0  0  0  0
   -0.1866   -0.8906   -5.1865 C   0  0  0  0  0  0  0  0  0  0  0  0
   -1.0865   -1.2446   -4.9329 H   0  0  0  0  0  0  0  0  0  0  0  0
   -0.2942   -0.0152   -5.6585 H   0  0  0  0  0  0  0  0  0  0  0  0
    0.2684   -1.5421   -5.7935 H   0  0  0  0  0  0  0  0  0  0  0  0
    0.6539   -0.6921   -3.9328 C   0  0  0  0  0  0  0  0  0  0  0  0
    1.0241    0.2282   -3.9711 H   0  0  0  0  0  0  0  0  0  0  0  0
    1.4951   -1.3852   -3.9322 H   0  0  0  0  0  0  0  0  0  0  0  0
   -0.1945   -0.9107   -2.7219 C   0  0  0  0  0  0  0  0  0  0  0  0
   -0.3975   -1.8890   -2.6167 H   0  0  0  0  0  0  0  0  0  0  0  0
    0.2876   -0.5883   -1.9016 H   0  0  0  0  0  0  0  0  0  0  0  0
   -1.0582   -0.4062   -2.8113 H   0  0  0  0  0  0  0  0  0  0  0  0
  1  5  1  0
  5  6  1  0
  5  7  2  0
  1  2  1  0
  1  3  1  0
  1  4  1  0
  8 12  1  0
 12 15  1  0
  8  9  1  0
  8 10  1  0
  8 11  1  0
 12 13  1  0
 12 14  1  0
 15 16  1  0
 15 17  1  0
 15 18  1  0
M  CHG  1   6  -1
M  END
>  <PDB_ID>  (492) 
pdb1hzd

>  <RESIDUE_NAME>  (492) 
ASP   VAL

>  <FRAG_NAME>  (492) 
ACET   PRPA

>  <FRAG_ATOM_NUM>  (492) 
fragi: 7  fragj: 11

>  <atom.prop.CHAIN_ID>  (492) 
A A A A A A A Z Z Z Z Z Z Z Z Z Z Z

>  <atom.prop.IS_HEAVY_ATOM>  (492) 
1 0 0 0 1 1 1 1 0 0 0 1 0 0 1 0 0 0

>  <DIFUSE_FUNC_ATOM>  (492) 
atom 6   atom 7   

>  <FINAL_SINGLE_POINT_ENERGY>  (492) 
0

>  <NONCOV_INTER_ENERGY_QM>  (492) 
0

>  <FF_Energy>  (492) 
25.02

>  <QM_Energy>  (492) 
2.51

>  <source>  (492) 
ACET_PRPA_04

>  <Index>  (492) 
33677

$$$$
ACET-pdb1j55-A-ASP-55:PRPA-pdb1j55-A-LYS-59
     RDKit          3D

 18 16  0  0  0  0  0  0  0  0999 V2000
   -0.0074    1.5366    0.0020 C   0  0  0  0  0  0  0  0  0  0  0  0
    0.9103    1.8549    0.1983 H   0  0  0  0  0  0  0  0  0  0  0  0
   -0.6456    1.8473    0.6926 H   0  0  0  0  0  0  0  0  0  0  0  0
   -0.3128    1.9610   -0.9544 H   0  0  0  0  0  0  0  0  0  0  0  0
    0.0000    0.0000    0.0000 C   0  0  0  0  0  0  0  0  0  0  0  0
   -1.0941   -0.6226   -0.0000 O   0  0  0  0  0  1  0  0  0  0  0  0
    1.0941   -0.6010    0.0000 O   0  0  0  0  0  0  0  0  0  0  0  0
   -3.6366   -2.3065   -3.7078 C   0  0  0  0  0  0  0  0  0  0  0  0
   -4.0507   -1.4831   -3.3232 H   0  0  0  0  0  0  0  0  0  0  0  0
   -4.3061   -3.0495   -3.7058 H   0  0  0  0  0  0  0  0  0  0  0  0
   -3.3502   -2.1010   -4.7392 H   0  0  0  0  0  0  0  0  0  0  0  0
   -2.4726   -2.7202   -2.7880 C   0  0  0  0  0  0  0  0  0  0  0  0
   -2.3166   -3.6964   -2.8879 H   0  0  0  0  0  0  0  0  0  0  0  0
   -1.6622   -2.2078   -3.0458 H   0  0  0  0  0  0  0  0  0  0  0  0
   -2.8092   -2.4178   -1.3239 C   0  0  0  0  0  0  0  0  0  0  0  0
   -2.1578   -1.7467   -0.9745 H   0  0  0  0  0  0  0  0  0  0  0  0
   -3.7348   -2.0493   -1.2735 H   0  0  0  0  0  0  0  0  0  0  0  0
   -2.7624   -3.2977   -0.6823 H   0  0  0  0  0  0  0  0  0  0  0  0
  1  5  1  0
  5  6  1  0
  5  7  2  0
  1  2  1  0
  1  3  1  0
  1  4  1  0
  8 12  1  0
 12 15  1  0
  8  9  1  0
  8 10  1  0
  8 11  1  0
 12 13  1  0
 12 14  1  0
 15 16  1  0
 15 17  1  0
 15 18  1  0
M  CHG  1   6  -1
M  END
>  <PDB_ID>  (493) 
pdb1j55

>  <RESIDUE_NAME>  (493) 
ASP   LYS

>  <FRAG_NAME>  (493) 
ACET   PRPA

>  <FRAG_ATOM_NUM>  (493) 
fragi: 7  fragj: 11

>  <atom.prop.CHAIN_ID>  (493) 
A A A A A A A Z Z Z Z Z Z Z Z Z Z Z

>  <atom.prop.IS_HEAVY_ATOM>  (493) 
1 0 0 0 1 1 1 1 0 0 0 1 0 0 1 0 0 0

>  <DIFUSE_FUNC_ATOM>  (493) 
atom 6   atom 7   

>  <FINAL_SINGLE_POINT_ENERGY>  (493) 
0

>  <NONCOV_INTER_ENERGY_QM>  (493) 
0

>  <FF_Energy>  (493) 
21.8

>  <QM_Energy>  (493) 
-0.75

>  <source>  (493) 
ACET_PRPA_04

>  <Index>  (493) 
33851

$$$$
ACET-pdb1j55-A-ASP-55:PRPA-pdb1j55-A-LYS-59
     RDKit          3D

 18 16  0  0  0  0  0  0  0  0999 V2000
   -0.0074    1.5366    0.0020 C   0  0  0  0  0  0  0  0  0  0  0  0
    0.9103    1.8549    0.1983 H   0  0  0  0  0  0  0  0  0  0  0  0
   -0.6456    1.8473    0.6926 H   0  0  0  0  0  0  0  0  0  0  0  0
   -0.3128    1.9610   -0.9544 H   0  0  0  0  0  0  0  0  0  0  0  0
    0.0000    0.0000    0.0000 C   0  0  0  0  0  0  0  0  0  0  0  0
   -1.0941   -0.6226   -0.0000 O   0  0  0  0  0  1  0  0  0  0  0  0
    1.0941   -0.6010    0.0000 O   0  0  0  0  0  0  0  0  0  0  0  0
   -2.4726   -2.7202   -2.7880 C   0  0  0  0  0  0  0  0  0  0  0  0
   -2.3166   -3.6964   -2.8879 H   0  0  0  0  0  0  0  0  0  0  0  0
   -1.6622   -2.2078   -3.0458 H   0  0  0  0  0  0  0  0  0  0  0  0
   -3.2964   -2.4274   -3.4389 H   0  0  0  0  0  0  0  0  0  0  0  0
   -2.8092   -2.4178   -1.3239 C   0  0  0  0  0  0  0  0  0  0  0  0
   -2.1578   -1.7467   -0.9745 H   0  0  0  0  0  0  0  0  0  0  0  0
   -3.7348   -2.0493   -1.2735 H   0  0  0  0  0  0  0  0  0  0  0  0
   -2.7426   -3.6675   -0.4126 C   0  0  0  0  0  0  0  0  0  0  0  0
   -3.3309   -4.3777   -0.7883 H   0  0  0  0  0  0  0  0  0  0  0  0
   -1.8016   -3.9916   -0.3685 H   0  0  0  0  0  0  0  0  0  0  0  0
   -3.0747   -3.4559    0.6038 H   0  0  0  0  0  0  0  0  0  0  0  0
  1  5  1  0
  5  6  1  0
  5  7  2  0
  1  2  1  0
  1  3  1  0
  1  4  1  0
  8 12  1  0
 12 15  1  0
  8  9  1  0
  8 10  1  0
  8 11  1  0
 12 13  1  0
 12 14  1  0
 15 16  1  0
 15 17  1  0
 15 18  1  0
M  CHG  1   6  -1
M  END
>  <PDB_ID>  (494) 
pdb1j55

>  <RESIDUE_NAME>  (494) 
ASP   LYS

>  <FRAG_NAME>  (494) 
ACET   PRPA

>  <FRAG_ATOM_NUM>  (494) 
fragi: 7  fragj: 11

>  <atom.prop.CHAIN_ID>  (494) 
A A A A A A A Z Z Z Z Z Z Z Z Z Z Z

>  <atom.prop.IS_HEAVY_ATOM>  (494) 
1 0 0 0 1 1 1 1 0 0 0 1 0 0 1 0 0 0

>  <DIFUSE_FUNC_ATOM>  (494) 
atom 6   atom 7   

>  <FINAL_SINGLE_POINT_ENERGY>  (494) 
0

>  <NONCOV_INTER_ENERGY_QM>  (494) 
0

>  <FF_Energy>  (494) 
25.83

>  <QM_Energy>  (494) 
-1.37

>  <source>  (494) 
ACET_PRPA_04

>  <Index>  (494) 
33856

$$$$
ACET-pdb2nw2-B-ASP-110:PRPA-pdb2nw2-A-GLU-41
     RDKit          3D

 18 16  0  0  0  0  0  0  0  0999 V2000
    0.0003    1.5130    0.0402 C   0  0  0  0  0  0  0  0  0  0  0  0
   -0.9359    1.8360   -0.0053 H   0  0  0  0  0  0  0  0  0  0  0  0
    0.5293    1.8550   -0.7254 H   0  0  0  0  0  0  0  0  0  0  0  0
    0.4453    1.9010    0.9564 H   0  0  0  0  0  0  0  0  0  0  0  0
    0.0000    0.0000    0.0000 C   0  0  0  0  0  0  0  0  0  0  0  0
   -1.0996   -0.5970    0.0000 O   0  0  0  0  0  1  0  0  0  0  0  0
    1.0996   -0.5913   -0.0000 O   0  0  0  0  0  0  0  0  0  0  0  0
    4.3313    1.0299   -0.7248 C   0  0  0  0  0  0  0  0  0  0  0  0
    3.6886    1.8765   -0.7374 H   0  0  0  0  0  0  0  0  0  0  0  0
    5.0950    1.1664   -1.4905 H   0  0  0  0  0  0  0  0  0  0  0  0
    4.5677    0.8157    0.3174 H   0  0  0  0  0  0  0  0  0  0  0  0
    3.5389   -0.1648   -1.2601 C   0  0  0  0  0  0  0  0  0  0  0  0
    2.8850   -0.4215   -0.5880 H   0  0  0  0  0  0  0  0  0  0  0  0
    3.1539    0.0848   -2.1163 H   0  0  0  0  0  0  0  0  0  0  0  0
    4.4467   -1.3860   -1.5046 C   0  0  0  0  0  0  0  0  0  0  0  0
    5.3471   -1.1611   -1.1811 H   0  0  0  0  0  0  0  0  0  0  0  0
    4.0595   -2.1520   -1.0253 H   0  0  0  0  0  0  0  0  0  0  0  0
    4.5319   -1.6623   -2.5555 H   0  0  0  0  0  0  0  0  0  0  0  0
  1  5  1  0
  5  6  1  0
  5  7  2  0
  1  2  1  0
  1  3  1  0
  1  4  1  0
  8 12  1  0
 12 15  1  0
  8  9  1  0
  8 10  1  0
  8 11  1  0
 12 13  1  0
 12 14  1  0
 15 16  1  0
 15 17  1  0
 15 18  1  0
M  CHG  1   6  -1
M  END
>  <PDB_ID>  (495) 
pdb2nw2

>  <RESIDUE_NAME>  (495) 
ASP   GLU

>  <FRAG_NAME>  (495) 
ACET   PRPA

>  <FRAG_ATOM_NUM>  (495) 
fragi: 7  fragj: 11

>  <atom.prop.CHAIN_ID>  (495) 
A A A A A A A Z Z Z Z Z Z Z Z Z Z Z

>  <atom.prop.IS_HEAVY_ATOM>  (495) 
1 0 0 0 1 1 1 1 0 0 0 1 0 0 1 0 0 0

>  <DIFUSE_FUNC_ATOM>  (495) 
atom 6   atom 7   

>  <FINAL_SINGLE_POINT_ENERGY>  (495) 
0

>  <NONCOV_INTER_ENERGY_QM>  (495) 
0

>  <FF_Energy>  (495) 
17.33

>  <QM_Energy>  (495) 
-0.41

>  <source>  (495) 
ACET_PRPA_04

>  <Index>  (495) 
34337

$$$$
ACET-pdb2nxb-A-ASP-64:PRPA-pdb2nxb-A-LYS-67
     RDKit          3D

 18 16  0  0  0  0  0  0  0  0999 V2000
   -0.0049    1.5181    0.0047 C   0  0  0  0  0  0  0  0  0  0  0  0
   -0.6489    1.8347    0.6931 H   0  0  0  0  0  0  0  0  0  0  0  0
   -0.2743    1.8408   -0.8958 H   0  0  0  0  0  0  0  0  0  0  0  0
    0.9692    1.9487    0.2368 H   0  0  0  0  0  0  0  0  0  0  0  0
    0.0000    0.0000    0.0000 C   0  0  0  0  0  0  0  0  0  0  0  0
   -1.1009   -0.5989   -0.0000 O   0  0  0  0  0  1  0  0  0  0  0  0
    1.1009   -0.5942   -0.0000 O   0  0  0  0  0  0  0  0  0  0  0  0
   -2.0270   -0.2845    3.8526 C   0  0  0  0  0  0  0  0  0  0  0  0
   -2.9147   -0.3589    4.3206 H   0  0  0  0  0  0  0  0  0  0  0  0
   -1.6804    0.7470    3.9153 H   0  0  0  0  0  0  0  0  0  0  0  0
   -1.3197   -0.9591    4.3351 H   0  0  0  0  0  0  0  0  0  0  0  0
   -2.2339   -0.7013    2.3944 C   0  0  0  0  0  0  0  0  0  0  0  0
   -3.1456   -0.4040    2.1111 H   0  0  0  0  0  0  0  0  0  0  0  0
   -1.5449   -0.2360    1.8371 H   0  0  0  0  0  0  0  0  0  0  0  0
   -2.1211   -2.1990    2.1409 C   0  0  0  0  0  0  0  0  0  0  0  0
   -1.2093   -2.5069    2.4164 H   0  0  0  0  0  0  0  0  0  0  0  0
   -2.8100   -2.6748    2.6895 H   0  0  0  0  0  0  0  0  0  0  0  0
   -2.2755   -2.4427    1.0899 H   0  0  0  0  0  0  0  0  0  0  0  0
  1  5  1  0
  5  6  1  0
  5  7  2  0
  1  2  1  0
  1  3  1  0
  1  4  1  0
  8 12  1  0
 12 15  1  0
  8  9  1  0
  8 10  1  0
  8 11  1  0
 12 13  1  0
 12 14  1  0
 15 16  1  0
 15 17  1  0
 15 18  1  0
M  CHG  1   6  -1
M  END
>  <PDB_ID>  (496) 
pdb2nxb

>  <RESIDUE_NAME>  (496) 
ASP   LYS

>  <FRAG_NAME>  (496) 
ACET   PRPA

>  <FRAG_ATOM_NUM>  (496) 
fragi: 7  fragj: 11

>  <atom.prop.CHAIN_ID>  (496) 
A A A A A A A Z Z Z Z Z Z Z Z Z Z Z

>  <atom.prop.IS_HEAVY_ATOM>  (496) 
1 0 0 0 1 1 1 1 0 0 0 1 0 0 1 0 0 0

>  <DIFUSE_FUNC_ATOM>  (496) 
atom 6   atom 7   

>  <FINAL_SINGLE_POINT_ENERGY>  (496) 
0

>  <NONCOV_INTER_ENERGY_QM>  (496) 
0

>  <FF_Energy>  (496) 
19.98

>  <QM_Energy>  (496) 
2.5

>  <source>  (496) 
ACET_PRPA_04

>  <Index>  (496) 
34432

$$$$
ACET-pdb1j5x-A-GLU-87:PRPA-pdb1j5x-A-GLU-42
     RDKit          3D

 18 16  0  0  0  0  0  0  0  0999 V2000
    0.1781    1.4857    0.0147 C   0  0  0  0  0  0  0  0  0  0  0  0
    0.6965    1.7398   -0.8029 H   0  0  0  0  0  0  0  0  0  0  0  0
    0.7087    1.7221    0.8292 H   0  0  0  0  0  0  0  0  0  0  0  0
   -0.7322    2.0850    0.0268 H   0  0  0  0  0  0  0  0  0  0  0  0
    0.0000    0.0000    0.0000 C   0  0  0  0  0  0  0  0  0  0  0  0
   -1.0891   -0.5559   -0.0000 O   0  0  0  0  0  1  0  0  0  0  0  0
    1.0891   -0.6090   -0.0000 O   0  0  0  0  0  0  0  0  0  0  0  0
   -0.4695   -3.1454    2.6198 C   0  0  0  0  0  0  0  0  0  0  0  0
    0.2732   -3.8038    2.5509 H   0  0  0  0  0  0  0  0  0  0  0  0
   -1.2848   -3.4334    1.9561 H   0  0  0  0  0  0  0  0  0  0  0  0
   -0.8497   -3.1301    3.6411 H   0  0  0  0  0  0  0  0  0  0  0  0
    0.0389   -1.7540    2.2001 C   0  0  0  0  0  0  0  0  0  0  0  0
    0.6897   -1.8892    1.4592 H   0  0  0  0  0  0  0  0  0  0  0  0
   -0.7476   -1.2379    1.8774 H   0  0  0  0  0  0  0  0  0  0  0  0
    0.7280   -0.9220    3.2693 C   0  0  0  0  0  0  0  0  0  0  0  0
    0.3056   -1.1028    4.1394 H   0  0  0  0  0  0  0  0  0  0  0  0
    1.6890   -1.1329    3.2740 H   0  0  0  0  0  0  0  0  0  0  0  0
    0.6561    0.1547    3.1156 H   0  0  0  0  0  0  0  0  0  0  0  0
  1  5  1  0
  5  6  1  0
  5  7  2  0
  1  2  1  0
  1  3  1  0
  1  4  1  0
  8 12  1  0
 12 15  1  0
  8  9  1  0
  8 10  1  0
  8 11  1  0
 12 13  1  0
 12 14  1  0
 15 16  1  0
 15 17  1  0
 15 18  1  0
M  CHG  1   6  -1
M  END
>  <PDB_ID>  (497) 
pdb1j5x

>  <RESIDUE_NAME>  (497) 
GLU   GLU

>  <FRAG_NAME>  (497) 
ACET   PRPA

>  <FRAG_ATOM_NUM>  (497) 
fragi: 7  fragj: 11

>  <atom.prop.CHAIN_ID>  (497) 
A A A A A A A Z Z Z Z Z Z Z Z Z Z Z

>  <atom.prop.IS_HEAVY_ATOM>  (497) 
1 0 0 0 1 1 1 1 0 0 0 1 0 0 1 0 0 0

>  <DIFUSE_FUNC_ATOM>  (497) 
atom 6   atom 7   

>  <FINAL_SINGLE_POINT_ENERGY>  (497) 
0

>  <NONCOV_INTER_ENERGY_QM>  (497) 
0

>  <FF_Energy>  (497) 
26.04

>  <QM_Energy>  (497) 
4.22

>  <source>  (497) 
ACET_PRPA_04

>  <Index>  (497) 
35039

$$$$
ACET-pdb1izo-A-GLU-140:PRPA-pdb1izo-A-LYS-160
     RDKit          3D

 18 16  0  0  0  0  0  0  0  0999 V2000
    0.0087    1.5120   -0.0043 C   0  0  0  0  0  0  0  0  0  0  0  0
   -0.1819    1.8107   -0.9229 H   0  0  0  0  0  0  0  0  0  0  0  0
    0.8966    1.8076    0.3024 H   0  0  0  0  0  0  0  0  0  0  0  0
   -0.7419    1.9463    0.6560 H   0  0  0  0  0  0  0  0  0  0  0  0
    0.0000    0.0000    0.0000 C   0  0  0  0  0  0  0  0  0  0  0  0
   -1.1004   -0.6064    0.0000 O   0  0  0  0  0  1  0  0  0  0  0  0
    1.1004   -0.5810   -0.0000 O   0  0  0  0  0  0  0  0  0  0  0  0
    1.4556   -1.2536   -2.7723 C   0  0  0  0  0  0  0  0  0  0  0  0
    1.9101   -2.1392   -2.6203 H   0  0  0  0  0  0  0  0  0  0  0  0
    1.3725   -0.7825   -1.8871 H   0  0  0  0  0  0  0  0  0  0  0  0
    2.0690   -0.6498   -3.4411 H   0  0  0  0  0  0  0  0  0  0  0  0
    0.0377   -1.5247   -3.3110 C   0  0  0  0  0  0  0  0  0  0  0  0
   -0.4729   -0.6763   -3.2976 H   0  0  0  0  0  0  0  0  0  0  0  0
    0.1104   -1.8821   -4.2321 H   0  0  0  0  0  0  0  0  0  0  0  0
   -0.7036   -2.5548   -2.4449 C   0  0  0  0  0  0  0  0  0  0  0  0
   -0.0969   -3.3462   -2.3018 H   0  0  0  0  0  0  0  0  0  0  0  0
   -0.8949   -2.1376   -1.5475 H   0  0  0  0  0  0  0  0  0  0  0  0
   -1.6389   -2.8955   -2.8890 H   0  0  0  0  0  0  0  0  0  0  0  0
  1  5  1  0
  5  6  1  0
  5  7  2  0
  1  2  1  0
  1  3  1  0
  1  4  1  0
  8 12  1  0
 12 15  1  0
  8  9  1  0
  8 10  1  0
  8 11  1  0
 12 13  1  0
 12 14  1  0
 15 16  1  0
 15 17  1  0
 15 18  1  0
M  CHG  1   6  -1
M  END
>  <PDB_ID>  (498) 
pdb1izo

>  <RESIDUE_NAME>  (498) 
GLU   LYS

>  <FRAG_NAME>  (498) 
ACET   PRPA

>  <FRAG_ATOM_NUM>  (498) 
fragi: 7  fragj: 11

>  <atom.prop.CHAIN_ID>  (498) 
A A A A A A A Z Z Z Z Z Z Z Z Z Z Z

>  <atom.prop.IS_HEAVY_ATOM>  (498) 
1 0 0 0 1 1 1 1 0 0 0 1 0 0 1 0 0 0

>  <DIFUSE_FUNC_ATOM>  (498) 
atom 6   atom 7   

>  <FINAL_SINGLE_POINT_ENERGY>  (498) 
0

>  <NONCOV_INTER_ENERGY_QM>  (498) 
0

>  <FF_Energy>  (498) 
15.25

>  <QM_Energy>  (498) 
-2.33

>  <source>  (498) 
ACET_PRPA_04

>  <Index>  (498) 
35680

$$$$
ACET-pdb1j7d-B-GLU-60:PRPA-pdb1j7d-A-VAL-7
     RDKit          3D

 18 16  0  0  0  0  0  0  0  0999 V2000
   -0.0117    1.5222    0.0042 C   0  0  0  0  0  0  0  0  0  0  0  0
    0.9124    1.8201    0.1662 H   0  0  0  0  0  0  0  0  0  0  0  0
   -0.6227    1.8062    0.7208 H   0  0  0  0  0  0  0  0  0  0  0  0
   -0.3561    1.9445   -0.9398 H   0  0  0  0  0  0  0  0  0  0  0  0
    0.0000    0.0000    0.0000 C   0  0  0  0  0  0  0  0  0  0  0  0
   -1.0976   -0.5946   -0.0000 O   0  0  0  0  0  1  0  0  0  0  0  0
    1.0976   -0.6014   -0.0000 O   0  0  0  0  0  0  0  0  0  0  0  0
    2.7657    1.6203    3.3038 C   0  0  0  0  0  0  0  0  0  0  0  0
    3.2735    2.4412    3.6865 H   0  0  0  0  0  0  0  0  0  0  0  0
    3.5131    0.9348    2.9042 H   0  0  0  0  0  0  0  0  0  0  0  0
    2.0906    1.2637    4.0818 H   0  0  0  0  0  0  0  0  0  0  0  0
    1.9163    2.1961    2.1729 C   0  0  0  0  0  0  0  0  0  0  0  0
    1.3583    1.4599    1.8012 H   0  0  0  0  0  0  0  0  0  0  0  0
    1.2297    2.9483    2.5613 H   0  0  0  0  0  0  0  0  0  0  0  0
    2.8258    2.7870    1.1073 C   0  0  0  0  0  0  0  0  0  0  0  0
    3.5428    3.3277    1.5473 H   0  0  0  0  0  0  0  0  0  0  0  0
    3.2405    2.0469    0.5785 H   0  0  0  0  0  0  0  0  0  0  0  0
    2.2879    3.3724    0.5015 H   0  0  0  0  0  0  0  0  0  0  0  0
  1  5  1  0
  5  6  1  0
  5  7  2  0
  1  2  1  0
  1  3  1  0
  1  4  1  0
  8 12  1  0
 12 15  1  0
  8  9  1  0
  8 10  1  0
  8 11  1  0
 12 13  1  0
 12 14  1  0
 15 16  1  0
 15 17  1  0
 15 18  1  0
M  CHG  1   6  -1
M  END
>  <PDB_ID>  (499) 
pdb1j7d

>  <RESIDUE_NAME>  (499) 
GLU   VAL

>  <FRAG_NAME>  (499) 
ACET   PRPA

>  <FRAG_ATOM_NUM>  (499) 
fragi: 7  fragj: 11

>  <atom.prop.CHAIN_ID>  (499) 
A A A A A A A Z Z Z Z Z Z Z Z Z Z Z

>  <atom.prop.IS_HEAVY_ATOM>  (499) 
1 0 0 0 1 1 1 1 0 0 0 1 0 0 1 0 0 0

>  <DIFUSE_FUNC_ATOM>  (499) 
atom 6   atom 7   

>  <FINAL_SINGLE_POINT_ENERGY>  (499) 
0

>  <NONCOV_INTER_ENERGY_QM>  (499) 
0

>  <FF_Energy>  (499) 
17.66

>  <QM_Energy>  (499) 
2.44

>  <source>  (499) 
ACET_PRPA_04

>  <Index>  (499) 
36114

$$$$
ACET-pdb1j7d-B-GLU-60:PRPA-pdb1j7d-A-VAL-7
     RDKit          3D

 18 16  0  0  0  0  0  0  0  0999 V2000
   -0.0117    1.5222    0.0042 C   0  0  0  0  0  0  0  0  0  0  0  0
    0.9124    1.8201    0.1662 H   0  0  0  0  0  0  0  0  0  0  0  0
   -0.6227    1.8062    0.7208 H   0  0  0  0  0  0  0  0  0  0  0  0
   -0.3561    1.9445   -0.9398 H   0  0  0  0  0  0  0  0  0  0  0  0
    0.0000    0.0000    0.0000 C   0  0  0  0  0  0  0  0  0  0  0  0
   -1.0976   -0.5946   -0.0000 O   0  0  0  0  0  1  0  0  0  0  0  0
    1.0976   -0.6014   -0.0000 O   0  0  0  0  0  0  0  0  0  0  0  0
    0.9584    3.2456    2.7147 C   0  0  0  0  0  0  0  0  0  0  0  0
    0.4007    3.6072    1.9674 H   0  0  0  0  0  0  0  0  0  0  0  0
    0.3625    2.8308    3.4032 H   0  0  0  0  0  0  0  0  0  0  0  0
    1.4796    3.9908    3.1313 H   0  0  0  0  0  0  0  0  0  0  0  0
    1.9163    2.1961    2.1729 C   0  0  0  0  0  0  0  0  0  0  0  0
    1.3583    1.4599    1.8012 H   0  0  0  0  0  0  0  0  0  0  0  0
    2.5226    1.7851    2.9801 H   0  0  0  0  0  0  0  0  0  0  0  0
    2.8258    2.7870    1.1073 C   0  0  0  0  0  0  0  0  0  0  0  0
    3.5428    3.3277    1.5473 H   0  0  0  0  0  0  0  0  0  0  0  0
    3.2405    2.0469    0.5785 H   0  0  0  0  0  0  0  0  0  0  0  0
    2.2879    3.3724    0.5015 H   0  0  0  0  0  0  0  0  0  0  0  0
  1  5  1  0
  5  6  1  0
  5  7  2  0
  1  2  1  0
  1  3  1  0
  1  4  1  0
  8 12  1  0
 12 15  1  0
  8  9  1  0
  8 10  1  0
  8 11  1  0
 12 13  1  0
 12 14  1  0
 15 16  1  0
 15 17  1  0
 15 18  1  0
M  CHG  1   6  -1
M  END
>  <PDB_ID>  (500) 
pdb1j7d

>  <RESIDUE_NAME>  (500) 
GLU   VAL

>  <FRAG_NAME>  (500) 
ACET   PRPA

>  <FRAG_ATOM_NUM>  (500) 
fragi: 7  fragj: 11

>  <atom.prop.CHAIN_ID>  (500) 
A A A A A A A Z Z Z Z Z Z Z Z Z Z Z

>  <atom.prop.IS_HEAVY_ATOM>  (500) 
1 0 0 0 1 1 1 1 0 0 0 1 0 0 1 0 0 0

>  <DIFUSE_FUNC_ATOM>  (500) 
atom 6   atom 7   

>  <FINAL_SINGLE_POINT_ENERGY>  (500) 
0

>  <NONCOV_INTER_ENERGY_QM>  (500) 
0

>  <FF_Energy>  (500) 
17.81

>  <QM_Energy>  (500) 
1.91

>  <source>  (500) 
ACET_PRPA_04

>  <Index>  (500) 
36121

$$$$
ACET-pdb1j8b-A-GLU-32:PRPA-pdb1j8b-A-ARG-53
     RDKit          3D

 18 16  0  0  0  0  0  0  0  0999 V2000
    0.0471    1.5338    0.0089 C   0  0  0  0  0  0  0  0  0  0  0  0
    0.5097    1.8118   -0.8273 H   0  0  0  0  0  0  0  0  0  0  0  0
    0.5848    1.7998    0.8033 H   0  0  0  0  0  0  0  0  0  0  0  0
   -0.9168    2.0406    0.0562 H   0  0  0  0  0  0  0  0  0  0  0  0
    0.0000    0.0000    0.0000 C   0  0  0  0  0  0  0  0  0  0  0  0
   -1.0985   -0.6099   -0.0000 O   0  0  0  0  0  1  0  0  0  0  0  0
    1.0985   -0.6074    0.0000 O   0  0  0  0  0  0  0  0  0  0  0  0
    1.2784   -1.9476   -3.7608 C   0  0  0  0  0  0  0  0  0  0  0  0
    0.4527   -1.4217   -3.7759 H   0  0  0  0  0  0  0  0  0  0  0  0
    1.1953   -2.7718   -3.2384 H   0  0  0  0  0  0  0  0  0  0  0  0
    1.5554   -2.2023   -4.7838 H   0  0  0  0  0  0  0  0  0  0  0  0
    2.3777   -1.0614   -3.0528 C   0  0  0  0  0  0  0  0  0  0  0  0
    3.1491   -0.9841   -3.6491 H   0  0  0  0  0  0  0  0  0  0  0  0
    1.9812   -0.1977   -2.8212 H   0  0  0  0  0  0  0  0  0  0  0  0
    2.8370   -1.7576   -1.7414 C   0  0  0  0  0  0  0  0  0  0  0  0
    3.7899   -1.5246   -1.5976 H   0  0  0  0  0  0  0  0  0  0  0  0
    2.2738   -1.4064   -1.0042 H   0  0  0  0  0  0  0  0  0  0  0  0
    2.7327   -2.8415   -1.7926 H   0  0  0  0  0  0  0  0  0  0  0  0
  1  5  1  0
  5  6  1  0
  5  7  2  0
  1  2  1  0
  1  3  1  0
  1  4  1  0
  8 12  1  0
 12 15  1  0
  8  9  1  0
  8 10  1  0
  8 11  1  0
 12 13  1  0
 12 14  1  0
 15 16  1  0
 15 17  1  0
 15 18  1  0
M  CHG  1   6  -1
M  END
>  <PDB_ID>  (501) 
pdb1j8b

>  <RESIDUE_NAME>  (501) 
GLU   ARG

>  <FRAG_NAME>  (501) 
ACET   PRPA

>  <FRAG_ATOM_NUM>  (501) 
fragi: 7  fragj: 11

>  <atom.prop.CHAIN_ID>  (501) 
A A A A A A A Z Z Z Z Z Z Z Z Z Z Z

>  <atom.prop.IS_HEAVY_ATOM>  (501) 
1 0 0 0 1 1 1 1 0 0 0 1 0 0 1 0 0 0

>  <DIFUSE_FUNC_ATOM>  (501) 
atom 6   atom 7   

>  <FINAL_SINGLE_POINT_ENERGY>  (501) 
0

>  <NONCOV_INTER_ENERGY_QM>  (501) 
0

>  <FF_Energy>  (501) 
42.27

>  <QM_Energy>  (501) 
0.14

>  <source>  (501) 
ACET_PRPA_04

>  <Index>  (501) 
36298

$$$$
ACET-pdb1j31-A-GLU-15:PRPA-pdb1j31-A-LYS-18
     RDKit          3D

 18 16  0  0  0  0  0  0  0  0999 V2000
   -0.0096    1.5385   -0.0263 C   0  0  0  0  0  0  0  0  0  0  0  0
   -0.3817    1.8147   -0.8930 H   0  0  0  0  0  0  0  0  0  0  0  0
    0.9194    1.8389    0.0913 H   0  0  0  0  0  0  0  0  0  0  0  0
   -0.6140    1.9913    0.7597 H   0  0  0  0  0  0  0  0  0  0  0  0
    0.0000    0.0000    0.0000 C   0  0  0  0  0  0  0  0  0  0  0  0
   -1.0902   -0.6035   -0.0000 O   0  0  0  0  0  1  0  0  0  0  0  0
    1.0902   -0.6128    0.0000 O   0  0  0  0  0  0  0  0  0  0  0  0
   -3.9710   -0.3394    2.5909 C   0  0  0  0  0  0  0  0  0  0  0  0
   -4.7510   -0.8910    2.8792 H   0  0  0  0  0  0  0  0  0  0  0  0
   -4.2764    0.3863    1.9791 H   0  0  0  0  0  0  0  0  0  0  0  0
   -3.5067    0.1071    3.4701 H   0  0  0  0  0  0  0  0  0  0  0  0
   -2.9841   -1.2147    1.8697 C   0  0  0  0  0  0  0  0  0  0  0  0
   -2.2270   -0.6590    1.5417 H   0  0  0  0  0  0  0  0  0  0  0  0
   -2.6523   -1.9201    2.4878 H   0  0  0  0  0  0  0  0  0  0  0  0
   -3.6291   -1.8987    0.6694 C   0  0  0  0  0  0  0  0  0  0  0  0
   -4.4086   -2.4246    0.9752 H   0  0  0  0  0  0  0  0  0  0  0  0
   -3.8956   -1.2128    0.0091 H   0  0  0  0  0  0  0  0  0  0  0  0
   -2.8976   -2.5686    0.2176 H   0  0  0  0  0  0  0  0  0  0  0  0
  1  5  1  0
  5  6  1  0
  5  7  2  0
  1  2  1  0
  1  3  1  0
  1  4  1  0
  8 12  1  0
 12 15  1  0
  8  9  1  0
  8 10  1  0
  8 11  1  0
 12 13  1  0
 12 14  1  0
 15 16  1  0
 15 17  1  0
 15 18  1  0
M  CHG  1   6  -1
M  END
>  <PDB_ID>  (502) 
pdb1j31

>  <RESIDUE_NAME>  (502) 
GLU   LYS

>  <FRAG_NAME>  (502) 
ACET   PRPA

>  <FRAG_ATOM_NUM>  (502) 
fragi: 7  fragj: 11

>  <atom.prop.CHAIN_ID>  (502) 
A A A A A A A Z Z Z Z Z Z Z Z Z Z Z

>  <atom.prop.IS_HEAVY_ATOM>  (502) 
1 0 0 0 1 1 1 1 0 0 0 1 0 0 1 0 0 0

>  <DIFUSE_FUNC_ATOM>  (502) 
atom 6   atom 7   

>  <FINAL_SINGLE_POINT_ENERGY>  (502) 
0

>  <NONCOV_INTER_ENERGY_QM>  (502) 
0

>  <FF_Energy>  (502) 
16.79

>  <QM_Energy>  (502) 
-0.53

>  <source>  (502) 
ACET_PRPA_04

>  <Index>  (502) 
36382

$$$$
ACET-pdb2nzh-A-ASP-6:PRPA-pdb2nzh-B-LYS-9
     RDKit          3D

 18 16  0  0  0  0  0  0  0  0999 V2000
   -0.0333    1.5194    0.0383 C   0  0  0  0  0  0  0  0  0  0  0  0
   -0.8628    1.8072    0.5021 H   0  0  0  0  0  0  0  0  0  0  0  0
   -0.0173    1.8619   -0.8926 H   0  0  0  0  0  0  0  0  0  0  0  0
    0.8174    1.9448    0.5707 H   0  0  0  0  0  0  0  0  0  0  0  0
    0.0000    0.0000    0.0000 C   0  0  0  0  0  0  0  0  0  0  0  0
   -1.1025   -0.5687   -0.0000 O   0  0  0  0  0  1  0  0  0  0  0  0
    1.1025   -0.6062    0.0000 O   0  0  0  0  0  0  0  0  0  0  0  0
   -3.3593   -0.2084   -2.4524 C   0  0  0  0  0  0  0  0  0  0  0  0
   -2.5282    0.3563   -2.4637 H   0  0  0  0  0  0  0  0  0  0  0  0
   -3.7287   -0.2155   -1.5171 H   0  0  0  0  0  0  0  0  0  0  0  0
   -4.0964    0.2692   -3.0979 H   0  0  0  0  0  0  0  0  0  0  0  0
   -2.9742   -1.6315   -2.8256 C   0  0  0  0  0  0  0  0  0  0  0  0
   -3.7743   -2.1105   -3.1722 H   0  0  0  0  0  0  0  0  0  0  0  0
   -2.2580   -1.6114   -3.5160 H   0  0  0  0  0  0  0  0  0  0  0  0
   -2.4454   -2.3937   -1.5963 C   0  0  0  0  0  0  0  0  0  0  0  0
   -2.2405   -1.7340   -0.8809 H   0  0  0  0  0  0  0  0  0  0  0  0
   -3.1473   -3.0282   -1.2930 H   0  0  0  0  0  0  0  0  0  0  0  0
   -1.5397   -2.9560   -1.8234 H   0  0  0  0  0  0  0  0  0  0  0  0
  1  5  1  0
  5  6  1  0
  5  7  2  0
  1  2  1  0
  1  3  1  0
  1  4  1  0
  8 12  1  0
 12 15  1  0
  8  9  1  0
  8 10  1  0
  8 11  1  0
 12 13  1  0
 12 14  1  0
 15 16  1  0
 15 17  1  0
 15 18  1  0
M  CHG  1   6  -1
M  END
>  <PDB_ID>  (503) 
pdb2nzh

>  <RESIDUE_NAME>  (503) 
ASP   LYS

>  <FRAG_NAME>  (503) 
ACET   PRPA

>  <FRAG_ATOM_NUM>  (503) 
fragi: 7  fragj: 11

>  <atom.prop.CHAIN_ID>  (503) 
A A A A A A A Z Z Z Z Z Z Z Z Z Z Z

>  <atom.prop.IS_HEAVY_ATOM>  (503) 
1 0 0 0 1 1 1 1 0 0 0 1 0 0 1 0 0 0

>  <DIFUSE_FUNC_ATOM>  (503) 
atom 6   atom 7   

>  <FINAL_SINGLE_POINT_ENERGY>  (503) 
0

>  <NONCOV_INTER_ENERGY_QM>  (503) 
0

>  <FF_Energy>  (503) 
19.83

>  <QM_Energy>  (503) 
-0.24

>  <source>  (503) 
ACET_PRPA_04

>  <Index>  (503) 
37884

$$$$
ACET-pdb2nzh-A-ASP-6:PRPA-pdb2nzh-B-LYS-9
     RDKit          3D

 18 16  0  0  0  0  0  0  0  0999 V2000
   -0.0333    1.5194    0.0383 C   0  0  0  0  0  0  0  0  0  0  0  0
   -0.8628    1.8072    0.5021 H   0  0  0  0  0  0  0  0  0  0  0  0
   -0.0173    1.8619   -0.8926 H   0  0  0  0  0  0  0  0  0  0  0  0
    0.8174    1.9448    0.5707 H   0  0  0  0  0  0  0  0  0  0  0  0
    0.0000    0.0000    0.0000 C   0  0  0  0  0  0  0  0  0  0  0  0
   -1.1025   -0.5687   -0.0000 O   0  0  0  0  0  1  0  0  0  0  0  0
    1.1025   -0.6062    0.0000 O   0  0  0  0  0  0  0  0  0  0  0  0
   -2.9742   -1.6315   -2.8256 C   0  0  0  0  0  0  0  0  0  0  0  0
   -3.7743   -2.1105   -3.1722 H   0  0  0  0  0  0  0  0  0  0  0  0
   -2.2580   -1.6114   -3.5160 H   0  0  0  0  0  0  0  0  0  0  0  0
   -3.2502   -0.6115   -2.5581 H   0  0  0  0  0  0  0  0  0  0  0  0
   -2.4454   -2.3937   -1.5963 C   0  0  0  0  0  0  0  0  0  0  0  0
   -2.2405   -1.7340   -0.8809 H   0  0  0  0  0  0  0  0  0  0  0  0
   -3.1473   -3.0282   -1.2930 H   0  0  0  0  0  0  0  0  0  0  0  0
   -1.1771   -3.1812   -1.9143 C   0  0  0  0  0  0  0  0  0  0  0  0
   -1.4332   -4.0389   -2.3654 H   0  0  0  0  0  0  0  0  0  0  0  0
   -0.6075   -2.6402   -2.5365 H   0  0  0  0  0  0  0  0  0  0  0  0
   -0.6059   -3.4076   -1.0140 H   0  0  0  0  0  0  0  0  0  0  0  0
  1  5  1  0
  5  6  1  0
  5  7  2  0
  1  2  1  0
  1  3  1  0
  1  4  1  0
  8 12  1  0
 12 15  1  0
  8  9  1  0
  8 10  1  0
  8 11  1  0
 12 13  1  0
 12 14  1  0
 15 16  1  0
 15 17  1  0
 15 18  1  0
M  CHG  1   6  -1
M  END
>  <PDB_ID>  (504) 
pdb2nzh

>  <RESIDUE_NAME>  (504) 
ASP   LYS

>  <FRAG_NAME>  (504) 
ACET   PRPA

>  <FRAG_ATOM_NUM>  (504) 
fragi: 7  fragj: 11

>  <atom.prop.CHAIN_ID>  (504) 
A A A A A A A Z Z Z Z Z Z Z Z Z Z Z

>  <atom.prop.IS_HEAVY_ATOM>  (504) 
1 0 0 0 1 1 1 1 0 0 0 1 0 0 1 0 0 0

>  <DIFUSE_FUNC_ATOM>  (504) 
atom 6   atom 7   

>  <FINAL_SINGLE_POINT_ENERGY>  (504) 
0

>  <NONCOV_INTER_ENERGY_QM>  (504) 
0

>  <FF_Energy>  (504) 
22.98

>  <QM_Energy>  (504) 
-1.1

>  <source>  (504) 
ACET_PRPA_04

>  <Index>  (504) 
37894

$$$$
ACET-pdb1i4k-U-ASP-7:PRPA-pdb1i4k-U-ARG-4
     RDKit          3D

 18 16  0  0  0  0  0  0  0  0999 V2000
   -0.0078    1.5138    0.0132 C   0  0  0  0  0  0  0  0  0  0  0  0
    0.9254    1.8409   -0.0795 H   0  0  0  0  0  0  0  0  0  0  0  0
   -0.4027    1.8260    0.8696 H   0  0  0  0  0  0  0  0  0  0  0  0
   -0.5943    1.9383   -0.8016 H   0  0  0  0  0  0  0  0  0  0  0  0
    0.0000    0.0000    0.0000 C   0  0  0  0  0  0  0  0  0  0  0  0
   -1.0976   -0.5953    0.0000 O   0  0  0  0  0  1  0  0  0  0  0  0
    1.0976   -0.5947   -0.0000 O   0  0  0  0  0  0  0  0  0  0  0  0
    4.4516    0.8712   -1.3399 C   0  0  0  0  0  0  0  0  0  0  0  0
    5.2484    0.7375   -1.9312 H   0  0  0  0  0  0  0  0  0  0  0  0
    4.7900    0.9921   -0.3109 H   0  0  0  0  0  0  0  0  0  0  0  0
    3.9266    1.7701   -1.6633 H   0  0  0  0  0  0  0  0  0  0  0  0
    3.5168   -0.3355   -1.4748 C   0  0  0  0  0  0  0  0  0  0  0  0
    2.8285   -0.2784   -0.7493 H   0  0  0  0  0  0  0  0  0  0  0  0
    3.0624   -0.2781   -2.3653 H   0  0  0  0  0  0  0  0  0  0  0  0
    4.1872   -1.6991   -1.3781 C   0  0  0  0  0  0  0  0  0  0  0  0
    5.0048   -1.7097   -1.9377 H   0  0  0  0  0  0  0  0  0  0  0  0
    4.4021   -1.8988   -0.4315 H   0  0  0  0  0  0  0  0  0  0  0  0
    3.5178   -2.4782   -1.7428 H   0  0  0  0  0  0  0  0  0  0  0  0
  1  5  1  0
  5  6  1  0
  5  7  2  0
  1  2  1  0
  1  3  1  0
  1  4  1  0
  8 12  1  0
 12 15  1  0
  8  9  1  0
  8 10  1  0
  8 11  1  0
 12 13  1  0
 12 14  1  0
 15 16  1  0
 15 17  1  0
 15 18  1  0
M  CHG  1   6  -1
M  END
>  <PDB_ID>  (505) 
pdb1i4k

>  <RESIDUE_NAME>  (505) 
ASP   ARG

>  <FRAG_NAME>  (505) 
ACET   PRPA

>  <FRAG_ATOM_NUM>  (505) 
fragi: 7  fragj: 11

>  <atom.prop.CHAIN_ID>  (505) 
A A A A A A A Z Z Z Z Z Z Z Z Z Z Z

>  <atom.prop.IS_HEAVY_ATOM>  (505) 
1 0 0 0 1 1 1 1 0 0 0 1 0 0 1 0 0 0

>  <DIFUSE_FUNC_ATOM>  (505) 
atom 6   atom 7   

>  <FINAL_SINGLE_POINT_ENERGY>  (505) 
0

>  <NONCOV_INTER_ENERGY_QM>  (505) 
0

>  <FF_Energy>  (505) 
14.19

>  <QM_Energy>  (505) 
-0.84

>  <source>  (505) 
ACET_PRPA_04

>  <Index>  (505) 
38030

$$$$
ACET-pdb2jlm-E-GLU-123:PRPA-pdb2jlm-E-PRO-176
     RDKit          3D

 18 16  0  0  0  0  0  0  0  0999 V2000
    0.2610    1.5019    0.0150 C   0  0  0  0  0  0  0  0  0  0  0  0
    0.7594    1.7246   -0.8025 H   0  0  0  0  0  0  0  0  0  0  0  0
    0.7702    1.7062    0.8301 H   0  0  0  0  0  0  0  0  0  0  0  0
   -0.6528    2.0961    0.0268 H   0  0  0  0  0  0  0  0  0  0  0  0
    0.0000    0.0000    0.0000 C   0  0  0  0  0  0  0  0  0  0  0  0
   -1.0852   -0.5248   -0.0000 O   0  0  0  0  0  1  0  0  0  0  0  0
    1.0852   -0.6408    0.0000 O   0  0  0  0  0  0  0  0  0  0  0  0
   -3.5449   -1.5565   -0.4261 C   0  0  0  0  0  0  0  0  0  0  0  0
   -2.7537   -1.3763   -1.0100 H   0  0  0  0  0  0  0  0  0  0  0  0
   -4.4597   -1.1771   -0.8812 H   0  0  0  0  0  0  0  0  0  0  0  0
   -3.6550   -2.6238   -0.2342 H   0  0  0  0  0  0  0  0  0  0  0  0
   -3.4873   -0.8270    0.9192 C   0  0  0  0  0  0  0  0  0  0  0  0
   -3.3463   -1.4797    1.6737 H   0  0  0  0  0  0  0  0  0  0  0  0
   -2.7328   -0.1601    0.9332 H   0  0  0  0  0  0  0  0  0  0  0  0
   -4.8159   -0.1238    1.0716 C   0  0  0  0  0  0  0  0  0  0  0  0
   -5.2132   -0.3393    1.9847 H   0  0  0  0  0  0  0  0  0  0  0  0
   -4.6718    0.8842    1.0494 H   0  0  0  0  0  0  0  0  0  0  0  0
   -5.4760   -0.4470    0.2667 H   0  0  0  0  0  0  0  0  0  0  0  0
  1  5  1  0
  5  6  1  0
  5  7  2  0
  1  2  1  0
  1  3  1  0
  1  4  1  0
  8 12  1  0
 12 15  1  0
  8  9  1  0
  8 10  1  0
  8 11  1  0
 12 13  1  0
 12 14  1  0
 15 16  1  0
 15 17  1  0
 15 18  1  0
M  CHG  1   6  -1
M  END
>  <PDB_ID>  (506) 
pdb2jlm

>  <RESIDUE_NAME>  (506) 
GLU   PRO

>  <FRAG_NAME>  (506) 
ACET   PRPA

>  <FRAG_ATOM_NUM>  (506) 
fragi: 7  fragj: 11

>  <atom.prop.CHAIN_ID>  (506) 
A A A A A A A Z Z Z Z Z Z Z Z Z Z Z

>  <atom.prop.IS_HEAVY_ATOM>  (506) 
1 0 0 0 1 1 1 1 0 0 0 1 0 0 1 0 0 0

>  <DIFUSE_FUNC_ATOM>  (506) 
atom 6   atom 7   

>  <FINAL_SINGLE_POINT_ENERGY>  (506) 
0

>  <NONCOV_INTER_ENERGY_QM>  (506) 
0

>  <FF_Energy>  (506) 
24.34

>  <QM_Energy>  (506) 
2.81

>  <source>  (506) 
ACET_PRPA_04

>  <Index>  (506) 
38448

$$$$
ACET-pdb1j36-A-GLU-148:PRPA-pdb1j36-A-LEU-143
     RDKit          3D

 18 16  0  0  0  0  0  0  0  0999 V2000
   -0.0035    1.5194   -0.0163 C   0  0  0  0  0  0  0  0  0  0  0  0
   -0.2991    1.8029   -0.9094 H   0  0  0  0  0  0  0  0  0  0  0  0
    0.9106    1.8170    0.1870 H   0  0  0  0  0  0  0  0  0  0  0  0
   -0.6815    1.9433    0.7244 H   0  0  0  0  0  0  0  0  0  0  0  0
    0.0000    0.0000    0.0000 C   0  0  0  0  0  0  0  0  0  0  0  0
   -1.0997   -0.6067   -0.0000 O   0  0  0  0  0  1  0  0  0  0  0  0
    1.0997   -0.5895   -0.0000 O   0  0  0  0  0  0  0  0  0  0  0  0
   -3.5378    2.4184   -1.5456 C   0  0  0  0  0  0  0  0  0  0  0  0
   -4.5112    2.7259   -1.4890 H   0  0  0  0  0  0  0  0  0  0  0  0
   -3.1698    2.4622   -0.5947 H   0  0  0  0  0  0  0  0  0  0  0  0
   -3.5438    1.3704   -1.8453 H   0  0  0  0  0  0  0  0  0  0  0  0
   -2.7900    3.4871   -2.3537 C   0  0  0  0  0  0  0  0  0  0  0  0
   -3.1805    3.5447   -3.2584 H   0  0  0  0  0  0  0  0  0  0  0  0
   -2.9144    4.4443   -1.8474 H   0  0  0  0  0  0  0  0  0  0  0  0
   -1.2991    3.1405   -2.4914 C   0  0  0  0  0  0  0  0  0  0  0  0
   -1.2087    2.2628   -2.9593 H   0  0  0  0  0  0  0  0  0  0  0  0
   -0.8452    3.8545   -3.0209 H   0  0  0  0  0  0  0  0  0  0  0  0
   -0.8919    3.0822   -1.5818 H   0  0  0  0  0  0  0  0  0  0  0  0
  1  5  1  0
  5  6  1  0
  5  7  2  0
  1  2  1  0
  1  3  1  0
  1  4  1  0
  8 12  1  0
 12 15  1  0
  8  9  1  0
  8 10  1  0
  8 11  1  0
 12 13  1  0
 12 14  1  0
 15 16  1  0
 15 17  1  0
 15 18  1  0
M  CHG  1   6  -1
M  END
>  <PDB_ID>  (507) 
pdb1j36

>  <RESIDUE_NAME>  (507) 
GLU   LEU

>  <FRAG_NAME>  (507) 
ACET   PRPA

>  <FRAG_ATOM_NUM>  (507) 
fragi: 7  fragj: 11

>  <atom.prop.CHAIN_ID>  (507) 
A A A A A A A Z Z Z Z Z Z Z Z Z Z Z

>  <atom.prop.IS_HEAVY_ATOM>  (507) 
1 0 0 0 1 1 1 1 0 0 0 1 0 0 1 0 0 0

>  <DIFUSE_FUNC_ATOM>  (507) 
atom 6   atom 7   

>  <FINAL_SINGLE_POINT_ENERGY>  (507) 
0

>  <NONCOV_INTER_ENERGY_QM>  (507) 
0

>  <FF_Energy>  (507) 
19.64

>  <QM_Energy>  (507) 
3.76

>  <source>  (507) 
ACET_PRPA_04

>  <Index>  (507) 
38494

$$$$
ACET-pdb1j79-A-GLU-95:PRPA-pdb1j79-A-ARG-91
     RDKit          3D

 18 16  0  0  0  0  0  0  0  0999 V2000
    0.2595    1.4674   -0.0492 C   0  0  0  0  0  0  0  0  0  0  0  0
    0.8763    1.6482   -0.7887 H   0  0  0  0  0  0  0  0  0  0  0  0
    0.6142    1.7474    0.8198 H   0  0  0  0  0  0  0  0  0  0  0  0
   -0.6574    2.0269   -0.2343 H   0  0  0  0  0  0  0  0  0  0  0  0
    0.0000    0.0000    0.0000 C   0  0  0  0  0  0  0  0  0  0  0  0
   -1.1172   -0.5110    0.0000 O   0  0  0  0  0  1  0  0  0  0  0  0
    1.1172   -0.6548   -0.0000 O   0  0  0  0  0  0  0  0  0  0  0  0
    3.7139    0.3763    3.2327 C   0  0  0  0  0  0  0  0  0  0  0  0
    4.3815    0.2084    3.9667 H   0  0  0  0  0  0  0  0  0  0  0  0
    2.8120    0.0580    3.5455 H   0  0  0  0  0  0  0  0  0  0  0  0
    3.6530    1.4533    3.0762 H   0  0  0  0  0  0  0  0  0  0  0  0
    4.1177   -0.4775    2.0306 C   0  0  0  0  0  0  0  0  0  0  0  0
    4.2087    0.1126    1.2214 H   0  0  0  0  0  0  0  0  0  0  0  0
    5.0075   -0.9083    2.2150 H   0  0  0  0  0  0  0  0  0  0  0  0
    3.1220   -1.5883    1.6921 C   0  0  0  0  0  0  0  0  0  0  0  0
    2.2440   -1.1452    1.4446 H   0  0  0  0  0  0  0  0  0  0  0  0
    3.4650   -2.0609    0.8626 H   0  0  0  0  0  0  0  0  0  0  0  0
    2.9373   -2.3292    2.4700 H   0  0  0  0  0  0  0  0  0  0  0  0
  1  5  1  0
  5  6  1  0
  5  7  2  0
  1  2  1  0
  1  3  1  0
  1  4  1  0
  8 12  1  0
 12 15  1  0
  8  9  1  0
  8 10  1  0
  8 11  1  0
 12 13  1  0
 12 14  1  0
 15 16  1  0
 15 17  1  0
 15 18  1  0
M  CHG  1   6  -1
M  END
>  <PDB_ID>  (508) 
pdb1j79

>  <RESIDUE_NAME>  (508) 
GLU   ARG

>  <FRAG_NAME>  (508) 
ACET   PRPA

>  <FRAG_ATOM_NUM>  (508) 
fragi: 7  fragj: 11

>  <atom.prop.CHAIN_ID>  (508) 
A A A A A A A Z Z Z Z Z Z Z Z Z Z Z

>  <atom.prop.IS_HEAVY_ATOM>  (508) 
1 0 0 0 1 1 1 1 0 0 0 1 0 0 1 0 0 0

>  <DIFUSE_FUNC_ATOM>  (508) 
atom 6   atom 7   

>  <FINAL_SINGLE_POINT_ENERGY>  (508) 
0

>  <NONCOV_INTER_ENERGY_QM>  (508) 
0

>  <FF_Energy>  (508) 
28.78

>  <QM_Energy>  (508) 
-0.78

>  <source>  (508) 
ACET_PRPA_04

>  <Index>  (508) 
38744

$$$$
ACET-pdb1izn-C-ASP-72:PRPA-pdb1izn-C-ILE-67
     RDKit          3D

 18 16  0  0  0  0  0  0  0  0999 V2000
   -0.0748    1.5536    0.1392 C   0  0  0  0  0  0  0  0  0  0  0  0
   -0.5416    1.8873   -0.6535 H   0  0  0  0  0  0  0  0  0  0  0  0
    0.8452    1.8770    0.2078 H   0  0  0  0  0  0  0  0  0  0  0  0
   -0.6353    1.7904    1.0436 H   0  0  0  0  0  0  0  0  0  0  0  0
    0.0000    0.0000    0.0000 C   0  0  0  0  0  0  0  0  0  0  0  0
   -1.1001   -0.5754   -0.0000 O   0  0  0  0  0  1  0  0  0  0  0  0
    1.1001   -0.6263    0.0000 O   0  0  0  0  0  0  0  0  0  0  0  0
   -0.3395   -1.8819   -2.6667 C   0  0  0  0  0  0  0  0  0  0  0  0
   -0.6610   -2.2628   -3.5290 H   0  0  0  0  0  0  0  0  0  0  0  0
   -1.1975   -1.8818   -1.9943 H   0  0  0  0  0  0  0  0  0  0  0  0
    0.4051   -2.5743   -2.2740 H   0  0  0  0  0  0  0  0  0  0  0  0
    0.2753   -0.4832   -2.8080 C   0  0  0  0  0  0  0  0  0  0  0  0
    0.5145   -0.1585   -1.9036 H   0  0  0  0  0  0  0  0  0  0  0  0
    1.1452   -0.5223   -3.4636 H   0  0  0  0  0  0  0  0  0  0  0  0
   -0.7674    0.4697   -3.3937 C   0  0  0  0  0  0  0  0  0  0  0  0
   -1.0416    0.1231   -4.2927 H   0  0  0  0  0  0  0  0  0  0  0  0
   -1.5727    0.4551   -2.7963 H   0  0  0  0  0  0  0  0  0  0  0  0
   -0.4301    1.5007   -3.4998 H   0  0  0  0  0  0  0  0  0  0  0  0
  1  5  1  0
  5  6  1  0
  5  7  2  0
  1  2  1  0
  1  3  1  0
  1  4  1  0
  8 12  1  0
 12 15  1  0
  8  9  1  0
  8 10  1  0
  8 11  1  0
 12 13  1  0
 12 14  1  0
 15 16  1  0
 15 17  1  0
 15 18  1  0
M  CHG  1   6  -1
M  END
>  <PDB_ID>  (509) 
pdb1izn

>  <RESIDUE_NAME>  (509) 
ASP   ILE

>  <FRAG_NAME>  (509) 
ACET   PRPA

>  <FRAG_ATOM_NUM>  (509) 
fragi: 7  fragj: 11

>  <atom.prop.CHAIN_ID>  (509) 
A A A A A A A Z Z Z Z Z Z Z Z Z Z Z

>  <atom.prop.IS_HEAVY_ATOM>  (509) 
1 0 0 0 1 1 1 1 0 0 0 1 0 0 1 0 0 0

>  <DIFUSE_FUNC_ATOM>  (509) 
atom 6   atom 7   

>  <FINAL_SINGLE_POINT_ENERGY>  (509) 
0

>  <NONCOV_INTER_ENERGY_QM>  (509) 
0

>  <FF_Energy>  (509) 
34.99

>  <QM_Energy>  (509) 
0.92

>  <source>  (509) 
ACET_PRPA_04

>  <Index>  (509) 
39566

$$$$
ACET-pdb1izn-C-ASP-72:PRPA-pdb1izn-C-ILE-67
     RDKit          3D

 18 16  0  0  0  0  0  0  0  0999 V2000
   -0.0748    1.5536    0.1392 C   0  0  0  0  0  0  0  0  0  0  0  0
   -0.5416    1.8873   -0.6535 H   0  0  0  0  0  0  0  0  0  0  0  0
    0.8452    1.8770    0.2078 H   0  0  0  0  0  0  0  0  0  0  0  0
   -0.6353    1.7904    1.0436 H   0  0  0  0  0  0  0  0  0  0  0  0
    0.0000    0.0000    0.0000 C   0  0  0  0  0  0  0  0  0  0  0  0
   -1.1001   -0.5754   -0.0000 O   0  0  0  0  0  1  0  0  0  0  0  0
    1.1001   -0.6263    0.0000 O   0  0  0  0  0  0  0  0  0  0  0  0
   -0.3395   -1.8819   -2.6667 C   0  0  0  0  0  0  0  0  0  0  0  0
   -0.6610   -2.2628   -3.5290 H   0  0  0  0  0  0  0  0  0  0  0  0
   -1.1975   -1.8818   -1.9943 H   0  0  0  0  0  0  0  0  0  0  0  0
    0.4051   -2.5743   -2.2740 H   0  0  0  0  0  0  0  0  0  0  0  0
    0.2753   -0.4832   -2.8080 C   0  0  0  0  0  0  0  0  0  0  0  0
    0.5145   -0.1585   -1.9036 H   0  0  0  0  0  0  0  0  0  0  0  0
   -0.4680    0.1960   -3.2254 H   0  0  0  0  0  0  0  0  0  0  0  0
    1.4832   -0.5375   -3.7183 C   0  0  0  0  0  0  0  0  0  0  0  0
    1.8826    0.3755   -3.8043 H   0  0  0  0  0  0  0  0  0  0  0  0
    2.1658   -1.1602   -3.3365 H   0  0  0  0  0  0  0  0  0  0  0  0
    1.2098   -0.8638   -4.6234 H   0  0  0  0  0  0  0  0  0  0  0  0
  1  5  1  0
  5  6  1  0
  5  7  2  0
  1  2  1  0
  1  3  1  0
  1  4  1  0
  8 12  1  0
 12 15  1  0
  8  9  1  0
  8 10  1  0
  8 11  1  0
 12 13  1  0
 12 14  1  0
 15 16  1  0
 15 17  1  0
 15 18  1  0
M  CHG  1   6  -1
M  END
>  <PDB_ID>  (510) 
pdb1izn

>  <RESIDUE_NAME>  (510) 
ASP   ILE

>  <FRAG_NAME>  (510) 
ACET   PRPA

>  <FRAG_ATOM_NUM>  (510) 
fragi: 7  fragj: 11

>  <atom.prop.CHAIN_ID>  (510) 
A A A A A A A Z Z Z Z Z Z Z Z Z Z Z

>  <atom.prop.IS_HEAVY_ATOM>  (510) 
1 0 0 0 1 1 1 1 0 0 0 1 0 0 1 0 0 0

>  <DIFUSE_FUNC_ATOM>  (510) 
atom 6   atom 7   

>  <FINAL_SINGLE_POINT_ENERGY>  (510) 
0

>  <NONCOV_INTER_ENERGY_QM>  (510) 
0

>  <FF_Energy>  (510) 
34.9

>  <QM_Energy>  (510) 
1.58

>  <source>  (510) 
ACET_PRPA_04

>  <Index>  (510) 
39578

$$$$
ACET-pdb1izn-C-ASP-72:PRPA-pdb1izn-C-ILE-67
     RDKit          3D

 18 16  0  0  0  0  0  0  0  0999 V2000
   -0.0748    1.5536    0.1392 C   0  0  0  0  0  0  0  0  0  0  0  0
   -0.5416    1.8873   -0.6535 H   0  0  0  0  0  0  0  0  0  0  0  0
    0.8452    1.8770    0.2078 H   0  0  0  0  0  0  0  0  0  0  0  0
   -0.6353    1.7904    1.0436 H   0  0  0  0  0  0  0  0  0  0  0  0
    0.0000    0.0000    0.0000 C   0  0  0  0  0  0  0  0  0  0  0  0
   -1.1001   -0.5754   -0.0000 O   0  0  0  0  0  1  0  0  0  0  0  0
    1.1001   -0.6263    0.0000 O   0  0  0  0  0  0  0  0  0  0  0  0
    0.2753   -0.4832   -2.8080 C   0  0  0  0  0  0  0  0  0  0  0  0
    0.5145   -0.1585   -1.9036 H   0  0  0  0  0  0  0  0  0  0  0  0
   -0.1615   -1.4769   -2.7076 H   0  0  0  0  0  0  0  0  0  0  0  0
    1.1452   -0.5223   -3.4636 H   0  0  0  0  0  0  0  0  0  0  0  0
   -0.7674    0.4697   -3.3937 C   0  0  0  0  0  0  0  0  0  0  0  0
   -1.0416    0.1231   -4.2927 H   0  0  0  0  0  0  0  0  0  0  0  0
   -1.5727    0.4551   -2.7963 H   0  0  0  0  0  0  0  0  0  0  0  0
   -0.2999    1.8988   -3.5408 C   0  0  0  0  0  0  0  0  0  0  0  0
    0.4938    1.9278   -4.1479 H   0  0  0  0  0  0  0  0  0  0  0  0
   -1.0367    2.4511   -3.9278 H   0  0  0  0  0  0  0  0  0  0  0  0
   -0.0480    2.2600   -2.6435 H   0  0  0  0  0  0  0  0  0  0  0  0
  1  5  1  0
  5  6  1  0
  5  7  2  0
  1  2  1  0
  1  3  1  0
  1  4  1  0
  8 12  1  0
 12 15  1  0
  8  9  1  0
  8 10  1  0
  8 11  1  0
 12 13  1  0
 12 14  1  0
 15 16  1  0
 15 17  1  0
 15 18  1  0
M  CHG  1   6  -1
M  END
>  <PDB_ID>  (511) 
pdb1izn

>  <RESIDUE_NAME>  (511) 
ASP   ILE

>  <FRAG_NAME>  (511) 
ACET   PRPA

>  <FRAG_ATOM_NUM>  (511) 
fragi: 7  fragj: 11

>  <atom.prop.CHAIN_ID>  (511) 
A A A A A A A Z Z Z Z Z Z Z Z Z Z Z

>  <atom.prop.IS_HEAVY_ATOM>  (511) 
1 0 0 0 1 1 1 1 0 0 0 1 0 0 1 0 0 0

>  <DIFUSE_FUNC_ATOM>  (511) 
atom 6   atom 7   

>  <FINAL_SINGLE_POINT_ENERGY>  (511) 
0

>  <NONCOV_INTER_ENERGY_QM>  (511) 
0

>  <FF_Energy>  (511) 
29.48

>  <QM_Energy>  (511) 
2.39

>  <source>  (511) 
ACET_PRPA_04

>  <Index>  (511) 
39583

$$$$
ACET-pdb1izn-C-ASP-72:PRPA-pdb1izn-C-ILE-67
     RDKit          3D

 18 16  0  0  0  0  0  0  0  0999 V2000
   -0.0748    1.5536    0.1392 C   0  0  0  0  0  0  0  0  0  0  0  0
   -0.5416    1.8873   -0.6535 H   0  0  0  0  0  0  0  0  0  0  0  0
    0.8452    1.8770    0.2078 H   0  0  0  0  0  0  0  0  0  0  0  0
   -0.6353    1.7904    1.0436 H   0  0  0  0  0  0  0  0  0  0  0  0
    0.0000    0.0000    0.0000 C   0  0  0  0  0  0  0  0  0  0  0  0
   -1.1001   -0.5754   -0.0000 O   0  0  0  0  0  1  0  0  0  0  0  0
    1.1001   -0.6263    0.0000 O   0  0  0  0  0  0  0  0  0  0  0  0
   -0.7674    0.4697   -3.3937 C   0  0  0  0  0  0  0  0  0  0  0  0
   -1.0416    0.1231   -4.2927 H   0  0  0  0  0  0  0  0  0  0  0  0
   -1.5727    0.4551   -2.7963 H   0  0  0  0  0  0  0  0  0  0  0  0
   -0.4301    1.5007   -3.4998 H   0  0  0  0  0  0  0  0  0  0  0  0
    0.2753   -0.4832   -2.8080 C   0  0  0  0  0  0  0  0  0  0  0  0
    0.5145   -0.1585   -1.9036 H   0  0  0  0  0  0  0  0  0  0  0  0
   -0.1615   -1.4769   -2.7076 H   0  0  0  0  0  0  0  0  0  0  0  0
    1.4832   -0.5375   -3.7183 C   0  0  0  0  0  0  0  0  0  0  0  0
    1.8826    0.3755   -3.8043 H   0  0  0  0  0  0  0  0  0  0  0  0
    2.1658   -1.1602   -3.3365 H   0  0  0  0  0  0  0  0  0  0  0  0
    1.2098   -0.8638   -4.6234 H   0  0  0  0  0  0  0  0  0  0  0  0
  1  5  1  0
  5  6  1  0
  5  7  2  0
  1  2  1  0
  1  3  1  0
  1  4  1  0
  8 12  1  0
 12 15  1  0
  8  9  1  0
  8 10  1  0
  8 11  1  0
 12 13  1  0
 12 14  1  0
 15 16  1  0
 15 17  1  0
 15 18  1  0
M  CHG  1   6  -1
M  END
>  <PDB_ID>  (512) 
pdb1izn

>  <RESIDUE_NAME>  (512) 
ASP   ILE

>  <FRAG_NAME>  (512) 
ACET   PRPA

>  <FRAG_ATOM_NUM>  (512) 
fragi: 7  fragj: 11

>  <atom.prop.CHAIN_ID>  (512) 
A A A A A A A Z Z Z Z Z Z Z Z Z Z Z

>  <atom.prop.IS_HEAVY_ATOM>  (512) 
1 0 0 0 1 1 1 1 0 0 0 1 0 0 1 0 0 0

>  <DIFUSE_FUNC_ATOM>  (512) 
atom 6   atom 7   

>  <FINAL_SINGLE_POINT_ENERGY>  (512) 
0

>  <NONCOV_INTER_ENERGY_QM>  (512) 
0

>  <FF_Energy>  (512) 
32.56

>  <QM_Energy>  (512) 
1.59

>  <source>  (512) 
ACET_PRPA_04

>  <Index>  (512) 
39589

$$$$
ACET-pdb1izn-C-ASP-107:PRPA-pdb1izn-C-LYS-97
     RDKit          3D

 18 16  0  0  0  0  0  0  0  0999 V2000
    0.0066    1.5132   -0.0037 C   0  0  0  0  0  0  0  0  0  0  0  0
   -0.4082    1.8396    0.8379 H   0  0  0  0  0  0  0  0  0  0  0  0
   -0.5029    1.8361   -0.7921 H   0  0  0  0  0  0  0  0  0  0  0  0
    1.0132    1.9274   -0.0627 H   0  0  0  0  0  0  0  0  0  0  0  0
    0.0000    0.0000    0.0000 C   0  0  0  0  0  0  0  0  0  0  0  0
   -1.1002   -0.5947   -0.0000 O   0  0  0  0  0  1  0  0  0  0  0  0
    1.1002   -0.5943    0.0000 O   0  0  0  0  0  0  0  0  0  0  0  0
   -2.2388    3.7506    2.8397 C   0  0  0  0  0  0  0  0  0  0  0  0
   -3.2055    3.9743    2.8834 H   0  0  0  0  0  0  0  0  0  0  0  0
   -1.7408    4.4524    2.1707 H   0  0  0  0  0  0  0  0  0  0  0  0
   -1.7977    3.8809    3.8278 H   0  0  0  0  0  0  0  0  0  0  0  0
   -1.9855    2.3170    2.3718 C   0  0  0  0  0  0  0  0  0  0  0  0
   -2.4792    2.1792    1.5111 H   0  0  0  0  0  0  0  0  0  0  0  0
   -1.0023    2.2149    2.2049 H   0  0  0  0  0  0  0  0  0  0  0  0
   -2.4198    1.2430    3.3482 C   0  0  0  0  0  0  0  0  0  0  0  0
   -1.9905    1.4092    4.2334 H   0  0  0  0  0  0  0  0  0  0  0  0
   -3.4125    1.2650    3.4444 H   0  0  0  0  0  0  0  0  0  0  0  0
   -2.1239    0.2551    2.9953 H   0  0  0  0  0  0  0  0  0  0  0  0
  1  5  1  0
  5  6  1  0
  5  7  2  0
  1  2  1  0
  1  3  1  0
  1  4  1  0
  8 12  1  0
 12 15  1  0
  8  9  1  0
  8 10  1  0
  8 11  1  0
 12 13  1  0
 12 14  1  0
 15 16  1  0
 15 17  1  0
 15 18  1  0
M  CHG  1   6  -1
M  END
>  <PDB_ID>  (513) 
pdb1izn

>  <RESIDUE_NAME>  (513) 
ASP   LYS

>  <FRAG_NAME>  (513) 
ACET   PRPA

>  <FRAG_ATOM_NUM>  (513) 
fragi: 7  fragj: 11

>  <atom.prop.CHAIN_ID>  (513) 
A A A A A A A Z Z Z Z Z Z Z Z Z Z Z

>  <atom.prop.IS_HEAVY_ATOM>  (513) 
1 0 0 0 1 1 1 1 0 0 0 1 0 0 1 0 0 0

>  <DIFUSE_FUNC_ATOM>  (513) 
atom 6   atom 7   

>  <FINAL_SINGLE_POINT_ENERGY>  (513) 
0

>  <NONCOV_INTER_ENERGY_QM>  (513) 
0

>  <FF_Energy>  (513) 
24.93

>  <QM_Energy>  (513) 
3.06

>  <source>  (513) 
ACET_PRPA_05

>  <Index>  (513) 
111

$$$$
ACET-pdb1izn-C-ASP-107:PRPA-pdb1izn-C-LYS-97
     RDKit          3D

 18 16  0  0  0  0  0  0  0  0999 V2000
    0.0066    1.5132   -0.0037 C   0  0  0  0  0  0  0  0  0  0  0  0
   -0.4082    1.8396    0.8379 H   0  0  0  0  0  0  0  0  0  0  0  0
   -0.5029    1.8361   -0.7921 H   0  0  0  0  0  0  0  0  0  0  0  0
    1.0132    1.9274   -0.0627 H   0  0  0  0  0  0  0  0  0  0  0  0
    0.0000    0.0000    0.0000 C   0  0  0  0  0  0  0  0  0  0  0  0
   -1.1002   -0.5947   -0.0000 O   0  0  0  0  0  1  0  0  0  0  0  0
    1.1002   -0.5943    0.0000 O   0  0  0  0  0  0  0  0  0  0  0  0
   -1.9855    2.3170    2.3718 C   0  0  0  0  0  0  0  0  0  0  0  0
   -2.4792    2.1792    1.5111 H   0  0  0  0  0  0  0  0  0  0  0  0
   -1.0023    2.2149    2.2049 H   0  0  0  0  0  0  0  0  0  0  0  0
   -2.1661    3.3389    2.7053 H   0  0  0  0  0  0  0  0  0  0  0  0
   -2.4198    1.2430    3.3482 C   0  0  0  0  0  0  0  0  0  0  0  0
   -1.9905    1.4092    4.2334 H   0  0  0  0  0  0  0  0  0  0  0  0
   -3.4125    1.2650    3.4444 H   0  0  0  0  0  0  0  0  0  0  0  0
   -2.0063   -0.1376    2.8550 C   0  0  0  0  0  0  0  0  0  0  0  0
   -2.4051   -0.2911    1.9562 H   0  0  0  0  0  0  0  0  0  0  0  0
   -1.0129   -0.1774    2.8028 H   0  0  0  0  0  0  0  0  0  0  0  0
   -2.3491   -0.9263    3.5247 H   0  0  0  0  0  0  0  0  0  0  0  0
  1  5  1  0
  5  6  1  0
  5  7  2  0
  1  2  1  0
  1  3  1  0
  1  4  1  0
  8 12  1  0
 12 15  1  0
  8  9  1  0
  8 10  1  0
  8 11  1  0
 12 13  1  0
 12 14  1  0
 15 16  1  0
 15 17  1  0
 15 18  1  0
M  CHG  1   6  -1
M  END
>  <PDB_ID>  (514) 
pdb1izn

>  <RESIDUE_NAME>  (514) 
ASP   LYS

>  <FRAG_NAME>  (514) 
ACET   PRPA

>  <FRAG_ATOM_NUM>  (514) 
fragi: 7  fragj: 11

>  <atom.prop.CHAIN_ID>  (514) 
A A A A A A A Z Z Z Z Z Z Z Z Z Z Z

>  <atom.prop.IS_HEAVY_ATOM>  (514) 
1 0 0 0 1 1 1 1 0 0 0 1 0 0 1 0 0 0

>  <DIFUSE_FUNC_ATOM>  (514) 
atom 6   atom 7   

>  <FINAL_SINGLE_POINT_ENERGY>  (514) 
0

>  <NONCOV_INTER_ENERGY_QM>  (514) 
0

>  <FF_Energy>  (514) 
24.09

>  <QM_Energy>  (514) 
3.34

>  <source>  (514) 
ACET_PRPA_05

>  <Index>  (514) 
120

$$$$
ACET-pdb1j0a-B-GLU-247:PRPA-pdb1j0a-B-ARG-210
     RDKit          3D

 18 16  0  0  0  0  0  0  0  0999 V2000
   -0.0008    1.5260   -0.0224 C   0  0  0  0  0  0  0  0  0  0  0  0
   -0.1681    1.8060   -0.9487 H   0  0  0  0  0  0  0  0  0  0  0  0
    0.8753    1.8250    0.3063 H   0  0  0  0  0  0  0  0  0  0  0  0
   -0.7728    1.9617    0.6117 H   0  0  0  0  0  0  0  0  0  0  0  0
    0.0000    0.0000    0.0000 C   0  0  0  0  0  0  0  0  0  0  0  0
   -1.1008   -0.5929    0.0000 O   0  0  0  0  0  1  0  0  0  0  0  0
    1.1008   -0.6042   -0.0000 O   0  0  0  0  0  0  0  0  0  0  0  0
    2.6522   -1.9562    3.0115 C   0  0  0  0  0  0  0  0  0  0  0  0
    2.0881   -2.6445    3.4431 H   0  0  0  0  0  0  0  0  0  0  0  0
    2.1010   -1.2281    2.6313 H   0  0  0  0  0  0  0  0  0  0  0  0
    3.3103   -1.5289    3.7681 H   0  0  0  0  0  0  0  0  0  0  0  0
    3.4171   -2.6198    1.8657 C   0  0  0  0  0  0  0  0  0  0  0  0
    4.1580   -2.0187    1.5789 H   0  0  0  0  0  0  0  0  0  0  0  0
    3.7865   -3.4891    2.1835 H   0  0  0  0  0  0  0  0  0  0  0  0
    2.5195   -2.8792    0.6866 C   0  0  0  0  0  0  0  0  0  0  0  0
    1.9550   -2.0701    0.5385 H   0  0  0  0  0  0  0  0  0  0  0  0
    3.0932   -3.0421   -0.1137 H   0  0  0  0  0  0  0  0  0  0  0  0
    1.8768   -3.7437    0.8529 H   0  0  0  0  0  0  0  0  0  0  0  0
  1  5  1  0
  5  6  1  0
  5  7  2  0
  1  2  1  0
  1  3  1  0
  1  4  1  0
  8 12  1  0
 12 15  1  0
  8  9  1  0
  8 10  1  0
  8 11  1  0
 12 13  1  0
 12 14  1  0
 15 16  1  0
 15 17  1  0
 15 18  1  0
M  CHG  1   6  -1
M  END
>  <PDB_ID>  (515) 
pdb1j0a

>  <RESIDUE_NAME>  (515) 
GLU   ARG

>  <FRAG_NAME>  (515) 
ACET   PRPA

>  <FRAG_ATOM_NUM>  (515) 
fragi: 7  fragj: 11

>  <atom.prop.CHAIN_ID>  (515) 
A A A A A A A Z Z Z Z Z Z Z Z Z Z Z

>  <atom.prop.IS_HEAVY_ATOM>  (515) 
1 0 0 0 1 1 1 1 0 0 0 1 0 0 1 0 0 0

>  <DIFUSE_FUNC_ATOM>  (515) 
atom 6   atom 7   

>  <FINAL_SINGLE_POINT_ENERGY>  (515) 
0

>  <NONCOV_INTER_ENERGY_QM>  (515) 
0

>  <FF_Energy>  (515) 
31.45

>  <QM_Energy>  (515) 
-0.15

>  <source>  (515) 
ACET_PRPA_05

>  <Index>  (515) 
315

$$$$
ACET-pdb1jer-A-ASP-58:PRPA-pdb1jer-A-LYS-54
     RDKit          3D

 18 16  0  0  0  0  0  0  0  0999 V2000
    0.0592    1.5198    0.0047 C   0  0  0  0  0  0  0  0  0  0  0  0
    0.7455    1.8094   -0.6727 H   0  0  0  0  0  0  0  0  0  0  0  0
    0.3669    1.8198    0.9149 H   0  0  0  0  0  0  0  0  0  0  0  0
   -0.8773    2.0292   -0.2226 H   0  0  0  0  0  0  0  0  0  0  0  0
    0.0000    0.0000    0.0000 C   0  0  0  0  0  0  0  0  0  0  0  0
   -1.0945   -0.5843    0.0000 O   0  0  0  0  0  1  0  0  0  0  0  0
    1.0945   -0.6421    0.0000 O   0  0  0  0  0  0  0  0  0  0  0  0
    0.5246   -2.3491   -2.9036 C   0  0  0  0  0  0  0  0  0  0  0  0
    0.6420   -1.4364   -2.4860 H   0  0  0  0  0  0  0  0  0  0  0  0
   -0.4368   -2.6292   -2.7686 H   0  0  0  0  0  0  0  0  0  0  0  0
    0.7038   -2.2572   -3.9749 H   0  0  0  0  0  0  0  0  0  0  0  0
    1.4316   -3.3279   -2.2250 C   0  0  0  0  0  0  0  0  0  0  0  0
    1.1158   -4.2564   -2.3985 H   0  0  0  0  0  0  0  0  0  0  0  0
    2.3620   -3.2133   -2.5585 H   0  0  0  0  0  0  0  0  0  0  0  0
    1.4501   -3.1158   -0.7027 C   0  0  0  0  0  0  0  0  0  0  0  0
    1.9077   -3.8863   -0.2753 H   0  0  0  0  0  0  0  0  0  0  0  0
    1.9283   -2.2693   -0.5009 H   0  0  0  0  0  0  0  0  0  0  0  0
    0.4315   -3.0495   -0.3205 H   0  0  0  0  0  0  0  0  0  0  0  0
  1  5  1  0
  5  6  1  0
  5  7  2  0
  1  2  1  0
  1  3  1  0
  1  4  1  0
  8 12  1  0
 12 15  1  0
  8  9  1  0
  8 10  1  0
  8 11  1  0
 12 13  1  0
 12 14  1  0
 15 16  1  0
 15 17  1  0
 15 18  1  0
M  CHG  1   6  -1
M  END
>  <PDB_ID>  (516) 
pdb1jer

>  <RESIDUE_NAME>  (516) 
ASP   LYS

>  <FRAG_NAME>  (516) 
ACET   PRPA

>  <FRAG_ATOM_NUM>  (516) 
fragi: 7  fragj: 11

>  <atom.prop.CHAIN_ID>  (516) 
A A A A A A A Z Z Z Z Z Z Z Z Z Z Z

>  <atom.prop.IS_HEAVY_ATOM>  (516) 
1 0 0 0 1 1 1 1 0 0 0 1 0 0 1 0 0 0

>  <DIFUSE_FUNC_ATOM>  (516) 
atom 6   atom 7   

>  <FINAL_SINGLE_POINT_ENERGY>  (516) 
0

>  <NONCOV_INTER_ENERGY_QM>  (516) 
0

>  <FF_Energy>  (516) 
19.13

>  <QM_Energy>  (516) 
2.6

>  <source>  (516) 
ACET_PRPA_05

>  <Index>  (516) 
684

$$$$
ACET-pdb2o1c-A-GLU-80:PRPA-pdb2o1c-A-ARG-97
     RDKit          3D

 18 16  0  0  0  0  0  0  0  0999 V2000
    0.0099    1.5145   -0.0377 C   0  0  0  0  0  0  0  0  0  0  0  0
    0.9440    1.8103   -0.0049 H   0  0  0  0  0  0  0  0  0  0  0  0
   -0.5166    1.8373    0.7245 H   0  0  0  0  0  0  0  0  0  0  0  0
   -0.4375    1.9106   -0.9494 H   0  0  0  0  0  0  0  0  0  0  0  0
    0.0000    0.0000    0.0000 C   0  0  0  0  0  0  0  0  0  0  0  0
   -1.0923   -0.6034    0.0000 O   0  0  0  0  0  1  0  0  0  0  0  0
    1.0923   -0.5928   -0.0000 O   0  0  0  0  0  0  0  0  0  0  0  0
    2.2578    0.5667    3.4362 C   0  0  0  0  0  0  0  0  0  0  0  0
    1.7131    0.1681    4.1885 H   0  0  0  0  0  0  0  0  0  0  0  0
    1.6186    0.8183    2.6946 H   0  0  0  0  0  0  0  0  0  0  0  0
    2.7109    1.4856    3.8083 H   0  0  0  0  0  0  0  0  0  0  0  0
    3.1839   -0.5103    2.9079 C   0  0  0  0  0  0  0  0  0  0  0  0
    4.1035   -0.3429    3.2240 H   0  0  0  0  0  0  0  0  0  0  0  0
    2.8578   -1.3974    3.1917 H   0  0  0  0  0  0  0  0  0  0  0  0
    3.1803   -0.4611    1.3950 C   0  0  0  0  0  0  0  0  0  0  0  0
    3.1728   -1.3917    1.0575 H   0  0  0  0  0  0  0  0  0  0  0  0
    2.3705    0.0302    1.1069 H   0  0  0  0  0  0  0  0  0  0  0  0
    4.0740    0.0554    1.0450 H   0  0  0  0  0  0  0  0  0  0  0  0
  1  5  1  0
  5  6  1  0
  5  7  2  0
  1  2  1  0
  1  3  1  0
  1  4  1  0
  8 12  1  0
 12 15  1  0
  8  9  1  0
  8 10  1  0
  8 11  1  0
 12 13  1  0
 12 14  1  0
 15 16  1  0
 15 17  1  0
 15 18  1  0
M  CHG  1   6  -1
M  END
>  <PDB_ID>  (517) 
pdb2o1c

>  <RESIDUE_NAME>  (517) 
GLU   ARG

>  <FRAG_NAME>  (517) 
ACET   PRPA

>  <FRAG_ATOM_NUM>  (517) 
fragi: 7  fragj: 11

>  <atom.prop.CHAIN_ID>  (517) 
A A A A A A A Z Z Z Z Z Z Z Z Z Z Z

>  <atom.prop.IS_HEAVY_ATOM>  (517) 
1 0 0 0 1 1 1 1 0 0 0 1 0 0 1 0 0 0

>  <DIFUSE_FUNC_ATOM>  (517) 
atom 6   atom 7   

>  <FINAL_SINGLE_POINT_ENERGY>  (517) 
0

>  <NONCOV_INTER_ENERGY_QM>  (517) 
0

>  <FF_Energy>  (517) 
34.9

>  <QM_Energy>  (517) 
6.24

>  <source>  (517) 
ACET_PRPA_05

>  <Index>  (517) 
972

$$$$
ACET-pdb2o18-A-ASP-159:PRPA-pdb2o18-A-LYS-136
     RDKit          3D

 18 16  0  0  0  0  0  0  0  0999 V2000
    0.0000    1.5102   -0.0045 C   0  0  0  0  0  0  0  0  0  0  0  0
   -0.4100    1.8346    0.8410 H   0  0  0  0  0  0  0  0  0  0  0  0
   -0.5191    1.8303   -0.7883 H   0  0  0  0  0  0  0  0  0  0  0  0
    1.0046    1.9279   -0.0729 H   0  0  0  0  0  0  0  0  0  0  0  0
    0.0000    0.0000    0.0000 C   0  0  0  0  0  0  0  0  0  0  0  0
   -1.1050   -0.6063    0.0000 O   0  0  0  0  0  1  0  0  0  0  0  0
    1.1050   -0.5829    0.0000 O   0  0  0  0  0  0  0  0  0  0  0  0
   -2.6520    3.8660   -0.5083 C   0  0  0  0  0  0  0  0  0  0  0  0
   -2.0075    4.6253   -0.6126 H   0  0  0  0  0  0  0  0  0  0  0  0
   -2.4420    3.3661    0.3327 H   0  0  0  0  0  0  0  0  0  0  0  0
   -3.6643    4.2650   -0.4427 H   0  0  0  0  0  0  0  0  0  0  0  0
   -2.4950    2.9229   -1.6931 C   0  0  0  0  0  0  0  0  0  0  0  0
   -2.6540    3.4349   -2.5326 H   0  0  0  0  0  0  0  0  0  0  0  0
   -1.5707    2.5516   -1.6872 H   0  0  0  0  0  0  0  0  0  0  0  0
   -3.4812    1.7766   -1.6273 C   0  0  0  0  0  0  0  0  0  0  0  0
   -3.3030    1.2351   -0.8085 H   0  0  0  0  0  0  0  0  0  0  0  0
   -4.4092    2.1420   -1.5947 H   0  0  0  0  0  0  0  0  0  0  0  0
   -3.3815    1.1374   -2.5045 H   0  0  0  0  0  0  0  0  0  0  0  0
  1  5  1  0
  5  6  1  0
  5  7  2  0
  1  2  1  0
  1  3  1  0
  1  4  1  0
  8 12  1  0
 12 15  1  0
  8  9  1  0
  8 10  1  0
  8 11  1  0
 12 13  1  0
 12 14  1  0
 15 16  1  0
 15 17  1  0
 15 18  1  0
M  CHG  1   6  -1
M  END
>  <PDB_ID>  (518) 
pdb2o18

>  <RESIDUE_NAME>  (518) 
ASP   LYS

>  <FRAG_NAME>  (518) 
ACET   PRPA

>  <FRAG_ATOM_NUM>  (518) 
fragi: 7  fragj: 11

>  <atom.prop.CHAIN_ID>  (518) 
A A A A A A A Z Z Z Z Z Z Z Z Z Z Z

>  <atom.prop.IS_HEAVY_ATOM>  (518) 
1 0 0 0 1 1 1 1 0 0 0 1 0 0 1 0 0 0

>  <DIFUSE_FUNC_ATOM>  (518) 
atom 6   atom 7   

>  <FINAL_SINGLE_POINT_ENERGY>  (518) 
0

>  <NONCOV_INTER_ENERGY_QM>  (518) 
0

>  <FF_Energy>  (518) 
18.91

>  <QM_Energy>  (518) 
0.65

>  <source>  (518) 
ACET_PRPA_05

>  <Index>  (518) 
2235

$$$$
ACET-pdb1jcn-A-GLU-217:PRPA-pdb1jcn-A-VAL-120
     RDKit          3D

 18 16  0  0  0  0  0  0  0  0999 V2000
    0.1725    1.4846    0.0155 C   0  0  0  0  0  0  0  0  0  0  0  0
    0.6921    1.7411   -0.8017 H   0  0  0  0  0  0  0  0  0  0  0  0
    0.7035    1.7234    0.8309 H   0  0  0  0  0  0  0  0  0  0  0  0
   -0.7376    2.0841    0.0277 H   0  0  0  0  0  0  0  0  0  0  0  0
    0.0000    0.0000    0.0000 C   0  0  0  0  0  0  0  0  0  0  0  0
   -1.0891   -0.5579    0.0000 O   0  0  0  0  0  1  0  0  0  0  0  0
    1.0891   -0.6065   -0.0000 O   0  0  0  0  0  0  0  0  0  0  0  0
   -3.2038   -3.0680    2.2210 C   0  0  0  0  0  0  0  0  0  0  0  0
   -2.7607   -3.1637    1.3031 H   0  0  0  0  0  0  0  0  0  0  0  0
   -4.2550   -3.3355    2.1129 H   0  0  0  0  0  0  0  0  0  0  0  0
   -2.6375   -3.6772    2.9253 H   0  0  0  0  0  0  0  0  0  0  0  0
   -3.0505   -1.5800    2.6316 C   0  0  0  0  0  0  0  0  0  0  0  0
   -3.6312   -1.4261    3.4220 H   0  0  0  0  0  0  0  0  0  0  0  0
   -2.0260   -1.3767    2.9434 H   0  0  0  0  0  0  0  0  0  0  0  0
   -3.4288   -0.6816    1.4612 C   0  0  0  0  0  0  0  0  0  0  0  0
   -4.2628   -1.0296    1.0342 H   0  0  0  0  0  0  0  0  0  0  0  0
   -3.5841    0.2474    1.7961 H   0  0  0  0  0  0  0  0  0  0  0  0
   -2.6850   -0.6790    0.7941 H   0  0  0  0  0  0  0  0  0  0  0  0
  1  5  1  0
  5  6  1  0
  5  7  2  0
  1  2  1  0
  1  3  1  0
  1  4  1  0
  8 12  1  0
 12 15  1  0
  8  9  1  0
  8 10  1  0
  8 11  1  0
 12 13  1  0
 12 14  1  0
 15 16  1  0
 15 17  1  0
 15 18  1  0
M  CHG  1   6  -1
M  END
>  <PDB_ID>  (519) 
pdb1jcn

>  <RESIDUE_NAME>  (519) 
GLU   VAL

>  <FRAG_NAME>  (519) 
ACET   PRPA

>  <FRAG_ATOM_NUM>  (519) 
fragi: 7  fragj: 11

>  <atom.prop.CHAIN_ID>  (519) 
A A A A A A A Z Z Z Z Z Z Z Z Z Z Z

>  <atom.prop.IS_HEAVY_ATOM>  (519) 
1 0 0 0 1 1 1 1 0 0 0 1 0 0 1 0 0 0

>  <DIFUSE_FUNC_ATOM>  (519) 
atom 6   atom 7   

>  <FINAL_SINGLE_POINT_ENERGY>  (519) 
0

>  <NONCOV_INTER_ENERGY_QM>  (519) 
0

>  <FF_Energy>  (519) 
30.12

>  <QM_Energy>  (519) 
-0.13

>  <source>  (519) 
ACET_PRPA_05

>  <Index>  (519) 
2770

$$$$
ACET-pdb1jcn-A-GLU-217:PRPA-pdb1jcn-A-VAL-120
     RDKit          3D

 18 16  0  0  0  0  0  0  0  0999 V2000
    0.1725    1.4846    0.0155 C   0  0  0  0  0  0  0  0  0  0  0  0
    0.6921    1.7411   -0.8017 H   0  0  0  0  0  0  0  0  0  0  0  0
    0.7035    1.7234    0.8309 H   0  0  0  0  0  0  0  0  0  0  0  0
   -0.7376    2.0841    0.0277 H   0  0  0  0  0  0  0  0  0  0  0  0
    0.0000    0.0000    0.0000 C   0  0  0  0  0  0  0  0  0  0  0  0
   -1.0891   -0.5579    0.0000 O   0  0  0  0  0  1  0  0  0  0  0  0
    1.0891   -0.6065   -0.0000 O   0  0  0  0  0  0  0  0  0  0  0  0
   -1.6148   -1.2952    3.0686 C   0  0  0  0  0  0  0  0  0  0  0  0
   -1.0325   -1.2126    2.2602 H   0  0  0  0  0  0  0  0  0  0  0  0
   -1.5897   -0.4423    3.5879 H   0  0  0  0  0  0  0  0  0  0  0  0
   -1.2876   -2.0453    3.6418 H   0  0  0  0  0  0  0  0  0  0  0  0
   -3.0505   -1.5800    2.6316 C   0  0  0  0  0  0  0  0  0  0  0  0
   -3.6312   -1.4261    3.4220 H   0  0  0  0  0  0  0  0  0  0  0  0
   -3.1582   -2.6255    2.3431 H   0  0  0  0  0  0  0  0  0  0  0  0
   -3.4288   -0.6816    1.4612 C   0  0  0  0  0  0  0  0  0  0  0  0
   -4.2628   -1.0296    1.0342 H   0  0  0  0  0  0  0  0  0  0  0  0
   -3.5841    0.2474    1.7961 H   0  0  0  0  0  0  0  0  0  0  0  0
   -2.6850   -0.6790    0.7941 H   0  0  0  0  0  0  0  0  0  0  0  0
  1  5  1  0
  5  6  1  0
  5  7  2  0
  1  2  1  0
  1  3  1  0
  1  4  1  0
  8 12  1  0
 12 15  1  0
  8  9  1  0
  8 10  1  0
  8 11  1  0
 12 13  1  0
 12 14  1  0
 15 16  1  0
 15 17  1  0
 15 18  1  0
M  CHG  1   6  -1
M  END
>  <PDB_ID>  (520) 
pdb1jcn

>  <RESIDUE_NAME>  (520) 
GLU   VAL

>  <FRAG_NAME>  (520) 
ACET   PRPA

>  <FRAG_ATOM_NUM>  (520) 
fragi: 7  fragj: 11

>  <atom.prop.CHAIN_ID>  (520) 
A A A A A A A Z Z Z Z Z Z Z Z Z Z Z

>  <atom.prop.IS_HEAVY_ATOM>  (520) 
1 0 0 0 1 1 1 1 0 0 0 1 0 0 1 0 0 0

>  <DIFUSE_FUNC_ATOM>  (520) 
atom 6   atom 7   

>  <FINAL_SINGLE_POINT_ENERGY>  (520) 
0

>  <NONCOV_INTER_ENERGY_QM>  (520) 
0

>  <FF_Energy>  (520) 
30.92

>  <QM_Energy>  (520) 
-0.17

>  <source>  (520) 
ACET_PRPA_05

>  <Index>  (520) 
2778

$$$$
ACET-pdb1jcn-A-GLU-146:PRPA-pdb1jcn-A-LEU-121
     RDKit          3D

 18 16  0  0  0  0  0  0  0  0999 V2000
    0.1749    1.4844    0.0160 C   0  0  0  0  0  0  0  0  0  0  0  0
    0.6944    1.7404   -0.8010 H   0  0  0  0  0  0  0  0  0  0  0  0
    0.7067    1.7204    0.8317 H   0  0  0  0  0  0  0  0  0  0  0  0
   -0.7353    2.0838    0.0289 H   0  0  0  0  0  0  0  0  0  0  0  0
    0.0000    0.0000    0.0000 C   0  0  0  0  0  0  0  0  0  0  0  0
   -1.0894   -0.5579    0.0000 O   0  0  0  0  0  1  0  0  0  0  0  0
    1.0894   -0.6079    0.0000 O   0  0  0  0  0  0  0  0  0  0  0  0
    3.6466    2.8425   -0.3160 C   0  0  0  0  0  0  0  0  0  0  0  0
    3.2770    3.7624   -0.1714 H   0  0  0  0  0  0  0  0  0  0  0  0
    2.9320    2.2534   -0.6939 H   0  0  0  0  0  0  0  0  0  0  0  0
    4.4404    2.9180   -1.0592 H   0  0  0  0  0  0  0  0  0  0  0  0
    4.0238    2.2837    1.0529 C   0  0  0  0  0  0  0  0  0  0  0  0
    4.3632    1.3546    0.9435 H   0  0  0  0  0  0  0  0  0  0  0  0
    4.8024    2.9050    1.4955 H   0  0  0  0  0  0  0  0  0  0  0  0
    2.7965    2.2410    1.9426 C   0  0  0  0  0  0  0  0  0  0  0  0
    2.0986    1.6550    1.5267 H   0  0  0  0  0  0  0  0  0  0  0  0
    3.0433    1.8743    2.8413 H   0  0  0  0  0  0  0  0  0  0  0  0
    2.4275    3.1653    2.0532 H   0  0  0  0  0  0  0  0  0  0  0  0
  1  5  1  0
  5  6  1  0
  5  7  2  0
  1  2  1  0
  1  3  1  0
  1  4  1  0
  8 12  1  0
 12 15  1  0
  8  9  1  0
  8 10  1  0
  8 11  1  0
 12 13  1  0
 12 14  1  0
 15 16  1  0
 15 17  1  0
 15 18  1  0
M  CHG  1   6  -1
M  END
>  <PDB_ID>  (521) 
pdb1jcn

>  <RESIDUE_NAME>  (521) 
GLU   LEU

>  <FRAG_NAME>  (521) 
ACET   PRPA

>  <FRAG_ATOM_NUM>  (521) 
fragi: 7  fragj: 11

>  <atom.prop.CHAIN_ID>  (521) 
A A A A A A A Z Z Z Z Z Z Z Z Z Z Z

>  <atom.prop.IS_HEAVY_ATOM>  (521) 
1 0 0 0 1 1 1 1 0 0 0 1 0 0 1 0 0 0

>  <DIFUSE_FUNC_ATOM>  (521) 
atom 6   atom 7   

>  <FINAL_SINGLE_POINT_ENERGY>  (521) 
0

>  <NONCOV_INTER_ENERGY_QM>  (521) 
0

>  <FF_Energy>  (521) 
17.44

>  <QM_Energy>  (521) 
0.96

>  <source>  (521) 
ACET_PRPA_05

>  <Index>  (521) 
2787

$$$$
ACET-pdb1jcn-A-GLU-146:PRPA-pdb1jcn-A-LEU-121
     RDKit          3D

 18 16  0  0  0  0  0  0  0  0999 V2000
    0.1749    1.4844    0.0160 C   0  0  0  0  0  0  0  0  0  0  0  0
    0.6944    1.7404   -0.8010 H   0  0  0  0  0  0  0  0  0  0  0  0
    0.7067    1.7204    0.8317 H   0  0  0  0  0  0  0  0  0  0  0  0
   -0.7353    2.0838    0.0289 H   0  0  0  0  0  0  0  0  0  0  0  0
    0.0000    0.0000    0.0000 C   0  0  0  0  0  0  0  0  0  0  0  0
   -1.0894   -0.5579    0.0000 O   0  0  0  0  0  1  0  0  0  0  0  0
    1.0894   -0.6079    0.0000 O   0  0  0  0  0  0  0  0  0  0  0  0
    5.1106    3.1509    1.6708 C   0  0  0  0  0  0  0  0  0  0  0  0
    4.7734    4.0872    1.7744 H   0  0  0  0  0  0  0  0  0  0  0  0
    5.3597    2.7862    2.5682 H   0  0  0  0  0  0  0  0  0  0  0  0
    5.9158    3.1516    1.0767 H   0  0  0  0  0  0  0  0  0  0  0  0
    4.0238    2.2837    1.0529 C   0  0  0  0  0  0  0  0  0  0  0  0
    4.3632    1.3546    0.9435 H   0  0  0  0  0  0  0  0  0  0  0  0
    3.7544    2.6828    0.0750 H   0  0  0  0  0  0  0  0  0  0  0  0
    2.7965    2.2410    1.9426 C   0  0  0  0  0  0  0  0  0  0  0  0
    2.0986    1.6550    1.5267 H   0  0  0  0  0  0  0  0  0  0  0  0
    3.0433    1.8743    2.8413 H   0  0  0  0  0  0  0  0  0  0  0  0
    2.4275    3.1653    2.0532 H   0  0  0  0  0  0  0  0  0  0  0  0
  1  5  1  0
  5  6  1  0
  5  7  2  0
  1  2  1  0
  1  3  1  0
  1  4  1  0
  8 12  1  0
 12 15  1  0
  8  9  1  0
  8 10  1  0
  8 11  1  0
 12 13  1  0
 12 14  1  0
 15 16  1  0
 15 17  1  0
 15 18  1  0
M  CHG  1   6  -1
M  END
>  <PDB_ID>  (522) 
pdb1jcn

>  <RESIDUE_NAME>  (522) 
GLU   LEU

>  <FRAG_NAME>  (522) 
ACET   PRPA

>  <FRAG_ATOM_NUM>  (522) 
fragi: 7  fragj: 11

>  <atom.prop.CHAIN_ID>  (522) 
A A A A A A A Z Z Z Z Z Z Z Z Z Z Z

>  <atom.prop.IS_HEAVY_ATOM>  (522) 
1 0 0 0 1 1 1 1 0 0 0 1 0 0 1 0 0 0

>  <DIFUSE_FUNC_ATOM>  (522) 
atom 6   atom 7   

>  <FINAL_SINGLE_POINT_ENERGY>  (522) 
0

>  <NONCOV_INTER_ENERGY_QM>  (522) 
0

>  <FF_Energy>  (522) 
17.3

>  <QM_Energy>  (522) 
1.85

>  <source>  (522) 
ACET_PRPA_05

>  <Index>  (522) 
2790

$$$$
ACET-pdb1j08-C-ASP-63:PRPA-pdb1j08-C-LYS-32
     RDKit          3D

 18 16  0  0  0  0  0  0  0  0999 V2000
    0.0158    1.5177    0.0199 C   0  0  0  0  0  0  0  0  0  0  0  0
    0.9349    1.8315   -0.1903 H   0  0  0  0  0  0  0  0  0  0  0  0
   -0.2602    1.8295    0.9219 H   0  0  0  0  0  0  0  0  0  0  0  0
   -0.6632    1.9587   -0.7099 H   0  0  0  0  0  0  0  0  0  0  0  0
    0.0000    0.0000    0.0000 C   0  0  0  0  0  0  0  0  0  0  0  0
   -1.1056   -0.5958    0.0000 O   0  0  0  0  0  1  0  0  0  0  0  0
    1.1056   -0.5949    0.0000 O   0  0  0  0  0  0  0  0  0  0  0  0
    0.7324   -3.7363    1.4887 C   0  0  0  0  0  0  0  0  0  0  0  0
    1.7578   -3.7093    1.4812 H   0  0  0  0  0  0  0  0  0  0  0  0
    0.3732   -3.3245    0.5455 H   0  0  0  0  0  0  0  0  0  0  0  0
    0.4156   -4.7572    1.7024 H   0  0  0  0  0  0  0  0  0  0  0  0
    0.2704   -2.8713    2.6702 C   0  0  0  0  0  0  0  0  0  0  0  0
   -0.7334   -2.9415    2.7293 H   0  0  0  0  0  0  0  0  0  0  0  0
    0.6613   -3.2676    3.5124 H   0  0  0  0  0  0  0  0  0  0  0  0
    0.6419   -1.4018    2.6183 C   0  0  0  0  0  0  0  0  0  0  0  0
    0.3342   -1.0175    1.7416 H   0  0  0  0  0  0  0  0  0  0  0  0
    0.1724   -0.9182    3.3643 H   0  0  0  0  0  0  0  0  0  0  0  0
    1.7155   -1.2401    2.7149 H   0  0  0  0  0  0  0  0  0  0  0  0
  1  5  1  0
  5  6  1  0
  5  7  2  0
  1  2  1  0
  1  3  1  0
  1  4  1  0
  8 12  1  0
 12 15  1  0
  8  9  1  0
  8 10  1  0
  8 11  1  0
 12 13  1  0
 12 14  1  0
 15 16  1  0
 15 17  1  0
 15 18  1  0
M  CHG  1   6  -1
M  END
>  <PDB_ID>  (523) 
pdb1j08

>  <RESIDUE_NAME>  (523) 
ASP   LYS

>  <FRAG_NAME>  (523) 
ACET   PRPA

>  <FRAG_ATOM_NUM>  (523) 
fragi: 7  fragj: 11

>  <atom.prop.CHAIN_ID>  (523) 
A A A A A A A Z Z Z Z Z Z Z Z Z Z Z

>  <atom.prop.IS_HEAVY_ATOM>  (523) 
1 0 0 0 1 1 1 1 0 0 0 1 0 0 1 0 0 0

>  <DIFUSE_FUNC_ATOM>  (523) 
atom 6   atom 7   

>  <FINAL_SINGLE_POINT_ENERGY>  (523) 
0

>  <NONCOV_INTER_ENERGY_QM>  (523) 
0

>  <FF_Energy>  (523) 
26.95

>  <QM_Energy>  (523) 
1.37

>  <source>  (523) 
ACET_PRPA_05

>  <Index>  (523) 
3166

$$$$
ACET-pdb1j08-C-ASP-63:PRPA-pdb1j08-C-LYS-32
     RDKit          3D

 18 16  0  0  0  0  0  0  0  0999 V2000
    0.0158    1.5177    0.0199 C   0  0  0  0  0  0  0  0  0  0  0  0
    0.9349    1.8315   -0.1903 H   0  0  0  0  0  0  0  0  0  0  0  0
   -0.2602    1.8295    0.9219 H   0  0  0  0  0  0  0  0  0  0  0  0
   -0.6632    1.9587   -0.7099 H   0  0  0  0  0  0  0  0  0  0  0  0
    0.0000    0.0000    0.0000 C   0  0  0  0  0  0  0  0  0  0  0  0
   -1.1056   -0.5958    0.0000 O   0  0  0  0  0  1  0  0  0  0  0  0
    1.1056   -0.5949    0.0000 O   0  0  0  0  0  0  0  0  0  0  0  0
    0.2704   -2.8713    2.6702 C   0  0  0  0  0  0  0  0  0  0  0  0
   -0.7334   -2.9415    2.7293 H   0  0  0  0  0  0  0  0  0  0  0  0
    0.6613   -3.2676    3.5124 H   0  0  0  0  0  0  0  0  0  0  0  0
    0.5983   -3.4854    1.8314 H   0  0  0  0  0  0  0  0  0  0  0  0
    0.6419   -1.4018    2.6183 C   0  0  0  0  0  0  0  0  0  0  0  0
    0.3342   -1.0175    1.7416 H   0  0  0  0  0  0  0  0  0  0  0  0
    0.1724   -0.9182    3.3643 H   0  0  0  0  0  0  0  0  0  0  0  0
    2.1359   -1.1768    2.7527 C   0  0  0  0  0  0  0  0  0  0  0  0
    2.4450   -1.5591    3.6128 H   0  0  0  0  0  0  0  0  0  0  0  0
    2.5989   -1.6031    1.9874 H   0  0  0  0  0  0  0  0  0  0  0  0
    2.3642   -0.1111    2.7452 H   0  0  0  0  0  0  0  0  0  0  0  0
  1  5  1  0
  5  6  1  0
  5  7  2  0
  1  2  1  0
  1  3  1  0
  1  4  1  0
  8 12  1  0
 12 15  1  0
  8  9  1  0
  8 10  1  0
  8 11  1  0
 12 13  1  0
 12 14  1  0
 15 16  1  0
 15 17  1  0
 15 18  1  0
M  CHG  1   6  -1
M  END
>  <PDB_ID>  (524) 
pdb1j08

>  <RESIDUE_NAME>  (524) 
ASP   LYS

>  <FRAG_NAME>  (524) 
ACET   PRPA

>  <FRAG_ATOM_NUM>  (524) 
fragi: 7  fragj: 11

>  <atom.prop.CHAIN_ID>  (524) 
A A A A A A A Z Z Z Z Z Z Z Z Z Z Z

>  <atom.prop.IS_HEAVY_ATOM>  (524) 
1 0 0 0 1 1 1 1 0 0 0 1 0 0 1 0 0 0

>  <DIFUSE_FUNC_ATOM>  (524) 
atom 6   atom 7   

>  <FINAL_SINGLE_POINT_ENERGY>  (524) 
0

>  <NONCOV_INTER_ENERGY_QM>  (524) 
0

>  <FF_Energy>  (524) 
31.34

>  <QM_Energy>  (524) 
1.16

>  <source>  (524) 
ACET_PRPA_05

>  <Index>  (524) 
3178

$$$$
ACET-pdb1j08-C-ASP-63:PRPA-pdb1j08-C-LYS-32
     RDKit          3D

 18 16  0  0  0  0  0  0  0  0999 V2000
    0.0158    1.5177    0.0199 C   0  0  0  0  0  0  0  0  0  0  0  0
    0.9349    1.8315   -0.1903 H   0  0  0  0  0  0  0  0  0  0  0  0
   -0.2602    1.8295    0.9219 H   0  0  0  0  0  0  0  0  0  0  0  0
   -0.6632    1.9587   -0.7099 H   0  0  0  0  0  0  0  0  0  0  0  0
    0.0000    0.0000    0.0000 C   0  0  0  0  0  0  0  0  0  0  0  0
   -1.1056   -0.5958    0.0000 O   0  0  0  0  0  1  0  0  0  0  0  0
    1.1056   -0.5949    0.0000 O   0  0  0  0  0  0  0  0  0  0  0  0
    0.6419   -1.4018    2.6183 C   0  0  0  0  0  0  0  0  0  0  0  0
    0.3342   -1.0175    1.7416 H   0  0  0  0  0  0  0  0  0  0  0  0
    0.1724   -0.9182    3.3643 H   0  0  0  0  0  0  0  0  0  0  0  0
    0.3749   -2.4579    2.6556 H   0  0  0  0  0  0  0  0  0  0  0  0
    2.1359   -1.1768    2.7527 C   0  0  0  0  0  0  0  0  0  0  0  0
    2.4450   -1.5591    3.6128 H   0  0  0  0  0  0  0  0  0  0  0  0
    2.5989   -1.6031    1.9874 H   0  0  0  0  0  0  0  0  0  0  0  0
    2.4551    0.3136    2.7422 C   0  0  0  0  0  0  0  0  0  0  0  0
    2.1428    0.7044    1.8714 H   0  0  0  0  0  0  0  0  0  0  0  0
    1.9551    0.7562    3.4923 H   0  0  0  0  0  0  0  0  0  0  0  0
    3.5218    0.5045    2.8598 H   0  0  0  0  0  0  0  0  0  0  0  0
  1  5  1  0
  5  6  1  0
  5  7  2  0
  1  2  1  0
  1  3  1  0
  1  4  1  0
  8 12  1  0
 12 15  1  0
  8  9  1  0
  8 10  1  0
  8 11  1  0
 12 13  1  0
 12 14  1  0
 15 16  1  0
 15 17  1  0
 15 18  1  0
M  CHG  1   6  -1
M  END
>  <PDB_ID>  (525) 
pdb1j08

>  <RESIDUE_NAME>  (525) 
ASP   LYS

>  <FRAG_NAME>  (525) 
ACET   PRPA

>  <FRAG_ATOM_NUM>  (525) 
fragi: 7  fragj: 11

>  <atom.prop.CHAIN_ID>  (525) 
A A A A A A A Z Z Z Z Z Z Z Z Z Z Z

>  <atom.prop.IS_HEAVY_ATOM>  (525) 
1 0 0 0 1 1 1 1 0 0 0 1 0 0 1 0 0 0

>  <DIFUSE_FUNC_ATOM>  (525) 
atom 6   atom 7   

>  <FINAL_SINGLE_POINT_ENERGY>  (525) 
0

>  <NONCOV_INTER_ENERGY_QM>  (525) 
0

>  <FF_Energy>  (525) 
27.95

>  <QM_Energy>  (525) 
0.77

>  <source>  (525) 
ACET_PRPA_05

>  <Index>  (525) 
3191

$$$$
ACET-pdb1jcn-A-ASP-162:PRPA-pdb1jcn-A-ILE-183
     RDKit          3D

 18 16  0  0  0  0  0  0  0  0999 V2000
   -0.0029    1.5198    0.0001 C   0  0  0  0  0  0  0  0  0  0  0  0
   -0.4955    1.8377    0.8011 H   0  0  0  0  0  0  0  0  0  0  0  0
   -0.4421    1.8377   -0.8302 H   0  0  0  0  0  0  0  0  0  0  0  0
    1.0017    1.9415    0.0335 H   0  0  0  0  0  0  0  0  0  0  0  0
    0.0000    0.0000    0.0000 C   0  0  0  0  0  0  0  0  0  0  0  0
   -1.0981   -0.5975   -0.0000 O   0  0  0  0  0  1  0  0  0  0  0  0
    1.0981   -0.5995    0.0000 O   0  0  0  0  0  0  0  0  0  0  0  0
   -4.9639    0.8006    1.3701 C   0  0  0  0  0  0  0  0  0  0  0  0
   -5.3274    1.6134    0.9356 H   0  0  0  0  0  0  0  0  0  0  0  0
   -5.4191   -0.0657    0.8901 H   0  0  0  0  0  0  0  0  0  0  0  0
   -5.1949    0.8049    2.4354 H   0  0  0  0  0  0  0  0  0  0  0  0
   -3.4473    0.7789    1.1514 C   0  0  0  0  0  0  0  0  0  0  0  0
   -3.0845   -0.0626    1.5512 H   0  0  0  0  0  0  0  0  0  0  0  0
   -3.2755    0.7601    0.1656 H   0  0  0  0  0  0  0  0  0  0  0  0
   -2.7212    1.9622    1.7483 C   0  0  0  0  0  0  0  0  0  0  0  0
   -2.8760    1.9837    2.7351 H   0  0  0  0  0  0  0  0  0  0  0  0
   -1.7424    1.8779    1.5654 H   0  0  0  0  0  0  0  0  0  0  0  0
   -3.0661    2.8052    1.3376 H   0  0  0  0  0  0  0  0  0  0  0  0
  1  5  1  0
  5  6  1  0
  5  7  2  0
  1  2  1  0
  1  3  1  0
  1  4  1  0
  8 12  1  0
 12 15  1  0
  8  9  1  0
  8 10  1  0
  8 11  1  0
 12 13  1  0
 12 14  1  0
 15 16  1  0
 15 17  1  0
 15 18  1  0
M  CHG  1   6  -1
M  END
>  <PDB_ID>  (526) 
pdb1jcn

>  <RESIDUE_NAME>  (526) 
ASP   ILE

>  <FRAG_NAME>  (526) 
ACET   PRPA

>  <FRAG_ATOM_NUM>  (526) 
fragi: 7  fragj: 11

>  <atom.prop.CHAIN_ID>  (526) 
A A A A A A A Z Z Z Z Z Z Z Z Z Z Z

>  <atom.prop.IS_HEAVY_ATOM>  (526) 
1 0 0 0 1 1 1 1 0 0 0 1 0 0 1 0 0 0

>  <DIFUSE_FUNC_ATOM>  (526) 
atom 6   atom 7   

>  <FINAL_SINGLE_POINT_ENERGY>  (526) 
0

>  <NONCOV_INTER_ENERGY_QM>  (526) 
0

>  <FF_Energy>  (526) 
36.9

>  <QM_Energy>  (526) 
3.52

>  <source>  (526) 
ACET_PRPA_05

>  <Index>  (526) 
3305

$$$$
ACET-pdb2o3i-A-GLU-95:PRPA-pdb2o3i-A-ARG-91
     RDKit          3D

 18 16  0  0  0  0  0  0  0  0999 V2000
    0.1755    1.4852    0.0129 C   0  0  0  0  0  0  0  0  0  0  0  0
    0.6938    1.7397   -0.8043 H   0  0  0  0  0  0  0  0  0  0  0  0
    0.7061    1.7236    0.8280 H   0  0  0  0  0  0  0  0  0  0  0  0
   -0.7353    2.0839    0.0242 H   0  0  0  0  0  0  0  0  0  0  0  0
    0.0000    0.0000    0.0000 C   0  0  0  0  0  0  0  0  0  0  0  0
   -1.0899   -0.5576    0.0000 O   0  0  0  0  0  1  0  0  0  0  0  0
    1.0899   -0.6077   -0.0000 O   0  0  0  0  0  0  0  0  0  0  0  0
    4.1609    1.4602    2.3236 C   0  0  0  0  0  0  0  0  0  0  0  0
    4.4665    2.2452    1.7752 H   0  0  0  0  0  0  0  0  0  0  0  0
    4.6125    1.5217    3.3138 H   0  0  0  0  0  0  0  0  0  0  0  0
    3.0739    1.4927    2.3972 H   0  0  0  0  0  0  0  0  0  0  0  0
    4.5868    0.1660    1.6263 C   0  0  0  0  0  0  0  0  0  0  0  0
    5.5459    0.2466    1.3773 H   0  0  0  0  0  0  0  0  0  0  0  0
    4.4553   -0.5885    2.2600 H   0  0  0  0  0  0  0  0  0  0  0  0
    3.7945   -0.1393    0.3601 C   0  0  0  0  0  0  0  0  0  0  0  0
    2.8305   -0.2415    0.5897 H   0  0  0  0  0  0  0  0  0  0  0  0
    3.9134    0.6046   -0.2921 H   0  0  0  0  0  0  0  0  0  0  0  0
    4.1322   -1.0619   -0.1119 H   0  0  0  0  0  0  0  0  0  0  0  0
  1  5  1  0
  5  6  1  0
  5  7  2  0
  1  2  1  0
  1  3  1  0
  1  4  1  0
  8 12  1  0
 12 15  1  0
  8  9  1  0
  8 10  1  0
  8 11  1  0
 12 13  1  0
 12 14  1  0
 15 16  1  0
 15 17  1  0
 15 18  1  0
M  CHG  1   6  -1
M  END
>  <PDB_ID>  (527) 
pdb2o3i

>  <RESIDUE_NAME>  (527) 
GLU   ARG

>  <FRAG_NAME>  (527) 
ACET   PRPA

>  <FRAG_ATOM_NUM>  (527) 
fragi: 7  fragj: 11

>  <atom.prop.CHAIN_ID>  (527) 
A A A A A A A Z Z Z Z Z Z Z Z Z Z Z

>  <atom.prop.IS_HEAVY_ATOM>  (527) 
1 0 0 0 1 1 1 1 0 0 0 1 0 0 1 0 0 0

>  <DIFUSE_FUNC_ATOM>  (527) 
atom 6   atom 7   

>  <FINAL_SINGLE_POINT_ENERGY>  (527) 
0

>  <NONCOV_INTER_ENERGY_QM>  (527) 
0

>  <FF_Energy>  (527) 
16.58

>  <QM_Energy>  (527) 
0.59

>  <source>  (527) 
ACET_PRPA_05

>  <Index>  (527) 
3710

$$$$
ACET-pdb2o3i-A-GLU-95:PRPA-pdb2o3i-A-ARG-91
     RDKit          3D

 18 16  0  0  0  0  0  0  0  0999 V2000
    0.1755    1.4852    0.0129 C   0  0  0  0  0  0  0  0  0  0  0  0
    0.6938    1.7397   -0.8043 H   0  0  0  0  0  0  0  0  0  0  0  0
    0.7061    1.7236    0.8280 H   0  0  0  0  0  0  0  0  0  0  0  0
   -0.7353    2.0839    0.0242 H   0  0  0  0  0  0  0  0  0  0  0  0
    0.0000    0.0000    0.0000 C   0  0  0  0  0  0  0  0  0  0  0  0
   -1.0899   -0.5576    0.0000 O   0  0  0  0  0  1  0  0  0  0  0  0
    1.0899   -0.6077   -0.0000 O   0  0  0  0  0  0  0  0  0  0  0  0
    4.5868    0.1660    1.6263 C   0  0  0  0  0  0  0  0  0  0  0  0
    5.5459    0.2466    1.3773 H   0  0  0  0  0  0  0  0  0  0  0  0
    4.4553   -0.5885    2.2600 H   0  0  0  0  0  0  0  0  0  0  0  0
    4.2836    1.0877    2.1229 H   0  0  0  0  0  0  0  0  0  0  0  0
    3.7945   -0.1393    0.3601 C   0  0  0  0  0  0  0  0  0  0  0  0
    2.8305   -0.2415    0.5897 H   0  0  0  0  0  0  0  0  0  0  0  0
    3.9134    0.6046   -0.2921 H   0  0  0  0  0  0  0  0  0  0  0  0
    4.2657   -1.4267   -0.2985 C   0  0  0  0  0  0  0  0  0  0  0  0
    4.9058   -1.8723    0.3160 H   0  0  0  0  0  0  0  0  0  0  0  0
    3.4709   -2.0023   -0.4537 H   0  0  0  0  0  0  0  0  0  0  0  0
    4.7581   -1.2239   -1.2496 H   0  0  0  0  0  0  0  0  0  0  0  0
  1  5  1  0
  5  6  1  0
  5  7  2  0
  1  2  1  0
  1  3  1  0
  1  4  1  0
  8 12  1  0
 12 15  1  0
  8  9  1  0
  8 10  1  0
  8 11  1  0
 12 13  1  0
 12 14  1  0
 15 16  1  0
 15 17  1  0
 15 18  1  0
M  CHG  1   6  -1
M  END
>  <PDB_ID>  (528) 
pdb2o3i

>  <RESIDUE_NAME>  (528) 
GLU   ARG

>  <FRAG_NAME>  (528) 
ACET   PRPA

>  <FRAG_ATOM_NUM>  (528) 
fragi: 7  fragj: 11

>  <atom.prop.CHAIN_ID>  (528) 
A A A A A A A Z Z Z Z Z Z Z Z Z Z Z

>  <atom.prop.IS_HEAVY_ATOM>  (528) 
1 0 0 0 1 1 1 1 0 0 0 1 0 0 1 0 0 0

>  <DIFUSE_FUNC_ATOM>  (528) 
atom 6   atom 7   

>  <FINAL_SINGLE_POINT_ENERGY>  (528) 
0

>  <NONCOV_INTER_ENERGY_QM>  (528) 
0

>  <FF_Energy>  (528) 
19.38

>  <QM_Energy>  (528) 
-0.88

>  <source>  (528) 
ACET_PRPA_05

>  <Index>  (528) 
3715

$$$$
ACET-pdb1jey-A-GLU-50:PRPA-pdb1jey-A-LYS-46
     RDKit          3D

 18 16  0  0  0  0  0  0  0  0999 V2000
    0.0121    1.5148    0.0273 C   0  0  0  0  0  0  0  0  0  0  0  0
    0.8407    1.8139   -0.4151 H   0  0  0  0  0  0  0  0  0  0  0  0
   -0.0203    1.7957    0.9721 H   0  0  0  0  0  0  0  0  0  0  0  0
   -0.8337    1.9640   -0.4932 H   0  0  0  0  0  0  0  0  0  0  0  0
    0.0000    0.0000    0.0000 C   0  0  0  0  0  0  0  0  0  0  0  0
   -1.0940   -0.5987   -0.0000 O   0  0  0  0  0  1  0  0  0  0  0  0
    1.0940   -0.5994    0.0000 O   0  0  0  0  0  0  0  0  0  0  0  0
    2.2695   -1.2574    3.0563 C   0  0  0  0  0  0  0  0  0  0  0  0
    1.4792   -0.9113    2.5375 H   0  0  0  0  0  0  0  0  0  0  0  0
    3.0413   -0.6267    2.9193 H   0  0  0  0  0  0  0  0  0  0  0  0
    2.0148   -1.2839    4.1158 H   0  0  0  0  0  0  0  0  0  0  0  0
    2.6513   -2.6218    2.5079 C   0  0  0  0  0  0  0  0  0  0  0  0
    3.4376   -2.9590    3.0017 H   0  0  0  0  0  0  0  0  0  0  0  0
    1.8801   -3.2321    2.5925 H   0  0  0  0  0  0  0  0  0  0  0  0
    3.0162   -2.4995    1.0352 C   0  0  0  0  0  0  0  0  0  0  0  0
    2.3232   -1.9295    0.5764 H   0  0  0  0  0  0  0  0  0  0  0  0
    3.9066   -2.0332    0.9605 H   0  0  0  0  0  0  0  0  0  0  0  0
    3.0742   -3.4660    0.5345 H   0  0  0  0  0  0  0  0  0  0  0  0
  1  5  1  0
  5  6  1  0
  5  7  2  0
  1  2  1  0
  1  3  1  0
  1  4  1  0
  8 12  1  0
 12 15  1  0
  8  9  1  0
  8 10  1  0
  8 11  1  0
 12 13  1  0
 12 14  1  0
 15 16  1  0
 15 17  1  0
 15 18  1  0
M  CHG  1   6  -1
M  END
>  <PDB_ID>  (529) 
pdb1jey

>  <RESIDUE_NAME>  (529) 
GLU   LYS

>  <FRAG_NAME>  (529) 
ACET   PRPA

>  <FRAG_ATOM_NUM>  (529) 
fragi: 7  fragj: 11

>  <atom.prop.CHAIN_ID>  (529) 
A A A A A A A Z Z Z Z Z Z Z Z Z Z Z

>  <atom.prop.IS_HEAVY_ATOM>  (529) 
1 0 0 0 1 1 1 1 0 0 0 1 0 0 1 0 0 0

>  <DIFUSE_FUNC_ATOM>  (529) 
atom 6   atom 7   

>  <FINAL_SINGLE_POINT_ENERGY>  (529) 
0

>  <NONCOV_INTER_ENERGY_QM>  (529) 
0

>  <FF_Energy>  (529) 
13.33

>  <QM_Energy>  (529) 
-2.92

>  <source>  (529) 
ACET_PRPA_05

>  <Index>  (529) 
3983

$$$$
ACET-pdb1jgt-A-GLU-151:PRPA-pdb1jgt-A-ARG-17
     RDKit          3D

 18 16  0  0  0  0  0  0  0  0999 V2000
    0.0033    1.5314    0.0087 C   0  0  0  0  0  0  0  0  0  0  0  0
    0.9344    1.8249    0.1391 H   0  0  0  0  0  0  0  0  0  0  0  0
   -0.5810    1.8238    0.7464 H   0  0  0  0  0  0  0  0  0  0  0  0
   -0.3651    1.9842   -0.9119 H   0  0  0  0  0  0  0  0  0  0  0  0
    0.0000    0.0000    0.0000 C   0  0  0  0  0  0  0  0  0  0  0  0
   -1.0965   -0.6034    0.0000 O   0  0  0  0  0  1  0  0  0  0  0  0
    1.0965   -0.6086   -0.0000 O   0  0  0  0  0  0  0  0  0  0  0  0
    4.1368    2.8611    0.0085 C   0  0  0  0  0  0  0  0  0  0  0  0
    3.6251    3.2477   -0.7992 H   0  0  0  0  0  0  0  0  0  0  0  0
    4.8518    2.1264   -0.3615 H   0  0  0  0  0  0  0  0  0  0  0  0
    4.5453    3.6936    0.5814 H   0  0  0  0  0  0  0  0  0  0  0  0
    3.0385    2.1715    0.8199 C   0  0  0  0  0  0  0  0  0  0  0  0
    2.5092    2.8839    1.2904 H   0  0  0  0  0  0  0  0  0  0  0  0
    2.4330    1.6936    0.1763 H   0  0  0  0  0  0  0  0  0  0  0  0
    3.5088    1.1749    1.8525 C   0  0  0  0  0  0  0  0  0  0  0  0
    3.9903    0.4357    1.4113 H   0  0  0  0  0  0  0  0  0  0  0  0
    4.0711    1.6275    2.5246 H   0  0  0  0  0  0  0  0  0  0  0  0
    2.6372    0.7615    2.3599 H   0  0  0  0  0  0  0  0  0  0  0  0
  1  5  1  0
  5  6  1  0
  5  7  2  0
  1  2  1  0
  1  3  1  0
  1  4  1  0
  8 12  1  0
 12 15  1  0
  8  9  1  0
  8 10  1  0
  8 11  1  0
 12 13  1  0
 12 14  1  0
 15 16  1  0
 15 17  1  0
 15 18  1  0
M  CHG  1   6  -1
M  END
>  <PDB_ID>  (530) 
pdb1jgt

>  <RESIDUE_NAME>  (530) 
GLU   ARG

>  <FRAG_NAME>  (530) 
ACET   PRPA

>  <FRAG_ATOM_NUM>  (530) 
fragi: 7  fragj: 11

>  <atom.prop.CHAIN_ID>  (530) 
A A A A A A A Z Z Z Z Z Z Z Z Z Z Z

>  <atom.prop.IS_HEAVY_ATOM>  (530) 
1 0 0 0 1 1 1 1 0 0 0 1 0 0 1 0 0 0

>  <DIFUSE_FUNC_ATOM>  (530) 
atom 6   atom 7   

>  <FINAL_SINGLE_POINT_ENERGY>  (530) 
0

>  <NONCOV_INTER_ENERGY_QM>  (530) 
0

>  <FF_Energy>  (530) 
32.29

>  <QM_Energy>  (530) 
2.52

>  <source>  (530) 
ACET_PRPA_05

>  <Index>  (530) 
4956

$$$$
ACET-pdb1jgt-A-GLU-151:PRPA-pdb1jgt-A-ARG-17
     RDKit          3D

 18 16  0  0  0  0  0  0  0  0999 V2000
    0.0033    1.5314    0.0087 C   0  0  0  0  0  0  0  0  0  0  0  0
    0.9344    1.8249    0.1391 H   0  0  0  0  0  0  0  0  0  0  0  0
   -0.5810    1.8238    0.7464 H   0  0  0  0  0  0  0  0  0  0  0  0
   -0.3651    1.9842   -0.9119 H   0  0  0  0  0  0  0  0  0  0  0  0
    0.0000    0.0000    0.0000 C   0  0  0  0  0  0  0  0  0  0  0  0
   -1.0965   -0.6034    0.0000 O   0  0  0  0  0  1  0  0  0  0  0  0
    1.0965   -0.6086   -0.0000 O   0  0  0  0  0  0  0  0  0  0  0  0
    3.0385    2.1715    0.8199 C   0  0  0  0  0  0  0  0  0  0  0  0
    2.5092    2.8839    1.2904 H   0  0  0  0  0  0  0  0  0  0  0  0
    2.4330    1.6936    0.1763 H   0  0  0  0  0  0  0  0  0  0  0  0
    3.8211    2.6629    0.2417 H   0  0  0  0  0  0  0  0  0  0  0  0
    3.5088    1.1749    1.8525 C   0  0  0  0  0  0  0  0  0  0  0  0
    3.9903    0.4357    1.4113 H   0  0  0  0  0  0  0  0  0  0  0  0
    4.0711    1.6275    2.5246 H   0  0  0  0  0  0  0  0  0  0  0  0
    2.2954    0.5992    2.5589 C   0  0  0  0  0  0  0  0  0  0  0  0
    1.8704    1.3329    3.0939 H   0  0  0  0  0  0  0  0  0  0  0  0
    1.6492    0.2866    1.8590 H   0  0  0  0  0  0  0  0  0  0  0  0
    2.5365   -0.2324    3.2209 H   0  0  0  0  0  0  0  0  0  0  0  0
  1  5  1  0
  5  6  1  0
  5  7  2  0
  1  2  1  0
  1  3  1  0
  1  4  1  0
  8 12  1  0
 12 15  1  0
  8  9  1  0
  8 10  1  0
  8 11  1  0
 12 13  1  0
 12 14  1  0
 15 16  1  0
 15 17  1  0
 15 18  1  0
M  CHG  1   6  -1
M  END
>  <PDB_ID>  (531) 
pdb1jgt

>  <RESIDUE_NAME>  (531) 
GLU   ARG

>  <FRAG_NAME>  (531) 
ACET   PRPA

>  <FRAG_ATOM_NUM>  (531) 
fragi: 7  fragj: 11

>  <atom.prop.CHAIN_ID>  (531) 
A A A A A A A Z Z Z Z Z Z Z Z Z Z Z

>  <atom.prop.IS_HEAVY_ATOM>  (531) 
1 0 0 0 1 1 1 1 0 0 0 1 0 0 1 0 0 0

>  <DIFUSE_FUNC_ATOM>  (531) 
atom 6   atom 7   

>  <FINAL_SINGLE_POINT_ENERGY>  (531) 
0

>  <NONCOV_INTER_ENERGY_QM>  (531) 
0

>  <FF_Energy>  (531) 
33.61

>  <QM_Energy>  (531) 
2.8

>  <source>  (531) 
ACET_PRPA_05

>  <Index>  (531) 
4961

$$$$
ACET-pdb2nzw-B-ASP-176:PRPA-pdb2nzw-B-LYS-179
     RDKit          3D

 18 16  0  0  0  0  0  0  0  0999 V2000
    0.0262    1.5121   -0.0088 C   0  0  0  0  0  0  0  0  0  0  0  0
   -0.2281    1.8304   -0.9157 H   0  0  0  0  0  0  0  0  0  0  0  0
    0.9434    1.8173    0.2203 H   0  0  0  0  0  0  0  0  0  0  0  0
   -0.6671    1.9466    0.7114 H   0  0  0  0  0  0  0  0  0  0  0  0
    0.0000    0.0000    0.0000 C   0  0  0  0  0  0  0  0  0  0  0  0
   -1.1058   -0.6011   -0.0000 O   0  0  0  0  0  1  0  0  0  0  0  0
    1.1058   -0.5831    0.0000 O   0  0  0  0  0  0  0  0  0  0  0  0
    3.3378    0.3625    3.1229 C   0  0  0  0  0  0  0  0  0  0  0  0
    4.1556   -0.2367    2.9734 H   0  0  0  0  0  0  0  0  0  0  0  0
    2.4422   -0.2538    3.0443 H   0  0  0  0  0  0  0  0  0  0  0  0
    3.4637    0.8833    4.0721 H   0  0  0  0  0  0  0  0  0  0  0  0
    3.3937    1.3591    1.9384 C   0  0  0  0  0  0  0  0  0  0  0  0
    2.5834    1.9372    1.9860 H   0  0  0  0  0  0  0  0  0  0  0  0
    4.2147    1.9153    2.0440 H   0  0  0  0  0  0  0  0  0  0  0  0
    3.4339    0.7004    0.5513 C   0  0  0  0  0  0  0  0  0  0  0  0
    4.2279    0.1026    0.4958 H   0  0  0  0  0  0  0  0  0  0  0  0
    2.5989    0.1778    0.4117 H   0  0  0  0  0  0  0  0  0  0  0  0
    3.5096    1.4442   -0.2418 H   0  0  0  0  0  0  0  0  0  0  0  0
  1  5  1  0
  5  6  1  0
  5  7  2  0
  1  2  1  0
  1  3  1  0
  1  4  1  0
  8 12  1  0
 12 15  1  0
  8  9  1  0
  8 10  1  0
  8 11  1  0
 12 13  1  0
 12 14  1  0
 15 16  1  0
 15 17  1  0
 15 18  1  0
M  CHG  1   6  -1
M  END
>  <PDB_ID>  (532) 
pdb2nzw

>  <RESIDUE_NAME>  (532) 
ASP   LYS

>  <FRAG_NAME>  (532) 
ACET   PRPA

>  <FRAG_ATOM_NUM>  (532) 
fragi: 7  fragj: 11

>  <atom.prop.CHAIN_ID>  (532) 
A A A A A A A Z Z Z Z Z Z Z Z Z Z Z

>  <atom.prop.IS_HEAVY_ATOM>  (532) 
1 0 0 0 1 1 1 1 0 0 0 1 0 0 1 0 0 0

>  <DIFUSE_FUNC_ATOM>  (532) 
atom 6   atom 7   

>  <FINAL_SINGLE_POINT_ENERGY>  (532) 
0

>  <NONCOV_INTER_ENERGY_QM>  (532) 
0

>  <FF_Energy>  (532) 
46.87

>  <QM_Energy>  (532) 
1.96

>  <source>  (532) 
ACET_PRPA_05

>  <Index>  (532) 
5420

$$$$
ACET-pdb2nzw-B-ASP-176:PRPA-pdb2nzw-B-LYS-179
     RDKit          3D

 18 16  0  0  0  0  0  0  0  0999 V2000
    0.0262    1.5121   -0.0088 C   0  0  0  0  0  0  0  0  0  0  0  0
   -0.2281    1.8304   -0.9157 H   0  0  0  0  0  0  0  0  0  0  0  0
    0.9434    1.8173    0.2203 H   0  0  0  0  0  0  0  0  0  0  0  0
   -0.6671    1.9466    0.7114 H   0  0  0  0  0  0  0  0  0  0  0  0
    0.0000    0.0000    0.0000 C   0  0  0  0  0  0  0  0  0  0  0  0
   -1.1058   -0.6011   -0.0000 O   0  0  0  0  0  1  0  0  0  0  0  0
    1.1058   -0.5831    0.0000 O   0  0  0  0  0  0  0  0  0  0  0  0
    3.4339    0.7004    0.5513 C   0  0  0  0  0  0  0  0  0  0  0  0
    4.2279    0.1026    0.4958 H   0  0  0  0  0  0  0  0  0  0  0  0
    2.5989    0.1778    0.4117 H   0  0  0  0  0  0  0  0  0  0  0  0
    3.4054    1.1678    1.5356 H   0  0  0  0  0  0  0  0  0  0  0  0
    3.5417    1.7601   -0.5786 C   0  0  0  0  0  0  0  0  0  0  0  0
    2.8869    2.4819   -0.3964 H   0  0  0  0  0  0  0  0  0  0  0  0
    4.4668    2.1157   -0.5905 H   0  0  0  0  0  0  0  0  0  0  0  0
    3.2318    1.1623   -1.9734 C   0  0  0  0  0  0  0  0  0  0  0  0
    4.0869    0.7860   -2.3561 H   0  0  0  0  0  0  0  0  0  0  0  0
    2.5817    0.3981   -1.8559 H   0  0  0  0  0  0  0  0  0  0  0  0
    2.8122    1.8707   -2.6877 H   0  0  0  0  0  0  0  0  0  0  0  0
  1  5  1  0
  5  6  1  0
  5  7  2  0
  1  2  1  0
  1  3  1  0
  1  4  1  0
  8 12  1  0
 12 15  1  0
  8  9  1  0
  8 10  1  0
  8 11  1  0
 12 13  1  0
 12 14  1  0
 15 16  1  0
 15 17  1  0
 15 18  1  0
M  CHG  1   6  -1
M  END
>  <PDB_ID>  (533) 
pdb2nzw

>  <RESIDUE_NAME>  (533) 
ASP   LYS

>  <FRAG_NAME>  (533) 
ACET   PRPA

>  <FRAG_ATOM_NUM>  (533) 
fragi: 7  fragj: 11

>  <atom.prop.CHAIN_ID>  (533) 
A A A A A A A Z Z Z Z Z Z Z Z Z Z Z

>  <atom.prop.IS_HEAVY_ATOM>  (533) 
1 0 0 0 1 1 1 1 0 0 0 1 0 0 1 0 0 0

>  <DIFUSE_FUNC_ATOM>  (533) 
atom 6   atom 7   

>  <FINAL_SINGLE_POINT_ENERGY>  (533) 
0

>  <NONCOV_INTER_ENERGY_QM>  (533) 
0

>  <FF_Energy>  (533) 
47.51

>  <QM_Energy>  (533) 
1.23

>  <source>  (533) 
ACET_PRPA_05

>  <Index>  (533) 
5448

$$$$
ACET-pdb2ob9-A-GLU-25:PRPA-pdb2ob9-A-VAL-102
     RDKit          3D

 18 16  0  0  0  0  0  0  0  0999 V2000
    0.0043    1.5021    0.0353 C   0  0  0  0  0  0  0  0  0  0  0  0
    0.9165    1.8048   -0.2013 H   0  0  0  0  0  0  0  0  0  0  0  0
   -0.2372    1.7803    0.9539 H   0  0  0  0  0  0  0  0  0  0  0  0
   -0.7006    1.9579   -0.6600 H   0  0  0  0  0  0  0  0  0  0  0  0
    0.0000    0.0000    0.0000 C   0  0  0  0  0  0  0  0  0  0  0  0
   -1.0995   -0.5783    0.0000 O   0  0  0  0  0  1  0  0  0  0  0  0
    1.0995   -0.5820   -0.0000 O   0  0  0  0  0  0  0  0  0  0  0  0
   -0.3319    1.0056    5.2846 C   0  0  0  0  0  0  0  0  0  0  0  0
   -0.1371    0.1428    4.7982 H   0  0  0  0  0  0  0  0  0  0  0  0
   -1.3151    0.9217    5.7476 H   0  0  0  0  0  0  0  0  0  0  0  0
    0.4558    1.1519    6.0237 H   0  0  0  0  0  0  0  0  0  0  0  0
   -0.3010    2.1040    4.1613 C   0  0  0  0  0  0  0  0  0  0  0  0
   -0.5252    2.9712    4.5899 H   0  0  0  0  0  0  0  0  0  0  0  0
    0.6972    2.2110    3.7366 H   0  0  0  0  0  0  0  0  0  0  0  0
   -1.3188    1.7692    3.0875 C   0  0  0  0  0  0  0  0  0  0  0  0
   -1.5294    0.7920    3.1220 H   0  0  0  0  0  0  0  0  0  0  0  0
   -2.1543    2.2968    3.2447 H   0  0  0  0  0  0  0  0  0  0  0  0
   -0.9419    1.9978    2.1896 H   0  0  0  0  0  0  0  0  0  0  0  0
  1  5  1  0
  5  6  1  0
  5  7  2  0
  1  2  1  0
  1  3  1  0
  1  4  1  0
  8 12  1  0
 12 15  1  0
  8  9  1  0
  8 10  1  0
  8 11  1  0
 12 13  1  0
 12 14  1  0
 15 16  1  0
 15 17  1  0
 15 18  1  0
M  CHG  1   6  -1
M  END
>  <PDB_ID>  (534) 
pdb2ob9

>  <RESIDUE_NAME>  (534) 
GLU   VAL

>  <FRAG_NAME>  (534) 
ACET   PRPA

>  <FRAG_ATOM_NUM>  (534) 
fragi: 7  fragj: 11

>  <atom.prop.CHAIN_ID>  (534) 
A A A A A A A Z Z Z Z Z Z Z Z Z Z Z

>  <atom.prop.IS_HEAVY_ATOM>  (534) 
1 0 0 0 1 1 1 1 0 0 0 1 0 0 1 0 0 0

>  <DIFUSE_FUNC_ATOM>  (534) 
atom 6   atom 7   

>  <FINAL_SINGLE_POINT_ENERGY>  (534) 
0

>  <NONCOV_INTER_ENERGY_QM>  (534) 
0

>  <FF_Energy>  (534) 
43.02

>  <QM_Energy>  (534) 
3.73

>  <source>  (534) 
ACET_PRPA_05

>  <Index>  (534) 
6026

$$$$
ACET-pdb2ob9-A-GLU-25:PRPA-pdb2ob9-A-VAL-102
     RDKit          3D

 18 16  0  0  0  0  0  0  0  0999 V2000
    0.0043    1.5021    0.0353 C   0  0  0  0  0  0  0  0  0  0  0  0
    0.9165    1.8048   -0.2013 H   0  0  0  0  0  0  0  0  0  0  0  0
   -0.2372    1.7803    0.9539 H   0  0  0  0  0  0  0  0  0  0  0  0
   -0.7006    1.9579   -0.6600 H   0  0  0  0  0  0  0  0  0  0  0  0
    0.0000    0.0000    0.0000 C   0  0  0  0  0  0  0  0  0  0  0  0
   -1.0995   -0.5783    0.0000 O   0  0  0  0  0  1  0  0  0  0  0  0
    1.0995   -0.5820   -0.0000 O   0  0  0  0  0  0  0  0  0  0  0  0
    1.1156    2.2559    3.5586 C   0  0  0  0  0  0  0  0  0  0  0  0
    1.7883    2.1456    4.2848 H   0  0  0  0  0  0  0  0  0  0  0  0
    1.2456    1.5556    2.8628 H   0  0  0  0  0  0  0  0  0  0  0  0
    1.1962    3.1612    3.1517 H   0  0  0  0  0  0  0  0  0  0  0  0
   -0.3010    2.1040    4.1613 C   0  0  0  0  0  0  0  0  0  0  0  0
   -0.5252    2.9712    4.5899 H   0  0  0  0  0  0  0  0  0  0  0  0
   -0.3225    1.3420    4.9405 H   0  0  0  0  0  0  0  0  0  0  0  0
   -1.3188    1.7692    3.0875 C   0  0  0  0  0  0  0  0  0  0  0  0
   -1.5294    0.7920    3.1220 H   0  0  0  0  0  0  0  0  0  0  0  0
   -2.1543    2.2968    3.2447 H   0  0  0  0  0  0  0  0  0  0  0  0
   -0.9419    1.9978    2.1896 H   0  0  0  0  0  0  0  0  0  0  0  0
  1  5  1  0
  5  6  1  0
  5  7  2  0
  1  2  1  0
  1  3  1  0
  1  4  1  0
  8 12  1  0
 12 15  1  0
  8  9  1  0
  8 10  1  0
  8 11  1  0
 12 13  1  0
 12 14  1  0
 15 16  1  0
 15 17  1  0
 15 18  1  0
M  CHG  1   6  -1
M  END
>  <PDB_ID>  (535) 
pdb2ob9

>  <RESIDUE_NAME>  (535) 
GLU   VAL

>  <FRAG_NAME>  (535) 
ACET   PRPA

>  <FRAG_ATOM_NUM>  (535) 
fragi: 7  fragj: 11

>  <atom.prop.CHAIN_ID>  (535) 
A A A A A A A Z Z Z Z Z Z Z Z Z Z Z

>  <atom.prop.IS_HEAVY_ATOM>  (535) 
1 0 0 0 1 1 1 1 0 0 0 1 0 0 1 0 0 0

>  <DIFUSE_FUNC_ATOM>  (535) 
atom 6   atom 7   

>  <FINAL_SINGLE_POINT_ENERGY>  (535) 
0

>  <NONCOV_INTER_ENERGY_QM>  (535) 
0

>  <FF_Energy>  (535) 
42.74

>  <QM_Energy>  (535) 
3.58

>  <source>  (535) 
ACET_PRPA_05

>  <Index>  (535) 
6035

$$$$
ACET-pdb1jje-A-GLU-150:PRPA-pdb1jje-A-LYS-129
     RDKit          3D

 18 16  0  0  0  0  0  0  0  0999 V2000
    0.0344    1.5107   -0.0050 C   0  0  0  0  0  0  0  0  0  0  0  0
    0.5118    1.7985   -0.8170 H   0  0  0  0  0  0  0  0  0  0  0  0
    0.4968    1.8038    0.8146 H   0  0  0  0  0  0  0  0  0  0  0  0
   -0.9553    1.9672   -0.0167 H   0  0  0  0  0  0  0  0  0  0  0  0
    0.0000    0.0000    0.0000 C   0  0  0  0  0  0  0  0  0  0  0  0
   -1.0965   -0.5889    0.0000 O   0  0  0  0  0  1  0  0  0  0  0  0
    1.0965   -0.6007   -0.0000 O   0  0  0  0  0  0  0  0  0  0  0  0
    2.4870   -1.6974    2.8302 C   0  0  0  0  0  0  0  0  0  0  0  0
    2.9888   -1.2422    2.0738 H   0  0  0  0  0  0  0  0  0  0  0  0
    3.0394   -2.5008    3.1144 H   0  0  0  0  0  0  0  0  0  0  0  0
    2.4205   -1.0055    3.6698 H   0  0  0  0  0  0  0  0  0  0  0  0
    1.1556   -2.1850    2.3035 C   0  0  0  0  0  0  0  0  0  0  0  0
    0.5597   -2.4010    3.0721 H   0  0  0  0  0  0  0  0  0  0  0  0
    0.7463   -1.4740    1.7400 H   0  0  0  0  0  0  0  0  0  0  0  0
    1.3154   -3.4385    1.4530 C   0  0  0  0  0  0  0  0  0  0  0  0
    2.2926   -3.6050    1.3000 H   0  0  0  0  0  0  0  0  0  0  0  0
    0.9263   -4.2187    1.9483 H   0  0  0  0  0  0  0  0  0  0  0  0
    0.8145   -3.3405    0.4899 H   0  0  0  0  0  0  0  0  0  0  0  0
  1  5  1  0
  5  6  1  0
  5  7  2  0
  1  2  1  0
  1  3  1  0
  1  4  1  0
  8 12  1  0
 12 15  1  0
  8  9  1  0
  8 10  1  0
  8 11  1  0
 12 13  1  0
 12 14  1  0
 15 16  1  0
 15 17  1  0
 15 18  1  0
M  CHG  1   6  -1
M  END
>  <PDB_ID>  (536) 
pdb1jje

>  <RESIDUE_NAME>  (536) 
GLU   LYS

>  <FRAG_NAME>  (536) 
ACET   PRPA

>  <FRAG_ATOM_NUM>  (536) 
fragi: 7  fragj: 11

>  <atom.prop.CHAIN_ID>  (536) 
A A A A A A A Z Z Z Z Z Z Z Z Z Z Z

>  <atom.prop.IS_HEAVY_ATOM>  (536) 
1 0 0 0 1 1 1 1 0 0 0 1 0 0 1 0 0 0

>  <DIFUSE_FUNC_ATOM>  (536) 
atom 6   atom 7   

>  <FINAL_SINGLE_POINT_ENERGY>  (536) 
0

>  <NONCOV_INTER_ENERGY_QM>  (536) 
0

>  <FF_Energy>  (536) 
12.82

>  <QM_Energy>  (536) 
-2.67

>  <source>  (536) 
ACET_PRPA_05

>  <Index>  (536) 
6268

$$$$
ACET-pdb1jmt-A-GLU-88:PRPA-pdb1jmt-A-LYS-92
     RDKit          3D

 18 16  0  0  0  0  0  0  0  0999 V2000
    0.0140    1.5321   -0.0239 C   0  0  0  0  0  0  0  0  0  0  0  0
    0.0986    1.8083   -0.9644 H   0  0  0  0  0  0  0  0  0  0  0  0
    0.7821    1.8247    0.5180 H   0  0  0  0  0  0  0  0  0  0  0  0
   -0.8890    1.9844    0.3863 H   0  0  0  0  0  0  0  0  0  0  0  0
    0.0000    0.0000    0.0000 C   0  0  0  0  0  0  0  0  0  0  0  0
   -1.0925   -0.5998   -0.0000 O   0  0  0  0  0  1  0  0  0  0  0  0
    1.0925   -0.6046   -0.0000 O   0  0  0  0  0  0  0  0  0  0  0  0
    3.0146   -1.4010    2.9252 C   0  0  0  0  0  0  0  0  0  0  0  0
    2.7666   -0.5381    2.5028 H   0  0  0  0  0  0  0  0  0  0  0  0
    3.9591   -1.6311    2.7200 H   0  0  0  0  0  0  0  0  0  0  0  0
    2.9148   -1.2956    4.0055 H   0  0  0  0  0  0  0  0  0  0  0  0
    2.1180   -2.4934    2.3456 C   0  0  0  0  0  0  0  0  0  0  0  0
    2.2362   -3.3290    2.8850 H   0  0  0  0  0  0  0  0  0  0  0  0
    1.1641   -2.1944    2.4044 H   0  0  0  0  0  0  0  0  0  0  0  0
    2.4537   -2.7923    0.8936 C   0  0  0  0  0  0  0  0  0  0  0  0
    2.4008   -1.9472    0.3692 H   0  0  0  0  0  0  0  0  0  0  0  0
    3.3741   -3.1689    0.8444 H   0  0  0  0  0  0  0  0  0  0  0  0
    1.7623   -3.5133    0.4573 H   0  0  0  0  0  0  0  0  0  0  0  0
  1  5  1  0
  5  6  1  0
  5  7  2  0
  1  2  1  0
  1  3  1  0
  1  4  1  0
  8 12  1  0
 12 15  1  0
  8  9  1  0
  8 10  1  0
  8 11  1  0
 12 13  1  0
 12 14  1  0
 15 16  1  0
 15 17  1  0
 15 18  1  0
M  CHG  1   6  -1
M  END
>  <PDB_ID>  (537) 
pdb1jmt

>  <RESIDUE_NAME>  (537) 
GLU   LYS

>  <FRAG_NAME>  (537) 
ACET   PRPA

>  <FRAG_ATOM_NUM>  (537) 
fragi: 7  fragj: 11

>  <atom.prop.CHAIN_ID>  (537) 
A A A A A A A Z Z Z Z Z Z Z Z Z Z Z

>  <atom.prop.IS_HEAVY_ATOM>  (537) 
1 0 0 0 1 1 1 1 0 0 0 1 0 0 1 0 0 0

>  <DIFUSE_FUNC_ATOM>  (537) 
atom 6   atom 7   

>  <FINAL_SINGLE_POINT_ENERGY>  (537) 
0

>  <NONCOV_INTER_ENERGY_QM>  (537) 
0

>  <FF_Energy>  (537) 
15.15

>  <QM_Energy>  (537) 
-1.47

>  <source>  (537) 
ACET_PRPA_05

>  <Index>  (537) 
6280

$$$$
ACET-pdb1jmt-A-GLU-88:PRPA-pdb1jmt-A-LYS-92
     RDKit          3D

 18 16  0  0  0  0  0  0  0  0999 V2000
    0.0140    1.5321   -0.0239 C   0  0  0  0  0  0  0  0  0  0  0  0
    0.0986    1.8083   -0.9644 H   0  0  0  0  0  0  0  0  0  0  0  0
    0.7821    1.8247    0.5180 H   0  0  0  0  0  0  0  0  0  0  0  0
   -0.8890    1.9844    0.3863 H   0  0  0  0  0  0  0  0  0  0  0  0
    0.0000    0.0000    0.0000 C   0  0  0  0  0  0  0  0  0  0  0  0
   -1.0925   -0.5998   -0.0000 O   0  0  0  0  0  1  0  0  0  0  0  0
    1.0925   -0.6046   -0.0000 O   0  0  0  0  0  0  0  0  0  0  0  0
    2.1180   -2.4934    2.3456 C   0  0  0  0  0  0  0  0  0  0  0  0
    2.2362   -3.3290    2.8850 H   0  0  0  0  0  0  0  0  0  0  0  0
    1.1641   -2.1944    2.4044 H   0  0  0  0  0  0  0  0  0  0  0  0
    2.7578   -1.7138    2.7592 H   0  0  0  0  0  0  0  0  0  0  0  0
    2.4537   -2.7923    0.8936 C   0  0  0  0  0  0  0  0  0  0  0  0
    2.4008   -1.9472    0.3692 H   0  0  0  0  0  0  0  0  0  0  0  0
    3.3741   -3.1689    0.8444 H   0  0  0  0  0  0  0  0  0  0  0  0
    1.4870   -3.8004    0.2835 C   0  0  0  0  0  0  0  0  0  0  0  0
    0.5523   -3.4466    0.3686 H   0  0  0  0  0  0  0  0  0  0  0  0
    1.7062   -3.9133   -0.6882 H   0  0  0  0  0  0  0  0  0  0  0  0
    1.5480   -4.7698    0.7779 H   0  0  0  0  0  0  0  0  0  0  0  0
  1  5  1  0
  5  6  1  0
  5  7  2  0
  1  2  1  0
  1  3  1  0
  1  4  1  0
  8 12  1  0
 12 15  1  0
  8  9  1  0
  8 10  1  0
  8 11  1  0
 12 13  1  0
 12 14  1  0
 15 16  1  0
 15 17  1  0
 15 18  1  0
M  CHG  1   6  -1
M  END
>  <PDB_ID>  (538) 
pdb1jmt

>  <RESIDUE_NAME>  (538) 
GLU   LYS

>  <FRAG_NAME>  (538) 
ACET   PRPA

>  <FRAG_ATOM_NUM>  (538) 
fragi: 7  fragj: 11

>  <atom.prop.CHAIN_ID>  (538) 
A A A A A A A Z Z Z Z Z Z Z Z Z Z Z

>  <atom.prop.IS_HEAVY_ATOM>  (538) 
1 0 0 0 1 1 1 1 0 0 0 1 0 0 1 0 0 0

>  <DIFUSE_FUNC_ATOM>  (538) 
atom 6   atom 7   

>  <FINAL_SINGLE_POINT_ENERGY>  (538) 
0

>  <NONCOV_INTER_ENERGY_QM>  (538) 
0

>  <FF_Energy>  (538) 
17.21

>  <QM_Energy>  (538) 
-2.57

>  <source>  (538) 
ACET_PRPA_05

>  <Index>  (538) 
6284

$$$$
ACET-pdb2nzw-B-GLU-16:PRPA-pdb2nzw-B-LYS-329
     RDKit          3D

 18 16  0  0  0  0  0  0  0  0999 V2000
   -0.0239    1.5648   -0.0265 C   0  0  0  0  0  0  0  0  0  0  0  0
   -0.3093    1.8307   -0.9242 H   0  0  0  0  0  0  0  0  0  0  0  0
    0.8818    1.8670    0.1901 H   0  0  0  0  0  0  0  0  0  0  0  0
   -0.7117    2.0104    0.6921 H   0  0  0  0  0  0  0  0  0  0  0  0
    0.0000    0.0000    0.0000 C   0  0  0  0  0  0  0  0  0  0  0  0
   -1.0835   -0.6121   -0.0000 O   0  0  0  0  0  1  0  0  0  0  0  0
    1.0835   -0.6175    0.0000 O   0  0  0  0  0  0  0  0  0  0  0  0
    3.4754   -3.1949   -0.1527 C   0  0  0  0  0  0  0  0  0  0  0  0
    2.5762   -2.9683   -0.5159 H   0  0  0  0  0  0  0  0  0  0  0  0
    3.4239   -3.3250    0.8334 H   0  0  0  0  0  0  0  0  0  0  0  0
    3.8057   -4.1289   -0.6074 H   0  0  0  0  0  0  0  0  0  0  0  0
    4.4431   -1.9984   -0.4454 C   0  0  0  0  0  0  0  0  0  0  0  0
    5.3082   -2.1934   -0.0600 H   0  0  0  0  0  0  0  0  0  0  0  0
    4.4457   -1.8221   -1.3963 H   0  0  0  0  0  0  0  0  0  0  0  0
    3.8568   -0.7275    0.2867 C   0  0  0  0  0  0  0  0  0  0  0  0
    2.9277   -0.5614   -0.1099 H   0  0  0  0  0  0  0  0  0  0  0  0
    3.6973   -0.9966    1.2623 H   0  0  0  0  0  0  0  0  0  0  0  0
    4.4406    0.1923    0.2507 H   0  0  0  0  0  0  0  0  0  0  0  0
  1  5  1  0
  5  6  1  0
  5  7  2  0
  1  2  1  0
  1  3  1  0
  1  4  1  0
  8 12  1  0
 12 15  1  0
  8  9  1  0
  8 10  1  0
  8 11  1  0
 12 13  1  0
 12 14  1  0
 15 16  1  0
 15 17  1  0
 15 18  1  0
M  CHG  1   6  -1
M  END
>  <PDB_ID>  (539) 
pdb2nzw

>  <RESIDUE_NAME>  (539) 
GLU   LYS

>  <FRAG_NAME>  (539) 
ACET   PRPA

>  <FRAG_ATOM_NUM>  (539) 
fragi: 7  fragj: 11

>  <atom.prop.CHAIN_ID>  (539) 
A A A A A A A Z Z Z Z Z Z Z Z Z Z Z

>  <atom.prop.IS_HEAVY_ATOM>  (539) 
1 0 0 0 1 1 1 1 0 0 0 1 0 0 1 0 0 0

>  <DIFUSE_FUNC_ATOM>  (539) 
atom 6   atom 7   

>  <FINAL_SINGLE_POINT_ENERGY>  (539) 
0

>  <NONCOV_INTER_ENERGY_QM>  (539) 
0

>  <FF_Energy>  (539) 
19.35

>  <QM_Energy>  (539) 
-0.6

>  <source>  (539) 
ACET_PRPA_05

>  <Index>  (539) 
6680

$$$$
ACET-pdb2oee-A-GLU-20:PRPA-pdb2oee-A-ARG-24
     RDKit          3D

 18 16  0  0  0  0  0  0  0  0999 V2000
    0.0285    1.5280    0.0059 C   0  0  0  0  0  0  0  0  0  0  0  0
    0.7114    1.8146   -0.6386 H   0  0  0  0  0  0  0  0  0  0  0  0
    0.2328    1.8169    0.9223 H   0  0  0  0  0  0  0  0  0  0  0  0
   -0.9198    1.9789   -0.2866 H   0  0  0  0  0  0  0  0  0  0  0  0
    0.0000    0.0000    0.0000 C   0  0  0  0  0  0  0  0  0  0  0  0
   -1.0995   -0.6132   -0.0000 O   0  0  0  0  0  1  0  0  0  0  0  0
    1.0995   -0.6029    0.0000 O   0  0  0  0  0  0  0  0  0  0  0  0
    1.0996   -2.6102   -3.4512 C   0  0  0  0  0  0  0  0  0  0  0  0
    0.1193   -2.5161   -3.6208 H   0  0  0  0  0  0  0  0  0  0  0  0
    1.3438   -3.5784   -3.4277 H   0  0  0  0  0  0  0  0  0  0  0  0
    1.6335   -2.1451   -4.2799 H   0  0  0  0  0  0  0  0  0  0  0  0
    1.4071   -2.0130   -2.1071 C   0  0  0  0  0  0  0  0  0  0  0  0
    2.3879   -1.9189   -1.9891 H   0  0  0  0  0  0  0  0  0  0  0  0
    0.9559   -1.1351   -2.0115 H   0  0  0  0  0  0  0  0  0  0  0  0
    0.8889   -2.9254   -0.9923 C   0  0  0  0  0  0  0  0  0  0  0  0
    0.9201   -2.4134   -0.1448 H   0  0  0  0  0  0  0  0  0  0  0  0
   -0.0425   -3.1791   -1.2198 H   0  0  0  0  0  0  0  0  0  0  0  0
    1.5076   -3.8190   -0.9089 H   0  0  0  0  0  0  0  0  0  0  0  0
  1  5  1  0
  5  6  1  0
  5  7  2  0
  1  2  1  0
  1  3  1  0
  1  4  1  0
  8 12  1  0
 12 15  1  0
  8  9  1  0
  8 10  1  0
  8 11  1  0
 12 13  1  0
 12 14  1  0
 15 16  1  0
 15 17  1  0
 15 18  1  0
M  CHG  1   6  -1
M  END
>  <PDB_ID>  (540) 
pdb2oee

>  <RESIDUE_NAME>  (540) 
GLU   ARG

>  <FRAG_NAME>  (540) 
ACET   PRPA

>  <FRAG_ATOM_NUM>  (540) 
fragi: 7  fragj: 11

>  <atom.prop.CHAIN_ID>  (540) 
A A A A A A A Z Z Z Z Z Z Z Z Z Z Z

>  <atom.prop.IS_HEAVY_ATOM>  (540) 
1 0 0 0 1 1 1 1 0 0 0 1 0 0 1 0 0 0

>  <DIFUSE_FUNC_ATOM>  (540) 
atom 6   atom 7   

>  <FINAL_SINGLE_POINT_ENERGY>  (540) 
0

>  <NONCOV_INTER_ENERGY_QM>  (540) 
0

>  <FF_Energy>  (540) 
43.4

>  <QM_Energy>  (540) 
7.17

>  <source>  (540) 
ACET_PRPA_05

>  <Index>  (540) 
6750

$$$$
ACET-pdb2odk-B-GLU-15:PRPA-pdb2odk-B-ARG-12
     RDKit          3D

 18 16  0  0  0  0  0  0  0  0999 V2000
    0.0541    1.5291   -0.0013 C   0  0  0  0  0  0  0  0  0  0  0  0
    0.5582    1.8034   -0.7979 H   0  0  0  0  0  0  0  0  0  0  0  0
    0.4929    1.8066    0.8331 H   0  0  0  0  0  0  0  0  0  0  0  0
   -0.9320    1.9920   -0.0425 H   0  0  0  0  0  0  0  0  0  0  0  0
    0.0000    0.0000    0.0000 C   0  0  0  0  0  0  0  0  0  0  0  0
   -1.1020   -0.5812    0.0000 O   0  0  0  0  0  1  0  0  0  0  0  0
    1.1020   -0.6004   -0.0000 O   0  0  0  0  0  0  0  0  0  0  0  0
   -3.9931   -0.2167   -2.1980 C   0  0  0  0  0  0  0  0  0  0  0  0
   -3.7258   -0.4303   -3.1281 H   0  0  0  0  0  0  0  0  0  0  0  0
   -3.2593    0.2447   -1.7175 H   0  0  0  0  0  0  0  0  0  0  0  0
   -4.8588    0.4450   -2.2285 H   0  0  0  0  0  0  0  0  0  0  0  0
   -4.2576   -1.5547   -1.4697 C   0  0  0  0  0  0  0  0  0  0  0  0
   -4.7205   -1.3692   -0.6118 H   0  0  0  0  0  0  0  0  0  0  0  0
   -4.8145   -2.1335   -2.0517 H   0  0  0  0  0  0  0  0  0  0  0  0
   -2.9531   -2.2872   -1.1672 C   0  0  0  0  0  0  0  0  0  0  0  0
   -2.3721   -1.6716   -0.6318 H   0  0  0  0  0  0  0  0  0  0  0  0
   -3.1759   -3.0940   -0.6174 H   0  0  0  0  0  0  0  0  0  0  0  0
   -2.4164   -2.5992   -2.0631 H   0  0  0  0  0  0  0  0  0  0  0  0
  1  5  1  0
  5  6  1  0
  5  7  2  0
  1  2  1  0
  1  3  1  0
  1  4  1  0
  8 12  1  0
 12 15  1  0
  8  9  1  0
  8 10  1  0
  8 11  1  0
 12 13  1  0
 12 14  1  0
 15 16  1  0
 15 17  1  0
 15 18  1  0
M  CHG  1   6  -1
M  END
>  <PDB_ID>  (541) 
pdb2odk

>  <RESIDUE_NAME>  (541) 
GLU   ARG

>  <FRAG_NAME>  (541) 
ACET   PRPA

>  <FRAG_ATOM_NUM>  (541) 
fragi: 7  fragj: 11

>  <atom.prop.CHAIN_ID>  (541) 
A A A A A A A Z Z Z Z Z Z Z Z Z Z Z

>  <atom.prop.IS_HEAVY_ATOM>  (541) 
1 0 0 0 1 1 1 1 0 0 0 1 0 0 1 0 0 0

>  <DIFUSE_FUNC_ATOM>  (541) 
atom 6   atom 7   

>  <FINAL_SINGLE_POINT_ENERGY>  (541) 
0

>  <NONCOV_INTER_ENERGY_QM>  (541) 
0

>  <FF_Energy>  (541) 
29.19

>  <QM_Energy>  (541) 
-0.28

>  <source>  (541) 
ACET_PRPA_05

>  <Index>  (541) 
7234

$$$$
ACET-pdb2oee-B-GLU-20:PRPA-pdb2oee-B-ARG-24
     RDKit          3D

 18 16  0  0  0  0  0  0  0  0999 V2000
    0.0234    1.5208    0.0079 C   0  0  0  0  0  0  0  0  0  0  0  0
    0.8356    1.8083   -0.4656 H   0  0  0  0  0  0  0  0  0  0  0  0
    0.0147    1.8130    0.9459 H   0  0  0  0  0  0  0  0  0  0  0  0
   -0.8364    1.9637   -0.4948 H   0  0  0  0  0  0  0  0  0  0  0  0
    0.0000    0.0000    0.0000 C   0  0  0  0  0  0  0  0  0  0  0  0
   -1.1025   -0.6138    0.0000 O   0  0  0  0  0  1  0  0  0  0  0  0
    1.1025   -0.5917    0.0000 O   0  0  0  0  0  0  0  0  0  0  0  0
    2.3837   -2.4914   -4.0907 C   0  0  0  0  0  0  0  0  0  0  0  0
    3.3039   -2.3888   -3.6743 H   0  0  0  0  0  0  0  0  0  0  0  0
    2.0525   -1.5151   -4.4448 H   0  0  0  0  0  0  0  0  0  0  0  0
    2.4464   -3.2385   -4.8819 H   0  0  0  0  0  0  0  0  0  0  0  0
    1.4614   -2.9982   -2.9877 C   0  0  0  0  0  0  0  0  0  0  0  0
    0.5229   -2.8416   -3.2682 H   0  0  0  0  0  0  0  0  0  0  0  0
    1.6327   -3.9659   -2.8566 H   0  0  0  0  0  0  0  0  0  0  0  0
    1.6849   -2.2941   -1.6656 C   0  0  0  0  0  0  0  0  0  0  0  0
    2.6582   -2.2483   -1.4646 H   0  0  0  0  0  0  0  0  0  0  0  0
    1.2956   -1.3788   -1.6976 H   0  0  0  0  0  0  0  0  0  0  0  0
    1.2041   -2.8267   -0.8451 H   0  0  0  0  0  0  0  0  0  0  0  0
  1  5  1  0
  5  6  1  0
  5  7  2  0
  1  2  1  0
  1  3  1  0
  1  4  1  0
  8 12  1  0
 12 15  1  0
  8  9  1  0
  8 10  1  0
  8 11  1  0
 12 13  1  0
 12 14  1  0
 15 16  1  0
 15 17  1  0
 15 18  1  0
M  CHG  1   6  -1
M  END
>  <PDB_ID>  (542) 
pdb2oee

>  <RESIDUE_NAME>  (542) 
GLU   ARG

>  <FRAG_NAME>  (542) 
ACET   PRPA

>  <FRAG_ATOM_NUM>  (542) 
fragi: 7  fragj: 11

>  <atom.prop.CHAIN_ID>  (542) 
A A A A A A A Z Z Z Z Z Z Z Z Z Z Z

>  <atom.prop.IS_HEAVY_ATOM>  (542) 
1 0 0 0 1 1 1 1 0 0 0 1 0 0 1 0 0 0

>  <DIFUSE_FUNC_ATOM>  (542) 
atom 6   atom 7   

>  <FINAL_SINGLE_POINT_ENERGY>  (542) 
0

>  <NONCOV_INTER_ENERGY_QM>  (542) 
0

>  <FF_Energy>  (542) 
28.34

>  <QM_Energy>  (542) 
7.25

>  <source>  (542) 
ACET_PRPA_05

>  <Index>  (542) 
7836

$$$$
ACET-pdb1jnp-A-ASP-80:PRPA-pdb1jnp-A-ILE-92
     RDKit          3D

 18 16  0  0  0  0  0  0  0  0999 V2000
   -0.0143    1.5101   -0.0272 C   0  0  0  0  0  0  0  0  0  0  0  0
   -0.9190    1.8177   -0.3307 H   0  0  0  0  0  0  0  0  0  0  0  0
    0.6753    1.8274   -0.6815 H   0  0  0  0  0  0  0  0  0  0  0  0
    0.1938    1.9851    0.9316 H   0  0  0  0  0  0  0  0  0  0  0  0
    0.0000    0.0000    0.0000 C   0  0  0  0  0  0  0  0  0  0  0  0
   -1.1008   -0.5988    0.0000 O   0  0  0  0  0  1  0  0  0  0  0  0
    1.1008   -0.5852   -0.0000 O   0  0  0  0  0  0  0  0  0  0  0  0
    5.8848   -2.0662    0.1153 C   0  0  0  0  0  0  0  0  0  0  0  0
    6.3596   -2.6227    0.7903 H   0  0  0  0  0  0  0  0  0  0  0  0
    6.2128   -1.0379    0.2673 H   0  0  0  0  0  0  0  0  0  0  0  0
    6.2437   -2.3948   -0.8601 H   0  0  0  0  0  0  0  0  0  0  0  0
    4.3581   -2.2277    0.1591 C   0  0  0  0  0  0  0  0  0  0  0  0
    4.0494   -1.9952    1.0942 H   0  0  0  0  0  0  0  0  0  0  0  0
    4.0001   -3.2320   -0.0673 H   0  0  0  0  0  0  0  0  0  0  0  0
    3.7157   -1.1981   -0.7664 C   0  0  0  0  0  0  0  0  0  0  0  0
    2.7250   -1.2199   -0.6497 H   0  0  0  0  0  0  0  0  0  0  0  0
    4.0590   -0.2895   -0.5397 H   0  0  0  0  0  0  0  0  0  0  0  0
    3.9444   -1.4153   -1.7133 H   0  0  0  0  0  0  0  0  0  0  0  0
  1  5  1  0
  5  6  1  0
  5  7  2  0
  1  2  1  0
  1  3  1  0
  1  4  1  0
  8 12  1  0
 12 15  1  0
  8  9  1  0
  8 10  1  0
  8 11  1  0
 12 13  1  0
 12 14  1  0
 15 16  1  0
 15 17  1  0
 15 18  1  0
M  CHG  1   6  -1
M  END
>  <PDB_ID>  (543) 
pdb1jnp

>  <RESIDUE_NAME>  (543) 
ASP   ILE

>  <FRAG_NAME>  (543) 
ACET   PRPA

>  <FRAG_ATOM_NUM>  (543) 
fragi: 7  fragj: 11

>  <atom.prop.CHAIN_ID>  (543) 
A A A A A A A Z Z Z Z Z Z Z Z Z Z Z

>  <atom.prop.IS_HEAVY_ATOM>  (543) 
1 0 0 0 1 1 1 1 0 0 0 1 0 0 1 0 0 0

>  <DIFUSE_FUNC_ATOM>  (543) 
atom 6   atom 7   

>  <FINAL_SINGLE_POINT_ENERGY>  (543) 
0

>  <NONCOV_INTER_ENERGY_QM>  (543) 
0

>  <FF_Energy>  (543) 
17.9

>  <QM_Energy>  (543) 
-0.2

>  <source>  (543) 
ACET_PRPA_05

>  <Index>  (543) 
7846

$$$$
ACET-pdb1jnp-A-ASP-80:PRPA-pdb1jnp-A-ILE-92
     RDKit          3D

 18 16  0  0  0  0  0  0  0  0999 V2000
   -0.0143    1.5101   -0.0272 C   0  0  0  0  0  0  0  0  0  0  0  0
   -0.9190    1.8177   -0.3307 H   0  0  0  0  0  0  0  0  0  0  0  0
    0.6753    1.8274   -0.6815 H   0  0  0  0  0  0  0  0  0  0  0  0
    0.1938    1.9851    0.9316 H   0  0  0  0  0  0  0  0  0  0  0  0
    0.0000    0.0000    0.0000 C   0  0  0  0  0  0  0  0  0  0  0  0
   -1.1008   -0.5988    0.0000 O   0  0  0  0  0  1  0  0  0  0  0  0
    1.1008   -0.5852   -0.0000 O   0  0  0  0  0  0  0  0  0  0  0  0
    3.8548   -3.6391   -0.1590 C   0  0  0  0  0  0  0  0  0  0  0  0
    2.8896   -3.5778   -0.4188 H   0  0  0  0  0  0  0  0  0  0  0  0
    4.3690   -3.9820   -0.9486 H   0  0  0  0  0  0  0  0  0  0  0  0
    3.9571   -4.3501    0.6607 H   0  0  0  0  0  0  0  0  0  0  0  0
    4.3581   -2.2277    0.1591 C   0  0  0  0  0  0  0  0  0  0  0  0
    4.0494   -1.9952    1.0942 H   0  0  0  0  0  0  0  0  0  0  0  0
    5.4416   -2.1131    0.1280 H   0  0  0  0  0  0  0  0  0  0  0  0
    3.7157   -1.1981   -0.7664 C   0  0  0  0  0  0  0  0  0  0  0  0
    2.7250   -1.2199   -0.6497 H   0  0  0  0  0  0  0  0  0  0  0  0
    4.0590   -0.2895   -0.5397 H   0  0  0  0  0  0  0  0  0  0  0  0
    3.9444   -1.4153   -1.7133 H   0  0  0  0  0  0  0  0  0  0  0  0
  1  5  1  0
  5  6  1  0
  5  7  2  0
  1  2  1  0
  1  3  1  0
  1  4  1  0
  8 12  1  0
 12 15  1  0
  8  9  1  0
  8 10  1  0
  8 11  1  0
 12 13  1  0
 12 14  1  0
 15 16  1  0
 15 17  1  0
 15 18  1  0
M  CHG  1   6  -1
M  END
>  <PDB_ID>  (544) 
pdb1jnp

>  <RESIDUE_NAME>  (544) 
ASP   ILE

>  <FRAG_NAME>  (544) 
ACET   PRPA

>  <FRAG_ATOM_NUM>  (544) 
fragi: 7  fragj: 11

>  <atom.prop.CHAIN_ID>  (544) 
A A A A A A A Z Z Z Z Z Z Z Z Z Z Z

>  <atom.prop.IS_HEAVY_ATOM>  (544) 
1 0 0 0 1 1 1 1 0 0 0 1 0 0 1 0 0 0

>  <DIFUSE_FUNC_ATOM>  (544) 
atom 6   atom 7   

>  <FINAL_SINGLE_POINT_ENERGY>  (544) 
0

>  <NONCOV_INTER_ENERGY_QM>  (544) 
0

>  <FF_Energy>  (544) 
18.18

>  <QM_Energy>  (544) 
-0.94

>  <source>  (544) 
ACET_PRPA_05

>  <Index>  (544) 
7850

$$$$
ACET-pdb1jl3-A-GLU-99:PRPA-pdb1jl3-A-LYN-139
     RDKit          3D

 18 16  0  0  0  0  0  0  0  0999 V2000
   -0.0062    1.5176    0.0172 C   0  0  0  0  0  0  0  0  0  0  0  0
   -0.2317    1.8032    0.9302 H   0  0  0  0  0  0  0  0  0  0  0  0
   -0.6687    1.8185   -0.6427 H   0  0  0  0  0  0  0  0  0  0  0  0
    0.9609    1.9457   -0.2464 H   0  0  0  0  0  0  0  0  0  0  0  0
    0.0000    0.0000    0.0000 C   0  0  0  0  0  0  0  0  0  0  0  0
   -1.0978   -0.5950    0.0000 O   0  0  0  0  0  1  0  0  0  0  0  0
    1.0978   -0.5994   -0.0000 O   0  0  0  0  0  0  0  0  0  0  0  0
    0.4664   -3.6097   -0.6682 C   0  0  0  0  0  0  0  0  0  0  0  0
    0.1538   -4.4207   -1.1686 H   0  0  0  0  0  0  0  0  0  0  0  0
   -0.3126   -2.9959   -0.5206 H   0  0  0  0  0  0  0  0  0  0  0  0
    0.8561   -3.9227    0.3003 H   0  0  0  0  0  0  0  0  0  0  0  0
    1.5119   -2.8921   -1.4969 C   0  0  0  0  0  0  0  0  0  0  0  0
    1.8224   -2.0841   -0.9919 H   0  0  0  0  0  0  0  0  0  0  0  0
    2.2881   -3.5090   -1.6405 H   0  0  0  0  0  0  0  0  0  0  0  0
    0.9902   -2.4501   -2.8420 C   0  0  0  0  0  0  0  0  0  0  0  0
    0.6822   -3.2526   -3.3559 H   0  0  0  0  0  0  0  0  0  0  0  0
    0.2171   -1.8281   -2.7079 H   0  0  0  0  0  0  0  0  0  0  0  0
    1.7667   -1.9382   -3.4105 H   0  0  0  0  0  0  0  0  0  0  0  0
  1  5  1  0
  5  6  1  0
  5  7  2  0
  1  2  1  0
  1  3  1  0
  1  4  1  0
  8 12  1  0
 12 15  1  0
  8  9  1  0
  8 10  1  0
  8 11  1  0
 12 13  1  0
 12 14  1  0
 15 16  1  0
 15 17  1  0
 15 18  1  0
M  CHG  1   6  -1
M  END
>  <PDB_ID>  (545) 
pdb1jl3

>  <RESIDUE_NAME>  (545) 
GLU   LYN

>  <FRAG_NAME>  (545) 
ACET   PRPA

>  <FRAG_ATOM_NUM>  (545) 
fragi: 7  fragj: 11

>  <atom.prop.CHAIN_ID>  (545) 
A A A A A A A Z Z Z Z Z Z Z Z Z Z Z

>  <atom.prop.IS_HEAVY_ATOM>  (545) 
1 0 0 0 1 1 1 1 0 0 0 1 0 0 1 0 0 0

>  <DIFUSE_FUNC_ATOM>  (545) 
atom 6   atom 7   

>  <FINAL_SINGLE_POINT_ENERGY>  (545) 
0

>  <NONCOV_INTER_ENERGY_QM>  (545) 
0

>  <FF_Energy>  (545) 
15.0

>  <QM_Energy>  (545) 
-2.82

>  <source>  (545) 
ACET_PRPA_05

>  <Index>  (545) 
8174

$$$$
ACET-pdb1jnp-B-ASP-303:PRPA-pdb1jnp-B-ARG-250
     RDKit          3D

 18 16  0  0  0  0  0  0  0  0999 V2000
   -0.0215    1.5133    0.0063 C   0  0  0  0  0  0  0  0  0  0  0  0
   -0.4444    1.8234    0.8639 H   0  0  0  0  0  0  0  0  0  0  0  0
   -0.5861    1.8292   -0.7627 H   0  0  0  0  0  0  0  0  0  0  0  0
    0.9532    1.9940   -0.0767 H   0  0  0  0  0  0  0  0  0  0  0  0
    0.0000    0.0000    0.0000 C   0  0  0  0  0  0  0  0  0  0  0  0
   -1.0950   -0.6174   -0.0000 O   0  0  0  0  0  1  0  0  0  0  0  0
    1.0950   -0.5988    0.0000 O   0  0  0  0  0  0  0  0  0  0  0  0
    4.6096   -0.7434   -0.9247 C   0  0  0  0  0  0  0  0  0  0  0  0
    4.2277    0.1423   -0.6714 H   0  0  0  0  0  0  0  0  0  0  0  0
    4.7095   -0.7858   -2.0092 H   0  0  0  0  0  0  0  0  0  0  0  0
    5.5993   -0.8415   -0.4787 H   0  0  0  0  0  0  0  0  0  0  0  0
    3.6333   -1.8167   -0.4637 C   0  0  0  0  0  0  0  0  0  0  0  0
    2.6988   -1.4842   -0.6364 H   0  0  0  0  0  0  0  0  0  0  0  0
    3.7858   -2.6393   -1.0219 H   0  0  0  0  0  0  0  0  0  0  0  0
    3.7227   -2.2206    0.9928 C   0  0  0  0  0  0  0  0  0  0  0  0
    4.6418   -2.5337    1.1986 H   0  0  0  0  0  0  0  0  0  0  0  0
    3.4762   -1.4516    1.5705 H   0  0  0  0  0  0  0  0  0  0  0  0
    3.0320   -3.0366    1.2053 H   0  0  0  0  0  0  0  0  0  0  0  0
  1  5  1  0
  5  6  1  0
  5  7  2  0
  1  2  1  0
  1  3  1  0
  1  4  1  0
  8 12  1  0
 12 15  1  0
  8  9  1  0
  8 10  1  0
  8 11  1  0
 12 13  1  0
 12 14  1  0
 15 16  1  0
 15 17  1  0
 15 18  1  0
M  CHG  1   6  -1
M  END
>  <PDB_ID>  (546) 
pdb1jnp

>  <RESIDUE_NAME>  (546) 
ASP   ARG

>  <FRAG_NAME>  (546) 
ACET   PRPA

>  <FRAG_ATOM_NUM>  (546) 
fragi: 7  fragj: 11

>  <atom.prop.CHAIN_ID>  (546) 
A A A A A A A Z Z Z Z Z Z Z Z Z Z Z

>  <atom.prop.IS_HEAVY_ATOM>  (546) 
1 0 0 0 1 1 1 1 0 0 0 1 0 0 1 0 0 0

>  <DIFUSE_FUNC_ATOM>  (546) 
atom 6   atom 7   

>  <FINAL_SINGLE_POINT_ENERGY>  (546) 
0

>  <NONCOV_INTER_ENERGY_QM>  (546) 
0

>  <FF_Energy>  (546) 
12.66

>  <QM_Energy>  (546) 
-3.15

>  <source>  (546) 
ACET_PRPA_05

>  <Index>  (546) 
8765

$$$$
ACET-pdb2ogs-A-GLU-7:PRPA-pdb2ogs-A-ARG-12
     RDKit          3D

 18 16  0  0  0  0  0  0  0  0999 V2000
    0.0137    1.5253   -0.0157 C   0  0  0  0  0  0  0  0  0  0  0  0
    0.2054    1.8102   -0.9380 H   0  0  0  0  0  0  0  0  0  0  0  0
    0.7098    1.8213    0.6143 H   0  0  0  0  0  0  0  0  0  0  0  0
   -0.9325    1.9737    0.2873 H   0  0  0  0  0  0  0  0  0  0  0  0
    0.0000    0.0000    0.0000 C   0  0  0  0  0  0  0  0  0  0  0  0
   -1.0931   -0.6005    0.0000 O   0  0  0  0  0  1  0  0  0  0  0  0
    1.0931   -0.6036   -0.0000 O   0  0  0  0  0  0  0  0  0  0  0  0
   -3.6305   -2.1887    1.0945 C   0  0  0  0  0  0  0  0  0  0  0  0
   -3.3820   -1.2828    1.4759 H   0  0  0  0  0  0  0  0  0  0  0  0
   -2.7249   -2.7875    0.9978 H   0  0  0  0  0  0  0  0  0  0  0  0
   -4.3680   -2.6502    1.7512 H   0  0  0  0  0  0  0  0  0  0  0  0
   -4.2502   -1.9502   -0.2873 C   0  0  0  0  0  0  0  0  0  0  0  0
   -4.1836   -2.7982   -0.8082 H   0  0  0  0  0  0  0  0  0  0  0  0
   -5.2081   -1.7038   -0.1600 H   0  0  0  0  0  0  0  0  0  0  0  0
   -3.5836   -0.8457   -1.0969 C   0  0  0  0  0  0  0  0  0  0  0  0
   -3.8013    0.0364   -0.6936 H   0  0  0  0  0  0  0  0  0  0  0  0
   -2.6001   -0.9904   -1.1061 H   0  0  0  0  0  0  0  0  0  0  0  0
   -3.9402   -0.8508   -2.1269 H   0  0  0  0  0  0  0  0  0  0  0  0
  1  5  1  0
  5  6  1  0
  5  7  2  0
  1  2  1  0
  1  3  1  0
  1  4  1  0
  8 12  1  0
 12 15  1  0
  8  9  1  0
  8 10  1  0
  8 11  1  0
 12 13  1  0
 12 14  1  0
 15 16  1  0
 15 17  1  0
 15 18  1  0
M  CHG  1   6  -1
M  END
>  <PDB_ID>  (547) 
pdb2ogs

>  <RESIDUE_NAME>  (547) 
GLU   ARG

>  <FRAG_NAME>  (547) 
ACET   PRPA

>  <FRAG_ATOM_NUM>  (547) 
fragi: 7  fragj: 11

>  <atom.prop.CHAIN_ID>  (547) 
A A A A A A A Z Z Z Z Z Z Z Z Z Z Z

>  <atom.prop.IS_HEAVY_ATOM>  (547) 
1 0 0 0 1 1 1 1 0 0 0 1 0 0 1 0 0 0

>  <DIFUSE_FUNC_ATOM>  (547) 
atom 6   atom 7   

>  <FINAL_SINGLE_POINT_ENERGY>  (547) 
0

>  <NONCOV_INTER_ENERGY_QM>  (547) 
0

>  <FF_Energy>  (547) 
15.39

>  <QM_Energy>  (547) 
-0.29

>  <source>  (547) 
ACET_PRPA_05

>  <Index>  (547) 
9466

$$$$
ACET-pdb2ogs-A-GLU-7:PRPA-pdb2ogs-A-ARG-12
     RDKit          3D

 18 16  0  0  0  0  0  0  0  0999 V2000
    0.0137    1.5253   -0.0157 C   0  0  0  0  0  0  0  0  0  0  0  0
    0.2054    1.8102   -0.9380 H   0  0  0  0  0  0  0  0  0  0  0  0
    0.7098    1.8213    0.6143 H   0  0  0  0  0  0  0  0  0  0  0  0
   -0.9325    1.9737    0.2873 H   0  0  0  0  0  0  0  0  0  0  0  0
    0.0000    0.0000    0.0000 C   0  0  0  0  0  0  0  0  0  0  0  0
   -1.0931   -0.6005    0.0000 O   0  0  0  0  0  1  0  0  0  0  0  0
    1.0931   -0.6036   -0.0000 O   0  0  0  0  0  0  0  0  0  0  0  0
   -4.2502   -1.9502   -0.2873 C   0  0  0  0  0  0  0  0  0  0  0  0
   -4.1836   -2.7982   -0.8082 H   0  0  0  0  0  0  0  0  0  0  0  0
   -5.2081   -1.7038   -0.1600 H   0  0  0  0  0  0  0  0  0  0  0  0
   -3.8096   -2.1198    0.6952 H   0  0  0  0  0  0  0  0  0  0  0  0
   -3.5836   -0.8457   -1.0969 C   0  0  0  0  0  0  0  0  0  0  0  0
   -3.8013    0.0364   -0.6936 H   0  0  0  0  0  0  0  0  0  0  0  0
   -2.6001   -0.9904   -1.1061 H   0  0  0  0  0  0  0  0  0  0  0  0
   -4.0796   -0.8528   -2.5294 C   0  0  0  0  0  0  0  0  0  0  0  0
   -5.0706   -0.8068   -2.5156 H   0  0  0  0  0  0  0  0  0  0  0  0
   -3.6974   -0.0628   -2.9939 H   0  0  0  0  0  0  0  0  0  0  0  0
   -3.7673   -1.7608   -3.0454 H   0  0  0  0  0  0  0  0  0  0  0  0
  1  5  1  0
  5  6  1  0
  5  7  2  0
  1  2  1  0
  1  3  1  0
  1  4  1  0
  8 12  1  0
 12 15  1  0
  8  9  1  0
  8 10  1  0
  8 11  1  0
 12 13  1  0
 12 14  1  0
 15 16  1  0
 15 17  1  0
 15 18  1  0
M  CHG  1   6  -1
M  END
>  <PDB_ID>  (548) 
pdb2ogs

>  <RESIDUE_NAME>  (548) 
GLU   ARG

>  <FRAG_NAME>  (548) 
ACET   PRPA

>  <FRAG_ATOM_NUM>  (548) 
fragi: 7  fragj: 11

>  <atom.prop.CHAIN_ID>  (548) 
A A A A A A A Z Z Z Z Z Z Z Z Z Z Z

>  <atom.prop.IS_HEAVY_ATOM>  (548) 
1 0 0 0 1 1 1 1 0 0 0 1 0 0 1 0 0 0

>  <DIFUSE_FUNC_ATOM>  (548) 
atom 6   atom 7   

>  <FINAL_SINGLE_POINT_ENERGY>  (548) 
0

>  <NONCOV_INTER_ENERGY_QM>  (548) 
0

>  <FF_Energy>  (548) 
15.92

>  <QM_Energy>  (548) 
0.57

>  <source>  (548) 
ACET_PRPA_05

>  <Index>  (548) 
9475

$$$$
ACET-pdb2oef-A-ASP-193:PRPA-pdb2oef-A-PRO-189
     RDKit          3D

 18 16  0  0  0  0  0  0  0  0999 V2000
    0.0019    1.5211    0.0032 C   0  0  0  0  0  0  0  0  0  0  0  0
    0.6152    1.8361    0.7184 H   0  0  0  0  0  0  0  0  0  0  0  0
   -0.9232    1.8398    0.1747 H   0  0  0  0  0  0  0  0  0  0  0  0
    0.3375    1.9477   -0.9422 H   0  0  0  0  0  0  0  0  0  0  0  0
    0.0000    0.0000    0.0000 C   0  0  0  0  0  0  0  0  0  0  0  0
   -1.1022   -0.5946   -0.0000 O   0  0  0  0  0  1  0  0  0  0  0  0
    1.1022   -0.5971    0.0000 O   0  0  0  0  0  0  0  0  0  0  0  0
    1.2175    2.6793    4.5125 C   0  0  0  0  0  0  0  0  0  0  0  0
    1.7573    2.9287    5.3551 H   0  0  0  0  0  0  0  0  0  0  0  0
    0.3395    2.0985    4.7949 H   0  0  0  0  0  0  0  0  0  0  0  0
    1.0372    3.5661    3.9049 H   0  0  0  0  0  0  0  0  0  0  0  0
    2.0754    1.6478    3.7895 C   0  0  0  0  0  0  0  0  0  0  0  0
    2.7232    2.0901    3.1812 H   0  0  0  0  0  0  0  0  0  0  0  0
    2.5465    1.0621    4.4367 H   0  0  0  0  0  0  0  0  0  0  0  0
    1.0482    0.8906    3.0243 C   0  0  0  0  0  0  0  0  0  0  0  0
    0.7681    1.3888    2.2024 H   0  0  0  0  0  0  0  0  0  0  0  0
    1.3853   -0.0146    2.7642 H   0  0  0  0  0  0  0  0  0  0  0  0
    0.2032    0.7918    3.7056 H   0  0  0  0  0  0  0  0  0  0  0  0
  1  5  1  0
  5  6  1  0
  5  7  2  0
  1  2  1  0
  1  3  1  0
  1  4  1  0
  8 12  1  0
 12 15  1  0
  8  9  1  0
  8 10  1  0
  8 11  1  0
 12 13  1  0
 12 14  1  0
 15 16  1  0
 15 17  1  0
 15 18  1  0
M  CHG  1   6  -1
M  END
>  <PDB_ID>  (549) 
pdb2oef

>  <RESIDUE_NAME>  (549) 
ASP   PRO

>  <FRAG_NAME>  (549) 
ACET   PRPA

>  <FRAG_ATOM_NUM>  (549) 
fragi: 7  fragj: 11

>  <atom.prop.CHAIN_ID>  (549) 
A A A A A A A Z Z Z Z Z Z Z Z Z Z Z

>  <atom.prop.IS_HEAVY_ATOM>  (549) 
1 0 0 0 1 1 1 1 0 0 0 1 0 0 1 0 0 0

>  <DIFUSE_FUNC_ATOM>  (549) 
atom 6   atom 7   

>  <FINAL_SINGLE_POINT_ENERGY>  (549) 
0

>  <NONCOV_INTER_ENERGY_QM>  (549) 
0

>  <FF_Energy>  (549) 
18.75

>  <QM_Energy>  (549) 
2.29

>  <source>  (549) 
ACET_PRPA_05

>  <Index>  (549) 
9634

$$$$
ACET-pdb2oef-A-ASP-193:PRPA-pdb2oef-A-PRO-189
     RDKit          3D

 18 16  0  0  0  0  0  0  0  0999 V2000
    0.0019    1.5211    0.0032 C   0  0  0  0  0  0  0  0  0  0  0  0
    0.6152    1.8361    0.7184 H   0  0  0  0  0  0  0  0  0  0  0  0
   -0.9232    1.8398    0.1747 H   0  0  0  0  0  0  0  0  0  0  0  0
    0.3375    1.9477   -0.9422 H   0  0  0  0  0  0  0  0  0  0  0  0
    0.0000    0.0000    0.0000 C   0  0  0  0  0  0  0  0  0  0  0  0
   -1.1022   -0.5946   -0.0000 O   0  0  0  0  0  1  0  0  0  0  0  0
    1.1022   -0.5971    0.0000 O   0  0  0  0  0  0  0  0  0  0  0  0
    2.0754    1.6478    3.7895 C   0  0  0  0  0  0  0  0  0  0  0  0
    2.7232    2.0901    3.1812 H   0  0  0  0  0  0  0  0  0  0  0  0
    2.5465    1.0621    4.4367 H   0  0  0  0  0  0  0  0  0  0  0  0
    1.4618    2.3856    4.3066 H   0  0  0  0  0  0  0  0  0  0  0  0
    1.0482    0.8906    3.0243 C   0  0  0  0  0  0  0  0  0  0  0  0
    0.7681    1.3888    2.2024 H   0  0  0  0  0  0  0  0  0  0  0  0
    1.3853   -0.0146    2.7642 H   0  0  0  0  0  0  0  0  0  0  0  0
   -0.1435    0.7513    3.9852 C   0  0  0  0  0  0  0  0  0  0  0  0
   -1.0028    0.8181    3.4900 H   0  0  0  0  0  0  0  0  0  0  0  0
   -0.0959   -0.1103    4.4813 H   0  0  0  0  0  0  0  0  0  0  0  0
   -0.0112    1.5995    4.6570 H   0  0  0  0  0  0  0  0  0  0  0  0
  1  5  1  0
  5  6  1  0
  5  7  2  0
  1  2  1  0
  1  3  1  0
  1  4  1  0
  8 12  1  0
 12 15  1  0
  8  9  1  0
  8 10  1  0
  8 11  1  0
 12 13  1  0
 12 14  1  0
 15 16  1  0
 15 17  1  0
 15 18  1  0
M  CHG  1   6  -1
M  END
>  <PDB_ID>  (550) 
pdb2oef

>  <RESIDUE_NAME>  (550) 
ASP   PRO

>  <FRAG_NAME>  (550) 
ACET   PRPA

>  <FRAG_ATOM_NUM>  (550) 
fragi: 7  fragj: 11

>  <atom.prop.CHAIN_ID>  (550) 
A A A A A A A Z Z Z Z Z Z Z Z Z Z Z

>  <atom.prop.IS_HEAVY_ATOM>  (550) 
1 0 0 0 1 1 1 1 0 0 0 1 0 0 1 0 0 0

>  <DIFUSE_FUNC_ATOM>  (550) 
atom 6   atom 7   

>  <FINAL_SINGLE_POINT_ENERGY>  (550) 
0

>  <NONCOV_INTER_ENERGY_QM>  (550) 
0

>  <FF_Energy>  (550) 
21.6

>  <QM_Energy>  (550) 
1.15

>  <source>  (550) 
ACET_PRPA_05

>  <Index>  (550) 
9646

$$$$
ACET-pdb1jql-A-GLU-93:PRPA-pdb1jql-A-LEU-98
     RDKit          3D

 18 16  0  0  0  0  0  0  0  0999 V2000
   -0.0053    1.5297   -0.0242 C   0  0  0  0  0  0  0  0  0  0  0  0
    0.1028    1.8107   -0.9588 H   0  0  0  0  0  0  0  0  0  0  0  0
    0.7321    1.8359    0.5471 H   0  0  0  0  0  0  0  0  0  0  0  0
   -0.9310    1.9628    0.3547 H   0  0  0  0  0  0  0  0  0  0  0  0
    0.0000    0.0000    0.0000 C   0  0  0  0  0  0  0  0  0  0  0  0
   -1.0984   -0.5940    0.0000 O   0  0  0  0  0  1  0  0  0  0  0  0
    1.0984   -0.6070    0.0000 O   0  0  0  0  0  0  0  0  0  0  0  0
   -5.5165   -0.8903    1.8770 C   0  0  0  0  0  0  0  0  0  0  0  0
   -5.4348   -0.6031    2.8309 H   0  0  0  0  0  0  0  0  0  0  0  0
   -5.5142   -1.8876    1.8247 H   0  0  0  0  0  0  0  0  0  0  0  0
   -6.4730   -0.5321    1.4962 H   0  0  0  0  0  0  0  0  0  0  0  0
   -4.2634   -0.3980    1.1499 C   0  0  0  0  0  0  0  0  0  0  0  0
   -4.1678    0.5707    1.2902 H   0  0  0  0  0  0  0  0  0  0  0  0
   -4.3157   -0.5693    0.0747 H   0  0  0  0  0  0  0  0  0  0  0  0
   -3.0832   -1.1263    1.7743 C   0  0  0  0  0  0  0  0  0  0  0  0
   -3.1988   -2.1128    1.6564 H   0  0  0  0  0  0  0  0  0  0  0  0
   -2.2358   -0.8348    1.3286 H   0  0  0  0  0  0  0  0  0  0  0  0
   -3.0354   -0.9116    2.7502 H   0  0  0  0  0  0  0  0  0  0  0  0
  1  5  1  0
  5  6  1  0
  5  7  2  0
  1  2  1  0
  1  3  1  0
  1  4  1  0
  8 12  1  0
 12 15  1  0
  8  9  1  0
  8 10  1  0
  8 11  1  0
 12 13  1  0
 12 14  1  0
 15 16  1  0
 15 17  1  0
 15 18  1  0
M  CHG  1   6  -1
M  END
>  <PDB_ID>  (551) 
pdb1jql

>  <RESIDUE_NAME>  (551) 
GLU   LEU

>  <FRAG_NAME>  (551) 
ACET   PRPA

>  <FRAG_ATOM_NUM>  (551) 
fragi: 7  fragj: 11

>  <atom.prop.CHAIN_ID>  (551) 
A A A A A A A Z Z Z Z Z Z Z Z Z Z Z

>  <atom.prop.IS_HEAVY_ATOM>  (551) 
1 0 0 0 1 1 1 1 0 0 0 1 0 0 1 0 0 0

>  <DIFUSE_FUNC_ATOM>  (551) 
atom 6   atom 7   

>  <FINAL_SINGLE_POINT_ENERGY>  (551) 
0

>  <NONCOV_INTER_ENERGY_QM>  (551) 
0

>  <FF_Energy>  (551) 
35.25

>  <QM_Energy>  (551) 
1.33

>  <source>  (551) 
ACET_PRPA_05

>  <Index>  (551) 
11112

$$$$
ACET-pdb1jql-A-GLU-93:PRPA-pdb1jql-A-LEU-98
     RDKit          3D

 18 16  0  0  0  0  0  0  0  0999 V2000
   -0.0053    1.5297   -0.0242 C   0  0  0  0  0  0  0  0  0  0  0  0
    0.1028    1.8107   -0.9588 H   0  0  0  0  0  0  0  0  0  0  0  0
    0.7321    1.8359    0.5471 H   0  0  0  0  0  0  0  0  0  0  0  0
   -0.9310    1.9628    0.3547 H   0  0  0  0  0  0  0  0  0  0  0  0
    0.0000    0.0000    0.0000 C   0  0  0  0  0  0  0  0  0  0  0  0
   -1.0984   -0.5940    0.0000 O   0  0  0  0  0  1  0  0  0  0  0  0
    1.0984   -0.6070    0.0000 O   0  0  0  0  0  0  0  0  0  0  0  0
   -3.0832   -1.1263    1.7743 C   0  0  0  0  0  0  0  0  0  0  0  0
   -3.1988   -2.1128    1.6564 H   0  0  0  0  0  0  0  0  0  0  0  0
   -2.2358   -0.8348    1.3286 H   0  0  0  0  0  0  0  0  0  0  0  0
   -3.0354   -0.9116    2.7502 H   0  0  0  0  0  0  0  0  0  0  0  0
   -4.2634   -0.3980    1.1499 C   0  0  0  0  0  0  0  0  0  0  0  0
   -4.1678    0.5707    1.2902 H   0  0  0  0  0  0  0  0  0  0  0  0
   -5.1561   -0.7487    1.6679 H   0  0  0  0  0  0  0  0  0  0  0  0
   -4.3367   -0.6385   -0.3595 C   0  0  0  0  0  0  0  0  0  0  0  0
   -5.1254   -0.1513   -0.7336 H   0  0  0  0  0  0  0  0  0  0  0  0
   -3.4998   -0.3021   -0.7888 H   0  0  0  0  0  0  0  0  0  0  0  0
   -4.4334   -1.6178   -0.5338 H   0  0  0  0  0  0  0  0  0  0  0  0
  1  5  1  0
  5  6  1  0
  5  7  2  0
  1  2  1  0
  1  3  1  0
  1  4  1  0
  8 12  1  0
 12 15  1  0
  8  9  1  0
  8 10  1  0
  8 11  1  0
 12 13  1  0
 12 14  1  0
 15 16  1  0
 15 17  1  0
 15 18  1  0
M  CHG  1   6  -1
M  END
>  <PDB_ID>  (552) 
pdb1jql

>  <RESIDUE_NAME>  (552) 
GLU   LEU

>  <FRAG_NAME>  (552) 
ACET   PRPA

>  <FRAG_ATOM_NUM>  (552) 
fragi: 7  fragj: 11

>  <atom.prop.CHAIN_ID>  (552) 
A A A A A A A Z Z Z Z Z Z Z Z Z Z Z

>  <atom.prop.IS_HEAVY_ATOM>  (552) 
1 0 0 0 1 1 1 1 0 0 0 1 0 0 1 0 0 0

>  <DIFUSE_FUNC_ATOM>  (552) 
atom 6   atom 7   

>  <FINAL_SINGLE_POINT_ENERGY>  (552) 
0

>  <NONCOV_INTER_ENERGY_QM>  (552) 
0

>  <FF_Energy>  (552) 
36.05

>  <QM_Energy>  (552) 
0.65

>  <source>  (552) 
ACET_PRPA_05

>  <Index>  (552) 
11127

$$$$
ACET-pdb1juv-A-ASP-36:PRPA-pdb1juv-A-ARG-7
     RDKit          3D

 18 16  0  0  0  0  0  0  0  0999 V2000
   -0.0023    1.5178   -0.0176 C   0  0  0  0  0  0  0  0  0  0  0  0
   -0.2254    1.8276   -0.9348 H   0  0  0  0  0  0  0  0  0  0  0  0
    0.8962    1.8433    0.2513 H   0  0  0  0  0  0  0  0  0  0  0  0
   -0.7335    1.9467    0.6677 H   0  0  0  0  0  0  0  0  0  0  0  0
    0.0000    0.0000    0.0000 C   0  0  0  0  0  0  0  0  0  0  0  0
   -1.0994   -0.5873   -0.0000 O   0  0  0  0  0  1  0  0  0  0  0  0
    1.0994   -0.6021    0.0000 O   0  0  0  0  0  0  0  0  0  0  0  0
   -1.6298   -4.2568   -2.2766 C   0  0  0  0  0  0  0  0  0  0  0  0
   -0.7082   -4.5476   -2.0331 H   0  0  0  0  0  0  0  0  0  0  0  0
   -1.5914   -3.5929   -3.0194 H   0  0  0  0  0  0  0  0  0  0  0  0
   -2.1787   -5.1297   -2.6300 H   0  0  0  0  0  0  0  0  0  0  0  0
   -2.2506   -3.5919   -1.0778 C   0  0  0  0  0  0  0  0  0  0  0  0
   -2.7797   -2.8012   -1.3663 H   0  0  0  0  0  0  0  0  0  0  0  0
   -2.8325   -4.2397   -0.5967 H   0  0  0  0  0  0  0  0  0  0  0  0
   -1.1780   -3.1204   -0.1216 C   0  0  0  0  0  0  0  0  0  0  0  0
   -0.3911   -2.8227   -0.6587 H   0  0  0  0  0  0  0  0  0  0  0  0
   -1.5424   -2.3503    0.3980 H   0  0  0  0  0  0  0  0  0  0  0  0
   -0.8707   -3.9086    0.5657 H   0  0  0  0  0  0  0  0  0  0  0  0
  1  5  1  0
  5  6  1  0
  5  7  2  0
  1  2  1  0
  1  3  1  0
  1  4  1  0
  8 12  1  0
 12 15  1  0
  8  9  1  0
  8 10  1  0
  8 11  1  0
 12 13  1  0
 12 14  1  0
 15 16  1  0
 15 17  1  0
 15 18  1  0
M  CHG  1   6  -1
M  END
>  <PDB_ID>  (553) 
pdb1juv

>  <RESIDUE_NAME>  (553) 
ASP   ARG

>  <FRAG_NAME>  (553) 
ACET   PRPA

>  <FRAG_ATOM_NUM>  (553) 
fragi: 7  fragj: 11

>  <atom.prop.CHAIN_ID>  (553) 
A A A A A A A Z Z Z Z Z Z Z Z Z Z Z

>  <atom.prop.IS_HEAVY_ATOM>  (553) 
1 0 0 0 1 1 1 1 0 0 0 1 0 0 1 0 0 0

>  <DIFUSE_FUNC_ATOM>  (553) 
atom 6   atom 7   

>  <FINAL_SINGLE_POINT_ENERGY>  (553) 
0

>  <NONCOV_INTER_ENERGY_QM>  (553) 
0

>  <FF_Energy>  (553) 
25.55

>  <QM_Energy>  (553) 
4.99

>  <source>  (553) 
ACET_PRPA_05

>  <Index>  (553) 
11470

$$$$
ACET-pdb1jqn-B-GLU-845:PRPA-pdb1jqn-B-LEU-60
     RDKit          3D

 18 16  0  0  0  0  0  0  0  0999 V2000
    0.0050    1.5152    0.0170 C   0  0  0  0  0  0  0  0  0  0  0  0
    0.9445    1.8107   -0.0394 H   0  0  0  0  0  0  0  0  0  0  0  0
   -0.4175    1.8052    0.8602 H   0  0  0  0  0  0  0  0  0  0  0  0
   -0.5428    1.9647   -0.8112 H   0  0  0  0  0  0  0  0  0  0  0  0
    0.0000    0.0000    0.0000 C   0  0  0  0  0  0  0  0  0  0  0  0
   -1.0920   -0.5968   -0.0000 O   0  0  0  0  0  1  0  0  0  0  0  0
    1.0920   -0.6008    0.0000 O   0  0  0  0  0  0  0  0  0  0  0  0
   -0.9031    1.9115    4.1810 C   0  0  0  0  0  0  0  0  0  0  0  0
   -1.8592    2.2637    4.1655 H   0  0  0  0  0  0  0  0  0  0  0  0
   -0.4798    2.1057    5.1666 H   0  0  0  0  0  0  0  0  0  0  0  0
   -0.9299    0.8571    3.9059 H   0  0  0  0  0  0  0  0  0  0  0  0
   -0.1207    2.6820    3.1130 C   0  0  0  0  0  0  0  0  0  0  0  0
    0.8346    2.3823    3.1622 H   0  0  0  0  0  0  0  0  0  0  0  0
   -0.4994    2.4319    2.2202 H   0  0  0  0  0  0  0  0  0  0  0  0
   -0.1246    4.2046    3.2002 C   0  0  0  0  0  0  0  0  0  0  0  0
    0.2802    4.4823    4.0655 H   0  0  0  0  0  0  0  0  0  0  0  0
    0.4617    4.6118    2.3765 H   0  0  0  0  0  0  0  0  0  0  0  0
   -1.1482    4.5778    3.1695 H   0  0  0  0  0  0  0  0  0  0  0  0
  1  5  1  0
  5  6  1  0
  5  7  2  0
  1  2  1  0
  1  3  1  0
  1  4  1  0
  8 12  1  0
 12 15  1  0
  8  9  1  0
  8 10  1  0
  8 11  1  0
 12 13  1  0
 12 14  1  0
 15 16  1  0
 15 17  1  0
 15 18  1  0
M  CHG  1   6  -1
M  END
>  <PDB_ID>  (554) 
pdb1jqn

>  <RESIDUE_NAME>  (554) 
GLU   LEU

>  <FRAG_NAME>  (554) 
ACET   PRPA

>  <FRAG_ATOM_NUM>  (554) 
fragi: 7  fragj: 11

>  <atom.prop.CHAIN_ID>  (554) 
A A A A A A A Z Z Z Z Z Z Z Z Z Z Z

>  <atom.prop.IS_HEAVY_ATOM>  (554) 
1 0 0 0 1 1 1 1 0 0 0 1 0 0 1 0 0 0

>  <DIFUSE_FUNC_ATOM>  (554) 
atom 6   atom 7   

>  <FINAL_SINGLE_POINT_ENERGY>  (554) 
0

>  <NONCOV_INTER_ENERGY_QM>  (554) 
0

>  <FF_Energy>  (554) 
30.58

>  <QM_Energy>  (554) 
3.1

>  <source>  (554) 
ACET_PRPA_05

>  <Index>  (554) 
12641

$$$$
ACET-pdb2ohd-A-GLU-18:PRPA-pdb2ohd-A-LYS-93
     RDKit          3D

 18 16  0  0  0  0  0  0  0  0999 V2000
   -0.0015    1.5136    0.0108 C   0  0  0  0  0  0  0  0  0  0  0  0
    0.8788    1.8135   -0.3030 H   0  0  0  0  0  0  0  0  0  0  0  0
   -0.1913    1.8029    0.9296 H   0  0  0  0  0  0  0  0  0  0  0  0
   -0.7630    1.9301   -0.6486 H   0  0  0  0  0  0  0  0  0  0  0  0
    0.0000    0.0000    0.0000 C   0  0  0  0  0  0  0  0  0  0  0  0
   -1.0965   -0.5960    0.0000 O   0  0  0  0  0  1  0  0  0  0  0  0
    1.0965   -0.5937    0.0000 O   0  0  0  0  0  0  0  0  0  0  0  0
   -1.2689    1.4000    3.0905 C   0  0  0  0  0  0  0  0  0  0  0  0
   -1.2251    1.4206    2.0995 H   0  0  0  0  0  0  0  0  0  0  0  0
   -0.4062    1.6849    3.4881 H   0  0  0  0  0  0  0  0  0  0  0  0
   -2.0680    2.0556    3.4363 H   0  0  0  0  0  0  0  0  0  0  0  0
   -1.5645   -0.0278    3.5362 C   0  0  0  0  0  0  0  0  0  0  0  0
   -1.6174   -0.0471    4.5310 H   0  0  0  0  0  0  0  0  0  0  0  0
   -2.4348   -0.3129    3.1427 H   0  0  0  0  0  0  0  0  0  0  0  0
   -0.4871   -0.9983    3.0867 C   0  0  0  0  0  0  0  0  0  0  0  0
   -0.4227   -0.9738    2.0861 H   0  0  0  0  0  0  0  0  0  0  0  0
    0.3923   -0.7144    3.4764 H   0  0  0  0  0  0  0  0  0  0  0  0
   -0.7042   -2.0179    3.4052 H   0  0  0  0  0  0  0  0  0  0  0  0
  1  5  1  0
  5  6  1  0
  5  7  2  0
  1  2  1  0
  1  3  1  0
  1  4  1  0
  8 12  1  0
 12 15  1  0
  8  9  1  0
  8 10  1  0
  8 11  1  0
 12 13  1  0
 12 14  1  0
 15 16  1  0
 15 17  1  0
 15 18  1  0
M  CHG  1   6  -1
M  END
>  <PDB_ID>  (555) 
pdb2ohd

>  <RESIDUE_NAME>  (555) 
GLU   LYS

>  <FRAG_NAME>  (555) 
ACET   PRPA

>  <FRAG_ATOM_NUM>  (555) 
fragi: 7  fragj: 11

>  <atom.prop.CHAIN_ID>  (555) 
A A A A A A A Z Z Z Z Z Z Z Z Z Z Z

>  <atom.prop.IS_HEAVY_ATOM>  (555) 
1 0 0 0 1 1 1 1 0 0 0 1 0 0 1 0 0 0

>  <DIFUSE_FUNC_ATOM>  (555) 
atom 6   atom 7   

>  <FINAL_SINGLE_POINT_ENERGY>  (555) 
0

>  <NONCOV_INTER_ENERGY_QM>  (555) 
0

>  <FF_Energy>  (555) 
17.05

>  <QM_Energy>  (555) 
-0.12

>  <source>  (555) 
ACET_PRPA_05

>  <Index>  (555) 
12660

$$$$
ACET-pdb2oo2-A-GLU-17:PRPA-pdb2oo2-A-ARG-41
     RDKit          3D

 18 16  0  0  0  0  0  0  0  0999 V2000
    0.0039    1.5541   -0.0616 C   0  0  0  0  0  0  0  0  0  0  0  0
    0.7073    1.8046   -0.7051 H   0  0  0  0  0  0  0  0  0  0  0  0
    0.2133    1.8674    0.8495 H   0  0  0  0  0  0  0  0  0  0  0  0
   -0.9426    1.9905   -0.3807 H   0  0  0  0  0  0  0  0  0  0  0  0
    0.0000    0.0000    0.0000 C   0  0  0  0  0  0  0  0  0  0  0  0
   -1.0998   -0.5820   -0.0000 O   0  0  0  0  0  1  0  0  0  0  0  0
    1.0998   -0.5955    0.0000 O   0  0  0  0  0  0  0  0  0  0  0  0
    5.2536   -2.7772    1.4137 C   0  0  0  0  0  0  0  0  0  0  0  0
    5.9495   -2.1106    1.2421 H   0  0  0  0  0  0  0  0  0  0  0  0
    5.3242   -3.5612    0.8314 H   0  0  0  0  0  0  0  0  0  0  0  0
    5.3575   -3.1139    2.4452 H   0  0  0  0  0  0  0  0  0  0  0  0
    3.8845   -2.1200    1.1775 C   0  0  0  0  0  0  0  0  0  0  0  0
    3.1931   -2.5725    1.7418 H   0  0  0  0  0  0  0  0  0  0  0  0
    3.9302   -1.1506    1.4241 H   0  0  0  0  0  0  0  0  0  0  0  0
    3.3925   -2.1946   -0.3031 C   0  0  0  0  0  0  0  0  0  0  0  0
    3.3317   -3.1435   -0.5438 H   0  0  0  0  0  0  0  0  0  0  0  0
    2.5257   -1.7368   -0.3457 H   0  0  0  0  0  0  0  0  0  0  0  0
    4.1120   -1.6914   -0.9491 H   0  0  0  0  0  0  0  0  0  0  0  0
  1  5  1  0
  5  6  1  0
  5  7  2  0
  1  2  1  0
  1  3  1  0
  1  4  1  0
  8 12  1  0
 12 15  1  0
  8  9  1  0
  8 10  1  0
  8 11  1  0
 12 13  1  0
 12 14  1  0
 15 16  1  0
 15 17  1  0
 15 18  1  0
M  CHG  1   6  -1
M  END
>  <PDB_ID>  (556) 
pdb2oo2

>  <RESIDUE_NAME>  (556) 
GLU   ARG

>  <FRAG_NAME>  (556) 
ACET   PRPA

>  <FRAG_ATOM_NUM>  (556) 
fragi: 7  fragj: 11

>  <atom.prop.CHAIN_ID>  (556) 
A A A A A A A Z Z Z Z Z Z Z Z Z Z Z

>  <atom.prop.IS_HEAVY_ATOM>  (556) 
1 0 0 0 1 1 1 1 0 0 0 1 0 0 1 0 0 0

>  <DIFUSE_FUNC_ATOM>  (556) 
atom 6   atom 7   

>  <FINAL_SINGLE_POINT_ENERGY>  (556) 
0

>  <NONCOV_INTER_ENERGY_QM>  (556) 
0

>  <FF_Energy>  (556) 
18.08

>  <QM_Energy>  (556) 
-1.62

>  <source>  (556) 
ACET_PRPA_05

>  <Index>  (556) 
12681

$$$$
ACET-pdb2okc-B-GLU-54:PRPA-pdb2okc-A-LYS-13
     RDKit          3D

 18 16  0  0  0  0  0  0  0  0999 V2000
    0.0315    1.5390   -0.0280 C   0  0  0  0  0  0  0  0  0  0  0  0
    0.3723    1.8111   -0.9136 H   0  0  0  0  0  0  0  0  0  0  0  0
    0.6331    1.8340    0.6970 H   0  0  0  0  0  0  0  0  0  0  0  0
   -0.9327    2.0254    0.1201 H   0  0  0  0  0  0  0  0  0  0  0  0
    0.0000    0.0000    0.0000 C   0  0  0  0  0  0  0  0  0  0  0  0
   -1.0972   -0.6124    0.0000 O   0  0  0  0  0  1  0  0  0  0  0  0
    1.0972   -0.6017    0.0000 O   0  0  0  0  0  0  0  0  0  0  0  0
    5.5536   -2.5659    0.0717 C   0  0  0  0  0  0  0  0  0  0  0  0
    5.8582   -1.6484    0.3161 H   0  0  0  0  0  0  0  0  0  0  0  0
    5.6982   -2.7234   -0.9026 H   0  0  0  0  0  0  0  0  0  0  0  0
    6.1292   -3.2961    0.6407 H   0  0  0  0  0  0  0  0  0  0  0  0
    4.0659   -2.6885    0.3750 C   0  0  0  0  0  0  0  0  0  0  0  0
    3.7653   -3.6089    0.1329 H   0  0  0  0  0  0  0  0  0  0  0  0
    3.9242   -2.5326    1.3511 H   0  0  0  0  0  0  0  0  0  0  0  0
    3.2370   -1.6867   -0.4015 C   0  0  0  0  0  0  0  0  0  0  0  0
    3.6898   -1.4904   -1.2703 H   0  0  0  0  0  0  0  0  0  0  0  0
    2.3323   -2.0741   -0.5750 H   0  0  0  0  0  0  0  0  0  0  0  0
    3.1284   -0.7615    0.1644 H   0  0  0  0  0  0  0  0  0  0  0  0
  1  5  1  0
  5  6  1  0
  5  7  2  0
  1  2  1  0
  1  3  1  0
  1  4  1  0
  8 12  1  0
 12 15  1  0
  8  9  1  0
  8 10  1  0
  8 11  1  0
 12 13  1  0
 12 14  1  0
 15 16  1  0
 15 17  1  0
 15 18  1  0
M  CHG  1   6  -1
M  END
>  <PDB_ID>  (557) 
pdb2okc

>  <RESIDUE_NAME>  (557) 
GLU   LYS

>  <FRAG_NAME>  (557) 
ACET   PRPA

>  <FRAG_ATOM_NUM>  (557) 
fragi: 7  fragj: 11

>  <atom.prop.CHAIN_ID>  (557) 
A A A A A A A Z Z Z Z Z Z Z Z Z Z Z

>  <atom.prop.IS_HEAVY_ATOM>  (557) 
1 0 0 0 1 1 1 1 0 0 0 1 0 0 1 0 0 0

>  <DIFUSE_FUNC_ATOM>  (557) 
atom 6   atom 7   

>  <FINAL_SINGLE_POINT_ENERGY>  (557) 
0

>  <NONCOV_INTER_ENERGY_QM>  (557) 
0

>  <FF_Energy>  (557) 
24.93

>  <QM_Energy>  (557) 
7.83

>  <source>  (557) 
ACET_PRPA_05

>  <Index>  (557) 
13594

$$$$
ACET-pdb1jji-B-GLU-41:PRPA-pdb1jji-B-GLU-96
     RDKit          3D

 18 16  0  0  0  0  0  0  0  0999 V2000
    0.0072    1.5176    0.0082 C   0  0  0  0  0  0  0  0  0  0  0  0
    0.4810    1.8210   -0.8022 H   0  0  0  0  0  0  0  0  0  0  0  0
    0.4667    1.8120    0.8309 H   0  0  0  0  0  0  0  0  0  0  0  0
   -0.9852    1.9683    0.0006 H   0  0  0  0  0  0  0  0  0  0  0  0
    0.0000    0.0000    0.0000 C   0  0  0  0  0  0  0  0  0  0  0  0
   -1.0972   -0.5955   -0.0000 O   0  0  0  0  0  1  0  0  0  0  0  0
    1.0972   -0.5966   -0.0000 O   0  0  0  0  0  0  0  0  0  0  0  0
    2.0272    1.9258   -3.8125 C   0  0  0  0  0  0  0  0  0  0  0  0
    1.6428    2.1971   -4.7115 H   0  0  0  0  0  0  0  0  0  0  0  0
    2.9426    1.3568   -3.9747 H   0  0  0  0  0  0  0  0  0  0  0  0
    2.1815    2.8131   -3.1985 H   0  0  0  0  0  0  0  0  0  0  0  0
    0.9524    1.1152   -3.0817 C   0  0  0  0  0  0  0  0  0  0  0  0
    1.0582    1.2924   -2.1092 H   0  0  0  0  0  0  0  0  0  0  0  0
    0.0688    1.4398   -3.3997 H   0  0  0  0  0  0  0  0  0  0  0  0
    0.9917   -0.3829   -3.2830 C   0  0  0  0  0  0  0  0  0  0  0  0
    1.8908   -0.6939   -3.0441 H   0  0  0  0  0  0  0  0  0  0  0  0
    0.2936   -0.7808   -2.7187 H   0  0  0  0  0  0  0  0  0  0  0  0
    0.7942   -0.6421   -4.3232 H   0  0  0  0  0  0  0  0  0  0  0  0
  1  5  1  0
  5  6  1  0
  5  7  2  0
  1  2  1  0
  1  3  1  0
  1  4  1  0
  8 12  1  0
 12 15  1  0
  8  9  1  0
  8 10  1  0
  8 11  1  0
 12 13  1  0
 12 14  1  0
 15 16  1  0
 15 17  1  0
 15 18  1  0
M  CHG  1   6  -1
M  END
>  <PDB_ID>  (558) 
pdb1jji

>  <RESIDUE_NAME>  (558) 
GLU   GLU

>  <FRAG_NAME>  (558) 
ACET   PRPA

>  <FRAG_ATOM_NUM>  (558) 
fragi: 7  fragj: 11

>  <atom.prop.CHAIN_ID>  (558) 
A A A A A A A Z Z Z Z Z Z Z Z Z Z Z

>  <atom.prop.IS_HEAVY_ATOM>  (558) 
1 0 0 0 1 1 1 1 0 0 0 1 0 0 1 0 0 0

>  <DIFUSE_FUNC_ATOM>  (558) 
atom 6   atom 7   

>  <FINAL_SINGLE_POINT_ENERGY>  (558) 
0

>  <NONCOV_INTER_ENERGY_QM>  (558) 
0

>  <FF_Energy>  (558) 
27.41

>  <QM_Energy>  (558) 
0.46

>  <source>  (558) 
ACET_PRPA_05

>  <Index>  (558) 
13598

$$$$
ACET-pdb1k0k-A-GLU-41:PRPA-pdb1k0k-A-GLN-38
     RDKit          3D

 18 16  0  0  0  0  0  0  0  0999 V2000
    0.0074    1.5126    0.0139 C   0  0  0  0  0  0  0  0  0  0  0  0
    0.9361    1.8066   -0.1342 H   0  0  0  0  0  0  0  0  0  0  0  0
   -0.3337    1.8030    0.8920 H   0  0  0  0  0  0  0  0  0  0  0  0
   -0.6197    1.9518   -0.7620 H   0  0  0  0  0  0  0  0  0  0  0  0
    0.0000    0.0000    0.0000 C   0  0  0  0  0  0  0  0  0  0  0  0
   -1.0989   -0.5934    0.0000 O   0  0  0  0  0  1  0  0  0  0  0  0
    1.0989   -0.5945   -0.0000 O   0  0  0  0  0  0  0  0  0  0  0  0
   -2.2774    0.7374    2.9149 C   0  0  0  0  0  0  0  0  0  0  0  0
   -2.7626    0.3259    3.6714 H   0  0  0  0  0  0  0  0  0  0  0  0
   -2.6311    0.2802    1.9908 H   0  0  0  0  0  0  0  0  0  0  0  0
   -2.5679    1.7866    2.8622 H   0  0  0  0  0  0  0  0  0  0  0  0
   -0.7537    0.6274    3.0248 C   0  0  0  0  0  0  0  0  0  0  0  0
   -0.3402    1.1025    2.2409 H   0  0  0  0  0  0  0  0  0  0  0  0
   -0.4585    1.0889    3.8693 H   0  0  0  0  0  0  0  0  0  0  0  0
   -0.2103   -0.7947    3.0523 C   0  0  0  0  0  0  0  0  0  0  0  0
   -0.6200   -1.3070    2.2955 H   0  0  0  0  0  0  0  0  0  0  0  0
    0.7829   -0.7594    2.9280 H   0  0  0  0  0  0  0  0  0  0  0  0
   -0.4277   -1.3159    3.9846 H   0  0  0  0  0  0  0  0  0  0  0  0
  1  5  1  0
  5  6  1  0
  5  7  2  0
  1  2  1  0
  1  3  1  0
  1  4  1  0
  8 12  1  0
 12 15  1  0
  8  9  1  0
  8 10  1  0
  8 11  1  0
 12 13  1  0
 12 14  1  0
 15 16  1  0
 15 17  1  0
 15 18  1  0
M  CHG  1   6  -1
M  END
>  <PDB_ID>  (559) 
pdb1k0k

>  <RESIDUE_NAME>  (559) 
GLU   GLN

>  <FRAG_NAME>  (559) 
ACET   PRPA

>  <FRAG_ATOM_NUM>  (559) 
fragi: 7  fragj: 11

>  <atom.prop.CHAIN_ID>  (559) 
A A A A A A A Z Z Z Z Z Z Z Z Z Z Z

>  <atom.prop.IS_HEAVY_ATOM>  (559) 
1 0 0 0 1 1 1 1 0 0 0 1 0 0 1 0 0 0

>  <DIFUSE_FUNC_ATOM>  (559) 
atom 6   atom 7   

>  <FINAL_SINGLE_POINT_ENERGY>  (559) 
0

>  <NONCOV_INTER_ENERGY_QM>  (559) 
0

>  <FF_Energy>  (559) 
32.35

>  <QM_Energy>  (559) 
-0.1

>  <source>  (559) 
ACET_PRPA_05

>  <Index>  (559) 
14271

$$$$
ACET-pdb1jpm-A-GLU-149:PRPA-pdb1jpm-A-LYS-153
     RDKit          3D

 18 16  0  0  0  0  0  0  0  0999 V2000
    0.0062    1.5261   -0.0080 C   0  0  0  0  0  0  0  0  0  0  0  0
   -0.3274    1.8177   -0.8833 H   0  0  0  0  0  0  0  0  0  0  0  0
    0.9283    1.8169    0.1594 H   0  0  0  0  0  0  0  0  0  0  0  0
   -0.6347    1.9546    0.7624 H   0  0  0  0  0  0  0  0  0  0  0  0
    0.0000    0.0000    0.0000 C   0  0  0  0  0  0  0  0  0  0  0  0
   -1.1003   -0.6033    0.0000 O   0  0  0  0  0  1  0  0  0  0  0  0
    1.1003   -0.5984    0.0000 O   0  0  0  0  0  0  0  0  0  0  0  0
    1.4599    4.4009   -3.0292 C   0  0  0  0  0  0  0  0  0  0  0  0
    2.4311    4.1687   -3.1188 H   0  0  0  0  0  0  0  0  0  0  0  0
    1.2235    4.4560   -2.0569 H   0  0  0  0  0  0  0  0  0  0  0  0
    1.2866    5.3729   -3.4910 H   0  0  0  0  0  0  0  0  0  0  0  0
    0.6305    3.3105   -3.6778 C   0  0  0  0  0  0  0  0  0  0  0  0
   -0.3385    3.5480   -3.5887 H   0  0  0  0  0  0  0  0  0  0  0  0
    0.8692    3.2592   -4.6498 H   0  0  0  0  0  0  0  0  0  0  0  0
    0.8554    1.9552   -3.0529 C   0  0  0  0  0  0  0  0  0  0  0  0
    1.8213    1.7074   -3.1429 H   0  0  0  0  0  0  0  0  0  0  0  0
    0.6138    1.9953   -2.0822 H   0  0  0  0  0  0  0  0  0  0  0  0
    0.2448    1.1965   -3.5423 H   0  0  0  0  0  0  0  0  0  0  0  0
  1  5  1  0
  5  6  1  0
  5  7  2  0
  1  2  1  0
  1  3  1  0
  1  4  1  0
  8 12  1  0
 12 15  1  0
  8  9  1  0
  8 10  1  0
  8 11  1  0
 12 13  1  0
 12 14  1  0
 15 16  1  0
 15 17  1  0
 15 18  1  0
M  CHG  1   6  -1
M  END
>  <PDB_ID>  (560) 
pdb1jpm

>  <RESIDUE_NAME>  (560) 
GLU   LYS

>  <FRAG_NAME>  (560) 
ACET   PRPA

>  <FRAG_ATOM_NUM>  (560) 
fragi: 7  fragj: 11

>  <atom.prop.CHAIN_ID>  (560) 
A A A A A A A Z Z Z Z Z Z Z Z Z Z Z

>  <atom.prop.IS_HEAVY_ATOM>  (560) 
1 0 0 0 1 1 1 1 0 0 0 1 0 0 1 0 0 0

>  <DIFUSE_FUNC_ATOM>  (560) 
atom 6   atom 7   

>  <FINAL_SINGLE_POINT_ENERGY>  (560) 
0

>  <NONCOV_INTER_ENERGY_QM>  (560) 
0

>  <FF_Energy>  (560) 
24.88

>  <QM_Energy>  (560) 
3.85

>  <source>  (560) 
ACET_PRPA_05

>  <Index>  (560) 
14644

$$$$
ACET-pdb1k0f-A-ASP-178:PRPA-pdb1k0f-A-VAL-138
     RDKit          3D

 18 16  0  0  0  0  0  0  0  0999 V2000
    0.0083    1.5018    0.0136 C   0  0  0  0  0  0  0  0  0  0  0  0
   -0.8183    1.8345   -0.4242 H   0  0  0  0  0  0  0  0  0  0  0  0
    0.8133    1.8263   -0.4667 H   0  0  0  0  0  0  0  0  0  0  0  0
    0.0371    1.8994    1.0281 H   0  0  0  0  0  0  0  0  0  0  0  0
    0.0000    0.0000    0.0000 C   0  0  0  0  0  0  0  0  0  0  0  0
   -1.1019   -0.5905   -0.0000 O   0  0  0  0  0  1  0  0  0  0  0  0
    1.1019   -0.5863    0.0000 O   0  0  0  0  0  0  0  0  0  0  0  0
   -4.2382    1.6299   -0.8878 C   0  0  0  0  0  0  0  0  0  0  0  0
   -4.9724    2.3346   -0.9504 H   0  0  0  0  0  0  0  0  0  0  0  0
   -4.6604    0.7530   -0.3968 H   0  0  0  0  0  0  0  0  0  0  0  0
   -3.8702    1.4372   -1.8955 H   0  0  0  0  0  0  0  0  0  0  0  0
   -3.0813    2.2040   -0.0669 C   0  0  0  0  0  0  0  0  0  0  0  0
   -2.3570    1.5207   -0.0467 H   0  0  0  0  0  0  0  0  0  0  0  0
   -3.4157    2.4327    0.9450 H   0  0  0  0  0  0  0  0  0  0  0  0
   -2.5299    3.4239   -0.7445 C   0  0  0  0  0  0  0  0  0  0  0  0
   -1.5428    3.4934   -0.5789 H   0  0  0  0  0  0  0  0  0  0  0  0
   -2.6903    3.3714   -1.7341 H   0  0  0  0  0  0  0  0  0  0  0  0
   -2.9772    4.2480   -0.3872 H   0  0  0  0  0  0  0  0  0  0  0  0
  1  5  1  0
  5  6  1  0
  5  7  2  0
  1  2  1  0
  1  3  1  0
  1  4  1  0
  8 12  1  0
 12 15  1  0
  8  9  1  0
  8 10  1  0
  8 11  1  0
 12 13  1  0
 12 14  1  0
 15 16  1  0
 15 17  1  0
 15 18  1  0
M  CHG  1   6  -1
M  END
>  <PDB_ID>  (561) 
pdb1k0f

>  <RESIDUE_NAME>  (561) 
ASP   VAL

>  <FRAG_NAME>  (561) 
ACET   PRPA

>  <FRAG_ATOM_NUM>  (561) 
fragi: 7  fragj: 11

>  <atom.prop.CHAIN_ID>  (561) 
A A A A A A A Z Z Z Z Z Z Z Z Z Z Z

>  <atom.prop.IS_HEAVY_ATOM>  (561) 
1 0 0 0 1 1 1 1 0 0 0 1 0 0 1 0 0 0

>  <DIFUSE_FUNC_ATOM>  (561) 
atom 6   atom 7   

>  <FINAL_SINGLE_POINT_ENERGY>  (561) 
0

>  <NONCOV_INTER_ENERGY_QM>  (561) 
0

>  <FF_Energy>  (561) 
22.13

>  <QM_Energy>  (561) 
2.48

>  <source>  (561) 
ACET_PRPA_05

>  <Index>  (561) 
15996

$$$$
ACET-pdb1k0f-A-ASP-178:PRPA-pdb1k0f-A-VAL-138
     RDKit          3D

 18 16  0  0  0  0  0  0  0  0999 V2000
    0.0083    1.5018    0.0136 C   0  0  0  0  0  0  0  0  0  0  0  0
   -0.8183    1.8345   -0.4242 H   0  0  0  0  0  0  0  0  0  0  0  0
    0.8133    1.8263   -0.4667 H   0  0  0  0  0  0  0  0  0  0  0  0
    0.0371    1.8994    1.0281 H   0  0  0  0  0  0  0  0  0  0  0  0
    0.0000    0.0000    0.0000 C   0  0  0  0  0  0  0  0  0  0  0  0
   -1.1019   -0.5905   -0.0000 O   0  0  0  0  0  1  0  0  0  0  0  0
    1.1019   -0.5863    0.0000 O   0  0  0  0  0  0  0  0  0  0  0  0
   -4.2382    1.6299   -0.8878 C   0  0  0  0  0  0  0  0  0  0  0  0
   -4.9724    2.3346   -0.9504 H   0  0  0  0  0  0  0  0  0  0  0  0
   -4.6604    0.7530   -0.3968 H   0  0  0  0  0  0  0  0  0  0  0  0
   -3.8702    1.4372   -1.8955 H   0  0  0  0  0  0  0  0  0  0  0  0
   -3.0813    2.2040   -0.0669 C   0  0  0  0  0  0  0  0  0  0  0  0
   -2.3570    1.5207   -0.0467 H   0  0  0  0  0  0  0  0  0  0  0  0
   -2.6808    3.0902   -0.5591 H   0  0  0  0  0  0  0  0  0  0  0  0
   -3.5450    2.5213    1.3365 C   0  0  0  0  0  0  0  0  0  0  0  0
   -3.6559    3.5119    1.4373 H   0  0  0  0  0  0  0  0  0  0  0  0
   -4.4218    2.0694    1.5096 H   0  0  0  0  0  0  0  0  0  0  0  0
   -2.8658    2.1942    1.9956 H   0  0  0  0  0  0  0  0  0  0  0  0
  1  5  1  0
  5  6  1  0
  5  7  2  0
  1  2  1  0
  1  3  1  0
  1  4  1  0
  8 12  1  0
 12 15  1  0
  8  9  1  0
  8 10  1  0
  8 11  1  0
 12 13  1  0
 12 14  1  0
 15 16  1  0
 15 17  1  0
 15 18  1  0
M  CHG  1   6  -1
M  END
>  <PDB_ID>  (562) 
pdb1k0f

>  <RESIDUE_NAME>  (562) 
ASP   VAL

>  <FRAG_NAME>  (562) 
ACET   PRPA

>  <FRAG_ATOM_NUM>  (562) 
fragi: 7  fragj: 11

>  <atom.prop.CHAIN_ID>  (562) 
A A A A A A A Z Z Z Z Z Z Z Z Z Z Z

>  <atom.prop.IS_HEAVY_ATOM>  (562) 
1 0 0 0 1 1 1 1 0 0 0 1 0 0 1 0 0 0

>  <DIFUSE_FUNC_ATOM>  (562) 
atom 6   atom 7   

>  <FINAL_SINGLE_POINT_ENERGY>  (562) 
0

>  <NONCOV_INTER_ENERGY_QM>  (562) 
0

>  <FF_Energy>  (562) 
16.66

>  <QM_Energy>  (562) 
1.13

>  <source>  (562) 
ACET_PRPA_05

>  <Index>  (562) 
16006

$$$$
ACET-pdb1k0f-A-ASP-178:PRPA-pdb1k0f-A-VAL-138
     RDKit          3D

 18 16  0  0  0  0  0  0  0  0999 V2000
    0.0083    1.5018    0.0136 C   0  0  0  0  0  0  0  0  0  0  0  0
   -0.8183    1.8345   -0.4242 H   0  0  0  0  0  0  0  0  0  0  0  0
    0.8133    1.8263   -0.4667 H   0  0  0  0  0  0  0  0  0  0  0  0
    0.0371    1.8994    1.0281 H   0  0  0  0  0  0  0  0  0  0  0  0
    0.0000    0.0000    0.0000 C   0  0  0  0  0  0  0  0  0  0  0  0
   -1.1019   -0.5905   -0.0000 O   0  0  0  0  0  1  0  0  0  0  0  0
    1.1019   -0.5863    0.0000 O   0  0  0  0  0  0  0  0  0  0  0  0
   -2.5299    3.4239   -0.7445 C   0  0  0  0  0  0  0  0  0  0  0  0
   -1.5428    3.4934   -0.5789 H   0  0  0  0  0  0  0  0  0  0  0  0
   -2.6903    3.3714   -1.7341 H   0  0  0  0  0  0  0  0  0  0  0  0
   -2.9772    4.2480   -0.3872 H   0  0  0  0  0  0  0  0  0  0  0  0
   -3.0813    2.2040   -0.0669 C   0  0  0  0  0  0  0  0  0  0  0  0
   -2.3570    1.5207   -0.0467 H   0  0  0  0  0  0  0  0  0  0  0  0
   -3.9054    1.7951   -0.6516 H   0  0  0  0  0  0  0  0  0  0  0  0
   -3.5450    2.5213    1.3365 C   0  0  0  0  0  0  0  0  0  0  0  0
   -3.6559    3.5119    1.4373 H   0  0  0  0  0  0  0  0  0  0  0  0
   -4.4218    2.0694    1.5096 H   0  0  0  0  0  0  0  0  0  0  0  0
   -2.8658    2.1942    1.9956 H   0  0  0  0  0  0  0  0  0  0  0  0
  1  5  1  0
  5  6  1  0
  5  7  2  0
  1  2  1  0
  1  3  1  0
  1  4  1  0
  8 12  1  0
 12 15  1  0
  8  9  1  0
  8 10  1  0
  8 11  1  0
 12 13  1  0
 12 14  1  0
 15 16  1  0
 15 17  1  0
 15 18  1  0
M  CHG  1   6  -1
M  END
>  <PDB_ID>  (563) 
pdb1k0f

>  <RESIDUE_NAME>  (563) 
ASP   VAL

>  <FRAG_NAME>  (563) 
ACET   PRPA

>  <FRAG_ATOM_NUM>  (563) 
fragi: 7  fragj: 11

>  <atom.prop.CHAIN_ID>  (563) 
A A A A A A A Z Z Z Z Z Z Z Z Z Z Z

>  <atom.prop.IS_HEAVY_ATOM>  (563) 
1 0 0 0 1 1 1 1 0 0 0 1 0 0 1 0 0 0

>  <DIFUSE_FUNC_ATOM>  (563) 
atom 6   atom 7   

>  <FINAL_SINGLE_POINT_ENERGY>  (563) 
0

>  <NONCOV_INTER_ENERGY_QM>  (563) 
0

>  <FF_Energy>  (563) 
21.77

>  <QM_Energy>  (563) 
2.16

>  <source>  (563) 
ACET_PRPA_05

>  <Index>  (563) 
16015

$$$$
ACET-pdb1jy1-A-GLU-452:PRPA-pdb1jy1-A-GLN-291
     RDKit          3D

 18 16  0  0  0  0  0  0  0  0999 V2000
    0.0565    1.4962    0.0148 C   0  0  0  0  0  0  0  0  0  0  0  0
   -0.6781    1.8274   -0.5547 H   0  0  0  0  0  0  0  0  0  0  0  0
    0.9388    1.7637   -0.3365 H   0  0  0  0  0  0  0  0  0  0  0  0
   -0.0641    1.9043    1.0183 H   0  0  0  0  0  0  0  0  0  0  0  0
    0.0000    0.0000    0.0000 C   0  0  0  0  0  0  0  0  0  0  0  0
   -1.1261   -0.6215    0.0000 O   0  0  0  0  0  1  0  0  0  0  0  0
    1.1261   -0.5629   -0.0000 O   0  0  0  0  0  0  0  0  0  0  0  0
    2.6769   -3.6373   -1.1036 C   0  0  0  0  0  0  0  0  0  0  0  0
    3.5467   -4.1585   -0.9489 H   0  0  0  0  0  0  0  0  0  0  0  0
    2.4692   -3.6435   -2.1736 H   0  0  0  0  0  0  0  0  0  0  0  0
    1.9065   -4.0925   -0.4812 H   0  0  0  0  0  0  0  0  0  0  0  0
    3.0126   -2.2200   -0.6050 C   0  0  0  0  0  0  0  0  0  0  0  0
    2.2890   -1.6055   -0.8671 H   0  0  0  0  0  0  0  0  0  0  0  0
    3.1419   -2.2430    0.3721 H   0  0  0  0  0  0  0  0  0  0  0  0
    4.3243   -1.7090   -1.2454 C   0  0  0  0  0  0  0  0  0  0  0  0
    5.0558   -2.3324   -1.0009 H   0  0  0  0  0  0  0  0  0  0  0  0
    4.2013   -1.6778   -2.2288 H   0  0  0  0  0  0  0  0  0  0  0  0
    4.5840   -0.7105   -0.8938 H   0  0  0  0  0  0  0  0  0  0  0  0
  1  5  1  0
  5  6  1  0
  5  7  2  0
  1  2  1  0
  1  3  1  0
  1  4  1  0
  8 12  1  0
 12 15  1  0
  8  9  1  0
  8 10  1  0
  8 11  1  0
 12 13  1  0
 12 14  1  0
 15 16  1  0
 15 17  1  0
 15 18  1  0
M  CHG  1   6  -1
M  END
>  <PDB_ID>  (564) 
pdb1jy1

>  <RESIDUE_NAME>  (564) 
GLU   GLN

>  <FRAG_NAME>  (564) 
ACET   PRPA

>  <FRAG_ATOM_NUM>  (564) 
fragi: 7  fragj: 11

>  <atom.prop.CHAIN_ID>  (564) 
A A A A A A A Z Z Z Z Z Z Z Z Z Z Z

>  <atom.prop.IS_HEAVY_ATOM>  (564) 
1 0 0 0 1 1 1 1 0 0 0 1 0 0 1 0 0 0

>  <DIFUSE_FUNC_ATOM>  (564) 
atom 6   atom 7   

>  <FINAL_SINGLE_POINT_ENERGY>  (564) 
0

>  <NONCOV_INTER_ENERGY_QM>  (564) 
0

>  <FF_Energy>  (564) 
38.56

>  <QM_Energy>  (564) 
4.1

>  <source>  (564) 
ACET_PRPA_05

>  <Index>  (564) 
16092

$$$$
ACET-pdb1k04-A-GLU-949:PRPA-pdb1k04-A-PRO-946
     RDKit          3D

 18 16  0  0  0  0  0  0  0  0999 V2000
    0.0034    1.5275    0.0028 C   0  0  0  0  0  0  0  0  0  0  0  0
   -0.5140    1.8233   -0.7732 H   0  0  0  0  0  0  0  0  0  0  0  0
    0.9376    1.8178   -0.0272 H   0  0  0  0  0  0  0  0  0  0  0  0
   -0.4584    1.9364    0.9016 H   0  0  0  0  0  0  0  0  0  0  0  0
    0.0000    0.0000    0.0000 C   0  0  0  0  0  0  0  0  0  0  0  0
   -1.0934   -0.6067    0.0000 O   0  0  0  0  0  1  0  0  0  0  0  0
    1.0934   -0.5973    0.0000 O   0  0  0  0  0  0  0  0  0  0  0  0
    4.4154    1.8672    1.3193 C   0  0  0  0  0  0  0  0  0  0  0  0
    3.6679    2.3515    0.8621 H   0  0  0  0  0  0  0  0  0  0  0  0
    5.2699    2.3672    1.1787 H   0  0  0  0  0  0  0  0  0  0  0  0
    4.2060    1.7531    2.3828 H   0  0  0  0  0  0  0  0  0  0  0  0
    4.5218    0.4740    0.8488 C   0  0  0  0  0  0  0  0  0  0  0  0
    4.4124    0.4183   -0.1439 H   0  0  0  0  0  0  0  0  0  0  0  0
    5.3981    0.0705    1.1107 H   0  0  0  0  0  0  0  0  0  0  0  0
    3.3852   -0.2229    1.5482 C   0  0  0  0  0  0  0  0  0  0  0  0
    2.5231   -0.0896    1.0671 H   0  0  0  0  0  0  0  0  0  0  0  0
    3.5668   -1.1968    1.6609 H   0  0  0  0  0  0  0  0  0  0  0  0
    3.3656    0.2778    2.5163 H   0  0  0  0  0  0  0  0  0  0  0  0
  1  5  1  0
  5  6  1  0
  5  7  2  0
  1  2  1  0
  1  3  1  0
  1  4  1  0
  8 12  1  0
 12 15  1  0
  8  9  1  0
  8 10  1  0
  8 11  1  0
 12 13  1  0
 12 14  1  0
 15 16  1  0
 15 17  1  0
 15 18  1  0
M  CHG  1   6  -1
M  END
>  <PDB_ID>  (565) 
pdb1k04

>  <RESIDUE_NAME>  (565) 
GLU   PRO

>  <FRAG_NAME>  (565) 
ACET   PRPA

>  <FRAG_ATOM_NUM>  (565) 
fragi: 7  fragj: 11

>  <atom.prop.CHAIN_ID>  (565) 
A A A A A A A Z Z Z Z Z Z Z Z Z Z Z

>  <atom.prop.IS_HEAVY_ATOM>  (565) 
1 0 0 0 1 1 1 1 0 0 0 1 0 0 1 0 0 0

>  <DIFUSE_FUNC_ATOM>  (565) 
atom 6   atom 7   

>  <FINAL_SINGLE_POINT_ENERGY>  (565) 
0

>  <NONCOV_INTER_ENERGY_QM>  (565) 
0

>  <FF_Energy>  (565) 
18.91

>  <QM_Energy>  (565) 
-0.33

>  <source>  (565) 
ACET_PRPA_05

>  <Index>  (565) 
16347

$$$$
ACET-pdb2or8-A-ASP-100:PRPA-pdb2or8-A-GLU-93
     RDKit          3D

 18 16  0  0  0  0  0  0  0  0999 V2000
   -0.0014    1.5069    0.0131 C   0  0  0  0  0  0  0  0  0  0  0  0
    0.9387    1.8319    0.0095 H   0  0  0  0  0  0  0  0  0  0  0  0
   -0.4727    1.8237    0.8295 H   0  0  0  0  0  0  0  0  0  0  0  0
   -0.5067    1.9354   -0.8525 H   0  0  0  0  0  0  0  0  0  0  0  0
    0.0000    0.0000    0.0000 C   0  0  0  0  0  0  0  0  0  0  0  0
   -1.0968   -0.5930   -0.0000 O   0  0  0  0  0  1  0  0  0  0  0  0
    1.0968   -0.5943    0.0000 O   0  0  0  0  0  0  0  0  0  0  0  0
   -3.7074   -0.9916    1.0572 C   0  0  0  0  0  0  0  0  0  0  0  0
   -2.8417   -0.7300    0.6081 H   0  0  0  0  0  0  0  0  0  0  0  0
   -3.9215   -0.3135    1.8833 H   0  0  0  0  0  0  0  0  0  0  0  0
   -4.5029   -0.9858    0.3120 H   0  0  0  0  0  0  0  0  0  0  0  0
   -3.4392   -2.4128    1.6062 C   0  0  0  0  0  0  0  0  0  0  0  0
   -4.2646   -2.7398    2.0088 H   0  0  0  0  0  0  0  0  0  0  0  0
   -3.1161   -2.9628    0.8702 H   0  0  0  0  0  0  0  0  0  0  0  0
   -2.3478   -2.4414    2.7131 C   0  0  0  0  0  0  0  0  0  0  0  0
   -1.5729   -1.9347    2.3791 H   0  0  0  0  0  0  0  0  0  0  0  0
   -2.7337   -2.0370    3.5230 H   0  0  0  0  0  0  0  0  0  0  0  0
   -2.0009   -3.4406    2.9765 H   0  0  0  0  0  0  0  0  0  0  0  0
  1  5  1  0
  5  6  1  0
  5  7  2  0
  1  2  1  0
  1  3  1  0
  1  4  1  0
  8 12  1  0
 12 15  1  0
  8  9  1  0
  8 10  1  0
  8 11  1  0
 12 13  1  0
 12 14  1  0
 15 16  1  0
 15 17  1  0
 15 18  1  0
M  CHG  1   6  -1
M  END
>  <PDB_ID>  (566) 
pdb2or8

>  <RESIDUE_NAME>  (566) 
ASP   GLU

>  <FRAG_NAME>  (566) 
ACET   PRPA

>  <FRAG_ATOM_NUM>  (566) 
fragi: 7  fragj: 11

>  <atom.prop.CHAIN_ID>  (566) 
A A A A A A A Z Z Z Z Z Z Z Z Z Z Z

>  <atom.prop.IS_HEAVY_ATOM>  (566) 
1 0 0 0 1 1 1 1 0 0 0 1 0 0 1 0 0 0

>  <DIFUSE_FUNC_ATOM>  (566) 
atom 6   atom 7   

>  <FINAL_SINGLE_POINT_ENERGY>  (566) 
0

>  <NONCOV_INTER_ENERGY_QM>  (566) 
0

>  <FF_Energy>  (566) 
18.84

>  <QM_Energy>  (566) 
-2.76

>  <source>  (566) 
ACET_PRPA_05

>  <Index>  (566) 
16629

$$$$
ACET-pdb2osd-A-GLU-18:PRPA-pdb2osd-A-LYS-22
     RDKit          3D

 18 16  0  0  0  0  0  0  0  0999 V2000
    0.0186    1.5429    0.0081 C   0  0  0  0  0  0  0  0  0  0  0  0
    0.9403    1.8218   -0.1709 H   0  0  0  0  0  0  0  0  0  0  0  0
   -0.3025    1.8299    0.8881 H   0  0  0  0  0  0  0  0  0  0  0  0
   -0.6263    1.9793   -0.7546 H   0  0  0  0  0  0  0  0  0  0  0  0
    0.0000    0.0000    0.0000 C   0  0  0  0  0  0  0  0  0  0  0  0
   -1.1101   -0.5957    0.0000 O   0  0  0  0  0  1  0  0  0  0  0  0
    1.1101   -0.6030   -0.0000 O   0  0  0  0  0  0  0  0  0  0  0  0
    4.6293    1.5856   -2.1500 C   0  0  0  0  0  0  0  0  0  0  0  0
    4.7776    0.7092   -2.6304 H   0  0  0  0  0  0  0  0  0  0  0  0
    5.3776    1.7039   -1.4827 H   0  0  0  0  0  0  0  0  0  0  0  0
    4.7153    2.3838   -2.8872 H   0  0  0  0  0  0  0  0  0  0  0  0
    3.2921    1.5262   -1.4001 C   0  0  0  0  0  0  0  0  0  0  0  0
    3.1641    2.4154   -0.9418 H   0  0  0  0  0  0  0  0  0  0  0  0
    2.5641    1.4197   -2.0894 H   0  0  0  0  0  0  0  0  0  0  0  0
    3.2185    0.4412   -0.4206 C   0  0  0  0  0  0  0  0  0  0  0  0
    4.1177    0.2968    0.0123 H   0  0  0  0  0  0  0  0  0  0  0  0
    2.5545    0.6671    0.3054 H   0  0  0  0  0  0  0  0  0  0  0  0
    2.9094   -0.4960   -0.8836 H   0  0  0  0  0  0  0  0  0  0  0  0
  1  5  1  0
  5  6  1  0
  5  7  2  0
  1  2  1  0
  1  3  1  0
  1  4  1  0
  8 12  1  0
 12 15  1  0
  8  9  1  0
  8 10  1  0
  8 11  1  0
 12 13  1  0
 12 14  1  0
 15 16  1  0
 15 17  1  0
 15 18  1  0
M  CHG  1   6  -1
M  END
>  <PDB_ID>  (567) 
pdb2osd

>  <RESIDUE_NAME>  (567) 
GLU   LYS

>  <FRAG_NAME>  (567) 
ACET   PRPA

>  <FRAG_ATOM_NUM>  (567) 
fragi: 7  fragj: 11

>  <atom.prop.CHAIN_ID>  (567) 
A A A A A A A Z Z Z Z Z Z Z Z Z Z Z

>  <atom.prop.IS_HEAVY_ATOM>  (567) 
1 0 0 0 1 1 1 1 0 0 0 1 0 0 1 0 0 0

>  <DIFUSE_FUNC_ATOM>  (567) 
atom 6   atom 7   

>  <FINAL_SINGLE_POINT_ENERGY>  (567) 
0

>  <NONCOV_INTER_ENERGY_QM>  (567) 
0

>  <FF_Energy>  (567) 
35.33

>  <QM_Energy>  (567) 
13.1

>  <source>  (567) 
ACET_PRPA_05

>  <Index>  (567) 
16944

$$$$
ACET-pdb1k49-A-GLU-101:PRPA-pdb1k49-A-ARG-132
     RDKit          3D

 18 16  0  0  0  0  0  0  0  0999 V2000
    0.2427    1.4689   -0.0130 C   0  0  0  0  0  0  0  0  0  0  0  0
    0.9598    1.6730    0.6211 H   0  0  0  0  0  0  0  0  0  0  0  0
   -0.5964    1.9262    0.1978 H   0  0  0  0  0  0  0  0  0  0  0  0
    0.5662    1.8079   -0.9971 H   0  0  0  0  0  0  0  0  0  0  0  0
    0.0000    0.0000    0.0000 C   0  0  0  0  0  0  0  0  0  0  0  0
   -1.1077   -0.4819   -0.0000 O   0  0  0  0  0  1  0  0  0  0  0  0
    1.1077   -0.6966    0.0000 O   0  0  0  0  0  0  0  0  0  0  0  0
    4.0227   -1.4536   -3.6750 C   0  0  0  0  0  0  0  0  0  0  0  0
    3.8746   -1.5818   -4.6224 H   0  0  0  0  0  0  0  0  0  0  0  0
    4.3214   -2.2404   -3.1974 H   0  0  0  0  0  0  0  0  0  0  0  0
    4.7630   -0.6646   -3.5424 H   0  0  0  0  0  0  0  0  0  0  0  0
    2.7375   -0.9616   -3.0454 C   0  0  0  0  0  0  0  0  0  0  0  0
    2.9502   -0.1826   -2.4260 H   0  0  0  0  0  0  0  0  0  0  0  0
    2.1307   -0.5975   -3.7764 H   0  0  0  0  0  0  0  0  0  0  0  0
    1.9654   -1.9825   -2.2639 C   0  0  0  0  0  0  0  0  0  0  0  0
    2.6174   -2.6301   -1.8617 H   0  0  0  0  0  0  0  0  0  0  0  0
    1.4781   -1.5092   -1.5254 H   0  0  0  0  0  0  0  0  0  0  0  0
    1.2485   -2.5264   -2.8790 H   0  0  0  0  0  0  0  0  0  0  0  0
  1  5  1  0
  5  6  1  0
  5  7  2  0
  1  2  1  0
  1  3  1  0
  1  4  1  0
  8 12  1  0
 12 15  1  0
  8  9  1  0
  8 10  1  0
  8 11  1  0
 12 13  1  0
 12 14  1  0
 15 16  1  0
 15 17  1  0
 15 18  1  0
M  CHG  1   6  -1
M  END
>  <PDB_ID>  (568) 
pdb1k49

>  <RESIDUE_NAME>  (568) 
GLU   ARG

>  <FRAG_NAME>  (568) 
ACET   PRPA

>  <FRAG_ATOM_NUM>  (568) 
fragi: 7  fragj: 11

>  <atom.prop.CHAIN_ID>  (568) 
A A A A A A A Z Z Z Z Z Z Z Z Z Z Z

>  <atom.prop.IS_HEAVY_ATOM>  (568) 
1 0 0 0 1 1 1 1 0 0 0 1 0 0 1 0 0 0

>  <DIFUSE_FUNC_ATOM>  (568) 
atom 6   atom 7   

>  <FINAL_SINGLE_POINT_ENERGY>  (568) 
0

>  <NONCOV_INTER_ENERGY_QM>  (568) 
0

>  <FF_Energy>  (568) 
34.48

>  <QM_Energy>  (568) 
0.04

>  <source>  (568) 
ACET_PRPA_05

>  <Index>  (568) 
17415

$$$$
ACET-pdb2obe-A-GLU-145:PRPA-pdb2obe-A-LYS-137
     RDKit          3D

 18 16  0  0  0  0  0  0  0  0999 V2000
   -0.0135    1.5397   -0.0536 C   0  0  0  0  0  0  0  0  0  0  0  0
   -0.9566    1.8156    0.0441 H   0  0  0  0  0  0  0  0  0  0  0  0
    0.3488    1.7923   -0.9370 H   0  0  0  0  0  0  0  0  0  0  0  0
    0.5808    2.0139    0.7274 H   0  0  0  0  0  0  0  0  0  0  0  0
    0.0000    0.0000    0.0000 C   0  0  0  0  0  0  0  0  0  0  0  0
   -1.1166   -0.6038   -0.0000 O   0  0  0  0  0  1  0  0  0  0  0  0
    1.1166   -0.6102    0.0000 O   0  0  0  0  0  0  0  0  0  0  0  0
    3.1743    0.9527    1.2434 C   0  0  0  0  0  0  0  0  0  0  0  0
    2.8749    1.9015    1.1450 H   0  0  0  0  0  0  0  0  0  0  0  0
    2.7783    0.4005    0.5093 H   0  0  0  0  0  0  0  0  0  0  0  0
    4.2610    0.9149    1.1677 H   0  0  0  0  0  0  0  0  0  0  0  0
    2.6876    0.4179    2.5808 C   0  0  0  0  0  0  0  0  0  0  0  0
    2.9916   -0.5306    2.6756 H   0  0  0  0  0  0  0  0  0  0  0  0
    3.0873    0.9707    3.3116 H   0  0  0  0  0  0  0  0  0  0  0  0
    1.1833    0.4599    2.7089 C   0  0  0  0  0  0  0  0  0  0  0  0
    0.8709    1.4060    2.6175 H   0  0  0  0  0  0  0  0  0  0  0  0
    0.7755   -0.0950    1.9829 H   0  0  0  0  0  0  0  0  0  0  0  0
    0.8683    0.0703    3.6768 H   0  0  0  0  0  0  0  0  0  0  0  0
  1  5  1  0
  5  6  1  0
  5  7  2  0
  1  2  1  0
  1  3  1  0
  1  4  1  0
  8 12  1  0
 12 15  1  0
  8  9  1  0
  8 10  1  0
  8 11  1  0
 12 13  1  0
 12 14  1  0
 15 16  1  0
 15 17  1  0
 15 18  1  0
M  CHG  1   6  -1
M  END
>  <PDB_ID>  (569) 
pdb2obe

>  <RESIDUE_NAME>  (569) 
GLU   LYS

>  <FRAG_NAME>  (569) 
ACET   PRPA

>  <FRAG_ATOM_NUM>  (569) 
fragi: 7  fragj: 11

>  <atom.prop.CHAIN_ID>  (569) 
A A A A A A A Z Z Z Z Z Z Z Z Z Z Z

>  <atom.prop.IS_HEAVY_ATOM>  (569) 
1 0 0 0 1 1 1 1 0 0 0 1 0 0 1 0 0 0

>  <DIFUSE_FUNC_ATOM>  (569) 
atom 6   atom 7   

>  <FINAL_SINGLE_POINT_ENERGY>  (569) 
0

>  <NONCOV_INTER_ENERGY_QM>  (569) 
0

>  <FF_Energy>  (569) 
24.68

>  <QM_Energy>  (569) 
2.6

>  <source>  (569) 
ACET_PRPA_05

>  <Index>  (569) 
18068

$$$$
ACET-pdb1k2y-X-GLU-139:PRPA-pdb1k2y-X-ARG-135
     RDKit          3D

 18 16  0  0  0  0  0  0  0  0999 V2000
    0.1554    1.4830    0.0151 C   0  0  0  0  0  0  0  0  0  0  0  0
    0.6760    1.7468   -0.8011 H   0  0  0  0  0  0  0  0  0  0  0  0
    0.6881    1.7278    0.8311 H   0  0  0  0  0  0  0  0  0  0  0  0
   -0.7556    2.0815    0.0277 H   0  0  0  0  0  0  0  0  0  0  0  0
    0.0000    0.0000    0.0000 C   0  0  0  0  0  0  0  0  0  0  0  0
   -1.0901   -0.5643   -0.0000 O   0  0  0  0  0  1  0  0  0  0  0  0
    1.0901   -0.5996   -0.0000 O   0  0  0  0  0  0  0  0  0  0  0  0
    4.4907    0.6671    1.1602 C   0  0  0  0  0  0  0  0  0  0  0  0
    4.8567    1.4080    0.5964 H   0  0  0  0  0  0  0  0  0  0  0  0
    5.0915    0.5840    2.0659 H   0  0  0  0  0  0  0  0  0  0  0  0
    3.4628    0.9060    1.4334 H   0  0  0  0  0  0  0  0  0  0  0  0
    4.5351   -0.6470    0.3743 C   0  0  0  0  0  0  0  0  0  0  0  0
    5.4759   -0.8242    0.1029 H   0  0  0  0  0  0  0  0  0  0  0  0
    4.2022   -1.3800    0.9588 H   0  0  0  0  0  0  0  0  0  0  0  0
    3.6727   -0.6633   -0.9179 C   0  0  0  0  0  0  0  0  0  0  0  0
    2.7250   -0.4402   -0.6711 H   0  0  0  0  0  0  0  0  0  0  0  0
    4.0187    0.0450   -1.5406 H   0  0  0  0  0  0  0  0  0  0  0  0
    3.6748   -1.6158   -1.4479 H   0  0  0  0  0  0  0  0  0  0  0  0
  1  5  1  0
  5  6  1  0
  5  7  2  0
  1  2  1  0
  1  3  1  0
  1  4  1  0
  8 12  1  0
 12 15  1  0
  8  9  1  0
  8 10  1  0
  8 11  1  0
 12 13  1  0
 12 14  1  0
 15 16  1  0
 15 17  1  0
 15 18  1  0
M  CHG  1   6  -1
M  END
>  <PDB_ID>  (570) 
pdb1k2y

>  <RESIDUE_NAME>  (570) 
GLU   ARG

>  <FRAG_NAME>  (570) 
ACET   PRPA

>  <FRAG_ATOM_NUM>  (570) 
fragi: 7  fragj: 11

>  <atom.prop.CHAIN_ID>  (570) 
A A A A A A A Z Z Z Z Z Z Z Z Z Z Z

>  <atom.prop.IS_HEAVY_ATOM>  (570) 
1 0 0 0 1 1 1 1 0 0 0 1 0 0 1 0 0 0

>  <DIFUSE_FUNC_ATOM>  (570) 
atom 6   atom 7   

>  <FINAL_SINGLE_POINT_ENERGY>  (570) 
0

>  <NONCOV_INTER_ENERGY_QM>  (570) 
0

>  <FF_Energy>  (570) 
32.94

>  <QM_Energy>  (570) 
0.28

>  <source>  (570) 
ACET_PRPA_05

>  <Index>  (570) 
18211

$$$$
ACET-pdb1k2y-X-GLU-139:PRPA-pdb1k2y-X-ARG-135
     RDKit          3D

 18 16  0  0  0  0  0  0  0  0999 V2000
    0.1554    1.4830    0.0151 C   0  0  0  0  0  0  0  0  0  0  0  0
    0.6760    1.7468   -0.8011 H   0  0  0  0  0  0  0  0  0  0  0  0
    0.6881    1.7278    0.8311 H   0  0  0  0  0  0  0  0  0  0  0  0
   -0.7556    2.0815    0.0277 H   0  0  0  0  0  0  0  0  0  0  0  0
    0.0000    0.0000    0.0000 C   0  0  0  0  0  0  0  0  0  0  0  0
   -1.0901   -0.5643   -0.0000 O   0  0  0  0  0  1  0  0  0  0  0  0
    1.0901   -0.5996   -0.0000 O   0  0  0  0  0  0  0  0  0  0  0  0
    4.5351   -0.6470    0.3743 C   0  0  0  0  0  0  0  0  0  0  0  0
    5.4759   -0.8242    0.1029 H   0  0  0  0  0  0  0  0  0  0  0  0
    4.2022   -1.3800    0.9588 H   0  0  0  0  0  0  0  0  0  0  0  0
    4.5035    0.2881    0.9336 H   0  0  0  0  0  0  0  0  0  0  0  0
    3.6727   -0.6633   -0.9179 C   0  0  0  0  0  0  0  0  0  0  0  0
    2.7250   -0.4402   -0.6711 H   0  0  0  0  0  0  0  0  0  0  0  0
    4.0187    0.0450   -1.5406 H   0  0  0  0  0  0  0  0  0  0  0  0
    3.6757   -1.9962   -1.6597 C   0  0  0  0  0  0  0  0  0  0  0  0
    3.0280   -1.9316   -2.4105 H   0  0  0  0  0  0  0  0  0  0  0  0
    4.5943   -2.1530   -2.0046 H   0  0  0  0  0  0  0  0  0  0  0  0
    3.3893   -2.8180   -1.0034 H   0  0  0  0  0  0  0  0  0  0  0  0
  1  5  1  0
  5  6  1  0
  5  7  2  0
  1  2  1  0
  1  3  1  0
  1  4  1  0
  8 12  1  0
 12 15  1  0
  8  9  1  0
  8 10  1  0
  8 11  1  0
 12 13  1  0
 12 14  1  0
 15 16  1  0
 15 17  1  0
 15 18  1  0
M  CHG  1   6  -1
M  END
>  <PDB_ID>  (571) 
pdb1k2y

>  <RESIDUE_NAME>  (571) 
GLU   ARG

>  <FRAG_NAME>  (571) 
ACET   PRPA

>  <FRAG_ATOM_NUM>  (571) 
fragi: 7  fragj: 11

>  <atom.prop.CHAIN_ID>  (571) 
A A A A A A A Z Z Z Z Z Z Z Z Z Z Z

>  <atom.prop.IS_HEAVY_ATOM>  (571) 
1 0 0 0 1 1 1 1 0 0 0 1 0 0 1 0 0 0

>  <DIFUSE_FUNC_ATOM>  (571) 
atom 6   atom 7   

>  <FINAL_SINGLE_POINT_ENERGY>  (571) 
0

>  <NONCOV_INTER_ENERGY_QM>  (571) 
0

>  <FF_Energy>  (571) 
38.64

>  <QM_Energy>  (571) 
0.38

>  <source>  (571) 
ACET_PRPA_05

>  <Index>  (571) 
18223

$$$$
ACET-pdb2ota-B-GLU-10:PRPA-pdb2ota-B-GLU-13
     RDKit          3D

 18 16  0  0  0  0  0  0  0  0999 V2000
    0.1815    1.5193    0.0163 C   0  0  0  0  0  0  0  0  0  0  0  0
    0.6794    1.7734   -0.8000 H   0  0  0  0  0  0  0  0  0  0  0  0
    0.6914    1.7543    0.8320 H   0  0  0  0  0  0  0  0  0  0  0  0
   -0.7356    2.1082    0.0292 H   0  0  0  0  0  0  0  0  0  0  0  0
    0.0000    0.0000    0.0000 C   0  0  0  0  0  0  0  0  0  0  0  0
   -1.0895   -0.5361    0.0000 O   0  0  0  0  0  1  0  0  0  0  0  0
    1.0895   -0.5932    0.0000 O   0  0  0  0  0  0  0  0  0  0  0  0
   -3.6530    2.3342   -3.2173 C   0  0  0  0  0  0  0  0  0  0  0  0
   -3.4301    1.8011   -4.0447 H   0  0  0  0  0  0  0  0  0  0  0  0
   -2.9753    3.1840   -3.1349 H   0  0  0  0  0  0  0  0  0  0  0  0
   -4.6926    2.6581   -3.2661 H   0  0  0  0  0  0  0  0  0  0  0  0
   -3.4572    1.3801   -2.0393 C   0  0  0  0  0  0  0  0  0  0  0  0
   -3.5159    1.9087   -1.2113 H   0  0  0  0  0  0  0  0  0  0  0  0
   -4.1575    0.6912   -2.0900 H   0  0  0  0  0  0  0  0  0  0  0  0
   -2.1110    0.6667   -2.0336 C   0  0  0  0  0  0  0  0  0  0  0  0
   -1.4079    1.3437   -1.9161 H   0  0  0  0  0  0  0  0  0  0  0  0
   -2.1168    0.0072   -1.3038 H   0  0  0  0  0  0  0  0  0  0  0  0
   -1.9094    0.1334   -2.9627 H   0  0  0  0  0  0  0  0  0  0  0  0
  1  5  1  0
  5  6  1  0
  5  7  2  0
  1  2  1  0
  1  3  1  0
  1  4  1  0
  8 12  1  0
 12 15  1  0
  8  9  1  0
  8 10  1  0
  8 11  1  0
 12 13  1  0
 12 14  1  0
 15 16  1  0
 15 17  1  0
 15 18  1  0
M  CHG  1   6  -1
M  END
>  <PDB_ID>  (572) 
pdb2ota

>  <RESIDUE_NAME>  (572) 
GLU   GLU

>  <FRAG_NAME>  (572) 
ACET   PRPA

>  <FRAG_ATOM_NUM>  (572) 
fragi: 7  fragj: 11

>  <atom.prop.CHAIN_ID>  (572) 
A A A A A A A Z Z Z Z Z Z Z Z Z Z Z

>  <atom.prop.IS_HEAVY_ATOM>  (572) 
1 0 0 0 1 1 1 1 0 0 0 1 0 0 1 0 0 0

>  <DIFUSE_FUNC_ATOM>  (572) 
atom 6   atom 7   

>  <FINAL_SINGLE_POINT_ENERGY>  (572) 
0

>  <NONCOV_INTER_ENERGY_QM>  (572) 
0

>  <FF_Energy>  (572) 
48.05

>  <QM_Energy>  (572) 
7.2

>  <source>  (572) 
ACET_PRPA_05

>  <Index>  (572) 
18302

$$$$
ACET-pdb1k6m-A-ASP-179:PRPA-pdb1k6m-A-ARG-82
     RDKit          3D

 18 16  0  0  0  0  0  0  0  0999 V2000
    0.0065    1.4910    0.0016 C   0  0  0  0  0  0  0  0  0  0  0  0
   -0.0119    1.8210   -0.9378 H   0  0  0  0  0  0  0  0  0  0  0  0
    0.8268    1.8160    0.4618 H   0  0  0  0  0  0  0  0  0  0  0  0
   -0.8562    1.9101    0.5195 H   0  0  0  0  0  0  0  0  0  0  0  0
    0.0000    0.0000    0.0000 C   0  0  0  0  0  0  0  0  0  0  0  0
   -1.0912   -0.5945    0.0000 O   0  0  0  0  0  1  0  0  0  0  0  0
    1.0912   -0.5869    0.0000 O   0  0  0  0  0  0  0  0  0  0  0  0
   -3.7419   -4.1501    2.0638 C   0  0  0  0  0  0  0  0  0  0  0  0
   -4.0999   -4.6499    1.2973 H   0  0  0  0  0  0  0  0  0  0  0  0
   -4.4366   -3.6327    2.5283 H   0  0  0  0  0  0  0  0  0  0  0  0
   -3.2983   -4.8548    2.7671 H   0  0  0  0  0  0  0  0  0  0  0  0
   -2.6938   -3.1781    1.5471 C   0  0  0  0  0  0  0  0  0  0  0  0
   -2.3821   -2.6009    2.2997 H   0  0  0  0  0  0  0  0  0  0  0  0
   -1.9219   -3.6936    1.1779 H   0  0  0  0  0  0  0  0  0  0  0  0
   -3.2442   -2.2980    0.4626 C   0  0  0  0  0  0  0  0  0  0  0  0
   -3.9533   -1.7158    0.8554 H   0  0  0  0  0  0  0  0  0  0  0  0
   -2.5017   -1.7336    0.1066 H   0  0  0  0  0  0  0  0  0  0  0  0
   -3.6718   -2.8811   -0.3530 H   0  0  0  0  0  0  0  0  0  0  0  0
  1  5  1  0
  5  6  1  0
  5  7  2  0
  1  2  1  0
  1  3  1  0
  1  4  1  0
  8 12  1  0
 12 15  1  0
  8  9  1  0
  8 10  1  0
  8 11  1  0
 12 13  1  0
 12 14  1  0
 15 16  1  0
 15 17  1  0
 15 18  1  0
M  CHG  1   6  -1
M  END
>  <PDB_ID>  (573) 
pdb1k6m

>  <RESIDUE_NAME>  (573) 
ASP   ARG

>  <FRAG_NAME>  (573) 
ACET   PRPA

>  <FRAG_ATOM_NUM>  (573) 
fragi: 7  fragj: 11

>  <atom.prop.CHAIN_ID>  (573) 
A A A A A A A Z Z Z Z Z Z Z Z Z Z Z

>  <atom.prop.IS_HEAVY_ATOM>  (573) 
1 0 0 0 1 1 1 1 0 0 0 1 0 0 1 0 0 0

>  <DIFUSE_FUNC_ATOM>  (573) 
atom 6   atom 7   

>  <FINAL_SINGLE_POINT_ENERGY>  (573) 
0

>  <NONCOV_INTER_ENERGY_QM>  (573) 
0

>  <FF_Energy>  (573) 
24.21

>  <QM_Energy>  (573) 
-0.95

>  <source>  (573) 
ACET_PRPA_05

>  <Index>  (573) 
20643

$$$$
ACET-pdb1k3f-A-GLU-167:PRPA-pdb1k3f-A-ARG-223
     RDKit          3D

 18 16  0  0  0  0  0  0  0  0999 V2000
   -0.0276    1.5121    0.0296 C   0  0  0  0  0  0  0  0  0  0  0  0
    0.8913    1.8256    0.1840 H   0  0  0  0  0  0  0  0  0  0  0  0
   -0.6412    1.7862    0.7467 H   0  0  0  0  0  0  0  0  0  0  0  0
   -0.3815    1.9442   -0.9064 H   0  0  0  0  0  0  0  0  0  0  0  0
    0.0000    0.0000    0.0000 C   0  0  0  0  0  0  0  0  0  0  0  0
   -1.0861   -0.5933   -0.0000 O   0  0  0  0  0  1  0  0  0  0  0  0
    1.0861   -0.6009    0.0000 O   0  0  0  0  0  0  0  0  0  0  0  0
   -1.0776   -2.4207   -3.7255 C   0  0  0  0  0  0  0  0  0  0  0  0
   -0.1935   -2.3391   -4.1552 H   0  0  0  0  0  0  0  0  0  0  0  0
   -1.4185   -1.5460   -3.4232 H   0  0  0  0  0  0  0  0  0  0  0  0
   -1.7798   -2.8409   -4.4457 H   0  0  0  0  0  0  0  0  0  0  0  0
   -0.9357   -3.3166   -2.5162 C   0  0  0  0  0  0  0  0  0  0  0  0
   -1.8256   -3.4091   -2.0693 H   0  0  0  0  0  0  0  0  0  0  0  0
   -0.6164   -4.2171   -2.8110 H   0  0  0  0  0  0  0  0  0  0  0  0
    0.0375   -2.7573   -1.5417 C   0  0  0  0  0  0  0  0  0  0  0  0
    0.7533   -2.2733   -2.0425 H   0  0  0  0  0  0  0  0  0  0  0  0
   -0.4417   -2.1190   -0.9400 H   0  0  0  0  0  0  0  0  0  0  0  0
    0.4935   -3.5424   -0.9385 H   0  0  0  0  0  0  0  0  0  0  0  0
  1  5  1  0
  5  6  1  0
  5  7  2  0
  1  2  1  0
  1  3  1  0
  1  4  1  0
  8 12  1  0
 12 15  1  0
  8  9  1  0
  8 10  1  0
  8 11  1  0
 12 13  1  0
 12 14  1  0
 15 16  1  0
 15 17  1  0
 15 18  1  0
M  CHG  1   6  -1
M  END
>  <PDB_ID>  (574) 
pdb1k3f

>  <RESIDUE_NAME>  (574) 
GLU   ARG

>  <FRAG_NAME>  (574) 
ACET   PRPA

>  <FRAG_ATOM_NUM>  (574) 
fragi: 7  fragj: 11

>  <atom.prop.CHAIN_ID>  (574) 
A A A A A A A Z Z Z Z Z Z Z Z Z Z Z

>  <atom.prop.IS_HEAVY_ATOM>  (574) 
1 0 0 0 1 1 1 1 0 0 0 1 0 0 1 0 0 0

>  <DIFUSE_FUNC_ATOM>  (574) 
atom 6   atom 7   

>  <FINAL_SINGLE_POINT_ENERGY>  (574) 
0

>  <NONCOV_INTER_ENERGY_QM>  (574) 
0

>  <FF_Energy>  (574) 
17.95

>  <QM_Energy>  (574) 
0.21

>  <source>  (574) 
ACET_PRPA_05

>  <Index>  (574) 
20725

$$$$
ACET-pdb2owo-A-ASP-100:PRPA-pdb2owo-A-LYS-96
     RDKit          3D

 18 16  0  0  0  0  0  0  0  0999 V2000
   -0.0010    1.5175    0.0163 C   0  0  0  0  0  0  0  0  0  0  0  0
    0.8775    1.8428   -0.3136 H   0  0  0  0  0  0  0  0  0  0  0  0
   -0.1625    1.8287    0.9445 H   0  0  0  0  0  0  0  0  0  0  0  0
   -0.7755    1.9462   -0.6196 H   0  0  0  0  0  0  0  0  0  0  0  0
    0.0000    0.0000    0.0000 C   0  0  0  0  0  0  0  0  0  0  0  0
   -1.0983   -0.5935   -0.0000 O   0  0  0  0  0  1  0  0  0  0  0  0
    1.0983   -0.6015    0.0000 O   0  0  0  0  0  0  0  0  0  0  0  0
    1.7553   -2.9760   -1.4982 C   0  0  0  0  0  0  0  0  0  0  0  0
    1.6603   -2.1446   -0.9533 H   0  0  0  0  0  0  0  0  0  0  0  0
    0.8625   -3.2535   -1.8485 H   0  0  0  0  0  0  0  0  0  0  0  0
    2.4206   -2.7765   -2.3382 H   0  0  0  0  0  0  0  0  0  0  0  0
    2.3070   -4.0828   -0.6172 C   0  0  0  0  0  0  0  0  0  0  0  0
    2.4768   -4.8883   -1.1778 H   0  0  0  0  0  0  0  0  0  0  0  0
    3.1543   -3.7710   -0.1972 H   0  0  0  0  0  0  0  0  0  0  0  0
    1.3310   -4.4631    0.4898 C   0  0  0  0  0  0  0  0  0  0  0  0
    1.1831   -3.6719    1.0758 H   0  0  0  0  0  0  0  0  0  0  0  0
    0.4704   -4.7486    0.0775 H   0  0  0  0  0  0  0  0  0  0  0  0
    1.7382   -5.2821    1.0828 H   0  0  0  0  0  0  0  0  0  0  0  0
  1  5  1  0
  5  6  1  0
  5  7  2  0
  1  2  1  0
  1  3  1  0
  1  4  1  0
  8 12  1  0
 12 15  1  0
  8  9  1  0
  8 10  1  0
  8 11  1  0
 12 13  1  0
 12 14  1  0
 15 16  1  0
 15 17  1  0
 15 18  1  0
M  CHG  1   6  -1
M  END
>  <PDB_ID>  (575) 
pdb2owo

>  <RESIDUE_NAME>  (575) 
ASP   LYS

>  <FRAG_NAME>  (575) 
ACET   PRPA

>  <FRAG_ATOM_NUM>  (575) 
fragi: 7  fragj: 11

>  <atom.prop.CHAIN_ID>  (575) 
A A A A A A A Z Z Z Z Z Z Z Z Z Z Z

>  <atom.prop.IS_HEAVY_ATOM>  (575) 
1 0 0 0 1 1 1 1 0 0 0 1 0 0 1 0 0 0

>  <DIFUSE_FUNC_ATOM>  (575) 
atom 6   atom 7   

>  <FINAL_SINGLE_POINT_ENERGY>  (575) 
0

>  <NONCOV_INTER_ENERGY_QM>  (575) 
0

>  <FF_Energy>  (575) 
13.69

>  <QM_Energy>  (575) 
-1.9

>  <source>  (575) 
ACET_PRPA_05

>  <Index>  (575) 
20770

$$$$
ACET-pdb1k6m-A-ASP-162:PRPA-pdb1k6m-A-ILE-165
     RDKit          3D

 18 16  0  0  0  0  0  0  0  0999 V2000
   -0.0085    1.5104   -0.0145 C   0  0  0  0  0  0  0  0  0  0  0  0
    0.8639    1.8417    0.3210 H   0  0  0  0  0  0  0  0  0  0  0  0
   -0.7520    1.8350    0.5538 H   0  0  0  0  0  0  0  0  0  0  0  0
   -0.1549    1.9096   -1.0181 H   0  0  0  0  0  0  0  0  0  0  0  0
    0.0000    0.0000    0.0000 C   0  0  0  0  0  0  0  0  0  0  0  0
   -1.1073   -0.5982    0.0000 O   0  0  0  0  0  1  0  0  0  0  0  0
    1.1073   -0.5874   -0.0000 O   0  0  0  0  0  0  0  0  0  0  0  0
   -4.2600    0.7290    1.7085 C   0  0  0  0  0  0  0  0  0  0  0  0
   -4.6043    0.1001    2.4146 H   0  0  0  0  0  0  0  0  0  0  0  0
   -3.8181    0.1108    0.9270 H   0  0  0  0  0  0  0  0  0  0  0  0
   -5.1265    1.2718    1.3311 H   0  0  0  0  0  0  0  0  0  0  0  0
   -3.2076    1.7026    2.2869 C   0  0  0  0  0  0  0  0  0  0  0  0
   -3.0191    2.3894    1.6050 H   0  0  0  0  0  0  0  0  0  0  0  0
   -3.5977    2.2010    3.1743 H   0  0  0  0  0  0  0  0  0  0  0  0
   -1.9035    0.9243    2.5516 C   0  0  0  0  0  0  0  0  0  0  0  0
   -2.1120   -0.0600    2.4807 H   0  0  0  0  0  0  0  0  0  0  0  0
   -1.2593    1.1458    1.8068 H   0  0  0  0  0  0  0  0  0  0  0  0
   -1.4159    1.1173    3.5071 H   0  0  0  0  0  0  0  0  0  0  0  0
  1  5  1  0
  5  6  1  0
  5  7  2  0
  1  2  1  0
  1  3  1  0
  1  4  1  0
  8 12  1  0
 12 15  1  0
  8  9  1  0
  8 10  1  0
  8 11  1  0
 12 13  1  0
 12 14  1  0
 15 16  1  0
 15 17  1  0
 15 18  1  0
M  CHG  1   6  -1
M  END
>  <PDB_ID>  (576) 
pdb1k6m

>  <RESIDUE_NAME>  (576) 
ASP   ILE

>  <FRAG_NAME>  (576) 
ACET   PRPA

>  <FRAG_ATOM_NUM>  (576) 
fragi: 7  fragj: 11

>  <atom.prop.CHAIN_ID>  (576) 
A A A A A A A Z Z Z Z Z Z Z Z Z Z Z

>  <atom.prop.IS_HEAVY_ATOM>  (576) 
1 0 0 0 1 1 1 1 0 0 0 1 0 0 1 0 0 0

>  <DIFUSE_FUNC_ATOM>  (576) 
atom 6   atom 7   

>  <FINAL_SINGLE_POINT_ENERGY>  (576) 
0

>  <NONCOV_INTER_ENERGY_QM>  (576) 
0

>  <FF_Energy>  (576) 
28.33

>  <QM_Energy>  (576) 
1.81

>  <source>  (576) 
ACET_PRPA_05

>  <Index>  (576) 
21514

$$$$
ACET-pdb1k6m-A-ASP-162:PRPA-pdb1k6m-A-ILE-165
     RDKit          3D

 18 16  0  0  0  0  0  0  0  0999 V2000
   -0.0085    1.5104   -0.0145 C   0  0  0  0  0  0  0  0  0  0  0  0
    0.8639    1.8417    0.3210 H   0  0  0  0  0  0  0  0  0  0  0  0
   -0.7520    1.8350    0.5538 H   0  0  0  0  0  0  0  0  0  0  0  0
   -0.1549    1.9096   -1.0181 H   0  0  0  0  0  0  0  0  0  0  0  0
    0.0000    0.0000    0.0000 C   0  0  0  0  0  0  0  0  0  0  0  0
   -1.1073   -0.5982    0.0000 O   0  0  0  0  0  1  0  0  0  0  0  0
    1.1073   -0.5874   -0.0000 O   0  0  0  0  0  0  0  0  0  0  0  0
   -3.2076    1.7026    2.2869 C   0  0  0  0  0  0  0  0  0  0  0  0
   -3.0191    2.3894    1.6050 H   0  0  0  0  0  0  0  0  0  0  0  0
   -3.9496    1.0161    1.8791 H   0  0  0  0  0  0  0  0  0  0  0  0
   -3.5977    2.2010    3.1743 H   0  0  0  0  0  0  0  0  0  0  0  0
   -1.9035    0.9243    2.5516 C   0  0  0  0  0  0  0  0  0  0  0  0
   -2.1120   -0.0600    2.4807 H   0  0  0  0  0  0  0  0  0  0  0  0
   -1.2593    1.1458    1.8068 H   0  0  0  0  0  0  0  0  0  0  0  0
   -1.2292    1.1911    3.8732 C   0  0  0  0  0  0  0  0  0  0  0  0
   -1.8501    0.9523    4.6194 H   0  0  0  0  0  0  0  0  0  0  0  0
   -0.3986    0.6393    3.9422 H   0  0  0  0  0  0  0  0  0  0  0  0
   -0.9905    2.1600    3.9366 H   0  0  0  0  0  0  0  0  0  0  0  0
  1  5  1  0
  5  6  1  0
  5  7  2  0
  1  2  1  0
  1  3  1  0
  1  4  1  0
  8 12  1  0
 12 15  1  0
  8  9  1  0
  8 10  1  0
  8 11  1  0
 12 13  1  0
 12 14  1  0
 15 16  1  0
 15 17  1  0
 15 18  1  0
M  CHG  1   6  -1
M  END
>  <PDB_ID>  (577) 
pdb1k6m

>  <RESIDUE_NAME>  (577) 
ASP   ILE

>  <FRAG_NAME>  (577) 
ACET   PRPA

>  <FRAG_ATOM_NUM>  (577) 
fragi: 7  fragj: 11

>  <atom.prop.CHAIN_ID>  (577) 
A A A A A A A Z Z Z Z Z Z Z Z Z Z Z

>  <atom.prop.IS_HEAVY_ATOM>  (577) 
1 0 0 0 1 1 1 1 0 0 0 1 0 0 1 0 0 0

>  <DIFUSE_FUNC_ATOM>  (577) 
atom 6   atom 7   

>  <FINAL_SINGLE_POINT_ENERGY>  (577) 
0

>  <NONCOV_INTER_ENERGY_QM>  (577) 
0

>  <FF_Energy>  (577) 
32.38

>  <QM_Energy>  (577) 
2.61

>  <source>  (577) 
ACET_PRPA_05

>  <Index>  (577) 
21521

$$$$
ACET-pdb1k6m-A-ASP-162:PRPA-pdb1k6m-A-ILE-165
     RDKit          3D

 18 16  0  0  0  0  0  0  0  0999 V2000
   -0.0085    1.5104   -0.0145 C   0  0  0  0  0  0  0  0  0  0  0  0
    0.8639    1.8417    0.3210 H   0  0  0  0  0  0  0  0  0  0  0  0
   -0.7520    1.8350    0.5538 H   0  0  0  0  0  0  0  0  0  0  0  0
   -0.1549    1.9096   -1.0181 H   0  0  0  0  0  0  0  0  0  0  0  0
    0.0000    0.0000    0.0000 C   0  0  0  0  0  0  0  0  0  0  0  0
   -1.1073   -0.5982    0.0000 O   0  0  0  0  0  1  0  0  0  0  0  0
    1.1073   -0.5874   -0.0000 O   0  0  0  0  0  0  0  0  0  0  0  0
   -1.9035    0.9243    2.5516 C   0  0  0  0  0  0  0  0  0  0  0  0
   -2.1120   -0.0600    2.4807 H   0  0  0  0  0  0  0  0  0  0  0  0
   -1.2593    1.1458    1.8068 H   0  0  0  0  0  0  0  0  0  0  0  0
   -1.4159    1.1173    3.5071 H   0  0  0  0  0  0  0  0  0  0  0  0
   -3.2076    1.7026    2.2869 C   0  0  0  0  0  0  0  0  0  0  0  0
   -3.0191    2.3894    1.6050 H   0  0  0  0  0  0  0  0  0  0  0  0
   -3.9496    1.0161    1.8791 H   0  0  0  0  0  0  0  0  0  0  0  0
   -3.7569    2.4044    3.5366 C   0  0  0  0  0  0  0  0  0  0  0  0
   -3.0787    3.0531    3.8721 H   0  0  0  0  0  0  0  0  0  0  0  0
   -4.5960    2.8863    3.2990 H   0  0  0  0  0  0  0  0  0  0  0  0
   -3.9475    1.7224    4.2375 H   0  0  0  0  0  0  0  0  0  0  0  0
  1  5  1  0
  5  6  1  0
  5  7  2  0
  1  2  1  0
  1  3  1  0
  1  4  1  0
  8 12  1  0
 12 15  1  0
  8  9  1  0
  8 10  1  0
  8 11  1  0
 12 13  1  0
 12 14  1  0
 15 16  1  0
 15 17  1  0
 15 18  1  0
M  CHG  1   6  -1
M  END
>  <PDB_ID>  (578) 
pdb1k6m

>  <RESIDUE_NAME>  (578) 
ASP   ILE

>  <FRAG_NAME>  (578) 
ACET   PRPA

>  <FRAG_ATOM_NUM>  (578) 
fragi: 7  fragj: 11

>  <atom.prop.CHAIN_ID>  (578) 
A A A A A A A Z Z Z Z Z Z Z Z Z Z Z

>  <atom.prop.IS_HEAVY_ATOM>  (578) 
1 0 0 0 1 1 1 1 0 0 0 1 0 0 1 0 0 0

>  <DIFUSE_FUNC_ATOM>  (578) 
atom 6   atom 7   

>  <FINAL_SINGLE_POINT_ENERGY>  (578) 
0

>  <NONCOV_INTER_ENERGY_QM>  (578) 
0

>  <FF_Energy>  (578) 
28.16

>  <QM_Energy>  (578) 
3.12

>  <source>  (578) 
ACET_PRPA_05

>  <Index>  (578) 
21529

$$$$
ACET-pdb1k6m-A-ASP-184:PRPA-pdb1k6m-A-LYS-187
     RDKit          3D

 18 16  0  0  0  0  0  0  0  0999 V2000
   -0.0114    1.5048   -0.0021 C   0  0  0  0  0  0  0  0  0  0  0  0
    0.8607    1.8329   -0.3450 H   0  0  0  0  0  0  0  0  0  0  0  0
   -0.1673    1.8278    0.9232 H   0  0  0  0  0  0  0  0  0  0  0  0
   -0.7993    1.9060   -0.6396 H   0  0  0  0  0  0  0  0  0  0  0  0
    0.0000    0.0000    0.0000 C   0  0  0  0  0  0  0  0  0  0  0  0
   -1.1102   -0.6038   -0.0000 O   0  0  0  0  0  1  0  0  0  0  0  0
    1.1102   -0.5800    0.0000 O   0  0  0  0  0  0  0  0  0  0  0  0
    0.2797    0.3351    4.1460 C   0  0  0  0  0  0  0  0  0  0  0  0
    0.5973   -0.2870    4.8612 H   0  0  0  0  0  0  0  0  0  0  0  0
   -0.8066    0.4123    4.1910 H   0  0  0  0  0  0  0  0  0  0  0  0
    0.7169    1.3176    4.3242 H   0  0  0  0  0  0  0  0  0  0  0  0
    0.6994   -0.2584    2.8041 C   0  0  0  0  0  0  0  0  0  0  0  0
    0.5119    0.4000    2.0938 H   0  0  0  0  0  0  0  0  0  0  0  0
    1.6597   -0.4857    2.8441 H   0  0  0  0  0  0  0  0  0  0  0  0
   -0.0807   -1.5420    2.4812 C   0  0  0  0  0  0  0  0  0  0  0  0
   -0.6374   -1.7860    3.2778 H   0  0  0  0  0  0  0  0  0  0  0  0
   -0.6824   -1.3638    1.7006 H   0  0  0  0  0  0  0  0  0  0  0  0
    0.5784   -2.3759    2.2396 H   0  0  0  0  0  0  0  0  0  0  0  0
  1  5  1  0
  5  6  1  0
  5  7  2  0
  1  2  1  0
  1  3  1  0
  1  4  1  0
  8 12  1  0
 12 15  1  0
  8  9  1  0
  8 10  1  0
  8 11  1  0
 12 13  1  0
 12 14  1  0
 15 16  1  0
 15 17  1  0
 15 18  1  0
M  CHG  1   6  -1
M  END
>  <PDB_ID>  (579) 
pdb1k6m

>  <RESIDUE_NAME>  (579) 
ASP   LYS

>  <FRAG_NAME>  (579) 
ACET   PRPA

>  <FRAG_ATOM_NUM>  (579) 
fragi: 7  fragj: 11

>  <atom.prop.CHAIN_ID>  (579) 
A A A A A A A Z Z Z Z Z Z Z Z Z Z Z

>  <atom.prop.IS_HEAVY_ATOM>  (579) 
1 0 0 0 1 1 1 1 0 0 0 1 0 0 1 0 0 0

>  <DIFUSE_FUNC_ATOM>  (579) 
atom 6   atom 7   

>  <FINAL_SINGLE_POINT_ENERGY>  (579) 
0

>  <NONCOV_INTER_ENERGY_QM>  (579) 
0

>  <FF_Energy>  (579) 
33.15

>  <QM_Energy>  (579) 
2.81

>  <source>  (579) 
ACET_PRPA_05

>  <Index>  (579) 
21811

$$$$
ACET-pdb1k6m-A-ASP-184:PRPA-pdb1k6m-A-LYS-187
     RDKit          3D

 18 16  0  0  0  0  0  0  0  0999 V2000
   -0.0114    1.5048   -0.0021 C   0  0  0  0  0  0  0  0  0  0  0  0
    0.8607    1.8329   -0.3450 H   0  0  0  0  0  0  0  0  0  0  0  0
   -0.1673    1.8278    0.9232 H   0  0  0  0  0  0  0  0  0  0  0  0
   -0.7993    1.9060   -0.6396 H   0  0  0  0  0  0  0  0  0  0  0  0
    0.0000    0.0000    0.0000 C   0  0  0  0  0  0  0  0  0  0  0  0
   -1.1102   -0.6038   -0.0000 O   0  0  0  0  0  1  0  0  0  0  0  0
    1.1102   -0.5800    0.0000 O   0  0  0  0  0  0  0  0  0  0  0  0
    0.6994   -0.2584    2.8041 C   0  0  0  0  0  0  0  0  0  0  0  0
    0.5119    0.4000    2.0938 H   0  0  0  0  0  0  0  0  0  0  0  0
    1.6597   -0.4857    2.8441 H   0  0  0  0  0  0  0  0  0  0  0  0
    0.3997    0.1655    3.7626 H   0  0  0  0  0  0  0  0  0  0  0  0
   -0.0807   -1.5420    2.4812 C   0  0  0  0  0  0  0  0  0  0  0  0
   -0.6374   -1.7860    3.2778 H   0  0  0  0  0  0  0  0  0  0  0  0
   -0.6824   -1.3638    1.7006 H   0  0  0  0  0  0  0  0  0  0  0  0
    0.8388   -2.7054    2.1441 C   0  0  0  0  0  0  0  0  0  0  0  0
    1.7479   -2.3528    1.9436 H   0  0  0  0  0  0  0  0  0  0  0  0
    0.8752   -3.3268    2.9209 H   0  0  0  0  0  0  0  0  0  0  0  0
    0.4894   -3.2639    1.2757 H   0  0  0  0  0  0  0  0  0  0  0  0
  1  5  1  0
  5  6  1  0
  5  7  2  0
  1  2  1  0
  1  3  1  0
  1  4  1  0
  8 12  1  0
 12 15  1  0
  8  9  1  0
  8 10  1  0
  8 11  1  0
 12 13  1  0
 12 14  1  0
 15 16  1  0
 15 17  1  0
 15 18  1  0
M  CHG  1   6  -1
M  END
>  <PDB_ID>  (580) 
pdb1k6m

>  <RESIDUE_NAME>  (580) 
ASP   LYS

>  <FRAG_NAME>  (580) 
ACET   PRPA

>  <FRAG_ATOM_NUM>  (580) 
fragi: 7  fragj: 11

>  <atom.prop.CHAIN_ID>  (580) 
A A A A A A A Z Z Z Z Z Z Z Z Z Z Z

>  <atom.prop.IS_HEAVY_ATOM>  (580) 
1 0 0 0 1 1 1 1 0 0 0 1 0 0 1 0 0 0

>  <DIFUSE_FUNC_ATOM>  (580) 
atom 6   atom 7   

>  <FINAL_SINGLE_POINT_ENERGY>  (580) 
0

>  <NONCOV_INTER_ENERGY_QM>  (580) 
0

>  <FF_Energy>  (580) 
36.44

>  <QM_Energy>  (580) 
1.76

>  <source>  (580) 
ACET_PRPA_05

>  <Index>  (580) 
21815

$$$$
ACET-pdb2p0s-A-GLU-81:PRPA-pdb2p0s-A-LYS-85
     RDKit          3D

 18 16  0  0  0  0  0  0  0  0999 V2000
    0.0316    1.5735    0.0563 C   0  0  0  0  0  0  0  0  0  0  0  0
    0.1712    1.8925   -0.8558 H   0  0  0  0  0  0  0  0  0  0  0  0
    0.7487    1.8256    0.6686 H   0  0  0  0  0  0  0  0  0  0  0  0
   -0.8885    2.0283    0.4234 H   0  0  0  0  0  0  0  0  0  0  0  0
    0.0000    0.0000    0.0000 C   0  0  0  0  0  0  0  0  0  0  0  0
   -1.0946   -0.6100   -0.0000 O   0  0  0  0  0  1  0  0  0  0  0  0
    1.0946   -0.6263    0.0000 O   0  0  0  0  0  0  0  0  0  0  0  0
    2.9323   -0.3820    2.6617 C   0  0  0  0  0  0  0  0  0  0  0  0
    3.1483   -1.2657    2.2888 H   0  0  0  0  0  0  0  0  0  0  0  0
    1.9680   -0.1945    2.6421 H   0  0  0  0  0  0  0  0  0  0  0  0
    3.2584   -0.3667    3.7017 H   0  0  0  0  0  0  0  0  0  0  0  0
    3.6818    0.7275    1.8008 C   0  0  0  0  0  0  0  0  0  0  0  0
    3.2120    1.5997    1.9487 H   0  0  0  0  0  0  0  0  0  0  0  0
    4.6214    0.7977    2.1405 H   0  0  0  0  0  0  0  0  0  0  0  0
    3.7514    0.4752    0.2358 C   0  0  0  0  0  0  0  0  0  0  0  0
    2.8965   -0.0284   -0.0340 H   0  0  0  0  0  0  0  0  0  0  0  0
    3.6811    1.3904   -0.2277 H   0  0  0  0  0  0  0  0  0  0  0  0
    4.6003   -0.0532   -0.1982 H   0  0  0  0  0  0  0  0  0  0  0  0
  1  5  1  0
  5  6  1  0
  5  7  2  0
  1  2  1  0
  1  3  1  0
  1  4  1  0
  8 12  1  0
 12 15  1  0
  8  9  1  0
  8 10  1  0
  8 11  1  0
 12 13  1  0
 12 14  1  0
 15 16  1  0
 15 17  1  0
 15 18  1  0
M  CHG  1   6  -1
M  END
>  <PDB_ID>  (581) 
pdb2p0s

>  <RESIDUE_NAME>  (581) 
GLU   LYS

>  <FRAG_NAME>  (581) 
ACET   PRPA

>  <FRAG_ATOM_NUM>  (581) 
fragi: 7  fragj: 11

>  <atom.prop.CHAIN_ID>  (581) 
A A A A A A A Z Z Z Z Z Z Z Z Z Z Z

>  <atom.prop.IS_HEAVY_ATOM>  (581) 
1 0 0 0 1 1 1 1 0 0 0 1 0 0 1 0 0 0

>  <DIFUSE_FUNC_ATOM>  (581) 
atom 6   atom 7   

>  <FINAL_SINGLE_POINT_ENERGY>  (581) 
0

>  <NONCOV_INTER_ENERGY_QM>  (581) 
0

>  <FF_Energy>  (581) 
13.79

>  <QM_Energy>  (581) 
-2.05

>  <source>  (581) 
ACET_PRPA_05

>  <Index>  (581) 
21818

$$$$
ACET-pdb1k6m-A-ASP-184:PRPA-pdb1k6m-A-LYS-187
     RDKit          3D

 18 16  0  0  0  0  0  0  0  0999 V2000
   -0.0114    1.5048   -0.0021 C   0  0  0  0  0  0  0  0  0  0  0  0
    0.8607    1.8329   -0.3450 H   0  0  0  0  0  0  0  0  0  0  0  0
   -0.1673    1.8278    0.9232 H   0  0  0  0  0  0  0  0  0  0  0  0
   -0.7993    1.9060   -0.6396 H   0  0  0  0  0  0  0  0  0  0  0  0
    0.0000    0.0000    0.0000 C   0  0  0  0  0  0  0  0  0  0  0  0
   -1.1102   -0.6038   -0.0000 O   0  0  0  0  0  1  0  0  0  0  0  0
    1.1102   -0.5800    0.0000 O   0  0  0  0  0  0  0  0  0  0  0  0
   -0.0807   -1.5420    2.4812 C   0  0  0  0  0  0  0  0  0  0  0  0
   -0.6374   -1.7860    3.2778 H   0  0  0  0  0  0  0  0  0  0  0  0
   -0.6824   -1.3638    1.7006 H   0  0  0  0  0  0  0  0  0  0  0  0
    0.4728   -0.6313    2.7103 H   0  0  0  0  0  0  0  0  0  0  0  0
    0.8388   -2.7054    2.1441 C   0  0  0  0  0  0  0  0  0  0  0  0
    1.7479   -2.3528    1.9436 H   0  0  0  0  0  0  0  0  0  0  0  0
    0.8752   -3.3268    2.9209 H   0  0  0  0  0  0  0  0  0  0  0  0
    0.3479   -3.4902    0.9238 C   0  0  0  0  0  0  0  0  0  0  0  0
    0.0652   -4.4051    1.2192 H   0  0  0  0  0  0  0  0  0  0  0  0
   -0.4422   -3.0155    0.5292 H   0  0  0  0  0  0  0  0  0  0  0  0
    1.1177   -3.5894    0.1585 H   0  0  0  0  0  0  0  0  0  0  0  0
  1  5  1  0
  5  6  1  0
  5  7  2  0
  1  2  1  0
  1  3  1  0
  1  4  1  0
  8 12  1  0
 12 15  1  0
  8  9  1  0
  8 10  1  0
  8 11  1  0
 12 13  1  0
 12 14  1  0
 15 16  1  0
 15 17  1  0
 15 18  1  0
M  CHG  1   6  -1
M  END
>  <PDB_ID>  (582) 
pdb1k6m

>  <RESIDUE_NAME>  (582) 
ASP   LYS

>  <FRAG_NAME>  (582) 
ACET   PRPA

>  <FRAG_ATOM_NUM>  (582) 
fragi: 7  fragj: 11

>  <atom.prop.CHAIN_ID>  (582) 
A A A A A A A Z Z Z Z Z Z Z Z Z Z Z

>  <atom.prop.IS_HEAVY_ATOM>  (582) 
1 0 0 0 1 1 1 1 0 0 0 1 0 0 1 0 0 0

>  <DIFUSE_FUNC_ATOM>  (582) 
atom 6   atom 7   

>  <FINAL_SINGLE_POINT_ENERGY>  (582) 
0

>  <NONCOV_INTER_ENERGY_QM>  (582) 
0

>  <FF_Energy>  (582) 
22.09

>  <QM_Energy>  (582) 
-1.3

>  <source>  (582) 
ACET_PRPA_05

>  <Index>  (582) 
21820

$$$$
ACET-pdb1k1x-A-ASP-434:PRPA-pdb1k1x-A-ARG-370
     RDKit          3D

 18 16  0  0  0  0  0  0  0  0999 V2000
    0.0084    1.5208    0.0033 C   0  0  0  0  0  0  0  0  0  0  0  0
    0.5647    1.8375   -0.7547 H   0  0  0  0  0  0  0  0  0  0  0  0
    0.3797    1.8358    0.8669 H   0  0  0  0  0  0  0  0  0  0  0  0
   -0.9889    1.9458   -0.1099 H   0  0  0  0  0  0  0  0  0  0  0  0
    0.0000    0.0000    0.0000 C   0  0  0  0  0  0  0  0  0  0  0  0
   -1.0984   -0.5955    0.0000 O   0  0  0  0  0  1  0  0  0  0  0  0
    1.0984   -0.6000   -0.0000 O   0  0  0  0  0  0  0  0  0  0  0  0
   -0.1350   -4.0325    1.0493 C   0  0  0  0  0  0  0  0  0  0  0  0
   -0.3928   -4.3676    1.9550 H   0  0  0  0  0  0  0  0  0  0  0  0
    0.1723   -3.0837    1.1209 H   0  0  0  0  0  0  0  0  0  0  0  0
    0.7013   -4.6333    0.6917 H   0  0  0  0  0  0  0  0  0  0  0  0
   -1.3563   -4.0687    0.1663 C   0  0  0  0  0  0  0  0  0  0  0  0
   -1.1090   -3.8167   -0.7613 H   0  0  0  0  0  0  0  0  0  0  0  0
   -1.7604   -4.9745    0.1886 H   0  0  0  0  0  0  0  0  0  0  0  0
   -2.3858   -3.0783    0.6680 C   0  0  0  0  0  0  0  0  0  0  0  0
   -1.9859   -2.1722    0.6357 H   0  0  0  0  0  0  0  0  0  0  0  0
   -3.1818   -3.1370    0.0817 H   0  0  0  0  0  0  0  0  0  0  0  0
   -2.6670   -3.3184    1.6933 H   0  0  0  0  0  0  0  0  0  0  0  0
  1  5  1  0
  5  6  1  0
  5  7  2  0
  1  2  1  0
  1  3  1  0
  1  4  1  0
  8 12  1  0
 12 15  1  0
  8  9  1  0
  8 10  1  0
  8 11  1  0
 12 13  1  0
 12 14  1  0
 15 16  1  0
 15 17  1  0
 15 18  1  0
M  CHG  1   6  -1
M  END
>  <PDB_ID>  (583) 
pdb1k1x

>  <RESIDUE_NAME>  (583) 
ASP   ARG

>  <FRAG_NAME>  (583) 
ACET   PRPA

>  <FRAG_ATOM_NUM>  (583) 
fragi: 7  fragj: 11

>  <atom.prop.CHAIN_ID>  (583) 
A A A A A A A Z Z Z Z Z Z Z Z Z Z Z

>  <atom.prop.IS_HEAVY_ATOM>  (583) 
1 0 0 0 1 1 1 1 0 0 0 1 0 0 1 0 0 0

>  <DIFUSE_FUNC_ATOM>  (583) 
atom 6   atom 7   

>  <FINAL_SINGLE_POINT_ENERGY>  (583) 
0

>  <NONCOV_INTER_ENERGY_QM>  (583) 
0

>  <FF_Energy>  (583) 
12.06

>  <QM_Energy>  (583) 
-3.73

>  <source>  (583) 
ACET_PRPA_05

>  <Index>  (583) 
23179

$$$$
ACET-pdb1k3f-E-ASP-4027:PRPA-pdb1k3f-C-ARG-2048
     RDKit          3D

 18 16  0  0  0  0  0  0  0  0999 V2000
    0.0245    1.5469   -0.0643 C   0  0  0  0  0  0  0  0  0  0  0  0
   -0.0111    1.8174   -1.0189 H   0  0  0  0  0  0  0  0  0  0  0  0
    0.8651    1.8614    0.3583 H   0  0  0  0  0  0  0  0  0  0  0  0
   -0.8111    2.0195    0.4519 H   0  0  0  0  0  0  0  0  0  0  0  0
    0.0000    0.0000    0.0000 C   0  0  0  0  0  0  0  0  0  0  0  0
   -1.0954   -0.6106   -0.0000 O   0  0  0  0  0  1  0  0  0  0  0  0
    1.0954   -0.6224   -0.0000 O   0  0  0  0  0  0  0  0  0  0  0  0
   -2.4490   -4.0084   -1.4088 C   0  0  0  0  0  0  0  0  0  0  0  0
   -2.6544   -3.8671   -2.3737 H   0  0  0  0  0  0  0  0  0  0  0  0
   -2.8352   -3.2662   -0.8667 H   0  0  0  0  0  0  0  0  0  0  0  0
   -2.9373   -4.9325   -1.0993 H   0  0  0  0  0  0  0  0  0  0  0  0
   -0.9395   -3.9947   -1.2316 C   0  0  0  0  0  0  0  0  0  0  0  0
   -0.7235   -4.1334   -0.2664 H   0  0  0  0  0  0  0  0  0  0  0  0
   -0.5417   -4.7335   -1.7741 H   0  0  0  0  0  0  0  0  0  0  0  0
   -0.3533   -2.6993   -1.6787 C   0  0  0  0  0  0  0  0  0  0  0  0
   -0.5698   -2.5616   -2.6440 H   0  0  0  0  0  0  0  0  0  0  0  0
   -0.7522   -1.9613   -1.1356 H   0  0  0  0  0  0  0  0  0  0  0  0
    0.7295   -2.6811   -1.5551 H   0  0  0  0  0  0  0  0  0  0  0  0
  1  5  1  0
  5  6  1  0
  5  7  2  0
  1  2  1  0
  1  3  1  0
  1  4  1  0
  8 12  1  0
 12 15  1  0
  8  9  1  0
  8 10  1  0
  8 11  1  0
 12 13  1  0
 12 14  1  0
 15 16  1  0
 15 17  1  0
 15 18  1  0
M  CHG  1   6  -1
M  END
>  <PDB_ID>  (584) 
pdb1k3f

>  <RESIDUE_NAME>  (584) 
ASP   ARG

>  <FRAG_NAME>  (584) 
ACET   PRPA

>  <FRAG_ATOM_NUM>  (584) 
fragi: 7  fragj: 11

>  <atom.prop.CHAIN_ID>  (584) 
A A A A A A A Z Z Z Z Z Z Z Z Z Z Z

>  <atom.prop.IS_HEAVY_ATOM>  (584) 
1 0 0 0 1 1 1 1 0 0 0 1 0 0 1 0 0 0

>  <DIFUSE_FUNC_ATOM>  (584) 
atom 6   atom 7   

>  <FINAL_SINGLE_POINT_ENERGY>  (584) 
0

>  <NONCOV_INTER_ENERGY_QM>  (584) 
0

>  <FF_Energy>  (584) 
30.75

>  <QM_Energy>  (584) 
0.97

>  <source>  (584) 
ACET_PRPA_05

>  <Index>  (584) 
23553

$$$$
ACET-pdb1kjm-A-GLU-53:PRPA-pdb1kjm-A-ARG-50
     RDKit          3D

 18 16  0  0  0  0  0  0  0  0999 V2000
    0.0046    1.5116    0.0156 C   0  0  0  0  0  0  0  0  0  0  0  0
   -0.0820    1.8207   -0.9124 H   0  0  0  0  0  0  0  0  0  0  0  0
    0.8451    1.8027    0.4316 H   0  0  0  0  0  0  0  0  0  0  0  0
   -0.8247    1.9219    0.5918 H   0  0  0  0  0  0  0  0  0  0  0  0
    0.0000    0.0000    0.0000 C   0  0  0  0  0  0  0  0  0  0  0  0
   -1.0961   -0.5882   -0.0000 O   0  0  0  0  0  1  0  0  0  0  0  0
    1.0961   -0.5971    0.0000 O   0  0  0  0  0  0  0  0  0  0  0  0
    2.5673   -1.7931    2.1151 C   0  0  0  0  0  0  0  0  0  0  0  0
    2.1563   -1.5074    1.2388 H   0  0  0  0  0  0  0  0  0  0  0  0
    3.6506   -1.6944    2.0461 H   0  0  0  0  0  0  0  0  0  0  0  0
    2.1618   -1.1648    2.9082 H   0  0  0  0  0  0  0  0  0  0  0  0
    2.1640   -3.2426    2.3810 C   0  0  0  0  0  0  0  0  0  0  0  0
    2.3807   -3.4581    3.3347 H   0  0  0  0  0  0  0  0  0  0  0  0
    1.1762   -3.3234    2.2420 H   0  0  0  0  0  0  0  0  0  0  0  0
    2.8460   -4.2811    1.5004 C   0  0  0  0  0  0  0  0  0  0  0  0
    2.1808   -4.9862    1.2366 H   0  0  0  0  0  0  0  0  0  0  0  0
    3.1926   -3.8381    0.6675 H   0  0  0  0  0  0  0  0  0  0  0  0
    3.6862   -4.7829    1.9802 H   0  0  0  0  0  0  0  0  0  0  0  0
  1  5  1  0
  5  6  1  0
  5  7  2  0
  1  2  1  0
  1  3  1  0
  1  4  1  0
  8 12  1  0
 12 15  1  0
  8  9  1  0
  8 10  1  0
  8 11  1  0
 12 13  1  0
 12 14  1  0
 15 16  1  0
 15 17  1  0
 15 18  1  0
M  CHG  1   6  -1
M  END
>  <PDB_ID>  (585) 
pdb1kjm

>  <RESIDUE_NAME>  (585) 
GLU   ARG

>  <FRAG_NAME>  (585) 
ACET   PRPA

>  <FRAG_ATOM_NUM>  (585) 
fragi: 7  fragj: 11

>  <atom.prop.CHAIN_ID>  (585) 
A A A A A A A Z Z Z Z Z Z Z Z Z Z Z

>  <atom.prop.IS_HEAVY_ATOM>  (585) 
1 0 0 0 1 1 1 1 0 0 0 1 0 0 1 0 0 0

>  <DIFUSE_FUNC_ATOM>  (585) 
atom 6   atom 7   

>  <FINAL_SINGLE_POINT_ENERGY>  (585) 
0

>  <NONCOV_INTER_ENERGY_QM>  (585) 
0

>  <FF_Energy>  (585) 
17.11

>  <QM_Energy>  (585) 
-1.4

>  <source>  (585) 
ACET_PRPA_05

>  <Index>  (585) 
23656

$$$$
ACET-pdb2oga-C-GLU-302:PRPA-pdb2oga-C-ARG-299
     RDKit          3D

 18 16  0  0  0  0  0  0  0  0999 V2000
    0.2420    1.4823    0.0307 C   0  0  0  0  0  0  0  0  0  0  0  0
   -0.2865    1.8969   -0.6841 H   0  0  0  0  0  0  0  0  0  0  0  0
    1.2043    1.6404   -0.0733 H   0  0  0  0  0  0  0  0  0  0  0  0
   -0.0664    1.9376    0.9718 H   0  0  0  0  0  0  0  0  0  0  0  0
    0.0000    0.0000    0.0000 C   0  0  0  0  0  0  0  0  0  0  0  0
   -1.1104   -0.5014   -0.0000 O   0  0  0  0  0  1  0  0  0  0  0  0
    1.1104   -0.6920    0.0000 O   0  0  0  0  0  0  0  0  0  0  0  0
    0.8985   -1.7465    2.9992 C   0  0  0  0  0  0  0  0  0  0  0  0
    0.8639   -2.3282    2.1711 H   0  0  0  0  0  0  0  0  0  0  0  0
    0.6998   -2.3393    3.7948 H   0  0  0  0  0  0  0  0  0  0  0  0
    1.9202   -1.3816    3.1047 H   0  0  0  0  0  0  0  0  0  0  0  0
   -0.2265   -0.7213    2.8935 C   0  0  0  0  0  0  0  0  0  0  0  0
   -0.2711   -0.1886    3.7455 H   0  0  0  0  0  0  0  0  0  0  0  0
   -0.0315   -0.0925    2.1336 H   0  0  0  0  0  0  0  0  0  0  0  0
   -1.6029   -1.3349    2.6506 C   0  0  0  0  0  0  0  0  0  0  0  0
   -1.9773   -1.6073    3.5360 H   0  0  0  0  0  0  0  0  0  0  0  0
   -2.1841   -0.6304    2.2438 H   0  0  0  0  0  0  0  0  0  0  0  0
   -1.5691   -2.2018    1.9907 H   0  0  0  0  0  0  0  0  0  0  0  0
  1  5  1  0
  5  6  1  0
  5  7  2  0
  1  2  1  0
  1  3  1  0
  1  4  1  0
  8 12  1  0
 12 15  1  0
  8  9  1  0
  8 10  1  0
  8 11  1  0
 12 13  1  0
 12 14  1  0
 15 16  1  0
 15 17  1  0
 15 18  1  0
M  CHG  1   6  -1
M  END
>  <PDB_ID>  (586) 
pdb2oga

>  <RESIDUE_NAME>  (586) 
GLU   ARG

>  <FRAG_NAME>  (586) 
ACET   PRPA

>  <FRAG_ATOM_NUM>  (586) 
fragi: 7  fragj: 11

>  <atom.prop.CHAIN_ID>  (586) 
A A A A A A A Z Z Z Z Z Z Z Z Z Z Z

>  <atom.prop.IS_HEAVY_ATOM>  (586) 
1 0 0 0 1 1 1 1 0 0 0 1 0 0 1 0 0 0

>  <DIFUSE_FUNC_ATOM>  (586) 
atom 6   atom 7   

>  <FINAL_SINGLE_POINT_ENERGY>  (586) 
0

>  <NONCOV_INTER_ENERGY_QM>  (586) 
0

>  <FF_Energy>  (586) 
15.38

>  <QM_Energy>  (586) 
-1.13

>  <source>  (586) 
ACET_PRPA_05

>  <Index>  (586) 
23742

$$$$
ACET-pdb2obe-B-GLU-145:PRPA-pdb2obe-B-LYS-137
     RDKit          3D

 18 16  0  0  0  0  0  0  0  0999 V2000
    0.0327    1.5124   -0.0091 C   0  0  0  0  0  0  0  0  0  0  0  0
   -0.7414    1.8294    0.4949 H   0  0  0  0  0  0  0  0  0  0  0  0
    0.0333    1.8036   -0.9418 H   0  0  0  0  0  0  0  0  0  0  0  0
    0.9357    1.8882    0.4720 H   0  0  0  0  0  0  0  0  0  0  0  0
    0.0000    0.0000    0.0000 C   0  0  0  0  0  0  0  0  0  0  0  0
   -1.0983   -0.6072    0.0000 O   0  0  0  0  0  1  0  0  0  0  0  0
    1.0983   -0.5924   -0.0000 O   0  0  0  0  0  0  0  0  0  0  0  0
    4.6298    0.2146   -1.1597 C   0  0  0  0  0  0  0  0  0  0  0  0
    5.5180   -0.1662   -0.9036 H   0  0  0  0  0  0  0  0  0  0  0  0
    4.4281    1.0040   -0.5791 H   0  0  0  0  0  0  0  0  0  0  0  0
    4.6934    0.5608   -2.1913 H   0  0  0  0  0  0  0  0  0  0  0  0
    3.5666   -0.8460   -0.9100 C   0  0  0  0  0  0  0  0  0  0  0  0
    2.6712   -0.4731   -1.1579 H   0  0  0  0  0  0  0  0  0  0  0  0
    3.7618   -1.6440   -1.4820 H   0  0  0  0  0  0  0  0  0  0  0  0
    3.5349   -1.2785    0.5445 C   0  0  0  0  0  0  0  0  0  0  0  0
    4.4327   -1.6482    0.7889 H   0  0  0  0  0  0  0  0  0  0  0  0
    3.3411   -0.4780    1.1137 H   0  0  0  0  0  0  0  0  0  0  0  0
    2.7784   -2.0383    0.7409 H   0  0  0  0  0  0  0  0  0  0  0  0
  1  5  1  0
  5  6  1  0
  5  7  2  0
  1  2  1  0
  1  3  1  0
  1  4  1  0
  8 12  1  0
 12 15  1  0
  8  9  1  0
  8 10  1  0
  8 11  1  0
 12 13  1  0
 12 14  1  0
 15 16  1  0
 15 17  1  0
 15 18  1  0
M  CHG  1   6  -1
M  END
>  <PDB_ID>  (587) 
pdb2obe

>  <RESIDUE_NAME>  (587) 
GLU   LYS

>  <FRAG_NAME>  (587) 
ACET   PRPA

>  <FRAG_ATOM_NUM>  (587) 
fragi: 7  fragj: 11

>  <atom.prop.CHAIN_ID>  (587) 
A A A A A A A Z Z Z Z Z Z Z Z Z Z Z

>  <atom.prop.IS_HEAVY_ATOM>  (587) 
1 0 0 0 1 1 1 1 0 0 0 1 0 0 1 0 0 0

>  <DIFUSE_FUNC_ATOM>  (587) 
atom 6   atom 7   

>  <FINAL_SINGLE_POINT_ENERGY>  (587) 
0

>  <NONCOV_INTER_ENERGY_QM>  (587) 
0

>  <FF_Energy>  (587) 
21.63

>  <QM_Energy>  (587) 
2.56

>  <source>  (587) 
ACET_PRPA_05

>  <Index>  (587) 
24492

$$$$
ACET-pdb1kfu-L-ASP-156:PRPA-pdb1kfu-L-ARG-77
     RDKit          3D

 18 16  0  0  0  0  0  0  0  0999 V2000
   -0.0278    1.4988   -0.0076 C   0  0  0  0  0  0  0  0  0  0  0  0
   -0.5609    1.8220    0.7706 H   0  0  0  0  0  0  0  0  0  0  0  0
   -0.4376    1.8165   -0.8574 H   0  0  0  0  0  0  0  0  0  0  0  0
    0.9640    1.9448    0.0658 H   0  0  0  0  0  0  0  0  0  0  0  0
    0.0000    0.0000    0.0000 C   0  0  0  0  0  0  0  0  0  0  0  0
   -1.1036   -0.5838    0.0000 O   0  0  0  0  0  1  0  0  0  0  0  0
    1.1036   -0.5941    0.0000 O   0  0  0  0  0  0  0  0  0  0  0  0
    0.4931   -1.4835    3.4080 C   0  0  0  0  0  0  0  0  0  0  0  0
    0.0511   -2.3122    3.7617 H   0  0  0  0  0  0  0  0  0  0  0  0
    0.0340   -1.2096    2.5589 H   0  0  0  0  0  0  0  0  0  0  0  0
    0.3455   -0.6887    4.1392 H   0  0  0  0  0  0  0  0  0  0  0  0
    1.9249   -1.8101    3.0871 C   0  0  0  0  0  0  0  0  0  0  0  0
    2.4621   -0.9746    3.0615 H   0  0  0  0  0  0  0  0  0  0  0  0
    2.2879   -2.4342    3.7698 H   0  0  0  0  0  0  0  0  0  0  0  0
    2.0121   -2.4745    1.7420 C   0  0  0  0  0  0  0  0  0  0  0  0
    1.5091   -3.3314    1.7779 H   0  0  0  0  0  0  0  0  0  0  0  0
    1.6120   -1.8674    1.0628 H   0  0  0  0  0  0  0  0  0  0  0  0
    3.0478   -2.6802    1.4716 H   0  0  0  0  0  0  0  0  0  0  0  0
  1  5  1  0
  5  6  1  0
  5  7  2  0
  1  2  1  0
  1  3  1  0
  1  4  1  0
  8 12  1  0
 12 15  1  0
  8  9  1  0
  8 10  1  0
  8 11  1  0
 12 13  1  0
 12 14  1  0
 15 16  1  0
 15 17  1  0
 15 18  1  0
M  CHG  1   6  -1
M  END
>  <PDB_ID>  (588) 
pdb1kfu

>  <RESIDUE_NAME>  (588) 
ASP   ARG

>  <FRAG_NAME>  (588) 
ACET   PRPA

>  <FRAG_ATOM_NUM>  (588) 
fragi: 7  fragj: 11

>  <atom.prop.CHAIN_ID>  (588) 
A A A A A A A Z Z Z Z Z Z Z Z Z Z Z

>  <atom.prop.IS_HEAVY_ATOM>  (588) 
1 0 0 0 1 1 1 1 0 0 0 1 0 0 1 0 0 0

>  <DIFUSE_FUNC_ATOM>  (588) 
atom 6   atom 7   

>  <FINAL_SINGLE_POINT_ENERGY>  (588) 
0

>  <NONCOV_INTER_ENERGY_QM>  (588) 
0

>  <FF_Energy>  (588) 
43.69

>  <QM_Energy>  (588) 
-0.03

>  <source>  (588) 
ACET_PRPA_05

>  <Index>  (588) 
24746

$$$$
ACET-pdb1klt-A-GLU-84:PRPA-pdb1klt-A-LYS-109
     RDKit          3D

 18 16  0  0  0  0  0  0  0  0999 V2000
    0.0105    1.5283    0.0183 C   0  0  0  0  0  0  0  0  0  0  0  0
    0.9350    1.8111    0.1838 H   0  0  0  0  0  0  0  0  0  0  0  0
   -0.6043    1.8138    0.7262 H   0  0  0  0  0  0  0  0  0  0  0  0
   -0.3206    1.9569   -0.9277 H   0  0  0  0  0  0  0  0  0  0  0  0
    0.0000    0.0000    0.0000 C   0  0  0  0  0  0  0  0  0  0  0  0
   -1.1086   -0.5987   -0.0000 O   0  0  0  0  0  1  0  0  0  0  0  0
    1.1086   -0.5892    0.0000 O   0  0  0  0  0  0  0  0  0  0  0  0
   -0.0058    0.6216   -4.1334 C   0  0  0  0  0  0  0  0  0  0  0  0
    0.6449    0.7309   -4.8870 H   0  0  0  0  0  0  0  0  0  0  0  0
   -0.5980    1.4272   -4.0880 H   0  0  0  0  0  0  0  0  0  0  0  0
   -0.6189   -0.2603   -4.3192 H   0  0  0  0  0  0  0  0  0  0  0  0
    0.7648    0.5036   -2.8323 C   0  0  0  0  0  0  0  0  0  0  0  0
    0.1121    0.3924   -2.0810 H   0  0  0  0  0  0  0  0  0  0  0  0
    1.3559   -0.3034   -2.8791 H   0  0  0  0  0  0  0  0  0  0  0  0
    1.6238    1.7161   -2.5507 C   0  0  0  0  0  0  0  0  0  0  0  0
    2.2823    1.8310   -3.2957 H   0  0  0  0  0  0  0  0  0  0  0  0
    1.0391    2.5264   -2.4971 H   0  0  0  0  0  0  0  0  0  0  0  0
    2.1621    1.5985   -1.6102 H   0  0  0  0  0  0  0  0  0  0  0  0
  1  5  1  0
  5  6  1  0
  5  7  2  0
  1  2  1  0
  1  3  1  0
  1  4  1  0
  8 12  1  0
 12 15  1  0
  8  9  1  0
  8 10  1  0
  8 11  1  0
 12 13  1  0
 12 14  1  0
 15 16  1  0
 15 17  1  0
 15 18  1  0
M  CHG  1   6  -1
M  END
>  <PDB_ID>  (589) 
pdb1klt

>  <RESIDUE_NAME>  (589) 
GLU   LYS

>  <FRAG_NAME>  (589) 
ACET   PRPA

>  <FRAG_ATOM_NUM>  (589) 
fragi: 7  fragj: 11

>  <atom.prop.CHAIN_ID>  (589) 
A A A A A A A Z Z Z Z Z Z Z Z Z Z Z

>  <atom.prop.IS_HEAVY_ATOM>  (589) 
1 0 0 0 1 1 1 1 0 0 0 1 0 0 1 0 0 0

>  <DIFUSE_FUNC_ATOM>  (589) 
atom 6   atom 7   

>  <FINAL_SINGLE_POINT_ENERGY>  (589) 
0

>  <NONCOV_INTER_ENERGY_QM>  (589) 
0

>  <FF_Energy>  (589) 
18.63

>  <QM_Energy>  (589) 
1.63

>  <source>  (589) 
ACET_PRPA_05

>  <Index>  (589) 
24860

$$$$
ACET-pdb1kkh-A-GLU-140:PRPA-pdb1kkh-A-LYS-137
     RDKit          3D

 18 16  0  0  0  0  0  0  0  0999 V2000
   -0.0365    1.5414    0.0299 C   0  0  0  0  0  0  0  0  0  0  0  0
   -0.8455    1.8195   -0.4426 H   0  0  0  0  0  0  0  0  0  0  0  0
    0.7859    1.8563   -0.3954 H   0  0  0  0  0  0  0  0  0  0  0  0
   -0.0759    1.9350    1.0457 H   0  0  0  0  0  0  0  0  0  0  0  0
    0.0000    0.0000    0.0000 C   0  0  0  0  0  0  0  0  0  0  0  0
   -1.0947   -0.5804   -0.0000 O   0  0  0  0  0  1  0  0  0  0  0  0
    1.0947   -0.6293   -0.0000 O   0  0  0  0  0  0  0  0  0  0  0  0
   -3.1085   -0.8670   -3.0866 C   0  0  0  0  0  0  0  0  0  0  0  0
   -3.6086   -1.5761   -2.5976 H   0  0  0  0  0  0  0  0  0  0  0  0
   -3.2385   -0.9694   -4.0681 H   0  0  0  0  0  0  0  0  0  0  0  0
   -3.4789    0.1099   -2.7761 H   0  0  0  0  0  0  0  0  0  0  0  0
   -1.6008   -1.0274   -2.7734 C   0  0  0  0  0  0  0  0  0  0  0  0
   -1.0945   -0.3580   -3.3221 H   0  0  0  0  0  0  0  0  0  0  0  0
   -1.4599   -0.8295   -1.8007 H   0  0  0  0  0  0  0  0  0  0  0  0
   -1.0403   -2.4236   -3.0716 C   0  0  0  0  0  0  0  0  0  0  0  0
   -1.4630   -3.0768   -2.4557 H   0  0  0  0  0  0  0  0  0  0  0  0
   -1.2394   -2.6538   -4.0169 H   0  0  0  0  0  0  0  0  0  0  0  0
    0.0388   -2.4264   -2.9177 H   0  0  0  0  0  0  0  0  0  0  0  0
  1  5  1  0
  5  6  1  0
  5  7  2  0
  1  2  1  0
  1  3  1  0
  1  4  1  0
  8 12  1  0
 12 15  1  0
  8  9  1  0
  8 10  1  0
  8 11  1  0
 12 13  1  0
 12 14  1  0
 15 16  1  0
 15 17  1  0
 15 18  1  0
M  CHG  1   6  -1
M  END
>  <PDB_ID>  (590) 
pdb1kkh

>  <RESIDUE_NAME>  (590) 
GLU   LYS

>  <FRAG_NAME>  (590) 
ACET   PRPA

>  <FRAG_ATOM_NUM>  (590) 
fragi: 7  fragj: 11

>  <atom.prop.CHAIN_ID>  (590) 
A A A A A A A Z Z Z Z Z Z Z Z Z Z Z

>  <atom.prop.IS_HEAVY_ATOM>  (590) 
1 0 0 0 1 1 1 1 0 0 0 1 0 0 1 0 0 0

>  <DIFUSE_FUNC_ATOM>  (590) 
atom 6   atom 7   

>  <FINAL_SINGLE_POINT_ENERGY>  (590) 
0

>  <NONCOV_INTER_ENERGY_QM>  (590) 
0

>  <FF_Energy>  (590) 
22.38

>  <QM_Energy>  (590) 
-0.81

>  <source>  (590) 
ACET_PRPA_05

>  <Index>  (590) 
25206

$$$$
ACET-pdb1kkh-A-GLU-140:PRPA-pdb1kkh-A-LYS-137
     RDKit          3D

 18 16  0  0  0  0  0  0  0  0999 V2000
   -0.0365    1.5414    0.0299 C   0  0  0  0  0  0  0  0  0  0  0  0
   -0.8455    1.8195   -0.4426 H   0  0  0  0  0  0  0  0  0  0  0  0
    0.7859    1.8563   -0.3954 H   0  0  0  0  0  0  0  0  0  0  0  0
   -0.0759    1.9350    1.0457 H   0  0  0  0  0  0  0  0  0  0  0  0
    0.0000    0.0000    0.0000 C   0  0  0  0  0  0  0  0  0  0  0  0
   -1.0947   -0.5804   -0.0000 O   0  0  0  0  0  1  0  0  0  0  0  0
    1.0947   -0.6293   -0.0000 O   0  0  0  0  0  0  0  0  0  0  0  0
   -3.6304    0.5093   -2.6492 C   0  0  0  0  0  0  0  0  0  0  0  0
   -3.4937    0.5921   -1.6670 H   0  0  0  0  0  0  0  0  0  0  0  0
   -4.6018    0.5540   -2.8652 H   0  0  0  0  0  0  0  0  0  0  0  0
   -3.1302    1.3448   -3.1389 H   0  0  0  0  0  0  0  0  0  0  0  0
   -3.1085   -0.8670   -3.0866 C   0  0  0  0  0  0  0  0  0  0  0  0
   -3.6086   -1.5761   -2.5976 H   0  0  0  0  0  0  0  0  0  0  0  0
   -3.2385   -0.9694   -4.0681 H   0  0  0  0  0  0  0  0  0  0  0  0
   -1.6008   -1.0274   -2.7734 C   0  0  0  0  0  0  0  0  0  0  0  0
   -1.0945   -0.3580   -3.3221 H   0  0  0  0  0  0  0  0  0  0  0  0
   -1.4599   -0.8295   -1.8007 H   0  0  0  0  0  0  0  0  0  0  0  0
   -1.2025   -2.0196   -2.9853 H   0  0  0  0  0  0  0  0  0  0  0  0
  1  5  1  0
  5  6  1  0
  5  7  2  0
  1  2  1  0
  1  3  1  0
  1  4  1  0
  8 12  1  0
 12 15  1  0
  8  9  1  0
  8 10  1  0
  8 11  1  0
 12 13  1  0
 12 14  1  0
 15 16  1  0
 15 17  1  0
 15 18  1  0
M  CHG  1   6  -1
M  END
>  <PDB_ID>  (591) 
pdb1kkh

>  <RESIDUE_NAME>  (591) 
GLU   LYS

>  <FRAG_NAME>  (591) 
ACET   PRPA

>  <FRAG_ATOM_NUM>  (591) 
fragi: 7  fragj: 11

>  <atom.prop.CHAIN_ID>  (591) 
A A A A A A A Z Z Z Z Z Z Z Z Z Z Z

>  <atom.prop.IS_HEAVY_ATOM>  (591) 
1 0 0 0 1 1 1 1 0 0 0 1 0 0 1 0 0 0

>  <DIFUSE_FUNC_ATOM>  (591) 
atom 6   atom 7   

>  <FINAL_SINGLE_POINT_ENERGY>  (591) 
0

>  <NONCOV_INTER_ENERGY_QM>  (591) 
0

>  <FF_Energy>  (591) 
19.2

>  <QM_Energy>  (591) 
-0.61

>  <source>  (591) 
ACET_PRPA_05

>  <Index>  (591) 
25220

$$$$
ACET-pdb2p0v-A-ASP-146:PRPA-pdb2p0v-A-ARG-175
     RDKit          3D

 18 16  0  0  0  0  0  0  0  0999 V2000
    0.0169    1.5210    0.0154 C   0  0  0  0  0  0  0  0  0  0  0  0
    0.6973    1.8368   -0.6361 H   0  0  0  0  0  0  0  0  0  0  0  0
    0.2444    1.8267    0.9322 H   0  0  0  0  0  0  0  0  0  0  0  0
   -0.9441    1.9553   -0.2598 H   0  0  0  0  0  0  0  0  0  0  0  0
    0.0000    0.0000    0.0000 C   0  0  0  0  0  0  0  0  0  0  0  0
   -1.0966   -0.6076   -0.0000 O   0  0  0  0  0  1  0  0  0  0  0  0
    1.0966   -0.5922    0.0000 O   0  0  0  0  0  0  0  0  0  0  0  0
    3.1793   -2.7566    3.5856 C   0  0  0  0  0  0  0  0  0  0  0  0
    3.8369   -2.0996    3.2491 H   0  0  0  0  0  0  0  0  0  0  0  0
    3.5182   -3.6809    3.4959 H   0  0  0  0  0  0  0  0  0  0  0  0
    3.0049   -2.5563    4.6427 H   0  0  0  0  0  0  0  0  0  0  0  0
    1.9096   -2.6333    2.7414 C   0  0  0  0  0  0  0  0  0  0  0  0
    1.2618   -3.3478    3.0148 H   0  0  0  0  0  0  0  0  0  0  0  0
    1.4941   -1.7353    2.9004 H   0  0  0  0  0  0  0  0  0  0  0  0
    2.1680   -2.7754    1.2456 C   0  0  0  0  0  0  0  0  0  0  0  0
    1.5051   -2.2083    0.7659 H   0  0  0  0  0  0  0  0  0  0  0  0
    3.0928   -2.4511    1.0641 H   0  0  0  0  0  0  0  0  0  0  0  0
    2.0712   -3.8096    0.9150 H   0  0  0  0  0  0  0  0  0  0  0  0
  1  5  1  0
  5  6  1  0
  5  7  2  0
  1  2  1  0
  1  3  1  0
  1  4  1  0
  8 12  1  0
 12 15  1  0
  8  9  1  0
  8 10  1  0
  8 11  1  0
 12 13  1  0
 12 14  1  0
 15 16  1  0
 15 17  1  0
 15 18  1  0
M  CHG  1   6  -1
M  END
>  <PDB_ID>  (592) 
pdb2p0v

>  <RESIDUE_NAME>  (592) 
ASP   ARG

>  <FRAG_NAME>  (592) 
ACET   PRPA

>  <FRAG_ATOM_NUM>  (592) 
fragi: 7  fragj: 11

>  <atom.prop.CHAIN_ID>  (592) 
A A A A A A A Z Z Z Z Z Z Z Z Z Z Z

>  <atom.prop.IS_HEAVY_ATOM>  (592) 
1 0 0 0 1 1 1 1 0 0 0 1 0 0 1 0 0 0

>  <DIFUSE_FUNC_ATOM>  (592) 
atom 6   atom 7   

>  <FINAL_SINGLE_POINT_ENERGY>  (592) 
0

>  <NONCOV_INTER_ENERGY_QM>  (592) 
0

>  <FF_Energy>  (592) 
22.34

>  <QM_Energy>  (592) 
-0.3

>  <source>  (592) 
ACET_PRPA_05

>  <Index>  (592) 
26324

$$$$
ACET-pdb2okx-B-ASP-319:PRPA-pdb2okx-B-LYS-218
     RDKit          3D

 18 16  0  0  0  0  0  0  0  0999 V2000
   -0.0061    1.5141    0.0143 C   0  0  0  0  0  0  0  0  0  0  0  0
   -0.6128    1.8384   -0.7012 H   0  0  0  0  0  0  0  0  0  0  0  0
    0.9189    1.8397   -0.1355 H   0  0  0  0  0  0  0  0  0  0  0  0
   -0.3571    1.9185    0.9637 H   0  0  0  0  0  0  0  0  0  0  0  0
    0.0000    0.0000    0.0000 C   0  0  0  0  0  0  0  0  0  0  0  0
   -1.0955   -0.5960    0.0000 O   0  0  0  0  0  1  0  0  0  0  0  0
    1.0955   -0.5950   -0.0000 O   0  0  0  0  0  0  0  0  0  0  0  0
   -4.0551   -0.4905    1.8784 C   0  0  0  0  0  0  0  0  0  0  0  0
   -3.6881    0.4312    2.0201 H   0  0  0  0  0  0  0  0  0  0  0  0
   -4.7453   -0.6784    2.5808 H   0  0  0  0  0  0  0  0  0  0  0  0
   -4.5502   -0.5099    0.9075 H   0  0  0  0  0  0  0  0  0  0  0  0
   -2.9226   -1.4869    2.0398 C   0  0  0  0  0  0  0  0  0  0  0  0
   -2.2713   -1.3660    1.2872 H   0  0  0  0  0  0  0  0  0  0  0  0
   -2.4560   -1.3143    2.9092 H   0  0  0  0  0  0  0  0  0  0  0  0
   -3.4265   -2.9174    2.0281 C   0  0  0  0  0  0  0  0  0  0  0  0
   -4.1208   -3.0214    2.7287 H   0  0  0  0  0  0  0  0  0  0  0  0
   -3.7965   -3.1240    1.1313 H   0  0  0  0  0  0  0  0  0  0  0  0
   -2.6146   -3.6138    2.2379 H   0  0  0  0  0  0  0  0  0  0  0  0
  1  5  1  0
  5  6  1  0
  5  7  2  0
  1  2  1  0
  1  3  1  0
  1  4  1  0
  8 12  1  0
 12 15  1  0
  8  9  1  0
  8 10  1  0
  8 11  1  0
 12 13  1  0
 12 14  1  0
 15 16  1  0
 15 17  1  0
 15 18  1  0
M  CHG  1   6  -1
M  END
>  <PDB_ID>  (593) 
pdb2okx

>  <RESIDUE_NAME>  (593) 
ASP   LYS

>  <FRAG_NAME>  (593) 
ACET   PRPA

>  <FRAG_ATOM_NUM>  (593) 
fragi: 7  fragj: 11

>  <atom.prop.CHAIN_ID>  (593) 
A A A A A A A Z Z Z Z Z Z Z Z Z Z Z

>  <atom.prop.IS_HEAVY_ATOM>  (593) 
1 0 0 0 1 1 1 1 0 0 0 1 0 0 1 0 0 0

>  <DIFUSE_FUNC_ATOM>  (593) 
atom 6   atom 7   

>  <FINAL_SINGLE_POINT_ENERGY>  (593) 
0

>  <NONCOV_INTER_ENERGY_QM>  (593) 
0

>  <FF_Energy>  (593) 
14.93

>  <QM_Energy>  (593) 
-1.72

>  <source>  (593) 
ACET_PRPA_05

>  <Index>  (593) 
26674

$$$$
ACET-pdb2oga-D-GLU-266:PRPA-pdb2oga-D-ARG-359
     RDKit          3D

 18 16  0  0  0  0  0  0  0  0999 V2000
    0.2263    1.4812    0.0045 C   0  0  0  0  0  0  0  0  0  0  0  0
    0.5403    1.7483   -0.8797 H   0  0  0  0  0  0  0  0  0  0  0  0
    0.8535    1.6953    0.7205 H   0  0  0  0  0  0  0  0  0  0  0  0
   -0.7016    2.0176    0.2030 H   0  0  0  0  0  0  0  0  0  0  0  0
    0.0000    0.0000    0.0000 C   0  0  0  0  0  0  0  0  0  0  0  0
   -1.1118   -0.4954   -0.0000 O   0  0  0  0  0  1  0  0  0  0  0  0
    1.1118   -0.6871    0.0000 O   0  0  0  0  0  0  0  0  0  0  0  0
    2.2186   -1.0052    4.9924 C   0  0  0  0  0  0  0  0  0  0  0  0
    3.0978   -0.6541    4.6854 H   0  0  0  0  0  0  0  0  0  0  0  0
    2.3278   -1.9159    5.3774 H   0  0  0  0  0  0  0  0  0  0  0  0
    1.8412   -0.3458    5.7740 H   0  0  0  0  0  0  0  0  0  0  0  0
    1.3045   -1.1167    3.7741 C   0  0  0  0  0  0  0  0  0  0  0  0
    0.5902   -1.7997    3.9578 H   0  0  0  0  0  0  0  0  0  0  0  0
    0.8653   -0.2281    3.6081 H   0  0  0  0  0  0  0  0  0  0  0  0
    2.0290   -1.5270    2.4945 C   0  0  0  0  0  0  0  0  0  0  0  0
    1.5331   -1.1293    1.7202 H   0  0  0  0  0  0  0  0  0  0  0  0
    2.9523   -1.1396    2.5282 H   0  0  0  0  0  0  0  0  0  0  0  0
    2.0957   -2.6070    2.3628 H   0  0  0  0  0  0  0  0  0  0  0  0
  1  5  1  0
  5  6  1  0
  5  7  2  0
  1  2  1  0
  1  3  1  0
  1  4  1  0
  8 12  1  0
 12 15  1  0
  8  9  1  0
  8 10  1  0
  8 11  1  0
 12 13  1  0
 12 14  1  0
 15 16  1  0
 15 17  1  0
 15 18  1  0
M  CHG  1   6  -1
M  END
>  <PDB_ID>  (594) 
pdb2oga

>  <RESIDUE_NAME>  (594) 
GLU   ARG

>  <FRAG_NAME>  (594) 
ACET   PRPA

>  <FRAG_ATOM_NUM>  (594) 
fragi: 7  fragj: 11

>  <atom.prop.CHAIN_ID>  (594) 
A A A A A A A Z Z Z Z Z Z Z Z Z Z Z

>  <atom.prop.IS_HEAVY_ATOM>  (594) 
1 0 0 0 1 1 1 1 0 0 0 1 0 0 1 0 0 0

>  <DIFUSE_FUNC_ATOM>  (594) 
atom 6   atom 7   

>  <FINAL_SINGLE_POINT_ENERGY>  (594) 
0

>  <NONCOV_INTER_ENERGY_QM>  (594) 
0

>  <FF_Energy>  (594) 
22.9

>  <QM_Energy>  (594) 
0.22

>  <source>  (594) 
ACET_PRPA_05

>  <Index>  (594) 
27833

$$$$
ACET-pdb1ksk-A-GLU-157:PRPA-pdb1ksk-A-LEU-154
     RDKit          3D

 18 16  0  0  0  0  0  0  0  0999 V2000
    0.1723    1.4854    0.0162 C   0  0  0  0  0  0  0  0  0  0  0  0
    0.6914    1.7424   -0.8012 H   0  0  0  0  0  0  0  0  0  0  0  0
    0.7024    1.7239    0.8315 H   0  0  0  0  0  0  0  0  0  0  0  0
   -0.7385    2.0842    0.0282 H   0  0  0  0  0  0  0  0  0  0  0  0
    0.0000    0.0000    0.0000 C   0  0  0  0  0  0  0  0  0  0  0  0
   -1.0897   -0.5585    0.0000 O   0  0  0  0  0  1  0  0  0  0  0  0
    1.0897   -0.6067   -0.0000 O   0  0  0  0  0  0  0  0  0  0  0  0
   -1.7718   -2.6252   -1.5578 C   0  0  0  0  0  0  0  0  0  0  0  0
   -2.2793   -2.6521   -2.4204 H   0  0  0  0  0  0  0  0  0  0  0  0
   -1.7401   -3.5440   -1.1618 H   0  0  0  0  0  0  0  0  0  0  0  0
   -2.2321   -2.0057   -0.9211 H   0  0  0  0  0  0  0  0  0  0  0  0
   -0.3572   -2.1325   -1.8145 C   0  0  0  0  0  0  0  0  0  0  0  0
    0.1440   -2.0970   -0.9557 H   0  0  0  0  0  0  0  0  0  0  0  0
   -0.3968   -1.1319   -2.2452 H   0  0  0  0  0  0  0  0  0  0  0  0
    0.3567   -3.0829   -2.7667 C   0  0  0  0  0  0  0  0  0  0  0  0
    1.2888   -2.7576   -2.9270 H   0  0  0  0  0  0  0  0  0  0  0  0
    0.3887   -3.9979   -2.3641 H   0  0  0  0  0  0  0  0  0  0  0  0
   -0.1378   -3.1187   -3.6358 H   0  0  0  0  0  0  0  0  0  0  0  0
  1  5  1  0
  5  6  1  0
  5  7  2  0
  1  2  1  0
  1  3  1  0
  1  4  1  0
  8 12  1  0
 12 15  1  0
  8  9  1  0
  8 10  1  0
  8 11  1  0
 12 13  1  0
 12 14  1  0
 15 16  1  0
 15 17  1  0
 15 18  1  0
M  CHG  1   6  -1
M  END
>  <PDB_ID>  (595) 
pdb1ksk

>  <RESIDUE_NAME>  (595) 
GLU   LEU

>  <FRAG_NAME>  (595) 
ACET   PRPA

>  <FRAG_ATOM_NUM>  (595) 
fragi: 7  fragj: 11

>  <atom.prop.CHAIN_ID>  (595) 
A A A A A A A Z Z Z Z Z Z Z Z Z Z Z

>  <atom.prop.IS_HEAVY_ATOM>  (595) 
1 0 0 0 1 1 1 1 0 0 0 1 0 0 1 0 0 0

>  <DIFUSE_FUNC_ATOM>  (595) 
atom 6   atom 7   

>  <FINAL_SINGLE_POINT_ENERGY>  (595) 
0

>  <NONCOV_INTER_ENERGY_QM>  (595) 
0

>  <FF_Energy>  (595) 
34.46

>  <QM_Energy>  (595) 
6.83

>  <source>  (595) 
ACET_PRPA_05

>  <Index>  (595) 
28644

$$$$
ACET-pdb1kvk-A-ASP-204:PRPA-pdb1kvk-A-LYS-13
     RDKit          3D

 18 16  0  0  0  0  0  0  0  0999 V2000
    0.0037    1.5040   -0.0050 C   0  0  0  0  0  0  0  0  0  0  0  0
   -0.8547    1.8323    0.3760 H   0  0  0  0  0  0  0  0  0  0  0  0
    0.1118    1.8256   -0.9395 H   0  0  0  0  0  0  0  0  0  0  0  0
    0.8155    1.9233    0.5895 H   0  0  0  0  0  0  0  0  0  0  0  0
    0.0000    0.0000    0.0000 C   0  0  0  0  0  0  0  0  0  0  0  0
   -1.0931   -0.5935    0.0000 O   0  0  0  0  0  1  0  0  0  0  0  0
    1.0931   -0.5881   -0.0000 O   0  0  0  0  0  0  0  0  0  0  0  0
    5.0491   -0.8473   -0.9601 C   0  0  0  0  0  0  0  0  0  0  0  0
    5.7041   -1.6110   -1.0060 H   0  0  0  0  0  0  0  0  0  0  0  0
    4.8625   -0.6459    0.0083 H   0  0  0  0  0  0  0  0  0  0  0  0
    5.5059    0.0307   -1.4168 H   0  0  0  0  0  0  0  0  0  0  0  0
    3.7724   -1.2493   -1.6378 C   0  0  0  0  0  0  0  0  0  0  0  0
    3.2265   -0.4429   -1.8245 H   0  0  0  0  0  0  0  0  0  0  0  0
    3.9786   -1.7372   -2.4761 H   0  0  0  0  0  0  0  0  0  0  0  0
    2.9589   -2.1760   -0.7367 C   0  0  0  0  0  0  0  0  0  0  0  0
    3.5641   -2.8836   -0.3680 H   0  0  0  0  0  0  0  0  0  0  0  0
    2.5785   -1.6414    0.0196 H   0  0  0  0  0  0  0  0  0  0  0  0
    2.1432   -2.6531   -1.2801 H   0  0  0  0  0  0  0  0  0  0  0  0
  1  5  1  0
  5  6  1  0
  5  7  2  0
  1  2  1  0
  1  3  1  0
  1  4  1  0
  8 12  1  0
 12 15  1  0
  8  9  1  0
  8 10  1  0
  8 11  1  0
 12 13  1  0
 12 14  1  0
 15 16  1  0
 15 17  1  0
 15 18  1  0
M  CHG  1   6  -1
M  END
>  <PDB_ID>  (596) 
pdb1kvk

>  <RESIDUE_NAME>  (596) 
ASP   LYS

>  <FRAG_NAME>  (596) 
ACET   PRPA

>  <FRAG_ATOM_NUM>  (596) 
fragi: 7  fragj: 11

>  <atom.prop.CHAIN_ID>  (596) 
A A A A A A A Z Z Z Z Z Z Z Z Z Z Z

>  <atom.prop.IS_HEAVY_ATOM>  (596) 
1 0 0 0 1 1 1 1 0 0 0 1 0 0 1 0 0 0

>  <DIFUSE_FUNC_ATOM>  (596) 
atom 6   atom 7   

>  <FINAL_SINGLE_POINT_ENERGY>  (596) 
0

>  <NONCOV_INTER_ENERGY_QM>  (596) 
0

>  <FF_Energy>  (596) 
29.55

>  <QM_Energy>  (596) 
2.99

>  <source>  (596) 
ACET_PRPA_05

>  <Index>  (596) 
29254

$$$$
ACET-pdb2p87-A-ASP-2195:PRPA-pdb2p87-A-LYS-2191
     RDKit          3D

 18 16  0  0  0  0  0  0  0  0999 V2000
   -0.0002    1.5192   -0.0057 C   0  0  0  0  0  0  0  0  0  0  0  0
    0.3664    1.8340   -0.8730 H   0  0  0  0  0  0  0  0  0  0  0  0
    0.5596    1.8404    0.7474 H   0  0  0  0  0  0  0  0  0  0  0  0
   -0.9998    1.9373    0.1120 H   0  0  0  0  0  0  0  0  0  0  0  0
    0.0000    0.0000    0.0000 C   0  0  0  0  0  0  0  0  0  0  0  0
   -1.1025   -0.6016   -0.0000 O   0  0  0  0  0  1  0  0  0  0  0  0
    1.1025   -0.5914    0.0000 O   0  0  0  0  0  0  0  0  0  0  0  0
    1.6234   -2.0191   -3.5557 C   0  0  0  0  0  0  0  0  0  0  0  0
    1.0501   -2.1338   -2.7449 H   0  0  0  0  0  0  0  0  0  0  0  0
    2.3437   -2.7114   -3.5574 H   0  0  0  0  0  0  0  0  0  0  0  0
    1.0059   -2.1503   -4.4443 H   0  0  0  0  0  0  0  0  0  0  0  0
    2.2806   -0.6252   -3.4992 C   0  0  0  0  0  0  0  0  0  0  0  0
    3.0080   -0.5921   -4.1821 H   0  0  0  0  0  0  0  0  0  0  0  0
    1.5870    0.0604   -3.7099 H   0  0  0  0  0  0  0  0  0  0  0  0
    2.8856   -0.2980   -2.1284 C   0  0  0  0  0  0  0  0  0  0  0  0
    2.2250   -0.5501   -1.4134 H   0  0  0  0  0  0  0  0  0  0  0  0
    3.7186   -0.8478   -2.0016 H   0  0  0  0  0  0  0  0  0  0  0  0
    3.1413    0.7553   -2.0127 H   0  0  0  0  0  0  0  0  0  0  0  0
  1  5  1  0
  5  6  1  0
  5  7  2  0
  1  2  1  0
  1  3  1  0
  1  4  1  0
  8 12  1  0
 12 15  1  0
  8  9  1  0
  8 10  1  0
  8 11  1  0
 12 13  1  0
 12 14  1  0
 15 16  1  0
 15 17  1  0
 15 18  1  0
M  CHG  1   6  -1
M  END
>  <PDB_ID>  (597) 
pdb2p87

>  <RESIDUE_NAME>  (597) 
ASP   LYS

>  <FRAG_NAME>  (597) 
ACET   PRPA

>  <FRAG_ATOM_NUM>  (597) 
fragi: 7  fragj: 11

>  <atom.prop.CHAIN_ID>  (597) 
A A A A A A A Z Z Z Z Z Z Z Z Z Z Z

>  <atom.prop.IS_HEAVY_ATOM>  (597) 
1 0 0 0 1 1 1 1 0 0 0 1 0 0 1 0 0 0

>  <DIFUSE_FUNC_ATOM>  (597) 
atom 6   atom 7   

>  <FINAL_SINGLE_POINT_ENERGY>  (597) 
0

>  <NONCOV_INTER_ENERGY_QM>  (597) 
0

>  <FF_Energy>  (597) 
26.17

>  <QM_Energy>  (597) 
-0.14

>  <source>  (597) 
ACET_PRPA_05

>  <Index>  (597) 
29629

$$$$
ACET-pdb2p6p-A-GLU-151:PRPA-pdb2p6p-A-ARG-66
     RDKit          3D

 18 16  0  0  0  0  0  0  0  0999 V2000
   -0.0448    1.5192    0.0205 C   0  0  0  0  0  0  0  0  0  0  0  0
   -0.2895    1.7843    0.9415 H   0  0  0  0  0  0  0  0  0  0  0  0
   -0.7434    1.7912   -0.6261 H   0  0  0  0  0  0  0  0  0  0  0  0
    0.9038    1.9825   -0.2508 H   0  0  0  0  0  0  0  0  0  0  0  0
    0.0000    0.0000    0.0000 C   0  0  0  0  0  0  0  0  0  0  0  0
   -1.0977   -0.5946    0.0000 O   0  0  0  0  0  1  0  0  0  0  0  0
    1.0977   -0.6119   -0.0000 O   0  0  0  0  0  0  0  0  0  0  0  0
   -4.1859   -3.2262   -0.6753 C   0  0  0  0  0  0  0  0  0  0  0  0
   -3.4482   -3.7767   -1.0180 H   0  0  0  0  0  0  0  0  0  0  0  0
   -4.8697   -3.0478   -1.3568 H   0  0  0  0  0  0  0  0  0  0  0  0
   -4.6542   -3.7529    0.1563 H   0  0  0  0  0  0  0  0  0  0  0  0
   -3.5952   -1.8658   -0.2320 C   0  0  0  0  0  0  0  0  0  0  0  0
   -4.2829   -1.3674    0.3148 H   0  0  0  0  0  0  0  0  0  0  0  0
   -2.7912   -2.0295    0.3559 H   0  0  0  0  0  0  0  0  0  0  0  0
   -3.1340   -0.9007   -1.3788 C   0  0  0  0  0  0  0  0  0  0  0  0
   -2.8604   -0.0456   -0.9411 H   0  0  0  0  0  0  0  0  0  0  0  0
   -2.3389   -1.3276   -1.8086 H   0  0  0  0  0  0  0  0  0  0  0  0
   -3.9064   -0.7103   -2.1240 H   0  0  0  0  0  0  0  0  0  0  0  0
  1  5  1  0
  5  6  1  0
  5  7  2  0
  1  2  1  0
  1  3  1  0
  1  4  1  0
  8 12  1  0
 12 15  1  0
  8  9  1  0
  8 10  1  0
  8 11  1  0
 12 13  1  0
 12 14  1  0
 15 16  1  0
 15 17  1  0
 15 18  1  0
M  CHG  1   6  -1
M  END
>  <PDB_ID>  (598) 
pdb2p6p

>  <RESIDUE_NAME>  (598) 
GLU   ARG

>  <FRAG_NAME>  (598) 
ACET   PRPA

>  <FRAG_ATOM_NUM>  (598) 
fragi: 7  fragj: 11

>  <atom.prop.CHAIN_ID>  (598) 
A A A A A A A Z Z Z Z Z Z Z Z Z Z Z

>  <atom.prop.IS_HEAVY_ATOM>  (598) 
1 0 0 0 1 1 1 1 0 0 0 1 0 0 1 0 0 0

>  <DIFUSE_FUNC_ATOM>  (598) 
atom 6   atom 7   

>  <FINAL_SINGLE_POINT_ENERGY>  (598) 
0

>  <NONCOV_INTER_ENERGY_QM>  (598) 
0

>  <FF_Energy>  (598) 
19.33

>  <QM_Energy>  (598) 
2.56

>  <source>  (598) 
ACET_PRPA_05

>  <Index>  (598) 
29958

$$$$
ACET-pdb1ki1-B-GLU-1523:PRPA-pdb1ki1-B-ILE-1544
     RDKit          3D

 18 16  0  0  0  0  0  0  0  0999 V2000
   -0.0021    1.5226   -0.0178 C   0  0  0  0  0  0  0  0  0  0  0  0
    0.2905    1.8081   -0.9106 H   0  0  0  0  0  0  0  0  0  0  0  0
    0.6069    1.8274    0.6903 H   0  0  0  0  0  0  0  0  0  0  0  0
   -0.9879    1.9477    0.1710 H   0  0  0  0  0  0  0  0  0  0  0  0
    0.0000    0.0000    0.0000 C   0  0  0  0  0  0  0  0  0  0  0  0
   -1.1003   -0.5968    0.0000 O   0  0  0  0  0  1  0  0  0  0  0  0
    1.1003   -0.6005    0.0000 O   0  0  0  0  0  0  0  0  0  0  0  0
   -1.5867    0.5370    4.9211 C   0  0  0  0  0  0  0  0  0  0  0  0
   -1.0850   -0.3496    5.0561 H   0  0  0  0  0  0  0  0  0  0  0  0
   -1.2130    1.2406    5.6650 H   0  0  0  0  0  0  0  0  0  0  0  0
   -2.3619   -0.2038    5.1170 H   0  0  0  0  0  0  0  0  0  0  0  0
   -1.4614    0.9116    3.4412 C   0  0  0  0  0  0  0  0  0  0  0  0
   -2.0600    1.6751    3.2437 H   0  0  0  0  0  0  0  0  0  0  0  0
   -0.5212    1.1590    3.2473 H   0  0  0  0  0  0  0  0  0  0  0  0
   -1.8475   -0.2591    2.4736 C   0  0  0  0  0  0  0  0  0  0  0  0
   -2.7894   -0.5064    2.6553 H   0  0  0  0  0  0  0  0  0  0  0  0
   -1.7387    0.0660    1.5441 H   0  0  0  0  0  0  0  0  0  0  0  0
   -1.2388   -1.0189    2.6575 H   0  0  0  0  0  0  0  0  0  0  0  0
  1  5  1  0
  5  6  1  0
  5  7  2  0
  1  2  1  0
  1  3  1  0
  1  4  1  0
  8 12  1  0
 12 15  1  0
  8  9  1  0
  8 10  1  0
  8 11  1  0
 12 13  1  0
 12 14  1  0
 15 16  1  0
 15 17  1  0
 15 18  1  0
M  CHG  1   6  -1
M  END
>  <PDB_ID>  (599) 
pdb1ki1

>  <RESIDUE_NAME>  (599) 
GLU   ILE

>  <FRAG_NAME>  (599) 
ACET   PRPA

>  <FRAG_ATOM_NUM>  (599) 
fragi: 7  fragj: 11

>  <atom.prop.CHAIN_ID>  (599) 
A A A A A A A Z Z Z Z Z Z Z Z Z Z Z

>  <atom.prop.IS_HEAVY_ATOM>  (599) 
1 0 0 0 1 1 1 1 0 0 0 1 0 0 1 0 0 0

>  <DIFUSE_FUNC_ATOM>  (599) 
atom 6   atom 7   

>  <FINAL_SINGLE_POINT_ENERGY>  (599) 
0

>  <NONCOV_INTER_ENERGY_QM>  (599) 
0

>  <FF_Energy>  (599) 
34.23

>  <QM_Energy>  (599) 
4.44

>  <source>  (599) 
ACET_PRPA_05

>  <Index>  (599) 
30487

$$$$
ACET-pdb2paq-A-GLU-129:PRPA-pdb2paq-A-ILE-61
     RDKit          3D

 18 16  0  0  0  0  0  0  0  0999 V2000
    0.0404    1.5372   -0.0827 C   0  0  0  0  0  0  0  0  0  0  0  0
    0.6606    1.7764   -0.7992 H   0  0  0  0  0  0  0  0  0  0  0  0
    0.3177    1.8700    0.7941 H   0  0  0  0  0  0  0  0  0  0  0  0
   -0.9308    1.9721   -0.3186 H   0  0  0  0  0  0  0  0  0  0  0  0
    0.0000    0.0000    0.0000 C   0  0  0  0  0  0  0  0  0  0  0  0
   -1.1089   -0.5969    0.0000 O   0  0  0  0  0  1  0  0  0  0  0  0
    1.1089   -0.5849   -0.0000 O   0  0  0  0  0  0  0  0  0  0  0  0
    1.9691    2.8981   -5.2212 C   0  0  0  0  0  0  0  0  0  0  0  0
    2.9202    2.7947   -5.5260 H   0  0  0  0  0  0  0  0  0  0  0  0
    1.3919    2.0679   -5.6283 H   0  0  0  0  0  0  0  0  0  0  0  0
    1.5932    3.8451   -5.6083 H   0  0  0  0  0  0  0  0  0  0  0  0
    1.9673    2.9203   -3.6934 C   0  0  0  0  0  0  0  0  0  0  0  0
    2.7422    2.3556   -3.3831 H   0  0  0  0  0  0  0  0  0  0  0  0
    2.1574    3.8692   -3.4095 H   0  0  0  0  0  0  0  0  0  0  0  0
    0.7295    2.4561   -3.0904 C   0  0  0  0  0  0  0  0  0  0  0  0
    0.5324    1.5034   -3.3576 H   0  0  0  0  0  0  0  0  0  0  0  0
    0.7829    2.4916   -2.0834 H   0  0  0  0  0  0  0  0  0  0  0  0
   -0.0501    3.0272   -3.3803 H   0  0  0  0  0  0  0  0  0  0  0  0
  1  5  1  0
  5  6  1  0
  5  7  2  0
  1  2  1  0
  1  3  1  0
  1  4  1  0
  8 12  1  0
 12 15  1  0
  8  9  1  0
  8 10  1  0
  8 11  1  0
 12 13  1  0
 12 14  1  0
 15 16  1  0
 15 17  1  0
 15 18  1  0
M  CHG  1   6  -1
M  END
>  <PDB_ID>  (600) 
pdb2paq

>  <RESIDUE_NAME>  (600) 
GLU   ILE

>  <FRAG_NAME>  (600) 
ACET   PRPA

>  <FRAG_ATOM_NUM>  (600) 
fragi: 7  fragj: 11

>  <atom.prop.CHAIN_ID>  (600) 
A A A A A A A Z Z Z Z Z Z Z Z Z Z Z

>  <atom.prop.IS_HEAVY_ATOM>  (600) 
1 0 0 0 1 1 1 1 0 0 0 1 0 0 1 0 0 0

>  <DIFUSE_FUNC_ATOM>  (600) 
atom 6   atom 7   

>  <FINAL_SINGLE_POINT_ENERGY>  (600) 
0

>  <NONCOV_INTER_ENERGY_QM>  (600) 
0

>  <FF_Energy>  (600) 
34.01

>  <QM_Energy>  (600) 
4.59

>  <source>  (600) 
ACET_PRPA_05

>  <Index>  (600) 
30668

$$$$
ACET-pdb1kv8-A-GLU-33:PRPA-pdb1kv8-A-LEU-60
     RDKit          3D

 18 16  0  0  0  0  0  0  0  0999 V2000
   -0.0002    1.5148    0.0097 C   0  0  0  0  0  0  0  0  0  0  0  0
    0.8942    1.8167   -0.2579 H   0  0  0  0  0  0  0  0  0  0  0  0
   -0.2428    1.8084    0.9134 H   0  0  0  0  0  0  0  0  0  0  0  0
   -0.7224    1.9353   -0.6901 H   0  0  0  0  0  0  0  0  0  0  0  0
    0.0000    0.0000    0.0000 C   0  0  0  0  0  0  0  0  0  0  0  0
   -1.1003   -0.5880   -0.0000 O   0  0  0  0  0  1  0  0  0  0  0  0
    1.1003   -0.6010   -0.0000 O   0  0  0  0  0  0  0  0  0  0  0  0
   -2.6314    4.4612    2.4273 C   0  0  0  0  0  0  0  0  0  0  0  0
   -3.6399    4.6276    2.4872 H   0  0  0  0  0  0  0  0  0  0  0  0
   -2.4617    4.1062    1.4830 H   0  0  0  0  0  0  0  0  0  0  0  0
   -2.1413    5.4322    2.4985 H   0  0  0  0  0  0  0  0  0  0  0  0
   -2.3208    3.3061    3.3926 C   0  0  0  0  0  0  0  0  0  0  0  0
   -3.0549    2.6314    3.3320 H   0  0  0  0  0  0  0  0  0  0  0  0
   -2.3155    3.6669    4.4211 H   0  0  0  0  0  0  0  0  0  0  0  0
   -0.9987    2.6563    3.0323 C   0  0  0  0  0  0  0  0  0  0  0  0
   -0.2634    3.3330    3.0899 H   0  0  0  0  0  0  0  0  0  0  0  0
   -0.8075    1.9066    3.6677 H   0  0  0  0  0  0  0  0  0  0  0  0
   -1.0434    2.2961    2.0989 H   0  0  0  0  0  0  0  0  0  0  0  0
  1  5  1  0
  5  6  1  0
  5  7  2  0
  1  2  1  0
  1  3  1  0
  1  4  1  0
  8 12  1  0
 12 15  1  0
  8  9  1  0
  8 10  1  0
  8 11  1  0
 12 13  1  0
 12 14  1  0
 15 16  1  0
 15 17  1  0
 15 18  1  0
M  CHG  1   6  -1
M  END
>  <PDB_ID>  (601) 
pdb1kv8

>  <RESIDUE_NAME>  (601) 
GLU   LEU

>  <FRAG_NAME>  (601) 
ACET   PRPA

>  <FRAG_ATOM_NUM>  (601) 
fragi: 7  fragj: 11

>  <atom.prop.CHAIN_ID>  (601) 
A A A A A A A Z Z Z Z Z Z Z Z Z Z Z

>  <atom.prop.IS_HEAVY_ATOM>  (601) 
1 0 0 0 1 1 1 1 0 0 0 1 0 0 1 0 0 0

>  <DIFUSE_FUNC_ATOM>  (601) 
atom 6   atom 7   

>  <FINAL_SINGLE_POINT_ENERGY>  (601) 
0

>  <NONCOV_INTER_ENERGY_QM>  (601) 
0

>  <FF_Energy>  (601) 
24.34

>  <QM_Energy>  (601) 
3.14

>  <source>  (601) 
ACET_PRPA_05

>  <Index>  (601) 
31271

$$$$
ACET-pdb1kv8-A-GLU-33:PRPA-pdb1kv8-A-LEU-60
     RDKit          3D

 18 16  0  0  0  0  0  0  0  0999 V2000
   -0.0002    1.5148    0.0097 C   0  0  0  0  0  0  0  0  0  0  0  0
    0.8942    1.8167   -0.2579 H   0  0  0  0  0  0  0  0  0  0  0  0
   -0.2428    1.8084    0.9134 H   0  0  0  0  0  0  0  0  0  0  0  0
   -0.7224    1.9353   -0.6901 H   0  0  0  0  0  0  0  0  0  0  0  0
    0.0000    0.0000    0.0000 C   0  0  0  0  0  0  0  0  0  0  0  0
   -1.1003   -0.5880   -0.0000 O   0  0  0  0  0  1  0  0  0  0  0  0
    1.1003   -0.6010   -0.0000 O   0  0  0  0  0  0  0  0  0  0  0  0
   -0.9987    2.6563    3.0323 C   0  0  0  0  0  0  0  0  0  0  0  0
   -0.2634    3.3330    3.0899 H   0  0  0  0  0  0  0  0  0  0  0  0
   -0.8075    1.9066    3.6677 H   0  0  0  0  0  0  0  0  0  0  0  0
   -1.0434    2.2961    2.0989 H   0  0  0  0  0  0  0  0  0  0  0  0
   -2.3208    3.3061    3.3926 C   0  0  0  0  0  0  0  0  0  0  0  0
   -3.0549    2.6314    3.3320 H   0  0  0  0  0  0  0  0  0  0  0  0
   -2.5411    4.1253    2.7081 H   0  0  0  0  0  0  0  0  0  0  0  0
   -2.3134    3.8097    4.8282 C   0  0  0  0  0  0  0  0  0  0  0  0
   -3.2101    4.1925    5.0540 H   0  0  0  0  0  0  0  0  0  0  0  0
   -2.1105    3.0509    5.4489 H   0  0  0  0  0  0  0  0  0  0  0  0
   -1.6145    4.5185    4.9306 H   0  0  0  0  0  0  0  0  0  0  0  0
  1  5  1  0
  5  6  1  0
  5  7  2  0
  1  2  1  0
  1  3  1  0
  1  4  1  0
  8 12  1  0
 12 15  1  0
  8  9  1  0
  8 10  1  0
  8 11  1  0
 12 13  1  0
 12 14  1  0
 15 16  1  0
 15 17  1  0
 15 18  1  0
M  CHG  1   6  -1
M  END
>  <PDB_ID>  (602) 
pdb1kv8

>  <RESIDUE_NAME>  (602) 
GLU   LEU

>  <FRAG_NAME>  (602) 
ACET   PRPA

>  <FRAG_ATOM_NUM>  (602) 
fragi: 7  fragj: 11

>  <atom.prop.CHAIN_ID>  (602) 
A A A A A A A Z Z Z Z Z Z Z Z Z Z Z

>  <atom.prop.IS_HEAVY_ATOM>  (602) 
1 0 0 0 1 1 1 1 0 0 0 1 0 0 1 0 0 0

>  <DIFUSE_FUNC_ATOM>  (602) 
atom 6   atom 7   

>  <FINAL_SINGLE_POINT_ENERGY>  (602) 
0

>  <NONCOV_INTER_ENERGY_QM>  (602) 
0

>  <FF_Energy>  (602) 
24.36

>  <QM_Energy>  (602) 
3.55

>  <source>  (602) 
ACET_PRPA_05

>  <Index>  (602) 
31273

$$$$
ACET-pdb1k9x-A-GLU-404:PRPA-pdb1k9x-A-ARG-400
     RDKit          3D

 18 16  0  0  0  0  0  0  0  0999 V2000
   -0.0019    1.5302    0.0041 C   0  0  0  0  0  0  0  0  0  0  0  0
    0.9039    1.8209   -0.2246 H   0  0  0  0  0  0  0  0  0  0  0  0
   -0.2823    1.8153    0.8972 H   0  0  0  0  0  0  0  0  0  0  0  0
   -0.6976    1.9340   -0.7315 H   0  0  0  0  0  0  0  0  0  0  0  0
    0.0000    0.0000    0.0000 C   0  0  0  0  0  0  0  0  0  0  0  0
   -1.0991   -0.6057   -0.0000 O   0  0  0  0  0  1  0  0  0  0  0  0
    1.0991   -0.5950    0.0000 O   0  0  0  0  0  0  0  0  0  0  0  0
   -3.3196   -3.0065    1.0151 C   0  0  0  0  0  0  0  0  0  0  0  0
   -2.9957   -2.6353    1.8798 H   0  0  0  0  0  0  0  0  0  0  0  0
   -3.7475   -3.8926    1.1596 H   0  0  0  0  0  0  0  0  0  0  0  0
   -4.0682   -2.3263    0.6088 H   0  0  0  0  0  0  0  0  0  0  0  0
   -2.1101   -3.2113    0.1083 C   0  0  0  0  0  0  0  0  0  0  0  0
   -2.4179   -3.2887   -0.8379 H   0  0  0  0  0  0  0  0  0  0  0  0
   -1.4949   -2.4297    0.1993 H   0  0  0  0  0  0  0  0  0  0  0  0
   -1.3424   -4.4658    0.4653 C   0  0  0  0  0  0  0  0  0  0  0  0
   -1.1932   -4.4711    1.4489 H   0  0  0  0  0  0  0  0  0  0  0  0
   -1.8882   -5.2523    0.1938 H   0  0  0  0  0  0  0  0  0  0  0  0
   -0.3801   -4.5004   -0.0454 H   0  0  0  0  0  0  0  0  0  0  0  0
  1  5  1  0
  5  6  1  0
  5  7  2  0
  1  2  1  0
  1  3  1  0
  1  4  1  0
  8 12  1  0
 12 15  1  0
  8  9  1  0
  8 10  1  0
  8 11  1  0
 12 13  1  0
 12 14  1  0
 15 16  1  0
 15 17  1  0
 15 18  1  0
M  CHG  1   6  -1
M  END
>  <PDB_ID>  (603) 
pdb1k9x

>  <RESIDUE_NAME>  (603) 
GLU   ARG

>  <FRAG_NAME>  (603) 
ACET   PRPA

>  <FRAG_ATOM_NUM>  (603) 
fragi: 7  fragj: 11

>  <atom.prop.CHAIN_ID>  (603) 
A A A A A A A Z Z Z Z Z Z Z Z Z Z Z

>  <atom.prop.IS_HEAVY_ATOM>  (603) 
1 0 0 0 1 1 1 1 0 0 0 1 0 0 1 0 0 0

>  <DIFUSE_FUNC_ATOM>  (603) 
atom 6   atom 7   

>  <FINAL_SINGLE_POINT_ENERGY>  (603) 
0

>  <NONCOV_INTER_ENERGY_QM>  (603) 
0

>  <FF_Energy>  (603) 
18.88

>  <QM_Energy>  (603) 
-0.53

>  <source>  (603) 
ACET_PRPA_05

>  <Index>  (603) 
31900

$$$$
ACET-pdb2pbr-A-GLU-65:PRPA-pdb2pbr-A-LEU-113
     RDKit          3D

 18 16  0  0  0  0  0  0  0  0999 V2000
   -0.0129    1.5289    0.0013 C   0  0  0  0  0  0  0  0  0  0  0  0
    0.8583    1.8303    0.3488 H   0  0  0  0  0  0  0  0  0  0  0  0
   -0.7577    1.8157    0.5803 H   0  0  0  0  0  0  0  0  0  0  0  0
   -0.1570    1.9709   -0.9847 H   0  0  0  0  0  0  0  0  0  0  0  0
    0.0000    0.0000    0.0000 C   0  0  0  0  0  0  0  0  0  0  0  0
   -1.0921   -0.5945    0.0000 O   0  0  0  0  0  1  0  0  0  0  0  0
    1.0921   -0.6073   -0.0000 O   0  0  0  0  0  0  0  0  0  0  0  0
    2.3791    0.9978    4.0917 C   0  0  0  0  0  0  0  0  0  0  0  0
    2.1441    1.8857    4.4975 H   0  0  0  0  0  0  0  0  0  0  0  0
    3.0200    0.4511    4.7834 H   0  0  0  0  0  0  0  0  0  0  0  0
    1.4540    0.4483    3.9176 H   0  0  0  0  0  0  0  0  0  0  0  0
    3.1289    1.2452    2.7783 C   0  0  0  0  0  0  0  0  0  0  0  0
    4.0600    1.5214    3.0072 H   0  0  0  0  0  0  0  0  0  0  0  0
    3.1433    0.3874    2.2700 H   0  0  0  0  0  0  0  0  0  0  0  0
    2.5491    2.3156    1.8543 C   0  0  0  0  0  0  0  0  0  0  0  0
    1.6605    2.0119    1.5205 H   0  0  0  0  0  0  0  0  0  0  0  0
    2.4293    3.2517    2.3997 H   0  0  0  0  0  0  0  0  0  0  0  0
    3.2098    2.4501    0.9978 H   0  0  0  0  0  0  0  0  0  0  0  0
  1  5  1  0
  5  6  1  0
  5  7  2  0
  1  2  1  0
  1  3  1  0
  1  4  1  0
  8 12  1  0
 12 15  1  0
  8  9  1  0
  8 10  1  0
  8 11  1  0
 12 13  1  0
 12 14  1  0
 15 16  1  0
 15 17  1  0
 15 18  1  0
M  CHG  1   6  -1
M  END
>  <PDB_ID>  (604) 
pdb2pbr

>  <RESIDUE_NAME>  (604) 
GLU   LEU

>  <FRAG_NAME>  (604) 
ACET   PRPA

>  <FRAG_ATOM_NUM>  (604) 
fragi: 7  fragj: 11

>  <atom.prop.CHAIN_ID>  (604) 
A A A A A A A Z Z Z Z Z Z Z Z Z Z Z

>  <atom.prop.IS_HEAVY_ATOM>  (604) 
1 0 0 0 1 1 1 1 0 0 0 1 0 0 1 0 0 0

>  <DIFUSE_FUNC_ATOM>  (604) 
atom 6   atom 7   

>  <FINAL_SINGLE_POINT_ENERGY>  (604) 
0

>  <NONCOV_INTER_ENERGY_QM>  (604) 
0

>  <FF_Energy>  (604) 
48.7

>  <QM_Energy>  (604) 
3.87

>  <source>  (604) 
ACET_PRPA_05

>  <Index>  (604) 
32444

$$$$
ACET-pdb2per-A-ASP-82:PRPA-pdb2per-A-LYS-85
     RDKit          3D

 18 16  0  0  0  0  0  0  0  0999 V2000
    0.0152    1.5300   -0.0203 C   0  0  0  0  0  0  0  0  0  0  0  0
    0.6490    1.8465    0.6736 H   0  0  0  0  0  0  0  0  0  0  0  0
   -0.9025    1.8562    0.1665 H   0  0  0  0  0  0  0  0  0  0  0  0
    0.3320    1.9357   -0.9812 H   0  0  0  0  0  0  0  0  0  0  0  0
    0.0000    0.0000    0.0000 C   0  0  0  0  0  0  0  0  0  0  0  0
   -1.1028   -0.6138   -0.0000 O   0  0  0  0  0  1  0  0  0  0  0  0
    1.1028   -0.5825    0.0000 O   0  0  0  0  0  0  0  0  0  0  0  0
   -4.4996    0.3908   -0.7698 C   0  0  0  0  0  0  0  0  0  0  0  0
   -5.1811   -0.1150   -0.2281 H   0  0  0  0  0  0  0  0  0  0  0  0
   -3.8009   -0.3203   -1.2106 H   0  0  0  0  0  0  0  0  0  0  0  0
   -5.0227    0.9609   -1.5376 H   0  0  0  0  0  0  0  0  0  0  0  0
   -3.7780    1.3678    0.1714 C   0  0  0  0  0  0  0  0  0  0  0  0
   -3.1019    1.8703   -0.3643 H   0  0  0  0  0  0  0  0  0  0  0  0
   -4.4570    2.0018    0.5371 H   0  0  0  0  0  0  0  0  0  0  0  0
   -3.0645    0.6999    1.3387 C   0  0  0  0  0  0  0  0  0  0  0  0
   -3.7353    0.1958    1.8837 H   0  0  0  0  0  0  0  0  0  0  0  0
   -2.3801    0.0653    0.9823 H   0  0  0  0  0  0  0  0  0  0  0  0
   -2.5702    1.4327    1.9765 H   0  0  0  0  0  0  0  0  0  0  0  0
  1  5  1  0
  5  6  1  0
  5  7  2  0
  1  2  1  0
  1  3  1  0
  1  4  1  0
  8 12  1  0
 12 15  1  0
  8  9  1  0
  8 10  1  0
  8 11  1  0
 12 13  1  0
 12 14  1  0
 15 16  1  0
 15 17  1  0
 15 18  1  0
M  CHG  1   6  -1
M  END
>  <PDB_ID>  (605) 
pdb2per

>  <RESIDUE_NAME>  (605) 
ASP   LYS

>  <FRAG_NAME>  (605) 
ACET   PRPA

>  <FRAG_ATOM_NUM>  (605) 
fragi: 7  fragj: 11

>  <atom.prop.CHAIN_ID>  (605) 
A A A A A A A Z Z Z Z Z Z Z Z Z Z Z

>  <atom.prop.IS_HEAVY_ATOM>  (605) 
1 0 0 0 1 1 1 1 0 0 0 1 0 0 1 0 0 0

>  <DIFUSE_FUNC_ATOM>  (605) 
atom 6   atom 7   

>  <FINAL_SINGLE_POINT_ENERGY>  (605) 
0

>  <NONCOV_INTER_ENERGY_QM>  (605) 
0

>  <FF_Energy>  (605) 
41.24

>  <QM_Energy>  (605) 
1.38

>  <source>  (605) 
ACET_PRPA_05

>  <Index>  (605) 
32487

$$$$
ACET-pdb2per-A-ASP-82:PRPA-pdb2per-A-LYS-85
     RDKit          3D

 18 16  0  0  0  0  0  0  0  0999 V2000
    0.0152    1.5300   -0.0203 C   0  0  0  0  0  0  0  0  0  0  0  0
    0.6490    1.8465    0.6736 H   0  0  0  0  0  0  0  0  0  0  0  0
   -0.9025    1.8562    0.1665 H   0  0  0  0  0  0  0  0  0  0  0  0
    0.3320    1.9357   -0.9812 H   0  0  0  0  0  0  0  0  0  0  0  0
    0.0000    0.0000    0.0000 C   0  0  0  0  0  0  0  0  0  0  0  0
   -1.1028   -0.6138   -0.0000 O   0  0  0  0  0  1  0  0  0  0  0  0
    1.1028   -0.5825    0.0000 O   0  0  0  0  0  0  0  0  0  0  0  0
   -3.0645    0.6999    1.3387 C   0  0  0  0  0  0  0  0  0  0  0  0
   -3.7353    0.1958    1.8837 H   0  0  0  0  0  0  0  0  0  0  0  0
   -2.3801    0.0653    0.9823 H   0  0  0  0  0  0  0  0  0  0  0  0
   -3.5753    1.1781    0.5029 H   0  0  0  0  0  0  0  0  0  0  0  0
   -2.3754    1.7214    2.2277 C   0  0  0  0  0  0  0  0  0  0  0  0
   -1.7082    2.2258    1.6787 H   0  0  0  0  0  0  0  0  0  0  0  0
   -3.0638    2.3563    2.5810 H   0  0  0  0  0  0  0  0  0  0  0  0
   -1.6590    1.0836    3.3960 C   0  0  0  0  0  0  0  0  0  0  0  0
   -2.3208    0.5817    3.9524 H   0  0  0  0  0  0  0  0  0  0  0  0
   -0.9657    0.4512    3.0510 H   0  0  0  0  0  0  0  0  0  0  0  0
   -1.1765    1.8427    4.0117 H   0  0  0  0  0  0  0  0  0  0  0  0
  1  5  1  0
  5  6  1  0
  5  7  2  0
  1  2  1  0
  1  3  1  0
  1  4  1  0
  8 12  1  0
 12 15  1  0
  8  9  1  0
  8 10  1  0
  8 11  1  0
 12 13  1  0
 12 14  1  0
 15 16  1  0
 15 17  1  0
 15 18  1  0
M  CHG  1   6  -1
M  END
>  <PDB_ID>  (606) 
pdb2per

>  <RESIDUE_NAME>  (606) 
ASP   LYS

>  <FRAG_NAME>  (606) 
ACET   PRPA

>  <FRAG_ATOM_NUM>  (606) 
fragi: 7  fragj: 11

>  <atom.prop.CHAIN_ID>  (606) 
A A A A A A A Z Z Z Z Z Z Z Z Z Z Z

>  <atom.prop.IS_HEAVY_ATOM>  (606) 
1 0 0 0 1 1 1 1 0 0 0 1 0 0 1 0 0 0

>  <DIFUSE_FUNC_ATOM>  (606) 
atom 6   atom 7   

>  <FINAL_SINGLE_POINT_ENERGY>  (606) 
0

>  <NONCOV_INTER_ENERGY_QM>  (606) 
0

>  <FF_Energy>  (606) 
46.69

>  <QM_Energy>  (606) 
4.0

>  <source>  (606) 
ACET_PRPA_05

>  <Index>  (606) 
32506

$$$$
ACET-pdb2pd7-B-GLU-144:PRPA-pdb2pd7-B-VAL-62
     RDKit          3D

 18 16  0  0  0  0  0  0  0  0999 V2000
   -0.0198    1.5341    0.0017 C   0  0  0  0  0  0  0  0  0  0  0  0
   -0.4590    1.8099    0.8308 H   0  0  0  0  0  0  0  0  0  0  0  0
   -0.5067    1.8107   -0.8001 H   0  0  0  0  0  0  0  0  0  0  0  0
    0.9901    1.9432   -0.0268 H   0  0  0  0  0  0  0  0  0  0  0  0
    0.0000    0.0000    0.0000 C   0  0  0  0  0  0  0  0  0  0  0  0
   -1.0925   -0.5832    0.0000 O   0  0  0  0  0  1  0  0  0  0  0  0
    1.0925   -0.6296   -0.0000 O   0  0  0  0  0  0  0  0  0  0  0  0
   -3.9380   -0.8955    0.8341 C   0  0  0  0  0  0  0  0  0  0  0  0
   -4.7602   -0.7892    1.3587 H   0  0  0  0  0  0  0  0  0  0  0  0
   -3.1334   -1.1754    1.5140 H   0  0  0  0  0  0  0  0  0  0  0  0
   -4.0543   -1.7639    0.1856 H   0  0  0  0  0  0  0  0  0  0  0  0
   -3.5895    0.3181   -0.0885 C   0  0  0  0  0  0  0  0  0  0  0  0
   -2.6982    0.1416   -0.4776 H   0  0  0  0  0  0  0  0  0  0  0  0
   -4.3024    0.3644   -0.9118 H   0  0  0  0  0  0  0  0  0  0  0  0
   -3.6296    1.6239    0.6768 C   0  0  0  0  0  0  0  0  0  0  0  0
   -3.0770    1.5418    1.5072 H   0  0  0  0  0  0  0  0  0  0  0  0
   -3.2628    2.3586    0.1036 H   0  0  0  0  0  0  0  0  0  0  0  0
   -4.5757    1.8363    0.9254 H   0  0  0  0  0  0  0  0  0  0  0  0
  1  5  1  0
  5  6  1  0
  5  7  2  0
  1  2  1  0
  1  3  1  0
  1  4  1  0
  8 12  1  0
 12 15  1  0
  8  9  1  0
  8 10  1  0
  8 11  1  0
 12 13  1  0
 12 14  1  0
 15 16  1  0
 15 17  1  0
 15 18  1  0
M  CHG  1   6  -1
M  END
>  <PDB_ID>  (607) 
pdb2pd7

>  <RESIDUE_NAME>  (607) 
GLU   VAL

>  <FRAG_NAME>  (607) 
ACET   PRPA

>  <FRAG_ATOM_NUM>  (607) 
fragi: 7  fragj: 11

>  <atom.prop.CHAIN_ID>  (607) 
A A A A A A A Z Z Z Z Z Z Z Z Z Z Z

>  <atom.prop.IS_HEAVY_ATOM>  (607) 
1 0 0 0 1 1 1 1 0 0 0 1 0 0 1 0 0 0

>  <DIFUSE_FUNC_ATOM>  (607) 
atom 6   atom 7   

>  <FINAL_SINGLE_POINT_ENERGY>  (607) 
0

>  <NONCOV_INTER_ENERGY_QM>  (607) 
0

>  <FF_Energy>  (607) 
30.14

>  <QM_Energy>  (607) 
1.15

>  <source>  (607) 
ACET_PRPA_05

>  <Index>  (607) 
32610

$$$$
ACET-pdb2pd7-B-GLU-144:PRPA-pdb2pd7-B-VAL-62
     RDKit          3D

 18 16  0  0  0  0  0  0  0  0999 V2000
   -0.0198    1.5341    0.0017 C   0  0  0  0  0  0  0  0  0  0  0  0
   -0.4590    1.8099    0.8308 H   0  0  0  0  0  0  0  0  0  0  0  0
   -0.5067    1.8107   -0.8001 H   0  0  0  0  0  0  0  0  0  0  0  0
    0.9901    1.9432   -0.0268 H   0  0  0  0  0  0  0  0  0  0  0  0
    0.0000    0.0000    0.0000 C   0  0  0  0  0  0  0  0  0  0  0  0
   -1.0925   -0.5832    0.0000 O   0  0  0  0  0  1  0  0  0  0  0  0
    1.0925   -0.6296   -0.0000 O   0  0  0  0  0  0  0  0  0  0  0  0
   -3.9380   -0.8955    0.8341 C   0  0  0  0  0  0  0  0  0  0  0  0
   -4.7602   -0.7892    1.3587 H   0  0  0  0  0  0  0  0  0  0  0  0
   -3.1334   -1.1754    1.5140 H   0  0  0  0  0  0  0  0  0  0  0  0
   -4.0543   -1.7639    0.1856 H   0  0  0  0  0  0  0  0  0  0  0  0
   -3.5895    0.3181   -0.0885 C   0  0  0  0  0  0  0  0  0  0  0  0
   -2.6982    0.1416   -0.4776 H   0  0  0  0  0  0  0  0  0  0  0  0
   -3.6183    1.2582    0.4624 H   0  0  0  0  0  0  0  0  0  0  0  0
   -4.5843    0.3827   -1.2374 C   0  0  0  0  0  0  0  0  0  0  0  0
   -5.3325    1.0010   -0.9973 H   0  0  0  0  0  0  0  0  0  0  0  0
   -4.1249    0.7195   -2.0589 H   0  0  0  0  0  0  0  0  0  0  0  0
   -4.9514   -0.5308   -1.4129 H   0  0  0  0  0  0  0  0  0  0  0  0
  1  5  1  0
  5  6  1  0
  5  7  2  0
  1  2  1  0
  1  3  1  0
  1  4  1  0
  8 12  1  0
 12 15  1  0
  8  9  1  0
  8 10  1  0
  8 11  1  0
 12 13  1  0
 12 14  1  0
 15 16  1  0
 15 17  1  0
 15 18  1  0
M  CHG  1   6  -1
M  END
>  <PDB_ID>  (608) 
pdb2pd7

>  <RESIDUE_NAME>  (608) 
GLU   VAL

>  <FRAG_NAME>  (608) 
ACET   PRPA

>  <FRAG_ATOM_NUM>  (608) 
fragi: 7  fragj: 11

>  <atom.prop.CHAIN_ID>  (608) 
A A A A A A A Z Z Z Z Z Z Z Z Z Z Z

>  <atom.prop.IS_HEAVY_ATOM>  (608) 
1 0 0 0 1 1 1 1 0 0 0 1 0 0 1 0 0 0

>  <DIFUSE_FUNC_ATOM>  (608) 
atom 6   atom 7   

>  <FINAL_SINGLE_POINT_ENERGY>  (608) 
0

>  <NONCOV_INTER_ENERGY_QM>  (608) 
0

>  <FF_Energy>  (608) 
29.84

>  <QM_Energy>  (608) 
2.47

>  <source>  (608) 
ACET_PRPA_05

>  <Index>  (608) 
32613

$$$$
ACET-pdb2pfc-A-GLU-50:PRPA-pdb2pfc-A-ARG-100
     RDKit          3D

 18 16  0  0  0  0  0  0  0  0999 V2000
   -0.0025    1.5337   -0.0401 C   0  0  0  0  0  0  0  0  0  0  0  0
    0.1718    1.8016   -0.9688 H   0  0  0  0  0  0  0  0  0  0  0  0
    0.6980    1.8425    0.5754 H   0  0  0  0  0  0  0  0  0  0  0  0
   -0.9504    1.9734    0.2703 H   0  0  0  0  0  0  0  0  0  0  0  0
    0.0000    0.0000    0.0000 C   0  0  0  0  0  0  0  0  0  0  0  0
   -1.1045   -0.5908    0.0000 O   0  0  0  0  0  1  0  0  0  0  0  0
    1.1045   -0.6157   -0.0000 O   0  0  0  0  0  0  0  0  0  0  0  0
    3.4322    3.1958    0.6359 C   0  0  0  0  0  0  0  0  0  0  0  0
    3.7546    2.2722    0.8743 H   0  0  0  0  0  0  0  0  0  0  0  0
    2.8091    3.5628    1.4515 H   0  0  0  0  0  0  0  0  0  0  0  0
    4.2935    3.8460    0.4824 H   0  0  0  0  0  0  0  0  0  0  0  0
    2.6457    3.0089   -0.6884 C   0  0  0  0  0  0  0  0  0  0  0  0
    1.7927    2.5536   -0.4830 H   0  0  0  0  0  0  0  0  0  0  0  0
    2.4888    3.8998   -1.0868 H   0  0  0  0  0  0  0  0  0  0  0  0
    3.3936    2.1457   -1.7523 C   0  0  0  0  0  0  0  0  0  0  0  0
    4.3595    2.4204   -1.7671 H   0  0  0  0  0  0  0  0  0  0  0  0
    3.3354    1.1805   -1.4806 H   0  0  0  0  0  0  0  0  0  0  0  0
    3.0046    2.2313   -2.7670 H   0  0  0  0  0  0  0  0  0  0  0  0
  1  5  1  0
  5  6  1  0
  5  7  2  0
  1  2  1  0
  1  3  1  0
  1  4  1  0
  8 12  1  0
 12 15  1  0
  8  9  1  0
  8 10  1  0
  8 11  1  0
 12 13  1  0
 12 14  1  0
 15 16  1  0
 15 17  1  0
 15 18  1  0
M  CHG  1   6  -1
M  END
>  <PDB_ID>  (609) 
pdb2pfc

>  <RESIDUE_NAME>  (609) 
GLU   ARG

>  <FRAG_NAME>  (609) 
ACET   PRPA

>  <FRAG_ATOM_NUM>  (609) 
fragi: 7  fragj: 11

>  <atom.prop.CHAIN_ID>  (609) 
A A A A A A A Z Z Z Z Z Z Z Z Z Z Z

>  <atom.prop.IS_HEAVY_ATOM>  (609) 
1 0 0 0 1 1 1 1 0 0 0 1 0 0 1 0 0 0

>  <DIFUSE_FUNC_ATOM>  (609) 
atom 6   atom 7   

>  <FINAL_SINGLE_POINT_ENERGY>  (609) 
0

>  <NONCOV_INTER_ENERGY_QM>  (609) 
0

>  <FF_Energy>  (609) 
21.88

>  <QM_Energy>  (609) 
2.7

>  <source>  (609) 
ACET_PRPA_05

>  <Index>  (609) 
32712

$$$$
ACET-pdb2pfc-A-GLU-50:PRPA-pdb2pfc-A-ARG-100
     RDKit          3D

 18 16  0  0  0  0  0  0  0  0999 V2000
   -0.0025    1.5337   -0.0401 C   0  0  0  0  0  0  0  0  0  0  0  0
    0.1718    1.8016   -0.9688 H   0  0  0  0  0  0  0  0  0  0  0  0
    0.6980    1.8425    0.5754 H   0  0  0  0  0  0  0  0  0  0  0  0
   -0.9504    1.9734    0.2703 H   0  0  0  0  0  0  0  0  0  0  0  0
    0.0000    0.0000    0.0000 C   0  0  0  0  0  0  0  0  0  0  0  0
   -1.1045   -0.5908    0.0000 O   0  0  0  0  0  1  0  0  0  0  0  0
    1.1045   -0.6157   -0.0000 O   0  0  0  0  0  0  0  0  0  0  0  0
    2.6457    3.0089   -0.6884 C   0  0  0  0  0  0  0  0  0  0  0  0
    1.7927    2.5536   -0.4830 H   0  0  0  0  0  0  0  0  0  0  0  0
    2.4888    3.8998   -1.0868 H   0  0  0  0  0  0  0  0  0  0  0  0
    3.1982    3.1403    0.2420 H   0  0  0  0  0  0  0  0  0  0  0  0
    3.3936    2.1457   -1.7523 C   0  0  0  0  0  0  0  0  0  0  0  0
    4.3595    2.4204   -1.7671 H   0  0  0  0  0  0  0  0  0  0  0  0
    3.3354    1.1805   -1.4806 H   0  0  0  0  0  0  0  0  0  0  0  0
    2.8422    2.2670   -3.1905 C   0  0  0  0  0  0  0  0  0  0  0  0
    3.4671    1.7888   -3.7905 H   0  0  0  0  0  0  0  0  0  0  0  0
    1.9453    1.8481   -3.2009 H   0  0  0  0  0  0  0  0  0  0  0  0
    2.7658    3.3115   -3.4925 H   0  0  0  0  0  0  0  0  0  0  0  0
  1  5  1  0
  5  6  1  0
  5  7  2  0
  1  2  1  0
  1  3  1  0
  1  4  1  0
  8 12  1  0
 12 15  1  0
  8  9  1  0
  8 10  1  0
  8 11  1  0
 12 13  1  0
 12 14  1  0
 15 16  1  0
 15 17  1  0
 15 18  1  0
M  CHG  1   6  -1
M  END
>  <PDB_ID>  (610) 
pdb2pfc

>  <RESIDUE_NAME>  (610) 
GLU   ARG

>  <FRAG_NAME>  (610) 
ACET   PRPA

>  <FRAG_ATOM_NUM>  (610) 
fragi: 7  fragj: 11

>  <atom.prop.CHAIN_ID>  (610) 
A A A A A A A Z Z Z Z Z Z Z Z Z Z Z

>  <atom.prop.IS_HEAVY_ATOM>  (610) 
1 0 0 0 1 1 1 1 0 0 0 1 0 0 1 0 0 0

>  <DIFUSE_FUNC_ATOM>  (610) 
atom 6   atom 7   

>  <FINAL_SINGLE_POINT_ENERGY>  (610) 
0

>  <NONCOV_INTER_ENERGY_QM>  (610) 
0

>  <FF_Energy>  (610) 
18.99

>  <QM_Energy>  (610) 
3.13

>  <source>  (610) 
ACET_PRPA_05

>  <Index>  (610) 
32717

$$$$
ACET-pdb1l2i-A-ASP-411:PRPA-pdb1l2i-A-LYS-401
     RDKit          3D

 18 16  0  0  0  0  0  0  0  0999 V2000
    0.0352    1.5160   -0.0188 C   0  0  0  0  0  0  0  0  0  0  0  0
    0.5279    1.8134   -0.8362 H   0  0  0  0  0  0  0  0  0  0  0  0
    0.5179    1.8342    0.7960 H   0  0  0  0  0  0  0  0  0  0  0  0
   -0.9487    1.9847   -0.0314 H   0  0  0  0  0  0  0  0  0  0  0  0
    0.0000    0.0000    0.0000 C   0  0  0  0  0  0  0  0  0  0  0  0
   -1.0952   -0.6009   -0.0000 O   0  0  0  0  0  1  0  0  0  0  0  0
    1.0952   -0.5839    0.0000 O   0  0  0  0  0  0  0  0  0  0  0  0
   -4.2705    0.1007    2.8275 C   0  0  0  0  0  0  0  0  0  0  0  0
   -3.7269    0.8145    2.3469 H   0  0  0  0  0  0  0  0  0  0  0  0
   -3.9093    0.0185    3.8526 H   0  0  0  0  0  0  0  0  0  0  0  0
   -5.3256    0.3649    2.7559 H   0  0  0  0  0  0  0  0  0  0  0  0
   -4.0122   -1.2053    2.0857 C   0  0  0  0  0  0  0  0  0  0  0  0
   -4.5047   -1.9390    2.5607 H   0  0  0  0  0  0  0  0  0  0  0  0
   -4.3809   -1.1168    1.1560 H   0  0  0  0  0  0  0  0  0  0  0  0
   -2.5491   -1.6118    1.9768 C   0  0  0  0  0  0  0  0  0  0  0  0
   -2.0471   -0.8889    1.4955 H   0  0  0  0  0  0  0  0  0  0  0  0
   -2.1700   -1.7123    2.8999 H   0  0  0  0  0  0  0  0  0  0  0  0
   -2.4237   -2.5502    1.4367 H   0  0  0  0  0  0  0  0  0  0  0  0
  1  5  1  0
  5  6  1  0
  5  7  2  0
  1  2  1  0
  1  3  1  0
  1  4  1  0
  8 12  1  0
 12 15  1  0
  8  9  1  0
  8 10  1  0
  8 11  1  0
 12 13  1  0
 12 14  1  0
 15 16  1  0
 15 17  1  0
 15 18  1  0
M  CHG  1   6  -1
M  END
>  <PDB_ID>  (611) 
pdb1l2i

>  <RESIDUE_NAME>  (611) 
ASP   LYS

>  <FRAG_NAME>  (611) 
ACET   PRPA

>  <FRAG_ATOM_NUM>  (611) 
fragi: 7  fragj: 11

>  <atom.prop.CHAIN_ID>  (611) 
A A A A A A A Z Z Z Z Z Z Z Z Z Z Z

>  <atom.prop.IS_HEAVY_ATOM>  (611) 
1 0 0 0 1 1 1 1 0 0 0 1 0 0 1 0 0 0

>  <DIFUSE_FUNC_ATOM>  (611) 
atom 6   atom 7   

>  <FINAL_SINGLE_POINT_ENERGY>  (611) 
0

>  <NONCOV_INTER_ENERGY_QM>  (611) 
0

>  <FF_Energy>  (611) 
30.4

>  <QM_Energy>  (611) 
2.78

>  <source>  (611) 
ACET_PRPA_05

>  <Index>  (611) 
33234

$$$$
ACET-pdb1l2i-A-ASP-411:PRPA-pdb1l2i-A-LYS-401
     RDKit          3D

 18 16  0  0  0  0  0  0  0  0999 V2000
    0.0352    1.5160   -0.0188 C   0  0  0  0  0  0  0  0  0  0  0  0
    0.5279    1.8134   -0.8362 H   0  0  0  0  0  0  0  0  0  0  0  0
    0.5179    1.8342    0.7960 H   0  0  0  0  0  0  0  0  0  0  0  0
   -0.9487    1.9847   -0.0314 H   0  0  0  0  0  0  0  0  0  0  0  0
    0.0000    0.0000    0.0000 C   0  0  0  0  0  0  0  0  0  0  0  0
   -1.0952   -0.6009   -0.0000 O   0  0  0  0  0  1  0  0  0  0  0  0
    1.0952   -0.5839    0.0000 O   0  0  0  0  0  0  0  0  0  0  0  0
   -4.0122   -1.2053    2.0857 C   0  0  0  0  0  0  0  0  0  0  0  0
   -4.5047   -1.9390    2.5607 H   0  0  0  0  0  0  0  0  0  0  0  0
   -4.3809   -1.1168    1.1560 H   0  0  0  0  0  0  0  0  0  0  0  0
   -4.1970   -0.2712    2.6163 H   0  0  0  0  0  0  0  0  0  0  0  0
   -2.5491   -1.6118    1.9768 C   0  0  0  0  0  0  0  0  0  0  0  0
   -2.0471   -0.8889    1.4955 H   0  0  0  0  0  0  0  0  0  0  0  0
   -2.1700   -1.7123    2.8999 H   0  0  0  0  0  0  0  0  0  0  0  0
   -2.3748   -2.9158    1.2263 C   0  0  0  0  0  0  0  0  0  0  0  0
   -2.8793   -3.6348    1.7096 H   0  0  0  0  0  0  0  0  0  0  0  0
   -2.7550   -2.8114    0.3053 H   0  0  0  0  0  0  0  0  0  0  0  0
   -1.3315   -3.2196    1.1411 H   0  0  0  0  0  0  0  0  0  0  0  0
  1  5  1  0
  5  6  1  0
  5  7  2  0
  1  2  1  0
  1  3  1  0
  1  4  1  0
  8 12  1  0
 12 15  1  0
  8  9  1  0
  8 10  1  0
  8 11  1  0
 12 13  1  0
 12 14  1  0
 15 16  1  0
 15 17  1  0
 15 18  1  0
M  CHG  1   6  -1
M  END
>  <PDB_ID>  (612) 
pdb1l2i

>  <RESIDUE_NAME>  (612) 
ASP   LYS

>  <FRAG_NAME>  (612) 
ACET   PRPA

>  <FRAG_ATOM_NUM>  (612) 
fragi: 7  fragj: 11

>  <atom.prop.CHAIN_ID>  (612) 
A A A A A A A Z Z Z Z Z Z Z Z Z Z Z

>  <atom.prop.IS_HEAVY_ATOM>  (612) 
1 0 0 0 1 1 1 1 0 0 0 1 0 0 1 0 0 0

>  <DIFUSE_FUNC_ATOM>  (612) 
atom 6   atom 7   

>  <FINAL_SINGLE_POINT_ENERGY>  (612) 
0

>  <NONCOV_INTER_ENERGY_QM>  (612) 
0

>  <FF_Energy>  (612) 
36.49

>  <QM_Energy>  (612) 
1.66

>  <source>  (612) 
ACET_PRPA_05

>  <Index>  (612) 
33237

$$$$
ACET-pdb1l2i-A-ASP-411:PRPA-pdb1l2i-A-LYS-401
     RDKit          3D

 18 16  0  0  0  0  0  0  0  0999 V2000
    0.0352    1.5160   -0.0188 C   0  0  0  0  0  0  0  0  0  0  0  0
    0.5279    1.8134   -0.8362 H   0  0  0  0  0  0  0  0  0  0  0  0
    0.5179    1.8342    0.7960 H   0  0  0  0  0  0  0  0  0  0  0  0
   -0.9487    1.9847   -0.0314 H   0  0  0  0  0  0  0  0  0  0  0  0
    0.0000    0.0000    0.0000 C   0  0  0  0  0  0  0  0  0  0  0  0
   -1.0952   -0.6009   -0.0000 O   0  0  0  0  0  1  0  0  0  0  0  0
    1.0952   -0.5839    0.0000 O   0  0  0  0  0  0  0  0  0  0  0  0
   -2.5491   -1.6118    1.9768 C   0  0  0  0  0  0  0  0  0  0  0  0
   -2.0471   -0.8889    1.4955 H   0  0  0  0  0  0  0  0  0  0  0  0
   -2.1700   -1.7123    2.8999 H   0  0  0  0  0  0  0  0  0  0  0  0
   -3.5965   -1.3208    2.0548 H   0  0  0  0  0  0  0  0  0  0  0  0
   -2.3748   -2.9158    1.2263 C   0  0  0  0  0  0  0  0  0  0  0  0
   -2.8793   -3.6348    1.7096 H   0  0  0  0  0  0  0  0  0  0  0  0
   -2.7550   -2.8114    0.3053 H   0  0  0  0  0  0  0  0  0  0  0  0
   -0.9294   -3.3365    1.1083 C   0  0  0  0  0  0  0  0  0  0  0  0
   -0.4193   -2.6258    0.6215 H   0  0  0  0  0  0  0  0  0  0  0  0
   -0.5436   -3.4492    2.0257 H   0  0  0  0  0  0  0  0  0  0  0  0
   -0.8420   -4.2771    0.5643 H   0  0  0  0  0  0  0  0  0  0  0  0
  1  5  1  0
  5  6  1  0
  5  7  2  0
  1  2  1  0
  1  3  1  0
  1  4  1  0
  8 12  1  0
 12 15  1  0
  8  9  1  0
  8 10  1  0
  8 11  1  0
 12 13  1  0
 12 14  1  0
 15 16  1  0
 15 17  1  0
 15 18  1  0
M  CHG  1   6  -1
M  END
>  <PDB_ID>  (613) 
pdb1l2i

>  <RESIDUE_NAME>  (613) 
ASP   LYS

>  <FRAG_NAME>  (613) 
ACET   PRPA

>  <FRAG_ATOM_NUM>  (613) 
fragi: 7  fragj: 11

>  <atom.prop.CHAIN_ID>  (613) 
A A A A A A A Z Z Z Z Z Z Z Z Z Z Z

>  <atom.prop.IS_HEAVY_ATOM>  (613) 
1 0 0 0 1 1 1 1 0 0 0 1 0 0 1 0 0 0

>  <DIFUSE_FUNC_ATOM>  (613) 
atom 6   atom 7   

>  <FINAL_SINGLE_POINT_ENERGY>  (613) 
0

>  <NONCOV_INTER_ENERGY_QM>  (613) 
0

>  <FF_Energy>  (613) 
35.22

>  <QM_Energy>  (613) 
0.8

>  <source>  (613) 
ACET_PRPA_05

>  <Index>  (613) 
33242

$$$$
ACET-pdb1l1e-A-GLU-176:PRPA-pdb1l1e-A-LYS-180
     RDKit          3D

 18 16  0  0  0  0  0  0  0  0999 V2000
    0.0010    1.5304   -0.0008 C   0  0  0  0  0  0  0  0  0  0  0  0
    0.9334    1.8237   -0.0746 H   0  0  0  0  0  0  0  0  0  0  0  0
   -0.4240    1.8246    0.8332 H   0  0  0  0  0  0  0  0  0  0  0  0
   -0.5567    1.9541   -0.8360 H   0  0  0  0  0  0  0  0  0  0  0  0
    0.0000    0.0000    0.0000 C   0  0  0  0  0  0  0  0  0  0  0  0
   -1.1168   -0.6453    0.0000 O   0  0  0  0  0  1  0  0  0  0  0  0
    1.1168   -0.6461   -0.0000 O   0  0  0  0  0  0  0  0  0  0  0  0
   -0.4758    0.3365   -4.8008 C   0  0  0  0  0  0  0  0  0  0  0  0
   -0.1461   -0.6094   -4.8964 H   0  0  0  0  0  0  0  0  0  0  0  0
   -0.0714    0.9308   -5.6202 H   0  0  0  0  0  0  0  0  0  0  0  0
   -1.5657    0.3297   -4.8174 H   0  0  0  0  0  0  0  0  0  0  0  0
   -0.0457    0.9099   -3.4446 C   0  0  0  0  0  0  0  0  0  0  0  0
    0.5678    1.6700   -3.6061 H   0  0  0  0  0  0  0  0  0  0  0  0
   -0.8564    1.2048   -2.9588 H   0  0  0  0  0  0  0  0  0  0  0  0
    0.6861   -0.1199   -2.5754 C   0  0  0  0  0  0  0  0  0  0  0  0
    1.3604    0.3578   -2.0055 H   0  0  0  0  0  0  0  0  0  0  0  0
    0.0203   -0.5740   -1.9799 H   0  0  0  0  0  0  0  0  0  0  0  0
    1.2031   -0.8781   -3.1636 H   0  0  0  0  0  0  0  0  0  0  0  0
  1  5  1  0
  5  6  1  0
  5  7  2  0
  1  2  1  0
  1  3  1  0
  1  4  1  0
  8 12  1  0
 12 15  1  0
  8  9  1  0
  8 10  1  0
  8 11  1  0
 12 13  1  0
 12 14  1  0
 15 16  1  0
 15 17  1  0
 15 18  1  0
M  CHG  1   6  -1
M  END
>  <PDB_ID>  (614) 
pdb1l1e

>  <RESIDUE_NAME>  (614) 
GLU   LYS

>  <FRAG_NAME>  (614) 
ACET   PRPA

>  <FRAG_ATOM_NUM>  (614) 
fragi: 7  fragj: 11

>  <atom.prop.CHAIN_ID>  (614) 
A A A A A A A Z Z Z Z Z Z Z Z Z Z Z

>  <atom.prop.IS_HEAVY_ATOM>  (614) 
1 0 0 0 1 1 1 1 0 0 0 1 0 0 1 0 0 0

>  <DIFUSE_FUNC_ATOM>  (614) 
atom 6   atom 7   

>  <FINAL_SINGLE_POINT_ENERGY>  (614) 
0

>  <NONCOV_INTER_ENERGY_QM>  (614) 
0

>  <FF_Energy>  (614) 
30.25

>  <QM_Energy>  (614) 
5.48

>  <source>  (614) 
ACET_PRPA_05

>  <Index>  (614) 
33771

$$$$
ACET-pdb1l1e-A-GLU-176:PRPA-pdb1l1e-A-LYS-180
     RDKit          3D

 18 16  0  0  0  0  0  0  0  0999 V2000
    0.0010    1.5304   -0.0008 C   0  0  0  0  0  0  0  0  0  0  0  0
    0.9334    1.8237   -0.0746 H   0  0  0  0  0  0  0  0  0  0  0  0
   -0.4240    1.8246    0.8332 H   0  0  0  0  0  0  0  0  0  0  0  0
   -0.5567    1.9541   -0.8360 H   0  0  0  0  0  0  0  0  0  0  0  0
    0.0000    0.0000    0.0000 C   0  0  0  0  0  0  0  0  0  0  0  0
   -1.1168   -0.6453    0.0000 O   0  0  0  0  0  1  0  0  0  0  0  0
    1.1168   -0.6461   -0.0000 O   0  0  0  0  0  0  0  0  0  0  0  0
   -0.0457    0.9099   -3.4446 C   0  0  0  0  0  0  0  0  0  0  0  0
    0.5678    1.6700   -3.6061 H   0  0  0  0  0  0  0  0  0  0  0  0
   -0.8564    1.2048   -2.9588 H   0  0  0  0  0  0  0  0  0  0  0  0
   -0.3513    0.5024   -4.4083 H   0  0  0  0  0  0  0  0  0  0  0  0
    0.6861   -0.1199   -2.5754 C   0  0  0  0  0  0  0  0  0  0  0  0
    1.3604    0.3578   -2.0055 H   0  0  0  0  0  0  0  0  0  0  0  0
    0.0203   -0.5740   -1.9799 H   0  0  0  0  0  0  0  0  0  0  0  0
    1.4136   -1.1866   -3.4029 C   0  0  0  0  0  0  0  0  0  0  0  0
    1.0557   -1.1658   -4.3361 H   0  0  0  0  0  0  0  0  0  0  0  0
    2.3894   -0.9727   -3.4147 H   0  0  0  0  0  0  0  0  0  0  0  0
    1.2886   -2.1954   -3.0096 H   0  0  0  0  0  0  0  0  0  0  0  0
  1  5  1  0
  5  6  1  0
  5  7  2  0
  1  2  1  0
  1  3  1  0
  1  4  1  0
  8 12  1  0
 12 15  1  0
  8  9  1  0
  8 10  1  0
  8 11  1  0
 12 13  1  0
 12 14  1  0
 15 16  1  0
 15 17  1  0
 15 18  1  0
M  CHG  1   6  -1
M  END
>  <PDB_ID>  (615) 
pdb1l1e

>  <RESIDUE_NAME>  (615) 
GLU   LYS

>  <FRAG_NAME>  (615) 
ACET   PRPA

>  <FRAG_ATOM_NUM>  (615) 
fragi: 7  fragj: 11

>  <atom.prop.CHAIN_ID>  (615) 
A A A A A A A Z Z Z Z Z Z Z Z Z Z Z

>  <atom.prop.IS_HEAVY_ATOM>  (615) 
1 0 0 0 1 1 1 1 0 0 0 1 0 0 1 0 0 0

>  <DIFUSE_FUNC_ATOM>  (615) 
atom 6   atom 7   

>  <FINAL_SINGLE_POINT_ENERGY>  (615) 
0

>  <NONCOV_INTER_ENERGY_QM>  (615) 
0

>  <FF_Energy>  (615) 
30.29

>  <QM_Energy>  (615) 
4.72

>  <source>  (615) 
ACET_PRPA_05

>  <Index>  (615) 
33773

$$$$
ACET-pdb1l1e-A-GLU-176:PRPA-pdb1l1e-A-LYS-180
     RDKit          3D

 18 16  0  0  0  0  0  0  0  0999 V2000
    0.0010    1.5304   -0.0008 C   0  0  0  0  0  0  0  0  0  0  0  0
    0.9334    1.8237   -0.0746 H   0  0  0  0  0  0  0  0  0  0  0  0
   -0.4240    1.8246    0.8332 H   0  0  0  0  0  0  0  0  0  0  0  0
   -0.5567    1.9541   -0.8360 H   0  0  0  0  0  0  0  0  0  0  0  0
    0.0000    0.0000    0.0000 C   0  0  0  0  0  0  0  0  0  0  0  0
   -1.1168   -0.6453    0.0000 O   0  0  0  0  0  1  0  0  0  0  0  0
    1.1168   -0.6461   -0.0000 O   0  0  0  0  0  0  0  0  0  0  0  0
    0.6861   -0.1199   -2.5754 C   0  0  0  0  0  0  0  0  0  0  0  0
    1.3604    0.3578   -2.0055 H   0  0  0  0  0  0  0  0  0  0  0  0
    0.0203   -0.5740   -1.9799 H   0  0  0  0  0  0  0  0  0  0  0  0
    0.1660    0.6121   -3.1933 H   0  0  0  0  0  0  0  0  0  0  0  0
    1.4136   -1.1866   -3.4029 C   0  0  0  0  0  0  0  0  0  0  0  0
    1.0557   -1.1658   -4.3361 H   0  0  0  0  0  0  0  0  0  0  0  0
    2.3894   -0.9727   -3.4147 H   0  0  0  0  0  0  0  0  0  0  0  0
    1.2380   -2.6041   -2.8503 C   0  0  0  0  0  0  0  0  0  0  0  0
    1.7843   -2.6836   -2.0058 H   0  0  0  0  0  0  0  0  0  0  0  0
    0.2662   -2.7294   -2.6050 H   0  0  0  0  0  0  0  0  0  0  0  0
    1.5389   -3.3773   -3.5571 H   0  0  0  0  0  0  0  0  0  0  0  0
  1  5  1  0
  5  6  1  0
  5  7  2  0
  1  2  1  0
  1  3  1  0
  1  4  1  0
  8 12  1  0
 12 15  1  0
  8  9  1  0
  8 10  1  0
  8 11  1  0
 12 13  1  0
 12 14  1  0
 15 16  1  0
 15 17  1  0
 15 18  1  0
M  CHG  1   6  -1
M  END
>  <PDB_ID>  (616) 
pdb1l1e

>  <RESIDUE_NAME>  (616) 
GLU   LYS

>  <FRAG_NAME>  (616) 
ACET   PRPA

>  <FRAG_ATOM_NUM>  (616) 
fragi: 7  fragj: 11

>  <atom.prop.CHAIN_ID>  (616) 
A A A A A A A Z Z Z Z Z Z Z Z Z Z Z

>  <atom.prop.IS_HEAVY_ATOM>  (616) 
1 0 0 0 1 1 1 1 0 0 0 1 0 0 1 0 0 0

>  <DIFUSE_FUNC_ATOM>  (616) 
atom 6   atom 7   

>  <FINAL_SINGLE_POINT_ENERGY>  (616) 
0

>  <NONCOV_INTER_ENERGY_QM>  (616) 
0

>  <FF_Energy>  (616) 
31.1

>  <QM_Energy>  (616) 
4.56

>  <source>  (616) 
ACET_PRPA_05

>  <Index>  (616) 
33775

$$$$
ACET-pdb2phz-A-ASP-98:PRPA-pdb2phz-A-LYS-37
     RDKit          3D

 18 16  0  0  0  0  0  0  0  0999 V2000
   -0.0060    1.5128    0.0046 C   0  0  0  0  0  0  0  0  0  0  0  0
    0.9124    1.8372   -0.1883 H   0  0  0  0  0  0  0  0  0  0  0  0
   -0.3094    1.8293    0.8950 H   0  0  0  0  0  0  0  0  0  0  0  0
   -0.6759    1.9269   -0.7490 H   0  0  0  0  0  0  0  0  0  0  0  0
    0.0000    0.0000    0.0000 C   0  0  0  0  0  0  0  0  0  0  0  0
   -1.0979   -0.5929    0.0000 O   0  0  0  0  0  1  0  0  0  0  0  0
    1.0979   -0.5965   -0.0000 O   0  0  0  0  0  0  0  0  0  0  0  0
    2.3891   -2.1265   -2.4489 C   0  0  0  0  0  0  0  0  0  0  0  0
    2.5758   -2.6380   -3.2908 H   0  0  0  0  0  0  0  0  0  0  0  0
    3.1663   -2.2292   -1.8247 H   0  0  0  0  0  0  0  0  0  0  0  0
    2.2692   -1.0715   -2.6954 H   0  0  0  0  0  0  0  0  0  0  0  0
    1.1470   -2.7043   -1.7879 C   0  0  0  0  0  0  0  0  0  0  0  0
    1.2844   -3.6805   -1.6437 H   0  0  0  0  0  0  0  0  0  0  0  0
    1.0033   -2.2457   -0.9156 H   0  0  0  0  0  0  0  0  0  0  0  0
   -0.0923   -2.5113   -2.6464 C   0  0  0  0  0  0  0  0  0  0  0  0
   -0.2220   -1.5309   -2.8155 H   0  0  0  0  0  0  0  0  0  0  0  0
    0.0443   -2.9755   -3.5263 H   0  0  0  0  0  0  0  0  0  0  0  0
   -0.9857   -2.9118   -2.1673 H   0  0  0  0  0  0  0  0  0  0  0  0
  1  5  1  0
  5  6  1  0
  5  7  2  0
  1  2  1  0
  1  3  1  0
  1  4  1  0
  8 12  1  0
 12 15  1  0
  8  9  1  0
  8 10  1  0
  8 11  1  0
 12 13  1  0
 12 14  1  0
 15 16  1  0
 15 17  1  0
 15 18  1  0
M  CHG  1   6  -1
M  END
>  <PDB_ID>  (617) 
pdb2phz

>  <RESIDUE_NAME>  (617) 
ASP   LYS

>  <FRAG_NAME>  (617) 
ACET   PRPA

>  <FRAG_ATOM_NUM>  (617) 
fragi: 7  fragj: 11

>  <atom.prop.CHAIN_ID>  (617) 
A A A A A A A Z Z Z Z Z Z Z Z Z Z Z

>  <atom.prop.IS_HEAVY_ATOM>  (617) 
1 0 0 0 1 1 1 1 0 0 0 1 0 0 1 0 0 0

>  <DIFUSE_FUNC_ATOM>  (617) 
atom 6   atom 7   

>  <FINAL_SINGLE_POINT_ENERGY>  (617) 
0

>  <NONCOV_INTER_ENERGY_QM>  (617) 
0

>  <FF_Energy>  (617) 
19.22

>  <QM_Energy>  (617) 
-1.43

>  <source>  (617) 
ACET_PRPA_05

>  <Index>  (617) 
35106

$$$$
ACET-pdb2phz-A-ASP-98:PRPA-pdb2phz-A-LYS-37
     RDKit          3D

 18 16  0  0  0  0  0  0  0  0999 V2000
   -0.0060    1.5128    0.0046 C   0  0  0  0  0  0  0  0  0  0  0  0
    0.9124    1.8372   -0.1883 H   0  0  0  0  0  0  0  0  0  0  0  0
   -0.3094    1.8293    0.8950 H   0  0  0  0  0  0  0  0  0  0  0  0
   -0.6759    1.9269   -0.7490 H   0  0  0  0  0  0  0  0  0  0  0  0
    0.0000    0.0000    0.0000 C   0  0  0  0  0  0  0  0  0  0  0  0
   -1.0979   -0.5929    0.0000 O   0  0  0  0  0  1  0  0  0  0  0  0
    1.0979   -0.5965   -0.0000 O   0  0  0  0  0  0  0  0  0  0  0  0
    2.2216   -0.6520   -2.7934 C   0  0  0  0  0  0  0  0  0  0  0  0
    1.8334   -0.1894   -2.0034 H   0  0  0  0  0  0  0  0  0  0  0  0
    1.6048   -0.5805   -3.5715 H   0  0  0  0  0  0  0  0  0  0  0  0
    3.1593   -0.1605   -3.0526 H   0  0  0  0  0  0  0  0  0  0  0  0
    2.3891   -2.1265   -2.4489 C   0  0  0  0  0  0  0  0  0  0  0  0
    2.5758   -2.6380   -3.2908 H   0  0  0  0  0  0  0  0  0  0  0  0
    3.1663   -2.2292   -1.8247 H   0  0  0  0  0  0  0  0  0  0  0  0
    1.1470   -2.7043   -1.7879 C   0  0  0  0  0  0  0  0  0  0  0  0
    1.2844   -3.6805   -1.6437 H   0  0  0  0  0  0  0  0  0  0  0  0
    1.0033   -2.2457   -0.9156 H   0  0  0  0  0  0  0  0  0  0  0  0
    0.2582   -2.5659   -2.4035 H   0  0  0  0  0  0  0  0  0  0  0  0
  1  5  1  0
  5  6  1  0
  5  7  2  0
  1  2  1  0
  1  3  1  0
  1  4  1  0
  8 12  1  0
 12 15  1  0
  8  9  1  0
  8 10  1  0
  8 11  1  0
 12 13  1  0
 12 14  1  0
 15 16  1  0
 15 17  1  0
 15 18  1  0
M  CHG  1   6  -1
M  END
>  <PDB_ID>  (618) 
pdb2phz

>  <RESIDUE_NAME>  (618) 
ASP   LYS

>  <FRAG_NAME>  (618) 
ACET   PRPA

>  <FRAG_ATOM_NUM>  (618) 
fragi: 7  fragj: 11

>  <atom.prop.CHAIN_ID>  (618) 
A A A A A A A Z Z Z Z Z Z Z Z Z Z Z

>  <atom.prop.IS_HEAVY_ATOM>  (618) 
1 0 0 0 1 1 1 1 0 0 0 1 0 0 1 0 0 0

>  <DIFUSE_FUNC_ATOM>  (618) 
atom 6   atom 7   

>  <FINAL_SINGLE_POINT_ENERGY>  (618) 
0

>  <NONCOV_INTER_ENERGY_QM>  (618) 
0

>  <FF_Energy>  (618) 
19.87

>  <QM_Energy>  (618) 
-0.65

>  <source>  (618) 
ACET_PRPA_05

>  <Index>  (618) 
35112

$$$$
ACET-pdb1l7i-H-ASP-101:PRPA-pdb1l7i-H-LEU-96
     RDKit          3D

 18 16  0  0  0  0  0  0  0  0999 V2000
    0.0262    1.5205   -0.0286 C   0  0  0  0  0  0  0  0  0  0  0  0
    0.0186    1.8229   -0.9767 H   0  0  0  0  0  0  0  0  0  0  0  0
    0.8531    1.8358    0.4260 H   0  0  0  0  0  0  0  0  0  0  0  0
   -0.8256    1.9790    0.4737 H   0  0  0  0  0  0  0  0  0  0  0  0
    0.0000    0.0000    0.0000 C   0  0  0  0  0  0  0  0  0  0  0  0
   -1.0905   -0.5978   -0.0000 O   0  0  0  0  0  1  0  0  0  0  0  0
    1.0905   -0.6037   -0.0000 O   0  0  0  0  0  0  0  0  0  0  0  0
    3.8321   -0.1802    0.4651 C   0  0  0  0  0  0  0  0  0  0  0  0
    3.0348   -0.2149   -0.1391 H   0  0  0  0  0  0  0  0  0  0  0  0
    4.1324    0.7696    0.5627 H   0  0  0  0  0  0  0  0  0  0  0  0
    4.5734   -0.7223    0.0667 H   0  0  0  0  0  0  0  0  0  0  0  0
    3.4647   -0.7415    1.8272 C   0  0  0  0  0  0  0  0  0  0  0  0
    4.2622   -0.7059    2.4317 H   0  0  0  0  0  0  0  0  0  0  0  0
    3.1343   -1.7772    1.7475 H   0  0  0  0  0  0  0  0  0  0  0  0
    2.3635    0.0776    2.4635 C   0  0  0  0  0  0  0  0  0  0  0  0
    2.1586   -0.2806    3.3771 H   0  0  0  0  0  0  0  0  0  0  0  0
    2.6542    1.0335    2.5428 H   0  0  0  0  0  0  0  0  0  0  0  0
    1.5366    0.0314    1.8985 H   0  0  0  0  0  0  0  0  0  0  0  0
  1  5  1  0
  5  6  1  0
  5  7  2  0
  1  2  1  0
  1  3  1  0
  1  4  1  0
  8 12  1  0
 12 15  1  0
  8  9  1  0
  8 10  1  0
  8 11  1  0
 12 13  1  0
 12 14  1  0
 15 16  1  0
 15 17  1  0
 15 18  1  0
M  CHG  1   6  -1
M  END
>  <PDB_ID>  (619) 
pdb1l7i

>  <RESIDUE_NAME>  (619) 
ASP   LEU

>  <FRAG_NAME>  (619) 
ACET   PRPA

>  <FRAG_ATOM_NUM>  (619) 
fragi: 7  fragj: 11

>  <atom.prop.CHAIN_ID>  (619) 
A A A A A A A Z Z Z Z Z Z Z Z Z Z Z

>  <atom.prop.IS_HEAVY_ATOM>  (619) 
1 0 0 0 1 1 1 1 0 0 0 1 0 0 1 0 0 0

>  <DIFUSE_FUNC_ATOM>  (619) 
atom 6   atom 7   

>  <FINAL_SINGLE_POINT_ENERGY>  (619) 
0

>  <NONCOV_INTER_ENERGY_QM>  (619) 
0

>  <FF_Energy>  (619) 
17.34

>  <QM_Energy>  (619) 
0.37

>  <source>  (619) 
ACET_PRPA_05

>  <Index>  (619) 
35121

$$$$
ACET-pdb1ki1-D-GLU-1523:PRPA-pdb1ki1-D-ILE-1544
     RDKit          3D

 18 16  0  0  0  0  0  0  0  0999 V2000
   -0.0026    1.5226   -0.0180 C   0  0  0  0  0  0  0  0  0  0  0  0
    0.2897    1.8080   -0.9110 H   0  0  0  0  0  0  0  0  0  0  0  0
    0.6069    1.8269    0.6895 H   0  0  0  0  0  0  0  0  0  0  0  0
   -0.9882    1.9480    0.1709 H   0  0  0  0  0  0  0  0  0  0  0  0
    0.0000    0.0000    0.0000 C   0  0  0  0  0  0  0  0  0  0  0  0
   -1.0996   -0.5980    0.0000 O   0  0  0  0  0  1  0  0  0  0  0  0
    1.0996   -0.6006   -0.0000 O   0  0  0  0  0  0  0  0  0  0  0  0
   -1.5859    0.5373    4.9214 C   0  0  0  0  0  0  0  0  0  0  0  0
   -1.0839   -0.3491    5.0563 H   0  0  0  0  0  0  0  0  0  0  0  0
   -1.2122    1.2412    5.6650 H   0  0  0  0  0  0  0  0  0  0  0  0
   -2.3608   -0.2037    5.1175 H   0  0  0  0  0  0  0  0  0  0  0  0
   -1.4610    0.9117    3.4414 C   0  0  0  0  0  0  0  0  0  0  0  0
   -2.0599    1.6750    3.2438 H   0  0  0  0  0  0  0  0  0  0  0  0
   -0.5209    1.1594    3.2472 H   0  0  0  0  0  0  0  0  0  0  0  0
   -1.8470   -0.2593    2.4740 C   0  0  0  0  0  0  0  0  0  0  0  0
   -2.7887   -0.5068    2.6560 H   0  0  0  0  0  0  0  0  0  0  0  0
   -1.7385    0.0657    1.5445 H   0  0  0  0  0  0  0  0  0  0  0  0
   -1.2379   -1.0188    2.6580 H   0  0  0  0  0  0  0  0  0  0  0  0
  1  5  1  0
  5  6  1  0
  5  7  2  0
  1  2  1  0
  1  3  1  0
  1  4  1  0
  8 12  1  0
 12 15  1  0
  8  9  1  0
  8 10  1  0
  8 11  1  0
 12 13  1  0
 12 14  1  0
 15 16  1  0
 15 17  1  0
 15 18  1  0
M  CHG  1   6  -1
M  END
>  <PDB_ID>  (620) 
pdb1ki1

>  <RESIDUE_NAME>  (620) 
GLU   ILE

>  <FRAG_NAME>  (620) 
ACET   PRPA

>  <FRAG_ATOM_NUM>  (620) 
fragi: 7  fragj: 11

>  <atom.prop.CHAIN_ID>  (620) 
A A A A A A A Z Z Z Z Z Z Z Z Z Z Z

>  <atom.prop.IS_HEAVY_ATOM>  (620) 
1 0 0 0 1 1 1 1 0 0 0 1 0 0 1 0 0 0

>  <DIFUSE_FUNC_ATOM>  (620) 
atom 6   atom 7   

>  <FINAL_SINGLE_POINT_ENERGY>  (620) 
0

>  <NONCOV_INTER_ENERGY_QM>  (620) 
0

>  <FF_Energy>  (620) 
34.24

>  <QM_Energy>  (620) 
4.42

>  <source>  (620) 
ACET_PRPA_05

>  <Index>  (620) 
35531

$$$$
ACET-pdb1l7j-A-ASP-147:PRPA-pdb1l7j-A-LYS-20
     RDKit          3D

 18 16  0  0  0  0  0  0  0  0999 V2000
    0.2422    1.5023   -0.0296 C   0  0  0  0  0  0  0  0  0  0  0  0
    1.0573    1.6866   -0.5633 H   0  0  0  0  0  0  0  0  0  0  0  0
    0.3473    1.8300    0.8994 H   0  0  0  0  0  0  0  0  0  0  0  0
   -0.5803    2.0548   -0.4839 H   0  0  0  0  0  0  0  0  0  0  0  0
    0.0000    0.0000    0.0000 C   0  0  0  0  0  0  0  0  0  0  0  0
   -1.1234   -0.5124   -0.0000 O   0  0  0  0  0  1  0  0  0  0  0  0
    1.1234   -0.6936   -0.0000 O   0  0  0  0  0  0  0  0  0  0  0  0
   -1.3055   -1.6238    3.4116 C   0  0  0  0  0  0  0  0  0  0  0  0
   -1.0719   -0.6666    3.3338 H   0  0  0  0  0  0  0  0  0  0  0  0
   -1.2056   -1.9438    4.3423 H   0  0  0  0  0  0  0  0  0  0  0  0
   -2.3423   -1.7589    3.1033 H   0  0  0  0  0  0  0  0  0  0  0  0
   -0.3576   -2.4190    2.5293 C   0  0  0  0  0  0  0  0  0  0  0  0
   -0.3289   -3.3677    2.8568 H   0  0  0  0  0  0  0  0  0  0  0  0
   -0.7058   -2.4109    1.5885 H   0  0  0  0  0  0  0  0  0  0  0  0
    1.0383   -1.8489    2.5451 C   0  0  0  0  0  0  0  0  0  0  0  0
    1.1288   -1.1860    1.8011 H   0  0  0  0  0  0  0  0  0  0  0  0
    1.1941   -1.3899    3.4197 H   0  0  0  0  0  0  0  0  0  0  0  0
    1.8015   -2.6166    2.4179 H   0  0  0  0  0  0  0  0  0  0  0  0
  1  5  1  0
  5  6  1  0
  5  7  2  0
  1  2  1  0
  1  3  1  0
  1  4  1  0
  8 12  1  0
 12 15  1  0
  8  9  1  0
  8 10  1  0
  8 11  1  0
 12 13  1  0
 12 14  1  0
 15 16  1  0
 15 17  1  0
 15 18  1  0
M  CHG  1   6  -1
M  END
>  <PDB_ID>  (621) 
pdb1l7j

>  <RESIDUE_NAME>  (621) 
ASP   LYS

>  <FRAG_NAME>  (621) 
ACET   PRPA

>  <FRAG_ATOM_NUM>  (621) 
fragi: 7  fragj: 11

>  <atom.prop.CHAIN_ID>  (621) 
A A A A A A A Z Z Z Z Z Z Z Z Z Z Z

>  <atom.prop.IS_HEAVY_ATOM>  (621) 
1 0 0 0 1 1 1 1 0 0 0 1 0 0 1 0 0 0

>  <DIFUSE_FUNC_ATOM>  (621) 
atom 6   atom 7   

>  <FINAL_SINGLE_POINT_ENERGY>  (621) 
0

>  <NONCOV_INTER_ENERGY_QM>  (621) 
0

>  <FF_Energy>  (621) 
19.51

>  <QM_Energy>  (621) 
-1.46

>  <source>  (621) 
ACET_PRPA_05

>  <Index>  (621) 
35861

$$$$
ACET-pdb1l7j-A-ASP-147:PRPA-pdb1l7j-A-LYS-20
     RDKit          3D

 18 16  0  0  0  0  0  0  0  0999 V2000
    0.2422    1.5023   -0.0296 C   0  0  0  0  0  0  0  0  0  0  0  0
    1.0573    1.6866   -0.5633 H   0  0  0  0  0  0  0  0  0  0  0  0
    0.3473    1.8300    0.8994 H   0  0  0  0  0  0  0  0  0  0  0  0
   -0.5803    2.0548   -0.4839 H   0  0  0  0  0  0  0  0  0  0  0  0
    0.0000    0.0000    0.0000 C   0  0  0  0  0  0  0  0  0  0  0  0
   -1.1234   -0.5124   -0.0000 O   0  0  0  0  0  1  0  0  0  0  0  0
    1.1234   -0.6936   -0.0000 O   0  0  0  0  0  0  0  0  0  0  0  0
   -0.3576   -2.4190    2.5293 C   0  0  0  0  0  0  0  0  0  0  0  0
   -0.3289   -3.3677    2.8568 H   0  0  0  0  0  0  0  0  0  0  0  0
   -0.7058   -2.4109    1.5885 H   0  0  0  0  0  0  0  0  0  0  0  0
   -1.0376   -1.8486    3.1621 H   0  0  0  0  0  0  0  0  0  0  0  0
    1.0383   -1.8489    2.5451 C   0  0  0  0  0  0  0  0  0  0  0  0
    1.1288   -1.1860    1.8011 H   0  0  0  0  0  0  0  0  0  0  0  0
    1.1941   -1.3899    3.4197 H   0  0  0  0  0  0  0  0  0  0  0  0
    2.0986   -2.9155    2.3683 C   0  0  0  0  0  0  0  0  0  0  0  0
    2.8544   -2.7291    2.9987 H   0  0  0  0  0  0  0  0  0  0  0  0
    1.7008   -3.8081    2.5893 H   0  0  0  0  0  0  0  0  0  0  0  0
    2.4728   -2.9272    1.3447 H   0  0  0  0  0  0  0  0  0  0  0  0
  1  5  1  0
  5  6  1  0
  5  7  2  0
  1  2  1  0
  1  3  1  0
  1  4  1  0
  8 12  1  0
 12 15  1  0
  8  9  1  0
  8 10  1  0
  8 11  1  0
 12 13  1  0
 12 14  1  0
 15 16  1  0
 15 17  1  0
 15 18  1  0
M  CHG  1   6  -1
M  END
>  <PDB_ID>  (622) 
pdb1l7j

>  <RESIDUE_NAME>  (622) 
ASP   LYS

>  <FRAG_NAME>  (622) 
ACET   PRPA

>  <FRAG_ATOM_NUM>  (622) 
fragi: 7  fragj: 11

>  <atom.prop.CHAIN_ID>  (622) 
A A A A A A A Z Z Z Z Z Z Z Z Z Z Z

>  <atom.prop.IS_HEAVY_ATOM>  (622) 
1 0 0 0 1 1 1 1 0 0 0 1 0 0 1 0 0 0

>  <DIFUSE_FUNC_ATOM>  (622) 
atom 6   atom 7   

>  <FINAL_SINGLE_POINT_ENERGY>  (622) 
0

>  <NONCOV_INTER_ENERGY_QM>  (622) 
0

>  <FF_Energy>  (622) 
22.4

>  <QM_Energy>  (622) 
-2.14

>  <source>  (622) 
ACET_PRPA_05

>  <Index>  (622) 
35869

$$$$
ACET-pdb1ldm-A-GLU-61:PRPA-pdb1ldm-A-LYS-57
     RDKit          3D

 18 16  0  0  0  0  0  0  0  0999 V2000
    0.1537    1.4724    0.0840 C   0  0  0  0  0  0  0  0  0  0  0  0
   -0.3248    1.7957    0.9006 H   0  0  0  0  0  0  0  0  0  0  0  0
   -0.2611    1.8812   -0.7287 H   0  0  0  0  0  0  0  0  0  0  0  0
    1.1737    1.8520    0.1449 H   0  0  0  0  0  0  0  0  0  0  0  0
    0.0000    0.0000    0.0000 C   0  0  0  0  0  0  0  0  0  0  0  0
   -1.0848   -0.5902    0.0000 O   0  0  0  0  0  1  0  0  0  0  0  0
    1.0848   -0.6700   -0.0000 O   0  0  0  0  0  0  0  0  0  0  0  0
   -3.6389    3.3536    0.5070 C   0  0  0  0  0  0  0  0  0  0  0  0
   -4.4342    3.2304   -0.0517 H   0  0  0  0  0  0  0  0  0  0  0  0
   -2.8521    3.6348   -0.0025 H   0  0  0  0  0  0  0  0  0  0  0  0
   -3.8526    4.0945    1.2775 H   0  0  0  0  0  0  0  0  0  0  0  0
   -3.3187    2.0111    1.2174 C   0  0  0  0  0  0  0  0  0  0  0  0
   -2.4063    2.0594    1.5793 H   0  0  0  0  0  0  0  0  0  0  0  0
   -3.9918    1.8593    1.9167 H   0  0  0  0  0  0  0  0  0  0  0  0
   -3.3887    0.8531    0.2042 C   0  0  0  0  0  0  0  0  0  0  0  0
   -3.8840    1.1872   -0.6153 H   0  0  0  0  0  0  0  0  0  0  0  0
   -2.4410    0.6367   -0.0859 H   0  0  0  0  0  0  0  0  0  0  0  0
   -3.8716   -0.0470    0.5847 H   0  0  0  0  0  0  0  0  0  0  0  0
  1  5  1  0
  5  6  1  0
  5  7  2  0
  1  2  1  0
  1  3  1  0
  1  4  1  0
  8 12  1  0
 12 15  1  0
  8  9  1  0
  8 10  1  0
  8 11  1  0
 12 13  1  0
 12 14  1  0
 15 16  1  0
 15 17  1  0
 15 18  1  0
M  CHG  1   6  -1
M  END
>  <PDB_ID>  (623) 
pdb1ldm

>  <RESIDUE_NAME>  (623) 
GLU   LYS

>  <FRAG_NAME>  (623) 
ACET   PRPA

>  <FRAG_ATOM_NUM>  (623) 
fragi: 7  fragj: 11

>  <atom.prop.CHAIN_ID>  (623) 
A A A A A A A Z Z Z Z Z Z Z Z Z Z Z

>  <atom.prop.IS_HEAVY_ATOM>  (623) 
1 0 0 0 1 1 1 1 0 0 0 1 0 0 1 0 0 0

>  <DIFUSE_FUNC_ATOM>  (623) 
atom 6   atom 7   

>  <FINAL_SINGLE_POINT_ENERGY>  (623) 
0

>  <NONCOV_INTER_ENERGY_QM>  (623) 
0

>  <FF_Energy>  (623) 
23.75

>  <QM_Energy>  (623) 
2.67

>  <source>  (623) 
ACET_PRPA_05

>  <Index>  (623) 
36263

$$$$
ACET-pdb1l7j-A-ASP-83:PRPA-pdb1l7j-A-LYS-78
     RDKit          3D

 18 16  0  0  0  0  0  0  0  0999 V2000
    0.2437    1.4723    0.0208 C   0  0  0  0  0  0  0  0  0  0  0  0
    0.6965    1.7485   -0.8260 H   0  0  0  0  0  0  0  0  0  0  0  0
    0.8239    1.7049    0.8002 H   0  0  0  0  0  0  0  0  0  0  0  0
   -0.6637    2.0699    0.1072 H   0  0  0  0  0  0  0  0  0  0  0  0
    0.0000    0.0000    0.0000 C   0  0  0  0  0  0  0  0  0  0  0  0
   -1.1016   -0.4940    0.0000 O   0  0  0  0  0  1  0  0  0  0  0  0
    1.1016   -0.6869    0.0000 O   0  0  0  0  0  0  0  0  0  0  0  0
   -4.7366   -1.0329    0.9892 C   0  0  0  0  0  0  0  0  0  0  0  0
   -4.4144   -1.7250    1.6272 H   0  0  0  0  0  0  0  0  0  0  0  0
   -5.6708   -1.2325    0.7081 H   0  0  0  0  0  0  0  0  0  0  0  0
   -4.7287   -0.0677    1.4956 H   0  0  0  0  0  0  0  0  0  0  0  0
   -3.8472   -1.0689   -0.2444 C   0  0  0  0  0  0  0  0  0  0  0  0
   -4.2731   -0.5123   -0.9699 H   0  0  0  0  0  0  0  0  0  0  0  0
   -2.9553   -0.6571   -0.0168 H   0  0  0  0  0  0  0  0  0  0  0  0
   -3.6115   -2.4732   -0.7834 C   0  0  0  0  0  0  0  0  0  0  0  0
   -3.7200   -3.1253   -0.0354 H   0  0  0  0  0  0  0  0  0  0  0  0
   -4.2845   -2.6613   -1.4961 H   0  0  0  0  0  0  0  0  0  0  0  0
   -2.6141   -2.5920   -1.2068 H   0  0  0  0  0  0  0  0  0  0  0  0
  1  5  1  0
  5  6  1  0
  5  7  2  0
  1  2  1  0
  1  3  1  0
  1  4  1  0
  8 12  1  0
 12 15  1  0
  8  9  1  0
  8 10  1  0
  8 11  1  0
 12 13  1  0
 12 14  1  0
 15 16  1  0
 15 17  1  0
 15 18  1  0
M  CHG  1   6  -1
M  END
>  <PDB_ID>  (624) 
pdb1l7j

>  <RESIDUE_NAME>  (624) 
ASP   LYS

>  <FRAG_NAME>  (624) 
ACET   PRPA

>  <FRAG_ATOM_NUM>  (624) 
fragi: 7  fragj: 11

>  <atom.prop.CHAIN_ID>  (624) 
A A A A A A A Z Z Z Z Z Z Z Z Z Z Z

>  <atom.prop.IS_HEAVY_ATOM>  (624) 
1 0 0 0 1 1 1 1 0 0 0 1 0 0 1 0 0 0

>  <DIFUSE_FUNC_ATOM>  (624) 
atom 6   atom 7   

>  <FINAL_SINGLE_POINT_ENERGY>  (624) 
0

>  <NONCOV_INTER_ENERGY_QM>  (624) 
0

>  <FF_Energy>  (624) 
21.02

>  <QM_Energy>  (624) 
-0.76

>  <source>  (624) 
ACET_PRPA_05

>  <Index>  (624) 
36277

$$$$
ACET-pdb1l7j-A-ASP-83:PRPA-pdb1l7j-A-LYS-78
     RDKit          3D

 18 16  0  0  0  0  0  0  0  0999 V2000
    0.2437    1.4723    0.0208 C   0  0  0  0  0  0  0  0  0  0  0  0
    0.6965    1.7485   -0.8260 H   0  0  0  0  0  0  0  0  0  0  0  0
    0.8239    1.7049    0.8002 H   0  0  0  0  0  0  0  0  0  0  0  0
   -0.6637    2.0699    0.1072 H   0  0  0  0  0  0  0  0  0  0  0  0
    0.0000    0.0000    0.0000 C   0  0  0  0  0  0  0  0  0  0  0  0
   -1.1016   -0.4940    0.0000 O   0  0  0  0  0  1  0  0  0  0  0  0
    1.1016   -0.6869    0.0000 O   0  0  0  0  0  0  0  0  0  0  0  0
   -3.8472   -1.0689   -0.2444 C   0  0  0  0  0  0  0  0  0  0  0  0
   -4.2731   -0.5123   -0.9699 H   0  0  0  0  0  0  0  0  0  0  0  0
   -2.9553   -0.6571   -0.0168 H   0  0  0  0  0  0  0  0  0  0  0  0
   -4.4845   -1.0431    0.6395 H   0  0  0  0  0  0  0  0  0  0  0  0
   -3.6115   -2.4732   -0.7834 C   0  0  0  0  0  0  0  0  0  0  0  0
   -3.7200   -3.1253   -0.0354 H   0  0  0  0  0  0  0  0  0  0  0  0
   -4.2845   -2.6613   -1.4961 H   0  0  0  0  0  0  0  0  0  0  0  0
   -2.2232   -2.6385   -1.3728 C   0  0  0  0  0  0  0  0  0  0  0  0
   -1.5401   -2.4694   -0.6461 H   0  0  0  0  0  0  0  0  0  0  0  0
   -2.1122   -3.5960   -1.6791 H   0  0  0  0  0  0  0  0  0  0  0  0
   -2.0259   -1.9706   -2.2113 H   0  0  0  0  0  0  0  0  0  0  0  0
  1  5  1  0
  5  6  1  0
  5  7  2  0
  1  2  1  0
  1  3  1  0
  1  4  1  0
  8 12  1  0
 12 15  1  0
  8  9  1  0
  8 10  1  0
  8 11  1  0
 12 13  1  0
 12 14  1  0
 15 16  1  0
 15 17  1  0
 15 18  1  0
M  CHG  1   6  -1
M  END
>  <PDB_ID>  (625) 
pdb1l7j

>  <RESIDUE_NAME>  (625) 
ASP   LYS

>  <FRAG_NAME>  (625) 
ACET   PRPA

>  <FRAG_ATOM_NUM>  (625) 
fragi: 7  fragj: 11

>  <atom.prop.CHAIN_ID>  (625) 
A A A A A A A Z Z Z Z Z Z Z Z Z Z Z

>  <atom.prop.IS_HEAVY_ATOM>  (625) 
1 0 0 0 1 1 1 1 0 0 0 1 0 0 1 0 0 0

>  <DIFUSE_FUNC_ATOM>  (625) 
atom 6   atom 7   

>  <FINAL_SINGLE_POINT_ENERGY>  (625) 
0

>  <NONCOV_INTER_ENERGY_QM>  (625) 
0

>  <FF_Energy>  (625) 
23.86

>  <QM_Energy>  (625) 
1.23

>  <source>  (625) 
ACET_PRPA_05

>  <Index>  (625) 
36279

$$$$
ACET-pdb1lbv-A-GLU-12:PRPA-pdb1lbv-A-ILE-56
     RDKit          3D

 18 16  0  0  0  0  0  0  0  0999 V2000
    0.0150    1.5119    0.0111 C   0  0  0  0  0  0  0  0  0  0  0  0
    0.5676    1.8112   -0.7546 H   0  0  0  0  0  0  0  0  0  0  0  0
    0.4124    1.8006    0.8709 H   0  0  0  0  0  0  0  0  0  0  0  0
   -0.9684    1.9731   -0.0805 H   0  0  0  0  0  0  0  0  0  0  0  0
    0.0000    0.0000    0.0000 C   0  0  0  0  0  0  0  0  0  0  0  0
   -1.1020   -0.5863   -0.0000 O   0  0  0  0  0  1  0  0  0  0  0  0
    1.1020   -0.5960    0.0000 O   0  0  0  0  0  0  0  0  0  0  0  0
    1.7524    0.4229   -4.3162 C   0  0  0  0  0  0  0  0  0  0  0  0
    1.6005    1.2211   -4.9246 H   0  0  0  0  0  0  0  0  0  0  0  0
    2.0900   -0.4101   -4.9329 H   0  0  0  0  0  0  0  0  0  0  0  0
    0.7761    0.2257   -3.8735 H   0  0  0  0  0  0  0  0  0  0  0  0
    2.7287    0.8654   -3.2139 C   0  0  0  0  0  0  0  0  0  0  0  0
    2.8599    0.1234   -2.5933 H   0  0  0  0  0  0  0  0  0  0  0  0
    3.5653    1.1488   -3.6345 H   0  0  0  0  0  0  0  0  0  0  0  0
    2.1281    2.0478   -2.4628 C   0  0  0  0  0  0  0  0  0  0  0  0
    1.2615    1.7694   -2.0561 H   0  0  0  0  0  0  0  0  0  0  0  0
    2.7607    2.3346   -1.7477 H   0  0  0  0  0  0  0  0  0  0  0  0
    1.9767    2.7970   -3.1027 H   0  0  0  0  0  0  0  0  0  0  0  0
  1  5  1  0
  5  6  1  0
  5  7  2  0
  1  2  1  0
  1  3  1  0
  1  4  1  0
  8 12  1  0
 12 15  1  0
  8  9  1  0
  8 10  1  0
  8 11  1  0
 12 13  1  0
 12 14  1  0
 15 16  1  0
 15 17  1  0
 15 18  1  0
M  CHG  1   6  -1
M  END
>  <PDB_ID>  (626) 
pdb1lbv

>  <RESIDUE_NAME>  (626) 
GLU   ILE

>  <FRAG_NAME>  (626) 
ACET   PRPA

>  <FRAG_ATOM_NUM>  (626) 
fragi: 7  fragj: 11

>  <atom.prop.CHAIN_ID>  (626) 
A A A A A A A Z Z Z Z Z Z Z Z Z Z Z

>  <atom.prop.IS_HEAVY_ATOM>  (626) 
1 0 0 0 1 1 1 1 0 0 0 1 0 0 1 0 0 0

>  <DIFUSE_FUNC_ATOM>  (626) 
atom 6   atom 7   

>  <FINAL_SINGLE_POINT_ENERGY>  (626) 
0

>  <NONCOV_INTER_ENERGY_QM>  (626) 
0

>  <FF_Energy>  (626) 
33.63

>  <QM_Energy>  (626) 
2.83

>  <source>  (626) 
ACET_PRPA_05

>  <Index>  (626) 
36503

$$$$
ACET-pdb1lew-A-GLU-19:PRPA-pdb1lew-A-ARG-10
     RDKit          3D

 18 16  0  0  0  0  0  0  0  0999 V2000
    0.0027    1.5363    0.0163 C   0  0  0  0  0  0  0  0  0  0  0  0
    0.8690    1.8290   -0.3413 H   0  0  0  0  0  0  0  0  0  0  0  0
   -0.1316    1.8161    0.9484 H   0  0  0  0  0  0  0  0  0  0  0  0
   -0.7867    1.9758   -0.5934 H   0  0  0  0  0  0  0  0  0  0  0  0
    0.0000    0.0000    0.0000 C   0  0  0  0  0  0  0  0  0  0  0  0
   -1.0980   -0.6125   -0.0000 O   0  0  0  0  0  1  0  0  0  0  0  0
    1.0980   -0.5931    0.0000 O   0  0  0  0  0  0  0  0  0  0  0  0
   -1.1221    2.3865    3.0666 C   0  0  0  0  0  0  0  0  0  0  0  0
   -2.1204    2.3794    3.0237 H   0  0  0  0  0  0  0  0  0  0  0  0
   -0.7465    1.9959    2.2277 H   0  0  0  0  0  0  0  0  0  0  0  0
   -0.7955    3.4245    3.1301 H   0  0  0  0  0  0  0  0  0  0  0  0
   -0.6922    1.5068    4.2313 C   0  0  0  0  0  0  0  0  0  0  0  0
    0.2978    1.4396    4.2527 H   0  0  0  0  0  0  0  0  0  0  0  0
   -1.0347    1.8877    5.0825 H   0  0  0  0  0  0  0  0  0  0  0  0
   -1.2585    0.0903    4.0885 C   0  0  0  0  0  0  0  0  0  0  0  0
   -0.8120   -0.3411    3.3149 H   0  0  0  0  0  0  0  0  0  0  0  0
   -1.0637   -0.4021    4.9281 H   0  0  0  0  0  0  0  0  0  0  0  0
   -2.3353    0.1089    3.9206 H   0  0  0  0  0  0  0  0  0  0  0  0
  1  5  1  0
  5  6  1  0
  5  7  2  0
  1  2  1  0
  1  3  1  0
  1  4  1  0
  8 12  1  0
 12 15  1  0
  8  9  1  0
  8 10  1  0
  8 11  1  0
 12 13  1  0
 12 14  1  0
 15 16  1  0
 15 17  1  0
 15 18  1  0
M  CHG  1   6  -1
M  END
>  <PDB_ID>  (627) 
pdb1lew

>  <RESIDUE_NAME>  (627) 
GLU   ARG

>  <FRAG_NAME>  (627) 
ACET   PRPA

>  <FRAG_ATOM_NUM>  (627) 
fragi: 7  fragj: 11

>  <atom.prop.CHAIN_ID>  (627) 
A A A A A A A Z Z Z Z Z Z Z Z Z Z Z

>  <atom.prop.IS_HEAVY_ATOM>  (627) 
1 0 0 0 1 1 1 1 0 0 0 1 0 0 1 0 0 0

>  <DIFUSE_FUNC_ATOM>  (627) 
atom 6   atom 7   

>  <FINAL_SINGLE_POINT_ENERGY>  (627) 
0

>  <NONCOV_INTER_ENERGY_QM>  (627) 
0

>  <FF_Energy>  (627) 
45.76

>  <QM_Energy>  (627) 
3.48

>  <source>  (627) 
ACET_PRPA_05

>  <Index>  (627) 
36547

$$$$
ACET-pdb2pig-A-GLU-73:PRPA-pdb2pig-A-ARG-91
     RDKit          3D

 18 16  0  0  0  0  0  0  0  0999 V2000
   -0.0044    1.5196    0.0150 C   0  0  0  0  0  0  0  0  0  0  0  0
    0.8324    1.8211   -0.4009 H   0  0  0  0  0  0  0  0  0  0  0  0
   -0.0818    1.8054    0.9513 H   0  0  0  0  0  0  0  0  0  0  0  0
   -0.8393    1.9391   -0.5463 H   0  0  0  0  0  0  0  0  0  0  0  0
    0.0000    0.0000    0.0000 C   0  0  0  0  0  0  0  0  0  0  0  0
   -1.0994   -0.5928    0.0000 O   0  0  0  0  0  1  0  0  0  0  0  0
    1.0994   -0.5956    0.0000 O   0  0  0  0  0  0  0  0  0  0  0  0
    2.8594    3.0577    2.1190 C   0  0  0  0  0  0  0  0  0  0  0  0
    2.0318    3.1468    1.5604 H   0  0  0  0  0  0  0  0  0  0  0  0
    3.7151    3.3980    1.5357 H   0  0  0  0  0  0  0  0  0  0  0  0
    2.7521    3.6765    3.0099 H   0  0  0  0  0  0  0  0  0  0  0  0
    3.0082    1.5856    2.5248 C   0  0  0  0  0  0  0  0  0  0  0  0
    3.9401    1.4474    2.8482 H   0  0  0  0  0  0  0  0  0  0  0  0
    2.3602    1.4002    3.2574 H   0  0  0  0  0  0  0  0  0  0  0  0
    2.7453    0.6035    1.3990 C   0  0  0  0  0  0  0  0  0  0  0  0
    2.7467   -0.3253    1.7599 H   0  0  0  0  0  0  0  0  0  0  0  0
    1.8657    0.8067    0.9784 H   0  0  0  0  0  0  0  0  0  0  0  0
    3.5135    0.6712    0.6288 H   0  0  0  0  0  0  0  0  0  0  0  0
  1  5  1  0
  5  6  1  0
  5  7  2  0
  1  2  1  0
  1  3  1  0
  1  4  1  0
  8 12  1  0
 12 15  1  0
  8  9  1  0
  8 10  1  0
  8 11  1  0
 12 13  1  0
 12 14  1  0
 15 16  1  0
 15 17  1  0
 15 18  1  0
M  CHG  1   6  -1
M  END
>  <PDB_ID>  (628) 
pdb2pig

>  <RESIDUE_NAME>  (628) 
GLU   ARG

>  <FRAG_NAME>  (628) 
ACET   PRPA

>  <FRAG_ATOM_NUM>  (628) 
fragi: 7  fragj: 11

>  <atom.prop.CHAIN_ID>  (628) 
A A A A A A A Z Z Z Z Z Z Z Z Z Z Z

>  <atom.prop.IS_HEAVY_ATOM>  (628) 
1 0 0 0 1 1 1 1 0 0 0 1 0 0 1 0 0 0

>  <DIFUSE_FUNC_ATOM>  (628) 
atom 6   atom 7   

>  <FINAL_SINGLE_POINT_ENERGY>  (628) 
0

>  <NONCOV_INTER_ENERGY_QM>  (628) 
0

>  <FF_Energy>  (628) 
38.15

>  <QM_Energy>  (628) 
10.45

>  <source>  (628) 
ACET_PRPA_05

>  <Index>  (628) 
36849

$$$$
ACET-pdb2pig-A-GLU-73:PRPA-pdb2pig-A-ARG-91
     RDKit          3D

 18 16  0  0  0  0  0  0  0  0999 V2000
   -0.0044    1.5196    0.0150 C   0  0  0  0  0  0  0  0  0  0  0  0
    0.8324    1.8211   -0.4009 H   0  0  0  0  0  0  0  0  0  0  0  0
   -0.0818    1.8054    0.9513 H   0  0  0  0  0  0  0  0  0  0  0  0
   -0.8393    1.9391   -0.5463 H   0  0  0  0  0  0  0  0  0  0  0  0
    0.0000    0.0000    0.0000 C   0  0  0  0  0  0  0  0  0  0  0  0
   -1.0994   -0.5928    0.0000 O   0  0  0  0  0  1  0  0  0  0  0  0
    1.0994   -0.5956    0.0000 O   0  0  0  0  0  0  0  0  0  0  0  0
    3.0082    1.5856    2.5248 C   0  0  0  0  0  0  0  0  0  0  0  0
    3.9401    1.4474    2.8482 H   0  0  0  0  0  0  0  0  0  0  0  0
    2.3602    1.4002    3.2574 H   0  0  0  0  0  0  0  0  0  0  0  0
    2.9025    2.6314    2.2365 H   0  0  0  0  0  0  0  0  0  0  0  0
    2.7453    0.6035    1.3990 C   0  0  0  0  0  0  0  0  0  0  0  0
    2.7467   -0.3253    1.7599 H   0  0  0  0  0  0  0  0  0  0  0  0
    1.8657    0.8067    0.9784 H   0  0  0  0  0  0  0  0  0  0  0  0
    3.8148    0.6977    0.3266 C   0  0  0  0  0  0  0  0  0  0  0  0
    3.9447    1.6596    0.1004 H   0  0  0  0  0  0  0  0  0  0  0  0
    4.6584    0.3165    0.6962 H   0  0  0  0  0  0  0  0  0  0  0  0
    3.5385    0.1509   -0.5749 H   0  0  0  0  0  0  0  0  0  0  0  0
  1  5  1  0
  5  6  1  0
  5  7  2  0
  1  2  1  0
  1  3  1  0
  1  4  1  0
  8 12  1  0
 12 15  1  0
  8  9  1  0
  8 10  1  0
  8 11  1  0
 12 13  1  0
 12 14  1  0
 15 16  1  0
 15 17  1  0
 15 18  1  0
M  CHG  1   6  -1
M  END
>  <PDB_ID>  (629) 
pdb2pig

>  <RESIDUE_NAME>  (629) 
GLU   ARG

>  <FRAG_NAME>  (629) 
ACET   PRPA

>  <FRAG_ATOM_NUM>  (629) 
fragi: 7  fragj: 11

>  <atom.prop.CHAIN_ID>  (629) 
A A A A A A A Z Z Z Z Z Z Z Z Z Z Z

>  <atom.prop.IS_HEAVY_ATOM>  (629) 
1 0 0 0 1 1 1 1 0 0 0 1 0 0 1 0 0 0

>  <DIFUSE_FUNC_ATOM>  (629) 
atom 6   atom 7   

>  <FINAL_SINGLE_POINT_ENERGY>  (629) 
0

>  <NONCOV_INTER_ENERGY_QM>  (629) 
0

>  <FF_Energy>  (629) 
40.75

>  <QM_Energy>  (629) 
9.21

>  <source>  (629) 
ACET_PRPA_05

>  <Index>  (629) 
36857

$$$$
ACET-pdb1knz-M-GLU-153:PRPA-pdb1knz-N-ILE-136
     RDKit          3D

 18 16  0  0  0  0  0  0  0  0999 V2000
    0.1665    1.4845    0.0155 C   0  0  0  0  0  0  0  0  0  0  0  0
    0.6864    1.7435   -0.8017 H   0  0  0  0  0  0  0  0  0  0  0  0
    0.6984    1.7247    0.8313 H   0  0  0  0  0  0  0  0  0  0  0  0
   -0.7439    2.0838    0.0281 H   0  0  0  0  0  0  0  0  0  0  0  0
    0.0000    0.0000    0.0000 C   0  0  0  0  0  0  0  0  0  0  0  0
   -1.0897   -0.5597    0.0000 O   0  0  0  0  0  1  0  0  0  0  0  0
    1.0897   -0.6046   -0.0000 O   0  0  0  0  0  0  0  0  0  0  0  0
   -4.5154   -1.7296   -0.6403 C   0  0  0  0  0  0  0  0  0  0  0  0
   -3.9231   -0.9619   -0.8900 H   0  0  0  0  0  0  0  0  0  0  0  0
   -5.1680   -1.3711    0.1557 H   0  0  0  0  0  0  0  0  0  0  0  0
   -5.1046   -1.9675   -1.5260 H   0  0  0  0  0  0  0  0  0  0  0  0
   -3.7508   -2.9613   -0.1626 C   0  0  0  0  0  0  0  0  0  0  0  0
   -3.9147   -3.7012   -0.8224 H   0  0  0  0  0  0  0  0  0  0  0  0
   -4.0855   -3.2985    0.8184 H   0  0  0  0  0  0  0  0  0  0  0  0
   -2.2564   -2.6834   -0.1575 C   0  0  0  0  0  0  0  0  0  0  0  0
   -1.7622   -3.5175    0.0816 H   0  0  0  0  0  0  0  0  0  0  0  0
   -1.9700   -2.3761   -1.0637 H   0  0  0  0  0  0  0  0  0  0  0  0
   -2.0512   -1.9723    0.5137 H   0  0  0  0  0  0  0  0  0  0  0  0
  1  5  1  0
  5  6  1  0
  5  7  2  0
  1  2  1  0
  1  3  1  0
  1  4  1  0
  8 12  1  0
 12 15  1  0
  8  9  1  0
  8 10  1  0
  8 11  1  0
 12 13  1  0
 12 14  1  0
 15 16  1  0
 15 17  1  0
 15 18  1  0
M  CHG  1   6  -1
M  END
>  <PDB_ID>  (630) 
pdb1knz

>  <RESIDUE_NAME>  (630) 
GLU   ILE

>  <FRAG_NAME>  (630) 
ACET   PRPA

>  <FRAG_ATOM_NUM>  (630) 
fragi: 7  fragj: 11

>  <atom.prop.CHAIN_ID>  (630) 
A A A A A A A Z Z Z Z Z Z Z Z Z Z Z

>  <atom.prop.IS_HEAVY_ATOM>  (630) 
1 0 0 0 1 1 1 1 0 0 0 1 0 0 1 0 0 0

>  <DIFUSE_FUNC_ATOM>  (630) 
atom 6   atom 7   

>  <FINAL_SINGLE_POINT_ENERGY>  (630) 
0

>  <NONCOV_INTER_ENERGY_QM>  (630) 
0

>  <FF_Energy>  (630) 
44.86

>  <QM_Energy>  (630) 
9.15

>  <source>  (630) 
ACET_PRPA_05

>  <Index>  (630) 
37086

$$$$
ACET-pdb1k9x-B-ASP-443:PRPA-pdb1k9x-B-GLU-446
     RDKit          3D

 18 16  0  0  0  0  0  0  0  0999 V2000
    0.0145    1.5207    0.0268 C   0  0  0  0  0  0  0  0  0  0  0  0
    0.7779    1.8423   -0.5238 H   0  0  0  0  0  0  0  0  0  0  0  0
    0.1162    1.8225    0.9679 H   0  0  0  0  0  0  0  0  0  0  0  0
   -0.8973    1.9654   -0.3720 H   0  0  0  0  0  0  0  0  0  0  0  0
    0.0000    0.0000    0.0000 C   0  0  0  0  0  0  0  0  0  0  0  0
   -1.1007   -0.5930    0.0000 O   0  0  0  0  0  1  0  0  0  0  0  0
    1.1007   -0.5971   -0.0000 O   0  0  0  0  0  0  0  0  0  0  0  0
    2.4191    3.3893   -4.2393 C   0  0  0  0  0  0  0  0  0  0  0  0
    2.9865    4.0858   -4.6764 H   0  0  0  0  0  0  0  0  0  0  0  0
    1.3775    3.7104   -4.2241 H   0  0  0  0  0  0  0  0  0  0  0  0
    2.4951    2.4572   -4.7992 H   0  0  0  0  0  0  0  0  0  0  0  0
    2.9666    3.2163   -2.8129 C   0  0  0  0  0  0  0  0  0  0  0  0
    3.9515    3.2910   -2.8629 H   0  0  0  0  0  0  0  0  0  0  0  0
    2.5792    3.9365   -2.2574 H   0  0  0  0  0  0  0  0  0  0  0  0
    2.6377    1.8900   -2.1452 C   0  0  0  0  0  0  0  0  0  0  0  0
    1.7954    1.9905   -1.6543 H   0  0  0  0  0  0  0  0  0  0  0  0
    2.5925    1.1958   -2.8357 H   0  0  0  0  0  0  0  0  0  0  0  0
    3.3994    1.5850   -1.4276 H   0  0  0  0  0  0  0  0  0  0  0  0
  1  5  1  0
  5  6  1  0
  5  7  2  0
  1  2  1  0
  1  3  1  0
  1  4  1  0
  8 12  1  0
 12 15  1  0
  8  9  1  0
  8 10  1  0
  8 11  1  0
 12 13  1  0
 12 14  1  0
 15 16  1  0
 15 17  1  0
 15 18  1  0
M  CHG  1   6  -1
M  END
>  <PDB_ID>  (631) 
pdb1k9x

>  <RESIDUE_NAME>  (631) 
ASP   GLU

>  <FRAG_NAME>  (631) 
ACET   PRPA

>  <FRAG_ATOM_NUM>  (631) 
fragi: 7  fragj: 11

>  <atom.prop.CHAIN_ID>  (631) 
A A A A A A A Z Z Z Z Z Z Z Z Z Z Z

>  <atom.prop.IS_HEAVY_ATOM>  (631) 
1 0 0 0 1 1 1 1 0 0 0 1 0 0 1 0 0 0

>  <DIFUSE_FUNC_ATOM>  (631) 
atom 6   atom 7   

>  <FINAL_SINGLE_POINT_ENERGY>  (631) 
0

>  <NONCOV_INTER_ENERGY_QM>  (631) 
0

>  <FF_Energy>  (631) 
20.71

>  <QM_Energy>  (631) 
2.69

>  <source>  (631) 
ACET_PRPA_05

>  <Index>  (631) 
37098

$$$$
ACET-pdb1knz-M-GLU-153:PRPA-pdb1knz-N-ILE-136
     RDKit          3D

 18 16  0  0  0  0  0  0  0  0999 V2000
    0.1665    1.4845    0.0155 C   0  0  0  0  0  0  0  0  0  0  0  0
    0.6864    1.7435   -0.8017 H   0  0  0  0  0  0  0  0  0  0  0  0
    0.6984    1.7247    0.8313 H   0  0  0  0  0  0  0  0  0  0  0  0
   -0.7439    2.0838    0.0281 H   0  0  0  0  0  0  0  0  0  0  0  0
    0.0000    0.0000    0.0000 C   0  0  0  0  0  0  0  0  0  0  0  0
   -1.0897   -0.5597    0.0000 O   0  0  0  0  0  1  0  0  0  0  0  0
    1.0897   -0.6046   -0.0000 O   0  0  0  0  0  0  0  0  0  0  0  0
   -4.2146   -3.4284    1.1965 C   0  0  0  0  0  0  0  0  0  0  0  0
   -3.8239   -2.8241    1.8949 H   0  0  0  0  0  0  0  0  0  0  0  0
   -5.2141   -3.3430    1.2385 H   0  0  0  0  0  0  0  0  0  0  0  0
   -3.9434   -4.4584    1.4278 H   0  0  0  0  0  0  0  0  0  0  0  0
   -3.7508   -2.9613   -0.1626 C   0  0  0  0  0  0  0  0  0  0  0  0
   -3.9147   -3.7012   -0.8224 H   0  0  0  0  0  0  0  0  0  0  0  0
   -4.2968   -2.0818   -0.5038 H   0  0  0  0  0  0  0  0  0  0  0  0
   -2.2564   -2.6834   -0.1575 C   0  0  0  0  0  0  0  0  0  0  0  0
   -1.7622   -3.5175    0.0816 H   0  0  0  0  0  0  0  0  0  0  0  0
   -1.9700   -2.3761   -1.0637 H   0  0  0  0  0  0  0  0  0  0  0  0
   -2.0512   -1.9723    0.5137 H   0  0  0  0  0  0  0  0  0  0  0  0
  1  5  1  0
  5  6  1  0
  5  7  2  0
  1  2  1  0
  1  3  1  0
  1  4  1  0
  8 12  1  0
 12 15  1  0
  8  9  1  0
  8 10  1  0
  8 11  1  0
 12 13  1  0
 12 14  1  0
 15 16  1  0
 15 17  1  0
 15 18  1  0
M  CHG  1   6  -1
M  END
>  <PDB_ID>  (632) 
pdb1knz

>  <RESIDUE_NAME>  (632) 
GLU   ILE

>  <FRAG_NAME>  (632) 
ACET   PRPA

>  <FRAG_ATOM_NUM>  (632) 
fragi: 7  fragj: 11

>  <atom.prop.CHAIN_ID>  (632) 
A A A A A A A Z Z Z Z Z Z Z Z Z Z Z

>  <atom.prop.IS_HEAVY_ATOM>  (632) 
1 0 0 0 1 1 1 1 0 0 0 1 0 0 1 0 0 0

>  <DIFUSE_FUNC_ATOM>  (632) 
atom 6   atom 7   

>  <FINAL_SINGLE_POINT_ENERGY>  (632) 
0

>  <NONCOV_INTER_ENERGY_QM>  (632) 
0

>  <FF_Energy>  (632) 
44.57

>  <QM_Energy>  (632) 
9.8

>  <source>  (632) 
ACET_PRPA_05

>  <Index>  (632) 
37103

$$$$
ACET-pdb1lez-A-GLU-98:PRPA-pdb1lez-A-ARG-94
     RDKit          3D

 18 16  0  0  0  0  0  0  0  0999 V2000
    0.0032    1.5261    0.0103 C   0  0  0  0  0  0  0  0  0  0  0  0
   -0.9159    1.8165    0.1770 H   0  0  0  0  0  0  0  0  0  0  0  0
    0.3465    1.8203   -0.8570 H   0  0  0  0  0  0  0  0  0  0  0  0
    0.6455    1.9203    0.7978 H   0  0  0  0  0  0  0  0  0  0  0  0
    0.0000    0.0000    0.0000 C   0  0  0  0  0  0  0  0  0  0  0  0
   -1.1043   -0.5937    0.0000 O   0  0  0  0  0  1  0  0  0  0  0  0
    1.1043   -0.6026    0.0000 O   0  0  0  0  0  0  0  0  0  0  0  0
   -1.2901   -1.0237   -3.5082 C   0  0  0  0  0  0  0  0  0  0  0  0
   -1.4427   -1.0415   -2.5317 H   0  0  0  0  0  0  0  0  0  0  0  0
   -1.9207   -1.6202   -3.9804 H   0  0  0  0  0  0  0  0  0  0  0  0
   -1.4381   -0.0049   -3.8663 H   0  0  0  0  0  0  0  0  0  0  0  0
    0.1478   -1.5737   -3.7636 C   0  0  0  0  0  0  0  0  0  0  0  0
    0.0884   -2.5388   -4.0051 H   0  0  0  0  0  0  0  0  0  0  0  0
    0.5631   -1.0606   -4.5108 H   0  0  0  0  0  0  0  0  0  0  0  0
    1.0916   -1.4526   -2.5263 C   0  0  0  0  0  0  0  0  0  0  0  0
    0.6396   -0.8434   -1.8699 H   0  0  0  0  0  0  0  0  0  0  0  0
    1.1657   -2.3687   -2.1235 H   0  0  0  0  0  0  0  0  0  0  0  0
    2.0888   -1.0717   -2.7468 H   0  0  0  0  0  0  0  0  0  0  0  0
  1  5  1  0
  5  6  1  0
  5  7  2  0
  1  2  1  0
  1  3  1  0
  1  4  1  0
  8 12  1  0
 12 15  1  0
  8  9  1  0
  8 10  1  0
  8 11  1  0
 12 13  1  0
 12 14  1  0
 15 16  1  0
 15 17  1  0
 15 18  1  0
M  CHG  1   6  -1
M  END
>  <PDB_ID>  (633) 
pdb1lez

>  <RESIDUE_NAME>  (633) 
GLU   ARG

>  <FRAG_NAME>  (633) 
ACET   PRPA

>  <FRAG_ATOM_NUM>  (633) 
fragi: 7  fragj: 11

>  <atom.prop.CHAIN_ID>  (633) 
A A A A A A A Z Z Z Z Z Z Z Z Z Z Z

>  <atom.prop.IS_HEAVY_ATOM>  (633) 
1 0 0 0 1 1 1 1 0 0 0 1 0 0 1 0 0 0

>  <DIFUSE_FUNC_ATOM>  (633) 
atom 6   atom 7   

>  <FINAL_SINGLE_POINT_ENERGY>  (633) 
0

>  <NONCOV_INTER_ENERGY_QM>  (633) 
0

>  <FF_Energy>  (633) 
20.96

>  <QM_Energy>  (633) 
2.96

>  <source>  (633) 
ACET_PRPA_05

>  <Index>  (633) 
37349

$$$$
ACET-pdb1l8w-A-GLU-229:PRPA-pdb1l8w-A-LYS-183
     RDKit          3D

 18 16  0  0  0  0  0  0  0  0999 V2000
   -0.0018    1.5178   -0.0080 C   0  0  0  0  0  0  0  0  0  0  0  0
   -0.2960    1.8091   -0.8984 H   0  0  0  0  0  0  0  0  0  0  0  0
    0.9098    1.8149    0.2015 H   0  0  0  0  0  0  0  0  0  0  0  0
   -0.6817    1.9374    0.7336 H   0  0  0  0  0  0  0  0  0  0  0  0
    0.0000    0.0000    0.0000 C   0  0  0  0  0  0  0  0  0  0  0  0
   -1.0988   -0.5945    0.0000 O   0  0  0  0  0  1  0  0  0  0  0  0
    1.0988   -0.5978    0.0000 O   0  0  0  0  0  0  0  0  0  0  0  0
   -0.2337    3.7542   -3.7452 C   0  0  0  0  0  0  0  0  0  0  0  0
   -1.2102    3.5459   -3.6597 H   0  0  0  0  0  0  0  0  0  0  0  0
    0.0027    3.8327   -4.7151 H   0  0  0  0  0  0  0  0  0  0  0  0
   -0.0285    4.7033   -3.2498 H   0  0  0  0  0  0  0  0  0  0  0  0
    0.5653    2.6342   -3.1312 C   0  0  0  0  0  0  0  0  0  0  0  0
    1.5295    2.8803   -3.1365 H   0  0  0  0  0  0  0  0  0  0  0  0
    0.2522    2.4815   -2.1997 H   0  0  0  0  0  0  0  0  0  0  0  0
    0.3902    1.3534   -3.9162 C   0  0  0  0  0  0  0  0  0  0  0  0
   -0.5811    1.1125   -3.9373 H   0  0  0  0  0  0  0  0  0  0  0  0
    0.7162    1.4948   -4.8517 H   0  0  0  0  0  0  0  0  0  0  0  0
    0.9526    0.5394   -3.4589 H   0  0  0  0  0  0  0  0  0  0  0  0
  1  5  1  0
  5  6  1  0
  5  7  2  0
  1  2  1  0
  1  3  1  0
  1  4  1  0
  8 12  1  0
 12 15  1  0
  8  9  1  0
  8 10  1  0
  8 11  1  0
 12 13  1  0
 12 14  1  0
 15 16  1  0
 15 17  1  0
 15 18  1  0
M  CHG  1   6  -1
M  END
>  <PDB_ID>  (634) 
pdb1l8w

>  <RESIDUE_NAME>  (634) 
GLU   LYS

>  <FRAG_NAME>  (634) 
ACET   PRPA

>  <FRAG_ATOM_NUM>  (634) 
fragi: 7  fragj: 11

>  <atom.prop.CHAIN_ID>  (634) 
A A A A A A A Z Z Z Z Z Z Z Z Z Z Z

>  <atom.prop.IS_HEAVY_ATOM>  (634) 
1 0 0 0 1 1 1 1 0 0 0 1 0 0 1 0 0 0

>  <DIFUSE_FUNC_ATOM>  (634) 
atom 6   atom 7   

>  <FINAL_SINGLE_POINT_ENERGY>  (634) 
0

>  <NONCOV_INTER_ENERGY_QM>  (634) 
0

>  <FF_Energy>  (634) 
18.67

>  <QM_Energy>  (634) 
1.78

>  <source>  (634) 
ACET_PRPA_05

>  <Index>  (634) 
37356

$$$$
ACET-pdb2pl2-A-GLU-193:PRPA-pdb2pl2-A-ARG-190
     RDKit          3D

 18 16  0  0  0  0  0  0  0  0999 V2000
   -0.0058    1.5265    0.0025 C   0  0  0  0  0  0  0  0  0  0  0  0
    0.9032    1.8273    0.2306 H   0  0  0  0  0  0  0  0  0  0  0  0
   -0.6702    1.8196    0.6664 H   0  0  0  0  0  0  0  0  0  0  0  0
   -0.2732    1.9658   -0.9585 H   0  0  0  0  0  0  0  0  0  0  0  0
    0.0000    0.0000    0.0000 C   0  0  0  0  0  0  0  0  0  0  0  0
   -1.0995   -0.5937   -0.0000 O   0  0  0  0  0  1  0  0  0  0  0  0
    1.0995   -0.6023    0.0000 O   0  0  0  0  0  0  0  0  0  0  0  0
   -3.1437   -0.4624   -2.2808 C   0  0  0  0  0  0  0  0  0  0  0  0
   -2.8694   -0.2639   -3.2234 H   0  0  0  0  0  0  0  0  0  0  0  0
   -2.5416    0.0317   -1.6509 H   0  0  0  0  0  0  0  0  0  0  0  0
   -4.1611   -0.0986   -2.1373 H   0  0  0  0  0  0  0  0  0  0  0  0
   -2.9448   -1.9531   -2.0418 C   0  0  0  0  0  0  0  0  0  0  0  0
   -3.2220   -2.1820   -1.1232 H   0  0  0  0  0  0  0  0  0  0  0  0
   -3.4518   -2.4667   -2.7141 H   0  0  0  0  0  0  0  0  0  0  0  0
   -1.4683   -2.2916   -2.1955 C   0  0  0  0  0  0  0  0  0  0  0  0
   -1.1856   -2.0212   -3.1193 H   0  0  0  0  0  0  0  0  0  0  0  0
   -0.9579   -1.7468   -1.5250 H   0  0  0  0  0  0  0  0  0  0  0  0
   -1.2474   -3.3483   -2.0451 H   0  0  0  0  0  0  0  0  0  0  0  0
  1  5  1  0
  5  6  1  0
  5  7  2  0
  1  2  1  0
  1  3  1  0
  1  4  1  0
  8 12  1  0
 12 15  1  0
  8  9  1  0
  8 10  1  0
  8 11  1  0
 12 13  1  0
 12 14  1  0
 15 16  1  0
 15 17  1  0
 15 18  1  0
M  CHG  1   6  -1
M  END
>  <PDB_ID>  (635) 
pdb2pl2

>  <RESIDUE_NAME>  (635) 
GLU   ARG

>  <FRAG_NAME>  (635) 
ACET   PRPA

>  <FRAG_ATOM_NUM>  (635) 
fragi: 7  fragj: 11

>  <atom.prop.CHAIN_ID>  (635) 
A A A A A A A Z Z Z Z Z Z Z Z Z Z Z

>  <atom.prop.IS_HEAVY_ATOM>  (635) 
1 0 0 0 1 1 1 1 0 0 0 1 0 0 1 0 0 0

>  <DIFUSE_FUNC_ATOM>  (635) 
atom 6   atom 7   

>  <FINAL_SINGLE_POINT_ENERGY>  (635) 
0

>  <NONCOV_INTER_ENERGY_QM>  (635) 
0

>  <FF_Energy>  (635) 
15.91

>  <QM_Energy>  (635) 
-2.17

>  <source>  (635) 
ACET_PRPA_05

>  <Index>  (635) 
38712

$$$$
ACET-pdb2oqy-A-ASP-263:PRPA-pdb2oqy-D-LYS-201
     RDKit          3D

 18 16  0  0  0  0  0  0  0  0999 V2000
    0.0037    1.5056    0.0145 C   0  0  0  0  0  0  0  0  0  0  0  0
   -0.9207    1.8337   -0.1397 H   0  0  0  0  0  0  0  0  0  0  0  0
    0.6147    1.8356   -0.6940 H   0  0  0  0  0  0  0  0  0  0  0  0
    0.3469    1.9083    0.9674 H   0  0  0  0  0  0  0  0  0  0  0  0
    0.0000    0.0000    0.0000 C   0  0  0  0  0  0  0  0  0  0  0  0
   -1.1020   -0.5920    0.0000 O   0  0  0  0  0  1  0  0  0  0  0  0
    1.1020   -0.5814    0.0000 O   0  0  0  0  0  0  0  0  0  0  0  0
    1.7194   -3.5234   -2.3067 C   0  0  0  0  0  0  0  0  0  0  0  0
    1.4668   -4.4351   -2.6351 H   0  0  0  0  0  0  0  0  0  0  0  0
    2.5673   -3.5833   -1.7788 H   0  0  0  0  0  0  0  0  0  0  0  0
    1.8752   -2.8659   -3.1620 H   0  0  0  0  0  0  0  0  0  0  0  0
    0.6132   -3.0059   -1.3998 C   0  0  0  0  0  0  0  0  0  0  0  0
    0.5562   -3.5890   -0.5964 H   0  0  0  0  0  0  0  0  0  0  0  0
    0.8224   -2.0703   -1.1360 H   0  0  0  0  0  0  0  0  0  0  0  0
   -0.7354   -3.0193   -2.1061 C   0  0  0  0  0  0  0  0  0  0  0  0
   -0.6834   -2.4208   -2.9163 H   0  0  0  0  0  0  0  0  0  0  0  0
   -0.9266   -3.9574   -2.4219 H   0  0  0  0  0  0  0  0  0  0  0  0
   -1.5534   -2.6847   -1.4681 H   0  0  0  0  0  0  0  0  0  0  0  0
  1  5  1  0
  5  6  1  0
  5  7  2  0
  1  2  1  0
  1  3  1  0
  1  4  1  0
  8 12  1  0
 12 15  1  0
  8  9  1  0
  8 10  1  0
  8 11  1  0
 12 13  1  0
 12 14  1  0
 15 16  1  0
 15 17  1  0
 15 18  1  0
M  CHG  1   6  -1
M  END
>  <PDB_ID>  (636) 
pdb2oqy

>  <RESIDUE_NAME>  (636) 
ASP   LYS

>  <FRAG_NAME>  (636) 
ACET   PRPA

>  <FRAG_ATOM_NUM>  (636) 
fragi: 7  fragj: 11

>  <atom.prop.CHAIN_ID>  (636) 
A A A A A A A Z Z Z Z Z Z Z Z Z Z Z

>  <atom.prop.IS_HEAVY_ATOM>  (636) 
1 0 0 0 1 1 1 1 0 0 0 1 0 0 1 0 0 0

>  <DIFUSE_FUNC_ATOM>  (636) 
atom 6   atom 7   

>  <FINAL_SINGLE_POINT_ENERGY>  (636) 
0

>  <NONCOV_INTER_ENERGY_QM>  (636) 
0

>  <FF_Energy>  (636) 
17.9

>  <QM_Energy>  (636) 
-0.7

>  <source>  (636) 
ACET_PRPA_05

>  <Index>  (636) 
38933

$$$$
ACET-pdb2pqg-A-GLU-70:PRPA-pdb2pqg-A-LYS-66
     RDKit          3D

 18 16  0  0  0  0  0  0  0  0999 V2000
    0.1582    1.4768    0.0155 C   0  0  0  0  0  0  0  0  0  0  0  0
    0.6815    1.7403   -0.8020 H   0  0  0  0  0  0  0  0  0  0  0  0
    0.6935    1.7227    0.8309 H   0  0  0  0  0  0  0  0  0  0  0  0
   -0.7512    2.0777    0.0277 H   0  0  0  0  0  0  0  0  0  0  0  0
    0.0000    0.0000    0.0000 C   0  0  0  0  0  0  0  0  0  0  0  0
   -1.0899   -0.5665    0.0000 O   0  0  0  0  0  1  0  0  0  0  0  0
    1.0899   -0.6030   -0.0000 O   0  0  0  0  0  0  0  0  0  0  0  0
    4.2173   -0.2062   -3.0288 C   0  0  0  0  0  0  0  0  0  0  0  0
    4.5016   -1.0834   -3.4125 H   0  0  0  0  0  0  0  0  0  0  0  0
    4.7136   -0.0659   -2.0685 H   0  0  0  0  0  0  0  0  0  0  0  0
    4.5257    0.5958   -3.6996 H   0  0  0  0  0  0  0  0  0  0  0  0
    2.7076   -0.1039   -2.8955 C   0  0  0  0  0  0  0  0  0  0  0  0
    2.4951    0.7856   -2.4727 H   0  0  0  0  0  0  0  0  0  0  0  0
    2.3154   -0.1119   -3.8249 H   0  0  0  0  0  0  0  0  0  0  0  0
    2.0678   -1.1820   -2.0932 C   0  0  0  0  0  0  0  0  0  0  0  0
    2.2587   -2.0675   -2.5041 H   0  0  0  0  0  0  0  0  0  0  0  0
    2.4071   -1.1556   -1.1589 H   0  0  0  0  0  0  0  0  0  0  0  0
    0.9895   -1.0234   -2.0824 H   0  0  0  0  0  0  0  0  0  0  0  0
  1  5  1  0
  5  6  1  0
  5  7  2  0
  1  2  1  0
  1  3  1  0
  1  4  1  0
  8 12  1  0
 12 15  1  0
  8  9  1  0
  8 10  1  0
  8 11  1  0
 12 13  1  0
 12 14  1  0
 15 16  1  0
 15 17  1  0
 15 18  1  0
M  CHG  1   6  -1
M  END
>  <PDB_ID>  (637) 
pdb2pqg

>  <RESIDUE_NAME>  (637) 
GLU   LYS

>  <FRAG_NAME>  (637) 
ACET   PRPA

>  <FRAG_ATOM_NUM>  (637) 
fragi: 7  fragj: 11

>  <atom.prop.CHAIN_ID>  (637) 
A A A A A A A Z Z Z Z Z Z Z Z Z Z Z

>  <atom.prop.IS_HEAVY_ATOM>  (637) 
1 0 0 0 1 1 1 1 0 0 0 1 0 0 1 0 0 0

>  <DIFUSE_FUNC_ATOM>  (637) 
atom 6   atom 7   

>  <FINAL_SINGLE_POINT_ENERGY>  (637) 
0

>  <NONCOV_INTER_ENERGY_QM>  (637) 
0

>  <FF_Energy>  (637) 
42.17

>  <QM_Energy>  (637) 
10.93

>  <source>  (637) 
ACET_PRPA_06

>  <Index>  (637) 
1138

$$$$
ACET-pdb1l5j-A-ASP-288:PRPA-pdb1l5j-A-ARG-344
     RDKit          3D

 18 16  0  0  0  0  0  0  0  0999 V2000
   -0.0772    1.5154   -0.0044 C   0  0  0  0  0  0  0  0  0  0  0  0
    0.7541    1.8776   -0.4073 H   0  0  0  0  0  0  0  0  0  0  0  0
   -0.1829    1.8339    0.9290 H   0  0  0  0  0  0  0  0  0  0  0  0
   -0.9208    1.8894   -0.5846 H   0  0  0  0  0  0  0  0  0  0  0  0
    0.0000    0.0000    0.0000 C   0  0  0  0  0  0  0  0  0  0  0  0
   -1.0776   -0.6274   -0.0000 O   0  0  0  0  0  1  0  0  0  0  0  0
    1.0776   -0.6539    0.0000 O   0  0  0  0  0  0  0  0  0  0  0  0
   -4.1453   -0.8688   -1.2209 C   0  0  0  0  0  0  0  0  0  0  0  0
   -4.2153   -0.7358   -2.2235 H   0  0  0  0  0  0  0  0  0  0  0  0
   -3.2924   -0.4104   -0.9176 H   0  0  0  0  0  0  0  0  0  0  0  0
   -4.9865   -0.3558   -0.7546 H   0  0  0  0  0  0  0  0  0  0  0  0
   -3.9929   -2.3450   -0.9606 C   0  0  0  0  0  0  0  0  0  0  0  0
   -4.4781   -2.5935   -0.1374 H   0  0  0  0  0  0  0  0  0  0  0  0
   -4.3135   -2.8589   -1.7402 H   0  0  0  0  0  0  0  0  0  0  0  0
   -2.5245   -2.6539   -0.7593 C   0  0  0  0  0  0  0  0  0  0  0  0
   -2.0036   -1.8183   -0.9596 H   0  0  0  0  0  0  0  0  0  0  0  0
   -2.3913   -2.8943    0.2070 H   0  0  0  0  0  0  0  0  0  0  0  0
   -2.1647   -3.4671   -1.3897 H   0  0  0  0  0  0  0  0  0  0  0  0
  1  5  1  0
  5  6  1  0
  5  7  2  0
  1  2  1  0
  1  3  1  0
  1  4  1  0
  8 12  1  0
 12 15  1  0
  8  9  1  0
  8 10  1  0
  8 11  1  0
 12 13  1  0
 12 14  1  0
 15 16  1  0
 15 17  1  0
 15 18  1  0
M  CHG  1   6  -1
M  END
>  <PDB_ID>  (638) 
pdb1l5j

>  <RESIDUE_NAME>  (638) 
ASP   ARG

>  <FRAG_NAME>  (638) 
ACET   PRPA

>  <FRAG_ATOM_NUM>  (638) 
fragi: 7  fragj: 11

>  <atom.prop.CHAIN_ID>  (638) 
A A A A A A A Z Z Z Z Z Z Z Z Z Z Z

>  <atom.prop.IS_HEAVY_ATOM>  (638) 
1 0 0 0 1 1 1 1 0 0 0 1 0 0 1 0 0 0

>  <DIFUSE_FUNC_ATOM>  (638) 
atom 6   atom 7   

>  <FINAL_SINGLE_POINT_ENERGY>  (638) 
0

>  <NONCOV_INTER_ENERGY_QM>  (638) 
0

>  <FF_Energy>  (638) 
33.56

>  <QM_Energy>  (638) 
2.41

>  <source>  (638) 
ACET_PRPA_06

>  <Index>  (638) 
1433

$$$$
ACET-pdb2pqi-A-GLU-166:PRPA-pdb2pqi-A-LYS-161
     RDKit          3D

 18 16  0  0  0  0  0  0  0  0999 V2000
    0.1838    1.4866    0.0153 C   0  0  0  0  0  0  0  0  0  0  0  0
    0.7013    1.7375   -0.8012 H   0  0  0  0  0  0  0  0  0  0  0  0
    0.7125    1.7190    0.8303 H   0  0  0  0  0  0  0  0  0  0  0  0
   -0.7275    2.0847    0.0270 H   0  0  0  0  0  0  0  0  0  0  0  0
    0.0000    0.0000    0.0000 C   0  0  0  0  0  0  0  0  0  0  0  0
   -1.0891   -0.5555    0.0000 O   0  0  0  0  0  1  0  0  0  0  0  0
    1.0891   -0.6117    0.0000 O   0  0  0  0  0  0  0  0  0  0  0  0
    3.5851    0.1257   -0.5324 C   0  0  0  0  0  0  0  0  0  0  0  0
    3.1615   -0.8027   -0.4778 H   0  0  0  0  0  0  0  0  0  0  0  0
    4.6646    0.0057   -0.6226 H   0  0  0  0  0  0  0  0  0  0  0  0
    3.1160    0.6705   -1.3517 H   0  0  0  0  0  0  0  0  0  0  0  0
    3.2282    0.8360    0.8003 C   0  0  0  0  0  0  0  0  0  0  0  0
    3.6629    1.7336    0.7894 H   0  0  0  0  0  0  0  0  0  0  0  0
    2.2370    0.9385    0.8305 H   0  0  0  0  0  0  0  0  0  0  0  0
    3.6813    0.0911    2.0433 C   0  0  0  0  0  0  0  0  0  0  0  0
    3.2482   -0.8112    2.0593 H   0  0  0  0  0  0  0  0  0  0  0  0
    4.6741   -0.0161    2.0182 H   0  0  0  0  0  0  0  0  0  0  0  0
    3.4062    0.6297    2.9501 H   0  0  0  0  0  0  0  0  0  0  0  0
  1  5  1  0
  5  6  1  0
  5  7  2  0
  1  2  1  0
  1  3  1  0
  1  4  1  0
  8 12  1  0
 12 15  1  0
  8  9  1  0
  8 10  1  0
  8 11  1  0
 12 13  1  0
 12 14  1  0
 15 16  1  0
 15 17  1  0
 15 18  1  0
M  CHG  1   6  -1
M  END
>  <PDB_ID>  (639) 
pdb2pqi

>  <RESIDUE_NAME>  (639) 
GLU   LYS

>  <FRAG_NAME>  (639) 
ACET   PRPA

>  <FRAG_ATOM_NUM>  (639) 
fragi: 7  fragj: 11

>  <atom.prop.CHAIN_ID>  (639) 
A A A A A A A Z Z Z Z Z Z Z Z Z Z Z

>  <atom.prop.IS_HEAVY_ATOM>  (639) 
1 0 0 0 1 1 1 1 0 0 0 1 0 0 1 0 0 0

>  <DIFUSE_FUNC_ATOM>  (639) 
atom 6   atom 7   

>  <FINAL_SINGLE_POINT_ENERGY>  (639) 
0

>  <NONCOV_INTER_ENERGY_QM>  (639) 
0

>  <FF_Energy>  (639) 
26.0

>  <QM_Energy>  (639) 
3.62

>  <source>  (639) 
ACET_PRPA_06

>  <Index>  (639) 
2992

$$$$
ACET-pdb1l9m-A-ASP-588:PRPA-pdb1l9m-A-ARG-570
     RDKit          3D

 18 16  0  0  0  0  0  0  0  0999 V2000
   -0.0139    1.5081    0.0072 C   0  0  0  0  0  0  0  0  0  0  0  0
    0.5185    1.8414   -0.7622 H   0  0  0  0  0  0  0  0  0  0  0  0
    0.3697    1.8320    0.8633 H   0  0  0  0  0  0  0  0  0  0  0  0
   -1.0209    1.9153   -0.0827 H   0  0  0  0  0  0  0  0  0  0  0  0
    0.0000    0.0000    0.0000 C   0  0  0  0  0  0  0  0  0  0  0  0
   -1.0962   -0.5866   -0.0000 O   0  0  0  0  0  1  0  0  0  0  0  0
    1.0962   -0.5967   -0.0000 O   0  0  0  0  0  0  0  0  0  0  0  0
   -3.2322   -2.6398    1.8461 C   0  0  0  0  0  0  0  0  0  0  0  0
   -2.2899   -2.6131    2.1652 H   0  0  0  0  0  0  0  0  0  0  0  0
   -3.7793   -3.2242    2.4369 H   0  0  0  0  0  0  0  0  0  0  0  0
   -3.6373   -1.6290    1.8956 H   0  0  0  0  0  0  0  0  0  0  0  0
   -3.2411   -3.2424    0.4487 C   0  0  0  0  0  0  0  0  0  0  0  0
   -3.5574   -4.1812    0.4979 H   0  0  0  0  0  0  0  0  0  0  0  0
   -3.8308   -2.7020   -0.1378 H   0  0  0  0  0  0  0  0  0  0  0  0
   -1.8498   -3.2313   -0.1266 C   0  0  0  0  0  0  0  0  0  0  0  0
   -1.9200   -3.1318   -1.1187 H   0  0  0  0  0  0  0  0  0  0  0  0
   -1.3596   -2.4476    0.2547 H   0  0  0  0  0  0  0  0  0  0  0  0
   -1.3017   -4.1447    0.1042 H   0  0  0  0  0  0  0  0  0  0  0  0
  1  5  1  0
  5  6  1  0
  5  7  2  0
  1  2  1  0
  1  3  1  0
  1  4  1  0
  8 12  1  0
 12 15  1  0
  8  9  1  0
  8 10  1  0
  8 11  1  0
 12 13  1  0
 12 14  1  0
 15 16  1  0
 15 17  1  0
 15 18  1  0
M  CHG  1   6  -1
M  END
>  <PDB_ID>  (640) 
pdb1l9m

>  <RESIDUE_NAME>  (640) 
ASP   ARG

>  <FRAG_NAME>  (640) 
ACET   PRPA

>  <FRAG_ATOM_NUM>  (640) 
fragi: 7  fragj: 11

>  <atom.prop.CHAIN_ID>  (640) 
A A A A A A A Z Z Z Z Z Z Z Z Z Z Z

>  <atom.prop.IS_HEAVY_ATOM>  (640) 
1 0 0 0 1 1 1 1 0 0 0 1 0 0 1 0 0 0

>  <DIFUSE_FUNC_ATOM>  (640) 
atom 6   atom 7   

>  <FINAL_SINGLE_POINT_ENERGY>  (640) 
0

>  <NONCOV_INTER_ENERGY_QM>  (640) 
0

>  <FF_Energy>  (640) 
15.74

>  <QM_Energy>  (640) 
-0.05

>  <source>  (640) 
ACET_PRPA_06

>  <Index>  (640) 
3339

$$$$
ACET-pdb1lt7-A-GLU-136:PRPA-pdb1lt7-A-LYS-132
     RDKit          3D

 18 16  0  0  0  0  0  0  0  0999 V2000
   -0.0002    1.4939    0.0015 C   0  0  0  0  0  0  0  0  0  0  0  0
   -0.5077    1.7996   -0.7848 H   0  0  0  0  0  0  0  0  0  0  0  0
    0.9363    1.7989   -0.0224 H   0  0  0  0  0  0  0  0  0  0  0  0
   -0.4719    1.9084    0.8924 H   0  0  0  0  0  0  0  0  0  0  0  0
    0.0000    0.0000    0.0000 C   0  0  0  0  0  0  0  0  0  0  0  0
   -1.0943   -0.5865   -0.0000 O   0  0  0  0  0  1  0  0  0  0  0  0
    1.0943   -0.5896   -0.0000 O   0  0  0  0  0  0  0  0  0  0  0  0
   -1.5057    4.7706   -2.3255 C   0  0  0  0  0  0  0  0  0  0  0  0
   -2.4698    4.7090   -2.5339 H   0  0  0  0  0  0  0  0  0  0  0  0
   -1.0231    5.4121   -3.0629 H   0  0  0  0  0  0  0  0  0  0  0  0
   -1.3791    5.2662   -1.3630 H   0  0  0  0  0  0  0  0  0  0  0  0
   -0.8761    3.3740   -2.2943 C   0  0  0  0  0  0  0  0  0  0  0  0
    0.1106    3.4809   -2.2257 H   0  0  0  0  0  0  0  0  0  0  0  0
   -1.2265    2.8942   -1.4948 H   0  0  0  0  0  0  0  0  0  0  0  0
   -1.1881    2.5490   -3.5272 C   0  0  0  0  0  0  0  0  0  0  0  0
   -2.1884    2.4735   -3.6263 H   0  0  0  0  0  0  0  0  0  0  0  0
   -0.8247    3.0217   -4.3390 H   0  0  0  0  0  0  0  0  0  0  0  0
   -0.7638    1.5458   -3.4872 H   0  0  0  0  0  0  0  0  0  0  0  0
  1  5  1  0
  5  6  1  0
  5  7  2  0
  1  2  1  0
  1  3  1  0
  1  4  1  0
  8 12  1  0
 12 15  1  0
  8  9  1  0
  8 10  1  0
  8 11  1  0
 12 13  1  0
 12 14  1  0
 15 16  1  0
 15 17  1  0
 15 18  1  0
M  CHG  1   6  -1
M  END
>  <PDB_ID>  (641) 
pdb1lt7

>  <RESIDUE_NAME>  (641) 
GLU   LYS

>  <FRAG_NAME>  (641) 
ACET   PRPA

>  <FRAG_ATOM_NUM>  (641) 
fragi: 7  fragj: 11

>  <atom.prop.CHAIN_ID>  (641) 
A A A A A A A Z Z Z Z Z Z Z Z Z Z Z

>  <atom.prop.IS_HEAVY_ATOM>  (641) 
1 0 0 0 1 1 1 1 0 0 0 1 0 0 1 0 0 0

>  <DIFUSE_FUNC_ATOM>  (641) 
atom 6   atom 7   

>  <FINAL_SINGLE_POINT_ENERGY>  (641) 
0

>  <NONCOV_INTER_ENERGY_QM>  (641) 
0

>  <FF_Energy>  (641) 
38.21

>  <QM_Energy>  (641) 
5.58

>  <source>  (641) 
ACET_PRPA_06

>  <Index>  (641) 
4218

$$$$
ACET-pdb1lt7-A-GLU-136:PRPA-pdb1lt7-A-LYS-132
     RDKit          3D

 18 16  0  0  0  0  0  0  0  0999 V2000
   -0.0002    1.4939    0.0015 C   0  0  0  0  0  0  0  0  0  0  0  0
   -0.5077    1.7996   -0.7848 H   0  0  0  0  0  0  0  0  0  0  0  0
    0.9363    1.7989   -0.0224 H   0  0  0  0  0  0  0  0  0  0  0  0
   -0.4719    1.9084    0.8924 H   0  0  0  0  0  0  0  0  0  0  0  0
    0.0000    0.0000    0.0000 C   0  0  0  0  0  0  0  0  0  0  0  0
   -1.0943   -0.5865   -0.0000 O   0  0  0  0  0  1  0  0  0  0  0  0
    1.0943   -0.5896   -0.0000 O   0  0  0  0  0  0  0  0  0  0  0  0
   -0.8761    3.3740   -2.2943 C   0  0  0  0  0  0  0  0  0  0  0  0
    0.1106    3.4809   -2.2257 H   0  0  0  0  0  0  0  0  0  0  0  0
   -1.2265    2.8942   -1.4948 H   0  0  0  0  0  0  0  0  0  0  0  0
   -1.3239    4.3674   -2.3165 H   0  0  0  0  0  0  0  0  0  0  0  0
   -1.1881    2.5490   -3.5272 C   0  0  0  0  0  0  0  0  0  0  0  0
   -2.1884    2.4735   -3.6263 H   0  0  0  0  0  0  0  0  0  0  0  0
   -0.8247    3.0217   -4.3390 H   0  0  0  0  0  0  0  0  0  0  0  0
   -0.5977    1.1528   -3.4715 C   0  0  0  0  0  0  0  0  0  0  0  0
    0.3729    1.2173   -3.2917 H   0  0  0  0  0  0  0  0  0  0  0  0
   -1.0598    0.6314   -2.7702 H   0  0  0  0  0  0  0  0  0  0  0  0
   -0.7389    0.6470   -4.4267 H   0  0  0  0  0  0  0  0  0  0  0  0
  1  5  1  0
  5  6  1  0
  5  7  2  0
  1  2  1  0
  1  3  1  0
  1  4  1  0
  8 12  1  0
 12 15  1  0
  8  9  1  0
  8 10  1  0
  8 11  1  0
 12 13  1  0
 12 14  1  0
 15 16  1  0
 15 17  1  0
 15 18  1  0
M  CHG  1   6  -1
M  END
>  <PDB_ID>  (642) 
pdb1lt7

>  <RESIDUE_NAME>  (642) 
GLU   LYS

>  <FRAG_NAME>  (642) 
ACET   PRPA

>  <FRAG_ATOM_NUM>  (642) 
fragi: 7  fragj: 11

>  <atom.prop.CHAIN_ID>  (642) 
A A A A A A A Z Z Z Z Z Z Z Z Z Z Z

>  <atom.prop.IS_HEAVY_ATOM>  (642) 
1 0 0 0 1 1 1 1 0 0 0 1 0 0 1 0 0 0

>  <DIFUSE_FUNC_ATOM>  (642) 
atom 6   atom 7   

>  <FINAL_SINGLE_POINT_ENERGY>  (642) 
0

>  <NONCOV_INTER_ENERGY_QM>  (642) 
0

>  <FF_Energy>  (642) 
34.75

>  <QM_Energy>  (642) 
4.78

>  <source>  (642) 
ACET_PRPA_06

>  <Index>  (642) 
4222

$$$$
ACET-pdb1lar-B-GLU-1540:PRPA-pdb1lar-B-LYS-1508
     RDKit          3D

 18 16  0  0  0  0  0  0  0  0999 V2000
   -0.0123    1.5115    0.0072 C   0  0  0  0  0  0  0  0  0  0  0  0
   -0.3172    1.8111   -0.8752 H   0  0  0  0  0  0  0  0  0  0  0  0
    0.8960    1.8157    0.2172 H   0  0  0  0  0  0  0  0  0  0  0  0
   -0.6932    1.9085    0.7601 H   0  0  0  0  0  0  0  0  0  0  0  0
    0.0000    0.0000    0.0000 C   0  0  0  0  0  0  0  0  0  0  0  0
   -1.1030   -0.5929    0.0000 O   0  0  0  0  0  1  0  0  0  0  0  0
    1.1030   -0.5918   -0.0000 O   0  0  0  0  0  0  0  0  0  0  0  0
   -2.7086   -5.2814   -0.8014 C   0  0  0  0  0  0  0  0  0  0  0  0
   -2.0978   -6.0146   -0.5076 H   0  0  0  0  0  0  0  0  0  0  0  0
   -2.5873   -5.1139   -1.7783 H   0  0  0  0  0  0  0  0  0  0  0  0
   -3.7397   -5.5839   -0.6182 H   0  0  0  0  0  0  0  0  0  0  0  0
   -2.3479   -4.0046   -0.0340 C   0  0  0  0  0  0  0  0  0  0  0  0
   -3.0799   -3.3450   -0.1535 H   0  0  0  0  0  0  0  0  0  0  0  0
   -2.2331   -4.2310    0.9258 H   0  0  0  0  0  0  0  0  0  0  0  0
   -1.0489   -3.3918   -0.5494 C   0  0  0  0  0  0  0  0  0  0  0  0
   -0.9345   -3.6396   -1.5157 H   0  0  0  0  0  0  0  0  0  0  0  0
   -1.1101   -2.3923   -0.4767 H   0  0  0  0  0  0  0  0  0  0  0  0
   -0.1794   -3.7355    0.0109 H   0  0  0  0  0  0  0  0  0  0  0  0
  1  5  1  0
  5  6  1  0
  5  7  2  0
  1  2  1  0
  1  3  1  0
  1  4  1  0
  8 12  1  0
 12 15  1  0
  8  9  1  0
  8 10  1  0
  8 11  1  0
 12 13  1  0
 12 14  1  0
 15 16  1  0
 15 17  1  0
 15 18  1  0
M  CHG  1   6  -1
M  END
>  <PDB_ID>  (643) 
pdb1lar

>  <RESIDUE_NAME>  (643) 
GLU   LYS

>  <FRAG_NAME>  (643) 
ACET   PRPA

>  <FRAG_ATOM_NUM>  (643) 
fragi: 7  fragj: 11

>  <atom.prop.CHAIN_ID>  (643) 
A A A A A A A Z Z Z Z Z Z Z Z Z Z Z

>  <atom.prop.IS_HEAVY_ATOM>  (643) 
1 0 0 0 1 1 1 1 0 0 0 1 0 0 1 0 0 0

>  <DIFUSE_FUNC_ATOM>  (643) 
atom 6   atom 7   

>  <FINAL_SINGLE_POINT_ENERGY>  (643) 
0

>  <NONCOV_INTER_ENERGY_QM>  (643) 
0

>  <FF_Energy>  (643) 
17.39

>  <QM_Energy>  (643) 
-0.66

>  <source>  (643) 
ACET_PRPA_06

>  <Index>  (643) 
4697

$$$$
ACET-pdb1lzw-B-GLU-98:PRPA-pdb1lzw-B-LEU-93
     RDKit          3D

 18 16  0  0  0  0  0  0  0  0999 V2000
    0.0102    1.5195   -0.0083 C   0  0  0  0  0  0  0  0  0  0  0  0
    0.9189    1.8106    0.2267 H   0  0  0  0  0  0  0  0  0  0  0  0
   -0.6586    1.8230    0.6466 H   0  0  0  0  0  0  0  0  0  0  0  0
   -0.2437    1.9419   -0.9806 H   0  0  0  0  0  0  0  0  0  0  0  0
    0.0000    0.0000    0.0000 C   0  0  0  0  0  0  0  0  0  0  0  0
   -1.1038   -0.6058    0.0000 O   0  0  0  0  0  1  0  0  0  0  0  0
    1.1038   -0.5925    0.0000 O   0  0  0  0  0  0  0  0  0  0  0  0
   -0.3663   -0.4233    3.3684 C   0  0  0  0  0  0  0  0  0  0  0  0
   -0.7902   -0.9871    4.0805 H   0  0  0  0  0  0  0  0  0  0  0  0
   -0.7215   -0.7008    2.4747 H   0  0  0  0  0  0  0  0  0  0  0  0
   -0.6670    0.6103    3.5400 H   0  0  0  0  0  0  0  0  0  0  0  0
    1.1407   -0.7469    3.3756 C   0  0  0  0  0  0  0  0  0  0  0  0
    1.2801   -1.6341    2.9471 H   0  0  0  0  0  0  0  0  0  0  0  0
    1.5109   -0.7986    4.3995 H   0  0  0  0  0  0  0  0  0  0  0  0
    1.9067    0.3217    2.5962 C   0  0  0  0  0  0  0  0  0  0  0  0
    1.7581    1.2131    3.0224 H   0  0  0  0  0  0  0  0  0  0  0  0
    2.8820    0.1034    2.6068 H   0  0  0  0  0  0  0  0  0  0  0  0
    1.5774    0.3431    1.6529 H   0  0  0  0  0  0  0  0  0  0  0  0
  1  5  1  0
  5  6  1  0
  5  7  2  0
  1  2  1  0
  1  3  1  0
  1  4  1  0
  8 12  1  0
 12 15  1  0
  8  9  1  0
  8 10  1  0
  8 11  1  0
 12 13  1  0
 12 14  1  0
 15 16  1  0
 15 17  1  0
 15 18  1  0
M  CHG  1   6  -1
M  END
>  <PDB_ID>  (644) 
pdb1lzw

>  <RESIDUE_NAME>  (644) 
GLU   LEU

>  <FRAG_NAME>  (644) 
ACET   PRPA

>  <FRAG_ATOM_NUM>  (644) 
fragi: 7  fragj: 11

>  <atom.prop.CHAIN_ID>  (644) 
A A A A A A A Z Z Z Z Z Z Z Z Z Z Z

>  <atom.prop.IS_HEAVY_ATOM>  (644) 
1 0 0 0 1 1 1 1 0 0 0 1 0 0 1 0 0 0

>  <DIFUSE_FUNC_ATOM>  (644) 
atom 6   atom 7   

>  <FINAL_SINGLE_POINT_ENERGY>  (644) 
0

>  <NONCOV_INTER_ENERGY_QM>  (644) 
0

>  <FF_Energy>  (644) 
14.08

>  <QM_Energy>  (644) 
-1.51

>  <source>  (644) 
ACET_PRPA_06

>  <Index>  (644) 
5094

$$$$
ACET-pdb1lzw-B-GLU-96:PRPA-pdb1lzw-B-PRO-129
     RDKit          3D

 18 16  0  0  0  0  0  0  0  0999 V2000
    0.0072    1.5299    0.0196 C   0  0  0  0  0  0  0  0  0  0  0  0
   -0.6851    1.8322   -0.6030 H   0  0  0  0  0  0  0  0  0  0  0  0
    0.9064    1.8195   -0.2395 H   0  0  0  0  0  0  0  0  0  0  0  0
   -0.2168    1.9288    1.0090 H   0  0  0  0  0  0  0  0  0  0  0  0
    0.0000    0.0000    0.0000 C   0  0  0  0  0  0  0  0  0  0  0  0
   -1.1017   -0.6015   -0.0000 O   0  0  0  0  0  1  0  0  0  0  0  0
    1.1017   -0.6002   -0.0000 O   0  0  0  0  0  0  0  0  0  0  0  0
    1.6839   -1.4258   -3.5389 C   0  0  0  0  0  0  0  0  0  0  0  0
    1.7404   -2.2139   -2.9213 H   0  0  0  0  0  0  0  0  0  0  0  0
    2.5013   -1.4063   -4.1182 H   0  0  0  0  0  0  0  0  0  0  0  0
    0.7809   -1.4779   -4.1471 H   0  0  0  0  0  0  0  0  0  0  0  0
    1.5443   -0.1517   -2.7681 C   0  0  0  0  0  0  0  0  0  0  0  0
    0.9898   -0.3013   -1.9461 H   0  0  0  0  0  0  0  0  0  0  0  0
    2.4464    0.1912   -2.4967 H   0  0  0  0  0  0  0  0  0  0  0  0
    0.8722    0.7794   -3.7144 C   0  0  0  0  0  0  0  0  0  0  0  0
    0.3905    1.5098   -3.2395 H   0  0  0  0  0  0  0  0  0  0  0  0
    1.5114    1.1650   -4.3759 H   0  0  0  0  0  0  0  0  0  0  0  0
    0.1644    0.1155   -4.2105 H   0  0  0  0  0  0  0  0  0  0  0  0
  1  5  1  0
  5  6  1  0
  5  7  2  0
  1  2  1  0
  1  3  1  0
  1  4  1  0
  8 12  1  0
 12 15  1  0
  8  9  1  0
  8 10  1  0
  8 11  1  0
 12 13  1  0
 12 14  1  0
 15 16  1  0
 15 17  1  0
 15 18  1  0
M  CHG  1   6  -1
M  END
>  <PDB_ID>  (645) 
pdb1lzw

>  <RESIDUE_NAME>  (645) 
GLU   PRO

>  <FRAG_NAME>  (645) 
ACET   PRPA

>  <FRAG_ATOM_NUM>  (645) 
fragi: 7  fragj: 11

>  <atom.prop.CHAIN_ID>  (645) 
A A A A A A A Z Z Z Z Z Z Z Z Z Z Z

>  <atom.prop.IS_HEAVY_ATOM>  (645) 
1 0 0 0 1 1 1 1 0 0 0 1 0 0 1 0 0 0

>  <DIFUSE_FUNC_ATOM>  (645) 
atom 6   atom 7   

>  <FINAL_SINGLE_POINT_ENERGY>  (645) 
0

>  <NONCOV_INTER_ENERGY_QM>  (645) 
0

>  <FF_Energy>  (645) 
15.91

>  <QM_Energy>  (645) 
0.12

>  <source>  (645) 
ACET_PRPA_06

>  <Index>  (645) 
5465

$$$$
ACET-pdb1lar-B-GLU-1651:PRPA-pdb1lar-B-ARG-1629
     RDKit          3D

 18 16  0  0  0  0  0  0  0  0999 V2000
    0.0085    1.5297    0.0064 C   0  0  0  0  0  0  0  0  0  0  0  0
    0.8394    1.8189   -0.4333 H   0  0  0  0  0  0  0  0  0  0  0  0
   -0.0335    1.8175    0.9463 H   0  0  0  0  0  0  0  0  0  0  0  0
   -0.8342    1.9693   -0.5272 H   0  0  0  0  0  0  0  0  0  0  0  0
    0.0000    0.0000    0.0000 C   0  0  0  0  0  0  0  0  0  0  0  0
   -1.1018   -0.6014    0.0000 O   0  0  0  0  0  1  0  0  0  0  0  0
    1.1018   -0.5939   -0.0000 O   0  0  0  0  0  0  0  0  0  0  0  0
    1.6918    5.4643   -0.3730 C   0  0  0  0  0  0  0  0  0  0  0  0
    1.6896    6.4492   -0.4804 H   0  0  0  0  0  0  0  0  0  0  0  0
    1.3928    5.0167   -1.2043 H   0  0  0  0  0  0  0  0  0  0  0  0
    2.7097    5.1423   -0.1531 H   0  0  0  0  0  0  0  0  0  0  0  0
    0.7115    5.1075    0.7348 C   0  0  0  0  0  0  0  0  0  0  0  0
    1.2002    4.6330    1.4699 H   0  0  0  0  0  0  0  0  0  0  0  0
    0.3069    5.9483    1.1022 H   0  0  0  0  0  0  0  0  0  0  0  0
   -0.4192    4.2096    0.2626 C   0  0  0  0  0  0  0  0  0  0  0  0
   -0.0642    3.6181   -0.4633 H   0  0  0  0  0  0  0  0  0  0  0  0
   -0.7102    3.6446    1.0361 H   0  0  0  0  0  0  0  0  0  0  0  0
   -1.2781    4.7628   -0.1174 H   0  0  0  0  0  0  0  0  0  0  0  0
  1  5  1  0
  5  6  1  0
  5  7  2  0
  1  2  1  0
  1  3  1  0
  1  4  1  0
  8 12  1  0
 12 15  1  0
  8  9  1  0
  8 10  1  0
  8 11  1  0
 12 13  1  0
 12 14  1  0
 15 16  1  0
 15 17  1  0
 15 18  1  0
M  CHG  1   6  -1
M  END
>  <PDB_ID>  (646) 
pdb1lar

>  <RESIDUE_NAME>  (646) 
GLU   ARG

>  <FRAG_NAME>  (646) 
ACET   PRPA

>  <FRAG_ATOM_NUM>  (646) 
fragi: 7  fragj: 11

>  <atom.prop.CHAIN_ID>  (646) 
A A A A A A A Z Z Z Z Z Z Z Z Z Z Z

>  <atom.prop.IS_HEAVY_ATOM>  (646) 
1 0 0 0 1 1 1 1 0 0 0 1 0 0 1 0 0 0

>  <DIFUSE_FUNC_ATOM>  (646) 
atom 6   atom 7   

>  <FINAL_SINGLE_POINT_ENERGY>  (646) 
0

>  <NONCOV_INTER_ENERGY_QM>  (646) 
0

>  <FF_Energy>  (646) 
23.93

>  <QM_Energy>  (646) 
8.5

>  <source>  (646) 
ACET_PRPA_06

>  <Index>  (646) 
5728

$$$$
ACET-pdb1lzw-B-GLU-164:PRPA-pdb1lzw-B-LEU-160
     RDKit          3D

 18 16  0  0  0  0  0  0  0  0999 V2000
    0.1750    1.4837    0.0156 C   0  0  0  0  0  0  0  0  0  0  0  0
    0.6946    1.7394   -0.8007 H   0  0  0  0  0  0  0  0  0  0  0  0
    0.7060    1.7197    0.8312 H   0  0  0  0  0  0  0  0  0  0  0  0
   -0.7358    2.0823    0.0281 H   0  0  0  0  0  0  0  0  0  0  0  0
    0.0000    0.0000    0.0000 C   0  0  0  0  0  0  0  0  0  0  0  0
   -1.0895   -0.5588   -0.0000 O   0  0  0  0  0  1  0  0  0  0  0  0
    1.0895   -0.6089    0.0000 O   0  0  0  0  0  0  0  0  0  0  0  0
    0.6618   -2.8644    1.0090 C   0  0  0  0  0  0  0  0  0  0  0  0
    0.2664   -1.9751    1.2419 H   0  0  0  0  0  0  0  0  0  0  0  0
    0.3072   -3.5592    1.6362 H   0  0  0  0  0  0  0  0  0  0  0  0
    1.6583   -2.8158    1.0981 H   0  0  0  0  0  0  0  0  0  0  0  0
    0.2940   -3.2290   -0.4166 C   0  0  0  0  0  0  0  0  0  0  0  0
    0.6933   -4.1117   -0.6509 H   0  0  0  0  0  0  0  0  0  0  0  0
    0.6780   -2.4756   -1.1042 H   0  0  0  0  0  0  0  0  0  0  0  0
   -1.2149   -3.3309   -0.5616 C   0  0  0  0  0  0  0  0  0  0  0  0
   -1.4456   -3.5916   -1.5004 H   0  0  0  0  0  0  0  0  0  0  0  0
   -1.5666   -4.0231    0.0708 H   0  0  0  0  0  0  0  0  0  0  0  0
   -1.6329   -2.4466   -0.3508 H   0  0  0  0  0  0  0  0  0  0  0  0
  1  5  1  0
  5  6  1  0
  5  7  2  0
  1  2  1  0
  1  3  1  0
  1  4  1  0
  8 12  1  0
 12 15  1  0
  8  9  1  0
  8 10  1  0
  8 11  1  0
 12 13  1  0
 12 14  1  0
 15 16  1  0
 15 17  1  0
 15 18  1  0
M  CHG  1   6  -1
M  END
>  <PDB_ID>  (647) 
pdb1lzw

>  <RESIDUE_NAME>  (647) 
GLU   LEU

>  <FRAG_NAME>  (647) 
ACET   PRPA

>  <FRAG_ATOM_NUM>  (647) 
fragi: 7  fragj: 11

>  <atom.prop.CHAIN_ID>  (647) 
A A A A A A A Z Z Z Z Z Z Z Z Z Z Z

>  <atom.prop.IS_HEAVY_ATOM>  (647) 
1 0 0 0 1 1 1 1 0 0 0 1 0 0 1 0 0 0

>  <DIFUSE_FUNC_ATOM>  (647) 
atom 6   atom 7   

>  <FINAL_SINGLE_POINT_ENERGY>  (647) 
0

>  <NONCOV_INTER_ENERGY_QM>  (647) 
0

>  <FF_Energy>  (647) 
34.5

>  <QM_Energy>  (647) 
6.95

>  <source>  (647) 
ACET_PRPA_06

>  <Index>  (647) 
5900

$$$$
ACET-pdb1m0u-A-GLU-154:PRPA-pdb1m0u-A-VAL-151
     RDKit          3D

 18 16  0  0  0  0  0  0  0  0999 V2000
    0.1882    1.4857    0.0153 C   0  0  0  0  0  0  0  0  0  0  0  0
    0.7068    1.7360   -0.8019 H   0  0  0  0  0  0  0  0  0  0  0  0
    0.7183    1.7175    0.8305 H   0  0  0  0  0  0  0  0  0  0  0  0
   -0.7220    2.0854    0.0272 H   0  0  0  0  0  0  0  0  0  0  0  0
    0.0000    0.0000    0.0000 C   0  0  0  0  0  0  0  0  0  0  0  0
   -1.0891   -0.5535   -0.0000 O   0  0  0  0  0  1  0  0  0  0  0  0
    1.0891   -0.6146    0.0000 O   0  0  0  0  0  0  0  0  0  0  0  0
    2.7125    1.1533    1.5345 C   0  0  0  0  0  0  0  0  0  0  0  0
    2.0380    0.7470    0.9120 H   0  0  0  0  0  0  0  0  0  0  0  0
    3.5353    1.5480    0.9383 H   0  0  0  0  0  0  0  0  0  0  0  0
    2.2211    1.9598    2.0786 H   0  0  0  0  0  0  0  0  0  0  0  0
    3.1921    0.0362    2.5049 C   0  0  0  0  0  0  0  0  0  0  0  0
    3.8656    0.4396    3.1161 H   0  0  0  0  0  0  0  0  0  0  0  0
    3.6317   -0.7928    1.9502 H   0  0  0  0  0  0  0  0  0  0  0  0
    2.0394   -0.4699    3.3809 C   0  0  0  0  0  0  0  0  0  0  0  0
    2.1579   -0.1253    4.3099 H   0  0  0  0  0  0  0  0  0  0  0  0
    1.1745   -0.1412    3.0073 H   0  0  0  0  0  0  0  0  0  0  0  0
    2.0465   -1.4680    3.3879 H   0  0  0  0  0  0  0  0  0  0  0  0
  1  5  1  0
  5  6  1  0
  5  7  2  0
  1  2  1  0
  1  3  1  0
  1  4  1  0
  8 12  1  0
 12 15  1  0
  8  9  1  0
  8 10  1  0
  8 11  1  0
 12 13  1  0
 12 14  1  0
 15 16  1  0
 15 17  1  0
 15 18  1  0
M  CHG  1   6  -1
M  END
>  <PDB_ID>  (648) 
pdb1m0u

>  <RESIDUE_NAME>  (648) 
GLU   VAL

>  <FRAG_NAME>  (648) 
ACET   PRPA

>  <FRAG_ATOM_NUM>  (648) 
fragi: 7  fragj: 11

>  <atom.prop.CHAIN_ID>  (648) 
A A A A A A A Z Z Z Z Z Z Z Z Z Z Z

>  <atom.prop.IS_HEAVY_ATOM>  (648) 
1 0 0 0 1 1 1 1 0 0 0 1 0 0 1 0 0 0

>  <DIFUSE_FUNC_ATOM>  (648) 
atom 6   atom 7   

>  <FINAL_SINGLE_POINT_ENERGY>  (648) 
0

>  <NONCOV_INTER_ENERGY_QM>  (648) 
0

>  <FF_Energy>  (648) 
41.7

>  <QM_Energy>  (648) 
5.79

>  <source>  (648) 
ACET_PRPA_06

>  <Index>  (648) 
6327

$$$$
ACET-pdb1m0u-A-GLU-154:PRPA-pdb1m0u-A-VAL-151
     RDKit          3D

 18 16  0  0  0  0  0  0  0  0999 V2000
    0.1882    1.4857    0.0153 C   0  0  0  0  0  0  0  0  0  0  0  0
    0.7068    1.7360   -0.8019 H   0  0  0  0  0  0  0  0  0  0  0  0
    0.7183    1.7175    0.8305 H   0  0  0  0  0  0  0  0  0  0  0  0
   -0.7220    2.0854    0.0272 H   0  0  0  0  0  0  0  0  0  0  0  0
    0.0000    0.0000    0.0000 C   0  0  0  0  0  0  0  0  0  0  0  0
   -1.0891   -0.5535   -0.0000 O   0  0  0  0  0  1  0  0  0  0  0  0
    1.0891   -0.6146    0.0000 O   0  0  0  0  0  0  0  0  0  0  0  0
    2.7125    1.1533    1.5345 C   0  0  0  0  0  0  0  0  0  0  0  0
    2.0380    0.7470    0.9120 H   0  0  0  0  0  0  0  0  0  0  0  0
    3.5353    1.5480    0.9383 H   0  0  0  0  0  0  0  0  0  0  0  0
    2.2211    1.9598    2.0786 H   0  0  0  0  0  0  0  0  0  0  0  0
    3.1921    0.0362    2.5049 C   0  0  0  0  0  0  0  0  0  0  0  0
    3.8656    0.4396    3.1161 H   0  0  0  0  0  0  0  0  0  0  0  0
    2.3729   -0.3235    3.1274 H   0  0  0  0  0  0  0  0  0  0  0  0
    3.8030   -1.1160    1.7341 C   0  0  0  0  0  0  0  0  0  0  0  0
    3.1269   -1.4865    1.0956 H   0  0  0  0  0  0  0  0  0  0  0  0
    4.6008   -0.7904    1.2244 H   0  0  0  0  0  0  0  0  0  0  0  0
    4.0854   -1.8326    2.3740 H   0  0  0  0  0  0  0  0  0  0  0  0
  1  5  1  0
  5  6  1  0
  5  7  2  0
  1  2  1  0
  1  3  1  0
  1  4  1  0
  8 12  1  0
 12 15  1  0
  8  9  1  0
  8 10  1  0
  8 11  1  0
 12 13  1  0
 12 14  1  0
 15 16  1  0
 15 17  1  0
 15 18  1  0
M  CHG  1   6  -1
M  END
>  <PDB_ID>  (649) 
pdb1m0u

>  <RESIDUE_NAME>  (649) 
GLU   VAL

>  <FRAG_NAME>  (649) 
ACET   PRPA

>  <FRAG_ATOM_NUM>  (649) 
fragi: 7  fragj: 11

>  <atom.prop.CHAIN_ID>  (649) 
A A A A A A A Z Z Z Z Z Z Z Z Z Z Z

>  <atom.prop.IS_HEAVY_ATOM>  (649) 
1 0 0 0 1 1 1 1 0 0 0 1 0 0 1 0 0 0

>  <DIFUSE_FUNC_ATOM>  (649) 
atom 6   atom 7   

>  <FINAL_SINGLE_POINT_ENERGY>  (649) 
0

>  <NONCOV_INTER_ENERGY_QM>  (649) 
0

>  <FF_Energy>  (649) 
42.1

>  <QM_Energy>  (649) 
5.43

>  <source>  (649) 
ACET_PRPA_06

>  <Index>  (649) 
6336

$$$$
ACET-pdb2q0z-X-GLU-57:PRPA-pdb2q0z-X-ARG-54
     RDKit          3D

 18 16  0  0  0  0  0  0  0  0999 V2000
   -0.0095    1.5007    0.0137 C   0  0  0  0  0  0  0  0  0  0  0  0
    0.7685    1.8081   -0.5018 H   0  0  0  0  0  0  0  0  0  0  0  0
    0.0285    1.7899    0.9525 H   0  0  0  0  0  0  0  0  0  0  0  0
   -0.9139    1.9035   -0.4424 H   0  0  0  0  0  0  0  0  0  0  0  0
    0.0000    0.0000    0.0000 C   0  0  0  0  0  0  0  0  0  0  0  0
   -1.1010   -0.5885   -0.0000 O   0  0  0  0  0  1  0  0  0  0  0  0
    1.1010   -0.5879   -0.0000 O   0  0  0  0  0  0  0  0  0  0  0  0
   -0.5366    0.6380    4.2247 C   0  0  0  0  0  0  0  0  0  0  0  0
   -0.0797    0.4372    5.1274 H   0  0  0  0  0  0  0  0  0  0  0  0
   -1.3405   -0.0845    4.0834 H   0  0  0  0  0  0  0  0  0  0  0  0
   -0.8278    1.6882    4.2110 H   0  0  0  0  0  0  0  0  0  0  0  0
    0.5136    0.4353    3.1162 C   0  0  0  0  0  0  0  0  0  0  0  0
    0.1270    0.7778    2.2604 H   0  0  0  0  0  0  0  0  0  0  0  0
    1.3208    0.9724    3.3557 H   0  0  0  0  0  0  0  0  0  0  0  0
    0.9519   -1.0056    2.8951 C   0  0  0  0  0  0  0  0  0  0  0  0
    0.3196   -1.6186    3.3587 H   0  0  0  0  0  0  0  0  0  0  0  0
    0.9673   -1.1996    1.9199 H   0  0  0  0  0  0  0  0  0  0  0  0
    1.9517   -1.1755    3.2950 H   0  0  0  0  0  0  0  0  0  0  0  0
  1  5  1  0
  5  6  1  0
  5  7  2  0
  1  2  1  0
  1  3  1  0
  1  4  1  0
  8 12  1  0
 12 15  1  0
  8  9  1  0
  8 10  1  0
  8 11  1  0
 12 13  1  0
 12 14  1  0
 15 16  1  0
 15 17  1  0
 15 18  1  0
M  CHG  1   6  -1
M  END
>  <PDB_ID>  (650) 
pdb2q0z

>  <RESIDUE_NAME>  (650) 
GLU   ARG

>  <FRAG_NAME>  (650) 
ACET   PRPA

>  <FRAG_ATOM_NUM>  (650) 
fragi: 7  fragj: 11

>  <atom.prop.CHAIN_ID>  (650) 
A A A A A A A Z Z Z Z Z Z Z Z Z Z Z

>  <atom.prop.IS_HEAVY_ATOM>  (650) 
1 0 0 0 1 1 1 1 0 0 0 1 0 0 1 0 0 0

>  <DIFUSE_FUNC_ATOM>  (650) 
atom 6   atom 7   

>  <FINAL_SINGLE_POINT_ENERGY>  (650) 
0

>  <NONCOV_INTER_ENERGY_QM>  (650) 
0

>  <FF_Energy>  (650) 
21.63

>  <QM_Energy>  (650) 
0.14

>  <source>  (650) 
ACET_PRPA_06

>  <Index>  (650) 
6512

$$$$
ACET-pdb2q0z-X-GLU-57:PRPA-pdb2q0z-X-ARG-54
     RDKit          3D

 18 16  0  0  0  0  0  0  0  0999 V2000
   -0.0095    1.5007    0.0137 C   0  0  0  0  0  0  0  0  0  0  0  0
    0.7685    1.8081   -0.5018 H   0  0  0  0  0  0  0  0  0  0  0  0
    0.0285    1.7899    0.9525 H   0  0  0  0  0  0  0  0  0  0  0  0
   -0.9139    1.9035   -0.4424 H   0  0  0  0  0  0  0  0  0  0  0  0
    0.0000    0.0000    0.0000 C   0  0  0  0  0  0  0  0  0  0  0  0
   -1.1010   -0.5885   -0.0000 O   0  0  0  0  0  1  0  0  0  0  0  0
    1.1010   -0.5879   -0.0000 O   0  0  0  0  0  0  0  0  0  0  0  0
    0.5136    0.4353    3.1162 C   0  0  0  0  0  0  0  0  0  0  0  0
    0.1270    0.7778    2.2604 H   0  0  0  0  0  0  0  0  0  0  0  0
    1.3208    0.9724    3.3557 H   0  0  0  0  0  0  0  0  0  0  0  0
   -0.2296    0.5787    3.9006 H   0  0  0  0  0  0  0  0  0  0  0  0
    0.9519   -1.0056    2.8951 C   0  0  0  0  0  0  0  0  0  0  0  0
    0.3196   -1.6186    3.3587 H   0  0  0  0  0  0  0  0  0  0  0  0
    0.9673   -1.1996    1.9199 H   0  0  0  0  0  0  0  0  0  0  0  0
    2.3410   -1.2416    3.4507 C   0  0  0  0  0  0  0  0  0  0  0  0
    2.9690   -0.5979    3.0042 H   0  0  0  0  0  0  0  0  0  0  0  0
    2.3198   -1.0454    4.4355 H   0  0  0  0  0  0  0  0  0  0  0  0
    2.7049   -2.2577    3.2981 H   0  0  0  0  0  0  0  0  0  0  0  0
  1  5  1  0
  5  6  1  0
  5  7  2  0
  1  2  1  0
  1  3  1  0
  1  4  1  0
  8 12  1  0
 12 15  1  0
  8  9  1  0
  8 10  1  0
  8 11  1  0
 12 13  1  0
 12 14  1  0
 15 16  1  0
 15 17  1  0
 15 18  1  0
M  CHG  1   6  -1
M  END
>  <PDB_ID>  (651) 
pdb2q0z

>  <RESIDUE_NAME>  (651) 
GLU   ARG

>  <FRAG_NAME>  (651) 
ACET   PRPA

>  <FRAG_ATOM_NUM>  (651) 
fragi: 7  fragj: 11

>  <atom.prop.CHAIN_ID>  (651) 
A A A A A A A Z Z Z Z Z Z Z Z Z Z Z

>  <atom.prop.IS_HEAVY_ATOM>  (651) 
1 0 0 0 1 1 1 1 0 0 0 1 0 0 1 0 0 0

>  <DIFUSE_FUNC_ATOM>  (651) 
atom 6   atom 7   

>  <FINAL_SINGLE_POINT_ENERGY>  (651) 
0

>  <NONCOV_INTER_ENERGY_QM>  (651) 
0

>  <FF_Energy>  (651) 
21.16

>  <QM_Energy>  (651) 
0.06

>  <source>  (651) 
ACET_PRPA_06

>  <Index>  (651) 
6519

$$$$
ACET-pdb1m05-A-GLU-53:PRPA-pdb1m05-A-PRO-50
     RDKit          3D

 18 16  0  0  0  0  0  0  0  0999 V2000
   -0.0095    1.5298    0.0091 C   0  0  0  0  0  0  0  0  0  0  0  0
   -0.6651    1.8234   -0.6580 H   0  0  0  0  0  0  0  0  0  0  0  0
    0.9012    1.8298   -0.1995 H   0  0  0  0  0  0  0  0  0  0  0  0
   -0.2952    1.9466    0.9750 H   0  0  0  0  0  0  0  0  0  0  0  0
    0.0000    0.0000    0.0000 C   0  0  0  0  0  0  0  0  0  0  0  0
   -1.1008   -0.6017    0.0000 O   0  0  0  0  0  1  0  0  0  0  0  0
    1.1008   -0.6010   -0.0000 O   0  0  0  0  0  0  0  0  0  0  0  0
    3.4096    1.1183   -0.3641 C   0  0  0  0  0  0  0  0  0  0  0  0
    2.5028    0.6763   -0.2063 H   0  0  0  0  0  0  0  0  0  0  0  0
    3.5677    1.2958   -1.4279 H   0  0  0  0  0  0  0  0  0  0  0  0
    3.5050    2.0069    0.2599 H   0  0  0  0  0  0  0  0  0  0  0  0
    4.4744    0.0723   -0.0350 C   0  0  0  0  0  0  0  0  0  0  0  0
    5.3416    0.5047    0.1892 H   0  0  0  0  0  0  0  0  0  0  0  0
    4.1779   -0.5163    0.7093 H   0  0  0  0  0  0  0  0  0  0  0  0
    4.5816   -0.7028   -1.3202 C   0  0  0  0  0  0  0  0  0  0  0  0
    5.4220   -1.2261   -1.3405 H   0  0  0  0  0  0  0  0  0  0  0  0
    3.7938   -1.2916   -1.4359 H   0  0  0  0  0  0  0  0  0  0  0  0
    4.5932    0.0929   -2.0652 H   0  0  0  0  0  0  0  0  0  0  0  0
  1  5  1  0
  5  6  1  0
  5  7  2  0
  1  2  1  0
  1  3  1  0
  1  4  1  0
  8 12  1  0
 12 15  1  0
  8  9  1  0
  8 10  1  0
  8 11  1  0
 12 13  1  0
 12 14  1  0
 15 16  1  0
 15 17  1  0
 15 18  1  0
M  CHG  1   6  -1
M  END
>  <PDB_ID>  (652) 
pdb1m05

>  <RESIDUE_NAME>  (652) 
GLU   PRO

>  <FRAG_NAME>  (652) 
ACET   PRPA

>  <FRAG_ATOM_NUM>  (652) 
fragi: 7  fragj: 11

>  <atom.prop.CHAIN_ID>  (652) 
A A A A A A A Z Z Z Z Z Z Z Z Z Z Z

>  <atom.prop.IS_HEAVY_ATOM>  (652) 
1 0 0 0 1 1 1 1 0 0 0 1 0 0 1 0 0 0

>  <DIFUSE_FUNC_ATOM>  (652) 
atom 6   atom 7   

>  <FINAL_SINGLE_POINT_ENERGY>  (652) 
0

>  <NONCOV_INTER_ENERGY_QM>  (652) 
0

>  <FF_Energy>  (652) 
14.95

>  <QM_Energy>  (652) 
-2.02

>  <source>  (652) 
ACET_PRPA_06

>  <Index>  (652) 
7422

$$$$
ACET-pdb1m0t-A-ASP-315:PRPA-pdb1m0t-A-ARG-123
     RDKit          3D

 18 16  0  0  0  0  0  0  0  0999 V2000
   -0.0343    1.5144   -0.0231 C   0  0  0  0  0  0  0  0  0  0  0  0
   -0.6468    1.8329    0.6950 H   0  0  0  0  0  0  0  0  0  0  0  0
   -0.3640    1.8150   -0.9126 H   0  0  0  0  0  0  0  0  0  0  0  0
    0.9409    1.9717    0.1434 H   0  0  0  0  0  0  0  0  0  0  0  0
    0.0000    0.0000    0.0000 C   0  0  0  0  0  0  0  0  0  0  0  0
   -1.0921   -0.5995   -0.0000 O   0  0  0  0  0  1  0  0  0  0  0  0
    1.0921   -0.6059    0.0000 O   0  0  0  0  0  0  0  0  0  0  0  0
   -0.5634   -1.1888   -4.2992 C   0  0  0  0  0  0  0  0  0  0  0  0
   -0.1912   -2.0205   -4.6987 H   0  0  0  0  0  0  0  0  0  0  0  0
    0.1344   -0.7237   -3.7624 H   0  0  0  0  0  0  0  0  0  0  0  0
   -0.8520   -0.5272   -5.1160 H   0  0  0  0  0  0  0  0  0  0  0  0
   -1.7045   -1.5804   -3.3589 C   0  0  0  0  0  0  0  0  0  0  0  0
   -2.1980   -0.7664   -3.0928 H   0  0  0  0  0  0  0  0  0  0  0  0
   -2.2952   -2.2249   -3.8201 H   0  0  0  0  0  0  0  0  0  0  0  0
   -1.1339   -2.2300   -2.1347 C   0  0  0  0  0  0  0  0  0  0  0  0
   -0.3241   -2.7515   -2.3992 H   0  0  0  0  0  0  0  0  0  0  0  0
   -0.8762   -1.5140   -1.4873 H   0  0  0  0  0  0  0  0  0  0  0  0
   -1.8499   -2.9003   -1.6591 H   0  0  0  0  0  0  0  0  0  0  0  0
  1  5  1  0
  5  6  1  0
  5  7  2  0
  1  2  1  0
  1  3  1  0
  1  4  1  0
  8 12  1  0
 12 15  1  0
  8  9  1  0
  8 10  1  0
  8 11  1  0
 12 13  1  0
 12 14  1  0
 15 16  1  0
 15 17  1  0
 15 18  1  0
M  CHG  1   6  -1
M  END
>  <PDB_ID>  (653) 
pdb1m0t

>  <RESIDUE_NAME>  (653) 
ASP   ARG

>  <FRAG_NAME>  (653) 
ACET   PRPA

>  <FRAG_ATOM_NUM>  (653) 
fragi: 7  fragj: 11

>  <atom.prop.CHAIN_ID>  (653) 
A A A A A A A Z Z Z Z Z Z Z Z Z Z Z

>  <atom.prop.IS_HEAVY_ATOM>  (653) 
1 0 0 0 1 1 1 1 0 0 0 1 0 0 1 0 0 0

>  <DIFUSE_FUNC_ATOM>  (653) 
atom 6   atom 7   

>  <FINAL_SINGLE_POINT_ENERGY>  (653) 
0

>  <NONCOV_INTER_ENERGY_QM>  (653) 
0

>  <FF_Energy>  (653) 
40.61

>  <QM_Energy>  (653) 
2.67

>  <source>  (653) 
ACET_PRPA_06

>  <Index>  (653) 
9752

$$$$
ACET-pdb1l9m-B-ASP-588:PRPA-pdb1l9m-B-ARG-570
     RDKit          3D

 18 16  0  0  0  0  0  0  0  0999 V2000
    0.0011    1.5154   -0.0027 C   0  0  0  0  0  0  0  0  0  0  0  0
    0.2831    1.8327   -0.9010 H   0  0  0  0  0  0  0  0  0  0  0  0
    0.6320    1.8353    0.6936 H   0  0  0  0  0  0  0  0  0  0  0  0
   -0.9818    1.9355    0.2112 H   0  0  0  0  0  0  0  0  0  0  0  0
    0.0000    0.0000    0.0000 C   0  0  0  0  0  0  0  0  0  0  0  0
   -1.0976   -0.5951   -0.0000 O   0  0  0  0  0  1  0  0  0  0  0  0
    1.0976   -0.5913    0.0000 O   0  0  0  0  0  0  0  0  0  0  0  0
   -2.8279   -2.6093    2.3189 C   0  0  0  0  0  0  0  0  0  0  0  0
   -1.8420   -2.6475    2.4446 H   0  0  0  0  0  0  0  0  0  0  0  0
   -3.2808   -3.2320    2.9490 H   0  0  0  0  0  0  0  0  0  0  0  0
   -3.1607   -1.5960    2.5434 H   0  0  0  0  0  0  0  0  0  0  0  0
   -3.1411   -3.0663    0.8974 C   0  0  0  0  0  0  0  0  0  0  0  0
   -3.5560   -3.9692    0.9265 H   0  0  0  0  0  0  0  0  0  0  0  0
   -3.7585   -2.4134    0.4717 H   0  0  0  0  0  0  0  0  0  0  0  0
   -1.8795   -3.1435    0.0684 C   0  0  0  0  0  0  0  0  0  0  0  0
   -2.1282   -3.0264   -0.8893 H   0  0  0  0  0  0  0  0  0  0  0  0
   -1.2723   -2.4070    0.3569 H   0  0  0  0  0  0  0  0  0  0  0  0
   -1.3739   -4.1005    0.1962 H   0  0  0  0  0  0  0  0  0  0  0  0
  1  5  1  0
  5  6  1  0
  5  7  2  0
  1  2  1  0
  1  3  1  0
  1  4  1  0
  8 12  1  0
 12 15  1  0
  8  9  1  0
  8 10  1  0
  8 11  1  0
 12 13  1  0
 12 14  1  0
 15 16  1  0
 15 17  1  0
 15 18  1  0
M  CHG  1   6  -1
M  END
>  <PDB_ID>  (654) 
pdb1l9m

>  <RESIDUE_NAME>  (654) 
ASP   ARG

>  <FRAG_NAME>  (654) 
ACET   PRPA

>  <FRAG_ATOM_NUM>  (654) 
fragi: 7  fragj: 11

>  <atom.prop.CHAIN_ID>  (654) 
A A A A A A A Z Z Z Z Z Z Z Z Z Z Z

>  <atom.prop.IS_HEAVY_ATOM>  (654) 
1 0 0 0 1 1 1 1 0 0 0 1 0 0 1 0 0 0

>  <DIFUSE_FUNC_ATOM>  (654) 
atom 6   atom 7   

>  <FINAL_SINGLE_POINT_ENERGY>  (654) 
0

>  <NONCOV_INTER_ENERGY_QM>  (654) 
0

>  <FF_Energy>  (654) 
22.05

>  <QM_Energy>  (654) 
1.32

>  <source>  (654) 
ACET_PRPA_06

>  <Index>  (654) 
10154

$$$$
ACET-pdb2q5x-A-GLU-796:PRPA-pdb2q5x-A-PRO-793
     RDKit          3D

 18 16  0  0  0  0  0  0  0  0999 V2000
   -0.0007    1.5159    0.0014 C   0  0  0  0  0  0  0  0  0  0  0  0
    0.4421    1.8135   -0.8239 H   0  0  0  0  0  0  0  0  0  0  0  0
    0.4764    1.8110    0.8075 H   0  0  0  0  0  0  0  0  0  0  0  0
   -1.0072    1.9337    0.0224 H   0  0  0  0  0  0  0  0  0  0  0  0
    0.0000    0.0000    0.0000 C   0  0  0  0  0  0  0  0  0  0  0  0
   -1.0990   -0.5946   -0.0000 O   0  0  0  0  0  1  0  0  0  0  0  0
    1.0990   -0.5944    0.0000 O   0  0  0  0  0  0  0  0  0  0  0  0
   -0.2164   -0.5841    4.0459 C   0  0  0  0  0  0  0  0  0  0  0  0
    0.3084   -0.0574    3.3821 H   0  0  0  0  0  0  0  0  0  0  0  0
    0.3546   -0.8075    4.8311 H   0  0  0  0  0  0  0  0  0  0  0  0
   -1.1091   -0.0405    4.3556 H   0  0  0  0  0  0  0  0  0  0  0  0
   -0.7761   -1.8273    3.4190 C   0  0  0  0  0  0  0  0  0  0  0  0
   -0.1006   -2.2609    2.8384 H   0  0  0  0  0  0  0  0  0  0  0  0
   -1.1009   -2.4534    4.1144 H   0  0  0  0  0  0  0  0  0  0  0  0
   -1.9214   -1.2805    2.6040 C   0  0  0  0  0  0  0  0  0  0  0  0
   -1.6015   -0.8720    1.7552 H   0  0  0  0  0  0  0  0  0  0  0  0
   -2.6009   -1.9830    2.4137 H   0  0  0  0  0  0  0  0  0  0  0  0
   -2.3301   -0.5182    3.2674 H   0  0  0  0  0  0  0  0  0  0  0  0
  1  5  1  0
  5  6  1  0
  5  7  2  0
  1  2  1  0
  1  3  1  0
  1  4  1  0
  8 12  1  0
 12 15  1  0
  8  9  1  0
  8 10  1  0
  8 11  1  0
 12 13  1  0
 12 14  1  0
 15 16  1  0
 15 17  1  0
 15 18  1  0
M  CHG  1   6  -1
M  END
>  <PDB_ID>  (655) 
pdb2q5x

>  <RESIDUE_NAME>  (655) 
GLU   PRO

>  <FRAG_NAME>  (655) 
ACET   PRPA

>  <FRAG_ATOM_NUM>  (655) 
fragi: 7  fragj: 11

>  <atom.prop.CHAIN_ID>  (655) 
A A A A A A A Z Z Z Z Z Z Z Z Z Z Z

>  <atom.prop.IS_HEAVY_ATOM>  (655) 
1 0 0 0 1 1 1 1 0 0 0 1 0 0 1 0 0 0

>  <DIFUSE_FUNC_ATOM>  (655) 
atom 6   atom 7   

>  <FINAL_SINGLE_POINT_ENERGY>  (655) 
0

>  <NONCOV_INTER_ENERGY_QM>  (655) 
0

>  <FF_Energy>  (655) 
20.32

>  <QM_Energy>  (655) 
-1.42

>  <source>  (655) 
ACET_PRPA_06

>  <Index>  (655) 
10203

$$$$
ACET-pdb1m6j-A-GLU-148:PRPA-pdb1m6j-A-GLN-145
     RDKit          3D

 18 16  0  0  0  0  0  0  0  0999 V2000
   -0.0128    1.5149    0.0109 C   0  0  0  0  0  0  0  0  0  0  0  0
   -0.6581    1.8120   -0.6660 H   0  0  0  0  0  0  0  0  0  0  0  0
    0.9006    1.8211   -0.1791 H   0  0  0  0  0  0  0  0  0  0  0  0
   -0.3182    1.9194    0.9759 H   0  0  0  0  0  0  0  0  0  0  0  0
    0.0000    0.0000    0.0000 C   0  0  0  0  0  0  0  0  0  0  0  0
   -1.0978   -0.5969    0.0000 O   0  0  0  0  0  1  0  0  0  0  0  0
    1.0978   -0.5950    0.0000 O   0  0  0  0  0  0  0  0  0  0  0  0
   -1.2987   -2.6204    1.9168 C   0  0  0  0  0  0  0  0  0  0  0  0
   -0.9791   -2.1398    1.0809 H   0  0  0  0  0  0  0  0  0  0  0  0
   -1.2928   -3.6904    1.7091 H   0  0  0  0  0  0  0  0  0  0  0  0
   -0.6351   -2.3377    2.7341 H   0  0  0  0  0  0  0  0  0  0  0  0
   -2.7203   -2.1642    2.2449 C   0  0  0  0  0  0  0  0  0  0  0  0
   -2.9963   -2.5750    3.1166 H   0  0  0  0  0  0  0  0  0  0  0  0
   -2.7234   -1.1652    2.3392 H   0  0  0  0  0  0  0  0  0  0  0  0
   -3.7513   -2.5435    1.1966 C   0  0  0  0  0  0  0  0  0  0  0  0
   -3.5179   -2.0892    0.3378 H   0  0  0  0  0  0  0  0  0  0  0  0
   -3.7300   -3.5344    1.0692 H   0  0  0  0  0  0  0  0  0  0  0  0
   -4.7613   -2.2498    1.4822 H   0  0  0  0  0  0  0  0  0  0  0  0
  1  5  1  0
  5  6  1  0
  5  7  2  0
  1  2  1  0
  1  3  1  0
  1  4  1  0
  8 12  1  0
 12 15  1  0
  8  9  1  0
  8 10  1  0
  8 11  1  0
 12 13  1  0
 12 14  1  0
 15 16  1  0
 15 17  1  0
 15 18  1  0
M  CHG  1   6  -1
M  END
>  <PDB_ID>  (656) 
pdb1m6j

>  <RESIDUE_NAME>  (656) 
GLU   GLN

>  <FRAG_NAME>  (656) 
ACET   PRPA

>  <FRAG_ATOM_NUM>  (656) 
fragi: 7  fragj: 11

>  <atom.prop.CHAIN_ID>  (656) 
A A A A A A A Z Z Z Z Z Z Z Z Z Z Z

>  <atom.prop.IS_HEAVY_ATOM>  (656) 
1 0 0 0 1 1 1 1 0 0 0 1 0 0 1 0 0 0

>  <DIFUSE_FUNC_ATOM>  (656) 
atom 6   atom 7   

>  <FINAL_SINGLE_POINT_ENERGY>  (656) 
0

>  <NONCOV_INTER_ENERGY_QM>  (656) 
0

>  <FF_Energy>  (656) 
16.65

>  <QM_Energy>  (656) 
-2.34

>  <source>  (656) 
ACET_PRPA_06

>  <Index>  (656) 
12545

$$$$
ACET-pdb1mas-A-ASP-15:PRPA-pdb1mas-A-PRO-11
     RDKit          3D

 18 16  0  0  0  0  0  0  0  0999 V2000
   -0.0131    1.5190    0.0211 C   0  0  0  0  0  0  0  0  0  0  0  0
   -0.6352    1.8382   -0.6759 H   0  0  0  0  0  0  0  0  0  0  0  0
    0.9048    1.8443   -0.1348 H   0  0  0  0  0  0  0  0  0  0  0  0
   -0.3540    1.8915    0.9871 H   0  0  0  0  0  0  0  0  0  0  0  0
    0.0000    0.0000    0.0000 C   0  0  0  0  0  0  0  0  0  0  0  0
   -1.1173   -0.6377    0.0000 O   0  0  0  0  0  1  0  0  0  0  0  0
    1.1173   -0.6368   -0.0000 O   0  0  0  0  0  0  0  0  0  0  0  0
   -0.8347    1.6043   -3.2217 C   0  0  0  0  0  0  0  0  0  0  0  0
   -0.8788    1.7316   -2.1708 H   0  0  0  0  0  0  0  0  0  0  0  0
    0.0357    0.9942   -3.4633 H   0  0  0  0  0  0  0  0  0  0  0  0
   -1.8295    1.3656   -3.5979 H   0  0  0  0  0  0  0  0  0  0  0  0
   -0.4079    3.0465   -3.5014 C   0  0  0  0  0  0  0  0  0  0  0  0
   -0.9760    3.4515   -4.2264 H   0  0  0  0  0  0  0  0  0  0  0  0
   -0.4966    3.6111   -2.6744 H   0  0  0  0  0  0  0  0  0  0  0  0
    1.0255    2.9606   -3.9356 C   0  0  0  0  0  0  0  0  0  0  0  0
    1.2010    3.6117   -4.6910 H   0  0  0  0  0  0  0  0  0  0  0  0
    1.6375    3.2132   -3.1688 H   0  0  0  0  0  0  0  0  0  0  0  0
    1.2069    1.9350   -4.2569 H   0  0  0  0  0  0  0  0  0  0  0  0
  1  5  1  0
  5  6  1  0
  5  7  2  0
  1  2  1  0
  1  3  1  0
  1  4  1  0
  8 12  1  0
 12 15  1  0
  8  9  1  0
  8 10  1  0
  8 11  1  0
 12 13  1  0
 12 14  1  0
 15 16  1  0
 15 17  1  0
 15 18  1  0
M  CHG  1   6  -1
M  END
>  <PDB_ID>  (657) 
pdb1mas

>  <RESIDUE_NAME>  (657) 
ASP   PRO

>  <FRAG_NAME>  (657) 
ACET   PRPA

>  <FRAG_ATOM_NUM>  (657) 
fragi: 7  fragj: 11

>  <atom.prop.CHAIN_ID>  (657) 
A A A A A A A Z Z Z Z Z Z Z Z Z Z Z

>  <atom.prop.IS_HEAVY_ATOM>  (657) 
1 0 0 0 1 1 1 1 0 0 0 1 0 0 1 0 0 0

>  <DIFUSE_FUNC_ATOM>  (657) 
atom 6   atom 7   

>  <FINAL_SINGLE_POINT_ENERGY>  (657) 
0

>  <NONCOV_INTER_ENERGY_QM>  (657) 
0

>  <FF_Energy>  (657) 
22.83

>  <QM_Energy>  (657) 
2.7

>  <source>  (657) 
ACET_PRPA_06

>  <Index>  (657) 
13047

$$$$
ACET-pdb2qc3-A-ASP-40:PRPA-pdb2qc3-A-ARG-43
     RDKit          3D

 18 16  0  0  0  0  0  0  0  0999 V2000
    0.0128    1.5228    0.0184 C   0  0  0  0  0  0  0  0  0  0  0  0
    0.9090    1.8359   -0.2727 H   0  0  0  0  0  0  0  0  0  0  0  0
   -0.1808    1.8310    0.9420 H   0  0  0  0  0  0  0  0  0  0  0  0
   -0.7314    1.9596   -0.6476 H   0  0  0  0  0  0  0  0  0  0  0  0
    0.0000    0.0000    0.0000 C   0  0  0  0  0  0  0  0  0  0  0  0
   -1.0966   -0.6002    0.0000 O   0  0  0  0  0  1  0  0  0  0  0  0
    1.0966   -0.5998    0.0000 O   0  0  0  0  0  0  0  0  0  0  0  0
   -1.5314   -1.2142    3.6273 C   0  0  0  0  0  0  0  0  0  0  0  0
   -1.3520   -1.1568    4.6068 H   0  0  0  0  0  0  0  0  0  0  0  0
   -1.1051   -2.0334    3.2516 H   0  0  0  0  0  0  0  0  0  0  0  0
   -2.6089   -1.2948    3.4832 H   0  0  0  0  0  0  0  0  0  0  0  0
   -0.8984   -0.0057    2.9603 C   0  0  0  0  0  0  0  0  0  0  0  0
   -0.8667   -0.1458    1.9726 H   0  0  0  0  0  0  0  0  0  0  0  0
   -1.4343    0.8107    3.1674 H   0  0  0  0  0  0  0  0  0  0  0  0
    0.5292    0.2354    3.4474 C   0  0  0  0  0  0  0  0  0  0  0  0
    0.8898   -0.6301    3.7817 H   0  0  0  0  0  0  0  0  0  0  0  0
    1.0674    0.5552    2.6718 H   0  0  0  0  0  0  0  0  0  0  0  0
    0.5711    0.9760    4.2462 H   0  0  0  0  0  0  0  0  0  0  0  0
  1  5  1  0
  5  6  1  0
  5  7  2  0
  1  2  1  0
  1  3  1  0
  1  4  1  0
  8 12  1  0
 12 15  1  0
  8  9  1  0
  8 10  1  0
  8 11  1  0
 12 13  1  0
 12 14  1  0
 15 16  1  0
 15 17  1  0
 15 18  1  0
M  CHG  1   6  -1
M  END
>  <PDB_ID>  (658) 
pdb2qc3

>  <RESIDUE_NAME>  (658) 
ASP   ARG

>  <FRAG_NAME>  (658) 
ACET   PRPA

>  <FRAG_ATOM_NUM>  (658) 
fragi: 7  fragj: 11

>  <atom.prop.CHAIN_ID>  (658) 
A A A A A A A Z Z Z Z Z Z Z Z Z Z Z

>  <atom.prop.IS_HEAVY_ATOM>  (658) 
1 0 0 0 1 1 1 1 0 0 0 1 0 0 1 0 0 0

>  <DIFUSE_FUNC_ATOM>  (658) 
atom 6   atom 7   

>  <FINAL_SINGLE_POINT_ENERGY>  (658) 
0

>  <NONCOV_INTER_ENERGY_QM>  (658) 
0

>  <FF_Energy>  (658) 
14.75

>  <QM_Energy>  (658) 
-1.94

>  <source>  (658) 
ACET_PRPA_06

>  <Index>  (658) 
14027

$$$$
ACET-pdb1mh3-A-ASP-55:PRPA-pdb1mh3-A-LYS-1
     RDKit          3D

 18 16  0  0  0  0  0  0  0  0999 V2000
   -0.0019    1.5167    0.0121 C   0  0  0  0  0  0  0  0  0  0  0  0
    0.8891    1.8405   -0.2829 H   0  0  0  0  0  0  0  0  0  0  0  0
   -0.2021    1.8297    0.9322 H   0  0  0  0  0  0  0  0  0  0  0  0
   -0.7509    1.9398   -0.6572 H   0  0  0  0  0  0  0  0  0  0  0  0
    0.0000    0.0000    0.0000 C   0  0  0  0  0  0  0  0  0  0  0  0
   -1.0946   -0.5933   -0.0000 O   0  0  0  0  0  1  0  0  0  0  0  0
    1.0946   -0.6006   -0.0000 O   0  0  0  0  0  0  0  0  0  0  0  0
   -2.3446    0.4885    2.4251 C   0  0  0  0  0  0  0  0  0  0  0  0
   -1.8086    0.3063    1.6002 H   0  0  0  0  0  0  0  0  0  0  0  0
   -2.8951    1.3125    2.2905 H   0  0  0  0  0  0  0  0  0  0  0  0
   -3.0079   -0.3562    2.6114 H   0  0  0  0  0  0  0  0  0  0  0  0
   -1.3975    0.7122    3.5888 C   0  0  0  0  0  0  0  0  0  0  0  0
   -1.9292    0.9039    4.4065 H   0  0  0  0  0  0  0  0  0  0  0  0
   -0.8426   -0.1023    3.7162 H   0  0  0  0  0  0  0  0  0  0  0  0
   -0.4747    1.8900    3.3238 C   0  0  0  0  0  0  0  0  0  0  0  0
    0.0221    1.7269    2.4668 H   0  0  0  0  0  0  0  0  0  0  0  0
   -1.0282    2.7212    3.2233 H   0  0  0  0  0  0  0  0  0  0  0  0
    0.2424    2.0337    4.1321 H   0  0  0  0  0  0  0  0  0  0  0  0
  1  5  1  0
  5  6  1  0
  5  7  2  0
  1  2  1  0
  1  3  1  0
  1  4  1  0
  8 12  1  0
 12 15  1  0
  8  9  1  0
  8 10  1  0
  8 11  1  0
 12 13  1  0
 12 14  1  0
 15 16  1  0
 15 17  1  0
 15 18  1  0
M  CHG  1   6  -1
M  END
>  <PDB_ID>  (659) 
pdb1mh3

>  <RESIDUE_NAME>  (659) 
ASP   LYS

>  <FRAG_NAME>  (659) 
ACET   PRPA

>  <FRAG_ATOM_NUM>  (659) 
fragi: 7  fragj: 11

>  <atom.prop.CHAIN_ID>  (659) 
A A A A A A A Z Z Z Z Z Z Z Z Z Z Z

>  <atom.prop.IS_HEAVY_ATOM>  (659) 
1 0 0 0 1 1 1 1 0 0 0 1 0 0 1 0 0 0

>  <DIFUSE_FUNC_ATOM>  (659) 
atom 6   atom 7   

>  <FINAL_SINGLE_POINT_ENERGY>  (659) 
0

>  <NONCOV_INTER_ENERGY_QM>  (659) 
0

>  <FF_Energy>  (659) 
28.41

>  <QM_Energy>  (659) 
3.19

>  <source>  (659) 
ACET_PRPA_06

>  <Index>  (659) 
14725

$$$$
ACET-pdb1mjs-A-GLU-238:PRPA-pdb1mjs-A-ARG-278
     RDKit          3D

 18 16  0  0  0  0  0  0  0  0999 V2000
    0.0157    1.5209   -0.0255 C   0  0  0  0  0  0  0  0  0  0  0  0
   -0.0256    1.8054   -0.9688 H   0  0  0  0  0  0  0  0  0  0  0  0
    0.8491    1.8195    0.4099 H   0  0  0  0  0  0  0  0  0  0  0  0
   -0.8195    1.9853    0.4989 H   0  0  0  0  0  0  0  0  0  0  0  0
    0.0000    0.0000    0.0000 C   0  0  0  0  0  0  0  0  0  0  0  0
   -1.0999   -0.5942   -0.0000 O   0  0  0  0  0  1  0  0  0  0  0  0
    1.0999   -0.6032    0.0000 O   0  0  0  0  0  0  0  0  0  0  0  0
   -3.5938   -3.1108   -1.8183 C   0  0  0  0  0  0  0  0  0  0  0  0
   -3.2051   -3.1404   -0.9024 H   0  0  0  0  0  0  0  0  0  0  0  0
   -3.7080   -4.0346   -2.1714 H   0  0  0  0  0  0  0  0  0  0  0  0
   -4.5783   -2.6473   -1.7546 H   0  0  0  0  0  0  0  0  0  0  0  0
   -2.6166   -2.3765   -2.7234 C   0  0  0  0  0  0  0  0  0  0  0  0
   -2.5951   -2.8118   -3.6138 H   0  0  0  0  0  0  0  0  0  0  0  0
   -2.8863   -1.4251   -2.8027 H   0  0  0  0  0  0  0  0  0  0  0  0
   -1.2080   -2.4222   -2.1386 C   0  0  0  0  0  0  0  0  0  0  0  0
   -0.6109   -1.8919   -2.7371 H   0  0  0  0  0  0  0  0  0  0  0  0
   -1.2402   -2.0011   -1.2338 H   0  0  0  0  0  0  0  0  0  0  0  0
   -0.8269   -3.4397   -2.0531 H   0  0  0  0  0  0  0  0  0  0  0  0
  1  5  1  0
  5  6  1  0
  5  7  2  0
  1  2  1  0
  1  3  1  0
  1  4  1  0
  8 12  1  0
 12 15  1  0
  8  9  1  0
  8 10  1  0
  8 11  1  0
 12 13  1  0
 12 14  1  0
 15 16  1  0
 15 17  1  0
 15 18  1  0
M  CHG  1   6  -1
M  END
>  <PDB_ID>  (660) 
pdb1mjs

>  <RESIDUE_NAME>  (660) 
GLU   ARG

>  <FRAG_NAME>  (660) 
ACET   PRPA

>  <FRAG_ATOM_NUM>  (660) 
fragi: 7  fragj: 11

>  <atom.prop.CHAIN_ID>  (660) 
A A A A A A A Z Z Z Z Z Z Z Z Z Z Z

>  <atom.prop.IS_HEAVY_ATOM>  (660) 
1 0 0 0 1 1 1 1 0 0 0 1 0 0 1 0 0 0

>  <DIFUSE_FUNC_ATOM>  (660) 
atom 6   atom 7   

>  <FINAL_SINGLE_POINT_ENERGY>  (660) 
0

>  <NONCOV_INTER_ENERGY_QM>  (660) 
0

>  <FF_Energy>  (660) 
16.6

>  <QM_Energy>  (660) 
-1.08

>  <source>  (660) 
ACET_PRPA_06

>  <Index>  (660) 
15608

$$$$
ACET-pdb1mhm-A-GLU-317:PRPA-pdb1mhm-A-LYS-161
     RDKit          3D

 18 16  0  0  0  0  0  0  0  0999 V2000
   -0.0002    1.5286   -0.0024 C   0  0  0  0  0  0  0  0  0  0  0  0
   -0.3177    1.8205   -0.8811 H   0  0  0  0  0  0  0  0  0  0  0  0
    0.9131    1.8224    0.1905 H   0  0  0  0  0  0  0  0  0  0  0  0
   -0.6630    1.9437    0.7569 H   0  0  0  0  0  0  0  0  0  0  0  0
    0.0000    0.0000    0.0000 C   0  0  0  0  0  0  0  0  0  0  0  0
   -1.1081   -0.6003   -0.0000 O   0  0  0  0  0  1  0  0  0  0  0  0
    1.1081   -0.5961   -0.0000 O   0  0  0  0  0  0  0  0  0  0  0  0
    0.8367   -3.4764   -1.4368 C   0  0  0  0  0  0  0  0  0  0  0  0
    0.4579   -2.7240   -1.9773 H   0  0  0  0  0  0  0  0  0  0  0  0
    0.1387   -3.8080   -0.7988 H   0  0  0  0  0  0  0  0  0  0  0  0
    1.0906   -4.2901   -2.1160 H   0  0  0  0  0  0  0  0  0  0  0  0
    2.0061   -2.9361   -0.6235 C   0  0  0  0  0  0  0  0  0  0  0  0
    2.8579   -3.3199   -0.9850 H   0  0  0  0  0  0  0  0  0  0  0  0
    2.0301   -1.9383   -0.7120 H   0  0  0  0  0  0  0  0  0  0  0  0
    1.8857   -3.2986    0.8448 C   0  0  0  0  0  0  0  0  0  0  0  0
    1.0319   -2.9153    1.2019 H   0  0  0  0  0  0  0  0  0  0  0  0
    1.8615   -4.2960    0.9288 H   0  0  0  0  0  0  0  0  0  0  0  0
    2.7154   -2.9185    1.4408 H   0  0  0  0  0  0  0  0  0  0  0  0
  1  5  1  0
  5  6  1  0
  5  7  2  0
  1  2  1  0
  1  3  1  0
  1  4  1  0
  8 12  1  0
 12 15  1  0
  8  9  1  0
  8 10  1  0
  8 11  1  0
 12 13  1  0
 12 14  1  0
 15 16  1  0
 15 17  1  0
 15 18  1  0
M  CHG  1   6  -1
M  END
>  <PDB_ID>  (661) 
pdb1mhm

>  <RESIDUE_NAME>  (661) 
GLU   LYS

>  <FRAG_NAME>  (661) 
ACET   PRPA

>  <FRAG_ATOM_NUM>  (661) 
fragi: 7  fragj: 11

>  <atom.prop.CHAIN_ID>  (661) 
A A A A A A A Z Z Z Z Z Z Z Z Z Z Z

>  <atom.prop.IS_HEAVY_ATOM>  (661) 
1 0 0 0 1 1 1 1 0 0 0 1 0 0 1 0 0 0

>  <DIFUSE_FUNC_ATOM>  (661) 
atom 6   atom 7   

>  <FINAL_SINGLE_POINT_ENERGY>  (661) 
0

>  <NONCOV_INTER_ENERGY_QM>  (661) 
0

>  <FF_Energy>  (661) 
43.04

>  <QM_Energy>  (661) 
1.38

>  <source>  (661) 
ACET_PRPA_06

>  <Index>  (661) 
15696

$$$$
ACET-pdb1mhm-A-GLU-317:PRPA-pdb1mhm-A-LYS-161
     RDKit          3D

 18 16  0  0  0  0  0  0  0  0999 V2000
   -0.0002    1.5286   -0.0024 C   0  0  0  0  0  0  0  0  0  0  0  0
   -0.3177    1.8205   -0.8811 H   0  0  0  0  0  0  0  0  0  0  0  0
    0.9131    1.8224    0.1905 H   0  0  0  0  0  0  0  0  0  0  0  0
   -0.6630    1.9437    0.7569 H   0  0  0  0  0  0  0  0  0  0  0  0
    0.0000    0.0000    0.0000 C   0  0  0  0  0  0  0  0  0  0  0  0
   -1.1081   -0.6003   -0.0000 O   0  0  0  0  0  1  0  0  0  0  0  0
    1.1081   -0.5961   -0.0000 O   0  0  0  0  0  0  0  0  0  0  0  0
    1.1928   -4.6174   -2.3893 C   0  0  0  0  0  0  0  0  0  0  0  0
    1.9973   -4.4669   -2.9163 H   0  0  0  0  0  0  0  0  0  0  0  0
    0.3572   -4.8374   -3.0538 H   0  0  0  0  0  0  0  0  0  0  0  0
    1.2933   -5.5557   -1.8437 H   0  0  0  0  0  0  0  0  0  0  0  0
    0.8367   -3.4764   -1.4368 C   0  0  0  0  0  0  0  0  0  0  0  0
    0.4579   -2.7240   -1.9773 H   0  0  0  0  0  0  0  0  0  0  0  0
    0.1387   -3.8080   -0.7988 H   0  0  0  0  0  0  0  0  0  0  0  0
    2.0061   -2.9361   -0.6235 C   0  0  0  0  0  0  0  0  0  0  0  0
    2.8579   -3.3199   -0.9850 H   0  0  0  0  0  0  0  0  0  0  0  0
    2.0301   -1.9383   -0.7120 H   0  0  0  0  0  0  0  0  0  0  0  0
    1.9196   -3.1965    0.4314 H   0  0  0  0  0  0  0  0  0  0  0  0
  1  5  1  0
  5  6  1  0
  5  7  2  0
  1  2  1  0
  1  3  1  0
  1  4  1  0
  8 12  1  0
 12 15  1  0
  8  9  1  0
  8 10  1  0
  8 11  1  0
 12 13  1  0
 12 14  1  0
 15 16  1  0
 15 17  1  0
 15 18  1  0
M  CHG  1   6  -1
M  END
>  <PDB_ID>  (662) 
pdb1mhm

>  <RESIDUE_NAME>  (662) 
GLU   LYS

>  <FRAG_NAME>  (662) 
ACET   PRPA

>  <FRAG_ATOM_NUM>  (662) 
fragi: 7  fragj: 11

>  <atom.prop.CHAIN_ID>  (662) 
A A A A A A A Z Z Z Z Z Z Z Z Z Z Z

>  <atom.prop.IS_HEAVY_ATOM>  (662) 
1 0 0 0 1 1 1 1 0 0 0 1 0 0 1 0 0 0

>  <DIFUSE_FUNC_ATOM>  (662) 
atom 6   atom 7   

>  <FINAL_SINGLE_POINT_ENERGY>  (662) 
0

>  <NONCOV_INTER_ENERGY_QM>  (662) 
0

>  <FF_Energy>  (662) 
36.53

>  <QM_Energy>  (662) 
3.33

>  <source>  (662) 
ACET_PRPA_06

>  <Index>  (662) 
15707

$$$$
ACET-pdb1mhm-A-GLU-317:PRPA-pdb1mhm-A-LYS-161
     RDKit          3D

 18 16  0  0  0  0  0  0  0  0999 V2000
   -0.0002    1.5286   -0.0024 C   0  0  0  0  0  0  0  0  0  0  0  0
   -0.3177    1.8205   -0.8811 H   0  0  0  0  0  0  0  0  0  0  0  0
    0.9131    1.8224    0.1905 H   0  0  0  0  0  0  0  0  0  0  0  0
   -0.6630    1.9437    0.7569 H   0  0  0  0  0  0  0  0  0  0  0  0
    0.0000    0.0000    0.0000 C   0  0  0  0  0  0  0  0  0  0  0  0
   -1.1081   -0.6003   -0.0000 O   0  0  0  0  0  1  0  0  0  0  0  0
    1.1081   -0.5961   -0.0000 O   0  0  0  0  0  0  0  0  0  0  0  0
    2.0061   -2.9361   -0.6235 C   0  0  0  0  0  0  0  0  0  0  0  0
    2.8579   -3.3199   -0.9850 H   0  0  0  0  0  0  0  0  0  0  0  0
    2.0301   -1.9383   -0.7120 H   0  0  0  0  0  0  0  0  0  0  0  0
    1.1694   -3.3227   -1.2054 H   0  0  0  0  0  0  0  0  0  0  0  0
    1.8857   -3.2986    0.8448 C   0  0  0  0  0  0  0  0  0  0  0  0
    1.0319   -2.9153    1.2019 H   0  0  0  0  0  0  0  0  0  0  0  0
    1.8615   -4.2960    0.9288 H   0  0  0  0  0  0  0  0  0  0  0  0
    3.0353   -2.7719    1.6706 C   0  0  0  0  0  0  0  0  0  0  0  0
    3.8921   -3.1543    1.3237 H   0  0  0  0  0  0  0  0  0  0  0  0
    3.0640   -1.7743    1.5971 H   0  0  0  0  0  0  0  0  0  0  0  0
    2.9180   -3.0498    2.7180 H   0  0  0  0  0  0  0  0  0  0  0  0
  1  5  1  0
  5  6  1  0
  5  7  2  0
  1  2  1  0
  1  3  1  0
  1  4  1  0
  8 12  1  0
 12 15  1  0
  8  9  1  0
  8 10  1  0
  8 11  1  0
 12 13  1  0
 12 14  1  0
 15 16  1  0
 15 17  1  0
 15 18  1  0
M  CHG  1   6  -1
M  END
>  <PDB_ID>  (663) 
pdb1mhm

>  <RESIDUE_NAME>  (663) 
GLU   LYS

>  <FRAG_NAME>  (663) 
ACET   PRPA

>  <FRAG_ATOM_NUM>  (663) 
fragi: 7  fragj: 11

>  <atom.prop.CHAIN_ID>  (663) 
A A A A A A A Z Z Z Z Z Z Z Z Z Z Z

>  <atom.prop.IS_HEAVY_ATOM>  (663) 
1 0 0 0 1 1 1 1 0 0 0 1 0 0 1 0 0 0

>  <DIFUSE_FUNC_ATOM>  (663) 
atom 6   atom 7   

>  <FINAL_SINGLE_POINT_ENERGY>  (663) 
0

>  <NONCOV_INTER_ENERGY_QM>  (663) 
0

>  <FF_Energy>  (663) 
38.36

>  <QM_Energy>  (663) 
2.15

>  <source>  (663) 
ACET_PRPA_06

>  <Index>  (663) 
15710

$$$$
ACET-pdb2q17-D-ASP-253:PRPA-pdb2q17-D-ARG-58
     RDKit          3D

 18 16  0  0  0  0  0  0  0  0999 V2000
    0.0424    1.5485    0.0464 C   0  0  0  0  0  0  0  0  0  0  0  0
    0.8689    1.8469   -0.4134 H   0  0  0  0  0  0  0  0  0  0  0  0
    0.0489    1.8271    0.9978 H   0  0  0  0  0  0  0  0  0  0  0  0
   -0.8107    2.0179   -0.4435 H   0  0  0  0  0  0  0  0  0  0  0  0
    0.0000    0.0000    0.0000 C   0  0  0  0  0  0  0  0  0  0  0  0
   -1.0947   -0.6128   -0.0000 O   0  0  0  0  0  1  0  0  0  0  0  0
    1.0947   -0.6064    0.0000 O   0  0  0  0  0  0  0  0  0  0  0  0
    1.3633   -3.8355   -0.7972 C   0  0  0  0  0  0  0  0  0  0  0  0
    1.0249   -3.2295   -0.0897 H   0  0  0  0  0  0  0  0  0  0  0  0
    1.8298   -4.6150   -0.4015 H   0  0  0  0  0  0  0  0  0  0  0  0
    0.5102   -4.2023   -1.3680 H   0  0  0  0  0  0  0  0  0  0  0  0
    2.3507   -3.0708   -1.6488 C   0  0  0  0  0  0  0  0  0  0  0  0
    2.9155   -3.7111   -2.1673 H   0  0  0  0  0  0  0  0  0  0  0  0
    1.8580   -2.4716   -2.2796 H   0  0  0  0  0  0  0  0  0  0  0  0
    3.2761   -2.2035   -0.8068 C   0  0  0  0  0  0  0  0  0  0  0  0
    2.7477   -1.4434   -0.4492 H   0  0  0  0  0  0  0  0  0  0  0  0
    3.6345   -2.7613   -0.0675 H   0  0  0  0  0  0  0  0  0  0  0  0
    4.1044   -1.8185   -1.4017 H   0  0  0  0  0  0  0  0  0  0  0  0
  1  5  1  0
  5  6  1  0
  5  7  2  0
  1  2  1  0
  1  3  1  0
  1  4  1  0
  8 12  1  0
 12 15  1  0
  8  9  1  0
  8 10  1  0
  8 11  1  0
 12 13  1  0
 12 14  1  0
 15 16  1  0
 15 17  1  0
 15 18  1  0
M  CHG  1   6  -1
M  END
>  <PDB_ID>  (664) 
pdb2q17

>  <RESIDUE_NAME>  (664) 
ASP   ARG

>  <FRAG_NAME>  (664) 
ACET   PRPA

>  <FRAG_ATOM_NUM>  (664) 
fragi: 7  fragj: 11

>  <atom.prop.CHAIN_ID>  (664) 
A A A A A A A Z Z Z Z Z Z Z Z Z Z Z

>  <atom.prop.IS_HEAVY_ATOM>  (664) 
1 0 0 0 1 1 1 1 0 0 0 1 0 0 1 0 0 0

>  <DIFUSE_FUNC_ATOM>  (664) 
atom 6   atom 7   

>  <FINAL_SINGLE_POINT_ENERGY>  (664) 
0

>  <NONCOV_INTER_ENERGY_QM>  (664) 
0

>  <FF_Energy>  (664) 
14.28

>  <QM_Energy>  (664) 
-3.33

>  <source>  (664) 
ACET_PRPA_06

>  <Index>  (664) 
18204

$$$$
ACET-pdb1m7s-A-GLU-87:PRPA-pdb1m7s-A-LYS-108
     RDKit          3D

 18 16  0  0  0  0  0  0  0  0999 V2000
    0.0082    1.4995   -0.0428 C   0  0  0  0  0  0  0  0  0  0  0  0
   -0.4295    1.8275    0.8030 H   0  0  0  0  0  0  0  0  0  0  0  0
   -0.5644    1.7817   -0.8229 H   0  0  0  0  0  0  0  0  0  0  0  0
    0.9699    2.0040   -0.1358 H   0  0  0  0  0  0  0  0  0  0  0  0
    0.0000    0.0000    0.0000 C   0  0  0  0  0  0  0  0  0  0  0  0
   -1.0926   -0.6262   -0.0000 O   0  0  0  0  0  1  0  0  0  0  0  0
    1.0926   -0.6184    0.0000 O   0  0  0  0  0  0  0  0  0  0  0  0
    4.2518   -3.0478   -0.8412 C   0  0  0  0  0  0  0  0  0  0  0  0
    4.8648   -2.2675   -0.8024 H   0  0  0  0  0  0  0  0  0  0  0  0
    4.8457   -3.9451   -1.0151 H   0  0  0  0  0  0  0  0  0  0  0  0
    3.7544   -3.1692    0.1210 H   0  0  0  0  0  0  0  0  0  0  0  0
    3.2469   -2.8756   -1.9753 C   0  0  0  0  0  0  0  0  0  0  0  0
    3.6960   -3.1745   -2.8344 H   0  0  0  0  0  0  0  0  0  0  0  0
    2.4762   -3.5143   -1.8039 H   0  0  0  0  0  0  0  0  0  0  0  0
    2.6811   -1.4982   -2.1924 C   0  0  0  0  0  0  0  0  0  0  0  0
    2.0497   -1.2750   -1.4499 H   0  0  0  0  0  0  0  0  0  0  0  0
    3.4238   -0.8295   -2.2105 H   0  0  0  0  0  0  0  0  0  0  0  0
    2.1390   -1.4397   -3.1362 H   0  0  0  0  0  0  0  0  0  0  0  0
  1  5  1  0
  5  6  1  0
  5  7  2  0
  1  2  1  0
  1  3  1  0
  1  4  1  0
  8 12  1  0
 12 15  1  0
  8  9  1  0
  8 10  1  0
  8 11  1  0
 12 13  1  0
 12 14  1  0
 15 16  1  0
 15 17  1  0
 15 18  1  0
M  CHG  1   6  -1
M  END
>  <PDB_ID>  (665) 
pdb1m7s

>  <RESIDUE_NAME>  (665) 
GLU   LYS

>  <FRAG_NAME>  (665) 
ACET   PRPA

>  <FRAG_ATOM_NUM>  (665) 
fragi: 7  fragj: 11

>  <atom.prop.CHAIN_ID>  (665) 
A A A A A A A Z Z Z Z Z Z Z Z Z Z Z

>  <atom.prop.IS_HEAVY_ATOM>  (665) 
1 0 0 0 1 1 1 1 0 0 0 1 0 0 1 0 0 0

>  <DIFUSE_FUNC_ATOM>  (665) 
atom 6   atom 7   

>  <FINAL_SINGLE_POINT_ENERGY>  (665) 
0

>  <NONCOV_INTER_ENERGY_QM>  (665) 
0

>  <FF_Energy>  (665) 
18.51

>  <QM_Energy>  (665) 
-0.96

>  <source>  (665) 
ACET_PRPA_06

>  <Index>  (665) 
19332

$$$$
ACET-pdb1m7s-A-GLU-87:PRPA-pdb1m7s-A-LYS-108
     RDKit          3D

 18 16  0  0  0  0  0  0  0  0999 V2000
    0.0082    1.4995   -0.0428 C   0  0  0  0  0  0  0  0  0  0  0  0
   -0.4295    1.8275    0.8030 H   0  0  0  0  0  0  0  0  0  0  0  0
   -0.5644    1.7817   -0.8229 H   0  0  0  0  0  0  0  0  0  0  0  0
    0.9699    2.0040   -0.1358 H   0  0  0  0  0  0  0  0  0  0  0  0
    0.0000    0.0000    0.0000 C   0  0  0  0  0  0  0  0  0  0  0  0
   -1.0926   -0.6262   -0.0000 O   0  0  0  0  0  1  0  0  0  0  0  0
    1.0926   -0.6184    0.0000 O   0  0  0  0  0  0  0  0  0  0  0  0
    3.2469   -2.8756   -1.9753 C   0  0  0  0  0  0  0  0  0  0  0  0
    3.6960   -3.1745   -2.8344 H   0  0  0  0  0  0  0  0  0  0  0  0
    2.4762   -3.5143   -1.8039 H   0  0  0  0  0  0  0  0  0  0  0  0
    3.9652   -2.9987   -1.1647 H   0  0  0  0  0  0  0  0  0  0  0  0
    2.6811   -1.4982   -2.1924 C   0  0  0  0  0  0  0  0  0  0  0  0
    2.0497   -1.2750   -1.4499 H   0  0  0  0  0  0  0  0  0  0  0  0
    3.4238   -0.8295   -2.2105 H   0  0  0  0  0  0  0  0  0  0  0  0
    1.9225   -1.4163   -3.5131 C   0  0  0  0  0  0  0  0  0  0  0  0
    1.0981   -1.9849   -3.4448 H   0  0  0  0  0  0  0  0  0  0  0  0
    1.6478   -0.4637   -3.6673 H   0  0  0  0  0  0  0  0  0  0  0  0
    2.5018   -1.7511   -4.3736 H   0  0  0  0  0  0  0  0  0  0  0  0
  1  5  1  0
  5  6  1  0
  5  7  2  0
  1  2  1  0
  1  3  1  0
  1  4  1  0
  8 12  1  0
 12 15  1  0
  8  9  1  0
  8 10  1  0
  8 11  1  0
 12 13  1  0
 12 14  1  0
 15 16  1  0
 15 17  1  0
 15 18  1  0
M  CHG  1   6  -1
M  END
>  <PDB_ID>  (666) 
pdb1m7s

>  <RESIDUE_NAME>  (666) 
GLU   LYS

>  <FRAG_NAME>  (666) 
ACET   PRPA

>  <FRAG_ATOM_NUM>  (666) 
fragi: 7  fragj: 11

>  <atom.prop.CHAIN_ID>  (666) 
A A A A A A A Z Z Z Z Z Z Z Z Z Z Z

>  <atom.prop.IS_HEAVY_ATOM>  (666) 
1 0 0 0 1 1 1 1 0 0 0 1 0 0 1 0 0 0

>  <DIFUSE_FUNC_ATOM>  (666) 
atom 6   atom 7   

>  <FINAL_SINGLE_POINT_ENERGY>  (666) 
0

>  <NONCOV_INTER_ENERGY_QM>  (666) 
0

>  <FF_Energy>  (666) 
21.06

>  <QM_Energy>  (666) 
-1.67

>  <source>  (666) 
ACET_PRPA_06

>  <Index>  (666) 
19342

$$$$
ACET-pdb1mul-A-ASP-8:PRPA-pdb1mul-A-LYS-18
     RDKit          3D

 18 16  0  0  0  0  0  0  0  0999 V2000
    0.0008    1.5122    0.0229 C   0  0  0  0  0  0  0  0  0  0  0  0
    0.6883    1.8435   -0.6135 H   0  0  0  0  0  0  0  0  0  0  0  0
    0.2024    1.8208    0.9449 H   0  0  0  0  0  0  0  0  0  0  0  0
   -0.9591    1.9370   -0.2709 H   0  0  0  0  0  0  0  0  0  0  0  0
    0.0000    0.0000    0.0000 C   0  0  0  0  0  0  0  0  0  0  0  0
   -1.1015   -0.5967    0.0000 O   0  0  0  0  0  1  0  0  0  0  0  0
    1.1015   -0.5915    0.0000 O   0  0  0  0  0  0  0  0  0  0  0  0
   -4.7125   -1.9505    0.5402 C   0  0  0  0  0  0  0  0  0  0  0  0
   -4.4468   -1.0376    0.2264 H   0  0  0  0  0  0  0  0  0  0  0  0
   -5.1159   -1.8813    1.4531 H   0  0  0  0  0  0  0  0  0  0  0  0
   -5.4566   -2.3560   -0.1454 H   0  0  0  0  0  0  0  0  0  0  0  0
   -3.4733   -2.8275    0.6128 C   0  0  0  0  0  0  0  0  0  0  0  0
   -3.7457   -3.7397    0.9233 H   0  0  0  0  0  0  0  0  0  0  0  0
   -3.0751   -2.8953   -0.3029 H   0  0  0  0  0  0  0  0  0  0  0  0
   -2.4304   -2.2827    1.5572 C   0  0  0  0  0  0  0  0  0  0  0  0
   -2.1512   -1.3728    1.2505 H   0  0  0  0  0  0  0  0  0  0  0  0
   -2.8203   -2.2173    2.4766 H   0  0  0  0  0  0  0  0  0  0  0  0
   -1.5578   -2.9353    1.5856 H   0  0  0  0  0  0  0  0  0  0  0  0
  1  5  1  0
  5  6  1  0
  5  7  2  0
  1  2  1  0
  1  3  1  0
  1  4  1  0
  8 12  1  0
 12 15  1  0
  8  9  1  0
  8 10  1  0
  8 11  1  0
 12 13  1  0
 12 14  1  0
 15 16  1  0
 15 17  1  0
 15 18  1  0
M  CHG  1   6  -1
M  END
>  <PDB_ID>  (667) 
pdb1mul

>  <RESIDUE_NAME>  (667) 
ASP   LYS

>  <FRAG_NAME>  (667) 
ACET   PRPA

>  <FRAG_ATOM_NUM>  (667) 
fragi: 7  fragj: 11

>  <atom.prop.CHAIN_ID>  (667) 
A A A A A A A Z Z Z Z Z Z Z Z Z Z Z

>  <atom.prop.IS_HEAVY_ATOM>  (667) 
1 0 0 0 1 1 1 1 0 0 0 1 0 0 1 0 0 0

>  <DIFUSE_FUNC_ATOM>  (667) 
atom 6   atom 7   

>  <FINAL_SINGLE_POINT_ENERGY>  (667) 
0

>  <NONCOV_INTER_ENERGY_QM>  (667) 
0

>  <FF_Energy>  (667) 
28.91

>  <QM_Energy>  (667) 
1.48

>  <source>  (667) 
ACET_PRPA_06

>  <Index>  (667) 
20188

$$$$
ACET-pdb2qib-A-GLU-179:PRPA-pdb2qib-A-ARG-175
     RDKit          3D

 18 16  0  0  0  0  0  0  0  0999 V2000
    0.0032    1.5013    0.0393 C   0  0  0  0  0  0  0  0  0  0  0  0
    0.2040    1.8344   -0.8559 H   0  0  0  0  0  0  0  0  0  0  0  0
    0.6460    1.7917    0.7149 H   0  0  0  0  0  0  0  0  0  0  0  0
   -0.9733    1.8935    0.3233 H   0  0  0  0  0  0  0  0  0  0  0  0
    0.0000    0.0000    0.0000 C   0  0  0  0  0  0  0  0  0  0  0  0
   -1.0812   -0.6028    0.0000 O   0  0  0  0  0  1  0  0  0  0  0  0
    1.0812   -0.5728   -0.0000 O   0  0  0  0  0  0  0  0  0  0  0  0
    3.5588   -0.1561    3.1037 C   0  0  0  0  0  0  0  0  0  0  0  0
    3.3600    0.2220    2.2208 H   0  0  0  0  0  0  0  0  0  0  0  0
    4.5179   -0.1413    3.3127 H   0  0  0  0  0  0  0  0  0  0  0  0
    3.0382    0.4399    3.8533 H   0  0  0  0  0  0  0  0  0  0  0  0
    3.0669   -1.5514    3.1621 C   0  0  0  0  0  0  0  0  0  0  0  0
    3.8004   -2.1632    3.3896 H   0  0  0  0  0  0  0  0  0  0  0  0
    2.3126   -1.6207    3.7871 H   0  0  0  0  0  0  0  0  0  0  0  0
    2.5839   -1.8697    1.7927 C   0  0  0  0  0  0  0  0  0  0  0  0
    1.8668   -2.5390    1.8569 H   0  0  0  0  0  0  0  0  0  0  0  0
    2.2825   -1.0390    1.3624 H   0  0  0  0  0  0  0  0  0  0  0  0
    3.4313   -2.2848    1.2471 H   0  0  0  0  0  0  0  0  0  0  0  0
  1  5  1  0
  5  6  1  0
  5  7  2  0
  1  2  1  0
  1  3  1  0
  1  4  1  0
  8 12  1  0
 12 15  1  0
  8  9  1  0
  8 10  1  0
  8 11  1  0
 12 13  1  0
 12 14  1  0
 15 16  1  0
 15 17  1  0
 15 18  1  0
M  CHG  1   6  -1
M  END
>  <PDB_ID>  (668) 
pdb2qib

>  <RESIDUE_NAME>  (668) 
GLU   ARG

>  <FRAG_NAME>  (668) 
ACET   PRPA

>  <FRAG_ATOM_NUM>  (668) 
fragi: 7  fragj: 11

>  <atom.prop.CHAIN_ID>  (668) 
A A A A A A A Z Z Z Z Z Z Z Z Z Z Z

>  <atom.prop.IS_HEAVY_ATOM>  (668) 
1 0 0 0 1 1 1 1 0 0 0 1 0 0 1 0 0 0

>  <DIFUSE_FUNC_ATOM>  (668) 
atom 6   atom 7   

>  <FINAL_SINGLE_POINT_ENERGY>  (668) 
0

>  <NONCOV_INTER_ENERGY_QM>  (668) 
0

>  <FF_Energy>  (668) 
18.51

>  <QM_Energy>  (668) 
1.63

>  <source>  (668) 
ACET_PRPA_06

>  <Index>  (668) 
20972

$$$$
ACET-pdb1mn6-A-GLU-162:PRPA-pdb1mn6-A-PRO-168
     RDKit          3D

 18 16  0  0  0  0  0  0  0  0999 V2000
    0.0007    1.5105    0.0055 C   0  0  0  0  0  0  0  0  0  0  0  0
    0.8825    1.8109   -0.3027 H   0  0  0  0  0  0  0  0  0  0  0  0
   -0.2014    1.8062    0.9183 H   0  0  0  0  0  0  0  0  0  0  0  0
   -0.7540    1.9234   -0.6640 H   0  0  0  0  0  0  0  0  0  0  0  0
    0.0000    0.0000    0.0000 C   0  0  0  0  0  0  0  0  0  0  0  0
   -1.0970   -0.5931    0.0000 O   0  0  0  0  0  1  0  0  0  0  0  0
    1.0970   -0.5980   -0.0000 O   0  0  0  0  0  0  0  0  0  0  0  0
   -2.8129    3.6684    2.0261 C   0  0  0  0  0  0  0  0  0  0  0  0
   -2.9875    3.3680    1.0899 H   0  0  0  0  0  0  0  0  0  0  0  0
   -2.3581    4.6589    2.0411 H   0  0  0  0  0  0  0  0  0  0  0  0
   -3.7357    3.6870    2.6059 H   0  0  0  0  0  0  0  0  0  0  0  0
   -1.7437    2.7966    2.6746 C   0  0  0  0  0  0  0  0  0  0  0  0
   -2.1494    2.0045    3.1157 H   0  0  0  0  0  0  0  0  0  0  0  0
   -1.0619    2.5143    2.0102 H   0  0  0  0  0  0  0  0  0  0  0  0
   -1.1506    3.7281    3.6880 C   0  0  0  0  0  0  0  0  0  0  0  0
   -1.7676    3.8536    4.4537 H   0  0  0  0  0  0  0  0  0  0  0  0
   -0.2690    3.3956    3.9965 H   0  0  0  0  0  0  0  0  0  0  0  0
   -1.0412    4.6530    3.1217 H   0  0  0  0  0  0  0  0  0  0  0  0
  1  5  1  0
  5  6  1  0
  5  7  2  0
  1  2  1  0
  1  3  1  0
  1  4  1  0
  8 12  1  0
 12 15  1  0
  8  9  1  0
  8 10  1  0
  8 11  1  0
 12 13  1  0
 12 14  1  0
 15 16  1  0
 15 17  1  0
 15 18  1  0
M  CHG  1   6  -1
M  END
>  <PDB_ID>  (669) 
pdb1mn6

>  <RESIDUE_NAME>  (669) 
GLU   PRO

>  <FRAG_NAME>  (669) 
ACET   PRPA

>  <FRAG_ATOM_NUM>  (669) 
fragi: 7  fragj: 11

>  <atom.prop.CHAIN_ID>  (669) 
A A A A A A A Z Z Z Z Z Z Z Z Z Z Z

>  <atom.prop.IS_HEAVY_ATOM>  (669) 
1 0 0 0 1 1 1 1 0 0 0 1 0 0 1 0 0 0

>  <DIFUSE_FUNC_ATOM>  (669) 
atom 6   atom 7   

>  <FINAL_SINGLE_POINT_ENERGY>  (669) 
0

>  <NONCOV_INTER_ENERGY_QM>  (669) 
0

>  <FF_Energy>  (669) 
18.71

>  <QM_Energy>  (669) 
1.61

>  <source>  (669) 
ACET_PRPA_06

>  <Index>  (669) 
21071

$$$$
ACET-pdb2psn-C-ASP-244:PRPA-pdb2psn-C-GLU-166
     RDKit          3D

 18 16  0  0  0  0  0  0  0  0999 V2000
   -0.0057    1.5335   -0.0066 C   0  0  0  0  0  0  0  0  0  0  0  0
    0.4386    1.8408   -0.8353 H   0  0  0  0  0  0  0  0  0  0  0  0
    0.4775    1.8487    0.7962 H   0  0  0  0  0  0  0  0  0  0  0  0
   -1.0178    1.9373    0.0155 H   0  0  0  0  0  0  0  0  0  0  0  0
    0.0000    0.0000    0.0000 C   0  0  0  0  0  0  0  0  0  0  0  0
   -1.0959   -0.6094    0.0000 O   0  0  0  0  0  1  0  0  0  0  0  0
    1.0959   -0.5997   -0.0000 O   0  0  0  0  0  0  0  0  0  0  0  0
    1.2853    4.3968    3.4561 C   0  0  0  0  0  0  0  0  0  0  0  0
    1.9382    4.6945    4.1937 H   0  0  0  0  0  0  0  0  0  0  0  0
    0.6650    3.5858    3.8376 H   0  0  0  0  0  0  0  0  0  0  0  0
    0.7544    5.2721    3.0817 H   0  0  0  0  0  0  0  0  0  0  0  0
    2.2285    3.8736    2.3479 C   0  0  0  0  0  0  0  0  0  0  0  0
    1.9132    4.2524    1.4913 H   0  0  0  0  0  0  0  0  0  0  0  0
    3.1408    4.1862    2.5650 H   0  0  0  0  0  0  0  0  0  0  0  0
    2.2858    2.3547    2.1890 C   0  0  0  0  0  0  0  0  0  0  0  0
    2.5327    1.9621    3.0555 H   0  0  0  0  0  0  0  0  0  0  0  0
    1.4090    2.0418    1.8746 H   0  0  0  0  0  0  0  0  0  0  0  0
    3.0263    2.0229    1.4612 H   0  0  0  0  0  0  0  0  0  0  0  0
  1  5  1  0
  5  6  1  0
  5  7  2  0
  1  2  1  0
  1  3  1  0
  1  4  1  0
  8 12  1  0
 12 15  1  0
  8  9  1  0
  8 10  1  0
  8 11  1  0
 12 13  1  0
 12 14  1  0
 15 16  1  0
 15 17  1  0
 15 18  1  0
M  CHG  1   6  -1
M  END
>  <PDB_ID>  (670) 
pdb2psn

>  <RESIDUE_NAME>  (670) 
ASP   GLU

>  <FRAG_NAME>  (670) 
ACET   PRPA

>  <FRAG_ATOM_NUM>  (670) 
fragi: 7  fragj: 11

>  <atom.prop.CHAIN_ID>  (670) 
A A A A A A A Z Z Z Z Z Z Z Z Z Z Z

>  <atom.prop.IS_HEAVY_ATOM>  (670) 
1 0 0 0 1 1 1 1 0 0 0 1 0 0 1 0 0 0

>  <DIFUSE_FUNC_ATOM>  (670) 
atom 6   atom 7   

>  <FINAL_SINGLE_POINT_ENERGY>  (670) 
0

>  <NONCOV_INTER_ENERGY_QM>  (670) 
0

>  <FF_Energy>  (670) 
43.88

>  <QM_Energy>  (670) 
4.43

>  <source>  (670) 
ACET_PRPA_06

>  <Index>  (670) 
21502

$$$$
ACET-pdb1m5h-B-ASP-1154:PRPA-pdb1m5h-B-LYS-1114
     RDKit          3D

 18 16  0  0  0  0  0  0  0  0999 V2000
    0.0145    1.5059   -0.0019 C   0  0  0  0  0  0  0  0  0  0  0  0
    0.8451    1.8251    0.4445 H   0  0  0  0  0  0  0  0  0  0  0  0
   -0.7864    1.8415    0.4834 H   0  0  0  0  0  0  0  0  0  0  0  0
   -0.0054    1.9327   -1.0046 H   0  0  0  0  0  0  0  0  0  0  0  0
    0.0000    0.0000    0.0000 C   0  0  0  0  0  0  0  0  0  0  0  0
   -1.0988   -0.5951    0.0000 O   0  0  0  0  0  1  0  0  0  0  0  0
    1.0988   -0.5886   -0.0000 O   0  0  0  0  0  0  0  0  0  0  0  0
    3.1292    1.1085    2.8822 C   0  0  0  0  0  0  0  0  0  0  0  0
    2.4591    0.8232    3.5897 H   0  0  0  0  0  0  0  0  0  0  0  0
    2.5956    1.4766    2.0998 H   0  0  0  0  0  0  0  0  0  0  0  0
    3.7151    1.9294    3.2957 H   0  0  0  0  0  0  0  0  0  0  0  0
    3.8724   -0.1186    2.4125 C   0  0  0  0  0  0  0  0  0  0  0  0
    4.3605    0.0879    1.5753 H   0  0  0  0  0  0  0  0  0  0  0  0
    4.4922   -0.4251    3.1211 H   0  0  0  0  0  0  0  0  0  0  0  0
    2.8635   -1.2297    2.1294 C   0  0  0  0  0  0  0  0  0  0  0  0
    2.3815   -1.4496    2.9789 H   0  0  0  0  0  0  0  0  0  0  0  0
    2.2053   -0.9013    1.4503 H   0  0  0  0  0  0  0  0  0  0  0  0
    3.3224   -2.1425    1.7494 H   0  0  0  0  0  0  0  0  0  0  0  0
  1  5  1  0
  5  6  1  0
  5  7  2  0
  1  2  1  0
  1  3  1  0
  1  4  1  0
  8 12  1  0
 12 15  1  0
  8  9  1  0
  8 10  1  0
  8 11  1  0
 12 13  1  0
 12 14  1  0
 15 16  1  0
 15 17  1  0
 15 18  1  0
M  CHG  1   6  -1
M  END
>  <PDB_ID>  (671) 
pdb1m5h

>  <RESIDUE_NAME>  (671) 
ASP   LYS

>  <FRAG_NAME>  (671) 
ACET   PRPA

>  <FRAG_ATOM_NUM>  (671) 
fragi: 7  fragj: 11

>  <atom.prop.CHAIN_ID>  (671) 
A A A A A A A Z Z Z Z Z Z Z Z Z Z Z

>  <atom.prop.IS_HEAVY_ATOM>  (671) 
1 0 0 0 1 1 1 1 0 0 0 1 0 0 1 0 0 0

>  <DIFUSE_FUNC_ATOM>  (671) 
atom 6   atom 7   

>  <FINAL_SINGLE_POINT_ENERGY>  (671) 
0

>  <NONCOV_INTER_ENERGY_QM>  (671) 
0

>  <FF_Energy>  (671) 
18.58

>  <QM_Energy>  (671) 
-1.19

>  <source>  (671) 
ACET_PRPA_06

>  <Index>  (671) 
21593

$$$$
ACET-pdb1m5h-B-ASP-1154:PRPA-pdb1m5h-B-LYS-1114
     RDKit          3D

 18 16  0  0  0  0  0  0  0  0999 V2000
    0.0145    1.5059   -0.0019 C   0  0  0  0  0  0  0  0  0  0  0  0
    0.8451    1.8251    0.4445 H   0  0  0  0  0  0  0  0  0  0  0  0
   -0.7864    1.8415    0.4834 H   0  0  0  0  0  0  0  0  0  0  0  0
   -0.0054    1.9327   -1.0046 H   0  0  0  0  0  0  0  0  0  0  0  0
    0.0000    0.0000    0.0000 C   0  0  0  0  0  0  0  0  0  0  0  0
   -1.0988   -0.5951    0.0000 O   0  0  0  0  0  1  0  0  0  0  0  0
    1.0988   -0.5886   -0.0000 O   0  0  0  0  0  0  0  0  0  0  0  0
    3.8724   -0.1186    2.4125 C   0  0  0  0  0  0  0  0  0  0  0  0
    4.3605    0.0879    1.5753 H   0  0  0  0  0  0  0  0  0  0  0  0
    4.4922   -0.4251    3.1211 H   0  0  0  0  0  0  0  0  0  0  0  0
    3.3358    0.7675    2.7517 H   0  0  0  0  0  0  0  0  0  0  0  0
    2.8635   -1.2297    2.1294 C   0  0  0  0  0  0  0  0  0  0  0  0
    2.3815   -1.4496    2.9789 H   0  0  0  0  0  0  0  0  0  0  0  0
    2.2053   -0.9013    1.4503 H   0  0  0  0  0  0  0  0  0  0  0  0
    3.5069   -2.5092    1.5968 C   0  0  0  0  0  0  0  0  0  0  0  0
    4.3514   -2.6880    2.1222 H   0  0  0  0  0  0  0  0  0  0  0  0
    2.8735   -3.2799    1.7588 H   0  0  0  0  0  0  0  0  0  0  0  0
    3.7512   -2.4674    0.5353 H   0  0  0  0  0  0  0  0  0  0  0  0
  1  5  1  0
  5  6  1  0
  5  7  2  0
  1  2  1  0
  1  3  1  0
  1  4  1  0
  8 12  1  0
 12 15  1  0
  8  9  1  0
  8 10  1  0
  8 11  1  0
 12 13  1  0
 12 14  1  0
 15 16  1  0
 15 17  1  0
 15 18  1  0
M  CHG  1   6  -1
M  END
>  <PDB_ID>  (672) 
pdb1m5h

>  <RESIDUE_NAME>  (672) 
ASP   LYS

>  <FRAG_NAME>  (672) 
ACET   PRPA

>  <FRAG_ATOM_NUM>  (672) 
fragi: 7  fragj: 11

>  <atom.prop.CHAIN_ID>  (672) 
A A A A A A A Z Z Z Z Z Z Z Z Z Z Z

>  <atom.prop.IS_HEAVY_ATOM>  (672) 
1 0 0 0 1 1 1 1 0 0 0 1 0 0 1 0 0 0

>  <DIFUSE_FUNC_ATOM>  (672) 
atom 6   atom 7   

>  <FINAL_SINGLE_POINT_ENERGY>  (672) 
0

>  <NONCOV_INTER_ENERGY_QM>  (672) 
0

>  <FF_Energy>  (672) 
21.43

>  <QM_Energy>  (672) 
-1.19

>  <source>  (672) 
ACET_PRPA_06

>  <Index>  (672) 
21594

$$$$
ACET-pdb1mu5-A-ASP-64:PRPA-pdb1mu5-A-ARG-67
     RDKit          3D

 18 16  0  0  0  0  0  0  0  0999 V2000
   -0.0607    1.5106    0.0132 C   0  0  0  0  0  0  0  0  0  0  0  0
    0.7531    1.8698   -0.4286 H   0  0  0  0  0  0  0  0  0  0  0  0
   -0.1139    1.8243    0.9542 H   0  0  0  0  0  0  0  0  0  0  0  0
   -0.9285    1.9011   -0.5184 H   0  0  0  0  0  0  0  0  0  0  0  0
    0.0000    0.0000    0.0000 C   0  0  0  0  0  0  0  0  0  0  0  0
   -1.0805   -0.6454    0.0000 O   0  0  0  0  0  1  0  0  0  0  0  0
    1.0805   -0.6355   -0.0000 O   0  0  0  0  0  0  0  0  0  0  0  0
   -0.4545   -1.8281    3.6404 C   0  0  0  0  0  0  0  0  0  0  0  0
   -0.0507   -1.3139    4.4028 H   0  0  0  0  0  0  0  0  0  0  0  0
   -0.3253   -2.8101    3.8107 H   0  0  0  0  0  0  0  0  0  0  0  0
   -1.5264   -1.6303    3.6387 H   0  0  0  0  0  0  0  0  0  0  0  0
    0.2407   -1.4625    2.3940 C   0  0  0  0  0  0  0  0  0  0  0  0
   -0.2540   -1.8325    1.5972 H   0  0  0  0  0  0  0  0  0  0  0  0
    0.2837   -0.4598    2.3007 H   0  0  0  0  0  0  0  0  0  0  0  0
    1.6425   -1.9874    2.3496 C   0  0  0  0  0  0  0  0  0  0  0  0
    2.1384   -1.5108    1.6254 H   0  0  0  0  0  0  0  0  0  0  0  0
    2.0775   -1.8075    3.2307 H   0  0  0  0  0  0  0  0  0  0  0  0
    1.6668   -3.0591    2.1529 H   0  0  0  0  0  0  0  0  0  0  0  0
  1  5  1  0
  5  6  1  0
  5  7  2  0
  1  2  1  0
  1  3  1  0
  1  4  1  0
  8 12  1  0
 12 15  1  0
  8  9  1  0
  8 10  1  0
  8 11  1  0
 12 13  1  0
 12 14  1  0
 15 16  1  0
 15 17  1  0
 15 18  1  0
M  CHG  1   6  -1
M  END
>  <PDB_ID>  (673) 
pdb1mu5

>  <RESIDUE_NAME>  (673) 
ASP   ARG

>  <FRAG_NAME>  (673) 
ACET   PRPA

>  <FRAG_ATOM_NUM>  (673) 
fragi: 7  fragj: 11

>  <atom.prop.CHAIN_ID>  (673) 
A A A A A A A Z Z Z Z Z Z Z Z Z Z Z

>  <atom.prop.IS_HEAVY_ATOM>  (673) 
1 0 0 0 1 1 1 1 0 0 0 1 0 0 1 0 0 0

>  <DIFUSE_FUNC_ATOM>  (673) 
atom 6   atom 7   

>  <FINAL_SINGLE_POINT_ENERGY>  (673) 
0

>  <NONCOV_INTER_ENERGY_QM>  (673) 
0

>  <FF_Energy>  (673) 
19.97

>  <QM_Energy>  (673) 
1.8

>  <source>  (673) 
ACET_PRPA_06

>  <Index>  (673) 
21667

$$$$
ACET-pdb1mn6-A-GLU-156:PRPA-pdb1mn6-A-ARG-224
     RDKit          3D

 18 16  0  0  0  0  0  0  0  0999 V2000
    0.0021    1.5234   -0.0176 C   0  0  0  0  0  0  0  0  0  0  0  0
    0.9340    1.8165    0.0293 H   0  0  0  0  0  0  0  0  0  0  0  0
   -0.5336    1.8267    0.7430 H   0  0  0  0  0  0  0  0  0  0  0  0
   -0.4385    1.9193   -0.9325 H   0  0  0  0  0  0  0  0  0  0  0  0
    0.0000    0.0000    0.0000 C   0  0  0  0  0  0  0  0  0  0  0  0
   -1.0974   -0.5956   -0.0000 O   0  0  0  0  0  1  0  0  0  0  0  0
    1.0974   -0.5996   -0.0000 O   0  0  0  0  0  0  0  0  0  0  0  0
   -0.7790   -2.7617    2.7334 C   0  0  0  0  0  0  0  0  0  0  0  0
    0.1295   -2.9999    3.0722 H   0  0  0  0  0  0  0  0  0  0  0  0
   -0.7378   -2.5913    1.7507 H   0  0  0  0  0  0  0  0  0  0  0  0
   -1.4399   -3.6114    2.9048 H   0  0  0  0  0  0  0  0  0  0  0  0
   -1.2128   -1.4736    3.4153 C   0  0  0  0  0  0  0  0  0  0  0  0
   -1.6546   -1.6883    4.2837 H   0  0  0  0  0  0  0  0  0  0  0  0
   -0.4159   -0.8957    3.5728 H   0  0  0  0  0  0  0  0  0  0  0  0
   -2.2019   -0.6899    2.5622 C   0  0  0  0  0  0  0  0  0  0  0  0
   -2.1862    0.2656    2.8713 H   0  0  0  0  0  0  0  0  0  0  0  0
   -1.8832   -0.7271    1.6106 H   0  0  0  0  0  0  0  0  0  0  0  0
   -3.2239   -1.0657    2.6127 H   0  0  0  0  0  0  0  0  0  0  0  0
  1  5  1  0
  5  6  1  0
  5  7  2  0
  1  2  1  0
  1  3  1  0
  1  4  1  0
  8 12  1  0
 12 15  1  0
  8  9  1  0
  8 10  1  0
  8 11  1  0
 12 13  1  0
 12 14  1  0
 15 16  1  0
 15 17  1  0
 15 18  1  0
M  CHG  1   6  -1
M  END
>  <PDB_ID>  (674) 
pdb1mn6

>  <RESIDUE_NAME>  (674) 
GLU   ARG

>  <FRAG_NAME>  (674) 
ACET   PRPA

>  <FRAG_ATOM_NUM>  (674) 
fragi: 7  fragj: 11

>  <atom.prop.CHAIN_ID>  (674) 
A A A A A A A Z Z Z Z Z Z Z Z Z Z Z

>  <atom.prop.IS_HEAVY_ATOM>  (674) 
1 0 0 0 1 1 1 1 0 0 0 1 0 0 1 0 0 0

>  <DIFUSE_FUNC_ATOM>  (674) 
atom 6   atom 7   

>  <FINAL_SINGLE_POINT_ENERGY>  (674) 
0

>  <NONCOV_INTER_ENERGY_QM>  (674) 
0

>  <FF_Energy>  (674) 
27.98

>  <QM_Energy>  (674) 
-1.2

>  <source>  (674) 
ACET_PRPA_06

>  <Index>  (674) 
21742

$$$$
ACET-pdb1mp3-A-GLU-150:PRPA-pdb1mp3-A-LYS-168
     RDKit          3D

 18 16  0  0  0  0  0  0  0  0999 V2000
    0.0085    1.5307    0.0153 C   0  0  0  0  0  0  0  0  0  0  0  0
    0.9061    1.8218   -0.2587 H   0  0  0  0  0  0  0  0  0  0  0  0
   -0.2134    1.8150    0.9292 H   0  0  0  0  0  0  0  0  0  0  0  0
   -0.7170    1.9723   -0.6679 H   0  0  0  0  0  0  0  0  0  0  0  0
    0.0000    0.0000    0.0000 C   0  0  0  0  0  0  0  0  0  0  0  0
   -1.0948   -0.6033   -0.0000 O   0  0  0  0  0  1  0  0  0  0  0  0
    1.0948   -0.6044    0.0000 O   0  0  0  0  0  0  0  0  0  0  0  0
   -3.3044    0.9524    2.8128 C   0  0  0  0  0  0  0  0  0  0  0  0
   -2.9880    0.3706    3.5624 H   0  0  0  0  0  0  0  0  0  0  0  0
   -4.2331    1.2681    3.0037 H   0  0  0  0  0  0  0  0  0  0  0  0
   -2.6434    1.8148    2.7265 H   0  0  0  0  0  0  0  0  0  0  0  0
   -3.3106    0.1458    1.5337 C   0  0  0  0  0  0  0  0  0  0  0  0
   -3.6772    0.7077    0.7962 H   0  0  0  0  0  0  0  0  0  0  0  0
   -2.3781   -0.1327    1.3182 H   0  0  0  0  0  0  0  0  0  0  0  0
   -4.1680   -1.1030    1.6591 C   0  0  0  0  0  0  0  0  0  0  0  0
   -3.8200   -1.6640    2.4032 H   0  0  0  0  0  0  0  0  0  0  0  0
   -5.1089   -0.8353    1.8387 H   0  0  0  0  0  0  0  0  0  0  0  0
   -4.1264   -1.6711    0.7298 H   0  0  0  0  0  0  0  0  0  0  0  0
  1  5  1  0
  5  6  1  0
  5  7  2  0
  1  2  1  0
  1  3  1  0
  1  4  1  0
  8 12  1  0
 12 15  1  0
  8  9  1  0
  8 10  1  0
  8 11  1  0
 12 13  1  0
 12 14  1  0
 15 16  1  0
 15 17  1  0
 15 18  1  0
M  CHG  1   6  -1
M  END
>  <PDB_ID>  (675) 
pdb1mp3

>  <RESIDUE_NAME>  (675) 
GLU   LYS

>  <FRAG_NAME>  (675) 
ACET   PRPA

>  <FRAG_ATOM_NUM>  (675) 
fragi: 7  fragj: 11

>  <atom.prop.CHAIN_ID>  (675) 
A A A A A A A Z Z Z Z Z Z Z Z Z Z Z

>  <atom.prop.IS_HEAVY_ATOM>  (675) 
1 0 0 0 1 1 1 1 0 0 0 1 0 0 1 0 0 0

>  <DIFUSE_FUNC_ATOM>  (675) 
atom 6   atom 7   

>  <FINAL_SINGLE_POINT_ENERGY>  (675) 
0

>  <NONCOV_INTER_ENERGY_QM>  (675) 
0

>  <FF_Energy>  (675) 
16.08

>  <QM_Energy>  (675) 
0.07

>  <source>  (675) 
ACET_PRPA_06

>  <Index>  (675) 
21794

$$$$
ACET-pdb1mvh-A-ASP-280:PRPA-pdb1mvh-A-GLU-277
     RDKit          3D

 18 16  0  0  0  0  0  0  0  0999 V2000
    0.0001    1.5152    0.0204 C   0  0  0  0  0  0  0  0  0  0  0  0
    0.8972    1.8395   -0.2572 H   0  0  0  0  0  0  0  0  0  0  0  0
   -0.2104    1.8238    0.9413 H   0  0  0  0  0  0  0  0  0  0  0  0
   -0.7372    1.9472   -0.6565 H   0  0  0  0  0  0  0  0  0  0  0  0
    0.0000    0.0000    0.0000 C   0  0  0  0  0  0  0  0  0  0  0  0
   -1.0986   -0.5952   -0.0000 O   0  0  0  0  0  1  0  0  0  0  0  0
    1.0986   -0.5927    0.0000 O   0  0  0  0  0  0  0  0  0  0  0  0
    2.3739   -1.2622   -2.3389 C   0  0  0  0  0  0  0  0  0  0  0  0
    1.6402   -1.1212   -1.6737 H   0  0  0  0  0  0  0  0  0  0  0  0
    2.0416   -1.9493   -3.1171 H   0  0  0  0  0  0  0  0  0  0  0  0
    2.6436   -0.3075   -2.7906 H   0  0  0  0  0  0  0  0  0  0  0  0
    3.5809   -1.8591   -1.6169 C   0  0  0  0  0  0  0  0  0  0  0  0
    4.3899   -1.4764   -2.0167 H   0  0  0  0  0  0  0  0  0  0  0  0
    3.4933   -1.6527   -0.6633 H   0  0  0  0  0  0  0  0  0  0  0  0
    3.6701   -3.3723   -1.7560 C   0  0  0  0  0  0  0  0  0  0  0  0
    2.8230   -3.7599   -1.4420 H   0  0  0  0  0  0  0  0  0  0  0  0
    3.8482   -3.5856   -2.6997 H   0  0  0  0  0  0  0  0  0  0  0  0
    4.4734   -3.8079   -1.1617 H   0  0  0  0  0  0  0  0  0  0  0  0
  1  5  1  0
  5  6  1  0
  5  7  2  0
  1  2  1  0
  1  3  1  0
  1  4  1  0
  8 12  1  0
 12 15  1  0
  8  9  1  0
  8 10  1  0
  8 11  1  0
 12 13  1  0
 12 14  1  0
 15 16  1  0
 15 17  1  0
 15 18  1  0
M  CHG  1   6  -1
M  END
>  <PDB_ID>  (676) 
pdb1mvh

>  <RESIDUE_NAME>  (676) 
ASP   GLU

>  <FRAG_NAME>  (676) 
ACET   PRPA

>  <FRAG_ATOM_NUM>  (676) 
fragi: 7  fragj: 11

>  <atom.prop.CHAIN_ID>  (676) 
A A A A A A A Z Z Z Z Z Z Z Z Z Z Z

>  <atom.prop.IS_HEAVY_ATOM>  (676) 
1 0 0 0 1 1 1 1 0 0 0 1 0 0 1 0 0 0

>  <DIFUSE_FUNC_ATOM>  (676) 
atom 6   atom 7   

>  <FINAL_SINGLE_POINT_ENERGY>  (676) 
0

>  <NONCOV_INTER_ENERGY_QM>  (676) 
0

>  <FF_Energy>  (676) 
22.89

>  <QM_Energy>  (676) 
-1.15

>  <source>  (676) 
ACET_PRPA_06

>  <Index>  (676) 
21882

$$$$
ACET-pdb1m7x-A-ASP-400:PRPA-pdb1m7x-A-ARG-233
     RDKit          3D

 18 16  0  0  0  0  0  0  0  0999 V2000
    0.0140    1.5246    0.0112 C   0  0  0  0  0  0  0  0  0  0  0  0
   -0.8160    1.8530   -0.4228 H   0  0  0  0  0  0  0  0  0  0  0  0
    0.8157    1.8397   -0.4813 H   0  0  0  0  0  0  0  0  0  0  0  0
    0.0530    1.9404    1.0180 H   0  0  0  0  0  0  0  0  0  0  0  0
    0.0000    0.0000    0.0000 C   0  0  0  0  0  0  0  0  0  0  0  0
   -1.0996   -0.6057   -0.0000 O   0  0  0  0  0  1  0  0  0  0  0  0
    1.0996   -0.5913    0.0000 O   0  0  0  0  0  0  0  0  0  0  0  0
    3.6501   -1.7757   -1.9607 C   0  0  0  0  0  0  0  0  0  0  0  0
    4.4963   -1.9895   -1.4725 H   0  0  0  0  0  0  0  0  0  0  0  0
    3.1687   -1.0399   -1.4844 H   0  0  0  0  0  0  0  0  0  0  0  0
    3.9175   -1.4145   -2.9537 H   0  0  0  0  0  0  0  0  0  0  0  0
    2.7618   -3.0169   -1.9306 C   0  0  0  0  0  0  0  0  0  0  0  0
    2.0563   -2.9362   -2.6258 H   0  0  0  0  0  0  0  0  0  0  0  0
    3.3173   -3.8253   -2.0915 H   0  0  0  0  0  0  0  0  0  0  0  0
    2.0775   -3.1745   -0.5739 C   0  0  0  0  0  0  0  0  0  0  0  0
    1.8224   -2.2583   -0.2523 H   0  0  0  0  0  0  0  0  0  0  0  0
    1.2412   -3.7127   -0.7148 H   0  0  0  0  0  0  0  0  0  0  0  0
    2.6954   -3.6618    0.1802 H   0  0  0  0  0  0  0  0  0  0  0  0
  1  5  1  0
  5  6  1  0
  5  7  2  0
  1  2  1  0
  1  3  1  0
  1  4  1  0
  8 12  1  0
 12 15  1  0
  8  9  1  0
  8 10  1  0
  8 11  1  0
 12 13  1  0
 12 14  1  0
 15 16  1  0
 15 17  1  0
 15 18  1  0
M  CHG  1   6  -1
M  END
>  <PDB_ID>  (677) 
pdb1m7x

>  <RESIDUE_NAME>  (677) 
ASP   ARG

>  <FRAG_NAME>  (677) 
ACET   PRPA

>  <FRAG_ATOM_NUM>  (677) 
fragi: 7  fragj: 11

>  <atom.prop.CHAIN_ID>  (677) 
A A A A A A A Z Z Z Z Z Z Z Z Z Z Z

>  <atom.prop.IS_HEAVY_ATOM>  (677) 
1 0 0 0 1 1 1 1 0 0 0 1 0 0 1 0 0 0

>  <DIFUSE_FUNC_ATOM>  (677) 
atom 6   atom 7   

>  <FINAL_SINGLE_POINT_ENERGY>  (677) 
0

>  <NONCOV_INTER_ENERGY_QM>  (677) 
0

>  <FF_Energy>  (677) 
21.45

>  <QM_Energy>  (677) 
-1.6

>  <source>  (677) 
ACET_PRPA_06

>  <Index>  (677) 
22070

$$$$
ACET-pdb2qlg-A-GLU-176:PRPA-pdb2qlg-A-LYS-162
     RDKit          3D

 18 16  0  0  0  0  0  0  0  0999 V2000
   -0.0118    1.5361    0.0364 C   0  0  0  0  0  0  0  0  0  0  0  0
   -0.6091    1.8016    0.7627 H   0  0  0  0  0  0  0  0  0  0  0  0
   -0.3111    1.8408   -0.8420 H   0  0  0  0  0  0  0  0  0  0  0  0
    0.9813    1.9406    0.2322 H   0  0  0  0  0  0  0  0  0  0  0  0
    0.0000    0.0000    0.0000 C   0  0  0  0  0  0  0  0  0  0  0  0
   -1.1014   -0.5973   -0.0000 O   0  0  0  0  0  1  0  0  0  0  0  0
    1.1014   -0.6019    0.0000 O   0  0  0  0  0  0  0  0  0  0  0  0
   -0.7767   -2.2795    3.1529 C   0  0  0  0  0  0  0  0  0  0  0  0
   -0.6602   -2.2895    4.1484 H   0  0  0  0  0  0  0  0  0  0  0  0
   -0.7429   -1.3317    2.8287 H   0  0  0  0  0  0  0  0  0  0  0  0
    0.0489   -2.8307    2.7026 H   0  0  0  0  0  0  0  0  0  0  0  0
   -2.1547   -2.8701    2.8109 C   0  0  0  0  0  0  0  0  0  0  0  0
   -2.0401   -3.8230    2.5727 H   0  0  0  0  0  0  0  0  0  0  0  0
   -2.7492   -2.7633    3.5937 H   0  0  0  0  0  0  0  0  0  0  0  0
   -2.7784   -2.1380    1.6189 C   0  0  0  0  0  0  0  0  0  0  0  0
   -2.1378   -1.4133    1.3196 H   0  0  0  0  0  0  0  0  0  0  0  0
   -2.8700   -2.7957    0.8537 H   0  0  0  0  0  0  0  0  0  0  0  0
   -3.7513   -1.6928    1.8272 H   0  0  0  0  0  0  0  0  0  0  0  0
  1  5  1  0
  5  6  1  0
  5  7  2  0
  1  2  1  0
  1  3  1  0
  1  4  1  0
  8 12  1  0
 12 15  1  0
  8  9  1  0
  8 10  1  0
  8 11  1  0
 12 13  1  0
 12 14  1  0
 15 16  1  0
 15 17  1  0
 15 18  1  0
M  CHG  1   6  -1
M  END
>  <PDB_ID>  (678) 
pdb2qlg

>  <RESIDUE_NAME>  (678) 
GLU   LYS

>  <FRAG_NAME>  (678) 
ACET   PRPA

>  <FRAG_ATOM_NUM>  (678) 
fragi: 7  fragj: 11

>  <atom.prop.CHAIN_ID>  (678) 
A A A A A A A Z Z Z Z Z Z Z Z Z Z Z

>  <atom.prop.IS_HEAVY_ATOM>  (678) 
1 0 0 0 1 1 1 1 0 0 0 1 0 0 1 0 0 0

>  <DIFUSE_FUNC_ATOM>  (678) 
atom 6   atom 7   

>  <FINAL_SINGLE_POINT_ENERGY>  (678) 
0

>  <NONCOV_INTER_ENERGY_QM>  (678) 
0

>  <FF_Energy>  (678) 
17.25

>  <QM_Energy>  (678) 
-0.63

>  <source>  (678) 
ACET_PRPA_06

>  <Index>  (678) 
22502

$$$$
ACET-pdb1mww-B-ASP-57:PRPA-pdb1mww-B-LEU-7
     RDKit          3D

 18 16  0  0  0  0  0  0  0  0999 V2000
   -0.0529    1.4843   -0.0039 C   0  0  0  0  0  0  0  0  0  0  0  0
   -0.6726    1.8011    0.7120 H   0  0  0  0  0  0  0  0  0  0  0  0
   -0.3710    1.8083   -0.8928 H   0  0  0  0  0  0  0  0  0  0  0  0
    0.9145    1.9514    0.1803 H   0  0  0  0  0  0  0  0  0  0  0  0
    0.0000    0.0000    0.0000 C   0  0  0  0  0  0  0  0  0  0  0  0
   -1.1102   -0.5700   -0.0000 O   0  0  0  0  0  1  0  0  0  0  0  0
    1.1102   -0.6075    0.0000 O   0  0  0  0  0  0  0  0  0  0  0  0
   -1.8517    3.1036    4.3507 C   0  0  0  0  0  0  0  0  0  0  0  0
   -0.8835    3.2010    4.1158 H   0  0  0  0  0  0  0  0  0  0  0  0
   -2.0500    2.1449    4.5552 H   0  0  0  0  0  0  0  0  0  0  0  0
   -2.0219    3.6727    5.2646 H   0  0  0  0  0  0  0  0  0  0  0  0
   -2.6666    3.4872    3.1079 C   0  0  0  0  0  0  0  0  0  0  0  0
   -2.3871    4.3975    2.7837 H   0  0  0  0  0  0  0  0  0  0  0  0
   -3.6990    3.5012    3.4576 H   0  0  0  0  0  0  0  0  0  0  0  0
   -2.5003    2.4752    1.8775 C   0  0  0  0  0  0  0  0  0  0  0  0
   -2.8029    1.5862    2.1838 H   0  0  0  0  0  0  0  0  0  0  0  0
   -3.0627    2.8147    1.1392 H   0  0  0  0  0  0  0  0  0  0  0  0
   -1.5442    2.4669    1.6310 H   0  0  0  0  0  0  0  0  0  0  0  0
  1  5  1  0
  5  6  1  0
  5  7  2  0
  1  2  1  0
  1  3  1  0
  1  4  1  0
  8 12  1  0
 12 15  1  0
  8  9  1  0
  8 10  1  0
  8 11  1  0
 12 13  1  0
 12 14  1  0
 15 16  1  0
 15 17  1  0
 15 18  1  0
M  CHG  1   6  -1
M  END
>  <PDB_ID>  (679) 
pdb1mww

>  <RESIDUE_NAME>  (679) 
ASP   LEU

>  <FRAG_NAME>  (679) 
ACET   PRPA

>  <FRAG_ATOM_NUM>  (679) 
fragi: 7  fragj: 11

>  <atom.prop.CHAIN_ID>  (679) 
A A A A A A A Z Z Z Z Z Z Z Z Z Z Z

>  <atom.prop.IS_HEAVY_ATOM>  (679) 
1 0 0 0 1 1 1 1 0 0 0 1 0 0 1 0 0 0

>  <DIFUSE_FUNC_ATOM>  (679) 
atom 6   atom 7   

>  <FINAL_SINGLE_POINT_ENERGY>  (679) 
0

>  <NONCOV_INTER_ENERGY_QM>  (679) 
0

>  <FF_Energy>  (679) 
48.56

>  <QM_Energy>  (679) 
5.53

>  <source>  (679) 
ACET_PRPA_06

>  <Index>  (679) 
23636

$$$$
ACET-pdb1m5h-B-ASP-1029:PRPA-pdb1m5h-C-LYS-2181
     RDKit          3D

 18 16  0  0  0  0  0  0  0  0999 V2000
    0.0022    1.5145    0.0128 C   0  0  0  0  0  0  0  0  0  0  0  0
   -0.0852    1.8255    0.9513 H   0  0  0  0  0  0  0  0  0  0  0  0
   -0.7570    1.8398   -0.5365 H   0  0  0  0  0  0  0  0  0  0  0  0
    0.9222    1.9301   -0.3984 H   0  0  0  0  0  0  0  0  0  0  0  0
    0.0000    0.0000    0.0000 C   0  0  0  0  0  0  0  0  0  0  0  0
   -1.0950   -0.5926   -0.0000 O   0  0  0  0  0  1  0  0  0  0  0  0
    1.0950   -0.5986    0.0000 O   0  0  0  0  0  0  0  0  0  0  0  0
   -3.9975   -0.0210    1.3875 C   0  0  0  0  0  0  0  0  0  0  0  0
   -3.1500    0.4187    1.0550 H   0  0  0  0  0  0  0  0  0  0  0  0
   -4.3018    0.4787    2.2117 H   0  0  0  0  0  0  0  0  0  0  0  0
   -4.7638    0.0792    0.6187 H   0  0  0  0  0  0  0  0  0  0  0  0
   -3.6732   -1.4668    1.7849 C   0  0  0  0  0  0  0  0  0  0  0  0
   -3.0308   -1.4475    2.5489 H   0  0  0  0  0  0  0  0  0  0  0  0
   -4.5196   -1.9161    2.0662 H   0  0  0  0  0  0  0  0  0  0  0  0
   -3.0537   -2.2648    0.6465 C   0  0  0  0  0  0  0  0  0  0  0  0
   -3.7909   -2.6696    0.0916 H   0  0  0  0  0  0  0  0  0  0  0  0
   -2.5249   -1.6394    0.0579 H   0  0  0  0  0  0  0  0  0  0  0  0
   -2.3951   -3.0623    0.9903 H   0  0  0  0  0  0  0  0  0  0  0  0
  1  5  1  0
  5  6  1  0
  5  7  2  0
  1  2  1  0
  1  3  1  0
  1  4  1  0
  8 12  1  0
 12 15  1  0
  8  9  1  0
  8 10  1  0
  8 11  1  0
 12 13  1  0
 12 14  1  0
 15 16  1  0
 15 17  1  0
 15 18  1  0
M  CHG  1   6  -1
M  END
>  <PDB_ID>  (680) 
pdb1m5h

>  <RESIDUE_NAME>  (680) 
ASP   LYS

>  <FRAG_NAME>  (680) 
ACET   PRPA

>  <FRAG_ATOM_NUM>  (680) 
fragi: 7  fragj: 11

>  <atom.prop.CHAIN_ID>  (680) 
A A A A A A A Z Z Z Z Z Z Z Z Z Z Z

>  <atom.prop.IS_HEAVY_ATOM>  (680) 
1 0 0 0 1 1 1 1 0 0 0 1 0 0 1 0 0 0

>  <DIFUSE_FUNC_ATOM>  (680) 
atom 6   atom 7   

>  <FINAL_SINGLE_POINT_ENERGY>  (680) 
0

>  <NONCOV_INTER_ENERGY_QM>  (680) 
0

>  <FF_Energy>  (680) 
35.99

>  <QM_Energy>  (680) 
1.42

>  <source>  (680) 
ACET_PRPA_06

>  <Index>  (680) 
25027

$$$$
ACET-pdb1n0l-A-GLU-40:PRPA-pdb1n0l-A-LEU-85
     RDKit          3D

 18 16  0  0  0  0  0  0  0  0999 V2000
   -0.0160    1.5188    0.0155 C   0  0  0  0  0  0  0  0  0  0  0  0
    0.8562    1.8296   -0.3128 H   0  0  0  0  0  0  0  0  0  0  0  0
   -0.1928    1.8051    0.9381 H   0  0  0  0  0  0  0  0  0  0  0  0
   -0.7899    1.9393   -0.6267 H   0  0  0  0  0  0  0  0  0  0  0  0
    0.0000    0.0000    0.0000 C   0  0  0  0  0  0  0  0  0  0  0  0
   -1.0989   -0.5882    0.0000 O   0  0  0  0  0  1  0  0  0  0  0  0
    1.0989   -0.6064    0.0000 O   0  0  0  0  0  0  0  0  0  0  0  0
   -2.0861   -2.8768   -1.1336 C   0  0  0  0  0  0  0  0  0  0  0  0
   -1.5398   -3.7008   -1.0619 H   0  0  0  0  0  0  0  0  0  0  0  0
   -1.5299   -2.0679   -1.0041 H   0  0  0  0  0  0  0  0  0  0  0  0
   -2.5070   -2.8391   -2.1384 H   0  0  0  0  0  0  0  0  0  0  0  0
   -3.1176   -2.9112    0.0058 C   0  0  0  0  0  0  0  0  0  0  0  0
   -3.8020   -2.2131   -0.1600 H   0  0  0  0  0  0  0  0  0  0  0  0
   -2.6415   -2.7015    0.9636 H   0  0  0  0  0  0  0  0  0  0  0  0
   -3.7785   -4.2810    0.0317 C   0  0  0  0  0  0  0  0  0  0  0  0
   -3.0838   -4.9846    0.1840 H   0  0  0  0  0  0  0  0  0  0  0  0
   -4.4525   -4.3137    0.7706 H   0  0  0  0  0  0  0  0  0  0  0  0
   -4.2358   -4.4491   -0.8426 H   0  0  0  0  0  0  0  0  0  0  0  0
  1  5  1  0
  5  6  1  0
  5  7  2  0
  1  2  1  0
  1  3  1  0
  1  4  1  0
  8 12  1  0
 12 15  1  0
  8  9  1  0
  8 10  1  0
  8 11  1  0
 12 13  1  0
 12 14  1  0
 15 16  1  0
 15 17  1  0
 15 18  1  0
M  CHG  1   6  -1
M  END
>  <PDB_ID>  (681) 
pdb1n0l

>  <RESIDUE_NAME>  (681) 
GLU   LEU

>  <FRAG_NAME>  (681) 
ACET   PRPA

>  <FRAG_ATOM_NUM>  (681) 
fragi: 7  fragj: 11

>  <atom.prop.CHAIN_ID>  (681) 
A A A A A A A Z Z Z Z Z Z Z Z Z Z Z

>  <atom.prop.IS_HEAVY_ATOM>  (681) 
1 0 0 0 1 1 1 1 0 0 0 1 0 0 1 0 0 0

>  <DIFUSE_FUNC_ATOM>  (681) 
atom 6   atom 7   

>  <FINAL_SINGLE_POINT_ENERGY>  (681) 
0

>  <NONCOV_INTER_ENERGY_QM>  (681) 
0

>  <FF_Energy>  (681) 
22.2

>  <QM_Energy>  (681) 
-0.13

>  <source>  (681) 
ACET_PRPA_06

>  <Index>  (681) 
26014

$$$$
ACET-pdb1n0l-A-GLU-40:PRPA-pdb1n0l-A-LEU-85
     RDKit          3D

 18 16  0  0  0  0  0  0  0  0999 V2000
   -0.0160    1.5188    0.0155 C   0  0  0  0  0  0  0  0  0  0  0  0
    0.8562    1.8296   -0.3128 H   0  0  0  0  0  0  0  0  0  0  0  0
   -0.1928    1.8051    0.9381 H   0  0  0  0  0  0  0  0  0  0  0  0
   -0.7899    1.9393   -0.6267 H   0  0  0  0  0  0  0  0  0  0  0  0
    0.0000    0.0000    0.0000 C   0  0  0  0  0  0  0  0  0  0  0  0
   -1.0989   -0.5882    0.0000 O   0  0  0  0  0  1  0  0  0  0  0  0
    1.0989   -0.6064    0.0000 O   0  0  0  0  0  0  0  0  0  0  0  0
   -2.0861   -2.8768   -1.1336 C   0  0  0  0  0  0  0  0  0  0  0  0
   -1.5398   -3.7008   -1.0619 H   0  0  0  0  0  0  0  0  0  0  0  0
   -1.5299   -2.0679   -1.0041 H   0  0  0  0  0  0  0  0  0  0  0  0
   -2.5070   -2.8391   -2.1384 H   0  0  0  0  0  0  0  0  0  0  0  0
   -3.1176   -2.9112    0.0058 C   0  0  0  0  0  0  0  0  0  0  0  0
   -3.8020   -2.2131   -0.1600 H   0  0  0  0  0  0  0  0  0  0  0  0
   -3.5912   -3.8928    0.0243 H   0  0  0  0  0  0  0  0  0  0  0  0
   -2.4534   -2.6187    1.3423 C   0  0  0  0  0  0  0  0  0  0  0  0
   -2.0326   -1.7108    1.3159 H   0  0  0  0  0  0  0  0  0  0  0  0
   -3.1400   -2.6454    2.0707 H   0  0  0  0  0  0  0  0  0  0  0  0
   -1.7486   -3.3060    1.5245 H   0  0  0  0  0  0  0  0  0  0  0  0
  1  5  1  0
  5  6  1  0
  5  7  2  0
  1  2  1  0
  1  3  1  0
  1  4  1  0
  8 12  1  0
 12 15  1  0
  8  9  1  0
  8 10  1  0
  8 11  1  0
 12 13  1  0
 12 14  1  0
 15 16  1  0
 15 17  1  0
 15 18  1  0
M  CHG  1   6  -1
M  END
>  <PDB_ID>  (682) 
pdb1n0l

>  <RESIDUE_NAME>  (682) 
GLU   LEU

>  <FRAG_NAME>  (682) 
ACET   PRPA

>  <FRAG_ATOM_NUM>  (682) 
fragi: 7  fragj: 11

>  <atom.prop.CHAIN_ID>  (682) 
A A A A A A A Z Z Z Z Z Z Z Z Z Z Z

>  <atom.prop.IS_HEAVY_ATOM>  (682) 
1 0 0 0 1 1 1 1 0 0 0 1 0 0 1 0 0 0

>  <DIFUSE_FUNC_ATOM>  (682) 
atom 6   atom 7   

>  <FINAL_SINGLE_POINT_ENERGY>  (682) 
0

>  <NONCOV_INTER_ENERGY_QM>  (682) 
0

>  <FF_Energy>  (682) 
29.36

>  <QM_Energy>  (682) 
1.32

>  <source>  (682) 
ACET_PRPA_06

>  <Index>  (682) 
26021

$$$$
ACET-pdb1m5h-C-ASP-2017:PRPA-pdb1m5h-C-LYS-2288
     RDKit          3D

 18 16  0  0  0  0  0  0  0  0999 V2000
    0.0017    1.5219    0.0117 C   0  0  0  0  0  0  0  0  0  0  0  0
   -0.7296    1.8463   -0.5767 H   0  0  0  0  0  0  0  0  0  0  0  0
    0.8816    1.8435   -0.3157 H   0  0  0  0  0  0  0  0  0  0  0  0
   -0.1585    1.9397    1.0057 H   0  0  0  0  0  0  0  0  0  0  0  0
    0.0000    0.0000    0.0000 C   0  0  0  0  0  0  0  0  0  0  0  0
   -1.0888   -0.6008    0.0000 O   0  0  0  0  0  1  0  0  0  0  0  0
    1.0888   -0.5997    0.0000 O   0  0  0  0  0  0  0  0  0  0  0  0
   -3.7052   -2.9877    0.6496 C   0  0  0  0  0  0  0  0  0  0  0  0
   -4.2911   -2.6422   -0.0946 H   0  0  0  0  0  0  0  0  0  0  0  0
   -3.2837   -2.1951    1.1098 H   0  0  0  0  0  0  0  0  0  0  0  0
   -4.3457   -3.4921    1.3730 H   0  0  0  0  0  0  0  0  0  0  0  0
   -2.5975   -3.8231    0.0332 C   0  0  0  0  0  0  0  0  0  0  0  0
   -1.9377   -4.0640    0.7317 H   0  0  0  0  0  0  0  0  0  0  0  0
   -2.9861   -4.6342   -0.3826 H   0  0  0  0  0  0  0  0  0  0  0  0
   -1.8851   -3.0081   -1.0540 C   0  0  0  0  0  0  0  0  0  0  0  0
   -2.5068   -2.9072   -1.8333 H   0  0  0  0  0  0  0  0  0  0  0  0
   -1.6725   -2.1018   -0.6837 H   0  0  0  0  0  0  0  0  0  0  0  0
   -0.9596   -3.4627   -1.4075 H   0  0  0  0  0  0  0  0  0  0  0  0
  1  5  1  0
  5  6  1  0
  5  7  2  0
  1  2  1  0
  1  3  1  0
  1  4  1  0
  8 12  1  0
 12 15  1  0
  8  9  1  0
  8 10  1  0
  8 11  1  0
 12 13  1  0
 12 14  1  0
 15 16  1  0
 15 17  1  0
 15 18  1  0
M  CHG  1   6  -1
M  END
>  <PDB_ID>  (683) 
pdb1m5h

>  <RESIDUE_NAME>  (683) 
ASP   LYS

>  <FRAG_NAME>  (683) 
ACET   PRPA

>  <FRAG_ATOM_NUM>  (683) 
fragi: 7  fragj: 11

>  <atom.prop.CHAIN_ID>  (683) 
A A A A A A A Z Z Z Z Z Z Z Z Z Z Z

>  <atom.prop.IS_HEAVY_ATOM>  (683) 
1 0 0 0 1 1 1 1 0 0 0 1 0 0 1 0 0 0

>  <DIFUSE_FUNC_ATOM>  (683) 
atom 6   atom 7   

>  <FINAL_SINGLE_POINT_ENERGY>  (683) 
0

>  <NONCOV_INTER_ENERGY_QM>  (683) 
0

>  <FF_Energy>  (683) 
38.98

>  <QM_Energy>  (683) 
0.57

>  <source>  (683) 
ACET_PRPA_06

>  <Index>  (683) 
26231

$$$$
ACET-pdb1m5h-C-ASP-2017:PRPA-pdb1m5h-C-LYS-2288
     RDKit          3D

 18 16  0  0  0  0  0  0  0  0999 V2000
    0.0017    1.5219    0.0117 C   0  0  0  0  0  0  0  0  0  0  0  0
   -0.7296    1.8463   -0.5767 H   0  0  0  0  0  0  0  0  0  0  0  0
    0.8816    1.8435   -0.3157 H   0  0  0  0  0  0  0  0  0  0  0  0
   -0.1585    1.9397    1.0057 H   0  0  0  0  0  0  0  0  0  0  0  0
    0.0000    0.0000    0.0000 C   0  0  0  0  0  0  0  0  0  0  0  0
   -1.0888   -0.6008    0.0000 O   0  0  0  0  0  1  0  0  0  0  0  0
    1.0888   -0.5997    0.0000 O   0  0  0  0  0  0  0  0  0  0  0  0
   -2.5975   -3.8231    0.0332 C   0  0  0  0  0  0  0  0  0  0  0  0
   -1.9377   -4.0640    0.7317 H   0  0  0  0  0  0  0  0  0  0  0  0
   -2.9861   -4.6342   -0.3826 H   0  0  0  0  0  0  0  0  0  0  0  0
   -3.3928   -3.2233    0.4757 H   0  0  0  0  0  0  0  0  0  0  0  0
   -1.8851   -3.0081   -1.0540 C   0  0  0  0  0  0  0  0  0  0  0  0
   -2.5068   -2.9072   -1.8333 H   0  0  0  0  0  0  0  0  0  0  0  0
   -1.6725   -2.1018   -0.6837 H   0  0  0  0  0  0  0  0  0  0  0  0
   -0.5884   -3.6450   -1.5493 C   0  0  0  0  0  0  0  0  0  0  0  0
   -0.1190   -2.9899   -2.1544 H   0  0  0  0  0  0  0  0  0  0  0  0
    0.0077   -3.8220   -0.7554 H   0  0  0  0  0  0  0  0  0  0  0  0
   -0.7509   -4.5779   -2.0889 H   0  0  0  0  0  0  0  0  0  0  0  0
  1  5  1  0
  5  6  1  0
  5  7  2  0
  1  2  1  0
  1  3  1  0
  1  4  1  0
  8 12  1  0
 12 15  1  0
  8  9  1  0
  8 10  1  0
  8 11  1  0
 12 13  1  0
 12 14  1  0
 15 16  1  0
 15 17  1  0
 15 18  1  0
M  CHG  1   6  -1
M  END
>  <PDB_ID>  (684) 
pdb1m5h

>  <RESIDUE_NAME>  (684) 
ASP   LYS

>  <FRAG_NAME>  (684) 
ACET   PRPA

>  <FRAG_ATOM_NUM>  (684) 
fragi: 7  fragj: 11

>  <atom.prop.CHAIN_ID>  (684) 
A A A A A A A Z Z Z Z Z Z Z Z Z Z Z

>  <atom.prop.IS_HEAVY_ATOM>  (684) 
1 0 0 0 1 1 1 1 0 0 0 1 0 0 1 0 0 0

>  <DIFUSE_FUNC_ATOM>  (684) 
atom 6   atom 7   

>  <FINAL_SINGLE_POINT_ENERGY>  (684) 
0

>  <NONCOV_INTER_ENERGY_QM>  (684) 
0

>  <FF_Energy>  (684) 
24.69

>  <QM_Energy>  (684) 
-0.14

>  <source>  (684) 
ACET_PRPA_06

>  <Index>  (684) 
26233

$$$$
ACET-pdb1m3u-F-GLU-15:PRPA-pdb1m3u-F-LYS-11
     RDKit          3D

 18 16  0  0  0  0  0  0  0  0999 V2000
   -0.0040    1.5248    0.0034 C   0  0  0  0  0  0  0  0  0  0  0  0
    0.6774    1.8208   -0.6277 H   0  0  0  0  0  0  0  0  0  0  0  0
    0.1556    1.8153    0.9197 H   0  0  0  0  0  0  0  0  0  0  0  0
   -0.9696    1.9120   -0.3218 H   0  0  0  0  0  0  0  0  0  0  0  0
    0.0000    0.0000    0.0000 C   0  0  0  0  0  0  0  0  0  0  0  0
   -1.1109   -0.6094   -0.0000 O   0  0  0  0  0  1  0  0  0  0  0  0
    1.1109   -0.5946    0.0000 O   0  0  0  0  0  0  0  0  0  0  0  0
    1.8844   -0.0774    3.5181 C   0  0  0  0  0  0  0  0  0  0  0  0
    1.1543    0.1456    2.8723 H   0  0  0  0  0  0  0  0  0  0  0  0
    2.6813    0.4962    3.3347 H   0  0  0  0  0  0  0  0  0  0  0  0
    1.5366    0.0919    4.5371 H   0  0  0  0  0  0  0  0  0  0  0  0
    2.2869   -1.5454    3.3001 C   0  0  0  0  0  0  0  0  0  0  0  0
    3.0166   -1.7675    3.9449 H   0  0  0  0  0  0  0  0  0  0  0  0
    1.4893   -2.1182    3.4815 H   0  0  0  0  0  0  0  0  0  0  0  0
    2.7733   -1.8070    1.8954 C   0  0  0  0  0  0  0  0  0  0  0  0
    2.0447   -1.5831    1.2479 H   0  0  0  0  0  0  0  0  0  0  0  0
    3.5708   -1.2335    1.7107 H   0  0  0  0  0  0  0  0  0  0  0  0
    3.0490   -2.8550    1.7778 H   0  0  0  0  0  0  0  0  0  0  0  0
  1  5  1  0
  5  6  1  0
  5  7  2  0
  1  2  1  0
  1  3  1  0
  1  4  1  0
  8 12  1  0
 12 15  1  0
  8  9  1  0
  8 10  1  0
  8 11  1  0
 12 13  1  0
 12 14  1  0
 15 16  1  0
 15 17  1  0
 15 18  1  0
M  CHG  1   6  -1
M  END
>  <PDB_ID>  (685) 
pdb1m3u

>  <RESIDUE_NAME>  (685) 
GLU   LYS

>  <FRAG_NAME>  (685) 
ACET   PRPA

>  <FRAG_ATOM_NUM>  (685) 
fragi: 7  fragj: 11

>  <atom.prop.CHAIN_ID>  (685) 
A A A A A A A Z Z Z Z Z Z Z Z Z Z Z

>  <atom.prop.IS_HEAVY_ATOM>  (685) 
1 0 0 0 1 1 1 1 0 0 0 1 0 0 1 0 0 0

>  <DIFUSE_FUNC_ATOM>  (685) 
atom 6   atom 7   

>  <FINAL_SINGLE_POINT_ENERGY>  (685) 
0

>  <NONCOV_INTER_ENERGY_QM>  (685) 
0

>  <FF_Energy>  (685) 
19.98

>  <QM_Energy>  (685) 
-1.29

>  <source>  (685) 
ACET_PRPA_06

>  <Index>  (685) 
28303

$$$$
ACET-pdb1neu-A-ASP-61:PRPA-pdb1neu-A-ILE-50
     RDKit          3D

 18 16  0  0  0  0  0  0  0  0999 V2000
    0.0367    1.5152   -0.0174 C   0  0  0  0  0  0  0  0  0  0  0  0
    0.5279    1.8140   -0.8342 H   0  0  0  0  0  0  0  0  0  0  0  0
    0.5172    1.8344    0.7975 H   0  0  0  0  0  0  0  0  0  0  0  0
   -0.9470    1.9843   -0.0296 H   0  0  0  0  0  0  0  0  0  0  0  0
    0.0000    0.0000    0.0000 C   0  0  0  0  0  0  0  0  0  0  0  0
   -1.0952   -0.6002    0.0000 O   0  0  0  0  0  1  0  0  0  0  0  0
    1.0952   -0.5855   -0.0000 O   0  0  0  0  0  0  0  0  0  0  0  0
    1.8632   -1.1028   -2.5692 C   0  0  0  0  0  0  0  0  0  0  0  0
    1.8506   -0.5801   -1.7041 H   0  0  0  0  0  0  0  0  0  0  0  0
    2.1937   -2.1093   -2.3124 H   0  0  0  0  0  0  0  0  0  0  0  0
    0.8463   -1.0681   -2.9601 H   0  0  0  0  0  0  0  0  0  0  0  0
    2.8175   -0.4235   -3.5737 C   0  0  0  0  0  0  0  0  0  0  0  0
    2.5718    0.5393   -3.6274 H   0  0  0  0  0  0  0  0  0  0  0  0
    3.8412   -0.5004   -3.2073 H   0  0  0  0  0  0  0  0  0  0  0  0
    2.6577   -1.0310   -4.9753 C   0  0  0  0  0  0  0  0  0  0  0  0
    2.8952   -2.0006   -4.9311 H   0  0  0  0  0  0  0  0  0  0  0  0
    1.6978   -0.9502   -5.2463 H   0  0  0  0  0  0  0  0  0  0  0  0
    3.2687   -0.5612   -5.7460 H   0  0  0  0  0  0  0  0  0  0  0  0
  1  5  1  0
  5  6  1  0
  5  7  2  0
  1  2  1  0
  1  3  1  0
  1  4  1  0
  8 12  1  0
 12 15  1  0
  8  9  1  0
  8 10  1  0
  8 11  1  0
 12 13  1  0
 12 14  1  0
 15 16  1  0
 15 17  1  0
 15 18  1  0
M  CHG  1   6  -1
M  END
>  <PDB_ID>  (686) 
pdb1neu

>  <RESIDUE_NAME>  (686) 
ASP   ILE

>  <FRAG_NAME>  (686) 
ACET   PRPA

>  <FRAG_ATOM_NUM>  (686) 
fragi: 7  fragj: 11

>  <atom.prop.CHAIN_ID>  (686) 
A A A A A A A Z Z Z Z Z Z Z Z Z Z Z

>  <atom.prop.IS_HEAVY_ATOM>  (686) 
1 0 0 0 1 1 1 1 0 0 0 1 0 0 1 0 0 0

>  <DIFUSE_FUNC_ATOM>  (686) 
atom 6   atom 7   

>  <FINAL_SINGLE_POINT_ENERGY>  (686) 
0

>  <NONCOV_INTER_ENERGY_QM>  (686) 
0

>  <FF_Energy>  (686) 
18.66

>  <QM_Energy>  (686) 
1.04

>  <source>  (686) 
ACET_PRPA_06

>  <Index>  (686) 
29750

$$$$
ACET-pdb1neu-A-ASP-61:PRPA-pdb1neu-A-ILE-50
     RDKit          3D

 18 16  0  0  0  0  0  0  0  0999 V2000
    0.0367    1.5152   -0.0174 C   0  0  0  0  0  0  0  0  0  0  0  0
    0.5279    1.8140   -0.8342 H   0  0  0  0  0  0  0  0  0  0  0  0
    0.5172    1.8344    0.7975 H   0  0  0  0  0  0  0  0  0  0  0  0
   -0.9470    1.9843   -0.0296 H   0  0  0  0  0  0  0  0  0  0  0  0
    0.0000    0.0000    0.0000 C   0  0  0  0  0  0  0  0  0  0  0  0
   -1.0952   -0.6002    0.0000 O   0  0  0  0  0  1  0  0  0  0  0  0
    1.0952   -0.5855   -0.0000 O   0  0  0  0  0  0  0  0  0  0  0  0
    1.8632   -1.1028   -2.5692 C   0  0  0  0  0  0  0  0  0  0  0  0
    1.8506   -0.5801   -1.7041 H   0  0  0  0  0  0  0  0  0  0  0  0
    2.1937   -2.1093   -2.3124 H   0  0  0  0  0  0  0  0  0  0  0  0
    0.8463   -1.0681   -2.9601 H   0  0  0  0  0  0  0  0  0  0  0  0
    2.8175   -0.4235   -3.5737 C   0  0  0  0  0  0  0  0  0  0  0  0
    2.5718    0.5393   -3.6274 H   0  0  0  0  0  0  0  0  0  0  0  0
    2.7041   -0.8546   -4.5683 H   0  0  0  0  0  0  0  0  0  0  0  0
    4.2969   -0.5345   -3.0443 C   0  0  0  0  0  0  0  0  0  0  0  0
    4.8857   -0.0472   -3.6741 H   0  0  0  0  0  0  0  0  0  0  0  0
    4.3315   -0.1276   -2.1425 H   0  0  0  0  0  0  0  0  0  0  0  0
    4.5384   -1.4935   -3.0073 H   0  0  0  0  0  0  0  0  0  0  0  0
  1  5  1  0
  5  6  1  0
  5  7  2  0
  1  2  1  0
  1  3  1  0
  1  4  1  0
  8 12  1  0
 12 15  1  0
  8  9  1  0
  8 10  1  0
  8 11  1  0
 12 13  1  0
 12 14  1  0
 15 16  1  0
 15 17  1  0
 15 18  1  0
M  CHG  1   6  -1
M  END
>  <PDB_ID>  (687) 
pdb1neu

>  <RESIDUE_NAME>  (687) 
ASP   ILE

>  <FRAG_NAME>  (687) 
ACET   PRPA

>  <FRAG_ATOM_NUM>  (687) 
fragi: 7  fragj: 11

>  <atom.prop.CHAIN_ID>  (687) 
A A A A A A A Z Z Z Z Z Z Z Z Z Z Z

>  <atom.prop.IS_HEAVY_ATOM>  (687) 
1 0 0 0 1 1 1 1 0 0 0 1 0 0 1 0 0 0

>  <DIFUSE_FUNC_ATOM>  (687) 
atom 6   atom 7   

>  <FINAL_SINGLE_POINT_ENERGY>  (687) 
0

>  <NONCOV_INTER_ENERGY_QM>  (687) 
0

>  <FF_Energy>  (687) 
18.79

>  <QM_Energy>  (687) 
1.07

>  <source>  (687) 
ACET_PRPA_06

>  <Index>  (687) 
29760

$$$$
ACET-pdb1nd1-A-GLU-83:PRPA-pdb1nd1-A-ARG-120
     RDKit          3D

 18 16  0  0  0  0  0  0  0  0999 V2000
    0.0016    1.5115    0.0026 C   0  0  0  0  0  0  0  0  0  0  0  0
    0.6554    1.8105    0.6749 H   0  0  0  0  0  0  0  0  0  0  0  0
   -0.9110    1.8132    0.2163 H   0  0  0  0  0  0  0  0  0  0  0  0
    0.2842    1.9439   -0.9573 H   0  0  0  0  0  0  0  0  0  0  0  0
    0.0000    0.0000    0.0000 C   0  0  0  0  0  0  0  0  0  0  0  0
   -1.0956   -0.5960   -0.0000 O   0  0  0  0  0  1  0  0  0  0  0  0
    1.0956   -0.5894    0.0000 O   0  0  0  0  0  0  0  0  0  0  0  0
    0.4502   -1.4991   -4.0769 C   0  0  0  0  0  0  0  0  0  0  0  0
   -0.1747   -1.7767   -3.3603 H   0  0  0  0  0  0  0  0  0  0  0  0
    0.6511   -2.2561   -4.6835 H   0  0  0  0  0  0  0  0  0  0  0  0
   -0.0196   -0.7052   -4.6576 H   0  0  0  0  0  0  0  0  0  0  0  0
    1.7038   -1.0288   -3.4648 C   0  0  0  0  0  0  0  0  0  0  0  0
    2.4807   -1.3277   -4.0045 H   0  0  0  0  0  0  0  0  0  0  0  0
    1.6934   -0.0398   -3.3825 H   0  0  0  0  0  0  0  0  0  0  0  0
    1.7959   -1.6193   -2.1248 C   0  0  0  0  0  0  0  0  0  0  0  0
    2.0870   -0.9208   -1.4766 H   0  0  0  0  0  0  0  0  0  0  0  0
    0.9034   -1.9776   -1.8623 H   0  0  0  0  0  0  0  0  0  0  0  0
    2.5214   -2.4328   -2.1214 H   0  0  0  0  0  0  0  0  0  0  0  0
  1  5  1  0
  5  6  1  0
  5  7  2  0
  1  2  1  0
  1  3  1  0
  1  4  1  0
  8 12  1  0
 12 15  1  0
  8  9  1  0
  8 10  1  0
  8 11  1  0
 12 13  1  0
 12 14  1  0
 15 16  1  0
 15 17  1  0
 15 18  1  0
M  CHG  1   6  -1
M  END
>  <PDB_ID>  (688) 
pdb1nd1

>  <RESIDUE_NAME>  (688) 
GLU   ARG

>  <FRAG_NAME>  (688) 
ACET   PRPA

>  <FRAG_ATOM_NUM>  (688) 
fragi: 7  fragj: 11

>  <atom.prop.CHAIN_ID>  (688) 
A A A A A A A Z Z Z Z Z Z Z Z Z Z Z

>  <atom.prop.IS_HEAVY_ATOM>  (688) 
1 0 0 0 1 1 1 1 0 0 0 1 0 0 1 0 0 0

>  <DIFUSE_FUNC_ATOM>  (688) 
atom 6   atom 7   

>  <FINAL_SINGLE_POINT_ENERGY>  (688) 
0

>  <NONCOV_INTER_ENERGY_QM>  (688) 
0

>  <FF_Energy>  (688) 
37.12

>  <QM_Energy>  (688) 
7.0

>  <source>  (688) 
ACET_PRPA_06

>  <Index>  (688) 
30308

$$$$
ACET-pdb1nf1-A-ASP-1217:PRPA-pdb1nf1-A-ARG-1250
     RDKit          3D

 18 16  0  0  0  0  0  0  0  0999 V2000
    0.0366    1.5156   -0.0184 C   0  0  0  0  0  0  0  0  0  0  0  0
    0.5279    1.8150   -0.8354 H   0  0  0  0  0  0  0  0  0  0  0  0
    0.5179    1.8352    0.7969 H   0  0  0  0  0  0  0  0  0  0  0  0
   -0.9470    1.9851   -0.0310 H   0  0  0  0  0  0  0  0  0  0  0  0
    0.0000    0.0000    0.0000 C   0  0  0  0  0  0  0  0  0  0  0  0
   -1.0954   -0.5994    0.0000 O   0  0  0  0  0  1  0  0  0  0  0  0
    1.0954   -0.5849   -0.0000 O   0  0  0  0  0  0  0  0  0  0  0  0
    4.3085   -1.4251    3.0164 C   0  0  0  0  0  0  0  0  0  0  0  0
    5.2032   -1.4737    2.5445 H   0  0  0  0  0  0  0  0  0  0  0  0
    3.9410   -2.4399    3.1684 H   0  0  0  0  0  0  0  0  0  0  0  0
    4.4395   -0.8826    3.9526 H   0  0  0  0  0  0  0  0  0  0  0  0
    3.3650   -0.6442    2.0924 C   0  0  0  0  0  0  0  0  0  0  0  0
    2.4264   -0.8773    2.3375 H   0  0  0  0  0  0  0  0  0  0  0  0
    3.5215    0.3297    2.2383 H   0  0  0  0  0  0  0  0  0  0  0  0
    3.5486   -0.9325    0.6051 C   0  0  0  0  0  0  0  0  0  0  0  0
    3.4756   -1.9134    0.4476 H   0  0  0  0  0  0  0  0  0  0  0  0
    2.8490   -0.4492    0.0869 H   0  0  0  0  0  0  0  0  0  0  0  0
    4.5245   -0.6010    0.2504 H   0  0  0  0  0  0  0  0  0  0  0  0
  1  5  1  0
  5  6  1  0
  5  7  2  0
  1  2  1  0
  1  3  1  0
  1  4  1  0
  8 12  1  0
 12 15  1  0
  8  9  1  0
  8 10  1  0
  8 11  1  0
 12 13  1  0
 12 14  1  0
 15 16  1  0
 15 17  1  0
 15 18  1  0
M  CHG  1   6  -1
M  END
>  <PDB_ID>  (689) 
pdb1nf1

>  <RESIDUE_NAME>  (689) 
ASP   ARG

>  <FRAG_NAME>  (689) 
ACET   PRPA

>  <FRAG_ATOM_NUM>  (689) 
fragi: 7  fragj: 11

>  <atom.prop.CHAIN_ID>  (689) 
A A A A A A A Z Z Z Z Z Z Z Z Z Z Z

>  <atom.prop.IS_HEAVY_ATOM>  (689) 
1 0 0 0 1 1 1 1 0 0 0 1 0 0 1 0 0 0

>  <DIFUSE_FUNC_ATOM>  (689) 
atom 6   atom 7   

>  <FINAL_SINGLE_POINT_ENERGY>  (689) 
0

>  <NONCOV_INTER_ENERGY_QM>  (689) 
0

>  <FF_Energy>  (689) 
41.62

>  <QM_Energy>  (689) 
3.3

>  <source>  (689) 
ACET_PRPA_06

>  <Index>  (689) 
30695

$$$$
ACET-pdb1nf1-A-ASP-1217:PRPA-pdb1nf1-A-ARG-1250
     RDKit          3D

 18 16  0  0  0  0  0  0  0  0999 V2000
    0.0366    1.5156   -0.0184 C   0  0  0  0  0  0  0  0  0  0  0  0
    0.5279    1.8150   -0.8354 H   0  0  0  0  0  0  0  0  0  0  0  0
    0.5179    1.8352    0.7969 H   0  0  0  0  0  0  0  0  0  0  0  0
   -0.9470    1.9851   -0.0310 H   0  0  0  0  0  0  0  0  0  0  0  0
    0.0000    0.0000    0.0000 C   0  0  0  0  0  0  0  0  0  0  0  0
   -1.0954   -0.5994    0.0000 O   0  0  0  0  0  1  0  0  0  0  0  0
    1.0954   -0.5849   -0.0000 O   0  0  0  0  0  0  0  0  0  0  0  0
    3.3650   -0.6442    2.0924 C   0  0  0  0  0  0  0  0  0  0  0  0
    2.4264   -0.8773    2.3375 H   0  0  0  0  0  0  0  0  0  0  0  0
    3.5215    0.3297    2.2383 H   0  0  0  0  0  0  0  0  0  0  0  0
    4.0354   -1.1990    2.7488 H   0  0  0  0  0  0  0  0  0  0  0  0
    3.5486   -0.9325    0.6051 C   0  0  0  0  0  0  0  0  0  0  0  0
    3.4756   -1.9134    0.4476 H   0  0  0  0  0  0  0  0  0  0  0  0
    2.8490   -0.4492    0.0869 H   0  0  0  0  0  0  0  0  0  0  0  0
    4.9106   -0.4698    0.1100 C   0  0  0  0  0  0  0  0  0  0  0  0
    5.1896    0.3118    0.6588 H   0  0  0  0  0  0  0  0  0  0  0  0
    5.5527   -1.2210    0.2270 H   0  0  0  0  0  0  0  0  0  0  0  0
    4.8785   -0.1809   -0.9405 H   0  0  0  0  0  0  0  0  0  0  0  0
  1  5  1  0
  5  6  1  0
  5  7  2  0
  1  2  1  0
  1  3  1  0
  1  4  1  0
  8 12  1  0
 12 15  1  0
  8  9  1  0
  8 10  1  0
  8 11  1  0
 12 13  1  0
 12 14  1  0
 15 16  1  0
 15 17  1  0
 15 18  1  0
M  CHG  1   6  -1
M  END
>  <PDB_ID>  (690) 
pdb1nf1

>  <RESIDUE_NAME>  (690) 
ASP   ARG

>  <FRAG_NAME>  (690) 
ACET   PRPA

>  <FRAG_ATOM_NUM>  (690) 
fragi: 7  fragj: 11

>  <atom.prop.CHAIN_ID>  (690) 
A A A A A A A Z Z Z Z Z Z Z Z Z Z Z

>  <atom.prop.IS_HEAVY_ATOM>  (690) 
1 0 0 0 1 1 1 1 0 0 0 1 0 0 1 0 0 0

>  <DIFUSE_FUNC_ATOM>  (690) 
atom 6   atom 7   

>  <FINAL_SINGLE_POINT_ENERGY>  (690) 
0

>  <NONCOV_INTER_ENERGY_QM>  (690) 
0

>  <FF_Energy>  (690) 
14.38

>  <QM_Energy>  (690) 
3.8

>  <source>  (690) 
ACET_PRPA_06

>  <Index>  (690) 
30697

$$$$
ACET-pdb1nd4-A-ASP-33:PRPA-pdb1nd4-A-LEU-53
     RDKit          3D

 18 16  0  0  0  0  0  0  0  0999 V2000
    0.0069    1.5078    0.0165 C   0  0  0  0  0  0  0  0  0  0  0  0
   -0.6443    1.8414   -0.6567 H   0  0  0  0  0  0  0  0  0  0  0  0
    0.9224    1.8295   -0.1974 H   0  0  0  0  0  0  0  0  0  0  0  0
   -0.2750    1.9162    0.9870 H   0  0  0  0  0  0  0  0  0  0  0  0
    0.0000    0.0000    0.0000 C   0  0  0  0  0  0  0  0  0  0  0  0
   -1.1019   -0.5946    0.0000 O   0  0  0  0  0  1  0  0  0  0  0  0
    1.1019   -0.5869   -0.0000 O   0  0  0  0  0  0  0  0  0  0  0  0
    2.6931   -3.7467   -0.3232 C   0  0  0  0  0  0  0  0  0  0  0  0
    2.1268   -4.4780    0.0576 H   0  0  0  0  0  0  0  0  0  0  0  0
    2.8335   -2.9783    0.4370 H   0  0  0  0  0  0  0  0  0  0  0  0
    3.6624   -4.1659   -0.5932 H   0  0  0  0  0  0  0  0  0  0  0  0
    1.9990   -3.1640   -1.5586 C   0  0  0  0  0  0  0  0  0  0  0  0
    2.4411   -2.3096   -1.7822 H   0  0  0  0  0  0  0  0  0  0  0  0
    2.0796   -3.8190   -2.2920 H   0  0  0  0  0  0  0  0  0  0  0  0
    0.5076   -2.8736   -1.3614 C   0  0  0  0  0  0  0  0  0  0  0  0
    0.3998   -2.2343   -0.6048 H   0  0  0  0  0  0  0  0  0  0  0  0
    0.0909   -2.4366   -2.2689 H   0  0  0  0  0  0  0  0  0  0  0  0
   -0.0169   -3.7915   -1.0960 H   0  0  0  0  0  0  0  0  0  0  0  0
  1  5  1  0
  5  6  1  0
  5  7  2  0
  1  2  1  0
  1  3  1  0
  1  4  1  0
  8 12  1  0
 12 15  1  0
  8  9  1  0
  8 10  1  0
  8 11  1  0
 12 13  1  0
 12 14  1  0
 15 16  1  0
 15 17  1  0
 15 18  1  0
M  CHG  1   6  -1
M  END
>  <PDB_ID>  (691) 
pdb1nd4

>  <RESIDUE_NAME>  (691) 
ASP   LEU

>  <FRAG_NAME>  (691) 
ACET   PRPA

>  <FRAG_ATOM_NUM>  (691) 
fragi: 7  fragj: 11

>  <atom.prop.CHAIN_ID>  (691) 
A A A A A A A Z Z Z Z Z Z Z Z Z Z Z

>  <atom.prop.IS_HEAVY_ATOM>  (691) 
1 0 0 0 1 1 1 1 0 0 0 1 0 0 1 0 0 0

>  <DIFUSE_FUNC_ATOM>  (691) 
atom 6   atom 7   

>  <FINAL_SINGLE_POINT_ENERGY>  (691) 
0

>  <NONCOV_INTER_ENERGY_QM>  (691) 
0

>  <FF_Energy>  (691) 
21.02

>  <QM_Energy>  (691) 
0.19

>  <source>  (691) 
ACET_PRPA_06

>  <Index>  (691) 
30771

$$$$
ACET-pdb1nd4-A-ASP-33:PRPA-pdb1nd4-A-LEU-53
     RDKit          3D

 18 16  0  0  0  0  0  0  0  0999 V2000
    0.0069    1.5078    0.0165 C   0  0  0  0  0  0  0  0  0  0  0  0
   -0.6443    1.8414   -0.6567 H   0  0  0  0  0  0  0  0  0  0  0  0
    0.9224    1.8295   -0.1974 H   0  0  0  0  0  0  0  0  0  0  0  0
   -0.2750    1.9162    0.9870 H   0  0  0  0  0  0  0  0  0  0  0  0
    0.0000    0.0000    0.0000 C   0  0  0  0  0  0  0  0  0  0  0  0
   -1.1019   -0.5946    0.0000 O   0  0  0  0  0  1  0  0  0  0  0  0
    1.1019   -0.5869   -0.0000 O   0  0  0  0  0  0  0  0  0  0  0  0
    1.9990   -3.1640   -1.5586 C   0  0  0  0  0  0  0  0  0  0  0  0
    2.4411   -2.3096   -1.7822 H   0  0  0  0  0  0  0  0  0  0  0  0
    2.0796   -3.8190   -2.2920 H   0  0  0  0  0  0  0  0  0  0  0  0
    2.4928   -3.5786   -0.6797 H   0  0  0  0  0  0  0  0  0  0  0  0
    0.5076   -2.8736   -1.3614 C   0  0  0  0  0  0  0  0  0  0  0  0
    0.3998   -2.2343   -0.6048 H   0  0  0  0  0  0  0  0  0  0  0  0
   -0.0169   -3.7915   -1.0960 H   0  0  0  0  0  0  0  0  0  0  0  0
   -0.0740   -2.2637   -2.6280 C   0  0  0  0  0  0  0  0  0  0  0  0
    0.0387   -2.9030   -3.3893 H   0  0  0  0  0  0  0  0  0  0  0  0
   -1.0479   -2.0761   -2.4931 H   0  0  0  0  0  0  0  0  0  0  0  0
    0.4028   -1.4093   -2.8376 H   0  0  0  0  0  0  0  0  0  0  0  0
  1  5  1  0
  5  6  1  0
  5  7  2  0
  1  2  1  0
  1  3  1  0
  1  4  1  0
  8 12  1  0
 12 15  1  0
  8  9  1  0
  8 10  1  0
  8 11  1  0
 12 13  1  0
 12 14  1  0
 15 16  1  0
 15 17  1  0
 15 18  1  0
M  CHG  1   6  -1
M  END
>  <PDB_ID>  (692) 
pdb1nd4

>  <RESIDUE_NAME>  (692) 
ASP   LEU

>  <FRAG_NAME>  (692) 
ACET   PRPA

>  <FRAG_ATOM_NUM>  (692) 
fragi: 7  fragj: 11

>  <atom.prop.CHAIN_ID>  (692) 
A A A A A A A Z Z Z Z Z Z Z Z Z Z Z

>  <atom.prop.IS_HEAVY_ATOM>  (692) 
1 0 0 0 1 1 1 1 0 0 0 1 0 0 1 0 0 0

>  <DIFUSE_FUNC_ATOM>  (692) 
atom 6   atom 7   

>  <FINAL_SINGLE_POINT_ENERGY>  (692) 
0

>  <NONCOV_INTER_ENERGY_QM>  (692) 
0

>  <FF_Energy>  (692) 
23.73

>  <QM_Energy>  (692) 
-0.73

>  <source>  (692) 
ACET_PRPA_06

>  <Index>  (692) 
30775

$$$$
ACET-pdb1nd4-A-ASP-33:PRPA-pdb1nd4-A-LEU-53
     RDKit          3D

 18 16  0  0  0  0  0  0  0  0999 V2000
    0.0069    1.5078    0.0165 C   0  0  0  0  0  0  0  0  0  0  0  0
   -0.6443    1.8414   -0.6567 H   0  0  0  0  0  0  0  0  0  0  0  0
    0.9224    1.8295   -0.1974 H   0  0  0  0  0  0  0  0  0  0  0  0
   -0.2750    1.9162    0.9870 H   0  0  0  0  0  0  0  0  0  0  0  0
    0.0000    0.0000    0.0000 C   0  0  0  0  0  0  0  0  0  0  0  0
   -1.1019   -0.5946    0.0000 O   0  0  0  0  0  1  0  0  0  0  0  0
    1.1019   -0.5869   -0.0000 O   0  0  0  0  0  0  0  0  0  0  0  0
    1.9990   -3.1640   -1.5586 C   0  0  0  0  0  0  0  0  0  0  0  0
    2.4411   -2.3096   -1.7822 H   0  0  0  0  0  0  0  0  0  0  0  0
    2.0796   -3.8190   -2.2920 H   0  0  0  0  0  0  0  0  0  0  0  0
    2.4928   -3.5786   -0.6797 H   0  0  0  0  0  0  0  0  0  0  0  0
    0.5076   -2.8736   -1.3614 C   0  0  0  0  0  0  0  0  0  0  0  0
    0.3998   -2.2343   -0.6048 H   0  0  0  0  0  0  0  0  0  0  0  0
    0.0909   -2.4366   -2.2689 H   0  0  0  0  0  0  0  0  0  0  0  0
   -0.2243   -4.1545   -0.9910 C   0  0  0  0  0  0  0  0  0  0  0  0
    0.1551   -4.5234   -0.1414 H   0  0  0  0  0  0  0  0  0  0  0  0
   -1.1975   -3.9599   -0.8637 H   0  0  0  0  0  0  0  0  0  0  0  0
   -0.1131   -4.8275   -1.7236 H   0  0  0  0  0  0  0  0  0  0  0  0
  1  5  1  0
  5  6  1  0
  5  7  2  0
  1  2  1  0
  1  3  1  0
  1  4  1  0
  8 12  1  0
 12 15  1  0
  8  9  1  0
  8 10  1  0
  8 11  1  0
 12 13  1  0
 12 14  1  0
 15 16  1  0
 15 17  1  0
 15 18  1  0
M  CHG  1   6  -1
M  END
>  <PDB_ID>  (693) 
pdb1nd4

>  <RESIDUE_NAME>  (693) 
ASP   LEU

>  <FRAG_NAME>  (693) 
ACET   PRPA

>  <FRAG_ATOM_NUM>  (693) 
fragi: 7  fragj: 11

>  <atom.prop.CHAIN_ID>  (693) 
A A A A A A A Z Z Z Z Z Z Z Z Z Z Z

>  <atom.prop.IS_HEAVY_ATOM>  (693) 
1 0 0 0 1 1 1 1 0 0 0 1 0 0 1 0 0 0

>  <DIFUSE_FUNC_ATOM>  (693) 
atom 6   atom 7   

>  <FINAL_SINGLE_POINT_ENERGY>  (693) 
0

>  <NONCOV_INTER_ENERGY_QM>  (693) 
0

>  <FF_Energy>  (693) 
49.39

>  <QM_Energy>  (693) 
0.58

>  <source>  (693) 
ACET_PRPA_06

>  <Index>  (693) 
30780

$$$$
ACET-pdb1nd4-A-ASP-33:PRPA-pdb1nd4-A-LEU-53
     RDKit          3D

 18 16  0  0  0  0  0  0  0  0999 V2000
    0.0069    1.5078    0.0165 C   0  0  0  0  0  0  0  0  0  0  0  0
   -0.6443    1.8414   -0.6567 H   0  0  0  0  0  0  0  0  0  0  0  0
    0.9224    1.8295   -0.1974 H   0  0  0  0  0  0  0  0  0  0  0  0
   -0.2750    1.9162    0.9870 H   0  0  0  0  0  0  0  0  0  0  0  0
    0.0000    0.0000    0.0000 C   0  0  0  0  0  0  0  0  0  0  0  0
   -1.1019   -0.5946    0.0000 O   0  0  0  0  0  1  0  0  0  0  0  0
    1.1019   -0.5869   -0.0000 O   0  0  0  0  0  0  0  0  0  0  0  0
   -0.0740   -2.2637   -2.6280 C   0  0  0  0  0  0  0  0  0  0  0  0
    0.0387   -2.9030   -3.3893 H   0  0  0  0  0  0  0  0  0  0  0  0
   -1.0479   -2.0761   -2.4931 H   0  0  0  0  0  0  0  0  0  0  0  0
    0.4028   -1.4093   -2.8376 H   0  0  0  0  0  0  0  0  0  0  0  0
    0.5076   -2.8736   -1.3614 C   0  0  0  0  0  0  0  0  0  0  0  0
    0.3998   -2.2343   -0.6048 H   0  0  0  0  0  0  0  0  0  0  0  0
    1.5686   -3.0802   -1.5017 H   0  0  0  0  0  0  0  0  0  0  0  0
   -0.2243   -4.1545   -0.9910 C   0  0  0  0  0  0  0  0  0  0  0  0
    0.1551   -4.5234   -0.1414 H   0  0  0  0  0  0  0  0  0  0  0  0
   -1.1975   -3.9599   -0.8637 H   0  0  0  0  0  0  0  0  0  0  0  0
   -0.1131   -4.8275   -1.7236 H   0  0  0  0  0  0  0  0  0  0  0  0
  1  5  1  0
  5  6  1  0
  5  7  2  0
  1  2  1  0
  1  3  1  0
  1  4  1  0
  8 12  1  0
 12 15  1  0
  8  9  1  0
  8 10  1  0
  8 11  1  0
 12 13  1  0
 12 14  1  0
 15 16  1  0
 15 17  1  0
 15 18  1  0
M  CHG  1   6  -1
M  END
>  <PDB_ID>  (694) 
pdb1nd4

>  <RESIDUE_NAME>  (694) 
ASP   LEU

>  <FRAG_NAME>  (694) 
ACET   PRPA

>  <FRAG_ATOM_NUM>  (694) 
fragi: 7  fragj: 11

>  <atom.prop.CHAIN_ID>  (694) 
A A A A A A A Z Z Z Z Z Z Z Z Z Z Z

>  <atom.prop.IS_HEAVY_ATOM>  (694) 
1 0 0 0 1 1 1 1 0 0 0 1 0 0 1 0 0 0

>  <DIFUSE_FUNC_ATOM>  (694) 
atom 6   atom 7   

>  <FINAL_SINGLE_POINT_ENERGY>  (694) 
0

>  <NONCOV_INTER_ENERGY_QM>  (694) 
0

>  <FF_Energy>  (694) 
22.86

>  <QM_Energy>  (694) 
0.22

>  <source>  (694) 
ACET_PRPA_06

>  <Index>  (694) 
30786

$$$$
ACET-pdb1ndh-A-ASP-109:PRPA-pdb1ndh-A-LYS-106
     RDKit          3D

 18 16  0  0  0  0  0  0  0  0999 V2000
    0.0632    1.5219    0.0126 C   0  0  0  0  0  0  0  0  0  0  0  0
    0.7326    1.8079   -0.6772 H   0  0  0  0  0  0  0  0  0  0  0  0
    0.3821    1.8098    0.9171 H   0  0  0  0  0  0  0  0  0  0  0  0
   -0.8887    2.0096   -0.1973 H   0  0  0  0  0  0  0  0  0  0  0  0
    0.0000    0.0000    0.0000 C   0  0  0  0  0  0  0  0  0  0  0  0
   -1.0854   -0.6075   -0.0000 O   0  0  0  0  0  1  0  0  0  0  0  0
    1.0854   -0.6513    0.0000 O   0  0  0  0  0  0  0  0  0  0  0  0
    1.0787   -2.3869   -3.2866 C   0  0  0  0  0  0  0  0  0  0  0  0
    0.5890   -2.7249   -4.1019 H   0  0  0  0  0  0  0  0  0  0  0  0
    1.8485   -3.0147   -3.1049 H   0  0  0  0  0  0  0  0  0  0  0  0
    1.4817   -1.3987   -3.5082 H   0  0  0  0  0  0  0  0  0  0  0  0
    0.1238   -2.4712   -2.1055 C   0  0  0  0  0  0  0  0  0  0  0  0
    0.2534   -1.6906   -1.5134 H   0  0  0  0  0  0  0  0  0  0  0  0
   -0.8072   -2.5280   -2.4304 H   0  0  0  0  0  0  0  0  0  0  0  0
    0.4279   -3.7578   -1.2821 C   0  0  0  0  0  0  0  0  0  0  0  0
   -0.4270   -4.1799   -1.0454 H   0  0  0  0  0  0  0  0  0  0  0  0
    0.9979   -4.3444   -1.8271 H   0  0  0  0  0  0  0  0  0  0  0  0
    0.9599   -3.4925   -0.3685 H   0  0  0  0  0  0  0  0  0  0  0  0
  1  5  1  0
  5  6  1  0
  5  7  2  0
  1  2  1  0
  1  3  1  0
  1  4  1  0
  8 12  1  0
 12 15  1  0
  8  9  1  0
  8 10  1  0
  8 11  1  0
 12 13  1  0
 12 14  1  0
 15 16  1  0
 15 17  1  0
 15 18  1  0
M  CHG  1   6  -1
M  END
>  <PDB_ID>  (695) 
pdb1ndh

>  <RESIDUE_NAME>  (695) 
ASP   LYS

>  <FRAG_NAME>  (695) 
ACET   PRPA

>  <FRAG_ATOM_NUM>  (695) 
fragi: 7  fragj: 11

>  <atom.prop.CHAIN_ID>  (695) 
A A A A A A A Z Z Z Z Z Z Z Z Z Z Z

>  <atom.prop.IS_HEAVY_ATOM>  (695) 
1 0 0 0 1 1 1 1 0 0 0 1 0 0 1 0 0 0

>  <DIFUSE_FUNC_ATOM>  (695) 
atom 6   atom 7   

>  <FINAL_SINGLE_POINT_ENERGY>  (695) 
0

>  <NONCOV_INTER_ENERGY_QM>  (695) 
0

>  <FF_Energy>  (695) 
12.61

>  <QM_Energy>  (695) 
-2.46

>  <source>  (695) 
ACET_PRPA_06

>  <Index>  (695) 
30806

$$$$
ACET-pdb1ndh-A-ASP-109:PRPA-pdb1ndh-A-LYS-106
     RDKit          3D

 18 16  0  0  0  0  0  0  0  0999 V2000
    0.0632    1.5219    0.0126 C   0  0  0  0  0  0  0  0  0  0  0  0
    0.7326    1.8079   -0.6772 H   0  0  0  0  0  0  0  0  0  0  0  0
    0.3821    1.8098    0.9171 H   0  0  0  0  0  0  0  0  0  0  0  0
   -0.8887    2.0096   -0.1973 H   0  0  0  0  0  0  0  0  0  0  0  0
    0.0000    0.0000    0.0000 C   0  0  0  0  0  0  0  0  0  0  0  0
   -1.0854   -0.6075   -0.0000 O   0  0  0  0  0  1  0  0  0  0  0  0
    1.0854   -0.6513    0.0000 O   0  0  0  0  0  0  0  0  0  0  0  0
    0.1238   -2.4712   -2.1055 C   0  0  0  0  0  0  0  0  0  0  0  0
    0.2534   -1.6906   -1.5134 H   0  0  0  0  0  0  0  0  0  0  0  0
   -0.8072   -2.5280   -2.4304 H   0  0  0  0  0  0  0  0  0  0  0  0
    0.8081   -2.4108   -2.9518 H   0  0  0  0  0  0  0  0  0  0  0  0
    0.4279   -3.7578   -1.2821 C   0  0  0  0  0  0  0  0  0  0  0  0
   -0.4270   -4.1799   -1.0454 H   0  0  0  0  0  0  0  0  0  0  0  0
    0.9979   -4.3444   -1.8271 H   0  0  0  0  0  0  0  0  0  0  0  0
    1.1744   -3.3855    0.0000 C   0  0  0  0  0  0  0  0  0  0  0  0
    1.7618   -4.1460    0.2681 H   0  0  0  0  0  0  0  0  0  0  0  0
    1.7292   -2.5741   -0.1701 H   0  0  0  0  0  0  0  0  0  0  0  0
    0.4795   -3.1736    0.8126 H   0  0  0  0  0  0  0  0  0  0  0  0
  1  5  1  0
  5  6  1  0
  5  7  2  0
  1  2  1  0
  1  3  1  0
  1  4  1  0
  8 12  1  0
 12 15  1  0
  8  9  1  0
  8 10  1  0
  8 11  1  0
 12 13  1  0
 12 14  1  0
 15 16  1  0
 15 17  1  0
 15 18  1  0
M  CHG  1   6  -1
M  END
>  <PDB_ID>  (696) 
pdb1ndh

>  <RESIDUE_NAME>  (696) 
ASP   LYS

>  <FRAG_NAME>  (696) 
ACET   PRPA

>  <FRAG_ATOM_NUM>  (696) 
fragi: 7  fragj: 11

>  <atom.prop.CHAIN_ID>  (696) 
A A A A A A A Z Z Z Z Z Z Z Z Z Z Z

>  <atom.prop.IS_HEAVY_ATOM>  (696) 
1 0 0 0 1 1 1 1 0 0 0 1 0 0 1 0 0 0

>  <DIFUSE_FUNC_ATOM>  (696) 
atom 6   atom 7   

>  <FINAL_SINGLE_POINT_ENERGY>  (696) 
0

>  <NONCOV_INTER_ENERGY_QM>  (696) 
0

>  <FF_Energy>  (696) 
20.01

>  <QM_Energy>  (696) 
1.15

>  <source>  (696) 
ACET_PRPA_06

>  <Index>  (696) 
30812

$$$$
ACET-pdb2qvp-A-GLU-94:PRPA-pdb2qvp-A-LYS-97
     RDKit          3D

 18 16  0  0  0  0  0  0  0  0999 V2000
    0.0486    1.5545    0.0253 C   0  0  0  0  0  0  0  0  0  0  0  0
    0.7229    1.8307   -0.6421 H   0  0  0  0  0  0  0  0  0  0  0  0
    0.3177    1.8165    0.9393 H   0  0  0  0  0  0  0  0  0  0  0  0
   -0.8890    2.0573   -0.2120 H   0  0  0  0  0  0  0  0  0  0  0  0
    0.0000    0.0000    0.0000 C   0  0  0  0  0  0  0  0  0  0  0  0
   -1.0974   -0.6178   -0.0000 O   0  0  0  0  0  1  0  0  0  0  0  0
    1.0974   -0.6085    0.0000 O   0  0  0  0  0  0  0  0  0  0  0  0
   -3.7593   -1.9074   -2.2700 C   0  0  0  0  0  0  0  0  0  0  0  0
   -3.7943   -2.6604   -2.9334 H   0  0  0  0  0  0  0  0  0  0  0  0
   -3.3761   -1.0963   -2.7191 H   0  0  0  0  0  0  0  0  0  0  0  0
   -4.7802   -1.6765   -1.9657 H   0  0  0  0  0  0  0  0  0  0  0  0
   -2.9022   -2.2960   -1.1106 C   0  0  0  0  0  0  0  0  0  0  0  0
   -2.8761   -1.5406   -0.4481 H   0  0  0  0  0  0  0  0  0  0  0  0
   -3.2938   -3.1057   -0.6622 H   0  0  0  0  0  0  0  0  0  0  0  0
   -1.4785   -2.6206   -1.5116 C   0  0  0  0  0  0  0  0  0  0  0  0
   -1.4873   -3.3813   -2.1625 H   0  0  0  0  0  0  0  0  0  0  0  0
   -1.0701   -1.8176   -1.9483 H   0  0  0  0  0  0  0  0  0  0  0  0
   -0.8807   -2.8993   -0.6440 H   0  0  0  0  0  0  0  0  0  0  0  0
  1  5  1  0
  5  6  1  0
  5  7  2  0
  1  2  1  0
  1  3  1  0
  1  4  1  0
  8 12  1  0
 12 15  1  0
  8  9  1  0
  8 10  1  0
  8 11  1  0
 12 13  1  0
 12 14  1  0
 15 16  1  0
 15 17  1  0
 15 18  1  0
M  CHG  1   6  -1
M  END
>  <PDB_ID>  (697) 
pdb2qvp

>  <RESIDUE_NAME>  (697) 
GLU   LYS

>  <FRAG_NAME>  (697) 
ACET   PRPA

>  <FRAG_ATOM_NUM>  (697) 
fragi: 7  fragj: 11

>  <atom.prop.CHAIN_ID>  (697) 
A A A A A A A Z Z Z Z Z Z Z Z Z Z Z

>  <atom.prop.IS_HEAVY_ATOM>  (697) 
1 0 0 0 1 1 1 1 0 0 0 1 0 0 1 0 0 0

>  <DIFUSE_FUNC_ATOM>  (697) 
atom 6   atom 7   

>  <FINAL_SINGLE_POINT_ENERGY>  (697) 
0

>  <NONCOV_INTER_ENERGY_QM>  (697) 
0

>  <FF_Energy>  (697) 
18.53

>  <QM_Energy>  (697) 
2.21

>  <source>  (697) 
ACET_PRPA_06

>  <Index>  (697) 
31066

$$$$
ACET-pdb2r0j-A-ASP-79:PRPA-pdb2r0j-A-ARG-83
     RDKit          3D

 18 16  0  0  0  0  0  0  0  0999 V2000
    0.0248    1.5761    0.0321 C   0  0  0  0  0  0  0  0  0  0  0  0
    0.4986    1.8871   -0.7709 H   0  0  0  0  0  0  0  0  0  0  0  0
    0.4737    1.8549    0.8611 H   0  0  0  0  0  0  0  0  0  0  0  0
   -0.9736    2.0133    0.0249 H   0  0  0  0  0  0  0  0  0  0  0  0
    0.0000    0.0000    0.0000 C   0  0  0  0  0  0  0  0  0  0  0  0
   -1.0661   -0.5983   -0.0000 O   0  0  0  0  0  1  0  0  0  0  0  0
    1.0661   -0.6109    0.0000 O   0  0  0  0  0  0  0  0  0  0  0  0
   -1.8090   -2.0411    3.1477 C   0  0  0  0  0  0  0  0  0  0  0  0
   -2.1438   -2.8652    3.6370 H   0  0  0  0  0  0  0  0  0  0  0  0
   -2.4759   -1.8343    2.3107 H   0  0  0  0  0  0  0  0  0  0  0  0
   -1.7487   -1.2233    3.8658 H   0  0  0  0  0  0  0  0  0  0  0  0
   -0.4040   -2.4538    2.6209 C   0  0  0  0  0  0  0  0  0  0  0  0
   -0.0437   -3.1468    3.2425 H   0  0  0  0  0  0  0  0  0  0  0  0
   -0.5292   -2.8483    1.7129 H   0  0  0  0  0  0  0  0  0  0  0  0
    0.6057   -1.3256    2.5202 C   0  0  0  0  0  0  0  0  0  0  0  0
    0.2520   -0.6264    1.8978 H   0  0  0  0  0  0  0  0  0  0  0  0
    0.7383   -0.9258    3.4268 H   0  0  0  0  0  0  0  0  0  0  0  0
    1.5657   -1.6812    2.1460 H   0  0  0  0  0  0  0  0  0  0  0  0
  1  5  1  0
  5  6  1  0
  5  7  2  0
  1  2  1  0
  1  3  1  0
  1  4  1  0
  8 12  1  0
 12 15  1  0
  8  9  1  0
  8 10  1  0
  8 11  1  0
 12 13  1  0
 12 14  1  0
 15 16  1  0
 15 17  1  0
 15 18  1  0
M  CHG  1   6  -1
M  END
>  <PDB_ID>  (698) 
pdb2r0j

>  <RESIDUE_NAME>  (698) 
ASP   ARG

>  <FRAG_NAME>  (698) 
ACET   PRPA

>  <FRAG_ATOM_NUM>  (698) 
fragi: 7  fragj: 11

>  <atom.prop.CHAIN_ID>  (698) 
A A A A A A A Z Z Z Z Z Z Z Z Z Z Z

>  <atom.prop.IS_HEAVY_ATOM>  (698) 
1 0 0 0 1 1 1 1 0 0 0 1 0 0 1 0 0 0

>  <DIFUSE_FUNC_ATOM>  (698) 
atom 6   atom 7   

>  <FINAL_SINGLE_POINT_ENERGY>  (698) 
0

>  <NONCOV_INTER_ENERGY_QM>  (698) 
0

>  <FF_Energy>  (698) 
29.2

>  <QM_Energy>  (698) 
3.56

>  <source>  (698) 
ACET_PRPA_06

>  <Index>  (698) 
31416

$$$$
ACET-pdb2r0j-A-ASP-79:PRPA-pdb2r0j-A-ARG-83
     RDKit          3D

 18 16  0  0  0  0  0  0  0  0999 V2000
    0.0248    1.5761    0.0321 C   0  0  0  0  0  0  0  0  0  0  0  0
    0.4986    1.8871   -0.7709 H   0  0  0  0  0  0  0  0  0  0  0  0
    0.4737    1.8549    0.8611 H   0  0  0  0  0  0  0  0  0  0  0  0
   -0.9736    2.0133    0.0249 H   0  0  0  0  0  0  0  0  0  0  0  0
    0.0000    0.0000    0.0000 C   0  0  0  0  0  0  0  0  0  0  0  0
   -1.0661   -0.5983   -0.0000 O   0  0  0  0  0  1  0  0  0  0  0  0
    1.0661   -0.6109    0.0000 O   0  0  0  0  0  0  0  0  0  0  0  0
   -0.4040   -2.4538    2.6209 C   0  0  0  0  0  0  0  0  0  0  0  0
   -0.0437   -3.1468    3.2425 H   0  0  0  0  0  0  0  0  0  0  0  0
   -0.5292   -2.8483    1.7129 H   0  0  0  0  0  0  0  0  0  0  0  0
   -1.3881   -2.1647    2.9899 H   0  0  0  0  0  0  0  0  0  0  0  0
    0.6057   -1.3256    2.5202 C   0  0  0  0  0  0  0  0  0  0  0  0
    0.2520   -0.6264    1.8978 H   0  0  0  0  0  0  0  0  0  0  0  0
    0.7383   -0.9258    3.4268 H   0  0  0  0  0  0  0  0  0  0  0  0
    1.9154   -1.8108    2.0097 C   0  0  0  0  0  0  0  0  0  0  0  0
    2.2684   -2.5080    2.6328 H   0  0  0  0  0  0  0  0  0  0  0  0
    1.7815   -2.2095    1.1029 H   0  0  0  0  0  0  0  0  0  0  0  0
    2.6466   -1.0059    1.9338 H   0  0  0  0  0  0  0  0  0  0  0  0
  1  5  1  0
  5  6  1  0
  5  7  2  0
  1  2  1  0
  1  3  1  0
  1  4  1  0
  8 12  1  0
 12 15  1  0
  8  9  1  0
  8 10  1  0
  8 11  1  0
 12 13  1  0
 12 14  1  0
 15 16  1  0
 15 17  1  0
 15 18  1  0
M  CHG  1   6  -1
M  END
>  <PDB_ID>  (699) 
pdb2r0j

>  <RESIDUE_NAME>  (699) 
ASP   ARG

>  <FRAG_NAME>  (699) 
ACET   PRPA

>  <FRAG_ATOM_NUM>  (699) 
fragi: 7  fragj: 11

>  <atom.prop.CHAIN_ID>  (699) 
A A A A A A A Z Z Z Z Z Z Z Z Z Z Z

>  <atom.prop.IS_HEAVY_ATOM>  (699) 
1 0 0 0 1 1 1 1 0 0 0 1 0 0 1 0 0 0

>  <DIFUSE_FUNC_ATOM>  (699) 
atom 6   atom 7   

>  <FINAL_SINGLE_POINT_ENERGY>  (699) 
0

>  <NONCOV_INTER_ENERGY_QM>  (699) 
0

>  <FF_Energy>  (699) 
34.96

>  <QM_Energy>  (699) 
6.45

>  <source>  (699) 
ACET_PRPA_06

>  <Index>  (699) 
31424

$$$$
ACET-pdb2qzc-A-ASP-100:PRPA-pdb2qzc-A-LYS-104
     RDKit          3D

 18 16  0  0  0  0  0  0  0  0999 V2000
   -0.0102    1.5245   -0.0176 C   0  0  0  0  0  0  0  0  0  0  0  0
   -0.4277    1.8290   -0.8632 H   0  0  0  0  0  0  0  0  0  0  0  0
    0.9238    1.8495    0.0509 H   0  0  0  0  0  0  0  0  0  0  0  0
   -0.5774    1.9495    0.8106 H   0  0  0  0  0  0  0  0  0  0  0  0
    0.0000    0.0000    0.0000 C   0  0  0  0  0  0  0  0  0  0  0  0
   -1.1076   -0.5973    0.0000 O   0  0  0  0  0  1  0  0  0  0  0  0
    1.1076   -0.5961   -0.0000 O   0  0  0  0  0  0  0  0  0  0  0  0
   -0.7911   -2.3884    3.1830 C   0  0  0  0  0  0  0  0  0  0  0  0
   -1.3991   -3.1527    3.3667 H   0  0  0  0  0  0  0  0  0  0  0  0
   -1.3089   -1.5876    2.9059 H   0  0  0  0  0  0  0  0  0  0  0  0
   -0.2614   -2.1477    4.1046 H   0  0  0  0  0  0  0  0  0  0  0  0
    0.1883   -2.7675    2.0886 C   0  0  0  0  0  0  0  0  0  0  0  0
    0.8014   -1.9987    1.9251 H   0  0  0  0  0  0  0  0  0  0  0  0
    0.7103   -3.5633    2.3844 H   0  0  0  0  0  0  0  0  0  0  0  0
   -0.5207   -3.1071    0.7954 C   0  0  0  0  0  0  0  0  0  0  0  0
   -1.1343   -3.8784    0.9486 H   0  0  0  0  0  0  0  0  0  0  0  0
   -1.0432   -2.3150    0.4888 H   0  0  0  0  0  0  0  0  0  0  0  0
    0.2039   -3.3752    0.0266 H   0  0  0  0  0  0  0  0  0  0  0  0
  1  5  1  0
  5  6  1  0
  5  7  2  0
  1  2  1  0
  1  3  1  0
  1  4  1  0
  8 12  1  0
 12 15  1  0
  8  9  1  0
  8 10  1  0
  8 11  1  0
 12 13  1  0
 12 14  1  0
 15 16  1  0
 15 17  1  0
 15 18  1  0
M  CHG  1   6  -1
M  END
>  <PDB_ID>  (700) 
pdb2qzc

>  <RESIDUE_NAME>  (700) 
ASP   LYS

>  <FRAG_NAME>  (700) 
ACET   PRPA

>  <FRAG_ATOM_NUM>  (700) 
fragi: 7  fragj: 11

>  <atom.prop.CHAIN_ID>  (700) 
A A A A A A A Z Z Z Z Z Z Z Z Z Z Z

>  <atom.prop.IS_HEAVY_ATOM>  (700) 
1 0 0 0 1 1 1 1 0 0 0 1 0 0 1 0 0 0

>  <DIFUSE_FUNC_ATOM>  (700) 
atom 6   atom 7   

>  <FINAL_SINGLE_POINT_ENERGY>  (700) 
0

>  <NONCOV_INTER_ENERGY_QM>  (700) 
0

>  <FF_Energy>  (700) 
33.84

>  <QM_Energy>  (700) 
1.1

>  <source>  (700) 
ACET_PRPA_06

>  <Index>  (700) 
31470

$$$$
ACET-pdb1nd7-A-GLU-794:PRPA-pdb1nd7-A-LYS-684
     RDKit          3D

 18 16  0  0  0  0  0  0  0  0999 V2000
    0.0015    1.5227    0.0076 C   0  0  0  0  0  0  0  0  0  0  0  0
   -0.5478    1.8200   -0.7496 H   0  0  0  0  0  0  0  0  0  0  0  0
    0.9354    1.8149   -0.0687 H   0  0  0  0  0  0  0  0  0  0  0  0
   -0.4191    1.9364    0.9242 H   0  0  0  0  0  0  0  0  0  0  0  0
    0.0000    0.0000    0.0000 C   0  0  0  0  0  0  0  0  0  0  0  0
   -1.0923   -0.6040   -0.0000 O   0  0  0  0  0  1  0  0  0  0  0  0
    1.0923   -0.5920    0.0000 O   0  0  0  0  0  0  0  0  0  0  0  0
   -0.4083    3.6781   -3.2601 C   0  0  0  0  0  0  0  0  0  0  0  0
   -1.2214    4.2492   -3.4261 H   0  0  0  0  0  0  0  0  0  0  0  0
    0.0864    3.5739   -4.1323 H   0  0  0  0  0  0  0  0  0  0  0  0
    0.2420    4.2177   -2.5716 H   0  0  0  0  0  0  0  0  0  0  0  0
   -0.8676    2.3131   -2.8058 C   0  0  0  0  0  0  0  0  0  0  0  0
   -0.0903    1.6931   -2.7831 H   0  0  0  0  0  0  0  0  0  0  0  0
   -1.2804    2.3848   -1.9039 H   0  0  0  0  0  0  0  0  0  0  0  0
   -1.9030    1.7656   -3.7778 C   0  0  0  0  0  0  0  0  0  0  0  0
   -2.7855    2.1835   -3.5735 H   0  0  0  0  0  0  0  0  0  0  0  0
   -1.6243    1.9985   -4.7068 H   0  0  0  0  0  0  0  0  0  0  0  0
   -2.0019    0.6828   -3.7021 H   0  0  0  0  0  0  0  0  0  0  0  0
  1  5  1  0
  5  6  1  0
  5  7  2  0
  1  2  1  0
  1  3  1  0
  1  4  1  0
  8 12  1  0
 12 15  1  0
  8  9  1  0
  8 10  1  0
  8 11  1  0
 12 13  1  0
 12 14  1  0
 15 16  1  0
 15 17  1  0
 15 18  1  0
M  CHG  1   6  -1
M  END
>  <PDB_ID>  (701) 
pdb1nd7

>  <RESIDUE_NAME>  (701) 
GLU   LYS

>  <FRAG_NAME>  (701) 
ACET   PRPA

>  <FRAG_ATOM_NUM>  (701) 
fragi: 7  fragj: 11

>  <atom.prop.CHAIN_ID>  (701) 
A A A A A A A Z Z Z Z Z Z Z Z Z Z Z

>  <atom.prop.IS_HEAVY_ATOM>  (701) 
1 0 0 0 1 1 1 1 0 0 0 1 0 0 1 0 0 0

>  <DIFUSE_FUNC_ATOM>  (701) 
atom 6   atom 7   

>  <FINAL_SINGLE_POINT_ENERGY>  (701) 
0

>  <NONCOV_INTER_ENERGY_QM>  (701) 
0

>  <FF_Energy>  (701) 
43.11

>  <QM_Energy>  (701) 
6.04

>  <source>  (701) 
ACET_PRPA_06

>  <Index>  (701) 
31484

$$$$
ACET-pdb2qyv-A-ASP-17:PRPA-pdb2qyv-A-GLN-5
     RDKit          3D

 18 16  0  0  0  0  0  0  0  0999 V2000
    0.0150    1.5170   -0.0179 C   0  0  0  0  0  0  0  0  0  0  0  0
   -0.0054    1.8271   -0.9621 H   0  0  0  0  0  0  0  0  0  0  0  0
    0.8403    1.8353    0.4335 H   0  0  0  0  0  0  0  0  0  0  0  0
   -0.8395    1.9565    0.4966 H   0  0  0  0  0  0  0  0  0  0  0  0
    0.0000    0.0000    0.0000 C   0  0  0  0  0  0  0  0  0  0  0  0
   -1.1019   -0.5967   -0.0000 O   0  0  0  0  0  1  0  0  0  0  0  0
    1.1019   -0.5933   -0.0000 O   0  0  0  0  0  0  0  0  0  0  0  0
    2.5633    0.1430   -3.5036 C   0  0  0  0  0  0  0  0  0  0  0  0
    2.0590    0.9881   -3.3140 H   0  0  0  0  0  0  0  0  0  0  0  0
    1.8590   -0.6827   -3.4031 H   0  0  0  0  0  0  0  0  0  0  0  0
    2.9537    0.2021   -4.5196 H   0  0  0  0  0  0  0  0  0  0  0  0
    3.7146   -0.0128   -2.4965 C   0  0  0  0  0  0  0  0  0  0  0  0
    4.1848   -0.8788   -2.6860 H   0  0  0  0  0  0  0  0  0  0  0  0
    4.3594    0.7443   -2.6346 H   0  0  0  0  0  0  0  0  0  0  0  0
    3.2791   -0.0119   -1.0489 C   0  0  0  0  0  0  0  0  0  0  0  0
    2.8127    0.8542   -0.8546 H   0  0  0  0  0  0  0  0  0  0  0  0
    2.6364   -0.7687   -0.9059 H   0  0  0  0  0  0  0  0  0  0  0  0
    4.1133   -0.1227   -0.3562 H   0  0  0  0  0  0  0  0  0  0  0  0
  1  5  1  0
  5  6  1  0
  5  7  2  0
  1  2  1  0
  1  3  1  0
  1  4  1  0
  8 12  1  0
 12 15  1  0
  8  9  1  0
  8 10  1  0
  8 11  1  0
 12 13  1  0
 12 14  1  0
 15 16  1  0
 15 17  1  0
 15 18  1  0
M  CHG  1   6  -1
M  END
>  <PDB_ID>  (702) 
pdb2qyv

>  <RESIDUE_NAME>  (702) 
ASP   GLN

>  <FRAG_NAME>  (702) 
ACET   PRPA

>  <FRAG_ATOM_NUM>  (702) 
fragi: 7  fragj: 11

>  <atom.prop.CHAIN_ID>  (702) 
A A A A A A A Z Z Z Z Z Z Z Z Z Z Z

>  <atom.prop.IS_HEAVY_ATOM>  (702) 
1 0 0 0 1 1 1 1 0 0 0 1 0 0 1 0 0 0

>  <DIFUSE_FUNC_ATOM>  (702) 
atom 6   atom 7   

>  <FINAL_SINGLE_POINT_ENERGY>  (702) 
0

>  <NONCOV_INTER_ENERGY_QM>  (702) 
0

>  <FF_Energy>  (702) 
38.51

>  <QM_Energy>  (702) 
7.94

>  <source>  (702) 
ACET_PRPA_06

>  <Index>  (702) 
32109

$$$$
ACET-pdb2r2p-A-GLU-678:PRPA-pdb2r2p-A-ARG-693
     RDKit          3D

 18 16  0  0  0  0  0  0  0  0999 V2000
    0.0219    1.5188    0.0193 C   0  0  0  0  0  0  0  0  0  0  0  0
    0.9647    1.8005   -0.0120 H   0  0  0  0  0  0  0  0  0  0  0  0
   -0.4225    1.8093    0.8486 H   0  0  0  0  0  0  0  0  0  0  0  0
   -0.4994    1.9667   -0.8267 H   0  0  0  0  0  0  0  0  0  0  0  0
    0.0000    0.0000    0.0000 C   0  0  0  0  0  0  0  0  0  0  0  0
   -1.0875   -0.6081   -0.0000 O   0  0  0  0  0  1  0  0  0  0  0  0
    1.0875   -0.5915    0.0000 O   0  0  0  0  0  0  0  0  0  0  0  0
    0.7614   -3.3958   -3.0725 C   0  0  0  0  0  0  0  0  0  0  0  0
   -0.0947   -3.2254   -2.5945 H   0  0  0  0  0  0  0  0  0  0  0  0
    0.9258   -4.3755   -3.1430 H   0  0  0  0  0  0  0  0  0  0  0  0
    0.6767   -2.9896   -4.0804 H   0  0  0  0  0  0  0  0  0  0  0  0
    1.8846   -2.7853   -2.2639 C   0  0  0  0  0  0  0  0  0  0  0  0
    2.7535   -3.1791   -2.5479 H   0  0  0  0  0  0  0  0  0  0  0  0
    1.8946   -1.7982   -2.3986 H   0  0  0  0  0  0  0  0  0  0  0  0
    1.6998   -3.0595   -0.7868 C   0  0  0  0  0  0  0  0  0  0  0  0
    1.2487   -2.2814   -0.3802 H   0  0  0  0  0  0  0  0  0  0  0  0
    1.1661   -3.8834   -0.6889 H   0  0  0  0  0  0  0  0  0  0  0  0
    2.6763   -3.1993   -0.3229 H   0  0  0  0  0  0  0  0  0  0  0  0
  1  5  1  0
  5  6  1  0
  5  7  2  0
  1  2  1  0
  1  3  1  0
  1  4  1  0
  8 12  1  0
 12 15  1  0
  8  9  1  0
  8 10  1  0
  8 11  1  0
 12 13  1  0
 12 14  1  0
 15 16  1  0
 15 17  1  0
 15 18  1  0
M  CHG  1   6  -1
M  END
>  <PDB_ID>  (703) 
pdb2r2p

>  <RESIDUE_NAME>  (703) 
GLU   ARG

>  <FRAG_NAME>  (703) 
ACET   PRPA

>  <FRAG_ATOM_NUM>  (703) 
fragi: 7  fragj: 11

>  <atom.prop.CHAIN_ID>  (703) 
A A A A A A A Z Z Z Z Z Z Z Z Z Z Z

>  <atom.prop.IS_HEAVY_ATOM>  (703) 
1 0 0 0 1 1 1 1 0 0 0 1 0 0 1 0 0 0

>  <DIFUSE_FUNC_ATOM>  (703) 
atom 6   atom 7   

>  <FINAL_SINGLE_POINT_ENERGY>  (703) 
0

>  <NONCOV_INTER_ENERGY_QM>  (703) 
0

>  <FF_Energy>  (703) 
44.24

>  <QM_Energy>  (703) 
1.22

>  <source>  (703) 
ACET_PRPA_06

>  <Index>  (703) 
32150

$$$$
ACET-pdb2r1h-A-GLU-26:PRPA-pdb2r1h-A-LYS-57
     RDKit          3D

 18 16  0  0  0  0  0  0  0  0999 V2000
   -0.0113    1.4409    0.0226 C   0  0  0  0  0  0  0  0  0  0  0  0
    0.9251    1.7583    0.0612 H   0  0  0  0  0  0  0  0  0  0  0  0
   -0.5212    1.7345    0.8181 H   0  0  0  0  0  0  0  0  0  0  0  0
   -0.4880    1.8267   -0.8785 H   0  0  0  0  0  0  0  0  0  0  0  0
    0.0000    0.0000    0.0000 C   0  0  0  0  0  0  0  0  0  0  0  0
   -1.1170   -0.5835   -0.0000 O   0  0  0  0  0  1  0  0  0  0  0  0
    1.1170   -0.5338   -0.0000 O   0  0  0  0  0  0  0  0  0  0  0  0
    0.1014    4.2125    2.4560 C   0  0  0  0  0  0  0  0  0  0  0  0
   -0.0603    3.8035    1.5447 H   0  0  0  0  0  0  0  0  0  0  0  0
    1.1106    3.9584    2.7801 H   0  0  0  0  0  0  0  0  0  0  0  0
   -0.0602    5.2879    2.3811 H   0  0  0  0  0  0  0  0  0  0  0  0
   -0.9646    3.5333    3.3355 C   0  0  0  0  0  0  0  0  0  0  0  0
   -0.6637    3.5622    4.2725 H   0  0  0  0  0  0  0  0  0  0  0  0
   -1.8212    4.0022    3.2086 H   0  0  0  0  0  0  0  0  0  0  0  0
   -1.1708    2.0471    2.9454 C   0  0  0  0  0  0  0  0  0  0  0  0
   -1.3958    2.0066    1.9555 H   0  0  0  0  0  0  0  0  0  0  0  0
   -0.2879    1.5603    3.0683 H   0  0  0  0  0  0  0  0  0  0  0  0
   -1.9411    1.5052    3.4940 H   0  0  0  0  0  0  0  0  0  0  0  0
  1  5  1  0
  5  6  1  0
  5  7  2  0
  1  2  1  0
  1  3  1  0
  1  4  1  0
  8 12  1  0
 12 15  1  0
  8  9  1  0
  8 10  1  0
  8 11  1  0
 12 13  1  0
 12 14  1  0
 15 16  1  0
 15 17  1  0
 15 18  1  0
M  CHG  1   6  -1
M  END
>  <PDB_ID>  (704) 
pdb2r1h

>  <RESIDUE_NAME>  (704) 
GLU   LYS

>  <FRAG_NAME>  (704) 
ACET   PRPA

>  <FRAG_ATOM_NUM>  (704) 
fragi: 7  fragj: 11

>  <atom.prop.CHAIN_ID>  (704) 
A A A A A A A Z Z Z Z Z Z Z Z Z Z Z

>  <atom.prop.IS_HEAVY_ATOM>  (704) 
1 0 0 0 1 1 1 1 0 0 0 1 0 0 1 0 0 0

>  <DIFUSE_FUNC_ATOM>  (704) 
atom 6   atom 7   

>  <FINAL_SINGLE_POINT_ENERGY>  (704) 
0

>  <NONCOV_INTER_ENERGY_QM>  (704) 
0

>  <FF_Energy>  (704) 
38.89

>  <QM_Energy>  (704) 
4.91

>  <source>  (704) 
ACET_PRPA_06

>  <Index>  (704) 
33125

$$$$
ACET-pdb2r1h-A-GLU-26:PRPA-pdb2r1h-A-LYS-57
     RDKit          3D

 18 16  0  0  0  0  0  0  0  0999 V2000
   -0.0113    1.4409    0.0226 C   0  0  0  0  0  0  0  0  0  0  0  0
    0.9251    1.7583    0.0612 H   0  0  0  0  0  0  0  0  0  0  0  0
   -0.5212    1.7345    0.8181 H   0  0  0  0  0  0  0  0  0  0  0  0
   -0.4880    1.8267   -0.8785 H   0  0  0  0  0  0  0  0  0  0  0  0
    0.0000    0.0000    0.0000 C   0  0  0  0  0  0  0  0  0  0  0  0
   -1.1170   -0.5835   -0.0000 O   0  0  0  0  0  1  0  0  0  0  0  0
    1.1170   -0.5338   -0.0000 O   0  0  0  0  0  0  0  0  0  0  0  0
   -0.9646    3.5333    3.3355 C   0  0  0  0  0  0  0  0  0  0  0  0
   -0.6637    3.5622    4.2725 H   0  0  0  0  0  0  0  0  0  0  0  0
   -1.8212    4.0022    3.2086 H   0  0  0  0  0  0  0  0  0  0  0  0
   -0.2100    4.0142    2.7130 H   0  0  0  0  0  0  0  0  0  0  0  0
   -1.1708    2.0471    2.9454 C   0  0  0  0  0  0  0  0  0  0  0  0
   -1.3958    2.0066    1.9555 H   0  0  0  0  0  0  0  0  0  0  0  0
   -0.2879    1.5603    3.0683 H   0  0  0  0  0  0  0  0  0  0  0  0
   -2.2614    1.2798    3.7221 C   0  0  0  0  0  0  0  0  0  0  0  0
   -1.9691    1.1481    4.6458 H   0  0  0  0  0  0  0  0  0  0  0  0
   -3.1099    1.7602    3.6500 H   0  0  0  0  0  0  0  0  0  0  0  0
   -2.3990    0.2956    3.2745 H   0  0  0  0  0  0  0  0  0  0  0  0
  1  5  1  0
  5  6  1  0
  5  7  2  0
  1  2  1  0
  1  3  1  0
  1  4  1  0
  8 12  1  0
 12 15  1  0
  8  9  1  0
  8 10  1  0
  8 11  1  0
 12 13  1  0
 12 14  1  0
 15 16  1  0
 15 17  1  0
 15 18  1  0
M  CHG  1   6  -1
M  END
>  <PDB_ID>  (705) 
pdb2r1h

>  <RESIDUE_NAME>  (705) 
GLU   LYS

>  <FRAG_NAME>  (705) 
ACET   PRPA

>  <FRAG_ATOM_NUM>  (705) 
fragi: 7  fragj: 11

>  <atom.prop.CHAIN_ID>  (705) 
A A A A A A A Z Z Z Z Z Z Z Z Z Z Z

>  <atom.prop.IS_HEAVY_ATOM>  (705) 
1 0 0 0 1 1 1 1 0 0 0 1 0 0 1 0 0 0

>  <DIFUSE_FUNC_ATOM>  (705) 
atom 6   atom 7   

>  <FINAL_SINGLE_POINT_ENERGY>  (705) 
0

>  <NONCOV_INTER_ENERGY_QM>  (705) 
0

>  <FF_Energy>  (705) 
43.7

>  <QM_Energy>  (705) 
4.22

>  <source>  (705) 
ACET_PRPA_06

>  <Index>  (705) 
33141

$$$$
ACET-pdb2r1h-A-GLU-26:PRPA-pdb2r1h-A-LYS-57
     RDKit          3D

 18 16  0  0  0  0  0  0  0  0999 V2000
   -0.0113    1.4409    0.0226 C   0  0  0  0  0  0  0  0  0  0  0  0
    0.9251    1.7583    0.0612 H   0  0  0  0  0  0  0  0  0  0  0  0
   -0.5212    1.7345    0.8181 H   0  0  0  0  0  0  0  0  0  0  0  0
   -0.4880    1.8267   -0.8785 H   0  0  0  0  0  0  0  0  0  0  0  0
    0.0000    0.0000    0.0000 C   0  0  0  0  0  0  0  0  0  0  0  0
   -1.1170   -0.5835   -0.0000 O   0  0  0  0  0  1  0  0  0  0  0  0
    1.1170   -0.5338   -0.0000 O   0  0  0  0  0  0  0  0  0  0  0  0
   -1.1708    2.0471    2.9454 C   0  0  0  0  0  0  0  0  0  0  0  0
   -1.3958    2.0066    1.9555 H   0  0  0  0  0  0  0  0  0  0  0  0
   -0.2879    1.5603    3.0683 H   0  0  0  0  0  0  0  0  0  0  0  0
   -1.0258    3.0921    3.2197 H   0  0  0  0  0  0  0  0  0  0  0  0
   -2.2614    1.2798    3.7221 C   0  0  0  0  0  0  0  0  0  0  0  0
   -1.9691    1.1481    4.6458 H   0  0  0  0  0  0  0  0  0  0  0  0
   -3.1099    1.7602    3.6500 H   0  0  0  0  0  0  0  0  0  0  0  0
   -2.4602   -0.1423    3.0754 C   0  0  0  0  0  0  0  0  0  0  0  0
   -2.2244   -0.0695    2.0996 H   0  0  0  0  0  0  0  0  0  0  0  0
   -1.8066   -0.7710    3.5134 H   0  0  0  0  0  0  0  0  0  0  0  0
   -3.4692   -0.5424    3.1749 H   0  0  0  0  0  0  0  0  0  0  0  0
  1  5  1  0
  5  6  1  0
  5  7  2  0
  1  2  1  0
  1  3  1  0
  1  4  1  0
  8 12  1  0
 12 15  1  0
  8  9  1  0
  8 10  1  0
  8 11  1  0
 12 13  1  0
 12 14  1  0
 15 16  1  0
 15 17  1  0
 15 18  1  0
M  CHG  1   6  -1
M  END
>  <PDB_ID>  (706) 
pdb2r1h

>  <RESIDUE_NAME>  (706) 
GLU   LYS

>  <FRAG_NAME>  (706) 
ACET   PRPA

>  <FRAG_ATOM_NUM>  (706) 
fragi: 7  fragj: 11

>  <atom.prop.CHAIN_ID>  (706) 
A A A A A A A Z Z Z Z Z Z Z Z Z Z Z

>  <atom.prop.IS_HEAVY_ATOM>  (706) 
1 0 0 0 1 1 1 1 0 0 0 1 0 0 1 0 0 0

>  <DIFUSE_FUNC_ATOM>  (706) 
atom 6   atom 7   

>  <FINAL_SINGLE_POINT_ENERGY>  (706) 
0

>  <NONCOV_INTER_ENERGY_QM>  (706) 
0

>  <FF_Energy>  (706) 
38.79

>  <QM_Energy>  (706) 
3.23

>  <source>  (706) 
ACET_PRPA_06

>  <Index>  (706) 
33151

$$$$
ACET-pdb1nij-A-ASP-79:PRPA-pdb1nij-A-ARG-53
     RDKit          3D

 18 16  0  0  0  0  0  0  0  0999 V2000
   -0.0900    1.4916   -0.0220 C   0  0  0  0  0  0  0  0  0  0  0  0
    0.5176    1.8451   -0.7215 H   0  0  0  0  0  0  0  0  0  0  0  0
    0.1569    1.8474    0.8697 H   0  0  0  0  0  0  0  0  0  0  0  0
   -1.1012    1.8273   -0.2518 H   0  0  0  0  0  0  0  0  0  0  0  0
    0.0000    0.0000    0.0000 C   0  0  0  0  0  0  0  0  0  0  0  0
   -1.0814   -0.6428   -0.0000 O   0  0  0  0  0  1  0  0  0  0  0  0
    1.0814   -0.6065   -0.0000 O   0  0  0  0  0  0  0  0  0  0  0  0
    1.4523   -3.7371    0.0889 C   0  0  0  0  0  0  0  0  0  0  0  0
    1.3135   -4.7441    0.0082 H   0  0  0  0  0  0  0  0  0  0  0  0
    0.9698   -3.3977    1.0055 H   0  0  0  0  0  0  0  0  0  0  0  0
    2.5208   -3.5233    0.0624 H   0  0  0  0  0  0  0  0  0  0  0  0
    0.7750   -3.1154   -1.1389 C   0  0  0  0  0  0  0  0  0  0  0  0
    0.8164   -2.1246   -1.0392 H   0  0  0  0  0  0  0  0  0  0  0  0
    1.2893   -3.3969   -1.9447 H   0  0  0  0  0  0  0  0  0  0  0  0
   -0.6545   -3.5231   -1.3137 C   0  0  0  0  0  0  0  0  0  0  0  0
   -0.7123   -4.4029   -1.7951 H   0  0  0  0  0  0  0  0  0  0  0  0
   -1.1046   -3.6153   -0.4195 H   0  0  0  0  0  0  0  0  0  0  0  0
   -1.2445   -2.8101   -1.8896 H   0  0  0  0  0  0  0  0  0  0  0  0
  1  5  1  0
  5  6  1  0
  5  7  2  0
  1  2  1  0
  1  3  1  0
  1  4  1  0
  8 12  1  0
 12 15  1  0
  8  9  1  0
  8 10  1  0
  8 11  1  0
 12 13  1  0
 12 14  1  0
 15 16  1  0
 15 17  1  0
 15 18  1  0
M  CHG  1   6  -1
M  END
>  <PDB_ID>  (707) 
pdb1nij

>  <RESIDUE_NAME>  (707) 
ASP   ARG

>  <FRAG_NAME>  (707) 
ACET   PRPA

>  <FRAG_ATOM_NUM>  (707) 
fragi: 7  fragj: 11

>  <atom.prop.CHAIN_ID>  (707) 
A A A A A A A Z Z Z Z Z Z Z Z Z Z Z

>  <atom.prop.IS_HEAVY_ATOM>  (707) 
1 0 0 0 1 1 1 1 0 0 0 1 0 0 1 0 0 0

>  <DIFUSE_FUNC_ATOM>  (707) 
atom 6   atom 7   

>  <FINAL_SINGLE_POINT_ENERGY>  (707) 
0

>  <NONCOV_INTER_ENERGY_QM>  (707) 
0

>  <FF_Energy>  (707) 
24.41

>  <QM_Energy>  (707) 
-0.87

>  <source>  (707) 
ACET_PRPA_06

>  <Index>  (707) 
33217

$$$$
ACET-pdb1nij-A-ASP-79:PRPA-pdb1nij-A-ARG-53
     RDKit          3D

 18 16  0  0  0  0  0  0  0  0999 V2000
   -0.0900    1.4916   -0.0220 C   0  0  0  0  0  0  0  0  0  0  0  0
    0.5176    1.8451   -0.7215 H   0  0  0  0  0  0  0  0  0  0  0  0
    0.1569    1.8474    0.8697 H   0  0  0  0  0  0  0  0  0  0  0  0
   -1.1012    1.8273   -0.2518 H   0  0  0  0  0  0  0  0  0  0  0  0
    0.0000    0.0000    0.0000 C   0  0  0  0  0  0  0  0  0  0  0  0
   -1.0814   -0.6428   -0.0000 O   0  0  0  0  0  1  0  0  0  0  0  0
    1.0814   -0.6065   -0.0000 O   0  0  0  0  0  0  0  0  0  0  0  0
    0.7750   -3.1154   -1.1389 C   0  0  0  0  0  0  0  0  0  0  0  0
    0.8164   -2.1246   -1.0392 H   0  0  0  0  0  0  0  0  0  0  0  0
    1.2893   -3.3969   -1.9447 H   0  0  0  0  0  0  0  0  0  0  0  0
    1.2563   -3.5572   -0.2664 H   0  0  0  0  0  0  0  0  0  0  0  0
   -0.6545   -3.5231   -1.3137 C   0  0  0  0  0  0  0  0  0  0  0  0
   -0.7123   -4.4029   -1.7951 H   0  0  0  0  0  0  0  0  0  0  0  0
   -1.1046   -3.6153   -0.4195 H   0  0  0  0  0  0  0  0  0  0  0  0
   -1.4950   -2.5073   -2.1341 C   0  0  0  0  0  0  0  0  0  0  0  0
   -1.4710   -1.6400   -1.6421 H   0  0  0  0  0  0  0  0  0  0  0  0
   -1.0497   -2.4069   -3.0210 H   0  0  0  0  0  0  0  0  0  0  0  0
   -2.5280   -2.8265   -2.2725 H   0  0  0  0  0  0  0  0  0  0  0  0
  1  5  1  0
  5  6  1  0
  5  7  2  0
  1  2  1  0
  1  3  1  0
  1  4  1  0
  8 12  1  0
 12 15  1  0
  8  9  1  0
  8 10  1  0
  8 11  1  0
 12 13  1  0
 12 14  1  0
 15 16  1  0
 15 17  1  0
 15 18  1  0
M  CHG  1   6  -1
M  END
>  <PDB_ID>  (708) 
pdb1nij

>  <RESIDUE_NAME>  (708) 
ASP   ARG

>  <FRAG_NAME>  (708) 
ACET   PRPA

>  <FRAG_ATOM_NUM>  (708) 
fragi: 7  fragj: 11

>  <atom.prop.CHAIN_ID>  (708) 
A A A A A A A Z Z Z Z Z Z Z Z Z Z Z

>  <atom.prop.IS_HEAVY_ATOM>  (708) 
1 0 0 0 1 1 1 1 0 0 0 1 0 0 1 0 0 0

>  <DIFUSE_FUNC_ATOM>  (708) 
atom 6   atom 7   

>  <FINAL_SINGLE_POINT_ENERGY>  (708) 
0

>  <NONCOV_INTER_ENERGY_QM>  (708) 
0

>  <FF_Energy>  (708) 
31.0

>  <QM_Energy>  (708) 
1.0

>  <source>  (708) 
ACET_PRPA_06

>  <Index>  (708) 
33218

$$$$
ACET-pdb1nf2-A-ASP-108:PRPA-pdb1nf2-A-VAL-46
     RDKit          3D

 18 16  0  0  0  0  0  0  0  0999 V2000
   -0.0062    1.5112   -0.0220 C   0  0  0  0  0  0  0  0  0  0  0  0
   -0.0082    1.8199   -0.9657 H   0  0  0  0  0  0  0  0  0  0  0  0
    0.7993    1.8443    0.4526 H   0  0  0  0  0  0  0  0  0  0  0  0
   -0.8835    1.9311    0.4699 H   0  0  0  0  0  0  0  0  0  0  0  0
    0.0000    0.0000    0.0000 C   0  0  0  0  0  0  0  0  0  0  0  0
   -1.0990   -0.5955    0.0000 O   0  0  0  0  0  1  0  0  0  0  0  0
    1.0990   -0.5899   -0.0000 O   0  0  0  0  0  0  0  0  0  0  0  0
    3.1517   -1.2983    1.7319 C   0  0  0  0  0  0  0  0  0  0  0  0
    3.2740   -0.5586    2.3981 H   0  0  0  0  0  0  0  0  0  0  0  0
    4.0444   -1.5381    1.3424 H   0  0  0  0  0  0  0  0  0  0  0  0
    2.5507   -0.9784    0.9962 H   0  0  0  0  0  0  0  0  0  0  0  0
    2.5452   -2.5003    2.4051 C   0  0  0  0  0  0  0  0  0  0  0  0
    3.1775   -2.8015    3.1090 H   0  0  0  0  0  0  0  0  0  0  0  0
    2.4486   -3.3146    1.6870 H   0  0  0  0  0  0  0  0  0  0  0  0
    1.1868   -2.1551    2.9976 C   0  0  0  0  0  0  0  0  0  0  0  0
    0.8513   -2.9325    3.5291 H   0  0  0  0  0  0  0  0  0  0  0  0
    1.2793   -1.3556    3.5916 H   0  0  0  0  0  0  0  0  0  0  0  0
    0.5455   -1.9518    2.2573 H   0  0  0  0  0  0  0  0  0  0  0  0
  1  5  1  0
  5  6  1  0
  5  7  2  0
  1  2  1  0
  1  3  1  0
  1  4  1  0
  8 12  1  0
 12 15  1  0
  8  9  1  0
  8 10  1  0
  8 11  1  0
 12 13  1  0
 12 14  1  0
 15 16  1  0
 15 17  1  0
 15 18  1  0
M  CHG  1   6  -1
M  END
>  <PDB_ID>  (709) 
pdb1nf2

>  <RESIDUE_NAME>  (709) 
ASP   VAL

>  <FRAG_NAME>  (709) 
ACET   PRPA

>  <FRAG_ATOM_NUM>  (709) 
fragi: 7  fragj: 11

>  <atom.prop.CHAIN_ID>  (709) 
A A A A A A A Z Z Z Z Z Z Z Z Z Z Z

>  <atom.prop.IS_HEAVY_ATOM>  (709) 
1 0 0 0 1 1 1 1 0 0 0 1 0 0 1 0 0 0

>  <DIFUSE_FUNC_ATOM>  (709) 
atom 6   atom 7   

>  <FINAL_SINGLE_POINT_ENERGY>  (709) 
0

>  <NONCOV_INTER_ENERGY_QM>  (709) 
0

>  <FF_Energy>  (709) 
26.95

>  <QM_Energy>  (709) 
-1.0

>  <source>  (709) 
ACET_PRPA_06

>  <Index>  (709) 
33441

$$$$
ACET-pdb1nij-A-ASP-131:PRPA-pdb1nij-A-LYS-159
     RDKit          3D

 18 16  0  0  0  0  0  0  0  0999 V2000
   -0.0136    1.5184    0.0146 C   0  0  0  0  0  0  0  0  0  0  0  0
    0.5513    1.8456   -0.7393 H   0  0  0  0  0  0  0  0  0  0  0  0
    0.3652    1.8287    0.8826 H   0  0  0  0  0  0  0  0  0  0  0  0
   -1.0129    1.9393   -0.0966 H   0  0  0  0  0  0  0  0  0  0  0  0
    0.0000    0.0000    0.0000 C   0  0  0  0  0  0  0  0  0  0  0  0
   -1.0701   -0.6573    0.0000 O   0  0  0  0  0  1  0  0  0  0  0  0
    1.0701   -0.6099   -0.0000 O   0  0  0  0  0  0  0  0  0  0  0  0
   -1.8799   -0.9235   -3.8476 C   0  0  0  0  0  0  0  0  0  0  0  0
   -1.6813   -1.4659   -4.6539 H   0  0  0  0  0  0  0  0  0  0  0  0
   -1.9142    0.0418   -4.0719 H   0  0  0  0  0  0  0  0  0  0  0  0
   -2.8488   -1.2269   -3.4511 H   0  0  0  0  0  0  0  0  0  0  0  0
   -0.7942   -1.1580   -2.8058 C   0  0  0  0  0  0  0  0  0  0  0  0
   -0.0262   -0.5528   -2.9928 H   0  0  0  0  0  0  0  0  0  0  0  0
   -1.1647   -0.9767   -1.9007 H   0  0  0  0  0  0  0  0  0  0  0  0
   -0.2735   -2.6096   -2.8257 C   0  0  0  0  0  0  0  0  0  0  0  0
   -1.0055   -3.2136   -2.5200 H   0  0  0  0  0  0  0  0  0  0  0  0
   -0.0118   -2.8406   -3.7607 H   0  0  0  0  0  0  0  0  0  0  0  0
    0.5892   -2.7276   -2.1702 H   0  0  0  0  0  0  0  0  0  0  0  0
  1  5  1  0
  5  6  1  0
  5  7  2  0
  1  2  1  0
  1  3  1  0
  1  4  1  0
  8 12  1  0
 12 15  1  0
  8  9  1  0
  8 10  1  0
  8 11  1  0
 12 13  1  0
 12 14  1  0
 15 16  1  0
 15 17  1  0
 15 18  1  0
M  CHG  1   6  -1
M  END
>  <PDB_ID>  (710) 
pdb1nij

>  <RESIDUE_NAME>  (710) 
ASP   LYS

>  <FRAG_NAME>  (710) 
ACET   PRPA

>  <FRAG_ATOM_NUM>  (710) 
fragi: 7  fragj: 11

>  <atom.prop.CHAIN_ID>  (710) 
A A A A A A A Z Z Z Z Z Z Z Z Z Z Z

>  <atom.prop.IS_HEAVY_ATOM>  (710) 
1 0 0 0 1 1 1 1 0 0 0 1 0 0 1 0 0 0

>  <DIFUSE_FUNC_ATOM>  (710) 
atom 6   atom 7   

>  <FINAL_SINGLE_POINT_ENERGY>  (710) 
0

>  <NONCOV_INTER_ENERGY_QM>  (710) 
0

>  <FF_Energy>  (710) 
14.44

>  <QM_Energy>  (710) 
-1.67

>  <source>  (710) 
ACET_PRPA_06

>  <Index>  (710) 
34229

$$$$
ACET-pdb1nqd-A-GLU-1003:PRPA-pdb1nqd-A-LYS-896
     RDKit          3D

 18 16  0  0  0  0  0  0  0  0999 V2000
   -0.0409    1.5178    0.0228 C   0  0  0  0  0  0  0  0  0  0  0  0
   -0.7490    1.7843    0.6612 H   0  0  0  0  0  0  0  0  0  0  0  0
   -0.2558    1.8209   -0.8952 H   0  0  0  0  0  0  0  0  0  0  0  0
    0.8925    1.9892    0.3307 H   0  0  0  0  0  0  0  0  0  0  0  0
    0.0000    0.0000    0.0000 C   0  0  0  0  0  0  0  0  0  0  0  0
   -1.0996   -0.5896    0.0000 O   0  0  0  0  0  1  0  0  0  0  0  0
    1.0996   -0.5906   -0.0000 O   0  0  0  0  0  0  0  0  0  0  0  0
   -2.3814   -1.9439    3.7277 C   0  0  0  0  0  0  0  0  0  0  0  0
   -2.6509   -2.8505    4.0497 H   0  0  0  0  0  0  0  0  0  0  0  0
   -3.1264   -1.5376    3.2027 H   0  0  0  0  0  0  0  0  0  0  0  0
   -2.1589   -1.3101    4.5861 H   0  0  0  0  0  0  0  0  0  0  0  0
   -1.1653   -2.0867    2.8241 C   0  0  0  0  0  0  0  0  0  0  0  0
   -0.7825   -1.1896    2.6558 H   0  0  0  0  0  0  0  0  0  0  0  0
   -0.5065   -2.6808    3.2626 H   0  0  0  0  0  0  0  0  0  0  0  0
   -1.5670   -2.7026    1.4927 C   0  0  0  0  0  0  0  0  0  0  0  0
   -1.8397   -1.9716    0.8654 H   0  0  0  0  0  0  0  0  0  0  0  0
   -0.7810   -3.1901    1.1087 H   0  0  0  0  0  0  0  0  0  0  0  0
   -2.3964   -3.3999    1.6106 H   0  0  0  0  0  0  0  0  0  0  0  0
  1  5  1  0
  5  6  1  0
  5  7  2  0
  1  2  1  0
  1  3  1  0
  1  4  1  0
  8 12  1  0
 12 15  1  0
  8  9  1  0
  8 10  1  0
  8 11  1  0
 12 13  1  0
 12 14  1  0
 15 16  1  0
 15 17  1  0
 15 18  1  0
M  CHG  1   6  -1
M  END
>  <PDB_ID>  (711) 
pdb1nqd

>  <RESIDUE_NAME>  (711) 
GLU   LYS

>  <FRAG_NAME>  (711) 
ACET   PRPA

>  <FRAG_ATOM_NUM>  (711) 
fragi: 7  fragj: 11

>  <atom.prop.CHAIN_ID>  (711) 
A A A A A A A Z Z Z Z Z Z Z Z Z Z Z

>  <atom.prop.IS_HEAVY_ATOM>  (711) 
1 0 0 0 1 1 1 1 0 0 0 1 0 0 1 0 0 0

>  <DIFUSE_FUNC_ATOM>  (711) 
atom 6   atom 7   

>  <FINAL_SINGLE_POINT_ENERGY>  (711) 
0

>  <NONCOV_INTER_ENERGY_QM>  (711) 
0

>  <FF_Energy>  (711) 
32.53

>  <QM_Energy>  (711) 
1.33

>  <source>  (711) 
ACET_PRPA_06

>  <Index>  (711) 
36658

$$$$
ACET-pdb2r8v-A-ASP-185:PRPA-pdb2r8v-A-GLN-188
     RDKit          3D

 18 16  0  0  0  0  0  0  0  0999 V2000
    0.0011    1.5079   -0.0761 C   0  0  0  0  0  0  0  0  0  0  0  0
    0.1665    1.8723    0.8282 H   0  0  0  0  0  0  0  0  0  0  0  0
   -0.8712    1.8099   -0.4305 H   0  0  0  0  0  0  0  0  0  0  0  0
    0.7873    1.8650   -0.7412 H   0  0  0  0  0  0  0  0  0  0  0  0
    0.0000    0.0000    0.0000 C   0  0  0  0  0  0  0  0  0  0  0  0
   -1.0849   -0.5935   -0.0000 O   0  0  0  0  0  1  0  0  0  0  0  0
    1.0849   -0.6176   -0.0000 O   0  0  0  0  0  0  0  0  0  0  0  0
   -3.0462   -1.3508   -2.9878 C   0  0  0  0  0  0  0  0  0  0  0  0
   -3.6851   -2.1601   -3.1507 H   0  0  0  0  0  0  0  0  0  0  0  0
   -2.0914   -1.7429   -2.6374 H   0  0  0  0  0  0  0  0  0  0  0  0
   -3.0815   -0.7451   -3.8933 H   0  0  0  0  0  0  0  0  0  0  0  0
   -3.8619   -0.7873   -1.8283 C   0  0  0  0  0  0  0  0  0  0  0  0
   -4.8137   -0.6384   -2.1519 H   0  0  0  0  0  0  0  0  0  0  0  0
   -3.9068   -1.4948   -1.0978 H   0  0  0  0  0  0  0  0  0  0  0  0
   -3.3707    0.4926   -1.2112 C   0  0  0  0  0  0  0  0  0  0  0  0
   -2.4418    0.3747   -0.8932 H   0  0  0  0  0  0  0  0  0  0  0  0
   -3.4342    1.2272   -1.8706 H   0  0  0  0  0  0  0  0  0  0  0  0
   -3.9878    0.7578   -0.3527 H   0  0  0  0  0  0  0  0  0  0  0  0
  1  5  1  0
  5  6  1  0
  5  7  2  0
  1  2  1  0
  1  3  1  0
  1  4  1  0
  8 12  1  0
 12 15  1  0
  8  9  1  0
  8 10  1  0
  8 11  1  0
 12 13  1  0
 12 14  1  0
 15 16  1  0
 15 17  1  0
 15 18  1  0
M  CHG  1   6  -1
M  END
>  <PDB_ID>  (712) 
pdb2r8v

>  <RESIDUE_NAME>  (712) 
ASP   GLN

>  <FRAG_NAME>  (712) 
ACET   PRPA

>  <FRAG_ATOM_NUM>  (712) 
fragi: 7  fragj: 11

>  <atom.prop.CHAIN_ID>  (712) 
A A A A A A A Z Z Z Z Z Z Z Z Z Z Z

>  <atom.prop.IS_HEAVY_ATOM>  (712) 
1 0 0 0 1 1 1 1 0 0 0 1 0 0 1 0 0 0

>  <DIFUSE_FUNC_ATOM>  (712) 
atom 6   atom 7   

>  <FINAL_SINGLE_POINT_ENERGY>  (712) 
0

>  <NONCOV_INTER_ENERGY_QM>  (712) 
0

>  <FF_Energy>  (712) 
16.49

>  <QM_Energy>  (712) 
-0.77

>  <source>  (712) 
ACET_PRPA_06

>  <Index>  (712) 
37433

$$$$
ACET-pdb1njf-A-ASP-158:PRPA-pdb1njf-A-LYS-161
     RDKit          3D

 18 16  0  0  0  0  0  0  0  0999 V2000
   -0.0203    1.5080   -0.0262 C   0  0  0  0  0  0  0  0  0  0  0  0
   -0.8514    1.8274    0.4182 H   0  0  0  0  0  0  0  0  0  0  0  0
    0.0038    1.8149   -0.9720 H   0  0  0  0  0  0  0  0  0  0  0  0
    0.8292    1.9522    0.4926 H   0  0  0  0  0  0  0  0  0  0  0  0
    0.0000    0.0000    0.0000 C   0  0  0  0  0  0  0  0  0  0  0  0
   -1.1015   -0.5900    0.0000 O   0  0  0  0  0  1  0  0  0  0  0  0
    1.1015   -0.6024   -0.0000 O   0  0  0  0  0  0  0  0  0  0  0  0
    0.8302   -0.0494   -3.9237 C   0  0  0  0  0  0  0  0  0  0  0  0
    1.0057    0.9196   -3.7410 H   0  0  0  0  0  0  0  0  0  0  0  0
    0.3289   -0.1338   -4.7883 H   0  0  0  0  0  0  0  0  0  0  0  0
    1.7926   -0.5462   -4.0461 H   0  0  0  0  0  0  0  0  0  0  0  0
   -0.0352   -0.5995   -2.8098 C   0  0  0  0  0  0  0  0  0  0  0  0
    0.5400   -0.7637   -1.9985 H   0  0  0  0  0  0  0  0  0  0  0  0
   -0.7338    0.0854   -2.5678 H   0  0  0  0  0  0  0  0  0  0  0  0
   -0.7296   -1.8942   -3.1836 C   0  0  0  0  0  0  0  0  0  0  0  0
   -0.0641   -2.5166   -3.5831 H   0  0  0  0  0  0  0  0  0  0  0  0
   -1.1325   -2.2959   -2.3683 H   0  0  0  0  0  0  0  0  0  0  0  0
   -1.5233   -1.7264   -3.9116 H   0  0  0  0  0  0  0  0  0  0  0  0
  1  5  1  0
  5  6  1  0
  5  7  2  0
  1  2  1  0
  1  3  1  0
  1  4  1  0
  8 12  1  0
 12 15  1  0
  8  9  1  0
  8 10  1  0
  8 11  1  0
 12 13  1  0
 12 14  1  0
 15 16  1  0
 15 17  1  0
 15 18  1  0
M  CHG  1   6  -1
M  END
>  <PDB_ID>  (713) 
pdb1njf

>  <RESIDUE_NAME>  (713) 
ASP   LYS

>  <FRAG_NAME>  (713) 
ACET   PRPA

>  <FRAG_ATOM_NUM>  (713) 
fragi: 7  fragj: 11

>  <atom.prop.CHAIN_ID>  (713) 
A A A A A A A Z Z Z Z Z Z Z Z Z Z Z

>  <atom.prop.IS_HEAVY_ATOM>  (713) 
1 0 0 0 1 1 1 1 0 0 0 1 0 0 1 0 0 0

>  <DIFUSE_FUNC_ATOM>  (713) 
atom 6   atom 7   

>  <FINAL_SINGLE_POINT_ENERGY>  (713) 
0

>  <NONCOV_INTER_ENERGY_QM>  (713) 
0

>  <FF_Energy>  (713) 
13.24

>  <QM_Energy>  (713) 
-1.81

>  <source>  (713) 
ACET_PRPA_06

>  <Index>  (713) 
37468

$$$$
ACET-pdb1nb4-B-GLU-464:PRPA-pdb1nb4-B-LEU-469
     RDKit          3D

 18 16  0  0  0  0  0  0  0  0999 V2000
   -0.0168    1.5334   -0.0087 C   0  0  0  0  0  0  0  0  0  0  0  0
   -0.5674    1.8241    0.7591 H   0  0  0  0  0  0  0  0  0  0  0  0
   -0.4197    1.8156   -0.8662 H   0  0  0  0  0  0  0  0  0  0  0  0
    0.9634    2.0022    0.0789 H   0  0  0  0  0  0  0  0  0  0  0  0
    0.0000    0.0000    0.0000 C   0  0  0  0  0  0  0  0  0  0  0  0
   -1.1133   -0.5891   -0.0000 O   0  0  0  0  0  1  0  0  0  0  0  0
    1.1133   -0.5911    0.0000 O   0  0  0  0  0  0  0  0  0  0  0  0
   -2.3777    1.7315   -4.6192 C   0  0  0  0  0  0  0  0  0  0  0  0
   -3.3219    1.6964   -4.3304 H   0  0  0  0  0  0  0  0  0  0  0  0
   -2.2924    1.6193   -5.5964 H   0  0  0  0  0  0  0  0  0  0  0  0
   -1.9903    2.7177   -4.3635 H   0  0  0  0  0  0  0  0  0  0  0  0
   -1.6453    0.5489   -3.9504 C   0  0  0  0  0  0  0  0  0  0  0  0
   -0.7082    0.5347   -4.2751 H   0  0  0  0  0  0  0  0  0  0  0  0
   -2.1142   -0.4046   -4.1934 H   0  0  0  0  0  0  0  0  0  0  0  0
   -1.6733    0.7446   -2.4547 C   0  0  0  0  0  0  0  0  0  0  0  0
   -2.6221    0.7786   -2.1335 H   0  0  0  0  0  0  0  0  0  0  0  0
   -1.2008   -0.0155   -2.0023 H   0  0  0  0  0  0  0  0  0  0  0  0
   -1.2155    1.6039   -2.2143 H   0  0  0  0  0  0  0  0  0  0  0  0
  1  5  1  0
  5  6  1  0
  5  7  2  0
  1  2  1  0
  1  3  1  0
  1  4  1  0
  8 12  1  0
 12 15  1  0
  8  9  1  0
  8 10  1  0
  8 11  1  0
 12 13  1  0
 12 14  1  0
 15 16  1  0
 15 17  1  0
 15 18  1  0
M  CHG  1   6  -1
M  END
>  <PDB_ID>  (714) 
pdb1nb4

>  <RESIDUE_NAME>  (714) 
GLU   LEU

>  <FRAG_NAME>  (714) 
ACET   PRPA

>  <FRAG_ATOM_NUM>  (714) 
fragi: 7  fragj: 11

>  <atom.prop.CHAIN_ID>  (714) 
A A A A A A A Z Z Z Z Z Z Z Z Z Z Z

>  <atom.prop.IS_HEAVY_ATOM>  (714) 
1 0 0 0 1 1 1 1 0 0 0 1 0 0 1 0 0 0

>  <DIFUSE_FUNC_ATOM>  (714) 
atom 6   atom 7   

>  <FINAL_SINGLE_POINT_ENERGY>  (714) 
0

>  <NONCOV_INTER_ENERGY_QM>  (714) 
0

>  <FF_Energy>  (714) 
26.64

>  <QM_Energy>  (714) 
6.21

>  <source>  (714) 
ACET_PRPA_06

>  <Index>  (714) 
39399

$$$$
ACET-pdb1nb4-B-GLU-464:PRPA-pdb1nb4-B-LEU-469
     RDKit          3D

 18 16  0  0  0  0  0  0  0  0999 V2000
   -0.0168    1.5334   -0.0087 C   0  0  0  0  0  0  0  0  0  0  0  0
   -0.5674    1.8241    0.7591 H   0  0  0  0  0  0  0  0  0  0  0  0
   -0.4197    1.8156   -0.8662 H   0  0  0  0  0  0  0  0  0  0  0  0
    0.9634    2.0022    0.0789 H   0  0  0  0  0  0  0  0  0  0  0  0
    0.0000    0.0000    0.0000 C   0  0  0  0  0  0  0  0  0  0  0  0
   -1.1133   -0.5891   -0.0000 O   0  0  0  0  0  1  0  0  0  0  0  0
    1.1133   -0.5911    0.0000 O   0  0  0  0  0  0  0  0  0  0  0  0
   -1.6733    0.7446   -2.4547 C   0  0  0  0  0  0  0  0  0  0  0  0
   -2.6221    0.7786   -2.1335 H   0  0  0  0  0  0  0  0  0  0  0  0
   -1.2008   -0.0155   -2.0023 H   0  0  0  0  0  0  0  0  0  0  0  0
   -1.2155    1.6039   -2.2143 H   0  0  0  0  0  0  0  0  0  0  0  0
   -1.6453    0.5489   -3.9504 C   0  0  0  0  0  0  0  0  0  0  0  0
   -0.7082    0.5347   -4.2751 H   0  0  0  0  0  0  0  0  0  0  0  0
   -2.1626    1.3840   -4.4227 H   0  0  0  0  0  0  0  0  0  0  0  0
   -2.3122   -0.8071   -4.2960 C   0  0  0  0  0  0  0  0  0  0  0  0
   -2.2886   -0.9335   -5.2839 H   0  0  0  0  0  0  0  0  0  0  0  0
   -1.8073   -1.5366   -3.8441 H   0  0  0  0  0  0  0  0  0  0  0  0
   -3.2547   -0.7923   -3.9747 H   0  0  0  0  0  0  0  0  0  0  0  0
  1  5  1  0
  5  6  1  0
  5  7  2  0
  1  2  1  0
  1  3  1  0
  1  4  1  0
  8 12  1  0
 12 15  1  0
  8  9  1  0
  8 10  1  0
  8 11  1  0
 12 13  1  0
 12 14  1  0
 15 16  1  0
 15 17  1  0
 15 18  1  0
M  CHG  1   6  -1
M  END
>  <PDB_ID>  (715) 
pdb1nb4

>  <RESIDUE_NAME>  (715) 
GLU   LEU

>  <FRAG_NAME>  (715) 
ACET   PRPA

>  <FRAG_ATOM_NUM>  (715) 
fragi: 7  fragj: 11

>  <atom.prop.CHAIN_ID>  (715) 
A A A A A A A Z Z Z Z Z Z Z Z Z Z Z

>  <atom.prop.IS_HEAVY_ATOM>  (715) 
1 0 0 0 1 1 1 1 0 0 0 1 0 0 1 0 0 0

>  <DIFUSE_FUNC_ATOM>  (715) 
atom 6   atom 7   

>  <FINAL_SINGLE_POINT_ENERGY>  (715) 
0

>  <NONCOV_INTER_ENERGY_QM>  (715) 
0

>  <FF_Energy>  (715) 
26.91

>  <QM_Energy>  (715) 
5.82

>  <source>  (715) 
ACET_PRPA_06

>  <Index>  (715) 
39414

$$$$
ACET-pdb2rdc-A-GLU-111:PRPA-pdb2rdc-A-LYS-114
     RDKit          3D

 18 16  0  0  0  0  0  0  0  0999 V2000
    0.0016    1.5369    0.0351 C   0  0  0  0  0  0  0  0  0  0  0  0
   -0.3249    1.8505   -0.8312 H   0  0  0  0  0  0  0  0  0  0  0  0
    0.9146    1.8238    0.2310 H   0  0  0  0  0  0  0  0  0  0  0  0
   -0.6542    1.9353    0.8092 H   0  0  0  0  0  0  0  0  0  0  0  0
    0.0000    0.0000    0.0000 C   0  0  0  0  0  0  0  0  0  0  0  0
   -1.1036   -0.6029    0.0000 O   0  0  0  0  0  1  0  0  0  0  0  0
    1.1036   -0.5985    0.0000 O   0  0  0  0  0  0  0  0  0  0  0  0
    1.3324   -1.8712    3.6088 C   0  0  0  0  0  0  0  0  0  0  0  0
    1.6286   -2.7053    4.0765 H   0  0  0  0  0  0  0  0  0  0  0  0
    0.5356   -1.4922    4.0826 H   0  0  0  0  0  0  0  0  0  0  0  0
    2.1425   -1.1426    3.6388 H   0  0  0  0  0  0  0  0  0  0  0  0
    0.9395   -2.2181    2.1837 C   0  0  0  0  0  0  0  0  0  0  0  0
    0.6460   -1.3803    1.7196 H   0  0  0  0  0  0  0  0  0  0  0  0
    1.7382   -2.5956    1.7127 H   0  0  0  0  0  0  0  0  0  0  0  0
   -0.1833   -3.2264    2.1178 C   0  0  0  0  0  0  0  0  0  0  0  0
    0.1041   -4.0679    2.5759 H   0  0  0  0  0  0  0  0  0  0  0  0
   -0.9874   -2.8548    2.5817 H   0  0  0  0  0  0  0  0  0  0  0  0
   -0.4392   -3.4518    1.0825 H   0  0  0  0  0  0  0  0  0  0  0  0
  1  5  1  0
  5  6  1  0
  5  7  2  0
  1  2  1  0
  1  3  1  0
  1  4  1  0
  8 12  1  0
 12 15  1  0
  8  9  1  0
  8 10  1  0
  8 11  1  0
 12 13  1  0
 12 14  1  0
 15 16  1  0
 15 17  1  0
 15 18  1  0
M  CHG  1   6  -1
M  END
>  <PDB_ID>  (716) 
pdb2rdc

>  <RESIDUE_NAME>  (716) 
GLU   LYS

>  <FRAG_NAME>  (716) 
ACET   PRPA

>  <FRAG_ATOM_NUM>  (716) 
fragi: 7  fragj: 11

>  <atom.prop.CHAIN_ID>  (716) 
A A A A A A A Z Z Z Z Z Z Z Z Z Z Z

>  <atom.prop.IS_HEAVY_ATOM>  (716) 
1 0 0 0 1 1 1 1 0 0 0 1 0 0 1 0 0 0

>  <DIFUSE_FUNC_ATOM>  (716) 
atom 6   atom 7   

>  <FINAL_SINGLE_POINT_ENERGY>  (716) 
0

>  <NONCOV_INTER_ENERGY_QM>  (716) 
0

>  <FF_Energy>  (716) 
16.77

>  <QM_Energy>  (716) 
0.99

>  <source>  (716) 
ACET_PRPA_06

>  <Index>  (716) 
39531

$$$$
ACET-pdb2r3v-A-ASP-386:PRPA-pdb2r3v-A-VAL-389
     RDKit          3D

 18 16  0  0  0  0  0  0  0  0999 V2000
   -0.0123    1.5287   -0.0070 C   0  0  0  0  0  0  0  0  0  0  0  0
   -0.5119    1.8441    0.7896 H   0  0  0  0  0  0  0  0  0  0  0  0
   -0.4497    1.8381   -0.8417 H   0  0  0  0  0  0  0  0  0  0  0  0
    0.9875    1.9612    0.0295 H   0  0  0  0  0  0  0  0  0  0  0  0
    0.0000    0.0000    0.0000 C   0  0  0  0  0  0  0  0  0  0  0  0
   -1.0985   -0.5996   -0.0000 O   0  0  0  0  0  1  0  0  0  0  0  0
    1.0985   -0.6010   -0.0000 O   0  0  0  0  0  0  0  0  0  0  0  0
   -2.1152    5.6084    1.9776 C   0  0  0  0  0  0  0  0  0  0  0  0
   -3.0666    5.3885    2.2199 H   0  0  0  0  0  0  0  0  0  0  0  0
   -1.9947    5.4681    0.9034 H   0  0  0  0  0  0  0  0  0  0  0  0
   -1.9310    6.6466    2.2539 H   0  0  0  0  0  0  0  0  0  0  0  0
   -1.1625    4.6930    2.8025 C   0  0  0  0  0  0  0  0  0  0  0  0
   -0.2376    4.9963    2.6306 H   0  0  0  0  0  0  0  0  0  0  0  0
   -1.3520    4.8311    3.8670 H   0  0  0  0  0  0  0  0  0  0  0  0
   -1.3719    3.2254    2.4220 C   0  0  0  0  0  0  0  0  0  0  0  0
   -0.6259    2.9338    1.8267 H   0  0  0  0  0  0  0  0  0  0  0  0
   -1.3795    2.6718    3.2525 H   0  0  0  0  0  0  0  0  0  0  0  0
   -2.2434    3.1344    1.9441 H   0  0  0  0  0  0  0  0  0  0  0  0
  1  5  1  0
  5  6  1  0
  5  7  2  0
  1  2  1  0
  1  3  1  0
  1  4  1  0
  8 12  1  0
 12 15  1  0
  8  9  1  0
  8 10  1  0
  8 11  1  0
 12 13  1  0
 12 14  1  0
 15 16  1  0
 15 17  1  0
 15 18  1  0
M  CHG  1   6  -1
M  END
>  <PDB_ID>  (717) 
pdb2r3v

>  <RESIDUE_NAME>  (717) 
ASP   VAL

>  <FRAG_NAME>  (717) 
ACET   PRPA

>  <FRAG_ATOM_NUM>  (717) 
fragi: 7  fragj: 11

>  <atom.prop.CHAIN_ID>  (717) 
A A A A A A A Z Z Z Z Z Z Z Z Z Z Z

>  <atom.prop.IS_HEAVY_ATOM>  (717) 
1 0 0 0 1 1 1 1 0 0 0 1 0 0 1 0 0 0

>  <DIFUSE_FUNC_ATOM>  (717) 
atom 6   atom 7   

>  <FINAL_SINGLE_POINT_ENERGY>  (717) 
0

>  <NONCOV_INTER_ENERGY_QM>  (717) 
0

>  <FF_Energy>  (717) 
27.47

>  <QM_Energy>  (717) 
4.85

>  <source>  (717) 
ACET_PRPA_07

>  <Index>  (717) 
550

$$$$
ACET-pdb2r3v-A-ASP-386:PRPA-pdb2r3v-A-VAL-389
     RDKit          3D

 18 16  0  0  0  0  0  0  0  0999 V2000
   -0.0123    1.5287   -0.0070 C   0  0  0  0  0  0  0  0  0  0  0  0
   -0.5119    1.8441    0.7896 H   0  0  0  0  0  0  0  0  0  0  0  0
   -0.4497    1.8381   -0.8417 H   0  0  0  0  0  0  0  0  0  0  0  0
    0.9875    1.9612    0.0295 H   0  0  0  0  0  0  0  0  0  0  0  0
    0.0000    0.0000    0.0000 C   0  0  0  0  0  0  0  0  0  0  0  0
   -1.0985   -0.5996   -0.0000 O   0  0  0  0  0  1  0  0  0  0  0  0
    1.0985   -0.6010   -0.0000 O   0  0  0  0  0  0  0  0  0  0  0  0
   -1.4290    4.8872    4.2993 C   0  0  0  0  0  0  0  0  0  0  0  0
   -1.2094    4.0435    4.7842 H   0  0  0  0  0  0  0  0  0  0  0  0
   -0.8574    5.6310    4.6408 H   0  0  0  0  0  0  0  0  0  0  0  0
   -2.3913    5.1126    4.4352 H   0  0  0  0  0  0  0  0  0  0  0  0
   -1.1625    4.6930    2.8025 C   0  0  0  0  0  0  0  0  0  0  0  0
   -0.2376    4.9963    2.6306 H   0  0  0  0  0  0  0  0  0  0  0  0
   -1.8292    5.3336    2.2252 H   0  0  0  0  0  0  0  0  0  0  0  0
   -1.3719    3.2254    2.4220 C   0  0  0  0  0  0  0  0  0  0  0  0
   -0.6259    2.9338    1.8267 H   0  0  0  0  0  0  0  0  0  0  0  0
   -1.3795    2.6718    3.2525 H   0  0  0  0  0  0  0  0  0  0  0  0
   -2.2434    3.1344    1.9441 H   0  0  0  0  0  0  0  0  0  0  0  0
  1  5  1  0
  5  6  1  0
  5  7  2  0
  1  2  1  0
  1  3  1  0
  1  4  1  0
  8 12  1  0
 12 15  1  0
  8  9  1  0
  8 10  1  0
  8 11  1  0
 12 13  1  0
 12 14  1  0
 15 16  1  0
 15 17  1  0
 15 18  1  0
M  CHG  1   6  -1
M  END
>  <PDB_ID>  (718) 
pdb2r3v

>  <RESIDUE_NAME>  (718) 
ASP   VAL

>  <FRAG_NAME>  (718) 
ACET   PRPA

>  <FRAG_ATOM_NUM>  (718) 
fragi: 7  fragj: 11

>  <atom.prop.CHAIN_ID>  (718) 
A A A A A A A Z Z Z Z Z Z Z Z Z Z Z

>  <atom.prop.IS_HEAVY_ATOM>  (718) 
1 0 0 0 1 1 1 1 0 0 0 1 0 0 1 0 0 0

>  <DIFUSE_FUNC_ATOM>  (718) 
atom 6   atom 7   

>  <FINAL_SINGLE_POINT_ENERGY>  (718) 
0

>  <NONCOV_INTER_ENERGY_QM>  (718) 
0

>  <FF_Energy>  (718) 
27.42

>  <QM_Energy>  (718) 
5.07

>  <source>  (718) 
ACET_PRPA_07

>  <Index>  (718) 
553

$$$$
ACET-pdb1nze-A-ASP-88:PRPA-pdb1nze-A-ARG-51
     RDKit          3D

 18 16  0  0  0  0  0  0  0  0999 V2000
   -0.0022    1.5092    0.0191 C   0  0  0  0  0  0  0  0  0  0  0  0
    0.7319    1.8393   -0.5630 H   0  0  0  0  0  0  0  0  0  0  0  0
    0.1268    1.8193    0.9528 H   0  0  0  0  0  0  0  0  0  0  0  0
   -0.9399    1.9249   -0.3499 H   0  0  0  0  0  0  0  0  0  0  0  0
    0.0000    0.0000    0.0000 C   0  0  0  0  0  0  0  0  0  0  0  0
   -1.0992   -0.6038    0.0000 O   0  0  0  0  0  1  0  0  0  0  0  0
    1.0992   -0.5858   -0.0000 O   0  0  0  0  0  0  0  0  0  0  0  0
    3.0619   -1.6024    2.5657 C   0  0  0  0  0  0  0  0  0  0  0  0
    2.7058   -1.9350    3.4296 H   0  0  0  0  0  0  0  0  0  0  0  0
    2.3953   -1.0277    2.1092 H   0  0  0  0  0  0  0  0  0  0  0  0
    3.9508   -1.0047    2.7676 H   0  0  0  0  0  0  0  0  0  0  0  0
    3.3366   -2.8077    1.6732 C   0  0  0  0  0  0  0  0  0  0  0  0
    4.2307   -2.7040    1.2422 H   0  0  0  0  0  0  0  0  0  0  0  0
    3.3229   -3.6387    2.2254 H   0  0  0  0  0  0  0  0  0  0  0  0
    2.2940   -2.9544    0.5728 C   0  0  0  0  0  0  0  0  0  0  0  0
    2.0821   -2.0360    0.2239 H   0  0  0  0  0  0  0  0  0  0  0  0
    2.7041   -3.4945   -0.1684 H   0  0  0  0  0  0  0  0  0  0  0  0
    1.3708   -3.4351    0.8966 H   0  0  0  0  0  0  0  0  0  0  0  0
  1  5  1  0
  5  6  1  0
  5  7  2  0
  1  2  1  0
  1  3  1  0
  1  4  1  0
  8 12  1  0
 12 15  1  0
  8  9  1  0
  8 10  1  0
  8 11  1  0
 12 13  1  0
 12 14  1  0
 15 16  1  0
 15 17  1  0
 15 18  1  0
M  CHG  1   6  -1
M  END
>  <PDB_ID>  (719) 
pdb1nze

>  <RESIDUE_NAME>  (719) 
ASP   ARG

>  <FRAG_NAME>  (719) 
ACET   PRPA

>  <FRAG_ATOM_NUM>  (719) 
fragi: 7  fragj: 11

>  <atom.prop.CHAIN_ID>  (719) 
A A A A A A A Z Z Z Z Z Z Z Z Z Z Z

>  <atom.prop.IS_HEAVY_ATOM>  (719) 
1 0 0 0 1 1 1 1 0 0 0 1 0 0 1 0 0 0

>  <DIFUSE_FUNC_ATOM>  (719) 
atom 6   atom 7   

>  <FINAL_SINGLE_POINT_ENERGY>  (719) 
0

>  <NONCOV_INTER_ENERGY_QM>  (719) 
0

>  <FF_Energy>  (719) 
35.45

>  <QM_Energy>  (719) 
1.26

>  <source>  (719) 
ACET_PRPA_07

>  <Index>  (719) 
665

$$$$
ACET-pdb1nu5-A-ASP-142:PRPA-pdb1nu5-A-ARG-145
     RDKit          3D

 18 16  0  0  0  0  0  0  0  0999 V2000
   -0.0035    1.5131    0.0077 C   0  0  0  0  0  0  0  0  0  0  0  0
   -0.5256    1.8365   -0.7725 H   0  0  0  0  0  0  0  0  0  0  0  0
    0.9335    1.8364   -0.0402 H   0  0  0  0  0  0  0  0  0  0  0  0
   -0.4572    1.9232    0.9100 H   0  0  0  0  0  0  0  0  0  0  0  0
    0.0000    0.0000    0.0000 C   0  0  0  0  0  0  0  0  0  0  0  0
   -1.0971   -0.5958    0.0000 O   0  0  0  0  0  1  0  0  0  0  0  0
    1.0971   -0.5935    0.0000 O   0  0  0  0  0  0  0  0  0  0  0  0
    4.3779    0.3843    1.1347 C   0  0  0  0  0  0  0  0  0  0  0  0
    5.1151   -0.1559    0.7132 H   0  0  0  0  0  0  0  0  0  0  0  0
    3.6053   -0.2929    1.4988 H   0  0  0  0  0  0  0  0  0  0  0  0
    4.8027    0.9678    1.9515 H   0  0  0  0  0  0  0  0  0  0  0  0
    3.7980    1.3150    0.0716 C   0  0  0  0  0  0  0  0  0  0  0  0
    3.0584    1.8480    0.4916 H   0  0  0  0  0  0  0  0  0  0  0  0
    4.5226    1.9448   -0.2227 H   0  0  0  0  0  0  0  0  0  0  0  0
    3.2362    0.6395   -1.1718 C   0  0  0  0  0  0  0  0  0  0  0  0
    3.9671    0.1112   -1.6105 H   0  0  0  0  0  0  0  0  0  0  0  0
    2.5019    0.0151   -0.8957 H   0  0  0  0  0  0  0  0  0  0  0  0
    2.8393    1.3599   -1.8869 H   0  0  0  0  0  0  0  0  0  0  0  0
  1  5  1  0
  5  6  1  0
  5  7  2  0
  1  2  1  0
  1  3  1  0
  1  4  1  0
  8 12  1  0
 12 15  1  0
  8  9  1  0
  8 10  1  0
  8 11  1  0
 12 13  1  0
 12 14  1  0
 15 16  1  0
 15 17  1  0
 15 18  1  0
M  CHG  1   6  -1
M  END
>  <PDB_ID>  (720) 
pdb1nu5

>  <RESIDUE_NAME>  (720) 
ASP   ARG

>  <FRAG_NAME>  (720) 
ACET   PRPA

>  <FRAG_ATOM_NUM>  (720) 
fragi: 7  fragj: 11

>  <atom.prop.CHAIN_ID>  (720) 
A A A A A A A Z Z Z Z Z Z Z Z Z Z Z

>  <atom.prop.IS_HEAVY_ATOM>  (720) 
1 0 0 0 1 1 1 1 0 0 0 1 0 0 1 0 0 0

>  <DIFUSE_FUNC_ATOM>  (720) 
atom 6   atom 7   

>  <FINAL_SINGLE_POINT_ENERGY>  (720) 
0

>  <NONCOV_INTER_ENERGY_QM>  (720) 
0

>  <FF_Energy>  (720) 
34.1

>  <QM_Energy>  (720) 
0.7

>  <source>  (720) 
ACET_PRPA_07

>  <Index>  (720) 
1017

$$$$
ACET-pdb1nu5-A-ASP-142:PRPA-pdb1nu5-A-ARG-145
     RDKit          3D

 18 16  0  0  0  0  0  0  0  0999 V2000
   -0.0035    1.5131    0.0077 C   0  0  0  0  0  0  0  0  0  0  0  0
   -0.5256    1.8365   -0.7725 H   0  0  0  0  0  0  0  0  0  0  0  0
    0.9335    1.8364   -0.0402 H   0  0  0  0  0  0  0  0  0  0  0  0
   -0.4572    1.9232    0.9100 H   0  0  0  0  0  0  0  0  0  0  0  0
    0.0000    0.0000    0.0000 C   0  0  0  0  0  0  0  0  0  0  0  0
   -1.0971   -0.5958    0.0000 O   0  0  0  0  0  1  0  0  0  0  0  0
    1.0971   -0.5935    0.0000 O   0  0  0  0  0  0  0  0  0  0  0  0
    3.7980    1.3150    0.0716 C   0  0  0  0  0  0  0  0  0  0  0  0
    3.0584    1.8480    0.4916 H   0  0  0  0  0  0  0  0  0  0  0  0
    4.5226    1.9448   -0.2227 H   0  0  0  0  0  0  0  0  0  0  0  0
    4.2119    0.6508    0.8304 H   0  0  0  0  0  0  0  0  0  0  0  0
    3.2362    0.6395   -1.1718 C   0  0  0  0  0  0  0  0  0  0  0  0
    3.9671    0.1112   -1.6105 H   0  0  0  0  0  0  0  0  0  0  0  0
    2.5019    0.0151   -0.8957 H   0  0  0  0  0  0  0  0  0  0  0  0
    2.6953    1.6211   -2.1463 C   0  0  0  0  0  0  0  0  0  0  0  0
    1.9660    2.1473   -1.7051 H   0  0  0  0  0  0  0  0  0  0  0  0
    3.4313    2.2434   -2.4199 H   0  0  0  0  0  0  0  0  0  0  0  0
    2.2929    1.1394   -3.0374 H   0  0  0  0  0  0  0  0  0  0  0  0
  1  5  1  0
  5  6  1  0
  5  7  2  0
  1  2  1  0
  1  3  1  0
  1  4  1  0
  8 12  1  0
 12 15  1  0
  8  9  1  0
  8 10  1  0
  8 11  1  0
 12 13  1  0
 12 14  1  0
 15 16  1  0
 15 17  1  0
 15 18  1  0
M  CHG  1   6  -1
M  END
>  <PDB_ID>  (721) 
pdb1nu5

>  <RESIDUE_NAME>  (721) 
ASP   ARG

>  <FRAG_NAME>  (721) 
ACET   PRPA

>  <FRAG_ATOM_NUM>  (721) 
fragi: 7  fragj: 11

>  <atom.prop.CHAIN_ID>  (721) 
A A A A A A A Z Z Z Z Z Z Z Z Z Z Z

>  <atom.prop.IS_HEAVY_ATOM>  (721) 
1 0 0 0 1 1 1 1 0 0 0 1 0 0 1 0 0 0

>  <DIFUSE_FUNC_ATOM>  (721) 
atom 6   atom 7   

>  <FINAL_SINGLE_POINT_ENERGY>  (721) 
0

>  <NONCOV_INTER_ENERGY_QM>  (721) 
0

>  <FF_Energy>  (721) 
40.61

>  <QM_Energy>  (721) 
1.95

>  <source>  (721) 
ACET_PRPA_07

>  <Index>  (721) 
1019

$$$$
ACET-pdb1n8j-B-ASP-118:PRPA-pdb1n8j-B-ARG-111
     RDKit          3D

 18 16  0  0  0  0  0  0  0  0999 V2000
    0.0045    1.5251   -0.0060 C   0  0  0  0  0  0  0  0  0  0  0  0
   -0.9004    1.8445   -0.2650 H   0  0  0  0  0  0  0  0  0  0  0  0
    0.6837    1.8393   -0.6589 H   0  0  0  0  0  0  0  0  0  0  0  0
    0.2474    1.9575    0.9646 H   0  0  0  0  0  0  0  0  0  0  0  0
    0.0000    0.0000    0.0000 C   0  0  0  0  0  0  0  0  0  0  0  0
   -1.0988   -0.6062   -0.0000 O   0  0  0  0  0  1  0  0  0  0  0  0
    1.0988   -0.5949    0.0000 O   0  0  0  0  0  0  0  0  0  0  0  0
    0.7166   -3.3011    3.0909 C   0  0  0  0  0  0  0  0  0  0  0  0
    0.9470   -3.4558    4.0419 H   0  0  0  0  0  0  0  0  0  0  0  0
    1.3688   -3.7446    2.4920 H   0  0  0  0  0  0  0  0  0  0  0  0
   -0.2676   -3.7299    2.9028 H   0  0  0  0  0  0  0  0  0  0  0  0
    0.7929   -1.7822    2.8287 C   0  0  0  0  0  0  0  0  0  0  0  0
    0.0992   -1.5307    2.1413 H   0  0  0  0  0  0  0  0  0  0  0  0
    0.5789   -1.2888    3.6824 H   0  0  0  0  0  0  0  0  0  0  0  0
    2.1623   -1.2535    2.3203 C   0  0  0  0  0  0  0  0  0  0  0  0
    2.5617   -1.9847    1.7357 H   0  0  0  0  0  0  0  0  0  0  0  0
    1.9635   -0.4644    1.7080 H   0  0  0  0  0  0  0  0  0  0  0  0
    2.8983   -0.9503    3.0649 H   0  0  0  0  0  0  0  0  0  0  0  0
  1  5  1  0
  5  6  1  0
  5  7  2  0
  1  2  1  0
  1  3  1  0
  1  4  1  0
  8 12  1  0
 12 15  1  0
  8  9  1  0
  8 10  1  0
  8 11  1  0
 12 13  1  0
 12 14  1  0
 15 16  1  0
 15 17  1  0
 15 18  1  0
M  CHG  1   6  -1
M  END
>  <PDB_ID>  (722) 
pdb1n8j

>  <RESIDUE_NAME>  (722) 
ASP   ARG

>  <FRAG_NAME>  (722) 
ACET   PRPA

>  <FRAG_ATOM_NUM>  (722) 
fragi: 7  fragj: 11

>  <atom.prop.CHAIN_ID>  (722) 
A A A A A A A Z Z Z Z Z Z Z Z Z Z Z

>  <atom.prop.IS_HEAVY_ATOM>  (722) 
1 0 0 0 1 1 1 1 0 0 0 1 0 0 1 0 0 0

>  <DIFUSE_FUNC_ATOM>  (722) 
atom 6   atom 7   

>  <FINAL_SINGLE_POINT_ENERGY>  (722) 
0

>  <NONCOV_INTER_ENERGY_QM>  (722) 
0

>  <FF_Energy>  (722) 
17.14

>  <QM_Energy>  (722) 
-0.15

>  <source>  (722) 
ACET_PRPA_07

>  <Index>  (722) 
1303

$$$$
ACET-pdb1ny2-2-GLU-39:PRPA-pdb1ny2-2-ARG-35
     RDKit          3D

 18 16  0  0  0  0  0  0  0  0999 V2000
    0.1520    1.4976   -0.1481 C   0  0  0  0  0  0  0  0  0  0  0  0
    0.1788    1.8873    0.7535 H   0  0  0  0  0  0  0  0  0  0  0  0
   -0.6117    1.8265   -0.6730 H   0  0  0  0  0  0  0  0  0  0  0  0
    1.0682    1.7798   -0.6669 H   0  0  0  0  0  0  0  0  0  0  0  0
    0.0000    0.0000    0.0000 C   0  0  0  0  0  0  0  0  0  0  0  0
   -1.1075   -0.5109   -0.0000 O   0  0  0  0  0  1  0  0  0  0  0  0
    1.1075   -0.6125    0.0000 O   0  0  0  0  0  0  0  0  0  0  0  0
   -2.3047    2.3526   -2.2797 C   0  0  0  0  0  0  0  0  0  0  0  0
   -1.9018    1.7457   -2.9179 H   0  0  0  0  0  0  0  0  0  0  0  0
   -1.7273    2.6157   -1.5476 H   0  0  0  0  0  0  0  0  0  0  0  0
   -2.6419    3.2466   -2.8042 H   0  0  0  0  0  0  0  0  0  0  0  0
   -3.5423    1.6670   -1.6873 C   0  0  0  0  0  0  0  0  0  0  0  0
   -4.2275    2.3471   -1.5124 H   0  0  0  0  0  0  0  0  0  0  0  0
   -3.8480    0.9732   -2.3100 H   0  0  0  0  0  0  0  0  0  0  0  0
   -3.1217    1.0405   -0.4104 C   0  0  0  0  0  0  0  0  0  0  0  0
   -2.7320    0.1517   -0.5998 H   0  0  0  0  0  0  0  0  0  0  0  0
   -2.4685    1.6319    0.0385 H   0  0  0  0  0  0  0  0  0  0  0  0
   -3.9975    0.9215    0.2275 H   0  0  0  0  0  0  0  0  0  0  0  0
  1  5  1  0
  5  6  1  0
  5  7  2  0
  1  2  1  0
  1  3  1  0
  1  4  1  0
  8 12  1  0
 12 15  1  0
  8  9  1  0
  8 10  1  0
  8 11  1  0
 12 13  1  0
 12 14  1  0
 15 16  1  0
 15 17  1  0
 15 18  1  0
M  CHG  1   6  -1
M  END
>  <PDB_ID>  (723) 
pdb1ny2

>  <RESIDUE_NAME>  (723) 
GLU   ARG

>  <FRAG_NAME>  (723) 
ACET   PRPA

>  <FRAG_ATOM_NUM>  (723) 
fragi: 7  fragj: 11

>  <atom.prop.CHAIN_ID>  (723) 
A A A A A A A Z Z Z Z Z Z Z Z Z Z Z

>  <atom.prop.IS_HEAVY_ATOM>  (723) 
1 0 0 0 1 1 1 1 0 0 0 1 0 0 1 0 0 0

>  <DIFUSE_FUNC_ATOM>  (723) 
atom 6   atom 7   

>  <FINAL_SINGLE_POINT_ENERGY>  (723) 
0

>  <NONCOV_INTER_ENERGY_QM>  (723) 
0

>  <FF_Energy>  (723) 
38.06

>  <QM_Energy>  (723) 
10.25

>  <source>  (723) 
ACET_PRPA_07

>  <Index>  (723) 
1624

$$$$
ACET-pdb2qx5-B-GLU-649:PRPA-pdb2qx5-B-ILE-652
     RDKit          3D

 18 16  0  0  0  0  0  0  0  0999 V2000
    0.0092    1.5137   -0.0049 C   0  0  0  0  0  0  0  0  0  0  0  0
    0.3811    1.8053   -0.8702 H   0  0  0  0  0  0  0  0  0  0  0  0
    0.5679    1.8088    0.7519 H   0  0  0  0  0  0  0  0  0  0  0  0
   -0.9835    1.9500    0.1072 H   0  0  0  0  0  0  0  0  0  0  0  0
    0.0000    0.0000    0.0000 C   0  0  0  0  0  0  0  0  0  0  0  0
   -1.0962   -0.5901   -0.0000 O   0  0  0  0  0  1  0  0  0  0  0  0
    1.0962   -0.5967   -0.0000 O   0  0  0  0  0  0  0  0  0  0  0  0
    2.3003    4.6276    0.1722 C   0  0  0  0  0  0  0  0  0  0  0  0
    1.3748    4.2816    0.2641 H   0  0  0  0  0  0  0  0  0  0  0  0
    2.5466    5.1807    1.0786 H   0  0  0  0  0  0  0  0  0  0  0  0
    2.3540    5.2808   -0.6986 H   0  0  0  0  0  0  0  0  0  0  0  0
    3.2417    3.4252    0.0198 C   0  0  0  0  0  0  0  0  0  0  0  0
    4.1472    3.7579   -0.2270 H   0  0  0  0  0  0  0  0  0  0  0  0
    3.2957    2.9530    0.8963 H   0  0  0  0  0  0  0  0  0  0  0  0
    2.7880    2.4125   -1.0437 C   0  0  0  0  0  0  0  0  0  0  0  0
    2.7414    2.8737   -1.9248 H   0  0  0  0  0  0  0  0  0  0  0  0
    3.4489    1.6694   -1.0795 H   0  0  0  0  0  0  0  0  0  0  0  0
    1.8908    2.0632   -0.7907 H   0  0  0  0  0  0  0  0  0  0  0  0
  1  5  1  0
  5  6  1  0
  5  7  2  0
  1  2  1  0
  1  3  1  0
  1  4  1  0
  8 12  1  0
 12 15  1  0
  8  9  1  0
  8 10  1  0
  8 11  1  0
 12 13  1  0
 12 14  1  0
 15 16  1  0
 15 17  1  0
 15 18  1  0
M  CHG  1   6  -1
M  END
>  <PDB_ID>  (724) 
pdb2qx5

>  <RESIDUE_NAME>  (724) 
GLU   ILE

>  <FRAG_NAME>  (724) 
ACET   PRPA

>  <FRAG_ATOM_NUM>  (724) 
fragi: 7  fragj: 11

>  <atom.prop.CHAIN_ID>  (724) 
A A A A A A A Z Z Z Z Z Z Z Z Z Z Z

>  <atom.prop.IS_HEAVY_ATOM>  (724) 
1 0 0 0 1 1 1 1 0 0 0 1 0 0 1 0 0 0

>  <DIFUSE_FUNC_ATOM>  (724) 
atom 6   atom 7   

>  <FINAL_SINGLE_POINT_ENERGY>  (724) 
0

>  <NONCOV_INTER_ENERGY_QM>  (724) 
0

>  <FF_Energy>  (724) 
30.51

>  <QM_Energy>  (724) 
4.43

>  <source>  (724) 
ACET_PRPA_07

>  <Index>  (724) 
1937

$$$$
ACET-pdb1n8j-C-GLU-22:PRPA-pdb1n8j-C-LYS-11
     RDKit          3D

 18 16  0  0  0  0  0  0  0  0999 V2000
   -0.0062    1.5204   -0.0061 C   0  0  0  0  0  0  0  0  0  0  0  0
    0.9265    1.8186    0.0317 H   0  0  0  0  0  0  0  0  0  0  0  0
   -0.5301    1.8153    0.7687 H   0  0  0  0  0  0  0  0  0  0  0  0
   -0.4626    1.9263   -0.9088 H   0  0  0  0  0  0  0  0  0  0  0  0
    0.0000    0.0000    0.0000 C   0  0  0  0  0  0  0  0  0  0  0  0
   -1.1014   -0.5975   -0.0000 O   0  0  0  0  0  1  0  0  0  0  0  0
    1.1014   -0.5972    0.0000 O   0  0  0  0  0  0  0  0  0  0  0  0
    1.4762    0.2328    3.5652 C   0  0  0  0  0  0  0  0  0  0  0  0
    0.5273    0.4183    3.7903 H   0  0  0  0  0  0  0  0  0  0  0  0
    1.7054    0.6056    2.6755 H   0  0  0  0  0  0  0  0  0  0  0  0
    2.1206    0.6805    4.3218 H   0  0  0  0  0  0  0  0  0  0  0  0
    1.6825   -1.2893    3.5284 C   0  0  0  0  0  0  0  0  0  0  0  0
    2.6371   -1.4737    3.3029 H   0  0  0  0  0  0  0  0  0  0  0  0
    1.4695   -1.6602    4.4303 H   0  0  0  0  0  0  0  0  0  0  0  0
    0.7960   -1.9835    2.4955 C   0  0  0  0  0  0  0  0  0  0  0  0
   -0.1616   -1.9098    2.7890 H   0  0  0  0  0  0  0  0  0  0  0  0
    0.8992   -1.5151    1.6124 H   0  0  0  0  0  0  0  0  0  0  0  0
    1.0478   -3.0364    2.3692 H   0  0  0  0  0  0  0  0  0  0  0  0
  1  5  1  0
  5  6  1  0
  5  7  2  0
  1  2  1  0
  1  3  1  0
  1  4  1  0
  8 12  1  0
 12 15  1  0
  8  9  1  0
  8 10  1  0
  8 11  1  0
 12 13  1  0
 12 14  1  0
 15 16  1  0
 15 17  1  0
 15 18  1  0
M  CHG  1   6  -1
M  END
>  <PDB_ID>  (725) 
pdb1n8j

>  <RESIDUE_NAME>  (725) 
GLU   LYS

>  <FRAG_NAME>  (725) 
ACET   PRPA

>  <FRAG_ATOM_NUM>  (725) 
fragi: 7  fragj: 11

>  <atom.prop.CHAIN_ID>  (725) 
A A A A A A A Z Z Z Z Z Z Z Z Z Z Z

>  <atom.prop.IS_HEAVY_ATOM>  (725) 
1 0 0 0 1 1 1 1 0 0 0 1 0 0 1 0 0 0

>  <DIFUSE_FUNC_ATOM>  (725) 
atom 6   atom 7   

>  <FINAL_SINGLE_POINT_ENERGY>  (725) 
0

>  <NONCOV_INTER_ENERGY_QM>  (725) 
0

>  <FF_Energy>  (725) 
18.56

>  <QM_Energy>  (725) 
-1.55

>  <source>  (725) 
ACET_PRPA_07

>  <Index>  (725) 
2173

$$$$
ACET-pdb1nz0-A-GLU-9:PRPA-pdb1nz0-A-LYS-75
     RDKit          3D

 18 16  0  0  0  0  0  0  0  0999 V2000
    0.1846    1.4868    0.0152 C   0  0  0  0  0  0  0  0  0  0  0  0
    0.7021    1.7386   -0.8017 H   0  0  0  0  0  0  0  0  0  0  0  0
    0.7144    1.7195    0.8306 H   0  0  0  0  0  0  0  0  0  0  0  0
   -0.7258    2.0862    0.0277 H   0  0  0  0  0  0  0  0  0  0  0  0
    0.0000    0.0000    0.0000 C   0  0  0  0  0  0  0  0  0  0  0  0
   -1.0890   -0.5533    0.0000 O   0  0  0  0  0  1  0  0  0  0  0  0
    1.0890   -0.6125   -0.0000 O   0  0  0  0  0  0  0  0  0  0  0  0
    5.1933   -1.3454    0.1402 C   0  0  0  0  0  0  0  0  0  0  0  0
    5.4834   -0.5603   -0.4020 H   0  0  0  0  0  0  0  0  0  0  0  0
    4.5054   -1.8668   -0.3576 H   0  0  0  0  0  0  0  0  0  0  0  0
    6.0534   -1.9818    0.3484 H   0  0  0  0  0  0  0  0  0  0  0  0
    4.5823   -0.8434    1.4374 C   0  0  0  0  0  0  0  0  0  0  0  0
    4.2895   -1.6265    1.9821 H   0  0  0  0  0  0  0  0  0  0  0  0
    5.2667   -0.3186    1.9381 H   0  0  0  0  0  0  0  0  0  0  0  0
    3.3719    0.0533    1.1951 C   0  0  0  0  0  0  0  0  0  0  0  0
    3.6582    0.8403    0.6533 H   0  0  0  0  0  0  0  0  0  0  0  0
    2.6808   -0.4666    0.6983 H   0  0  0  0  0  0  0  0  0  0  0  0
    2.9580    0.3949    2.1439 H   0  0  0  0  0  0  0  0  0  0  0  0
  1  5  1  0
  5  6  1  0
  5  7  2  0
  1  2  1  0
  1  3  1  0
  1  4  1  0
  8 12  1  0
 12 15  1  0
  8  9  1  0
  8 10  1  0
  8 11  1  0
 12 13  1  0
 12 14  1  0
 15 16  1  0
 15 17  1  0
 15 18  1  0
M  CHG  1   6  -1
M  END
>  <PDB_ID>  (726) 
pdb1nz0

>  <RESIDUE_NAME>  (726) 
GLU   LYS

>  <FRAG_NAME>  (726) 
ACET   PRPA

>  <FRAG_ATOM_NUM>  (726) 
fragi: 7  fragj: 11

>  <atom.prop.CHAIN_ID>  (726) 
A A A A A A A Z Z Z Z Z Z Z Z Z Z Z

>  <atom.prop.IS_HEAVY_ATOM>  (726) 
1 0 0 0 1 1 1 1 0 0 0 1 0 0 1 0 0 0

>  <DIFUSE_FUNC_ATOM>  (726) 
atom 6   atom 7   

>  <FINAL_SINGLE_POINT_ENERGY>  (726) 
0

>  <NONCOV_INTER_ENERGY_QM>  (726) 
0

>  <FF_Energy>  (726) 
41.88

>  <QM_Energy>  (726) 
3.44

>  <source>  (726) 
ACET_PRPA_07

>  <Index>  (726) 
2239

$$$$
ACET-pdb2r7a-B-GLU-193:PRPA-pdb2r7a-B-PRO-160
     RDKit          3D

 18 16  0  0  0  0  0  0  0  0999 V2000
   -0.0052    1.5244   -0.0001 C   0  0  0  0  0  0  0  0  0  0  0  0
   -0.3007    1.8163   -0.8857 H   0  0  0  0  0  0  0  0  0  0  0  0
    0.9012    1.8196    0.2184 H   0  0  0  0  0  0  0  0  0  0  0  0
   -0.6923    1.9256    0.7449 H   0  0  0  0  0  0  0  0  0  0  0  0
    0.0000    0.0000    0.0000 C   0  0  0  0  0  0  0  0  0  0  0  0
   -1.1026   -0.5980   -0.0000 O   0  0  0  0  0  1  0  0  0  0  0  0
    1.1026   -0.5947   -0.0000 O   0  0  0  0  0  0  0  0  0  0  0  0
    4.2910    1.6862    1.0720 C   0  0  0  0  0  0  0  0  0  0  0  0
    5.1044    2.2279    1.2656 H   0  0  0  0  0  0  0  0  0  0  0  0
    4.5471    0.7725    0.5357 H   0  0  0  0  0  0  0  0  0  0  0  0
    3.7724    1.4168    1.9922 H   0  0  0  0  0  0  0  0  0  0  0  0
    3.3898    2.4181    0.0851 C   0  0  0  0  0  0  0  0  0  0  0  0
    2.4452    2.1171    0.1739 H   0  0  0  0  0  0  0  0  0  0  0  0
    3.4492    3.4036    0.2101 H   0  0  0  0  0  0  0  0  0  0  0  0
    3.9598    2.0099   -1.2365 C   0  0  0  0  0  0  0  0  0  0  0  0
    3.3152    2.1852   -1.9677 H   0  0  0  0  0  0  0  0  0  0  0  0
    4.8214    2.4673   -1.4042 H   0  0  0  0  0  0  0  0  0  0  0  0
    4.1084    0.9391   -1.0977 H   0  0  0  0  0  0  0  0  0  0  0  0
  1  5  1  0
  5  6  1  0
  5  7  2  0
  1  2  1  0
  1  3  1  0
  1  4  1  0
  8 12  1  0
 12 15  1  0
  8  9  1  0
  8 10  1  0
  8 11  1  0
 12 13  1  0
 12 14  1  0
 15 16  1  0
 15 17  1  0
 15 18  1  0
M  CHG  1   6  -1
M  END
>  <PDB_ID>  (727) 
pdb2r7a

>  <RESIDUE_NAME>  (727) 
GLU   PRO

>  <FRAG_NAME>  (727) 
ACET   PRPA

>  <FRAG_ATOM_NUM>  (727) 
fragi: 7  fragj: 11

>  <atom.prop.CHAIN_ID>  (727) 
A A A A A A A Z Z Z Z Z Z Z Z Z Z Z

>  <atom.prop.IS_HEAVY_ATOM>  (727) 
1 0 0 0 1 1 1 1 0 0 0 1 0 0 1 0 0 0

>  <DIFUSE_FUNC_ATOM>  (727) 
atom 6   atom 7   

>  <FINAL_SINGLE_POINT_ENERGY>  (727) 
0

>  <NONCOV_INTER_ENERGY_QM>  (727) 
0

>  <FF_Energy>  (727) 
16.36

>  <QM_Energy>  (727) 
0.18

>  <source>  (727) 
ACET_PRPA_07

>  <Index>  (727) 
2643

$$$$
ACET-pdb2rfl-A-ASP-26:PRPA-pdb2rfl-A-ARG-29
     RDKit          3D

 18 16  0  0  0  0  0  0  0  0999 V2000
   -0.0380    1.5127    0.0326 C   0  0  0  0  0  0  0  0  0  0  0  0
   -0.5093    1.8399   -0.7759 H   0  0  0  0  0  0  0  0  0  0  0  0
    0.8903    1.8577    0.0632 H   0  0  0  0  0  0  0  0  0  0  0  0
   -0.5672    1.8924    0.9066 H   0  0  0  0  0  0  0  0  0  0  0  0
    0.0000    0.0000    0.0000 C   0  0  0  0  0  0  0  0  0  0  0  0
   -1.0838   -0.5879   -0.0000 O   0  0  0  0  0  1  0  0  0  0  0  0
    1.0838   -0.5939    0.0000 O   0  0  0  0  0  0  0  0  0  0  0  0
   -3.8063   -1.1693    3.5337 C   0  0  0  0  0  0  0  0  0  0  0  0
   -2.9116   -1.5878    3.3783 H   0  0  0  0  0  0  0  0  0  0  0  0
   -4.5168   -1.8688    3.4633 H   0  0  0  0  0  0  0  0  0  0  0  0
   -3.8232   -0.7671    4.5466 H   0  0  0  0  0  0  0  0  0  0  0  0
   -4.0440   -0.1480    2.4376 C   0  0  0  0  0  0  0  0  0  0  0  0
   -5.0084    0.0396    2.3647 H   0  0  0  0  0  0  0  0  0  0  0  0
   -3.5245    0.6675    2.6292 H   0  0  0  0  0  0  0  0  0  0  0  0
   -3.5642   -0.7318    1.1350 C   0  0  0  0  0  0  0  0  0  0  0  0
   -3.9455   -0.1951    0.3896 H   0  0  0  0  0  0  0  0  0  0  0  0
   -2.5707   -0.6891    1.1193 H   0  0  0  0  0  0  0  0  0  0  0  0
   -3.8819   -1.7693    1.0309 H   0  0  0  0  0  0  0  0  0  0  0  0
  1  5  1  0
  5  6  1  0
  5  7  2  0
  1  2  1  0
  1  3  1  0
  1  4  1  0
  8 12  1  0
 12 15  1  0
  8  9  1  0
  8 10  1  0
  8 11  1  0
 12 13  1  0
 12 14  1  0
 15 16  1  0
 15 17  1  0
 15 18  1  0
M  CHG  1   6  -1
M  END
>  <PDB_ID>  (728) 
pdb2rfl

>  <RESIDUE_NAME>  (728) 
ASP   ARG

>  <FRAG_NAME>  (728) 
ACET   PRPA

>  <FRAG_ATOM_NUM>  (728) 
fragi: 7  fragj: 11

>  <atom.prop.CHAIN_ID>  (728) 
A A A A A A A Z Z Z Z Z Z Z Z Z Z Z

>  <atom.prop.IS_HEAVY_ATOM>  (728) 
1 0 0 0 1 1 1 1 0 0 0 1 0 0 1 0 0 0

>  <DIFUSE_FUNC_ATOM>  (728) 
atom 6   atom 7   

>  <FINAL_SINGLE_POINT_ENERGY>  (728) 
0

>  <NONCOV_INTER_ENERGY_QM>  (728) 
0

>  <FF_Energy>  (728) 
18.49

>  <QM_Energy>  (728) 
1.02

>  <source>  (728) 
ACET_PRPA_07

>  <Index>  (728) 
2786

$$$$
ACET-pdb1njj-B-GLU-348:PRPA-pdb1njj-B-ILE-345
     RDKit          3D

 18 16  0  0  0  0  0  0  0  0999 V2000
   -0.0303    1.5174    0.0214 C   0  0  0  0  0  0  0  0  0  0  0  0
    0.6659    1.8255   -0.5886 H   0  0  0  0  0  0  0  0  0  0  0  0
    0.1133    1.7919    0.9467 H   0  0  0  0  0  0  0  0  0  0  0  0
   -1.0016    1.8731   -0.3219 H   0  0  0  0  0  0  0  0  0  0  0  0
    0.0000    0.0000    0.0000 C   0  0  0  0  0  0  0  0  0  0  0  0
   -1.0995   -0.5959   -0.0000 O   0  0  0  0  0  1  0  0  0  0  0  0
    1.0995   -0.5948    0.0000 O   0  0  0  0  0  0  0  0  0  0  0  0
   -0.1633   -0.7016    4.1901 C   0  0  0  0  0  0  0  0  0  0  0  0
   -0.0005   -1.3070    4.9550 H   0  0  0  0  0  0  0  0  0  0  0  0
   -0.3695   -1.3276    3.3219 H   0  0  0  0  0  0  0  0  0  0  0  0
   -1.0963   -0.1813    4.4066 H   0  0  0  0  0  0  0  0  0  0  0  0
    1.1287    0.1627    3.9541 C   0  0  0  0  0  0  0  0  0  0  0  0
    1.1210    0.8893    4.6344 H   0  0  0  0  0  0  0  0  0  0  0  0
    2.0078   -0.4741    4.0534 H   0  0  0  0  0  0  0  0  0  0  0  0
    1.1343    0.7938    2.5659 C   0  0  0  0  0  0  0  0  0  0  0  0
    1.3098    0.0779    1.8911 H   0  0  0  0  0  0  0  0  0  0  0  0
    0.2274    1.1786    2.3906 H   0  0  0  0  0  0  0  0  0  0  0  0
    1.8751    1.5834    2.4407 H   0  0  0  0  0  0  0  0  0  0  0  0
  1  5  1  0
  5  6  1  0
  5  7  2  0
  1  2  1  0
  1  3  1  0
  1  4  1  0
  8 12  1  0
 12 15  1  0
  8  9  1  0
  8 10  1  0
  8 11  1  0
 12 13  1  0
 12 14  1  0
 15 16  1  0
 15 17  1  0
 15 18  1  0
M  CHG  1   6  -1
M  END
>  <PDB_ID>  (729) 
pdb1njj

>  <RESIDUE_NAME>  (729) 
GLU   ILE

>  <FRAG_NAME>  (729) 
ACET   PRPA

>  <FRAG_ATOM_NUM>  (729) 
fragi: 7  fragj: 11

>  <atom.prop.CHAIN_ID>  (729) 
A A A A A A A Z Z Z Z Z Z Z Z Z Z Z

>  <atom.prop.IS_HEAVY_ATOM>  (729) 
1 0 0 0 1 1 1 1 0 0 0 1 0 0 1 0 0 0

>  <DIFUSE_FUNC_ATOM>  (729) 
atom 6   atom 7   

>  <FINAL_SINGLE_POINT_ENERGY>  (729) 
0

>  <NONCOV_INTER_ENERGY_QM>  (729) 
0

>  <FF_Energy>  (729) 
38.37

>  <QM_Energy>  (729) 
6.74

>  <source>  (729) 
ACET_PRPA_07

>  <Index>  (729) 
4023

$$$$
ACET-pdb1njj-B-GLU-348:PRPA-pdb1njj-B-ILE-345
     RDKit          3D

 18 16  0  0  0  0  0  0  0  0999 V2000
   -0.0303    1.5174    0.0214 C   0  0  0  0  0  0  0  0  0  0  0  0
    0.6659    1.8255   -0.5886 H   0  0  0  0  0  0  0  0  0  0  0  0
    0.1133    1.7919    0.9467 H   0  0  0  0  0  0  0  0  0  0  0  0
   -1.0016    1.8731   -0.3219 H   0  0  0  0  0  0  0  0  0  0  0  0
    0.0000    0.0000    0.0000 C   0  0  0  0  0  0  0  0  0  0  0  0
   -1.0995   -0.5959   -0.0000 O   0  0  0  0  0  1  0  0  0  0  0  0
    1.0995   -0.5948    0.0000 O   0  0  0  0  0  0  0  0  0  0  0  0
    1.1287    0.1627    3.9541 C   0  0  0  0  0  0  0  0  0  0  0  0
    1.1210    0.8893    4.6344 H   0  0  0  0  0  0  0  0  0  0  0  0
    0.2330   -0.4365    4.1178 H   0  0  0  0  0  0  0  0  0  0  0  0
    2.0078   -0.4741    4.0534 H   0  0  0  0  0  0  0  0  0  0  0  0
    1.1343    0.7938    2.5659 C   0  0  0  0  0  0  0  0  0  0  0  0
    1.3098    0.0779    1.8911 H   0  0  0  0  0  0  0  0  0  0  0  0
    0.2274    1.1786    2.3906 H   0  0  0  0  0  0  0  0  0  0  0  0
    2.1654    1.8929    2.3916 C   0  0  0  0  0  0  0  0  0  0  0  0
    3.0767    1.5173    2.5504 H   0  0  0  0  0  0  0  0  0  0  0  0
    2.1079    2.2539    1.4625 H   0  0  0  0  0  0  0  0  0  0  0  0
    1.9831    2.6221    3.0480 H   0  0  0  0  0  0  0  0  0  0  0  0
  1  5  1  0
  5  6  1  0
  5  7  2  0
  1  2  1  0
  1  3  1  0
  1  4  1  0
  8 12  1  0
 12 15  1  0
  8  9  1  0
  8 10  1  0
  8 11  1  0
 12 13  1  0
 12 14  1  0
 15 16  1  0
 15 17  1  0
 15 18  1  0
M  CHG  1   6  -1
M  END
>  <PDB_ID>  (730) 
pdb1njj

>  <RESIDUE_NAME>  (730) 
GLU   ILE

>  <FRAG_NAME>  (730) 
ACET   PRPA

>  <FRAG_ATOM_NUM>  (730) 
fragi: 7  fragj: 11

>  <atom.prop.CHAIN_ID>  (730) 
A A A A A A A Z Z Z Z Z Z Z Z Z Z Z

>  <atom.prop.IS_HEAVY_ATOM>  (730) 
1 0 0 0 1 1 1 1 0 0 0 1 0 0 1 0 0 0

>  <DIFUSE_FUNC_ATOM>  (730) 
atom 6   atom 7   

>  <FINAL_SINGLE_POINT_ENERGY>  (730) 
0

>  <NONCOV_INTER_ENERGY_QM>  (730) 
0

>  <FF_Energy>  (730) 
41.27

>  <QM_Energy>  (730) 
6.5

>  <source>  (730) 
ACET_PRPA_07

>  <Index>  (730) 
4043

$$$$
ACET-pdb1njj-B-GLU-348:PRPA-pdb1njj-B-ILE-345
     RDKit          3D

 18 16  0  0  0  0  0  0  0  0999 V2000
   -0.0303    1.5174    0.0214 C   0  0  0  0  0  0  0  0  0  0  0  0
    0.6659    1.8255   -0.5886 H   0  0  0  0  0  0  0  0  0  0  0  0
    0.1133    1.7919    0.9467 H   0  0  0  0  0  0  0  0  0  0  0  0
   -1.0016    1.8731   -0.3219 H   0  0  0  0  0  0  0  0  0  0  0  0
    0.0000    0.0000    0.0000 C   0  0  0  0  0  0  0  0  0  0  0  0
   -1.0995   -0.5959   -0.0000 O   0  0  0  0  0  1  0  0  0  0  0  0
    1.0995   -0.5948    0.0000 O   0  0  0  0  0  0  0  0  0  0  0  0
    1.1343    0.7938    2.5659 C   0  0  0  0  0  0  0  0  0  0  0  0
    1.3098    0.0779    1.8911 H   0  0  0  0  0  0  0  0  0  0  0  0
    0.2274    1.1786    2.3906 H   0  0  0  0  0  0  0  0  0  0  0  0
    1.8751    1.5834    2.4407 H   0  0  0  0  0  0  0  0  0  0  0  0
    1.1287    0.1627    3.9541 C   0  0  0  0  0  0  0  0  0  0  0  0
    1.1210    0.8893    4.6344 H   0  0  0  0  0  0  0  0  0  0  0  0
    0.2330   -0.4365    4.1178 H   0  0  0  0  0  0  0  0  0  0  0  0
    2.3594   -0.7289    4.0932 C   0  0  0  0  0  0  0  0  0  0  0  0
    3.1830   -0.1782    3.9746 H   0  0  0  0  0  0  0  0  0  0  0  0
    2.3648   -1.1468    4.9991 H   0  0  0  0  0  0  0  0  0  0  0  0
    2.3328   -1.4426    3.3964 H   0  0  0  0  0  0  0  0  0  0  0  0
  1  5  1  0
  5  6  1  0
  5  7  2  0
  1  2  1  0
  1  3  1  0
  1  4  1  0
  8 12  1  0
 12 15  1  0
  8  9  1  0
  8 10  1  0
  8 11  1  0
 12 13  1  0
 12 14  1  0
 15 16  1  0
 15 17  1  0
 15 18  1  0
M  CHG  1   6  -1
M  END
>  <PDB_ID>  (731) 
pdb1njj

>  <RESIDUE_NAME>  (731) 
GLU   ILE

>  <FRAG_NAME>  (731) 
ACET   PRPA

>  <FRAG_ATOM_NUM>  (731) 
fragi: 7  fragj: 11

>  <atom.prop.CHAIN_ID>  (731) 
A A A A A A A Z Z Z Z Z Z Z Z Z Z Z

>  <atom.prop.IS_HEAVY_ATOM>  (731) 
1 0 0 0 1 1 1 1 0 0 0 1 0 0 1 0 0 0

>  <DIFUSE_FUNC_ATOM>  (731) 
atom 6   atom 7   

>  <FINAL_SINGLE_POINT_ENERGY>  (731) 
0

>  <NONCOV_INTER_ENERGY_QM>  (731) 
0

>  <FF_Energy>  (731) 
38.6

>  <QM_Energy>  (731) 
7.06

>  <source>  (731) 
ACET_PRPA_07

>  <Index>  (731) 
4048

$$$$
ACET-pdb1njj-B-ASP-73:PRPA-pdb1njj-B-VAL-76
     RDKit          3D

 18 16  0  0  0  0  0  0  0  0999 V2000
   -0.0033    1.5159   -0.0362 C   0  0  0  0  0  0  0  0  0  0  0  0
    0.8777    1.8444    0.2744 H   0  0  0  0  0  0  0  0  0  0  0  0
   -0.7319    1.8472    0.5462 H   0  0  0  0  0  0  0  0  0  0  0  0
   -0.1720    1.8984   -1.0429 H   0  0  0  0  0  0  0  0  0  0  0  0
    0.0000    0.0000    0.0000 C   0  0  0  0  0  0  0  0  0  0  0  0
   -1.0957   -0.5960   -0.0000 O   0  0  0  0  0  1  0  0  0  0  0  0
    1.0957   -0.5971    0.0000 O   0  0  0  0  0  0  0  0  0  0  0  0
   -4.6288    1.5130    1.0855 C   0  0  0  0  0  0  0  0  0  0  0  0
   -5.0462    1.2285    1.9516 H   0  0  0  0  0  0  0  0  0  0  0  0
   -4.2389    0.6277    0.5831 H   0  0  0  0  0  0  0  0  0  0  0  0
   -5.4065    1.9691    0.4730 H   0  0  0  0  0  0  0  0  0  0  0  0
   -3.5243    2.5510    1.3402 C   0  0  0  0  0  0  0  0  0  0  0  0
   -3.1662    2.8356    0.4594 H   0  0  0  0  0  0  0  0  0  0  0  0
   -3.9526    3.4353    1.8119 H   0  0  0  0  0  0  0  0  0  0  0  0
   -2.4437    1.9514    2.2250 C   0  0  0  0  0  0  0  0  0  0  0  0
   -1.5870    1.8972    1.7115 H   0  0  0  0  0  0  0  0  0  0  0  0
   -2.3160    2.5308    3.0303 H   0  0  0  0  0  0  0  0  0  0  0  0
   -2.7217    1.0343    2.5115 H   0  0  0  0  0  0  0  0  0  0  0  0
  1  5  1  0
  5  6  1  0
  5  7  2  0
  1  2  1  0
  1  3  1  0
  1  4  1  0
  8 12  1  0
 12 15  1  0
  8  9  1  0
  8 10  1  0
  8 11  1  0
 12 13  1  0
 12 14  1  0
 15 16  1  0
 15 17  1  0
 15 18  1  0
M  CHG  1   6  -1
M  END
>  <PDB_ID>  (732) 
pdb1njj

>  <RESIDUE_NAME>  (732) 
ASP   VAL

>  <FRAG_NAME>  (732) 
ACET   PRPA

>  <FRAG_ATOM_NUM>  (732) 
fragi: 7  fragj: 11

>  <atom.prop.CHAIN_ID>  (732) 
A A A A A A A Z Z Z Z Z Z Z Z Z Z Z

>  <atom.prop.IS_HEAVY_ATOM>  (732) 
1 0 0 0 1 1 1 1 0 0 0 1 0 0 1 0 0 0

>  <DIFUSE_FUNC_ATOM>  (732) 
atom 6   atom 7   

>  <FINAL_SINGLE_POINT_ENERGY>  (732) 
0

>  <NONCOV_INTER_ENERGY_QM>  (732) 
0

>  <FF_Energy>  (732) 
40.91

>  <QM_Energy>  (732) 
2.46

>  <source>  (732) 
ACET_PRPA_07

>  <Index>  (732) 
4665

$$$$
ACET-pdb2rhh-A-GLU-181:PRPA-pdb2rhh-A-PRO-178
     RDKit          3D

 18 16  0  0  0  0  0  0  0  0999 V2000
    0.0142    1.5284    0.0395 C   0  0  0  0  0  0  0  0  0  0  0  0
    0.8016    1.8220   -0.4855 H   0  0  0  0  0  0  0  0  0  0  0  0
    0.1050    1.7899    0.9910 H   0  0  0  0  0  0  0  0  0  0  0  0
   -0.8783    1.9990   -0.3728 H   0  0  0  0  0  0  0  0  0  0  0  0
    0.0000    0.0000    0.0000 C   0  0  0  0  0  0  0  0  0  0  0  0
   -1.1092   -0.6014    0.0000 O   0  0  0  0  0  1  0  0  0  0  0  0
    1.1092   -0.6082    0.0000 O   0  0  0  0  0  0  0  0  0  0  0  0
   -2.2718   -1.7314   -3.2352 C   0  0  0  0  0  0  0  0  0  0  0  0
   -2.5666   -2.4762   -3.8601 H   0  0  0  0  0  0  0  0  0  0  0  0
   -1.7759   -0.9382   -3.7946 H   0  0  0  0  0  0  0  0  0  0  0  0
   -3.1143   -1.3750   -2.6426 H   0  0  0  0  0  0  0  0  0  0  0  0
   -1.1681   -2.2393   -2.3186 C   0  0  0  0  0  0  0  0  0  0  0  0
   -1.2661   -1.8444   -1.3966 H   0  0  0  0  0  0  0  0  0  0  0  0
   -1.2097   -3.2417   -2.2377 H   0  0  0  0  0  0  0  0  0  0  0  0
    0.0783   -1.8022   -2.9611 C   0  0  0  0  0  0  0  0  0  0  0  0
    0.8281   -1.7440   -2.2822 H   0  0  0  0  0  0  0  0  0  0  0  0
    0.3641   -2.4655   -3.6712 H   0  0  0  0  0  0  0  0  0  0  0  0
   -0.1420   -0.8265   -3.3942 H   0  0  0  0  0  0  0  0  0  0  0  0
  1  5  1  0
  5  6  1  0
  5  7  2  0
  1  2  1  0
  1  3  1  0
  1  4  1  0
  8 12  1  0
 12 15  1  0
  8  9  1  0
  8 10  1  0
  8 11  1  0
 12 13  1  0
 12 14  1  0
 15 16  1  0
 15 17  1  0
 15 18  1  0
M  CHG  1   6  -1
M  END
>  <PDB_ID>  (733) 
pdb2rhh

>  <RESIDUE_NAME>  (733) 
GLU   PRO

>  <FRAG_NAME>  (733) 
ACET   PRPA

>  <FRAG_ATOM_NUM>  (733) 
fragi: 7  fragj: 11

>  <atom.prop.CHAIN_ID>  (733) 
A A A A A A A Z Z Z Z Z Z Z Z Z Z Z

>  <atom.prop.IS_HEAVY_ATOM>  (733) 
1 0 0 0 1 1 1 1 0 0 0 1 0 0 1 0 0 0

>  <DIFUSE_FUNC_ATOM>  (733) 
atom 6   atom 7   

>  <FINAL_SINGLE_POINT_ENERGY>  (733) 
0

>  <NONCOV_INTER_ENERGY_QM>  (733) 
0

>  <FF_Energy>  (733) 
19.06

>  <QM_Energy>  (733) 
-2.55

>  <source>  (733) 
ACET_PRPA_07

>  <Index>  (733) 
4774

$$$$
ACET-pdb2rhh-A-GLU-181:PRPA-pdb2rhh-A-PRO-178
     RDKit          3D

 18 16  0  0  0  0  0  0  0  0999 V2000
    0.0142    1.5284    0.0395 C   0  0  0  0  0  0  0  0  0  0  0  0
    0.8016    1.8220   -0.4855 H   0  0  0  0  0  0  0  0  0  0  0  0
    0.1050    1.7899    0.9910 H   0  0  0  0  0  0  0  0  0  0  0  0
   -0.8783    1.9990   -0.3728 H   0  0  0  0  0  0  0  0  0  0  0  0
    0.0000    0.0000    0.0000 C   0  0  0  0  0  0  0  0  0  0  0  0
   -1.1092   -0.6014    0.0000 O   0  0  0  0  0  1  0  0  0  0  0  0
    1.1092   -0.6082    0.0000 O   0  0  0  0  0  0  0  0  0  0  0  0
   -1.1681   -2.2393   -2.3186 C   0  0  0  0  0  0  0  0  0  0  0  0
   -1.2661   -1.8444   -1.3966 H   0  0  0  0  0  0  0  0  0  0  0  0
   -1.2097   -3.2417   -2.2377 H   0  0  0  0  0  0  0  0  0  0  0  0
   -1.9585   -1.8756   -2.9751 H   0  0  0  0  0  0  0  0  0  0  0  0
    0.0783   -1.8022   -2.9611 C   0  0  0  0  0  0  0  0  0  0  0  0
    0.8281   -1.7440   -2.2822 H   0  0  0  0  0  0  0  0  0  0  0  0
    0.3641   -2.4655   -3.6712 H   0  0  0  0  0  0  0  0  0  0  0  0
   -0.2185   -0.4878   -3.5446 C   0  0  0  0  0  0  0  0  0  0  0  0
   -0.1608    0.2491   -2.8726 H   0  0  0  0  0  0  0  0  0  0  0  0
    0.3715   -0.2754   -4.3244 H   0  0  0  0  0  0  0  0  0  0  0  0
   -1.2492   -0.6188   -3.8744 H   0  0  0  0  0  0  0  0  0  0  0  0
  1  5  1  0
  5  6  1  0
  5  7  2  0
  1  2  1  0
  1  3  1  0
  1  4  1  0
  8 12  1  0
 12 15  1  0
  8  9  1  0
  8 10  1  0
  8 11  1  0
 12 13  1  0
 12 14  1  0
 15 16  1  0
 15 17  1  0
 15 18  1  0
M  CHG  1   6  -1
M  END
>  <PDB_ID>  (734) 
pdb2rhh

>  <RESIDUE_NAME>  (734) 
GLU   PRO

>  <FRAG_NAME>  (734) 
ACET   PRPA

>  <FRAG_ATOM_NUM>  (734) 
fragi: 7  fragj: 11

>  <atom.prop.CHAIN_ID>  (734) 
A A A A A A A Z Z Z Z Z Z Z Z Z Z Z

>  <atom.prop.IS_HEAVY_ATOM>  (734) 
1 0 0 0 1 1 1 1 0 0 0 1 0 0 1 0 0 0

>  <DIFUSE_FUNC_ATOM>  (734) 
atom 6   atom 7   

>  <FINAL_SINGLE_POINT_ENERGY>  (734) 
0

>  <NONCOV_INTER_ENERGY_QM>  (734) 
0

>  <FF_Energy>  (734) 
16.89

>  <QM_Energy>  (734) 
-3.24

>  <source>  (734) 
ACET_PRPA_07

>  <Index>  (734) 
4781

$$$$
ACET-pdb2rcv-A-GLU-193:PRPA-pdb2rcv-A-LEU-197
     RDKit          3D

 18 16  0  0  0  0  0  0  0  0999 V2000
    0.0055    1.5227   -0.0098 C   0  0  0  0  0  0  0  0  0  0  0  0
   -0.1425    1.8157   -0.9362 H   0  0  0  0  0  0  0  0  0  0  0  0
    0.8760    1.8199    0.3392 H   0  0  0  0  0  0  0  0  0  0  0  0
   -0.7747    1.9636    0.6106 H   0  0  0  0  0  0  0  0  0  0  0  0
    0.0000    0.0000    0.0000 C   0  0  0  0  0  0  0  0  0  0  0  0
   -1.0994   -0.6031   -0.0000 O   0  0  0  0  0  1  0  0  0  0  0  0
    1.0994   -0.5944    0.0000 O   0  0  0  0  0  0  0  0  0  0  0  0
    4.7457    0.8149    3.3837 C   0  0  0  0  0  0  0  0  0  0  0  0
    4.9474    1.6496    3.8777 H   0  0  0  0  0  0  0  0  0  0  0  0
    5.5151    0.5364    2.8267 H   0  0  0  0  0  0  0  0  0  0  0  0
    4.5569    0.0288    4.1148 H   0  0  0  0  0  0  0  0  0  0  0  0
    3.5775    1.1116    2.4391 C   0  0  0  0  0  0  0  0  0  0  0  0
    2.7873    1.3790    2.9772 H   0  0  0  0  0  0  0  0  0  0  0  0
    3.8632    1.9280    1.7759 H   0  0  0  0  0  0  0  0  0  0  0  0
    3.1944   -0.1293    1.6445 C   0  0  0  0  0  0  0  0  0  0  0  0
    2.9226   -0.8587    2.2727 H   0  0  0  0  0  0  0  0  0  0  0  0
    2.4311    0.0868    1.0347 H   0  0  0  0  0  0  0  0  0  0  0  0
    3.9787   -0.4334    1.1013 H   0  0  0  0  0  0  0  0  0  0  0  0
  1  5  1  0
  5  6  1  0
  5  7  2  0
  1  2  1  0
  1  3  1  0
  1  4  1  0
  8 12  1  0
 12 15  1  0
  8  9  1  0
  8 10  1  0
  8 11  1  0
 12 13  1  0
 12 14  1  0
 15 16  1  0
 15 17  1  0
 15 18  1  0
M  CHG  1   6  -1
M  END
>  <PDB_ID>  (735) 
pdb2rcv

>  <RESIDUE_NAME>  (735) 
GLU   LEU

>  <FRAG_NAME>  (735) 
ACET   PRPA

>  <FRAG_ATOM_NUM>  (735) 
fragi: 7  fragj: 11

>  <atom.prop.CHAIN_ID>  (735) 
A A A A A A A Z Z Z Z Z Z Z Z Z Z Z

>  <atom.prop.IS_HEAVY_ATOM>  (735) 
1 0 0 0 1 1 1 1 0 0 0 1 0 0 1 0 0 0

>  <DIFUSE_FUNC_ATOM>  (735) 
atom 6   atom 7   

>  <FINAL_SINGLE_POINT_ENERGY>  (735) 
0

>  <NONCOV_INTER_ENERGY_QM>  (735) 
0

>  <FF_Energy>  (735) 
25.03

>  <QM_Energy>  (735) 
2.69

>  <source>  (735) 
ACET_PRPA_07

>  <Index>  (735) 
5061

$$$$
ACET-pdb2rcv-A-GLU-193:PRPA-pdb2rcv-A-LEU-197
     RDKit          3D

 18 16  0  0  0  0  0  0  0  0999 V2000
    0.0055    1.5227   -0.0098 C   0  0  0  0  0  0  0  0  0  0  0  0
   -0.1425    1.8157   -0.9362 H   0  0  0  0  0  0  0  0  0  0  0  0
    0.8760    1.8199    0.3392 H   0  0  0  0  0  0  0  0  0  0  0  0
   -0.7747    1.9636    0.6106 H   0  0  0  0  0  0  0  0  0  0  0  0
    0.0000    0.0000    0.0000 C   0  0  0  0  0  0  0  0  0  0  0  0
   -1.0994   -0.6031   -0.0000 O   0  0  0  0  0  1  0  0  0  0  0  0
    1.0994   -0.5944    0.0000 O   0  0  0  0  0  0  0  0  0  0  0  0
    3.9753    2.2482    1.5158 C   0  0  0  0  0  0  0  0  0  0  0  0
    4.7812    1.9834    0.9841 H   0  0  0  0  0  0  0  0  0  0  0  0
    3.2202    2.4543    0.8913 H   0  0  0  0  0  0  0  0  0  0  0  0
    4.1883    3.0624    2.0571 H   0  0  0  0  0  0  0  0  0  0  0  0
    3.5775    1.1116    2.4391 C   0  0  0  0  0  0  0  0  0  0  0  0
    2.7873    1.3790    2.9772 H   0  0  0  0  0  0  0  0  0  0  0  0
    4.4090    0.9004    3.1115 H   0  0  0  0  0  0  0  0  0  0  0  0
    3.1944   -0.1293    1.6445 C   0  0  0  0  0  0  0  0  0  0  0  0
    2.9226   -0.8587    2.2727 H   0  0  0  0  0  0  0  0  0  0  0  0
    2.4311    0.0868    1.0347 H   0  0  0  0  0  0  0  0  0  0  0  0
    3.9787   -0.4334    1.1013 H   0  0  0  0  0  0  0  0  0  0  0  0
  1  5  1  0
  5  6  1  0
  5  7  2  0
  1  2  1  0
  1  3  1  0
  1  4  1  0
  8 12  1  0
 12 15  1  0
  8  9  1  0
  8 10  1  0
  8 11  1  0
 12 13  1  0
 12 14  1  0
 15 16  1  0
 15 17  1  0
 15 18  1  0
M  CHG  1   6  -1
M  END
>  <PDB_ID>  (736) 
pdb2rcv

>  <RESIDUE_NAME>  (736) 
GLU   LEU

>  <FRAG_NAME>  (736) 
ACET   PRPA

>  <FRAG_ATOM_NUM>  (736) 
fragi: 7  fragj: 11

>  <atom.prop.CHAIN_ID>  (736) 
A A A A A A A Z Z Z Z Z Z Z Z Z Z Z

>  <atom.prop.IS_HEAVY_ATOM>  (736) 
1 0 0 0 1 1 1 1 0 0 0 1 0 0 1 0 0 0

>  <DIFUSE_FUNC_ATOM>  (736) 
atom 6   atom 7   

>  <FINAL_SINGLE_POINT_ENERGY>  (736) 
0

>  <NONCOV_INTER_ENERGY_QM>  (736) 
0

>  <FF_Energy>  (736) 
25.06

>  <QM_Energy>  (736) 
2.08

>  <source>  (736) 
ACET_PRPA_07

>  <Index>  (736) 
5072

$$$$
ACET-pdb1o7f-A-GLU-25:PRPA-pdb1o7f-A-ARG-22
     RDKit          3D

 18 16  0  0  0  0  0  0  0  0999 V2000
    0.0008    1.5167    0.0042 C   0  0  0  0  0  0  0  0  0  0  0  0
   -0.2870    1.8109    0.8958 H   0  0  0  0  0  0  0  0  0  0  0  0
   -0.6101    1.8156   -0.7048 H   0  0  0  0  0  0  0  0  0  0  0  0
    0.9884    1.9339   -0.1930 H   0  0  0  0  0  0  0  0  0  0  0  0
    0.0000    0.0000    0.0000 C   0  0  0  0  0  0  0  0  0  0  0  0
   -1.0997   -0.5964    0.0000 O   0  0  0  0  0  1  0  0  0  0  0  0
    1.0997   -0.5924   -0.0000 O   0  0  0  0  0  0  0  0  0  0  0  0
   -0.6488    0.3783   -3.7677 C   0  0  0  0  0  0  0  0  0  0  0  0
   -0.2125    0.6485   -2.9052 H   0  0  0  0  0  0  0  0  0  0  0  0
   -1.5194    0.8689   -3.8585 H   0  0  0  0  0  0  0  0  0  0  0  0
    0.0008    0.6838   -4.5880 H   0  0  0  0  0  0  0  0  0  0  0  0
   -0.9594   -1.1104   -3.6864 C   0  0  0  0  0  0  0  0  0  0  0  0
   -1.4067   -1.3947   -4.5364 H   0  0  0  0  0  0  0  0  0  0  0  0
   -0.0994   -1.6144   -3.5826 H   0  0  0  0  0  0  0  0  0  0  0  0
   -1.8492   -1.4323   -2.5392 C   0  0  0  0  0  0  0  0  0  0  0  0
   -1.3999   -1.1478   -1.6911 H   0  0  0  0  0  0  0  0  0  0  0  0
   -2.7067   -0.9268   -2.6453 H   0  0  0  0  0  0  0  0  0  0  0  0
   -2.0725   -2.4976   -2.4795 H   0  0  0  0  0  0  0  0  0  0  0  0
  1  5  1  0
  5  6  1  0
  5  7  2  0
  1  2  1  0
  1  3  1  0
  1  4  1  0
  8 12  1  0
 12 15  1  0
  8  9  1  0
  8 10  1  0
  8 11  1  0
 12 13  1  0
 12 14  1  0
 15 16  1  0
 15 17  1  0
 15 18  1  0
M  CHG  1   6  -1
M  END
>  <PDB_ID>  (737) 
pdb1o7f

>  <RESIDUE_NAME>  (737) 
GLU   ARG

>  <FRAG_NAME>  (737) 
ACET   PRPA

>  <FRAG_ATOM_NUM>  (737) 
fragi: 7  fragj: 11

>  <atom.prop.CHAIN_ID>  (737) 
A A A A A A A Z Z Z Z Z Z Z Z Z Z Z

>  <atom.prop.IS_HEAVY_ATOM>  (737) 
1 0 0 0 1 1 1 1 0 0 0 1 0 0 1 0 0 0

>  <DIFUSE_FUNC_ATOM>  (737) 
atom 6   atom 7   

>  <FINAL_SINGLE_POINT_ENERGY>  (737) 
0

>  <NONCOV_INTER_ENERGY_QM>  (737) 
0

>  <FF_Energy>  (737) 
27.23

>  <QM_Energy>  (737) 
0.08

>  <source>  (737) 
ACET_PRPA_07

>  <Index>  (737) 
5385

$$$$
ACET-pdb2spc-A-GLU-45:PRPA-pdb2spc-A-LYS-42
     RDKit          3D

 18 16  0  0  0  0  0  0  0  0999 V2000
    0.2670    1.4943   -0.0073 C   0  0  0  0  0  0  0  0  0  0  0  0
    0.3030    1.7882   -0.9393 H   0  0  0  0  0  0  0  0  0  0  0  0
    1.1021    1.6513    0.4777 H   0  0  0  0  0  0  0  0  0  0  0  0
   -0.5255    2.0523    0.4915 H   0  0  0  0  0  0  0  0  0  0  0  0
    0.0000    0.0000    0.0000 C   0  0  0  0  0  0  0  0  0  0  0  0
   -1.1583   -0.4951   -0.0000 O   0  0  0  0  0  1  0  0  0  0  0  0
    1.1583   -0.6816   -0.0000 O   0  0  0  0  0  0  0  0  0  0  0  0
    0.1540   -0.4445   -4.4121 C   0  0  0  0  0  0  0  0  0  0  0  0
   -0.5316   -1.0022   -4.8898 H   0  0  0  0  0  0  0  0  0  0  0  0
    0.8004   -0.0784   -5.0890 H   0  0  0  0  0  0  0  0  0  0  0  0
   -0.3569    0.3947   -3.9399 H   0  0  0  0  0  0  0  0  0  0  0  0
    0.9227   -1.3493   -3.4655 C   0  0  0  0  0  0  0  0  0  0  0  0
    1.2777   -2.1362   -3.9768 H   0  0  0  0  0  0  0  0  0  0  0  0
    1.6931   -0.8401   -3.0738 H   0  0  0  0  0  0  0  0  0  0  0  0
    0.0513   -1.8704   -2.3180 C   0  0  0  0  0  0  0  0  0  0  0  0
   -0.1181   -1.0987   -1.6686 H   0  0  0  0  0  0  0  0  0  0  0  0
   -0.8628   -2.1244   -2.6992 H   0  0  0  0  0  0  0  0  0  0  0  0
    0.4111   -2.7180   -1.7347 H   0  0  0  0  0  0  0  0  0  0  0  0
  1  5  1  0
  5  6  1  0
  5  7  2  0
  1  2  1  0
  1  3  1  0
  1  4  1  0
  8 12  1  0
 12 15  1  0
  8  9  1  0
  8 10  1  0
  8 11  1  0
 12 13  1  0
 12 14  1  0
 15 16  1  0
 15 17  1  0
 15 18  1  0
M  CHG  1   6  -1
M  END
>  <PDB_ID>  (738) 
pdb2spc

>  <RESIDUE_NAME>  (738) 
GLU   LYS

>  <FRAG_NAME>  (738) 
ACET   PRPA

>  <FRAG_ATOM_NUM>  (738) 
fragi: 7  fragj: 11

>  <atom.prop.CHAIN_ID>  (738) 
A A A A A A A Z Z Z Z Z Z Z Z Z Z Z

>  <atom.prop.IS_HEAVY_ATOM>  (738) 
1 0 0 0 1 1 1 1 0 0 0 1 0 0 1 0 0 0

>  <DIFUSE_FUNC_ATOM>  (738) 
atom 6   atom 7   

>  <FINAL_SINGLE_POINT_ENERGY>  (738) 
0

>  <NONCOV_INTER_ENERGY_QM>  (738) 
0

>  <FF_Energy>  (738) 
27.99

>  <QM_Energy>  (738) 
4.33

>  <source>  (738) 
ACET_PRPA_07

>  <Index>  (738) 
5514

$$$$
ACET-pdb2spc-A-GLU-45:PRPA-pdb2spc-A-LYS-42
     RDKit          3D

 18 16  0  0  0  0  0  0  0  0999 V2000
    0.2670    1.4943   -0.0073 C   0  0  0  0  0  0  0  0  0  0  0  0
    0.3030    1.7882   -0.9393 H   0  0  0  0  0  0  0  0  0  0  0  0
    1.1021    1.6513    0.4777 H   0  0  0  0  0  0  0  0  0  0  0  0
   -0.5255    2.0523    0.4915 H   0  0  0  0  0  0  0  0  0  0  0  0
    0.0000    0.0000    0.0000 C   0  0  0  0  0  0  0  0  0  0  0  0
   -1.1583   -0.4951   -0.0000 O   0  0  0  0  0  1  0  0  0  0  0  0
    1.1583   -0.6816   -0.0000 O   0  0  0  0  0  0  0  0  0  0  0  0
    0.9227   -1.3493   -3.4655 C   0  0  0  0  0  0  0  0  0  0  0  0
    1.2777   -2.1362   -3.9768 H   0  0  0  0  0  0  0  0  0  0  0  0
    1.6931   -0.8401   -3.0738 H   0  0  0  0  0  0  0  0  0  0  0  0
    0.3709   -0.6997   -4.1451 H   0  0  0  0  0  0  0  0  0  0  0  0
    0.0513   -1.8704   -2.3180 C   0  0  0  0  0  0  0  0  0  0  0  0
   -0.1181   -1.0987   -1.6686 H   0  0  0  0  0  0  0  0  0  0  0  0
   -0.8628   -2.1244   -2.6992 H   0  0  0  0  0  0  0  0  0  0  0  0
    0.5603   -3.0693   -1.4930 C   0  0  0  0  0  0  0  0  0  0  0  0
    0.0950   -3.0365   -0.5774 H   0  0  0  0  0  0  0  0  0  0  0  0
    0.2123   -3.9262   -1.9409 H   0  0  0  0  0  0  0  0  0  0  0  0
    1.6364   -3.1574   -1.3438 H   0  0  0  0  0  0  0  0  0  0  0  0
  1  5  1  0
  5  6  1  0
  5  7  2  0
  1  2  1  0
  1  3  1  0
  1  4  1  0
  8 12  1  0
 12 15  1  0
  8  9  1  0
  8 10  1  0
  8 11  1  0
 12 13  1  0
 12 14  1  0
 15 16  1  0
 15 17  1  0
 15 18  1  0
M  CHG  1   6  -1
M  END
>  <PDB_ID>  (739) 
pdb2spc

>  <RESIDUE_NAME>  (739) 
GLU   LYS

>  <FRAG_NAME>  (739) 
ACET   PRPA

>  <FRAG_ATOM_NUM>  (739) 
fragi: 7  fragj: 11

>  <atom.prop.CHAIN_ID>  (739) 
A A A A A A A Z Z Z Z Z Z Z Z Z Z Z

>  <atom.prop.IS_HEAVY_ATOM>  (739) 
1 0 0 0 1 1 1 1 0 0 0 1 0 0 1 0 0 0

>  <DIFUSE_FUNC_ATOM>  (739) 
atom 6   atom 7   

>  <FINAL_SINGLE_POINT_ENERGY>  (739) 
0

>  <NONCOV_INTER_ENERGY_QM>  (739) 
0

>  <FF_Energy>  (739) 
18.65

>  <QM_Energy>  (739) 
2.44

>  <source>  (739) 
ACET_PRPA_07

>  <Index>  (739) 
5530

$$$$
ACET-pdb2rfb-A-ASP-29:PRPA-pdb2rfb-A-LYS-26
     RDKit          3D

 18 16  0  0  0  0  0  0  0  0999 V2000
    0.0129    1.4861    0.0289 C   0  0  0  0  0  0  0  0  0  0  0  0
    0.7981    1.8198   -0.4881 H   0  0  0  0  0  0  0  0  0  0  0  0
    0.0708    1.7976    0.9734 H   0  0  0  0  0  0  0  0  0  0  0  0
   -0.8853    1.9191   -0.4113 H   0  0  0  0  0  0  0  0  0  0  0  0
    0.0000    0.0000    0.0000 C   0  0  0  0  0  0  0  0  0  0  0  0
   -1.1003   -0.6127    0.0000 O   0  0  0  0  0  1  0  0  0  0  0  0
    1.1003   -0.5771   -0.0000 O   0  0  0  0  0  0  0  0  0  0  0  0
    3.6621   -0.5298   -3.0925 C   0  0  0  0  0  0  0  0  0  0  0  0
    4.1843   -0.5289   -3.9330 H   0  0  0  0  0  0  0  0  0  0  0  0
    4.2498   -0.4030   -2.3061 H   0  0  0  0  0  0  0  0  0  0  0  0
    2.9134    0.2618   -3.1243 H   0  0  0  0  0  0  0  0  0  0  0  0
    2.9464   -1.8622   -2.9613 C   0  0  0  0  0  0  0  0  0  0  0  0
    2.0514   -1.7999   -3.4195 H   0  0  0  0  0  0  0  0  0  0  0  0
    3.4886   -2.5742   -3.4243 H   0  0  0  0  0  0  0  0  0  0  0  0
    2.7008   -2.3280   -1.5126 C   0  0  0  0  0  0  0  0  0  0  0  0
    3.5337   -2.2209   -0.9902 H   0  0  0  0  0  0  0  0  0  0  0  0
    1.9623   -1.7985   -1.1204 H   0  0  0  0  0  0  0  0  0  0  0  0
    2.4173   -3.3805   -1.5016 H   0  0  0  0  0  0  0  0  0  0  0  0
  1  5  1  0
  5  6  1  0
  5  7  2  0
  1  2  1  0
  1  3  1  0
  1  4  1  0
  8 12  1  0
 12 15  1  0
  8  9  1  0
  8 10  1  0
  8 11  1  0
 12 13  1  0
 12 14  1  0
 15 16  1  0
 15 17  1  0
 15 18  1  0
M  CHG  1   6  -1
M  END
>  <PDB_ID>  (740) 
pdb2rfb

>  <RESIDUE_NAME>  (740) 
ASP   LYS

>  <FRAG_NAME>  (740) 
ACET   PRPA

>  <FRAG_ATOM_NUM>  (740) 
fragi: 7  fragj: 11

>  <atom.prop.CHAIN_ID>  (740) 
A A A A A A A Z Z Z Z Z Z Z Z Z Z Z

>  <atom.prop.IS_HEAVY_ATOM>  (740) 
1 0 0 0 1 1 1 1 0 0 0 1 0 0 1 0 0 0

>  <DIFUSE_FUNC_ATOM>  (740) 
atom 6   atom 7   

>  <FINAL_SINGLE_POINT_ENERGY>  (740) 
0

>  <NONCOV_INTER_ENERGY_QM>  (740) 
0

>  <FF_Energy>  (740) 
17.3

>  <QM_Energy>  (740) 
-0.54

>  <source>  (740) 
ACET_PRPA_07

>  <Index>  (740) 
5677

$$$$
ACET-pdb2r9q-D-GLU-322:PRPA-pdb2r9q-B-ARG-152
     RDKit          3D

 18 16  0  0  0  0  0  0  0  0999 V2000
    0.0009    1.5390    0.0474 C   0  0  0  0  0  0  0  0  0  0  0  0
    0.8321    1.8439   -0.3820 H   0  0  0  0  0  0  0  0  0  0  0  0
   -0.0440    1.8006    0.9945 H   0  0  0  0  0  0  0  0  0  0  0  0
   -0.8385    1.9995   -0.4736 H   0  0  0  0  0  0  0  0  0  0  0  0
    0.0000    0.0000    0.0000 C   0  0  0  0  0  0  0  0  0  0  0  0
   -1.1113   -0.5893   -0.0000 O   0  0  0  0  0  1  0  0  0  0  0  0
    1.1113   -0.6194    0.0000 O   0  0  0  0  0  0  0  0  0  0  0  0
   -2.8901   -4.3757   -1.4338 C   0  0  0  0  0  0  0  0  0  0  0  0
   -3.3511   -4.4286   -0.5278 H   0  0  0  0  0  0  0  0  0  0  0  0
   -2.0990   -5.0150   -1.3965 H   0  0  0  0  0  0  0  0  0  0  0  0
   -3.5873   -4.7657   -2.1755 H   0  0  0  0  0  0  0  0  0  0  0  0
   -2.3830   -3.0085   -1.6267 C   0  0  0  0  0  0  0  0  0  0  0  0
   -1.4628   -2.9081   -1.1846 H   0  0  0  0  0  0  0  0  0  0  0  0
   -2.2295   -2.8274   -2.6242 H   0  0  0  0  0  0  0  0  0  0  0  0
   -3.2486   -1.8799   -1.1035 C   0  0  0  0  0  0  0  0  0  0  0  0
   -3.7960   -2.2387   -0.3254 H   0  0  0  0  0  0  0  0  0  0  0  0
   -2.6337   -1.1635   -0.7259 H   0  0  0  0  0  0  0  0  0  0  0  0
   -3.9285   -1.4092   -1.8136 H   0  0  0  0  0  0  0  0  0  0  0  0
  1  5  1  0
  5  6  1  0
  5  7  2  0
  1  2  1  0
  1  3  1  0
  1  4  1  0
  8 12  1  0
 12 15  1  0
  8  9  1  0
  8 10  1  0
  8 11  1  0
 12 13  1  0
 12 14  1  0
 15 16  1  0
 15 17  1  0
 15 18  1  0
M  CHG  1   6  -1
M  END
>  <PDB_ID>  (741) 
pdb2r9q

>  <RESIDUE_NAME>  (741) 
GLU   ARG

>  <FRAG_NAME>  (741) 
ACET   PRPA

>  <FRAG_ATOM_NUM>  (741) 
fragi: 7  fragj: 11

>  <atom.prop.CHAIN_ID>  (741) 
A A A A A A A Z Z Z Z Z Z Z Z Z Z Z

>  <atom.prop.IS_HEAVY_ATOM>  (741) 
1 0 0 0 1 1 1 1 0 0 0 1 0 0 1 0 0 0

>  <DIFUSE_FUNC_ATOM>  (741) 
atom 6   atom 7   

>  <FINAL_SINGLE_POINT_ENERGY>  (741) 
0

>  <NONCOV_INTER_ENERGY_QM>  (741) 
0

>  <FF_Energy>  (741) 
31.36

>  <QM_Energy>  (741) 
-0.99

>  <source>  (741) 
ACET_PRPA_07

>  <Index>  (741) 
6167

$$$$
ACET-pdb1nbw-C-GLU-74:PRPA-pdb1nbw-C-ILE-375
     RDKit          3D

 18 16  0  0  0  0  0  0  0  0999 V2000
   -0.0075    1.5062   -0.0169 C   0  0  0  0  0  0  0  0  0  0  0  0
    0.9053    1.8119    0.1709 H   0  0  0  0  0  0  0  0  0  0  0  0
   -0.6534    1.8089    0.6566 H   0  0  0  0  0  0  0  0  0  0  0  0
   -0.3096    1.8966   -0.9887 H   0  0  0  0  0  0  0  0  0  0  0  0
    0.0000    0.0000    0.0000 C   0  0  0  0  0  0  0  0  0  0  0  0
   -1.0987   -0.5955   -0.0000 O   0  0  0  0  0  1  0  0  0  0  0  0
    1.0987   -0.5900   -0.0000 O   0  0  0  0  0  0  0  0  0  0  0  0
    2.8397   -2.8665    2.6468 C   0  0  0  0  0  0  0  0  0  0  0  0
    3.6668   -2.8022    3.2417 H   0  0  0  0  0  0  0  0  0  0  0  0
    3.1032   -3.5481    1.8380 H   0  0  0  0  0  0  0  0  0  0  0  0
    2.0229   -3.1909    3.2916 H   0  0  0  0  0  0  0  0  0  0  0  0
    2.5120   -1.4631    2.0711 C   0  0  0  0  0  0  0  0  0  0  0  0
    2.2152   -1.5857    1.1333 H   0  0  0  0  0  0  0  0  0  0  0  0
    3.4088   -0.8434    2.0713 H   0  0  0  0  0  0  0  0  0  0  0  0
    1.4323   -0.7830    2.8878 C   0  0  0  0  0  0  0  0  0  0  0  0
    1.2197    0.1091    2.4896 H   0  0  0  0  0  0  0  0  0  0  0  0
    0.6070   -1.3466    2.8914 H   0  0  0  0  0  0  0  0  0  0  0  0
    1.7489   -0.6579    3.8274 H   0  0  0  0  0  0  0  0  0  0  0  0
  1  5  1  0
  5  6  1  0
  5  7  2  0
  1  2  1  0
  1  3  1  0
  1  4  1  0
  8 12  1  0
 12 15  1  0
  8  9  1  0
  8 10  1  0
  8 11  1  0
 12 13  1  0
 12 14  1  0
 15 16  1  0
 15 17  1  0
 15 18  1  0
M  CHG  1   6  -1
M  END
>  <PDB_ID>  (742) 
pdb1nbw

>  <RESIDUE_NAME>  (742) 
GLU   ILE

>  <FRAG_NAME>  (742) 
ACET   PRPA

>  <FRAG_ATOM_NUM>  (742) 
fragi: 7  fragj: 11

>  <atom.prop.CHAIN_ID>  (742) 
A A A A A A A Z Z Z Z Z Z Z Z Z Z Z

>  <atom.prop.IS_HEAVY_ATOM>  (742) 
1 0 0 0 1 1 1 1 0 0 0 1 0 0 1 0 0 0

>  <DIFUSE_FUNC_ATOM>  (742) 
atom 6   atom 7   

>  <FINAL_SINGLE_POINT_ENERGY>  (742) 
0

>  <NONCOV_INTER_ENERGY_QM>  (742) 
0

>  <FF_Energy>  (742) 
23.04

>  <QM_Energy>  (742) 
0.49

>  <source>  (742) 
ACET_PRPA_07

>  <Index>  (742) 
6857

$$$$
ACET-pdb1nbw-C-GLU-74:PRPA-pdb1nbw-C-ILE-375
     RDKit          3D

 18 16  0  0  0  0  0  0  0  0999 V2000
   -0.0075    1.5062   -0.0169 C   0  0  0  0  0  0  0  0  0  0  0  0
    0.9053    1.8119    0.1709 H   0  0  0  0  0  0  0  0  0  0  0  0
   -0.6534    1.8089    0.6566 H   0  0  0  0  0  0  0  0  0  0  0  0
   -0.3096    1.8966   -0.9887 H   0  0  0  0  0  0  0  0  0  0  0  0
    0.0000    0.0000    0.0000 C   0  0  0  0  0  0  0  0  0  0  0  0
   -1.0987   -0.5955   -0.0000 O   0  0  0  0  0  1  0  0  0  0  0  0
    1.0987   -0.5900   -0.0000 O   0  0  0  0  0  0  0  0  0  0  0  0
    2.8397   -2.8665    2.6468 C   0  0  0  0  0  0  0  0  0  0  0  0
    3.6668   -2.8022    3.2417 H   0  0  0  0  0  0  0  0  0  0  0  0
    3.1032   -3.5481    1.8380 H   0  0  0  0  0  0  0  0  0  0  0  0
    2.0229   -3.1909    3.2916 H   0  0  0  0  0  0  0  0  0  0  0  0
    2.5120   -1.4631    2.0711 C   0  0  0  0  0  0  0  0  0  0  0  0
    2.2152   -1.5857    1.1333 H   0  0  0  0  0  0  0  0  0  0  0  0
    1.7353   -0.9738    2.6587 H   0  0  0  0  0  0  0  0  0  0  0  0
    3.7655   -0.5968    2.0714 C   0  0  0  0  0  0  0  0  0  0  0  0
    4.5182   -1.1246    1.6897 H   0  0  0  0  0  0  0  0  0  0  0  0
    3.5995    0.1987    1.4947 H   0  0  0  0  0  0  0  0  0  0  0  0
    4.0434   -0.2528    3.0676 H   0  0  0  0  0  0  0  0  0  0  0  0
  1  5  1  0
  5  6  1  0
  5  7  2  0
  1  2  1  0
  1  3  1  0
  1  4  1  0
  8 12  1  0
 12 15  1  0
  8  9  1  0
  8 10  1  0
  8 11  1  0
 12 13  1  0
 12 14  1  0
 15 16  1  0
 15 17  1  0
 15 18  1  0
M  CHG  1   6  -1
M  END
>  <PDB_ID>  (743) 
pdb1nbw

>  <RESIDUE_NAME>  (743) 
GLU   ILE

>  <FRAG_NAME>  (743) 
ACET   PRPA

>  <FRAG_ATOM_NUM>  (743) 
fragi: 7  fragj: 11

>  <atom.prop.CHAIN_ID>  (743) 
A A A A A A A Z Z Z Z Z Z Z Z Z Z Z

>  <atom.prop.IS_HEAVY_ATOM>  (743) 
1 0 0 0 1 1 1 1 0 0 0 1 0 0 1 0 0 0

>  <DIFUSE_FUNC_ATOM>  (743) 
atom 6   atom 7   

>  <FINAL_SINGLE_POINT_ENERGY>  (743) 
0

>  <NONCOV_INTER_ENERGY_QM>  (743) 
0

>  <FF_Energy>  (743) 
20.84

>  <QM_Energy>  (743) 
0.95

>  <source>  (743) 
ACET_PRPA_07

>  <Index>  (743) 
6862

$$$$
ACET-pdb1o61-A-GLU-143:PRPA-pdb1o61-A-GLU-147
     RDKit          3D

 18 16  0  0  0  0  0  0  0  0999 V2000
   -0.0014    1.5216    0.0029 C   0  0  0  0  0  0  0  0  0  0  0  0
   -0.4329    1.8189   -0.8255 H   0  0  0  0  0  0  0  0  0  0  0  0
    0.9308    1.8177    0.0717 H   0  0  0  0  0  0  0  0  0  0  0  0
   -0.5565    1.9352    0.8449 H   0  0  0  0  0  0  0  0  0  0  0  0
    0.0000    0.0000    0.0000 C   0  0  0  0  0  0  0  0  0  0  0  0
   -1.0994   -0.5991   -0.0000 O   0  0  0  0  0  1  0  0  0  0  0  0
    1.0994   -0.5995    0.0000 O   0  0  0  0  0  0  0  0  0  0  0  0
    4.9368   -1.3383    2.0271 C   0  0  0  0  0  0  0  0  0  0  0  0
    4.9076   -2.2030    1.4918 H   0  0  0  0  0  0  0  0  0  0  0  0
    4.0874   -1.3072    2.7094 H   0  0  0  0  0  0  0  0  0  0  0  0
    5.8998   -1.2616    2.5321 H   0  0  0  0  0  0  0  0  0  0  0  0
    4.8131   -0.2196    0.9864 C   0  0  0  0  0  0  0  0  0  0  0  0
    4.8138    0.6503    1.4850 H   0  0  0  0  0  0  0  0  0  0  0  0
    5.6284   -0.2629    0.4048 H   0  0  0  0  0  0  0  0  0  0  0  0
    3.6023   -0.2146    0.0691 C   0  0  0  0  0  0  0  0  0  0  0  0
    2.7926   -0.3746    0.6358 H   0  0  0  0  0  0  0  0  0  0  0  0
    3.5380    0.6953   -0.3449 H   0  0  0  0  0  0  0  0  0  0  0  0
    3.5955   -0.9480   -0.7371 H   0  0  0  0  0  0  0  0  0  0  0  0
  1  5  1  0
  5  6  1  0
  5  7  2  0
  1  2  1  0
  1  3  1  0
  1  4  1  0
  8 12  1  0
 12 15  1  0
  8  9  1  0
  8 10  1  0
  8 11  1  0
 12 13  1  0
 12 14  1  0
 15 16  1  0
 15 17  1  0
 15 18  1  0
M  CHG  1   6  -1
M  END
>  <PDB_ID>  (744) 
pdb1o61

>  <RESIDUE_NAME>  (744) 
GLU   GLU

>  <FRAG_NAME>  (744) 
ACET   PRPA

>  <FRAG_ATOM_NUM>  (744) 
fragi: 7  fragj: 11

>  <atom.prop.CHAIN_ID>  (744) 
A A A A A A A Z Z Z Z Z Z Z Z Z Z Z

>  <atom.prop.IS_HEAVY_ATOM>  (744) 
1 0 0 0 1 1 1 1 0 0 0 1 0 0 1 0 0 0

>  <DIFUSE_FUNC_ATOM>  (744) 
atom 6   atom 7   

>  <FINAL_SINGLE_POINT_ENERGY>  (744) 
0

>  <NONCOV_INTER_ENERGY_QM>  (744) 
0

>  <FF_Energy>  (744) 
14.95

>  <QM_Energy>  (744) 
6.13

>  <source>  (744) 
ACET_PRPA_07

>  <Index>  (744) 
7422

$$$$
ACET-pdb1njj-C-ASP-73:PRPA-pdb1njj-C-VAL-76
     RDKit          3D

 18 16  0  0  0  0  0  0  0  0999 V2000
    0.0006    1.5133   -0.0334 C   0  0  0  0  0  0  0  0  0  0  0  0
    0.8801    1.8407    0.2828 H   0  0  0  0  0  0  0  0  0  0  0  0
   -0.7305    1.8478    0.5439 H   0  0  0  0  0  0  0  0  0  0  0  0
   -0.1608    1.8993   -1.0398 H   0  0  0  0  0  0  0  0  0  0  0  0
    0.0000    0.0000    0.0000 C   0  0  0  0  0  0  0  0  0  0  0  0
   -1.0931   -0.5963    0.0000 O   0  0  0  0  0  1  0  0  0  0  0  0
    1.0931   -0.5991   -0.0000 O   0  0  0  0  0  0  0  0  0  0  0  0
   -4.6460    1.5243    1.0468 C   0  0  0  0  0  0  0  0  0  0  0  0
   -5.0713    1.2324    1.9065 H   0  0  0  0  0  0  0  0  0  0  0  0
   -4.2593    0.6417    0.5373 H   0  0  0  0  0  0  0  0  0  0  0  0
   -5.4158    1.9926    0.4335 H   0  0  0  0  0  0  0  0  0  0  0  0
   -3.5367    2.5497    1.3195 C   0  0  0  0  0  0  0  0  0  0  0  0
   -3.1691    2.8397    0.4445 H   0  0  0  0  0  0  0  0  0  0  0  0
   -3.9618    3.4334    1.7953 H   0  0  0  0  0  0  0  0  0  0  0  0
   -2.4644    1.9321    2.2046 C   0  0  0  0  0  0  0  0  0  0  0  0
   -2.0100    2.6544    2.7258 H   0  0  0  0  0  0  0  0  0  0  0  0
   -2.8899    1.2800    2.8329 H   0  0  0  0  0  0  0  0  0  0  0  0
   -1.7951    1.4592    1.6319 H   0  0  0  0  0  0  0  0  0  0  0  0
  1  5  1  0
  5  6  1  0
  5  7  2  0
  1  2  1  0
  1  3  1  0
  1  4  1  0
  8 12  1  0
 12 15  1  0
  8  9  1  0
  8 10  1  0
  8 11  1  0
 12 13  1  0
 12 14  1  0
 15 16  1  0
 15 17  1  0
 15 18  1  0
M  CHG  1   6  -1
M  END
>  <PDB_ID>  (745) 
pdb1njj

>  <RESIDUE_NAME>  (745) 
ASP   VAL

>  <FRAG_NAME>  (745) 
ACET   PRPA

>  <FRAG_ATOM_NUM>  (745) 
fragi: 7  fragj: 11

>  <atom.prop.CHAIN_ID>  (745) 
A A A A A A A Z Z Z Z Z Z Z Z Z Z Z

>  <atom.prop.IS_HEAVY_ATOM>  (745) 
1 0 0 0 1 1 1 1 0 0 0 1 0 0 1 0 0 0

>  <DIFUSE_FUNC_ATOM>  (745) 
atom 6   atom 7   

>  <FINAL_SINGLE_POINT_ENERGY>  (745) 
0

>  <NONCOV_INTER_ENERGY_QM>  (745) 
0

>  <FF_Energy>  (745) 
16.34

>  <QM_Energy>  (745) 
0.42

>  <source>  (745) 
ACET_PRPA_07

>  <Index>  (745) 
7657

$$$$
ACET-pdb2uuq-A-GLU-129:PRPA-pdb2uuq-A-ARG-132
     RDKit          3D

 18 16  0  0  0  0  0  0  0  0999 V2000
   -0.0044    1.5350   -0.0025 C   0  0  0  0  0  0  0  0  0  0  0  0
    0.9249    1.8293   -0.1252 H   0  0  0  0  0  0  0  0  0  0  0  0
   -0.3773    1.8266    0.8591 H   0  0  0  0  0  0  0  0  0  0  0  0
   -0.6078    1.9669   -0.8009 H   0  0  0  0  0  0  0  0  0  0  0  0
    0.0000    0.0000    0.0000 C   0  0  0  0  0  0  0  0  0  0  0  0
   -1.0985   -0.6090    0.0000 O   0  0  0  0  0  1  0  0  0  0  0  0
    1.0985   -0.5996    0.0000 O   0  0  0  0  0  0  0  0  0  0  0  0
   -0.8818   -2.4080   -4.0895 C   0  0  0  0  0  0  0  0  0  0  0  0
   -0.3336   -3.2486   -4.0386 H   0  0  0  0  0  0  0  0  0  0  0  0
   -0.2669   -1.6193   -3.9881 H   0  0  0  0  0  0  0  0  0  0  0  0
   -1.3474   -2.3586   -5.0738 H   0  0  0  0  0  0  0  0  0  0  0  0
   -1.8315   -2.4061   -2.8965 C   0  0  0  0  0  0  0  0  0  0  0  0
   -2.3785   -1.5661   -2.9218 H   0  0  0  0  0  0  0  0  0  0  0  0
   -2.4441   -3.1961   -2.9718 H   0  0  0  0  0  0  0  0  0  0  0  0
   -1.1084   -2.4756   -1.6003 C   0  0  0  0  0  0  0  0  0  0  0  0
   -0.5635   -3.3167   -1.5793 H   0  0  0  0  0  0  0  0  0  0  0  0
   -0.4972   -1.6852   -1.5291 H   0  0  0  0  0  0  0  0  0  0  0  0
   -1.7876   -2.4743   -0.7478 H   0  0  0  0  0  0  0  0  0  0  0  0
  1  5  1  0
  5  6  1  0
  5  7  2  0
  1  2  1  0
  1  3  1  0
  1  4  1  0
  8 12  1  0
 12 15  1  0
  8  9  1  0
  8 10  1  0
  8 11  1  0
 12 13  1  0
 12 14  1  0
 15 16  1  0
 15 17  1  0
 15 18  1  0
M  CHG  1   6  -1
M  END
>  <PDB_ID>  (746) 
pdb2uuq

>  <RESIDUE_NAME>  (746) 
GLU   ARG

>  <FRAG_NAME>  (746) 
ACET   PRPA

>  <FRAG_ATOM_NUM>  (746) 
fragi: 7  fragj: 11

>  <atom.prop.CHAIN_ID>  (746) 
A A A A A A A Z Z Z Z Z Z Z Z Z Z Z

>  <atom.prop.IS_HEAVY_ATOM>  (746) 
1 0 0 0 1 1 1 1 0 0 0 1 0 0 1 0 0 0

>  <DIFUSE_FUNC_ATOM>  (746) 
atom 6   atom 7   

>  <FINAL_SINGLE_POINT_ENERGY>  (746) 
0

>  <NONCOV_INTER_ENERGY_QM>  (746) 
0

>  <FF_Energy>  (746) 
26.66

>  <QM_Energy>  (746) 
8.29

>  <source>  (746) 
ACET_PRPA_07

>  <Index>  (746) 
7699

$$$$
ACET-pdb2rus-A-ASP-68:PRPA-pdb2rus-A-ARG-65
     RDKit          3D

 18 16  0  0  0  0  0  0  0  0999 V2000
    0.0164    1.4879    0.0362 C   0  0  0  0  0  0  0  0  0  0  0  0
    0.1286    1.7863    1.0388 H   0  0  0  0  0  0  0  0  0  0  0  0
   -0.9545    1.8282   -0.1816 H   0  0  0  0  0  0  0  0  0  0  0  0
    0.6918    2.1188   -0.5416 H   0  0  0  0  0  0  0  0  0  0  0  0
    0.0000    0.0000    0.0000 C   0  0  0  0  0  0  0  0  0  0  0  0
   -1.0633   -0.6341   -0.0000 O   0  0  0  0  0  1  0  0  0  0  0  0
    1.0633   -0.6667   -0.0000 O   0  0  0  0  0  0  0  0  0  0  0  0
    2.6210   -1.7252    2.0552 C   0  0  0  0  0  0  0  0  0  0  0  0
    2.2304   -1.3727    1.1693 H   0  0  0  0  0  0  0  0  0  0  0  0
    3.2747   -2.5644    1.8169 H   0  0  0  0  0  0  0  0  0  0  0  0
    3.0706   -0.8906    2.5932 H   0  0  0  0  0  0  0  0  0  0  0  0
    1.3193   -2.2562    2.7049 C   0  0  0  0  0  0  0  0  0  0  0  0
    0.8714   -1.4993    3.1564 H   0  0  0  0  0  0  0  0  0  0  0  0
    0.7521   -2.6335    1.9888 H   0  0  0  0  0  0  0  0  0  0  0  0
    1.5681   -3.3533    3.7454 C   0  0  0  0  0  0  0  0  0  0  0  0
    0.7511   -3.8883    3.8525 H   0  0  0  0  0  0  0  0  0  0  0  0
    2.3367   -3.8963    3.4630 H   0  0  0  0  0  0  0  0  0  0  0  0
    1.8041   -2.8715    4.6943 H   0  0  0  0  0  0  0  0  0  0  0  0
  1  5  1  0
  5  6  1  0
  5  7  2  0
  1  2  1  0
  1  3  1  0
  1  4  1  0
  8 12  1  0
 12 15  1  0
  8  9  1  0
  8 10  1  0
  8 11  1  0
 12 13  1  0
 12 14  1  0
 15 16  1  0
 15 17  1  0
 15 18  1  0
M  CHG  1   6  -1
M  END
>  <PDB_ID>  (747) 
pdb2rus

>  <RESIDUE_NAME>  (747) 
ASP   ARG

>  <FRAG_NAME>  (747) 
ACET   PRPA

>  <FRAG_ATOM_NUM>  (747) 
fragi: 7  fragj: 11

>  <atom.prop.CHAIN_ID>  (747) 
A A A A A A A Z Z Z Z Z Z Z Z Z Z Z

>  <atom.prop.IS_HEAVY_ATOM>  (747) 
1 0 0 0 1 1 1 1 0 0 0 1 0 0 1 0 0 0

>  <DIFUSE_FUNC_ATOM>  (747) 
atom 6   atom 7   

>  <FINAL_SINGLE_POINT_ENERGY>  (747) 
0

>  <NONCOV_INTER_ENERGY_QM>  (747) 
0

>  <FF_Energy>  (747) 
27.26

>  <QM_Energy>  (747) 
-2.01

>  <source>  (747) 
ACET_PRPA_07

>  <Index>  (747) 
7879

$$$$
ACET-pdb2uxh-A-GLU-18:PRPA-pdb2uxh-A-ARG-105
     RDKit          3D

 18 16  0  0  0  0  0  0  0  0999 V2000
   -0.0050    1.5372    0.0031 C   0  0  0  0  0  0  0  0  0  0  0  0
    0.0507    1.8256    0.9361 H   0  0  0  0  0  0  0  0  0  0  0  0
   -0.8302    1.8250   -0.4382 H   0  0  0  0  0  0  0  0  0  0  0  0
    0.8422    1.9574   -0.5389 H   0  0  0  0  0  0  0  0  0  0  0  0
    0.0000    0.0000    0.0000 C   0  0  0  0  0  0  0  0  0  0  0  0
   -1.0892   -0.6140   -0.0000 O   0  0  0  0  0  1  0  0  0  0  0  0
    1.0892   -0.6267   -0.0000 O   0  0  0  0  0  0  0  0  0  0  0  0
   -4.7278   -4.1299   -0.3059 C   0  0  0  0  0  0  0  0  0  0  0  0
   -5.3010   -3.4016   -0.7028 H   0  0  0  0  0  0  0  0  0  0  0  0
   -5.2447   -4.5623    0.4433 H   0  0  0  0  0  0  0  0  0  0  0  0
   -4.5757   -4.8842   -1.0779 H   0  0  0  0  0  0  0  0  0  0  0  0
   -3.4866   -3.4799    0.2931 C   0  0  0  0  0  0  0  0  0  0  0  0
   -3.6034   -3.3771    1.2759 H   0  0  0  0  0  0  0  0  0  0  0  0
   -2.6884   -4.0409    0.0988 H   0  0  0  0  0  0  0  0  0  0  0  0
   -3.2346   -2.0851   -0.2989 C   0  0  0  0  0  0  0  0  0  0  0  0
   -2.2600   -1.8792   -0.1915 H   0  0  0  0  0  0  0  0  0  0  0  0
   -3.4583   -2.1238   -1.2749 H   0  0  0  0  0  0  0  0  0  0  0  0
   -3.8200   -1.2940    0.1697 H   0  0  0  0  0  0  0  0  0  0  0  0
  1  5  1  0
  5  6  1  0
  5  7  2  0
  1  2  1  0
  1  3  1  0
  1  4  1  0
  8 12  1  0
 12 15  1  0
  8  9  1  0
  8 10  1  0
  8 11  1  0
 12 13  1  0
 12 14  1  0
 15 16  1  0
 15 17  1  0
 15 18  1  0
M  CHG  1   6  -1
M  END
>  <PDB_ID>  (748) 
pdb2uxh

>  <RESIDUE_NAME>  (748) 
GLU   ARG

>  <FRAG_NAME>  (748) 
ACET   PRPA

>  <FRAG_ATOM_NUM>  (748) 
fragi: 7  fragj: 11

>  <atom.prop.CHAIN_ID>  (748) 
A A A A A A A Z Z Z Z Z Z Z Z Z Z Z

>  <atom.prop.IS_HEAVY_ATOM>  (748) 
1 0 0 0 1 1 1 1 0 0 0 1 0 0 1 0 0 0

>  <DIFUSE_FUNC_ATOM>  (748) 
atom 6   atom 7   

>  <FINAL_SINGLE_POINT_ENERGY>  (748) 
0

>  <NONCOV_INTER_ENERGY_QM>  (748) 
0

>  <FF_Energy>  (748) 
45.55

>  <QM_Energy>  (748) 
3.81

>  <source>  (748) 
ACET_PRPA_07

>  <Index>  (748) 
8197

$$$$
ACET-pdb2r9q-D-GLU-78:PRPA-pdb2r9q-D-LYS-51
     RDKit          3D

 18 16  0  0  0  0  0  0  0  0999 V2000
   -0.0029    1.5136    0.0127 C   0  0  0  0  0  0  0  0  0  0  0  0
    0.8571    1.8140   -0.3531 H   0  0  0  0  0  0  0  0  0  0  0  0
   -0.1347    1.8004    0.9430 H   0  0  0  0  0  0  0  0  0  0  0  0
   -0.8048    1.9287   -0.5980 H   0  0  0  0  0  0  0  0  0  0  0  0
    0.0000    0.0000    0.0000 C   0  0  0  0  0  0  0  0  0  0  0  0
   -1.1010   -0.6013   -0.0000 O   0  0  0  0  0  1  0  0  0  0  0  0
    1.1010   -0.5806    0.0000 O   0  0  0  0  0  0  0  0  0  0  0  0
    3.0680    0.0856    2.7149 C   0  0  0  0  0  0  0  0  0  0  0  0
    3.3349    0.5862    1.8939 H   0  0  0  0  0  0  0  0  0  0  0  0
    3.8816   -0.2166    3.2068 H   0  0  0  0  0  0  0  0  0  0  0  0
    2.4992    0.7546    3.3607 H   0  0  0  0  0  0  0  0  0  0  0  0
    2.2439   -1.1214    2.3197 C   0  0  0  0  0  0  0  0  0  0  0  0
    1.9740   -1.6135    3.1469 H   0  0  0  0  0  0  0  0  0  0  0  0
    1.4277   -0.8113    1.8328 H   0  0  0  0  0  0  0  0  0  0  0  0
    3.0092   -2.0700    1.4212 C   0  0  0  0  0  0  0  0  0  0  0  0
    3.2787   -1.5868    0.5891 H   0  0  0  0  0  0  0  0  0  0  0  0
    3.8246   -2.3901    1.9011 H   0  0  0  0  0  0  0  0  0  0  0  0
    2.3907   -2.9270    1.1545 H   0  0  0  0  0  0  0  0  0  0  0  0
  1  5  1  0
  5  6  1  0
  5  7  2  0
  1  2  1  0
  1  3  1  0
  1  4  1  0
  8 12  1  0
 12 15  1  0
  8  9  1  0
  8 10  1  0
  8 11  1  0
 12 13  1  0
 12 14  1  0
 15 16  1  0
 15 17  1  0
 15 18  1  0
M  CHG  1   6  -1
M  END
>  <PDB_ID>  (749) 
pdb2r9q

>  <RESIDUE_NAME>  (749) 
GLU   LYS

>  <FRAG_NAME>  (749) 
ACET   PRPA

>  <FRAG_ATOM_NUM>  (749) 
fragi: 7  fragj: 11

>  <atom.prop.CHAIN_ID>  (749) 
A A A A A A A Z Z Z Z Z Z Z Z Z Z Z

>  <atom.prop.IS_HEAVY_ATOM>  (749) 
1 0 0 0 1 1 1 1 0 0 0 1 0 0 1 0 0 0

>  <DIFUSE_FUNC_ATOM>  (749) 
atom 6   atom 7   

>  <FINAL_SINGLE_POINT_ENERGY>  (749) 
0

>  <NONCOV_INTER_ENERGY_QM>  (749) 
0

>  <FF_Energy>  (749) 
25.69

>  <QM_Energy>  (749) 
1.11

>  <source>  (749) 
ACET_PRPA_07

>  <Index>  (749) 
10685

$$$$
ACET-pdb2v25-C-ASP-54:PRPA-pdb2v25-C-LYS-48
     RDKit          3D

 18 16  0  0  0  0  0  0  0  0999 V2000
    0.0419    1.5166   -0.0185 C   0  0  0  0  0  0  0  0  0  0  0  0
   -0.8017    1.8545   -0.4326 H   0  0  0  0  0  0  0  0  0  0  0  0
    0.8251    1.8085   -0.5644 H   0  0  0  0  0  0  0  0  0  0  0  0
    0.1341    1.9685    0.9691 H   0  0  0  0  0  0  0  0  0  0  0  0
    0.0000    0.0000    0.0000 C   0  0  0  0  0  0  0  0  0  0  0  0
   -1.0949   -0.5975   -0.0000 O   0  0  0  0  0  1  0  0  0  0  0  0
    1.0949   -0.5872    0.0000 O   0  0  0  0  0  0  0  0  0  0  0  0
    1.0720   -1.3874    3.8170 C   0  0  0  0  0  0  0  0  0  0  0  0
    0.3832   -0.7542    4.1860 H   0  0  0  0  0  0  0  0  0  0  0  0
    2.0148   -0.8524    3.7020 H   0  0  0  0  0  0  0  0  0  0  0  0
    1.1870   -2.2227    4.5077 H   0  0  0  0  0  0  0  0  0  0  0  0
    0.5832   -1.9047    2.4611 C   0  0  0  0  0  0  0  0  0  0  0  0
    0.5501   -1.1280    1.8244 H   0  0  0  0  0  0  0  0  0  0  0  0
    1.2563   -2.5693    2.1200 H   0  0  0  0  0  0  0  0  0  0  0  0
   -0.7860   -2.5747    2.4621 C   0  0  0  0  0  0  0  0  0  0  0  0
   -0.9980   -2.8802    1.5284 H   0  0  0  0  0  0  0  0  0  0  0  0
   -0.7529   -3.3787    3.0640 H   0  0  0  0  0  0  0  0  0  0  0  0
   -1.5788   -1.9093    2.8038 H   0  0  0  0  0  0  0  0  0  0  0  0
  1  5  1  0
  5  6  1  0
  5  7  2  0
  1  2  1  0
  1  3  1  0
  1  4  1  0
  8 12  1  0
 12 15  1  0
  8  9  1  0
  8 10  1  0
  8 11  1  0
 12 13  1  0
 12 14  1  0
 15 16  1  0
 15 17  1  0
 15 18  1  0
M  CHG  1   6  -1
M  END
>  <PDB_ID>  (750) 
pdb2v25

>  <RESIDUE_NAME>  (750) 
ASP   LYS

>  <FRAG_NAME>  (750) 
ACET   PRPA

>  <FRAG_ATOM_NUM>  (750) 
fragi: 7  fragj: 11

>  <atom.prop.CHAIN_ID>  (750) 
A A A A A A A Z Z Z Z Z Z Z Z Z Z Z

>  <atom.prop.IS_HEAVY_ATOM>  (750) 
1 0 0 0 1 1 1 1 0 0 0 1 0 0 1 0 0 0

>  <DIFUSE_FUNC_ATOM>  (750) 
atom 6   atom 7   

>  <FINAL_SINGLE_POINT_ENERGY>  (750) 
0

>  <NONCOV_INTER_ENERGY_QM>  (750) 
0

>  <FF_Energy>  (750) 
16.13

>  <QM_Energy>  (750) 
-0.33

>  <source>  (750) 
ACET_PRPA_07

>  <Index>  (750) 
10912

$$$$
ACET-pdb2v25-C-ASP-54:PRPA-pdb2v25-C-LYS-48
     RDKit          3D

 18 16  0  0  0  0  0  0  0  0999 V2000
    0.0419    1.5166   -0.0185 C   0  0  0  0  0  0  0  0  0  0  0  0
   -0.8017    1.8545   -0.4326 H   0  0  0  0  0  0  0  0  0  0  0  0
    0.8251    1.8085   -0.5644 H   0  0  0  0  0  0  0  0  0  0  0  0
    0.1341    1.9685    0.9691 H   0  0  0  0  0  0  0  0  0  0  0  0
    0.0000    0.0000    0.0000 C   0  0  0  0  0  0  0  0  0  0  0  0
   -1.0949   -0.5975   -0.0000 O   0  0  0  0  0  1  0  0  0  0  0  0
    1.0949   -0.5872    0.0000 O   0  0  0  0  0  0  0  0  0  0  0  0
    0.5832   -1.9047    2.4611 C   0  0  0  0  0  0  0  0  0  0  0  0
    0.5501   -1.1280    1.8244 H   0  0  0  0  0  0  0  0  0  0  0  0
    1.2563   -2.5693    2.1200 H   0  0  0  0  0  0  0  0  0  0  0  0
    0.9312   -1.5365    3.4262 H   0  0  0  0  0  0  0  0  0  0  0  0
   -0.7860   -2.5747    2.4621 C   0  0  0  0  0  0  0  0  0  0  0  0
   -0.9980   -2.8802    1.5284 H   0  0  0  0  0  0  0  0  0  0  0  0
   -0.7529   -3.3787    3.0640 H   0  0  0  0  0  0  0  0  0  0  0  0
   -1.8894   -1.6486    2.9377 C   0  0  0  0  0  0  0  0  0  0  0  0
   -1.8051   -1.5230    3.9209 H   0  0  0  0  0  0  0  0  0  0  0  0
   -1.8051   -0.7758    2.4689 H   0  0  0  0  0  0  0  0  0  0  0  0
   -2.8749   -2.0628    2.7245 H   0  0  0  0  0  0  0  0  0  0  0  0
  1  5  1  0
  5  6  1  0
  5  7  2  0
  1  2  1  0
  1  3  1  0
  1  4  1  0
  8 12  1  0
 12 15  1  0
  8  9  1  0
  8 10  1  0
  8 11  1  0
 12 13  1  0
 12 14  1  0
 15 16  1  0
 15 17  1  0
 15 18  1  0
M  CHG  1   6  -1
M  END
>  <PDB_ID>  (751) 
pdb2v25

>  <RESIDUE_NAME>  (751) 
ASP   LYS

>  <FRAG_NAME>  (751) 
ACET   PRPA

>  <FRAG_ATOM_NUM>  (751) 
fragi: 7  fragj: 11

>  <atom.prop.CHAIN_ID>  (751) 
A A A A A A A Z Z Z Z Z Z Z Z Z Z Z

>  <atom.prop.IS_HEAVY_ATOM>  (751) 
1 0 0 0 1 1 1 1 0 0 0 1 0 0 1 0 0 0

>  <DIFUSE_FUNC_ATOM>  (751) 
atom 6   atom 7   

>  <FINAL_SINGLE_POINT_ENERGY>  (751) 
0

>  <NONCOV_INTER_ENERGY_QM>  (751) 
0

>  <FF_Energy>  (751) 
15.3

>  <QM_Energy>  (751) 
-1.14

>  <source>  (751) 
ACET_PRPA_07

>  <Index>  (751) 
10922

$$$$
ACET-pdb1n8j-I-ASP-66:PRPA-pdb1n8j-I-ARG-31
     RDKit          3D

 18 16  0  0  0  0  0  0  0  0999 V2000
    0.0037    1.5183    0.0175 C   0  0  0  0  0  0  0  0  0  0  0  0
    0.9346    1.8371   -0.1155 H   0  0  0  0  0  0  0  0  0  0  0  0
   -0.3494    1.8288    0.8918 H   0  0  0  0  0  0  0  0  0  0  0  0
   -0.6152    1.9513   -0.7684 H   0  0  0  0  0  0  0  0  0  0  0  0
    0.0000    0.0000    0.0000 C   0  0  0  0  0  0  0  0  0  0  0  0
   -1.1032   -0.5932    0.0000 O   0  0  0  0  0  1  0  0  0  0  0  0
    1.1032   -0.5959   -0.0000 O   0  0  0  0  0  0  0  0  0  0  0  0
    4.1920   -1.3975   -1.8119 C   0  0  0  0  0  0  0  0  0  0  0  0
    4.5550   -0.8786   -1.0343 H   0  0  0  0  0  0  0  0  0  0  0  0
    3.3423   -0.9652   -2.1231 H   0  0  0  0  0  0  0  0  0  0  0  0
    4.9173   -1.3415   -2.6237 H   0  0  0  0  0  0  0  0  0  0  0  0
    3.8622   -2.7906   -1.3350 C   0  0  0  0  0  0  0  0  0  0  0  0
    4.1348   -3.4520   -2.0178 H   0  0  0  0  0  0  0  0  0  0  0  0
    4.3094   -2.9631   -0.4696 H   0  0  0  0  0  0  0  0  0  0  0  0
    2.3679   -2.9042   -1.1294 C   0  0  0  0  0  0  0  0  0  0  0  0
    2.2032   -3.5633   -0.3978 H   0  0  0  0  0  0  0  0  0  0  0  0
    2.0221   -2.0073   -0.8612 H   0  0  0  0  0  0  0  0  0  0  0  0
    1.8553   -3.2332   -2.0333 H   0  0  0  0  0  0  0  0  0  0  0  0
  1  5  1  0
  5  6  1  0
  5  7  2  0
  1  2  1  0
  1  3  1  0
  1  4  1  0
  8 12  1  0
 12 15  1  0
  8  9  1  0
  8 10  1  0
  8 11  1  0
 12 13  1  0
 12 14  1  0
 15 16  1  0
 15 17  1  0
 15 18  1  0
M  CHG  1   6  -1
M  END
>  <PDB_ID>  (752) 
pdb1n8j

>  <RESIDUE_NAME>  (752) 
ASP   ARG

>  <FRAG_NAME>  (752) 
ACET   PRPA

>  <FRAG_ATOM_NUM>  (752) 
fragi: 7  fragj: 11

>  <atom.prop.CHAIN_ID>  (752) 
A A A A A A A Z Z Z Z Z Z Z Z Z Z Z

>  <atom.prop.IS_HEAVY_ATOM>  (752) 
1 0 0 0 1 1 1 1 0 0 0 1 0 0 1 0 0 0

>  <DIFUSE_FUNC_ATOM>  (752) 
atom 6   atom 7   

>  <FINAL_SINGLE_POINT_ENERGY>  (752) 
0

>  <NONCOV_INTER_ENERGY_QM>  (752) 
0

>  <FF_Energy>  (752) 
14.21

>  <QM_Energy>  (752) 
-1.24

>  <source>  (752) 
ACET_PRPA_07

>  <Index>  (752) 
11224

$$$$
ACET-pdb2r2d-F-GLU-276:PRPA-pdb2r2d-F-LYS-204
     RDKit          3D

 18 16  0  0  0  0  0  0  0  0999 V2000
    0.0305    1.5240   -0.0006 C   0  0  0  0  0  0  0  0  0  0  0  0
    0.6979    1.8053   -0.6705 H   0  0  0  0  0  0  0  0  0  0  0  0
    0.2825    1.8131    0.9084 H   0  0  0  0  0  0  0  0  0  0  0  0
   -0.9238    1.9854   -0.2549 H   0  0  0  0  0  0  0  0  0  0  0  0
    0.0000    0.0000    0.0000 C   0  0  0  0  0  0  0  0  0  0  0  0
   -1.1105   -0.6047    0.0000 O   0  0  0  0  0  1  0  0  0  0  0  0
    1.1105   -0.5854   -0.0000 O   0  0  0  0  0  0  0  0  0  0  0  0
    1.8504    4.3423    3.4664 C   0  0  0  0  0  0  0  0  0  0  0  0
    1.6050    4.5020    2.5077 H   0  0  0  0  0  0  0  0  0  0  0  0
    2.8439    4.4353    3.5679 H   0  0  0  0  0  0  0  0  0  0  0  0
    1.3690    5.1058    4.0775 H   0  0  0  0  0  0  0  0  0  0  0  0
    1.4745    2.9014    3.8139 C   0  0  0  0  0  0  0  0  0  0  0  0
    1.9227    2.6411    4.6535 H   0  0  0  0  0  0  0  0  0  0  0  0
    0.4948    2.8276    3.8832 H   0  0  0  0  0  0  0  0  0  0  0  0
    1.9631    1.9799    2.6857 C   0  0  0  0  0  0  0  0  0  0  0  0
    1.2476    1.9291    1.9840 H   0  0  0  0  0  0  0  0  0  0  0  0
    2.7883    2.3812    2.2812 H   0  0  0  0  0  0  0  0  0  0  0  0
    2.1991    0.9655    3.0074 H   0  0  0  0  0  0  0  0  0  0  0  0
  1  5  1  0
  5  6  1  0
  5  7  2  0
  1  2  1  0
  1  3  1  0
  1  4  1  0
  8 12  1  0
 12 15  1  0
  8  9  1  0
  8 10  1  0
  8 11  1  0
 12 13  1  0
 12 14  1  0
 15 16  1  0
 15 17  1  0
 15 18  1  0
M  CHG  1   6  -1
M  END
>  <PDB_ID>  (753) 
pdb2r2d

>  <RESIDUE_NAME>  (753) 
GLU   LYS

>  <FRAG_NAME>  (753) 
ACET   PRPA

>  <FRAG_ATOM_NUM>  (753) 
fragi: 7  fragj: 11

>  <atom.prop.CHAIN_ID>  (753) 
A A A A A A A Z Z Z Z Z Z Z Z Z Z Z

>  <atom.prop.IS_HEAVY_ATOM>  (753) 
1 0 0 0 1 1 1 1 0 0 0 1 0 0 1 0 0 0

>  <DIFUSE_FUNC_ATOM>  (753) 
atom 6   atom 7   

>  <FINAL_SINGLE_POINT_ENERGY>  (753) 
0

>  <NONCOV_INTER_ENERGY_QM>  (753) 
0

>  <FF_Energy>  (753) 
39.05

>  <QM_Energy>  (753) 
4.02

>  <source>  (753) 
ACET_PRPA_07

>  <Index>  (753) 
11428

$$$$
ACET-pdb2rcv-F-GLU-193:PRPA-pdb2rcv-F-LEU-197
     RDKit          3D

 18 16  0  0  0  0  0  0  0  0999 V2000
    0.0166    1.5256   -0.0158 C   0  0  0  0  0  0  0  0  0  0  0  0
    0.1463    1.8111   -0.9468 H   0  0  0  0  0  0  0  0  0  0  0  0
    0.7470    1.8210    0.5714 H   0  0  0  0  0  0  0  0  0  0  0  0
   -0.9101    1.9702    0.3472 H   0  0  0  0  0  0  0  0  0  0  0  0
    0.0000    0.0000    0.0000 C   0  0  0  0  0  0  0  0  0  0  0  0
   -1.0991   -0.5996    0.0000 O   0  0  0  0  0  1  0  0  0  0  0  0
    1.0991   -0.6037    0.0000 O   0  0  0  0  0  0  0  0  0  0  0  0
    3.4512    2.1290    2.4706 C   0  0  0  0  0  0  0  0  0  0  0  0
    4.3380    1.7976    2.1477 H   0  0  0  0  0  0  0  0  0  0  0  0
    2.8974    2.4122    1.6866 H   0  0  0  0  0  0  0  0  0  0  0  0
    3.5912    2.9140    3.0765 H   0  0  0  0  0  0  0  0  0  0  0  0
    2.7375    1.0230    3.2271 C   0  0  0  0  0  0  0  0  0  0  0  0
    1.8582    1.3576    3.5536 H   0  0  0  0  0  0  0  0  0  0  0  0
    3.3440    0.7188    4.0801 H   0  0  0  0  0  0  0  0  0  0  0  0
    2.4947   -0.1713    2.2972 C   0  0  0  0  0  0  0  0  0  0  0  0
    2.0161   -0.8882    2.8008 H   0  0  0  0  0  0  0  0  0  0  0  0
    1.9376    0.1237    1.5216 H   0  0  0  0  0  0  0  0  0  0  0  0
    3.3721   -0.5168    1.9698 H   0  0  0  0  0  0  0  0  0  0  0  0
  1  5  1  0
  5  6  1  0
  5  7  2  0
  1  2  1  0
  1  3  1  0
  1  4  1  0
  8 12  1  0
 12 15  1  0
  8  9  1  0
  8 10  1  0
  8 11  1  0
 12 13  1  0
 12 14  1  0
 15 16  1  0
 15 17  1  0
 15 18  1  0
M  CHG  1   6  -1
M  END
>  <PDB_ID>  (754) 
pdb2rcv

>  <RESIDUE_NAME>  (754) 
GLU   LEU

>  <FRAG_NAME>  (754) 
ACET   PRPA

>  <FRAG_ATOM_NUM>  (754) 
fragi: 7  fragj: 11

>  <atom.prop.CHAIN_ID>  (754) 
A A A A A A A Z Z Z Z Z Z Z Z Z Z Z

>  <atom.prop.IS_HEAVY_ATOM>  (754) 
1 0 0 0 1 1 1 1 0 0 0 1 0 0 1 0 0 0

>  <DIFUSE_FUNC_ATOM>  (754) 
atom 6   atom 7   

>  <FINAL_SINGLE_POINT_ENERGY>  (754) 
0

>  <NONCOV_INTER_ENERGY_QM>  (754) 
0

>  <FF_Energy>  (754) 
17.58

>  <QM_Energy>  (754) 
1.96

>  <source>  (754) 
ACET_PRPA_07

>  <Index>  (754) 
13008

$$$$
ACET-pdb1oi2-A-GLU-222:PRPA-pdb1oi2-A-ARG-237
     RDKit          3D

 18 16  0  0  0  0  0  0  0  0999 V2000
    0.1858    1.4869    0.0141 C   0  0  0  0  0  0  0  0  0  0  0  0
    0.7043    1.7371   -0.8037 H   0  0  0  0  0  0  0  0  0  0  0  0
    0.7157    1.7198    0.8285 H   0  0  0  0  0  0  0  0  0  0  0  0
   -0.7240    2.0870    0.0258 H   0  0  0  0  0  0  0  0  0  0  0  0
    0.0000    0.0000    0.0000 C   0  0  0  0  0  0  0  0  0  0  0  0
   -1.0891   -0.5524   -0.0000 O   0  0  0  0  0  1  0  0  0  0  0  0
    1.0891   -0.6126    0.0000 O   0  0  0  0  0  0  0  0  0  0  0  0
    4.5929    0.3730   -0.1801 C   0  0  0  0  0  0  0  0  0  0  0  0
    4.6856    1.1599   -0.7507 H   0  0  0  0  0  0  0  0  0  0  0  0
    5.5516   -0.1412   -0.1124 H   0  0  0  0  0  0  0  0  0  0  0  0
    4.4248    0.6963    0.8472 H   0  0  0  0  0  0  0  0  0  0  0  0
    3.4758   -0.5553   -0.6477 C   0  0  0  0  0  0  0  0  0  0  0  0
    3.3671   -1.2782    0.0266 H   0  0  0  0  0  0  0  0  0  0  0  0
    2.6389   -0.0245   -0.7237 H   0  0  0  0  0  0  0  0  0  0  0  0
    3.7489   -1.2005   -1.9924 C   0  0  0  0  0  0  0  0  0  0  0  0
    4.3669   -0.6094   -2.5289 H   0  0  0  0  0  0  0  0  0  0  0  0
    4.2103   -2.0872   -1.8509 H   0  0  0  0  0  0  0  0  0  0  0  0
    2.8585   -1.3828   -2.5941 H   0  0  0  0  0  0  0  0  0  0  0  0
  1  5  1  0
  5  6  1  0
  5  7  2  0
  1  2  1  0
  1  3  1  0
  1  4  1  0
  8 12  1  0
 12 15  1  0
  8  9  1  0
  8 10  1  0
  8 11  1  0
 12 13  1  0
 12 14  1  0
 15 16  1  0
 15 17  1  0
 15 18  1  0
M  CHG  1   6  -1
M  END
>  <PDB_ID>  (755) 
pdb1oi2

>  <RESIDUE_NAME>  (755) 
GLU   ARG

>  <FRAG_NAME>  (755) 
ACET   PRPA

>  <FRAG_ATOM_NUM>  (755) 
fragi: 7  fragj: 11

>  <atom.prop.CHAIN_ID>  (755) 
A A A A A A A Z Z Z Z Z Z Z Z Z Z Z

>  <atom.prop.IS_HEAVY_ATOM>  (755) 
1 0 0 0 1 1 1 1 0 0 0 1 0 0 1 0 0 0

>  <DIFUSE_FUNC_ATOM>  (755) 
atom 6   atom 7   

>  <FINAL_SINGLE_POINT_ENERGY>  (755) 
0

>  <NONCOV_INTER_ENERGY_QM>  (755) 
0

>  <FF_Energy>  (755) 
38.16

>  <QM_Energy>  (755) 
7.07

>  <source>  (755) 
ACET_PRPA_07

>  <Index>  (755) 
13666

$$$$
ACET-pdb1oi2-A-GLU-222:PRPA-pdb1oi2-A-ARG-237
     RDKit          3D

 18 16  0  0  0  0  0  0  0  0999 V2000
    0.1858    1.4869    0.0141 C   0  0  0  0  0  0  0  0  0  0  0  0
    0.7043    1.7371   -0.8037 H   0  0  0  0  0  0  0  0  0  0  0  0
    0.7157    1.7198    0.8285 H   0  0  0  0  0  0  0  0  0  0  0  0
   -0.7240    2.0870    0.0258 H   0  0  0  0  0  0  0  0  0  0  0  0
    0.0000    0.0000    0.0000 C   0  0  0  0  0  0  0  0  0  0  0  0
   -1.0891   -0.5524   -0.0000 O   0  0  0  0  0  1  0  0  0  0  0  0
    1.0891   -0.6126    0.0000 O   0  0  0  0  0  0  0  0  0  0  0  0
    3.4758   -0.5553   -0.6477 C   0  0  0  0  0  0  0  0  0  0  0  0
    3.3671   -1.2782    0.0266 H   0  0  0  0  0  0  0  0  0  0  0  0
    2.6389   -0.0245   -0.7237 H   0  0  0  0  0  0  0  0  0  0  0  0
    4.2737    0.1078   -0.3137 H   0  0  0  0  0  0  0  0  0  0  0  0
    3.7489   -1.2005   -1.9924 C   0  0  0  0  0  0  0  0  0  0  0  0
    4.3669   -0.6094   -2.5289 H   0  0  0  0  0  0  0  0  0  0  0  0
    4.2103   -2.0872   -1.8509 H   0  0  0  0  0  0  0  0  0  0  0  0
    2.5036   -1.4554   -2.8339 C   0  0  0  0  0  0  0  0  0  0  0  0
    1.9462   -2.1288   -2.3627 H   0  0  0  0  0  0  0  0  0  0  0  0
    2.0126   -0.5964   -2.9229 H   0  0  0  0  0  0  0  0  0  0  0  0
    2.7630   -1.8288   -3.8245 H   0  0  0  0  0  0  0  0  0  0  0  0
  1  5  1  0
  5  6  1  0
  5  7  2  0
  1  2  1  0
  1  3  1  0
  1  4  1  0
  8 12  1  0
 12 15  1  0
  8  9  1  0
  8 10  1  0
  8 11  1  0
 12 13  1  0
 12 14  1  0
 15 16  1  0
 15 17  1  0
 15 18  1  0
M  CHG  1   6  -1
M  END
>  <PDB_ID>  (756) 
pdb1oi2

>  <RESIDUE_NAME>  (756) 
GLU   ARG

>  <FRAG_NAME>  (756) 
ACET   PRPA

>  <FRAG_ATOM_NUM>  (756) 
fragi: 7  fragj: 11

>  <atom.prop.CHAIN_ID>  (756) 
A A A A A A A Z Z Z Z Z Z Z Z Z Z Z

>  <atom.prop.IS_HEAVY_ATOM>  (756) 
1 0 0 0 1 1 1 1 0 0 0 1 0 0 1 0 0 0

>  <DIFUSE_FUNC_ATOM>  (756) 
atom 6   atom 7   

>  <FINAL_SINGLE_POINT_ENERGY>  (756) 
0

>  <NONCOV_INTER_ENERGY_QM>  (756) 
0

>  <FF_Energy>  (756) 
37.04

>  <QM_Energy>  (756) 
6.78

>  <source>  (756) 
ACET_PRPA_07

>  <Index>  (756) 
13688

$$$$
ACET-pdb2v6f-A-GLU-160:PRPA-pdb2v6f-A-LYS-174
     RDKit          3D

 18 16  0  0  0  0  0  0  0  0999 V2000
   -0.0158    1.5244    0.0121 C   0  0  0  0  0  0  0  0  0  0  0  0
   -0.9537    1.8064    0.0644 H   0  0  0  0  0  0  0  0  0  0  0  0
    0.4260    1.8267   -0.8096 H   0  0  0  0  0  0  0  0  0  0  0  0
    0.5195    1.9345    0.8685 H   0  0  0  0  0  0  0  0  0  0  0  0
    0.0000    0.0000    0.0000 C   0  0  0  0  0  0  0  0  0  0  0  0
   -1.0862   -0.6020   -0.0000 O   0  0  0  0  0  1  0  0  0  0  0  0
    1.0862   -0.6062    0.0000 O   0  0  0  0  0  0  0  0  0  0  0  0
   -0.3960   -3.7488    2.0962 C   0  0  0  0  0  0  0  0  0  0  0  0
   -0.6115   -4.5968    1.5723 H   0  0  0  0  0  0  0  0  0  0  0  0
   -1.1281   -2.9833    1.8389 H   0  0  0  0  0  0  0  0  0  0  0  0
   -0.3676   -4.0030    3.1557 H   0  0  0  0  0  0  0  0  0  0  0  0
    1.0087   -3.3264    1.6455 C   0  0  0  0  0  0  0  0  0  0  0  0
    1.2426   -2.4770    2.1165 H   0  0  0  0  0  0  0  0  0  0  0  0
    1.6496   -4.0448    1.9164 H   0  0  0  0  0  0  0  0  0  0  0  0
    1.1511   -3.0976    0.1469 C   0  0  0  0  0  0  0  0  0  0  0  0
    0.9227   -3.9457   -0.3340 H   0  0  0  0  0  0  0  0  0  0  0  0
    0.5162   -2.3760   -0.1339 H   0  0  0  0  0  0  0  0  0  0  0  0
    2.1655   -2.8010   -0.1197 H   0  0  0  0  0  0  0  0  0  0  0  0
  1  5  1  0
  5  6  1  0
  5  7  2  0
  1  2  1  0
  1  3  1  0
  1  4  1  0
  8 12  1  0
 12 15  1  0
  8  9  1  0
  8 10  1  0
  8 11  1  0
 12 13  1  0
 12 14  1  0
 15 16  1  0
 15 17  1  0
 15 18  1  0
M  CHG  1   6  -1
M  END
>  <PDB_ID>  (757) 
pdb2v6f

>  <RESIDUE_NAME>  (757) 
GLU   LYS

>  <FRAG_NAME>  (757) 
ACET   PRPA

>  <FRAG_ATOM_NUM>  (757) 
fragi: 7  fragj: 11

>  <atom.prop.CHAIN_ID>  (757) 
A A A A A A A Z Z Z Z Z Z Z Z Z Z Z

>  <atom.prop.IS_HEAVY_ATOM>  (757) 
1 0 0 0 1 1 1 1 0 0 0 1 0 0 1 0 0 0

>  <DIFUSE_FUNC_ATOM>  (757) 
atom 6   atom 7   

>  <FINAL_SINGLE_POINT_ENERGY>  (757) 
0

>  <NONCOV_INTER_ENERGY_QM>  (757) 
0

>  <FF_Energy>  (757) 
29.3

>  <QM_Energy>  (757) 
4.79

>  <source>  (757) 
ACET_PRPA_07

>  <Index>  (757) 
14121

$$$$
ACET-pdb2v6f-A-GLU-160:PRPA-pdb2v6f-A-LYS-174
     RDKit          3D

 18 16  0  0  0  0  0  0  0  0999 V2000
   -0.0158    1.5244    0.0121 C   0  0  0  0  0  0  0  0  0  0  0  0
   -0.9537    1.8064    0.0644 H   0  0  0  0  0  0  0  0  0  0  0  0
    0.4260    1.8267   -0.8096 H   0  0  0  0  0  0  0  0  0  0  0  0
    0.5195    1.9345    0.8685 H   0  0  0  0  0  0  0  0  0  0  0  0
    0.0000    0.0000    0.0000 C   0  0  0  0  0  0  0  0  0  0  0  0
   -1.0862   -0.6020   -0.0000 O   0  0  0  0  0  1  0  0  0  0  0  0
    1.0862   -0.6062    0.0000 O   0  0  0  0  0  0  0  0  0  0  0  0
    1.0087   -3.3264    1.6455 C   0  0  0  0  0  0  0  0  0  0  0  0
    1.2426   -2.4770    2.1165 H   0  0  0  0  0  0  0  0  0  0  0  0
    1.6496   -4.0448    1.9164 H   0  0  0  0  0  0  0  0  0  0  0  0
    0.0109   -3.6265    1.9657 H   0  0  0  0  0  0  0  0  0  0  0  0
    1.1511   -3.0976    0.1469 C   0  0  0  0  0  0  0  0  0  0  0  0
    0.9227   -3.9457   -0.3340 H   0  0  0  0  0  0  0  0  0  0  0  0
    0.5162   -2.3760   -0.1339 H   0  0  0  0  0  0  0  0  0  0  0  0
    2.5636   -2.6847   -0.2244 C   0  0  0  0  0  0  0  0  0  0  0  0
    2.7887   -1.8386    0.2609 H   0  0  0  0  0  0  0  0  0  0  0  0
    3.1956   -3.4075    0.0586 H   0  0  0  0  0  0  0  0  0  0  0  0
    2.6832   -2.5164   -1.2946 H   0  0  0  0  0  0  0  0  0  0  0  0
  1  5  1  0
  5  6  1  0
  5  7  2  0
  1  2  1  0
  1  3  1  0
  1  4  1  0
  8 12  1  0
 12 15  1  0
  8  9  1  0
  8 10  1  0
  8 11  1  0
 12 13  1  0
 12 14  1  0
 15 16  1  0
 15 17  1  0
 15 18  1  0
M  CHG  1   6  -1
M  END
>  <PDB_ID>  (758) 
pdb2v6f

>  <RESIDUE_NAME>  (758) 
GLU   LYS

>  <FRAG_NAME>  (758) 
ACET   PRPA

>  <FRAG_ATOM_NUM>  (758) 
fragi: 7  fragj: 11

>  <atom.prop.CHAIN_ID>  (758) 
A A A A A A A Z Z Z Z Z Z Z Z Z Z Z

>  <atom.prop.IS_HEAVY_ATOM>  (758) 
1 0 0 0 1 1 1 1 0 0 0 1 0 0 1 0 0 0

>  <DIFUSE_FUNC_ATOM>  (758) 
atom 6   atom 7   

>  <FINAL_SINGLE_POINT_ENERGY>  (758) 
0

>  <NONCOV_INTER_ENERGY_QM>  (758) 
0

>  <FF_Energy>  (758) 
41.72

>  <QM_Energy>  (758) 
6.01

>  <source>  (758) 
ACET_PRPA_07

>  <Index>  (758) 
14129

$$$$
ACET-pdb2v51-B-GLU-253:PRPA-pdb2v51-B-ARG-196
     RDKit          3D

 18 16  0  0  0  0  0  0  0  0999 V2000
   -0.0126    1.5634   -0.0142 C   0  0  0  0  0  0  0  0  0  0  0  0
   -0.6348    1.8467    0.6906 H   0  0  0  0  0  0  0  0  0  0  0  0
   -0.3120    1.8343   -0.9093 H   0  0  0  0  0  0  0  0  0  0  0  0
    0.9578    2.0207    0.1787 H   0  0  0  0  0  0  0  0  0  0  0  0
    0.0000    0.0000    0.0000 C   0  0  0  0  0  0  0  0  0  0  0  0
   -1.1046   -0.6319   -0.0000 O   0  0  0  0  0  1  0  0  0  0  0  0
    1.1046   -0.5919    0.0000 O   0  0  0  0  0  0  0  0  0  0  0  0
   -3.7598   -2.6576    2.9218 C   0  0  0  0  0  0  0  0  0  0  0  0
   -3.5451   -1.7711    3.3074 H   0  0  0  0  0  0  0  0  0  0  0  0
   -3.6684   -3.3724    3.6005 H   0  0  0  0  0  0  0  0  0  0  0  0
   -4.7989   -2.6373    2.5934 H   0  0  0  0  0  0  0  0  0  0  0  0
   -2.7945   -2.9392    1.7928 C   0  0  0  0  0  0  0  0  0  0  0  0
   -2.7543   -3.9331    1.6357 H   0  0  0  0  0  0  0  0  0  0  0  0
   -3.1341   -2.4981    0.9534 H   0  0  0  0  0  0  0  0  0  0  0  0
   -1.4187   -2.4428    2.0686 C   0  0  0  0  0  0  0  0  0  0  0  0
   -1.0676   -2.0133    1.2571 H   0  0  0  0  0  0  0  0  0  0  0  0
   -1.4527   -1.8252    2.8333 H   0  0  0  0  0  0  0  0  0  0  0  0
   -0.8083   -3.3099    2.3211 H   0  0  0  0  0  0  0  0  0  0  0  0
  1  5  1  0
  5  6  1  0
  5  7  2  0
  1  2  1  0
  1  3  1  0
  1  4  1  0
  8 12  1  0
 12 15  1  0
  8  9  1  0
  8 10  1  0
  8 11  1  0
 12 13  1  0
 12 14  1  0
 15 16  1  0
 15 17  1  0
 15 18  1  0
M  CHG  1   6  -1
M  END
>  <PDB_ID>  (759) 
pdb2v51

>  <RESIDUE_NAME>  (759) 
GLU   ARG

>  <FRAG_NAME>  (759) 
ACET   PRPA

>  <FRAG_ATOM_NUM>  (759) 
fragi: 7  fragj: 11

>  <atom.prop.CHAIN_ID>  (759) 
A A A A A A A Z Z Z Z Z Z Z Z Z Z Z

>  <atom.prop.IS_HEAVY_ATOM>  (759) 
1 0 0 0 1 1 1 1 0 0 0 1 0 0 1 0 0 0

>  <DIFUSE_FUNC_ATOM>  (759) 
atom 6   atom 7   

>  <FINAL_SINGLE_POINT_ENERGY>  (759) 
0

>  <NONCOV_INTER_ENERGY_QM>  (759) 
0

>  <FF_Energy>  (759) 
18.37

>  <QM_Energy>  (759) 
-1.29

>  <source>  (759) 
ACET_PRPA_07

>  <Index>  (759) 
15099

$$$$
ACET-pdb1osh-A-GLU-406:PRPA-pdb1osh-A-LYS-410
     RDKit          3D

 18 16  0  0  0  0  0  0  0  0999 V2000
   -0.0871    1.5791   -0.0170 C   0  0  0  0  0  0  0  0  0  0  0  0
    0.2667    1.8628   -0.8732 H   0  0  0  0  0  0  0  0  0  0  0  0
    0.4157    1.8877    0.7518 H   0  0  0  0  0  0  0  0  0  0  0  0
   -1.1175    1.9232    0.0712 H   0  0  0  0  0  0  0  0  0  0  0  0
    0.0000    0.0000    0.0000 C   0  0  0  0  0  0  0  0  0  0  0  0
   -1.1078   -0.5910    0.0000 O   0  0  0  0  0  1  0  0  0  0  0  0
    1.1078   -0.6383   -0.0000 O   0  0  0  0  0  0  0  0  0  0  0  0
   -2.3763   -3.2634    0.7640 C   0  0  0  0  0  0  0  0  0  0  0  0
   -3.0006   -3.8253    0.2271 H   0  0  0  0  0  0  0  0  0  0  0  0
   -2.7057   -2.3243    0.7972 H   0  0  0  0  0  0  0  0  0  0  0  0
   -2.3241   -3.6595    1.7782 H   0  0  0  0  0  0  0  0  0  0  0  0
   -0.9963   -3.2767    0.0847 C   0  0  0  0  0  0  0  0  0  0  0  0
   -0.3771   -2.7168    0.6075 H   0  0  0  0  0  0  0  0  0  0  0  0
   -0.6826   -4.2078    0.0152 H   0  0  0  0  0  0  0  0  0  0  0  0
   -1.0972   -2.6898   -1.3406 C   0  0  0  0  0  0  0  0  0  0  0  0
   -1.4471   -3.3924   -1.9512 H   0  0  0  0  0  0  0  0  0  0  0  0
   -1.7140   -1.9096   -1.3220 H   0  0  0  0  0  0  0  0  0  0  0  0
   -0.1197   -2.3635   -1.6958 H   0  0  0  0  0  0  0  0  0  0  0  0
  1  5  1  0
  5  6  1  0
  5  7  2  0
  1  2  1  0
  1  3  1  0
  1  4  1  0
  8 12  1  0
 12 15  1  0
  8  9  1  0
  8 10  1  0
  8 11  1  0
 12 13  1  0
 12 14  1  0
 15 16  1  0
 15 17  1  0
 15 18  1  0
M  CHG  1   6  -1
M  END
>  <PDB_ID>  (760) 
pdb1osh

>  <RESIDUE_NAME>  (760) 
GLU   LYS

>  <FRAG_NAME>  (760) 
ACET   PRPA

>  <FRAG_ATOM_NUM>  (760) 
fragi: 7  fragj: 11

>  <atom.prop.CHAIN_ID>  (760) 
A A A A A A A Z Z Z Z Z Z Z Z Z Z Z

>  <atom.prop.IS_HEAVY_ATOM>  (760) 
1 0 0 0 1 1 1 1 0 0 0 1 0 0 1 0 0 0

>  <DIFUSE_FUNC_ATOM>  (760) 
atom 6   atom 7   

>  <FINAL_SINGLE_POINT_ENERGY>  (760) 
0

>  <NONCOV_INTER_ENERGY_QM>  (760) 
0

>  <FF_Energy>  (760) 
26.04

>  <QM_Energy>  (760) 
2.54

>  <source>  (760) 
ACET_PRPA_07

>  <Index>  (760) 
16719

$$$$
ACET-pdb1or7-A-ASP-182:PRPA-pdb1or7-A-GLN-186
     RDKit          3D

 18 16  0  0  0  0  0  0  0  0999 V2000
   -0.0653    1.4814   -0.0248 C   0  0  0  0  0  0  0  0  0  0  0  0
   -0.0757    1.7962   -0.9717 H   0  0  0  0  0  0  0  0  0  0  0  0
    0.7282    1.8558    0.4481 H   0  0  0  0  0  0  0  0  0  0  0  0
   -0.9603    1.8648    0.4653 H   0  0  0  0  0  0  0  0  0  0  0  0
    0.0000    0.0000    0.0000 C   0  0  0  0  0  0  0  0  0  0  0  0
   -1.0866   -0.6221   -0.0000 O   0  0  0  0  0  1  0  0  0  0  0  0
    1.0866   -0.6240    0.0000 O   0  0  0  0  0  0  0  0  0  0  0  0
   -3.3373   -2.4327    2.6301 C   0  0  0  0  0  0  0  0  0  0  0  0
   -4.0339   -3.0490    2.1881 H   0  0  0  0  0  0  0  0  0  0  0  0
   -3.7198   -1.4148    2.5536 H   0  0  0  0  0  0  0  0  0  0  0  0
   -3.1450   -2.8166    3.6320 H   0  0  0  0  0  0  0  0  0  0  0  0
   -2.0401   -2.5635    1.8678 C   0  0  0  0  0  0  0  0  0  0  0  0
   -1.9439   -1.7729    1.2583 H   0  0  0  0  0  0  0  0  0  0  0  0
   -1.2792   -2.5636    2.5236 H   0  0  0  0  0  0  0  0  0  0  0  0
   -1.9651   -3.8069    1.0513 C   0  0  0  0  0  0  0  0  0  0  0  0
   -2.0792   -4.6057    1.6444 H   0  0  0  0  0  0  0  0  0  0  0  0
   -2.6914   -3.8006    0.3629 H   0  0  0  0  0  0  0  0  0  0  0  0
   -1.0104   -3.9048    0.5345 H   0  0  0  0  0  0  0  0  0  0  0  0
  1  5  1  0
  5  6  1  0
  5  7  2  0
  1  2  1  0
  1  3  1  0
  1  4  1  0
  8 12  1  0
 12 15  1  0
  8  9  1  0
  8 10  1  0
  8 11  1  0
 12 13  1  0
 12 14  1  0
 15 16  1  0
 15 17  1  0
 15 18  1  0
M  CHG  1   6  -1
M  END
>  <PDB_ID>  (761) 
pdb1or7

>  <RESIDUE_NAME>  (761) 
ASP   GLN

>  <FRAG_NAME>  (761) 
ACET   PRPA

>  <FRAG_ATOM_NUM>  (761) 
fragi: 7  fragj: 11

>  <atom.prop.CHAIN_ID>  (761) 
A A A A A A A Z Z Z Z Z Z Z Z Z Z Z

>  <atom.prop.IS_HEAVY_ATOM>  (761) 
1 0 0 0 1 1 1 1 0 0 0 1 0 0 1 0 0 0

>  <DIFUSE_FUNC_ATOM>  (761) 
atom 6   atom 7   

>  <FINAL_SINGLE_POINT_ENERGY>  (761) 
0

>  <NONCOV_INTER_ENERGY_QM>  (761) 
0

>  <FF_Energy>  (761) 
14.75

>  <QM_Energy>  (761) 
-1.76

>  <source>  (761) 
ACET_PRPA_07

>  <Index>  (761) 
16902

$$$$
ACET-pdb2vf2-A-GLU-17:PRPA-pdb2vf2-A-LYS-25
     RDKit          3D

 18 16  0  0  0  0  0  0  0  0999 V2000
   -0.0376    1.5001    0.0181 C   0  0  0  0  0  0  0  0  0  0  0  0
    0.4618    1.8234   -0.7601 H   0  0  0  0  0  0  0  0  0  0  0  0
    0.3463    1.8007    0.8687 H   0  0  0  0  0  0  0  0  0  0  0  0
   -1.0603    1.8709   -0.0505 H   0  0  0  0  0  0  0  0  0  0  0  0
    0.0000    0.0000    0.0000 C   0  0  0  0  0  0  0  0  0  0  0  0
   -1.0860   -0.5788    0.0000 O   0  0  0  0  0  1  0  0  0  0  0  0
    1.0860   -0.6032    0.0000 O   0  0  0  0  0  0  0  0  0  0  0  0
    1.1355    0.0395   -3.8581 C   0  0  0  0  0  0  0  0  0  0  0  0
    0.5944    0.7111   -3.3504 H   0  0  0  0  0  0  0  0  0  0  0  0
    0.6443   -0.9328   -3.8204 H   0  0  0  0  0  0  0  0  0  0  0  0
    1.1954    0.3610   -4.8978 H   0  0  0  0  0  0  0  0  0  0  0  0
    2.5392   -0.1328   -3.3191 C   0  0  0  0  0  0  0  0  0  0  0  0
    2.9882   -0.8646   -3.8549 H   0  0  0  0  0  0  0  0  0  0  0  0
    3.0445    0.7271   -3.4949 H   0  0  0  0  0  0  0  0  0  0  0  0
    2.6441   -0.4636   -1.8768 C   0  0  0  0  0  0  0  0  0  0  0  0
    2.2045    0.2618   -1.3329 H   0  0  0  0  0  0  0  0  0  0  0  0
    2.1636   -1.3297   -1.6937 H   0  0  0  0  0  0  0  0  0  0  0  0
    3.6838   -0.5607   -1.5639 H   0  0  0  0  0  0  0  0  0  0  0  0
  1  5  1  0
  5  6  1  0
  5  7  2  0
  1  2  1  0
  1  3  1  0
  1  4  1  0
  8 12  1  0
 12 15  1  0
  8  9  1  0
  8 10  1  0
  8 11  1  0
 12 13  1  0
 12 14  1  0
 15 16  1  0
 15 17  1  0
 15 18  1  0
M  CHG  1   6  -1
M  END
>  <PDB_ID>  (762) 
pdb2vf2

>  <RESIDUE_NAME>  (762) 
GLU   LYS

>  <FRAG_NAME>  (762) 
ACET   PRPA

>  <FRAG_ATOM_NUM>  (762) 
fragi: 7  fragj: 11

>  <atom.prop.CHAIN_ID>  (762) 
A A A A A A A Z Z Z Z Z Z Z Z Z Z Z

>  <atom.prop.IS_HEAVY_ATOM>  (762) 
1 0 0 0 1 1 1 1 0 0 0 1 0 0 1 0 0 0

>  <DIFUSE_FUNC_ATOM>  (762) 
atom 6   atom 7   

>  <FINAL_SINGLE_POINT_ENERGY>  (762) 
0

>  <NONCOV_INTER_ENERGY_QM>  (762) 
0

>  <FF_Energy>  (762) 
43.18

>  <QM_Energy>  (762) 
8.42

>  <source>  (762) 
ACET_PRPA_07

>  <Index>  (762) 
18482

$$$$
ACET-pdb2vf2-A-GLU-17:PRPA-pdb2vf2-A-LYS-25
     RDKit          3D

 18 16  0  0  0  0  0  0  0  0999 V2000
   -0.0376    1.5001    0.0181 C   0  0  0  0  0  0  0  0  0  0  0  0
    0.4618    1.8234   -0.7601 H   0  0  0  0  0  0  0  0  0  0  0  0
    0.3463    1.8007    0.8687 H   0  0  0  0  0  0  0  0  0  0  0  0
   -1.0603    1.8709   -0.0505 H   0  0  0  0  0  0  0  0  0  0  0  0
    0.0000    0.0000    0.0000 C   0  0  0  0  0  0  0  0  0  0  0  0
   -1.0860   -0.5788    0.0000 O   0  0  0  0  0  1  0  0  0  0  0  0
    1.0860   -0.6032    0.0000 O   0  0  0  0  0  0  0  0  0  0  0  0
    2.5392   -0.1328   -3.3191 C   0  0  0  0  0  0  0  0  0  0  0  0
    2.9882   -0.8646   -3.8549 H   0  0  0  0  0  0  0  0  0  0  0  0
    3.0445    0.7271   -3.4949 H   0  0  0  0  0  0  0  0  0  0  0  0
    1.5283   -0.0088   -3.7073 H   0  0  0  0  0  0  0  0  0  0  0  0
    2.6441   -0.4636   -1.8768 C   0  0  0  0  0  0  0  0  0  0  0  0
    2.2045    0.2618   -1.3329 H   0  0  0  0  0  0  0  0  0  0  0  0
    2.1636   -1.3297   -1.6937 H   0  0  0  0  0  0  0  0  0  0  0  0
    4.0647   -0.5963   -1.4493 C   0  0  0  0  0  0  0  0  0  0  0  0
    4.5065   -1.3223   -1.9709 H   0  0  0  0  0  0  0  0  0  0  0  0
    4.5426    0.2670   -1.5939 H   0  0  0  0  0  0  0  0  0  0  0  0
    4.1369   -0.8490   -0.3914 H   0  0  0  0  0  0  0  0  0  0  0  0
  1  5  1  0
  5  6  1  0
  5  7  2  0
  1  2  1  0
  1  3  1  0
  1  4  1  0
  8 12  1  0
 12 15  1  0
  8  9  1  0
  8 10  1  0
  8 11  1  0
 12 13  1  0
 12 14  1  0
 15 16  1  0
 15 17  1  0
 15 18  1  0
M  CHG  1   6  -1
M  END
>  <PDB_ID>  (763) 
pdb2vf2

>  <RESIDUE_NAME>  (763) 
GLU   LYS

>  <FRAG_NAME>  (763) 
ACET   PRPA

>  <FRAG_ATOM_NUM>  (763) 
fragi: 7  fragj: 11

>  <atom.prop.CHAIN_ID>  (763) 
A A A A A A A Z Z Z Z Z Z Z Z Z Z Z

>  <atom.prop.IS_HEAVY_ATOM>  (763) 
1 0 0 0 1 1 1 1 0 0 0 1 0 0 1 0 0 0

>  <DIFUSE_FUNC_ATOM>  (763) 
atom 6   atom 7   

>  <FINAL_SINGLE_POINT_ENERGY>  (763) 
0

>  <NONCOV_INTER_ENERGY_QM>  (763) 
0

>  <FF_Energy>  (763) 
25.42

>  <QM_Energy>  (763) 
7.96

>  <source>  (763) 
ACET_PRPA_07

>  <Index>  (763) 
18489

$$$$
ACET-pdb2vf2-A-GLU-17:PRPA-pdb2vf2-A-LYS-25
     RDKit          3D

 18 16  0  0  0  0  0  0  0  0999 V2000
   -0.0376    1.5001    0.0181 C   0  0  0  0  0  0  0  0  0  0  0  0
    0.4618    1.8234   -0.7601 H   0  0  0  0  0  0  0  0  0  0  0  0
    0.3463    1.8007    0.8687 H   0  0  0  0  0  0  0  0  0  0  0  0
   -1.0603    1.8709   -0.0505 H   0  0  0  0  0  0  0  0  0  0  0  0
    0.0000    0.0000    0.0000 C   0  0  0  0  0  0  0  0  0  0  0  0
   -1.0860   -0.5788    0.0000 O   0  0  0  0  0  1  0  0  0  0  0  0
    1.0860   -0.6032    0.0000 O   0  0  0  0  0  0  0  0  0  0  0  0
    2.6441   -0.4636   -1.8768 C   0  0  0  0  0  0  0  0  0  0  0  0
    2.2045    0.2618   -1.3329 H   0  0  0  0  0  0  0  0  0  0  0  0
    2.1636   -1.3297   -1.6937 H   0  0  0  0  0  0  0  0  0  0  0  0
    2.5669   -0.2206   -2.9365 H   0  0  0  0  0  0  0  0  0  0  0  0
    4.0647   -0.5963   -1.4493 C   0  0  0  0  0  0  0  0  0  0  0  0
    4.5065   -1.3223   -1.9709 H   0  0  0  0  0  0  0  0  0  0  0  0
    4.5426    0.2670   -1.5939 H   0  0  0  0  0  0  0  0  0  0  0  0
    4.1655   -0.9492    0.0280 C   0  0  0  0  0  0  0  0  0  0  0  0
    3.7124   -0.2227    0.5645 H   0  0  0  0  0  0  0  0  0  0  0  0
    3.6633   -1.8107    0.1894 H   0  0  0  0  0  0  0  0  0  0  0  0
    5.1924   -1.0632    0.3754 H   0  0  0  0  0  0  0  0  0  0  0  0
  1  5  1  0
  5  6  1  0
  5  7  2  0
  1  2  1  0
  1  3  1  0
  1  4  1  0
  8 12  1  0
 12 15  1  0
  8  9  1  0
  8 10  1  0
  8 11  1  0
 12 13  1  0
 12 14  1  0
 15 16  1  0
 15 17  1  0
 15 18  1  0
M  CHG  1   6  -1
M  END
>  <PDB_ID>  (764) 
pdb2vf2

>  <RESIDUE_NAME>  (764) 
GLU   LYS

>  <FRAG_NAME>  (764) 
ACET   PRPA

>  <FRAG_ATOM_NUM>  (764) 
fragi: 7  fragj: 11

>  <atom.prop.CHAIN_ID>  (764) 
A A A A A A A Z Z Z Z Z Z Z Z Z Z Z

>  <atom.prop.IS_HEAVY_ATOM>  (764) 
1 0 0 0 1 1 1 1 0 0 0 1 0 0 1 0 0 0

>  <DIFUSE_FUNC_ATOM>  (764) 
atom 6   atom 7   

>  <FINAL_SINGLE_POINT_ENERGY>  (764) 
0

>  <NONCOV_INTER_ENERGY_QM>  (764) 
0

>  <FF_Energy>  (764) 
27.66

>  <QM_Energy>  (764) 
7.31

>  <source>  (764) 
ACET_PRPA_07

>  <Index>  (764) 
18495

$$$$
ACET-pdb2v6b-C-ASP-55:PRPA-pdb2v6b-C-ARG-58
     RDKit          3D

 18 16  0  0  0  0  0  0  0  0999 V2000
    0.0115    1.5197    0.0037 C   0  0  0  0  0  0  0  0  0  0  0  0
    0.5682    1.8367   -0.7560 H   0  0  0  0  0  0  0  0  0  0  0  0
    0.3900    1.8348    0.8660 H   0  0  0  0  0  0  0  0  0  0  0  0
   -0.9822    1.9543   -0.1046 H   0  0  0  0  0  0  0  0  0  0  0  0
    0.0000    0.0000    0.0000 C   0  0  0  0  0  0  0  0  0  0  0  0
   -1.0989   -0.5945   -0.0000 O   0  0  0  0  0  1  0  0  0  0  0  0
    1.0989   -0.5990    0.0000 O   0  0  0  0  0  0  0  0  0  0  0  0
   -0.4485   -1.6492    4.0129 C   0  0  0  0  0  0  0  0  0  0  0  0
   -0.2004   -2.5839    4.2644 H   0  0  0  0  0  0  0  0  0  0  0  0
   -1.2631   -1.6773    3.2892 H   0  0  0  0  0  0  0  0  0  0  0  0
   -0.7956   -1.1260    4.9039 H   0  0  0  0  0  0  0  0  0  0  0  0
    0.7892   -0.9436    3.4398 C   0  0  0  0  0  0  0  0  0  0  0  0
    0.5339   -0.0042    3.2142 H   0  0  0  0  0  0  0  0  0  0  0  0
    1.4962   -0.9370    4.1456 H   0  0  0  0  0  0  0  0  0  0  0  0
    1.3786   -1.5841    2.1895 C   0  0  0  0  0  0  0  0  0  0  0  0
    1.6461   -2.5236    2.4022 H   0  0  0  0  0  0  0  0  0  0  0  0
    0.6829   -1.5909    1.4705 H   0  0  0  0  0  0  0  0  0  0  0  0
    2.2520   -1.0389    1.8316 H   0  0  0  0  0  0  0  0  0  0  0  0
  1  5  1  0
  5  6  1  0
  5  7  2  0
  1  2  1  0
  1  3  1  0
  1  4  1  0
  8 12  1  0
 12 15  1  0
  8  9  1  0
  8 10  1  0
  8 11  1  0
 12 13  1  0
 12 14  1  0
 15 16  1  0
 15 17  1  0
 15 18  1  0
M  CHG  1   6  -1
M  END
>  <PDB_ID>  (765) 
pdb2v6b

>  <RESIDUE_NAME>  (765) 
ASP   ARG

>  <FRAG_NAME>  (765) 
ACET   PRPA

>  <FRAG_ATOM_NUM>  (765) 
fragi: 7  fragj: 11

>  <atom.prop.CHAIN_ID>  (765) 
A A A A A A A Z Z Z Z Z Z Z Z Z Z Z

>  <atom.prop.IS_HEAVY_ATOM>  (765) 
1 0 0 0 1 1 1 1 0 0 0 1 0 0 1 0 0 0

>  <DIFUSE_FUNC_ATOM>  (765) 
atom 6   atom 7   

>  <FINAL_SINGLE_POINT_ENERGY>  (765) 
0

>  <NONCOV_INTER_ENERGY_QM>  (765) 
0

>  <FF_Energy>  (765) 
43.8

>  <QM_Energy>  (765) 
9.57

>  <source>  (765) 
ACET_PRPA_07

>  <Index>  (765) 
20253

$$$$
ACET-pdb1p5t-A-GLU-19:PRPA-pdb1p5t-A-LYS-14
     RDKit          3D

 18 16  0  0  0  0  0  0  0  0999 V2000
    0.0198    1.5353    0.0297 C   0  0  0  0  0  0  0  0  0  0  0  0
    0.9180    1.8153   -0.2563 H   0  0  0  0  0  0  0  0  0  0  0  0
   -0.1782    1.8054    0.9535 H   0  0  0  0  0  0  0  0  0  0  0  0
   -0.7174    1.9837   -0.6362 H   0  0  0  0  0  0  0  0  0  0  0  0
    0.0000    0.0000    0.0000 C   0  0  0  0  0  0  0  0  0  0  0  0
   -1.0974   -0.6211    0.0000 O   0  0  0  0  0  1  0  0  0  0  0  0
    1.0974   -0.5976   -0.0000 O   0  0  0  0  0  0  0  0  0  0  0  0
    1.5969   -1.0617   -3.3179 C   0  0  0  0  0  0  0  0  0  0  0  0
    1.5430   -0.1742   -3.7742 H   0  0  0  0  0  0  0  0  0  0  0  0
    0.8269   -1.1621   -2.6899 H   0  0  0  0  0  0  0  0  0  0  0  0
    1.5613   -1.8550   -4.0646 H   0  0  0  0  0  0  0  0  0  0  0  0
    2.8995   -1.1079   -2.5009 C   0  0  0  0  0  0  0  0  0  0  0  0
    2.8521   -1.8659   -1.8613 H   0  0  0  0  0  0  0  0  0  0  0  0
    3.6662   -1.2205   -3.1217 H   0  0  0  0  0  0  0  0  0  0  0  0
    3.1299    0.1939   -1.6855 C   0  0  0  0  0  0  0  0  0  0  0  0
    3.1006    0.9775   -2.3182 H   0  0  0  0  0  0  0  0  0  0  0  0
    2.3762    0.2954   -1.0241 H   0  0  0  0  0  0  0  0  0  0  0  0
    4.0733    0.2256   -1.1405 H   0  0  0  0  0  0  0  0  0  0  0  0
  1  5  1  0
  5  6  1  0
  5  7  2  0
  1  2  1  0
  1  3  1  0
  1  4  1  0
  8 12  1  0
 12 15  1  0
  8  9  1  0
  8 10  1  0
  8 11  1  0
 12 13  1  0
 12 14  1  0
 15 16  1  0
 15 17  1  0
 15 18  1  0
M  CHG  1   6  -1
M  END
>  <PDB_ID>  (766) 
pdb1p5t

>  <RESIDUE_NAME>  (766) 
GLU   LYS

>  <FRAG_NAME>  (766) 
ACET   PRPA

>  <FRAG_ATOM_NUM>  (766) 
fragi: 7  fragj: 11

>  <atom.prop.CHAIN_ID>  (766) 
A A A A A A A Z Z Z Z Z Z Z Z Z Z Z

>  <atom.prop.IS_HEAVY_ATOM>  (766) 
1 0 0 0 1 1 1 1 0 0 0 1 0 0 1 0 0 0

>  <DIFUSE_FUNC_ATOM>  (766) 
atom 6   atom 7   

>  <FINAL_SINGLE_POINT_ENERGY>  (766) 
0

>  <NONCOV_INTER_ENERGY_QM>  (766) 
0

>  <FF_Energy>  (766) 
19.6

>  <QM_Energy>  (766) 
-0.94

>  <source>  (766) 
ACET_PRPA_07

>  <Index>  (766) 
20310

$$$$
ACET-pdb2vna-A-GLU-348:PRPA-pdb2vna-A-ARG-42
     RDKit          3D

 18 16  0  0  0  0  0  0  0  0999 V2000
    0.2176    1.5071    0.0140 C   0  0  0  0  0  0  0  0  0  0  0  0
    0.7244    1.7411   -0.8027 H   0  0  0  0  0  0  0  0  0  0  0  0
    0.7363    1.7233    0.8295 H   0  0  0  0  0  0  0  0  0  0  0  0
   -0.6965    2.1008    0.0263 H   0  0  0  0  0  0  0  0  0  0  0  0
    0.0000    0.0000    0.0000 C   0  0  0  0  0  0  0  0  0  0  0  0
   -1.0874   -0.5340    0.0000 O   0  0  0  0  0  1  0  0  0  0  0  0
    1.0874   -0.6176   -0.0000 O   0  0  0  0  0  0  0  0  0  0  0  0
    2.1308   -4.4814    0.9524 C   0  0  0  0  0  0  0  0  0  0  0  0
    2.8339   -4.7364    0.3112 H   0  0  0  0  0  0  0  0  0  0  0  0
    1.2322   -4.5291    0.5504 H   0  0  0  0  0  0  0  0  0  0  0  0
    2.1683   -5.1679    1.7982 H   0  0  0  0  0  0  0  0  0  0  0  0
    2.3814   -3.0327    1.3802 C   0  0  0  0  0  0  0  0  0  0  0  0
    1.5231   -2.6463    1.7410 H   0  0  0  0  0  0  0  0  0  0  0  0
    3.0660   -3.0246    2.1201 H   0  0  0  0  0  0  0  0  0  0  0  0
    2.8776   -2.1300    0.2684 C   0  0  0  0  0  0  0  0  0  0  0  0
    2.8942   -1.1919    0.6139 H   0  0  0  0  0  0  0  0  0  0  0  0
    3.8052   -2.4146    0.0292 H   0  0  0  0  0  0  0  0  0  0  0  0
    2.2463   -2.1762   -0.6190 H   0  0  0  0  0  0  0  0  0  0  0  0
  1  5  1  0
  5  6  1  0
  5  7  2  0
  1  2  1  0
  1  3  1  0
  1  4  1  0
  8 12  1  0
 12 15  1  0
  8  9  1  0
  8 10  1  0
  8 11  1  0
 12 13  1  0
 12 14  1  0
 15 16  1  0
 15 17  1  0
 15 18  1  0
M  CHG  1   6  -1
M  END
>  <PDB_ID>  (767) 
pdb2vna

>  <RESIDUE_NAME>  (767) 
GLU   ARG

>  <FRAG_NAME>  (767) 
ACET   PRPA

>  <FRAG_ATOM_NUM>  (767) 
fragi: 7  fragj: 11

>  <atom.prop.CHAIN_ID>  (767) 
A A A A A A A Z Z Z Z Z Z Z Z Z Z Z

>  <atom.prop.IS_HEAVY_ATOM>  (767) 
1 0 0 0 1 1 1 1 0 0 0 1 0 0 1 0 0 0

>  <DIFUSE_FUNC_ATOM>  (767) 
atom 6   atom 7   

>  <FINAL_SINGLE_POINT_ENERGY>  (767) 
0

>  <NONCOV_INTER_ENERGY_QM>  (767) 
0

>  <FF_Energy>  (767) 
34.21

>  <QM_Energy>  (767) 
7.85

>  <source>  (767) 
ACET_PRPA_07

>  <Index>  (767) 
21045

$$$$
ACET-pdb1oyn-A-GLU-89:PRPA-pdb1oyn-A-PRO-80
     RDKit          3D

 18 16  0  0  0  0  0  0  0  0999 V2000
    0.0029    1.5169    0.0174 C   0  0  0  0  0  0  0  0  0  0  0  0
   -0.5457    1.8199   -0.7350 H   0  0  0  0  0  0  0  0  0  0  0  0
    0.9357    1.8082   -0.0476 H   0  0  0  0  0  0  0  0  0  0  0  0
   -0.4242    1.9052    0.9421 H   0  0  0  0  0  0  0  0  0  0  0  0
    0.0000    0.0000    0.0000 C   0  0  0  0  0  0  0  0  0  0  0  0
   -1.1010   -0.5982    0.0000 O   0  0  0  0  0  1  0  0  0  0  0  0
    1.1010   -0.5898    0.0000 O   0  0  0  0  0  0  0  0  0  0  0  0
    0.9099   -3.1996   -0.8711 C   0  0  0  0  0  0  0  0  0  0  0  0
    1.1517   -2.4603   -0.2042 H   0  0  0  0  0  0  0  0  0  0  0  0
    0.5627   -2.7610   -1.8066 H   0  0  0  0  0  0  0  0  0  0  0  0
    1.7362   -3.9041   -0.9673 H   0  0  0  0  0  0  0  0  0  0  0  0
   -0.3534   -3.8428   -0.2986 C   0  0  0  0  0  0  0  0  0  0  0  0
   -0.1221   -4.6460    0.2478 H   0  0  0  0  0  0  0  0  0  0  0  0
   -0.8579   -3.1894    0.2610 H   0  0  0  0  0  0  0  0  0  0  0  0
   -1.1131   -4.2160   -1.5130 C   0  0  0  0  0  0  0  0  0  0  0  0
   -0.7238   -5.0254   -1.9452 H   0  0  0  0  0  0  0  0  0  0  0  0
   -2.0745   -4.3727   -1.3000 H   0  0  0  0  0  0  0  0  0  0  0  0
   -0.9975   -3.3425   -2.1546 H   0  0  0  0  0  0  0  0  0  0  0  0
  1  5  1  0
  5  6  1  0
  5  7  2  0
  1  2  1  0
  1  3  1  0
  1  4  1  0
  8 12  1  0
 12 15  1  0
  8  9  1  0
  8 10  1  0
  8 11  1  0
 12 13  1  0
 12 14  1  0
 15 16  1  0
 15 17  1  0
 15 18  1  0
M  CHG  1   6  -1
M  END
>  <PDB_ID>  (768) 
pdb1oyn

>  <RESIDUE_NAME>  (768) 
GLU   PRO

>  <FRAG_NAME>  (768) 
ACET   PRPA

>  <FRAG_ATOM_NUM>  (768) 
fragi: 7  fragj: 11

>  <atom.prop.CHAIN_ID>  (768) 
A A A A A A A Z Z Z Z Z Z Z Z Z Z Z

>  <atom.prop.IS_HEAVY_ATOM>  (768) 
1 0 0 0 1 1 1 1 0 0 0 1 0 0 1 0 0 0

>  <DIFUSE_FUNC_ATOM>  (768) 
atom 6   atom 7   

>  <FINAL_SINGLE_POINT_ENERGY>  (768) 
0

>  <NONCOV_INTER_ENERGY_QM>  (768) 
0

>  <FF_Energy>  (768) 
16.59

>  <QM_Energy>  (768) 
-0.78

>  <source>  (768) 
ACET_PRPA_07

>  <Index>  (768) 
21396

$$$$
ACET-pdb1p5t-A-GLU-34:PRPA-pdb1p5t-B-LEU-48
     RDKit          3D

 18 16  0  0  0  0  0  0  0  0999 V2000
   -0.0017    1.5232   -0.0350 C   0  0  0  0  0  0  0  0  0  0  0  0
   -0.7154    1.7975   -0.6731 H   0  0  0  0  0  0  0  0  0  0  0  0
    0.8900    1.8060   -0.3780 H   0  0  0  0  0  0  0  0  0  0  0  0
   -0.1809    2.0193    0.9189 H   0  0  0  0  0  0  0  0  0  0  0  0
    0.0000    0.0000    0.0000 C   0  0  0  0  0  0  0  0  0  0  0  0
   -1.0992   -0.5971    0.0000 O   0  0  0  0  0  1  0  0  0  0  0  0
    1.0992   -0.5962    0.0000 O   0  0  0  0  0  0  0  0  0  0  0  0
   -2.5429   -0.0518   -3.4097 C   0  0  0  0  0  0  0  0  0  0  0  0
   -3.0423    0.8048   -3.5233 H   0  0  0  0  0  0  0  0  0  0  0  0
   -2.6892   -0.4026   -2.3882 H   0  0  0  0  0  0  0  0  0  0  0  0
   -2.9511   -0.7916   -4.0984 H   0  0  0  0  0  0  0  0  0  0  0  0
   -1.0616    0.1471   -3.7144 C   0  0  0  0  0  0  0  0  0  0  0  0
   -0.5715   -0.6386   -3.3886 H   0  0  0  0  0  0  0  0  0  0  0  0
   -0.9601    0.2816   -4.6805 H   0  0  0  0  0  0  0  0  0  0  0  0
   -0.4773    1.3780   -3.0129 C   0  0  0  0  0  0  0  0  0  0  0  0
   -0.7093    1.3468   -2.0487 H   0  0  0  0  0  0  0  0  0  0  0  0
    0.6075    1.3701   -3.1195 H   0  0  0  0  0  0  0  0  0  0  0  0
   -0.9155    2.2906   -3.4170 H   0  0  0  0  0  0  0  0  0  0  0  0
  1  5  1  0
  5  6  1  0
  5  7  2  0
  1  2  1  0
  1  3  1  0
  1  4  1  0
  8 12  1  0
 12 15  1  0
  8  9  1  0
  8 10  1  0
  8 11  1  0
 12 13  1  0
 12 14  1  0
 15 16  1  0
 15 17  1  0
 15 18  1  0
M  CHG  1   6  -1
M  END
>  <PDB_ID>  (769) 
pdb1p5t

>  <RESIDUE_NAME>  (769) 
GLU   LEU

>  <FRAG_NAME>  (769) 
ACET   PRPA

>  <FRAG_ATOM_NUM>  (769) 
fragi: 7  fragj: 11

>  <atom.prop.CHAIN_ID>  (769) 
A A A A A A A Z Z Z Z Z Z Z Z Z Z Z

>  <atom.prop.IS_HEAVY_ATOM>  (769) 
1 0 0 0 1 1 1 1 0 0 0 1 0 0 1 0 0 0

>  <DIFUSE_FUNC_ATOM>  (769) 
atom 6   atom 7   

>  <FINAL_SINGLE_POINT_ENERGY>  (769) 
0

>  <NONCOV_INTER_ENERGY_QM>  (769) 
0

>  <FF_Energy>  (769) 
49.71

>  <QM_Energy>  (769) 
3.64

>  <source>  (769) 
ACET_PRPA_07

>  <Index>  (769) 
21705

$$$$
ACET-pdb1p9h-A-GLU-190:PRPA-pdb1p9h-A-LYS-178
     RDKit          3D

 18 16  0  0  0  0  0  0  0  0999 V2000
   -0.0045    1.5209    0.0081 C   0  0  0  0  0  0  0  0  0  0  0  0
   -0.5492    1.8180   -0.7512 H   0  0  0  0  0  0  0  0  0  0  0  0
    0.9277    1.8188   -0.0560 H   0  0  0  0  0  0  0  0  0  0  0  0
   -0.4360    1.9283    0.9224 H   0  0  0  0  0  0  0  0  0  0  0  0
    0.0000    0.0000    0.0000 C   0  0  0  0  0  0  0  0  0  0  0  0
   -1.0992   -0.5989    0.0000 O   0  0  0  0  0  1  0  0  0  0  0  0
    1.0992   -0.5973   -0.0000 O   0  0  0  0  0  0  0  0  0  0  0  0
    4.4206    4.0708   -1.4635 C   0  0  0  0  0  0  0  0  0  0  0  0
    3.9728    4.6945   -0.8173 H   0  0  0  0  0  0  0  0  0  0  0  0
    4.1712    4.3339   -2.3983 H   0  0  0  0  0  0  0  0  0  0  0  0
    5.5009    4.1586   -1.3477 H   0  0  0  0  0  0  0  0  0  0  0  0
    3.9358    2.6595   -1.2021 C   0  0  0  0  0  0  0  0  0  0  0  0
    4.3860    2.0392   -1.8483 H   0  0  0  0  0  0  0  0  0  0  0  0
    4.1867    2.4001   -0.2676 H   0  0  0  0  0  0  0  0  0  0  0  0
    2.4402    2.5152   -1.3578 C   0  0  0  0  0  0  0  0  0  0  0  0
    1.9825    3.1278   -0.7110 H   0  0  0  0  0  0  0  0  0  0  0  0
    2.1807    2.7673   -2.2910 H   0  0  0  0  0  0  0  0  0  0  0  0
    2.1271    1.4896   -1.1628 H   0  0  0  0  0  0  0  0  0  0  0  0
  1  5  1  0
  5  6  1  0
  5  7  2  0
  1  2  1  0
  1  3  1  0
  1  4  1  0
  8 12  1  0
 12 15  1  0
  8  9  1  0
  8 10  1  0
  8 11  1  0
 12 13  1  0
 12 14  1  0
 15 16  1  0
 15 17  1  0
 15 18  1  0
M  CHG  1   6  -1
M  END
>  <PDB_ID>  (770) 
pdb1p9h

>  <RESIDUE_NAME>  (770) 
GLU   LYS

>  <FRAG_NAME>  (770) 
ACET   PRPA

>  <FRAG_ATOM_NUM>  (770) 
fragi: 7  fragj: 11

>  <atom.prop.CHAIN_ID>  (770) 
A A A A A A A Z Z Z Z Z Z Z Z Z Z Z

>  <atom.prop.IS_HEAVY_ATOM>  (770) 
1 0 0 0 1 1 1 1 0 0 0 1 0 0 1 0 0 0

>  <DIFUSE_FUNC_ATOM>  (770) 
atom 6   atom 7   

>  <FINAL_SINGLE_POINT_ENERGY>  (770) 
0

>  <NONCOV_INTER_ENERGY_QM>  (770) 
0

>  <FF_Energy>  (770) 
22.55

>  <QM_Energy>  (770) 
5.6

>  <source>  (770) 
ACET_PRPA_07

>  <Index>  (770) 
22352

$$$$
ACET-pdb2vig-A-GLU-173:PRPA-pdb2vig-A-VAL-178
     RDKit          3D

 18 16  0  0  0  0  0  0  0  0999 V2000
    0.1751    1.4862    0.0150 C   0  0  0  0  0  0  0  0  0  0  0  0
    0.6936    1.7419   -0.8019 H   0  0  0  0  0  0  0  0  0  0  0  0
    0.7047    1.7240    0.8305 H   0  0  0  0  0  0  0  0  0  0  0  0
   -0.7354    2.0852    0.0269 H   0  0  0  0  0  0  0  0  0  0  0  0
    0.0000    0.0000    0.0000 C   0  0  0  0  0  0  0  0  0  0  0  0
   -1.0894   -0.5563   -0.0000 O   0  0  0  0  0  1  0  0  0  0  0  0
    1.0894   -0.6073   -0.0000 O   0  0  0  0  0  0  0  0  0  0  0  0
    2.4329   -0.7500    3.5457 C   0  0  0  0  0  0  0  0  0  0  0  0
    1.9711   -1.1580    4.3339 H   0  0  0  0  0  0  0  0  0  0  0  0
    2.4697    0.3308    3.6814 H   0  0  0  0  0  0  0  0  0  0  0  0
    3.4499   -1.1417    3.5212 H   0  0  0  0  0  0  0  0  0  0  0  0
    1.6257   -1.1280    2.2599 C   0  0  0  0  0  0  0  0  0  0  0  0
    2.1955   -0.8877    1.4830 H   0  0  0  0  0  0  0  0  0  0  0  0
    0.6836   -0.5814    2.2182 H   0  0  0  0  0  0  0  0  0  0  0  0
    1.3892   -2.6097    2.2195 C   0  0  0  0  0  0  0  0  0  0  0  0
    0.8727   -2.8534    1.3943 H   0  0  0  0  0  0  0  0  0  0  0  0
    2.2656   -3.0978    2.2104 H   0  0  0  0  0  0  0  0  0  0  0  0
    0.8657   -2.8970    3.0267 H   0  0  0  0  0  0  0  0  0  0  0  0
  1  5  1  0
  5  6  1  0
  5  7  2  0
  1  2  1  0
  1  3  1  0
  1  4  1  0
  8 12  1  0
 12 15  1  0
  8  9  1  0
  8 10  1  0
  8 11  1  0
 12 13  1  0
 12 14  1  0
 15 16  1  0
 15 17  1  0
 15 18  1  0
M  CHG  1   6  -1
M  END
>  <PDB_ID>  (771) 
pdb2vig

>  <RESIDUE_NAME>  (771) 
GLU   VAL

>  <FRAG_NAME>  (771) 
ACET   PRPA

>  <FRAG_ATOM_NUM>  (771) 
fragi: 7  fragj: 11

>  <atom.prop.CHAIN_ID>  (771) 
A A A A A A A Z Z Z Z Z Z Z Z Z Z Z

>  <atom.prop.IS_HEAVY_ATOM>  (771) 
1 0 0 0 1 1 1 1 0 0 0 1 0 0 1 0 0 0

>  <DIFUSE_FUNC_ATOM>  (771) 
atom 6   atom 7   

>  <FINAL_SINGLE_POINT_ENERGY>  (771) 
0

>  <NONCOV_INTER_ENERGY_QM>  (771) 
0

>  <FF_Energy>  (771) 
38.5

>  <QM_Energy>  (771) 
8.31

>  <source>  (771) 
ACET_PRPA_07

>  <Index>  (771) 
22576

$$$$
ACET-pdb1p2z-A-GLU-35:PRPA-pdb1p2z-A-ARG-32
     RDKit          3D

 18 16  0  0  0  0  0  0  0  0999 V2000
    0.1764    1.4839    0.0151 C   0  0  0  0  0  0  0  0  0  0  0  0
    0.6964    1.7381   -0.8015 H   0  0  0  0  0  0  0  0  0  0  0  0
    0.7078    1.7192    0.8302 H   0  0  0  0  0  0  0  0  0  0  0  0
   -0.7338    2.0836    0.0276 H   0  0  0  0  0  0  0  0  0  0  0  0
    0.0000    0.0000    0.0000 C   0  0  0  0  0  0  0  0  0  0  0  0
   -1.0893   -0.5581   -0.0000 O   0  0  0  0  0  1  0  0  0  0  0  0
    1.0893   -0.6100    0.0000 O   0  0  0  0  0  0  0  0  0  0  0  0
    2.3409    0.5635    2.2293 C   0  0  0  0  0  0  0  0  0  0  0  0
    1.7384    0.3218    1.4610 H   0  0  0  0  0  0  0  0  0  0  0  0
    3.2315    1.0568    1.8399 H   0  0  0  0  0  0  0  0  0  0  0  0
    1.7969    1.2275    2.9011 H   0  0  0  0  0  0  0  0  0  0  0  0
    2.7349   -0.7195    2.9587 C   0  0  0  0  0  0  0  0  0  0  0  0
    3.3416   -0.4731    3.7199 H   0  0  0  0  0  0  0  0  0  0  0  0
    1.9009   -1.1354    3.3321 H   0  0  0  0  0  0  0  0  0  0  0  0
    3.4452   -1.7731    2.1201 C   0  0  0  0  0  0  0  0  0  0  0  0
    2.8472   -2.0393    1.3605 H   0  0  0  0  0  0  0  0  0  0  0  0
    4.2871   -1.3764    1.7494 H   0  0  0  0  0  0  0  0  0  0  0  0
    3.6965   -2.6598    2.7021 H   0  0  0  0  0  0  0  0  0  0  0  0
  1  5  1  0
  5  6  1  0
  5  7  2  0
  1  2  1  0
  1  3  1  0
  1  4  1  0
  8 12  1  0
 12 15  1  0
  8  9  1  0
  8 10  1  0
  8 11  1  0
 12 13  1  0
 12 14  1  0
 15 16  1  0
 15 17  1  0
 15 18  1  0
M  CHG  1   6  -1
M  END
>  <PDB_ID>  (772) 
pdb1p2z

>  <RESIDUE_NAME>  (772) 
GLU   ARG

>  <FRAG_NAME>  (772) 
ACET   PRPA

>  <FRAG_ATOM_NUM>  (772) 
fragi: 7  fragj: 11

>  <atom.prop.CHAIN_ID>  (772) 
A A A A A A A Z Z Z Z Z Z Z Z Z Z Z

>  <atom.prop.IS_HEAVY_ATOM>  (772) 
1 0 0 0 1 1 1 1 0 0 0 1 0 0 1 0 0 0

>  <DIFUSE_FUNC_ATOM>  (772) 
atom 6   atom 7   

>  <FINAL_SINGLE_POINT_ENERGY>  (772) 
0

>  <NONCOV_INTER_ENERGY_QM>  (772) 
0

>  <FF_Energy>  (772) 
28.78

>  <QM_Energy>  (772) 
1.07

>  <source>  (772) 
ACET_PRPA_07

>  <Index>  (772) 
22605

$$$$
ACET-pdb2vqj-A-ASP-90:PRPA-pdb2vqj-A-LYS-93
     RDKit          3D

 18 16  0  0  0  0  0  0  0  0999 V2000
   -0.0205    1.5306   -0.0068 C   0  0  0  0  0  0  0  0  0  0  0  0
   -0.8476    1.8373    0.4499 H   0  0  0  0  0  0  0  0  0  0  0  0
   -0.0072    1.8427   -0.9495 H   0  0  0  0  0  0  0  0  0  0  0  0
    0.8319    1.9747    0.5073 H   0  0  0  0  0  0  0  0  0  0  0  0
    0.0000    0.0000    0.0000 C   0  0  0  0  0  0  0  0  0  0  0  0
   -1.0976   -0.5978   -0.0000 O   0  0  0  0  0  1  0  0  0  0  0  0
    1.0976   -0.6035   -0.0000 O   0  0  0  0  0  0  0  0  0  0  0  0
   -2.3082   -0.0461   -2.7873 C   0  0  0  0  0  0  0  0  0  0  0  0
   -1.8454    0.3804   -2.0068 H   0  0  0  0  0  0  0  0  0  0  0  0
   -3.2210    0.3580   -2.8857 H   0  0  0  0  0  0  0  0  0  0  0  0
   -1.7359    0.1735   -3.6887 H   0  0  0  0  0  0  0  0  0  0  0  0
   -2.4790   -1.5297   -2.4807 C   0  0  0  0  0  0  0  0  0  0  0  0
   -2.9492   -1.9673   -3.2496 H   0  0  0  0  0  0  0  0  0  0  0  0
   -1.5742   -1.9446   -2.3700 H   0  0  0  0  0  0  0  0  0  0  0  0
   -3.2853   -1.7584   -1.2162 C   0  0  0  0  0  0  0  0  0  0  0  0
   -2.8124   -1.3164   -0.4507 H   0  0  0  0  0  0  0  0  0  0  0  0
   -4.1880   -1.3404   -1.3303 H   0  0  0  0  0  0  0  0  0  0  0  0
   -3.4156   -2.8152   -0.9835 H   0  0  0  0  0  0  0  0  0  0  0  0
  1  5  1  0
  5  6  1  0
  5  7  2  0
  1  2  1  0
  1  3  1  0
  1  4  1  0
  8 12  1  0
 12 15  1  0
  8  9  1  0
  8 10  1  0
  8 11  1  0
 12 13  1  0
 12 14  1  0
 15 16  1  0
 15 17  1  0
 15 18  1  0
M  CHG  1   6  -1
M  END
>  <PDB_ID>  (773) 
pdb2vqj

>  <RESIDUE_NAME>  (773) 
ASP   LYS

>  <FRAG_NAME>  (773) 
ACET   PRPA

>  <FRAG_ATOM_NUM>  (773) 
fragi: 7  fragj: 11

>  <atom.prop.CHAIN_ID>  (773) 
A A A A A A A Z Z Z Z Z Z Z Z Z Z Z

>  <atom.prop.IS_HEAVY_ATOM>  (773) 
1 0 0 0 1 1 1 1 0 0 0 1 0 0 1 0 0 0

>  <DIFUSE_FUNC_ATOM>  (773) 
atom 6   atom 7   

>  <FINAL_SINGLE_POINT_ENERGY>  (773) 
0

>  <NONCOV_INTER_ENERGY_QM>  (773) 
0

>  <FF_Energy>  (773) 
16.4

>  <QM_Energy>  (773) 
-2.12

>  <source>  (773) 
ACET_PRPA_07

>  <Index>  (773) 
23986

$$$$
ACET-pdb2vqj-A-ASP-90:PRPA-pdb2vqj-A-LYS-93
     RDKit          3D

 18 16  0  0  0  0  0  0  0  0999 V2000
   -0.0205    1.5306   -0.0068 C   0  0  0  0  0  0  0  0  0  0  0  0
   -0.8476    1.8373    0.4499 H   0  0  0  0  0  0  0  0  0  0  0  0
   -0.0072    1.8427   -0.9495 H   0  0  0  0  0  0  0  0  0  0  0  0
    0.8319    1.9747    0.5073 H   0  0  0  0  0  0  0  0  0  0  0  0
    0.0000    0.0000    0.0000 C   0  0  0  0  0  0  0  0  0  0  0  0
   -1.0976   -0.5978   -0.0000 O   0  0  0  0  0  1  0  0  0  0  0  0
    1.0976   -0.6035   -0.0000 O   0  0  0  0  0  0  0  0  0  0  0  0
   -2.4790   -1.5297   -2.4807 C   0  0  0  0  0  0  0  0  0  0  0  0
   -2.9492   -1.9673   -3.2496 H   0  0  0  0  0  0  0  0  0  0  0  0
   -1.5742   -1.9446   -2.3700 H   0  0  0  0  0  0  0  0  0  0  0  0
   -2.3569   -0.4689   -2.7000 H   0  0  0  0  0  0  0  0  0  0  0  0
   -3.2853   -1.7584   -1.2162 C   0  0  0  0  0  0  0  0  0  0  0  0
   -2.8124   -1.3164   -0.4507 H   0  0  0  0  0  0  0  0  0  0  0  0
   -4.1880   -1.3404   -1.3303 H   0  0  0  0  0  0  0  0  0  0  0  0
   -3.4656   -3.2206   -0.8942 C   0  0  0  0  0  0  0  0  0  0  0  0
   -3.9419   -3.6684   -1.6522 H   0  0  0  0  0  0  0  0  0  0  0  0
   -2.5669   -3.6457   -0.7726 H   0  0  0  0  0  0  0  0  0  0  0  0
   -4.0475   -3.3483    0.0185 H   0  0  0  0  0  0  0  0  0  0  0  0
  1  5  1  0
  5  6  1  0
  5  7  2  0
  1  2  1  0
  1  3  1  0
  1  4  1  0
  8 12  1  0
 12 15  1  0
  8  9  1  0
  8 10  1  0
  8 11  1  0
 12 13  1  0
 12 14  1  0
 15 16  1  0
 15 17  1  0
 15 18  1  0
M  CHG  1   6  -1
M  END
>  <PDB_ID>  (774) 
pdb2vqj

>  <RESIDUE_NAME>  (774) 
ASP   LYS

>  <FRAG_NAME>  (774) 
ACET   PRPA

>  <FRAG_ATOM_NUM>  (774) 
fragi: 7  fragj: 11

>  <atom.prop.CHAIN_ID>  (774) 
A A A A A A A Z Z Z Z Z Z Z Z Z Z Z

>  <atom.prop.IS_HEAVY_ATOM>  (774) 
1 0 0 0 1 1 1 1 0 0 0 1 0 0 1 0 0 0

>  <DIFUSE_FUNC_ATOM>  (774) 
atom 6   atom 7   

>  <FINAL_SINGLE_POINT_ENERGY>  (774) 
0

>  <NONCOV_INTER_ENERGY_QM>  (774) 
0

>  <FF_Energy>  (774) 
16.81

>  <QM_Energy>  (774) 
-1.51

>  <source>  (774) 
ACET_PRPA_07

>  <Index>  (774) 
23990

$$$$
ACET-pdb1oni-F-ASP-28:PRPA-pdb1oni-F-LEU-4
     RDKit          3D

 18 16  0  0  0  0  0  0  0  0999 V2000
   -0.0065    1.5407   -0.0333 C   0  0  0  0  0  0  0  0  0  0  0  0
    0.0967    1.8318   -0.9785 H   0  0  0  0  0  0  0  0  0  0  0  0
    0.7549    1.8670    0.5152 H   0  0  0  0  0  0  0  0  0  0  0  0
   -0.9216    1.9842    0.3589 H   0  0  0  0  0  0  0  0  0  0  0  0
    0.0000    0.0000    0.0000 C   0  0  0  0  0  0  0  0  0  0  0  0
   -1.0716   -0.6547   -0.0000 O   0  0  0  0  0  1  0  0  0  0  0  0
    1.0716   -0.6453    0.0000 O   0  0  0  0  0  0  0  0  0  0  0  0
   -0.1553    2.8632   -4.7290 C   0  0  0  0  0  0  0  0  0  0  0  0
    0.5204    3.4777   -5.1374 H   0  0  0  0  0  0  0  0  0  0  0  0
   -0.5040    3.2646   -3.8828 H   0  0  0  0  0  0  0  0  0  0  0  0
   -0.9897    2.7806   -5.4255 H   0  0  0  0  0  0  0  0  0  0  0  0
    0.5643    1.5728   -4.3614 C   0  0  0  0  0  0  0  0  0  0  0  0
    0.5476    0.9524   -5.1446 H   0  0  0  0  0  0  0  0  0  0  0  0
    1.5993    1.7807   -4.0899 H   0  0  0  0  0  0  0  0  0  0  0  0
   -0.1741    0.8727   -3.2421 C   0  0  0  0  0  0  0  0  0  0  0  0
   -1.1070    0.6555   -3.5352 H   0  0  0  0  0  0  0  0  0  0  0  0
    0.3006    0.0234   -3.0014 H   0  0  0  0  0  0  0  0  0  0  0  0
   -0.2125    1.4678   -2.4362 H   0  0  0  0  0  0  0  0  0  0  0  0
  1  5  1  0
  5  6  1  0
  5  7  2  0
  1  2  1  0
  1  3  1  0
  1  4  1  0
  8 12  1  0
 12 15  1  0
  8  9  1  0
  8 10  1  0
  8 11  1  0
 12 13  1  0
 12 14  1  0
 15 16  1  0
 15 17  1  0
 15 18  1  0
M  CHG  1   6  -1
M  END
>  <PDB_ID>  (775) 
pdb1oni

>  <RESIDUE_NAME>  (775) 
ASP   LEU

>  <FRAG_NAME>  (775) 
ACET   PRPA

>  <FRAG_ATOM_NUM>  (775) 
fragi: 7  fragj: 11

>  <atom.prop.CHAIN_ID>  (775) 
A A A A A A A Z Z Z Z Z Z Z Z Z Z Z

>  <atom.prop.IS_HEAVY_ATOM>  (775) 
1 0 0 0 1 1 1 1 0 0 0 1 0 0 1 0 0 0

>  <DIFUSE_FUNC_ATOM>  (775) 
atom 6   atom 7   

>  <FINAL_SINGLE_POINT_ENERGY>  (775) 
0

>  <NONCOV_INTER_ENERGY_QM>  (775) 
0

>  <FF_Energy>  (775) 
20.82

>  <QM_Energy>  (775) 
2.31

>  <source>  (775) 
ACET_PRPA_07

>  <Index>  (775) 
24727

$$$$
ACET-pdb1oni-F-ASP-28:PRPA-pdb1oni-F-LEU-4
     RDKit          3D

 18 16  0  0  0  0  0  0  0  0999 V2000
   -0.0065    1.5407   -0.0333 C   0  0  0  0  0  0  0  0  0  0  0  0
    0.0967    1.8318   -0.9785 H   0  0  0  0  0  0  0  0  0  0  0  0
    0.7549    1.8670    0.5152 H   0  0  0  0  0  0  0  0  0  0  0  0
   -0.9216    1.9842    0.3589 H   0  0  0  0  0  0  0  0  0  0  0  0
    0.0000    0.0000    0.0000 C   0  0  0  0  0  0  0  0  0  0  0  0
   -1.0716   -0.6547   -0.0000 O   0  0  0  0  0  1  0  0  0  0  0  0
    1.0716   -0.6453    0.0000 O   0  0  0  0  0  0  0  0  0  0  0  0
    2.0107    1.8634   -3.9820 C   0  0  0  0  0  0  0  0  0  0  0  0
    2.0317    2.4838   -3.1980 H   0  0  0  0  0  0  0  0  0  0  0  0
    2.4707    1.0084   -3.7433 H   0  0  0  0  0  0  0  0  0  0  0  0
    2.4797    2.2894   -4.7557 H   0  0  0  0  0  0  0  0  0  0  0  0
    0.5643    1.5728   -4.3614 C   0  0  0  0  0  0  0  0  0  0  0  0
    0.5476    0.9524   -5.1446 H   0  0  0  0  0  0  0  0  0  0  0  0
    0.0492    2.4965   -4.6246 H   0  0  0  0  0  0  0  0  0  0  0  0
   -0.1741    0.8727   -3.2421 C   0  0  0  0  0  0  0  0  0  0  0  0
   -1.1070    0.6555   -3.5352 H   0  0  0  0  0  0  0  0  0  0  0  0
    0.3006    0.0234   -3.0014 H   0  0  0  0  0  0  0  0  0  0  0  0
   -0.2125    1.4678   -2.4362 H   0  0  0  0  0  0  0  0  0  0  0  0
  1  5  1  0
  5  6  1  0
  5  7  2  0
  1  2  1  0
  1  3  1  0
  1  4  1  0
  8 12  1  0
 12 15  1  0
  8  9  1  0
  8 10  1  0
  8 11  1  0
 12 13  1  0
 12 14  1  0
 15 16  1  0
 15 17  1  0
 15 18  1  0
M  CHG  1   6  -1
M  END
>  <PDB_ID>  (776) 
pdb1oni

>  <RESIDUE_NAME>  (776) 
ASP   LEU

>  <FRAG_NAME>  (776) 
ACET   PRPA

>  <FRAG_ATOM_NUM>  (776) 
fragi: 7  fragj: 11

>  <atom.prop.CHAIN_ID>  (776) 
A A A A A A A Z Z Z Z Z Z Z Z Z Z Z

>  <atom.prop.IS_HEAVY_ATOM>  (776) 
1 0 0 0 1 1 1 1 0 0 0 1 0 0 1 0 0 0

>  <DIFUSE_FUNC_ATOM>  (776) 
atom 6   atom 7   

>  <FINAL_SINGLE_POINT_ENERGY>  (776) 
0

>  <NONCOV_INTER_ENERGY_QM>  (776) 
0

>  <FF_Energy>  (776) 
20.84

>  <QM_Energy>  (776) 
2.2

>  <source>  (776) 
ACET_PRPA_07

>  <Index>  (776) 
24729

$$$$
ACET-pdb1p7o-B-GLU-60:PRPA-pdb1p7o-B-LYS-90
     RDKit          3D

 18 16  0  0  0  0  0  0  0  0999 V2000
    0.0367    1.5254    0.0324 C   0  0  0  0  0  0  0  0  0  0  0  0
    0.7604    1.8162   -0.5697 H   0  0  0  0  0  0  0  0  0  0  0  0
    0.2059    1.7963    0.9649 H   0  0  0  0  0  0  0  0  0  0  0  0
   -0.8888    1.9972   -0.2974 H   0  0  0  0  0  0  0  0  0  0  0  0
    0.0000    0.0000    0.0000 C   0  0  0  0  0  0  0  0  0  0  0  0
   -1.0988   -0.6036   -0.0000 O   0  0  0  0  0  1  0  0  0  0  0  0
    1.0988   -0.5997    0.0000 O   0  0  0  0  0  0  0  0  0  0  0  0
    1.8491    2.9677   -2.6210 C   0  0  0  0  0  0  0  0  0  0  0  0
    2.7430    3.1320   -2.1846 H   0  0  0  0  0  0  0  0  0  0  0  0
    1.1438    2.9730   -1.8999 H   0  0  0  0  0  0  0  0  0  0  0  0
    1.6472    3.8042   -3.2901 H   0  0  0  0  0  0  0  0  0  0  0  0
    1.8722    1.5979   -3.2557 C   0  0  0  0  0  0  0  0  0  0  0  0
    0.9726    1.3819   -3.6130 H   0  0  0  0  0  0  0  0  0  0  0  0
    2.5534    1.5748   -3.9754 H   0  0  0  0  0  0  0  0  0  0  0  0
    2.2412    0.5600   -2.1980 C   0  0  0  0  0  0  0  0  0  0  0  0
    3.1681    0.7419   -1.8777 H   0  0  0  0  0  0  0  0  0  0  0  0
    1.5983    0.6287   -1.4395 H   0  0  0  0  0  0  0  0  0  0  0  0
    2.2064   -0.4587   -2.5845 H   0  0  0  0  0  0  0  0  0  0  0  0
  1  5  1  0
  5  6  1  0
  5  7  2  0
  1  2  1  0
  1  3  1  0
  1  4  1  0
  8 12  1  0
 12 15  1  0
  8  9  1  0
  8 10  1  0
  8 11  1  0
 12 13  1  0
 12 14  1  0
 15 16  1  0
 15 17  1  0
 15 18  1  0
M  CHG  1   6  -1
M  END
>  <PDB_ID>  (777) 
pdb1p7o

>  <RESIDUE_NAME>  (777) 
GLU   LYS

>  <FRAG_NAME>  (777) 
ACET   PRPA

>  <FRAG_ATOM_NUM>  (777) 
fragi: 7  fragj: 11

>  <atom.prop.CHAIN_ID>  (777) 
A A A A A A A Z Z Z Z Z Z Z Z Z Z Z

>  <atom.prop.IS_HEAVY_ATOM>  (777) 
1 0 0 0 1 1 1 1 0 0 0 1 0 0 1 0 0 0

>  <DIFUSE_FUNC_ATOM>  (777) 
atom 6   atom 7   

>  <FINAL_SINGLE_POINT_ENERGY>  (777) 
0

>  <NONCOV_INTER_ENERGY_QM>  (777) 
0

>  <FF_Energy>  (777) 
27.94

>  <QM_Energy>  (777) 
6.89

>  <source>  (777) 
ACET_PRPA_07

>  <Index>  (777) 
25064

$$$$
ACET-pdb1olp-C-GLU-281:PRPA-pdb1olp-C-LYS-287
     RDKit          3D

 18 16  0  0  0  0  0  0  0  0999 V2000
    0.0030    1.5172   -0.0132 C   0  0  0  0  0  0  0  0  0  0  0  0
    0.9250    1.8154    0.1420 H   0  0  0  0  0  0  0  0  0  0  0  0
   -0.6140    1.8219    0.6861 H   0  0  0  0  0  0  0  0  0  0  0  0
   -0.3312    1.9273   -0.9662 H   0  0  0  0  0  0  0  0  0  0  0  0
    0.0000    0.0000    0.0000 C   0  0  0  0  0  0  0  0  0  0  0  0
   -1.1112   -0.5925   -0.0000 O   0  0  0  0  0  1  0  0  0  0  0  0
    1.1112   -0.5921    0.0000 O   0  0  0  0  0  0  0  0  0  0  0  0
    2.3268    4.4044    1.8818 C   0  0  0  0  0  0  0  0  0  0  0  0
    1.8877    4.3206    0.9779 H   0  0  0  0  0  0  0  0  0  0  0  0
    3.2067    3.7617    1.9119 H   0  0  0  0  0  0  0  0  0  0  0  0
    2.5823    5.4525    2.0375 H   0  0  0  0  0  0  0  0  0  0  0  0
    1.3001    3.9362    2.9257 C   0  0  0  0  0  0  0  0  0  0  0  0
    1.7289    3.9940    3.8274 H   0  0  0  0  0  0  0  0  0  0  0  0
    0.5179    4.5609    2.8900 H   0  0  0  0  0  0  0  0  0  0  0  0
    0.7910    2.5172    2.7278 C   0  0  0  0  0  0  0  0  0  0  0  0
    0.3548    2.4506    1.8271 H   0  0  0  0  0  0  0  0  0  0  0  0
    1.5657    1.8839    2.7659 H   0  0  0  0  0  0  0  0  0  0  0  0
    0.0664    2.2376    3.4926 H   0  0  0  0  0  0  0  0  0  0  0  0
  1  5  1  0
  5  6  1  0
  5  7  2  0
  1  2  1  0
  1  3  1  0
  1  4  1  0
  8 12  1  0
 12 15  1  0
  8  9  1  0
  8 10  1  0
  8 11  1  0
 12 13  1  0
 12 14  1  0
 15 16  1  0
 15 17  1  0
 15 18  1  0
M  CHG  1   6  -1
M  END
>  <PDB_ID>  (778) 
pdb1olp

>  <RESIDUE_NAME>  (778) 
GLU   LYS

>  <FRAG_NAME>  (778) 
ACET   PRPA

>  <FRAG_ATOM_NUM>  (778) 
fragi: 7  fragj: 11

>  <atom.prop.CHAIN_ID>  (778) 
A A A A A A A Z Z Z Z Z Z Z Z Z Z Z

>  <atom.prop.IS_HEAVY_ATOM>  (778) 
1 0 0 0 1 1 1 1 0 0 0 1 0 0 1 0 0 0

>  <DIFUSE_FUNC_ATOM>  (778) 
atom 6   atom 7   

>  <FINAL_SINGLE_POINT_ENERGY>  (778) 
0

>  <NONCOV_INTER_ENERGY_QM>  (778) 
0

>  <FF_Energy>  (778) 
23.89

>  <QM_Energy>  (778) 
5.26

>  <source>  (778) 
ACET_PRPA_07

>  <Index>  (778) 
25147

$$$$
ACET-pdb1olp-C-GLU-281:PRPA-pdb1olp-C-LYS-287
     RDKit          3D

 18 16  0  0  0  0  0  0  0  0999 V2000
    0.0030    1.5172   -0.0132 C   0  0  0  0  0  0  0  0  0  0  0  0
    0.9250    1.8154    0.1420 H   0  0  0  0  0  0  0  0  0  0  0  0
   -0.6140    1.8219    0.6861 H   0  0  0  0  0  0  0  0  0  0  0  0
   -0.3312    1.9273   -0.9662 H   0  0  0  0  0  0  0  0  0  0  0  0
    0.0000    0.0000    0.0000 C   0  0  0  0  0  0  0  0  0  0  0  0
   -1.1112   -0.5925   -0.0000 O   0  0  0  0  0  1  0  0  0  0  0  0
    1.1112   -0.5921    0.0000 O   0  0  0  0  0  0  0  0  0  0  0  0
    1.3001    3.9362    2.9257 C   0  0  0  0  0  0  0  0  0  0  0  0
    1.7289    3.9940    3.8274 H   0  0  0  0  0  0  0  0  0  0  0  0
    0.5179    4.5609    2.8900 H   0  0  0  0  0  0  0  0  0  0  0  0
    2.0281    4.2682    2.1855 H   0  0  0  0  0  0  0  0  0  0  0  0
    0.7910    2.5172    2.7278 C   0  0  0  0  0  0  0  0  0  0  0  0
    0.3548    2.4506    1.8271 H   0  0  0  0  0  0  0  0  0  0  0  0
    1.5657    1.8839    2.7659 H   0  0  0  0  0  0  0  0  0  0  0  0
   -0.2169    2.1283    3.7916 C   0  0  0  0  0  0  0  0  0  0  0  0
    0.2213    2.1974    4.6894 H   0  0  0  0  0  0  0  0  0  0  0  0
   -0.9901    2.7630    3.7513 H   0  0  0  0  0  0  0  0  0  0  0  0
   -0.5922    1.1129    3.6645 H   0  0  0  0  0  0  0  0  0  0  0  0
  1  5  1  0
  5  6  1  0
  5  7  2  0
  1  2  1  0
  1  3  1  0
  1  4  1  0
  8 12  1  0
 12 15  1  0
  8  9  1  0
  8 10  1  0
  8 11  1  0
 12 13  1  0
 12 14  1  0
 15 16  1  0
 15 17  1  0
 15 18  1  0
M  CHG  1   6  -1
M  END
>  <PDB_ID>  (779) 
pdb1olp

>  <RESIDUE_NAME>  (779) 
GLU   LYS

>  <FRAG_NAME>  (779) 
ACET   PRPA

>  <FRAG_ATOM_NUM>  (779) 
fragi: 7  fragj: 11

>  <atom.prop.CHAIN_ID>  (779) 
A A A A A A A Z Z Z Z Z Z Z Z Z Z Z

>  <atom.prop.IS_HEAVY_ATOM>  (779) 
1 0 0 0 1 1 1 1 0 0 0 1 0 0 1 0 0 0

>  <DIFUSE_FUNC_ATOM>  (779) 
atom 6   atom 7   

>  <FINAL_SINGLE_POINT_ENERGY>  (779) 
0

>  <NONCOV_INTER_ENERGY_QM>  (779) 
0

>  <FF_Energy>  (779) 
27.19

>  <QM_Energy>  (779) 
4.87

>  <source>  (779) 
ACET_PRPA_07

>  <Index>  (779) 
25151

$$$$
ACET-pdb2w18-A-GLU-878:PRPA-pdb2w18-A-LYS-883
     RDKit          3D

 18 16  0  0  0  0  0  0  0  0999 V2000
    0.0055    1.5247    0.0113 C   0  0  0  0  0  0  0  0  0  0  0  0
   -0.4222    1.8257   -0.8169 H   0  0  0  0  0  0  0  0  0  0  0  0
    0.9396    1.8135    0.0839 H   0  0  0  0  0  0  0  0  0  0  0  0
   -0.5512    1.9313    0.8555 H   0  0  0  0  0  0  0  0  0  0  0  0
    0.0000    0.0000    0.0000 C   0  0  0  0  0  0  0  0  0  0  0  0
   -1.1018   -0.6030    0.0000 O   0  0  0  0  0  1  0  0  0  0  0  0
    1.1018   -0.5995   -0.0000 O   0  0  0  0  0  0  0  0  0  0  0  0
    3.9715    0.5664    2.4311 C   0  0  0  0  0  0  0  0  0  0  0  0
    4.8914    0.2681    2.1875 H   0  0  0  0  0  0  0  0  0  0  0  0
    3.7486    0.2583    3.3535 H   0  0  0  0  0  0  0  0  0  0  0  0
    3.9580    1.6563    2.4276 H   0  0  0  0  0  0  0  0  0  0  0  0
    2.9871   -0.0707    1.4596 C   0  0  0  0  0  0  0  0  0  0  0  0
    2.0602    0.2199    1.6979 H   0  0  0  0  0  0  0  0  0  0  0  0
    3.2038    0.2291    0.5318 H   0  0  0  0  0  0  0  0  0  0  0  0
    3.0559   -1.5890    1.5164 C   0  0  0  0  0  0  0  0  0  0  0  0
    3.9845   -1.8757    1.2811 H   0  0  0  0  0  0  0  0  0  0  0  0
    2.8400   -1.8860    2.4457 H   0  0  0  0  0  0  0  0  0  0  0  0
    2.3579   -2.0643    0.8272 H   0  0  0  0  0  0  0  0  0  0  0  0
  1  5  1  0
  5  6  1  0
  5  7  2  0
  1  2  1  0
  1  3  1  0
  1  4  1  0
  8 12  1  0
 12 15  1  0
  8  9  1  0
  8 10  1  0
  8 11  1  0
 12 13  1  0
 12 14  1  0
 15 16  1  0
 15 17  1  0
 15 18  1  0
M  CHG  1   6  -1
M  END
>  <PDB_ID>  (780) 
pdb2w18

>  <RESIDUE_NAME>  (780) 
GLU   LYS

>  <FRAG_NAME>  (780) 
ACET   PRPA

>  <FRAG_ATOM_NUM>  (780) 
fragi: 7  fragj: 11

>  <atom.prop.CHAIN_ID>  (780) 
A A A A A A A Z Z Z Z Z Z Z Z Z Z Z

>  <atom.prop.IS_HEAVY_ATOM>  (780) 
1 0 0 0 1 1 1 1 0 0 0 1 0 0 1 0 0 0

>  <DIFUSE_FUNC_ATOM>  (780) 
atom 6   atom 7   

>  <FINAL_SINGLE_POINT_ENERGY>  (780) 
0

>  <NONCOV_INTER_ENERGY_QM>  (780) 
0

>  <FF_Energy>  (780) 
23.37

>  <QM_Energy>  (780) 
6.55

>  <source>  (780) 
ACET_PRPA_07

>  <Index>  (780) 
27649

$$$$
ACET-pdb1pjn-B-GLU-139:PRPA-pdb1pjn-B-ARG-101
     RDKit          3D

 18 16  0  0  0  0  0  0  0  0999 V2000
    0.0018    1.5172    0.0300 C   0  0  0  0  0  0  0  0  0  0  0  0
    0.8063    1.8235   -0.4470 H   0  0  0  0  0  0  0  0  0  0  0  0
    0.0042    1.7962    0.9747 H   0  0  0  0  0  0  0  0  0  0  0  0
   -0.8692    1.9593   -0.4538 H   0  0  0  0  0  0  0  0  0  0  0  0
    0.0000    0.0000    0.0000 C   0  0  0  0  0  0  0  0  0  0  0  0
   -1.0933   -0.5944   -0.0000 O   0  0  0  0  0  1  0  0  0  0  0  0
    1.0933   -0.6002    0.0000 O   0  0  0  0  0  0  0  0  0  0  0  0
   -4.1947   -1.8168   -0.7534 C   0  0  0  0  0  0  0  0  0  0  0  0
   -4.2911   -0.9442   -1.2169 H   0  0  0  0  0  0  0  0  0  0  0  0
   -3.6738   -1.7116    0.0853 H   0  0  0  0  0  0  0  0  0  0  0  0
   -5.1896   -2.1805   -0.4965 H   0  0  0  0  0  0  0  0  0  0  0  0
   -3.4381   -2.7574   -1.6655 C   0  0  0  0  0  0  0  0  0  0  0  0
   -3.8036   -3.6721   -1.5750 H   0  0  0  0  0  0  0  0  0  0  0  0
   -3.5038   -2.4368   -2.6000 H   0  0  0  0  0  0  0  0  0  0  0  0
   -1.9894   -2.7748   -1.2640 C   0  0  0  0  0  0  0  0  0  0  0  0
   -1.4453   -2.4146   -2.0271 H   0  0  0  0  0  0  0  0  0  0  0  0
   -1.8754   -2.1690   -0.4713 H   0  0  0  0  0  0  0  0  0  0  0  0
   -1.6253   -3.7695   -1.0068 H   0  0  0  0  0  0  0  0  0  0  0  0
  1  5  1  0
  5  6  1  0
  5  7  2  0
  1  2  1  0
  1  3  1  0
  1  4  1  0
  8 12  1  0
 12 15  1  0
  8  9  1  0
  8 10  1  0
  8 11  1  0
 12 13  1  0
 12 14  1  0
 15 16  1  0
 15 17  1  0
 15 18  1  0
M  CHG  1   6  -1
M  END
>  <PDB_ID>  (781) 
pdb1pjn

>  <RESIDUE_NAME>  (781) 
GLU   ARG

>  <FRAG_NAME>  (781) 
ACET   PRPA

>  <FRAG_ATOM_NUM>  (781) 
fragi: 7  fragj: 11

>  <atom.prop.CHAIN_ID>  (781) 
A A A A A A A Z Z Z Z Z Z Z Z Z Z Z

>  <atom.prop.IS_HEAVY_ATOM>  (781) 
1 0 0 0 1 1 1 1 0 0 0 1 0 0 1 0 0 0

>  <DIFUSE_FUNC_ATOM>  (781) 
atom 6   atom 7   

>  <FINAL_SINGLE_POINT_ENERGY>  (781) 
0

>  <NONCOV_INTER_ENERGY_QM>  (781) 
0

>  <FF_Energy>  (781) 
25.77

>  <QM_Energy>  (781) 
1.83

>  <source>  (781) 
ACET_PRPA_07

>  <Index>  (781) 
27909

$$$$
ACET-pdb2vob-A-ASP-330:PRPA-pdb2vob-A-ILE-597
     RDKit          3D

 18 16  0  0  0  0  0  0  0  0999 V2000
    0.0372    1.5445    0.0121 C   0  0  0  0  0  0  0  0  0  0  0  0
    0.6747    1.8391   -0.6904 H   0  0  0  0  0  0  0  0  0  0  0  0
    0.3466    1.8347    0.9093 H   0  0  0  0  0  0  0  0  0  0  0  0
   -0.9350    1.9957   -0.1864 H   0  0  0  0  0  0  0  0  0  0  0  0
    0.0000    0.0000    0.0000 C   0  0  0  0  0  0  0  0  0  0  0  0
   -1.0963   -0.6193    0.0000 O   0  0  0  0  0  1  0  0  0  0  0  0
    1.0963   -0.5947   -0.0000 O   0  0  0  0  0  0  0  0  0  0  0  0
   -0.6788    0.8343    5.2995 C   0  0  0  0  0  0  0  0  0  0  0  0
    0.1985    0.8885    5.7505 H   0  0  0  0  0  0  0  0  0  0  0  0
   -1.3802    1.4301    5.8837 H   0  0  0  0  0  0  0  0  0  0  0  0
   -1.0106   -0.2002    5.2115 H   0  0  0  0  0  0  0  0  0  0  0  0
   -0.5355    1.4254    3.8849 C   0  0  0  0  0  0  0  0  0  0  0  0
   -1.2682    1.0592    3.3126 H   0  0  0  0  0  0  0  0  0  0  0  0
   -0.6475    2.4181    3.9467 H   0  0  0  0  0  0  0  0  0  0  0  0
    0.8094    1.1362    3.1982 C   0  0  0  0  0  0  0  0  0  0  0  0
    0.9210    0.1504    3.1175 H   0  0  0  0  0  0  0  0  0  0  0  0
    0.8040    1.5564    2.2966 H   0  0  0  0  0  0  0  0  0  0  0  0
    1.5404    1.5211    3.7525 H   0  0  0  0  0  0  0  0  0  0  0  0
  1  5  1  0
  5  6  1  0
  5  7  2  0
  1  2  1  0
  1  3  1  0
  1  4  1  0
  8 12  1  0
 12 15  1  0
  8  9  1  0
  8 10  1  0
  8 11  1  0
 12 13  1  0
 12 14  1  0
 15 16  1  0
 15 17  1  0
 15 18  1  0
M  CHG  1   6  -1
M  END
>  <PDB_ID>  (782) 
pdb2vob

>  <RESIDUE_NAME>  (782) 
ASP   ILE

>  <FRAG_NAME>  (782) 
ACET   PRPA

>  <FRAG_ATOM_NUM>  (782) 
fragi: 7  fragj: 11

>  <atom.prop.CHAIN_ID>  (782) 
A A A A A A A Z Z Z Z Z Z Z Z Z Z Z

>  <atom.prop.IS_HEAVY_ATOM>  (782) 
1 0 0 0 1 1 1 1 0 0 0 1 0 0 1 0 0 0

>  <DIFUSE_FUNC_ATOM>  (782) 
atom 6   atom 7   

>  <FINAL_SINGLE_POINT_ENERGY>  (782) 
0

>  <NONCOV_INTER_ENERGY_QM>  (782) 
0

>  <FF_Energy>  (782) 
29.3

>  <QM_Energy>  (782) 
2.26

>  <source>  (782) 
ACET_PRPA_07

>  <Index>  (782) 
29466

$$$$
ACET-pdb1prz-A-ASP-250:PRPA-pdb1prz-A-ARG-237
     RDKit          3D

 18 16  0  0  0  0  0  0  0  0999 V2000
    0.0021    1.5159   -0.0091 C   0  0  0  0  0  0  0  0  0  0  0  0
    0.9086    1.8320   -0.2656 H   0  0  0  0  0  0  0  0  0  0  0  0
   -0.2367    1.8412    0.8985 H   0  0  0  0  0  0  0  0  0  0  0  0
   -0.7146    1.9318   -0.7172 H   0  0  0  0  0  0  0  0  0  0  0  0
    0.0000    0.0000    0.0000 C   0  0  0  0  0  0  0  0  0  0  0  0
   -1.1214   -0.6021   -0.0000 O   0  0  0  0  0  1  0  0  0  0  0  0
    1.1214   -0.5819    0.0000 O   0  0  0  0  0  0  0  0  0  0  0  0
    3.3181   -3.1852    0.1631 C   0  0  0  0  0  0  0  0  0  0  0  0
    3.1745   -4.1798    0.1213 H   0  0  0  0  0  0  0  0  0  0  0  0
    2.6044   -2.7826    0.7455 H   0  0  0  0  0  0  0  0  0  0  0  0
    4.2789   -3.0095    0.6468 H   0  0  0  0  0  0  0  0  0  0  0  0
    3.1952   -2.6268   -1.1974 C   0  0  0  0  0  0  0  0  0  0  0  0
    3.6070   -1.7453   -1.2569 H   0  0  0  0  0  0  0  0  0  0  0  0
    3.5182   -3.2560   -1.8693 H   0  0  0  0  0  0  0  0  0  0  0  0
    1.6870   -2.4473   -1.4253 C   0  0  0  0  0  0  0  0  0  0  0  0
    1.2598   -2.4161   -0.5246 H   0  0  0  0  0  0  0  0  0  0  0  0
    1.5673   -1.5716   -1.8881 H   0  0  0  0  0  0  0  0  0  0  0  0
    1.2810   -3.2640   -2.0224 H   0  0  0  0  0  0  0  0  0  0  0  0
  1  5  1  0
  5  6  1  0
  5  7  2  0
  1  2  1  0
  1  3  1  0
  1  4  1  0
  8 12  1  0
 12 15  1  0
  8  9  1  0
  8 10  1  0
  8 11  1  0
 12 13  1  0
 12 14  1  0
 15 16  1  0
 15 17  1  0
 15 18  1  0
M  CHG  1   6  -1
M  END
>  <PDB_ID>  (783) 
pdb1prz

>  <RESIDUE_NAME>  (783) 
ASP   ARG

>  <FRAG_NAME>  (783) 
ACET   PRPA

>  <FRAG_ATOM_NUM>  (783) 
fragi: 7  fragj: 11

>  <atom.prop.CHAIN_ID>  (783) 
A A A A A A A Z Z Z Z Z Z Z Z Z Z Z

>  <atom.prop.IS_HEAVY_ATOM>  (783) 
1 0 0 0 1 1 1 1 0 0 0 1 0 0 1 0 0 0

>  <DIFUSE_FUNC_ATOM>  (783) 
atom 6   atom 7   

>  <FINAL_SINGLE_POINT_ENERGY>  (783) 
0

>  <NONCOV_INTER_ENERGY_QM>  (783) 
0

>  <FF_Energy>  (783) 
30.8

>  <QM_Energy>  (783) 
6.36

>  <source>  (783) 
ACET_PRPA_07

>  <Index>  (783) 
30451

$$$$
ACET-pdb1pu6-A-ASP-15:PRPA-pdb1pu6-A-LYS-18
     RDKit          3D

 18 16  0  0  0  0  0  0  0  0999 V2000
   -0.0522    1.5231    0.0113 C   0  0  0  0  0  0  0  0  0  0  0  0
    0.8740    1.8747   -0.0697 H   0  0  0  0  0  0  0  0  0  0  0  0
   -0.4633    1.8219    0.8647 H   0  0  0  0  0  0  0  0  0  0  0  0
   -0.6398    1.9389   -0.8071 H   0  0  0  0  0  0  0  0  0  0  0  0
    0.0000    0.0000    0.0000 C   0  0  0  0  0  0  0  0  0  0  0  0
   -1.0771   -0.6520    0.0000 O   0  0  0  0  0  1  0  0  0  0  0  0
    1.0771   -0.6393   -0.0000 O   0  0  0  0  0  0  0  0  0  0  0  0
   -1.1593    3.1926    2.7760 C   0  0  0  0  0  0  0  0  0  0  0  0
   -1.3994    2.2253    2.7925 H   0  0  0  0  0  0  0  0  0  0  0  0
   -1.3222    3.5689    1.8684 H   0  0  0  0  0  0  0  0  0  0  0  0
   -1.7706    3.7275    3.5029 H   0  0  0  0  0  0  0  0  0  0  0  0
    0.3219    3.3369    3.1097 C   0  0  0  0  0  0  0  0  0  0  0  0
    0.5597    4.3046    3.0952 H   0  0  0  0  0  0  0  0  0  0  0  0
    0.4828    2.9599    4.0184 H   0  0  0  0  0  0  0  0  0  0  0  0
    1.2060    2.6034    2.1165 C   0  0  0  0  0  0  0  0  0  0  0  0
    0.9728    1.6334    2.1276 H   0  0  0  0  0  0  0  0  0  0  0  0
    1.0498    2.9767    1.2048 H   0  0  0  0  0  0  0  0  0  0  0  0
    2.2560    2.7258    2.3823 H   0  0  0  0  0  0  0  0  0  0  0  0
  1  5  1  0
  5  6  1  0
  5  7  2  0
  1  2  1  0
  1  3  1  0
  1  4  1  0
  8 12  1  0
 12 15  1  0
  8  9  1  0
  8 10  1  0
  8 11  1  0
 12 13  1  0
 12 14  1  0
 15 16  1  0
 15 17  1  0
 15 18  1  0
M  CHG  1   6  -1
M  END
>  <PDB_ID>  (784) 
pdb1pu6

>  <RESIDUE_NAME>  (784) 
ASP   LYS

>  <FRAG_NAME>  (784) 
ACET   PRPA

>  <FRAG_ATOM_NUM>  (784) 
fragi: 7  fragj: 11

>  <atom.prop.CHAIN_ID>  (784) 
A A A A A A A Z Z Z Z Z Z Z Z Z Z Z

>  <atom.prop.IS_HEAVY_ATOM>  (784) 
1 0 0 0 1 1 1 1 0 0 0 1 0 0 1 0 0 0

>  <DIFUSE_FUNC_ATOM>  (784) 
atom 6   atom 7   

>  <FINAL_SINGLE_POINT_ENERGY>  (784) 
0

>  <NONCOV_INTER_ENERGY_QM>  (784) 
0

>  <FF_Energy>  (784) 
36.24

>  <QM_Energy>  (784) 
11.86

>  <source>  (784) 
ACET_PRPA_07

>  <Index>  (784) 
30809

$$$$
ACET-pdb1ofd-A-GLU-883:PRPA-pdb1ofd-A-ARG-1160
     RDKit          3D

 18 16  0  0  0  0  0  0  0  0999 V2000
    0.0272    1.5300    0.0319 C   0  0  0  0  0  0  0  0  0  0  0  0
    0.4766    1.8339   -0.7902 H   0  0  0  0  0  0  0  0  0  0  0  0
    0.5202    1.7982    0.8413 H   0  0  0  0  0  0  0  0  0  0  0  0
   -0.9601    1.9906    0.0670 H   0  0  0  0  0  0  0  0  0  0  0  0
    0.0000    0.0000    0.0000 C   0  0  0  0  0  0  0  0  0  0  0  0
   -1.0913   -0.6158   -0.0000 O   0  0  0  0  0  1  0  0  0  0  0  0
    1.0913   -0.6044   -0.0000 O   0  0  0  0  0  0  0  0  0  0  0  0
   -0.3188   -1.9420   -3.5264 C   0  0  0  0  0  0  0  0  0  0  0  0
    0.3794   -2.6175   -3.7671 H   0  0  0  0  0  0  0  0  0  0  0  0
    0.0007   -1.4001   -2.7477 H   0  0  0  0  0  0  0  0  0  0  0  0
   -0.4445   -1.2703   -4.3756 H   0  0  0  0  0  0  0  0  0  0  0  0
   -1.5646   -2.6726   -3.1158 C   0  0  0  0  0  0  0  0  0  0  0  0
   -2.3691   -2.1475   -3.3962 H   0  0  0  0  0  0  0  0  0  0  0  0
   -1.5856   -3.5714   -3.5554 H   0  0  0  0  0  0  0  0  0  0  0  0
   -1.6165   -2.8673   -1.6353 C   0  0  0  0  0  0  0  0  0  0  0  0
   -1.1728   -2.0881   -1.1989 H   0  0  0  0  0  0  0  0  0  0  0  0
   -2.5726   -2.9151   -1.3575 H   0  0  0  0  0  0  0  0  0  0  0  0
   -1.1061   -3.7870   -1.3489 H   0  0  0  0  0  0  0  0  0  0  0  0
  1  5  1  0
  5  6  1  0
  5  7  2  0
  1  2  1  0
  1  3  1  0
  1  4  1  0
  8 12  1  0
 12 15  1  0
  8  9  1  0
  8 10  1  0
  8 11  1  0
 12 13  1  0
 12 14  1  0
 15 16  1  0
 15 17  1  0
 15 18  1  0
M  CHG  1   6  -1
M  END
>  <PDB_ID>  (785) 
pdb1ofd

>  <RESIDUE_NAME>  (785) 
GLU   ARG

>  <FRAG_NAME>  (785) 
ACET   PRPA

>  <FRAG_ATOM_NUM>  (785) 
fragi: 7  fragj: 11

>  <atom.prop.CHAIN_ID>  (785) 
A A A A A A A Z Z Z Z Z Z Z Z Z Z Z

>  <atom.prop.IS_HEAVY_ATOM>  (785) 
1 0 0 0 1 1 1 1 0 0 0 1 0 0 1 0 0 0

>  <DIFUSE_FUNC_ATOM>  (785) 
atom 6   atom 7   

>  <FINAL_SINGLE_POINT_ENERGY>  (785) 
0

>  <NONCOV_INTER_ENERGY_QM>  (785) 
0

>  <FF_Energy>  (785) 
13.68

>  <QM_Energy>  (785) 
-1.63

>  <source>  (785) 
ACET_PRPA_07

>  <Index>  (785) 
31269

$$$$
ACET-pdb2w4e-B-GLU-100:PRPA-pdb2w4e-B-GLU-97
     RDKit          3D

 18 16  0  0  0  0  0  0  0  0999 V2000
   -0.0108    1.5180    0.0258 C   0  0  0  0  0  0  0  0  0  0  0  0
    0.7051    1.8254   -0.5705 H   0  0  0  0  0  0  0  0  0  0  0  0
    0.1292    1.7943    0.9569 H   0  0  0  0  0  0  0  0  0  0  0  0
   -0.9598    1.9236   -0.3248 H   0  0  0  0  0  0  0  0  0  0  0  0
    0.0000    0.0000    0.0000 C   0  0  0  0  0  0  0  0  0  0  0  0
   -1.0891   -0.6023   -0.0000 O   0  0  0  0  0  1  0  0  0  0  0  0
    1.0891   -0.6009   -0.0000 O   0  0  0  0  0  0  0  0  0  0  0  0
   -3.7702   -1.0240   -2.0997 C   0  0  0  0  0  0  0  0  0  0  0  0
   -4.3800   -1.6927   -2.5609 H   0  0  0  0  0  0  0  0  0  0  0  0
   -2.8915   -0.8643   -2.7246 H   0  0  0  0  0  0  0  0  0  0  0  0
   -4.3243   -0.1107   -1.8831 H   0  0  0  0  0  0  0  0  0  0  0  0
   -3.4160   -1.7067   -0.7770 C   0  0  0  0  0  0  0  0  0  0  0  0
   -2.4569   -1.5572   -0.6091 H   0  0  0  0  0  0  0  0  0  0  0  0
   -3.9797   -1.3106   -0.0740 H   0  0  0  0  0  0  0  0  0  0  0  0
   -3.6545   -3.2121   -0.7643 C   0  0  0  0  0  0  0  0  0  0  0  0
   -3.7632   -3.4991    0.1693 H   0  0  0  0  0  0  0  0  0  0  0  0
   -4.4497   -3.4039   -1.3084 H   0  0  0  0  0  0  0  0  0  0  0  0
   -2.8246   -3.7783   -1.1869 H   0  0  0  0  0  0  0  0  0  0  0  0
  1  5  1  0
  5  6  1  0
  5  7  2  0
  1  2  1  0
  1  3  1  0
  1  4  1  0
  8 12  1  0
 12 15  1  0
  8  9  1  0
  8 10  1  0
  8 11  1  0
 12 13  1  0
 12 14  1  0
 15 16  1  0
 15 17  1  0
 15 18  1  0
M  CHG  1   6  -1
M  END
>  <PDB_ID>  (786) 
pdb2w4e

>  <RESIDUE_NAME>  (786) 
GLU   GLU

>  <FRAG_NAME>  (786) 
ACET   PRPA

>  <FRAG_ATOM_NUM>  (786) 
fragi: 7  fragj: 11

>  <atom.prop.CHAIN_ID>  (786) 
A A A A A A A Z Z Z Z Z Z Z Z Z Z Z

>  <atom.prop.IS_HEAVY_ATOM>  (786) 
1 0 0 0 1 1 1 1 0 0 0 1 0 0 1 0 0 0

>  <DIFUSE_FUNC_ATOM>  (786) 
atom 6   atom 7   

>  <FINAL_SINGLE_POINT_ENERGY>  (786) 
0

>  <NONCOV_INTER_ENERGY_QM>  (786) 
0

>  <FF_Energy>  (786) 
38.62

>  <QM_Energy>  (786) 
1.28

>  <source>  (786) 
ACET_PRPA_07

>  <Index>  (786) 
31388

$$$$
ACET-pdb2vvz-A-ASP-504:PRPA-pdb2vvz-A-PRO-500
     RDKit          3D

 18 16  0  0  0  0  0  0  0  0999 V2000
    0.0043    1.5180    0.0119 C   0  0  0  0  0  0  0  0  0  0  0  0
    0.8984    1.8379   -0.2797 H   0  0  0  0  0  0  0  0  0  0  0  0
   -0.1951    1.8323    0.9323 H   0  0  0  0  0  0  0  0  0  0  0  0
   -0.7405    1.9467   -0.6586 H   0  0  0  0  0  0  0  0  0  0  0  0
    0.0000    0.0000    0.0000 C   0  0  0  0  0  0  0  0  0  0  0  0
   -1.0971   -0.6015    0.0000 O   0  0  0  0  0  1  0  0  0  0  0  0
    1.0971   -0.5951   -0.0000 O   0  0  0  0  0  0  0  0  0  0  0  0
   -2.2961   -1.8396    3.7573 C   0  0  0  0  0  0  0  0  0  0  0  0
   -2.9983   -1.3462    3.2322 H   0  0  0  0  0  0  0  0  0  0  0  0
   -2.5159   -1.7624    4.7349 H   0  0  0  0  0  0  0  0  0  0  0  0
   -2.2607   -2.8866    3.4563 H   0  0  0  0  0  0  0  0  0  0  0  0
   -0.9311   -1.2894    3.4710 C   0  0  0  0  0  0  0  0  0  0  0  0
   -0.9882   -0.3114    3.2542 H   0  0  0  0  0  0  0  0  0  0  0  0
   -0.3324   -1.4121    4.2671 H   0  0  0  0  0  0  0  0  0  0  0  0
   -0.4361   -2.0755    2.2953 C   0  0  0  0  0  0  0  0  0  0  0  0
   -0.7718   -1.6977    1.4327 H   0  0  0  0  0  0  0  0  0  0  0  0
    0.5634   -2.1168    2.2736 H   0  0  0  0  0  0  0  0  0  0  0  0
   -0.8571   -3.0655    2.4704 H   0  0  0  0  0  0  0  0  0  0  0  0
  1  5  1  0
  5  6  1  0
  5  7  2  0
  1  2  1  0
  1  3  1  0
  1  4  1  0
  8 12  1  0
 12 15  1  0
  8  9  1  0
  8 10  1  0
  8 11  1  0
 12 13  1  0
 12 14  1  0
 15 16  1  0
 15 17  1  0
 15 18  1  0
M  CHG  1   6  -1
M  END
>  <PDB_ID>  (787) 
pdb2vvz

>  <RESIDUE_NAME>  (787) 
ASP   PRO

>  <FRAG_NAME>  (787) 
ACET   PRPA

>  <FRAG_ATOM_NUM>  (787) 
fragi: 7  fragj: 11

>  <atom.prop.CHAIN_ID>  (787) 
A A A A A A A Z Z Z Z Z Z Z Z Z Z Z

>  <atom.prop.IS_HEAVY_ATOM>  (787) 
1 0 0 0 1 1 1 1 0 0 0 1 0 0 1 0 0 0

>  <DIFUSE_FUNC_ATOM>  (787) 
atom 6   atom 7   

>  <FINAL_SINGLE_POINT_ENERGY>  (787) 
0

>  <NONCOV_INTER_ENERGY_QM>  (787) 
0

>  <FF_Energy>  (787) 
24.98

>  <QM_Energy>  (787) 
-0.43

>  <source>  (787) 
ACET_PRPA_07

>  <Index>  (787) 
32042

$$$$
ACET-pdb2vvf-A-GLU-160:PRPA-pdb2vvf-A-ARG-243
     RDKit          3D

 18 16  0  0  0  0  0  0  0  0999 V2000
    0.0022    1.5151    0.0128 C   0  0  0  0  0  0  0  0  0  0  0  0
    0.0786    1.8210   -0.9172 H   0  0  0  0  0  0  0  0  0  0  0  0
    0.7588    1.8069    0.5671 H   0  0  0  0  0  0  0  0  0  0  0  0
   -0.9127    1.9310    0.4347 H   0  0  0  0  0  0  0  0  0  0  0  0
    0.0000    0.0000    0.0000 C   0  0  0  0  0  0  0  0  0  0  0  0
   -1.0952   -0.5963    0.0000 O   0  0  0  0  0  1  0  0  0  0  0  0
    1.0952   -0.5981    0.0000 O   0  0  0  0  0  0  0  0  0  0  0  0
   -4.9627   -0.4950   -3.3392 C   0  0  0  0  0  0  0  0  0  0  0  0
   -5.4903   -1.0529   -2.6985 H   0  0  0  0  0  0  0  0  0  0  0  0
   -4.6651   -1.0623   -4.1072 H   0  0  0  0  0  0  0  0  0  0  0  0
   -5.6188    0.2835   -3.7285 H   0  0  0  0  0  0  0  0  0  0  0  0
   -3.7305    0.0108   -2.6214 C   0  0  0  0  0  0  0  0  0  0  0  0
   -3.0920    0.3901   -3.2783 H   0  0  0  0  0  0  0  0  0  0  0  0
   -3.9914    0.6911   -1.9494 H   0  0  0  0  0  0  0  0  0  0  0  0
   -3.0473   -1.1327   -1.8990 C   0  0  0  0  0  0  0  0  0  0  0  0
   -2.5150   -1.6479   -2.5637 H   0  0  0  0  0  0  0  0  0  0  0  0
   -2.4479   -0.7469   -1.2031 H   0  0  0  0  0  0  0  0  0  0  0  0
   -3.7692   -1.7971   -1.4240 H   0  0  0  0  0  0  0  0  0  0  0  0
  1  5  1  0
  5  6  1  0
  5  7  2  0
  1  2  1  0
  1  3  1  0
  1  4  1  0
  8 12  1  0
 12 15  1  0
  8  9  1  0
  8 10  1  0
  8 11  1  0
 12 13  1  0
 12 14  1  0
 15 16  1  0
 15 17  1  0
 15 18  1  0
M  CHG  1   6  -1
M  END
>  <PDB_ID>  (788) 
pdb2vvf

>  <RESIDUE_NAME>  (788) 
GLU   ARG

>  <FRAG_NAME>  (788) 
ACET   PRPA

>  <FRAG_ATOM_NUM>  (788) 
fragi: 7  fragj: 11

>  <atom.prop.CHAIN_ID>  (788) 
A A A A A A A Z Z Z Z Z Z Z Z Z Z Z

>  <atom.prop.IS_HEAVY_ATOM>  (788) 
1 0 0 0 1 1 1 1 0 0 0 1 0 0 1 0 0 0

>  <DIFUSE_FUNC_ATOM>  (788) 
atom 6   atom 7   

>  <FINAL_SINGLE_POINT_ENERGY>  (788) 
0

>  <NONCOV_INTER_ENERGY_QM>  (788) 
0

>  <FF_Energy>  (788) 
24.04

>  <QM_Energy>  (788) 
0.4

>  <source>  (788) 
ACET_PRPA_07

>  <Index>  (788) 
33204

$$$$
ACET-pdb2waw-A-GLU-199:PRPA-pdb2waw-A-VAL-196
     RDKit          3D

 18 16  0  0  0  0  0  0  0  0999 V2000
    0.1606    1.4855    0.0164 C   0  0  0  0  0  0  0  0  0  0  0  0
    0.6794    1.7478   -0.8005 H   0  0  0  0  0  0  0  0  0  0  0  0
    0.6912    1.7282    0.8321 H   0  0  0  0  0  0  0  0  0  0  0  0
   -0.7509    2.0830    0.0291 H   0  0  0  0  0  0  0  0  0  0  0  0
    0.0000    0.0000    0.0000 C   0  0  0  0  0  0  0  0  0  0  0  0
   -1.0900   -0.5623    0.0000 O   0  0  0  0  0  1  0  0  0  0  0  0
    1.0900   -0.6012   -0.0000 O   0  0  0  0  0  0  0  0  0  0  0  0
    3.6379   -1.0938   -0.5200 C   0  0  0  0  0  0  0  0  0  0  0  0
    2.9009   -1.0092    0.1498 H   0  0  0  0  0  0  0  0  0  0  0  0
    4.0803   -1.9836   -0.4193 H   0  0  0  0  0  0  0  0  0  0  0  0
    4.3084   -0.3684   -0.3731 H   0  0  0  0  0  0  0  0  0  0  0  0
    3.0598   -0.9719   -1.9281 C   0  0  0  0  0  0  0  0  0  0  0  0
    3.8228   -0.7919   -2.5432 H   0  0  0  0  0  0  0  0  0  0  0  0
    2.3751   -0.1271   -2.0027 H   0  0  0  0  0  0  0  0  0  0  0  0
    2.3417   -2.2545   -2.3028 C   0  0  0  0  0  0  0  0  0  0  0  0
    2.2478   -2.8321   -1.4913 H   0  0  0  0  0  0  0  0  0  0  0  0
    1.4342   -2.0348   -2.6638 H   0  0  0  0  0  0  0  0  0  0  0  0
    2.8703   -2.7404   -2.9998 H   0  0  0  0  0  0  0  0  0  0  0  0
  1  5  1  0
  5  6  1  0
  5  7  2  0
  1  2  1  0
  1  3  1  0
  1  4  1  0
  8 12  1  0
 12 15  1  0
  8  9  1  0
  8 10  1  0
  8 11  1  0
 12 13  1  0
 12 14  1  0
 15 16  1  0
 15 17  1  0
 15 18  1  0
M  CHG  1   6  -1
M  END
>  <PDB_ID>  (789) 
pdb2waw

>  <RESIDUE_NAME>  (789) 
GLU   VAL

>  <FRAG_NAME>  (789) 
ACET   PRPA

>  <FRAG_ATOM_NUM>  (789) 
fragi: 7  fragj: 11

>  <atom.prop.CHAIN_ID>  (789) 
A A A A A A A Z Z Z Z Z Z Z Z Z Z Z

>  <atom.prop.IS_HEAVY_ATOM>  (789) 
1 0 0 0 1 1 1 1 0 0 0 1 0 0 1 0 0 0

>  <DIFUSE_FUNC_ATOM>  (789) 
atom 6   atom 7   

>  <FINAL_SINGLE_POINT_ENERGY>  (789) 
0

>  <NONCOV_INTER_ENERGY_QM>  (789) 
0

>  <FF_Energy>  (789) 
24.64

>  <QM_Energy>  (789) 
0.8

>  <source>  (789) 
ACET_PRPA_07

>  <Index>  (789) 
34690

$$$$
ACET-pdb2w8n-A-GLU-231:PRPA-pdb2w8n-A-ARG-261
     RDKit          3D

 18 16  0  0  0  0  0  0  0  0999 V2000
    0.0057    1.5063    0.0133 C   0  0  0  0  0  0  0  0  0  0  0  0
   -0.6864    1.8125   -0.6154 H   0  0  0  0  0  0  0  0  0  0  0  0
    0.9053    1.8032   -0.2524 H   0  0  0  0  0  0  0  0  0  0  0  0
   -0.2177    1.9130    0.9996 H   0  0  0  0  0  0  0  0  0  0  0  0
    0.0000    0.0000    0.0000 C   0  0  0  0  0  0  0  0  0  0  0  0
   -1.1048   -0.5953   -0.0000 O   0  0  0  0  0  1  0  0  0  0  0  0
    1.1048   -0.5873    0.0000 O   0  0  0  0  0  0  0  0  0  0  0  0
    1.3446   -3.1585    0.7992 C   0  0  0  0  0  0  0  0  0  0  0  0
    1.5786   -2.2673    0.4094 H   0  0  0  0  0  0  0  0  0  0  0  0
    2.1293   -3.5133    1.3077 H   0  0  0  0  0  0  0  0  0  0  0  0
    0.5214   -3.0177    1.4997 H   0  0  0  0  0  0  0  0  0  0  0  0
    1.0702   -4.1183   -0.3641 C   0  0  0  0  0  0  0  0  0  0  0  0
    0.1277   -4.0084   -0.6658 H   0  0  0  0  0  0  0  0  0  0  0  0
    1.6947   -3.9139   -1.1118 H   0  0  0  0  0  0  0  0  0  0  0  0
    1.2748   -5.5753    0.0420 C   0  0  0  0  0  0  0  0  0  0  0  0
    0.6397   -5.7814    0.7786 H   0  0  0  0  0  0  0  0  0  0  0  0
    1.0816   -6.1444   -0.7507 H   0  0  0  0  0  0  0  0  0  0  0  0
    2.2939   -5.7617    0.3808 H   0  0  0  0  0  0  0  0  0  0  0  0
  1  5  1  0
  5  6  1  0
  5  7  2  0
  1  2  1  0
  1  3  1  0
  1  4  1  0
  8 12  1  0
 12 15  1  0
  8  9  1  0
  8 10  1  0
  8 11  1  0
 12 13  1  0
 12 14  1  0
 15 16  1  0
 15 17  1  0
 15 18  1  0
M  CHG  1   6  -1
M  END
>  <PDB_ID>  (790) 
pdb2w8n

>  <RESIDUE_NAME>  (790) 
GLU   ARG

>  <FRAG_NAME>  (790) 
ACET   PRPA

>  <FRAG_ATOM_NUM>  (790) 
fragi: 7  fragj: 11

>  <atom.prop.CHAIN_ID>  (790) 
A A A A A A A Z Z Z Z Z Z Z Z Z Z Z

>  <atom.prop.IS_HEAVY_ATOM>  (790) 
1 0 0 0 1 1 1 1 0 0 0 1 0 0 1 0 0 0

>  <DIFUSE_FUNC_ATOM>  (790) 
atom 6   atom 7   

>  <FINAL_SINGLE_POINT_ENERGY>  (790) 
0

>  <NONCOV_INTER_ENERGY_QM>  (790) 
0

>  <FF_Energy>  (790) 
29.76

>  <QM_Energy>  (790) 
2.21

>  <source>  (790) 
ACET_PRPA_07

>  <Index>  (790) 
34703

$$$$
ACET-pdb2vvf-B-GLU-160:PRPA-pdb2vvf-B-ARG-243
     RDKit          3D

 18 16  0  0  0  0  0  0  0  0999 V2000
    0.0007    1.5158    0.0065 C   0  0  0  0  0  0  0  0  0  0  0  0
    0.0684    1.8181   -0.9254 H   0  0  0  0  0  0  0  0  0  0  0  0
    0.7615    1.8113    0.5532 H   0  0  0  0  0  0  0  0  0  0  0  0
   -0.9107    1.9332    0.4346 H   0  0  0  0  0  0  0  0  0  0  0  0
    0.0000    0.0000    0.0000 C   0  0  0  0  0  0  0  0  0  0  0  0
   -1.0967   -0.5956   -0.0000 O   0  0  0  0  0  1  0  0  0  0  0  0
    1.0967   -0.5964    0.0000 O   0  0  0  0  0  0  0  0  0  0  0  0
   -5.0031   -0.4380   -3.3472 C   0  0  0  0  0  0  0  0  0  0  0  0
   -5.5257   -0.9945   -2.7000 H   0  0  0  0  0  0  0  0  0  0  0  0
   -4.7125   -1.0081   -4.1156 H   0  0  0  0  0  0  0  0  0  0  0  0
   -5.6631    0.3387   -3.7336 H   0  0  0  0  0  0  0  0  0  0  0  0
   -3.7642    0.0689   -2.6417 C   0  0  0  0  0  0  0  0  0  0  0  0
   -3.1247    0.4332   -3.3077 H   0  0  0  0  0  0  0  0  0  0  0  0
   -4.0162    0.7658   -1.9814 H   0  0  0  0  0  0  0  0  0  0  0  0
   -3.0802   -1.0635   -1.8970 C   0  0  0  0  0  0  0  0  0  0  0  0
   -2.5485   -1.5891   -2.5528 H   0  0  0  0  0  0  0  0  0  0  0  0
   -2.4844   -0.6644   -1.2072 H   0  0  0  0  0  0  0  0  0  0  0  0
   -3.8054   -1.7176   -1.4130 H   0  0  0  0  0  0  0  0  0  0  0  0
  1  5  1  0
  5  6  1  0
  5  7  2  0
  1  2  1  0
  1  3  1  0
  1  4  1  0
  8 12  1  0
 12 15  1  0
  8  9  1  0
  8 10  1  0
  8 11  1  0
 12 13  1  0
 12 14  1  0
 15 16  1  0
 15 17  1  0
 15 18  1  0
M  CHG  1   6  -1
M  END
>  <PDB_ID>  (791) 
pdb2vvf

>  <RESIDUE_NAME>  (791) 
GLU   ARG

>  <FRAG_NAME>  (791) 
ACET   PRPA

>  <FRAG_ATOM_NUM>  (791) 
fragi: 7  fragj: 11

>  <atom.prop.CHAIN_ID>  (791) 
A A A A A A A Z Z Z Z Z Z Z Z Z Z Z

>  <atom.prop.IS_HEAVY_ATOM>  (791) 
1 0 0 0 1 1 1 1 0 0 0 1 0 0 1 0 0 0

>  <DIFUSE_FUNC_ATOM>  (791) 
atom 6   atom 7   

>  <FINAL_SINGLE_POINT_ENERGY>  (791) 
0

>  <NONCOV_INTER_ENERGY_QM>  (791) 
0

>  <FF_Energy>  (791) 
20.53

>  <QM_Energy>  (791) 
0.24

>  <source>  (791) 
ACET_PRPA_07

>  <Index>  (791) 
35199

$$$$
ACET-pdb2vak-D-GLU-108:PRPA-pdb2vak-D-ARG-92
     RDKit          3D

 18 16  0  0  0  0  0  0  0  0999 V2000
    0.0007    1.5211   -0.0204 C   0  0  0  0  0  0  0  0  0  0  0  0
    0.5005    1.8051   -0.8158 H   0  0  0  0  0  0  0  0  0  0  0  0
    0.4158    1.8262    0.8142 H   0  0  0  0  0  0  0  0  0  0  0  0
   -1.0048    1.9378   -0.0791 H   0  0  0  0  0  0  0  0  0  0  0  0
    0.0000    0.0000    0.0000 C   0  0  0  0  0  0  0  0  0  0  0  0
   -1.1054   -0.6049    0.0000 O   0  0  0  0  0  1  0  0  0  0  0  0
    1.1054   -0.5879    0.0000 O   0  0  0  0  0  0  0  0  0  0  0  0
    3.9965    0.2587    1.5834 C   0  0  0  0  0  0  0  0  0  0  0  0
    3.7866    0.6294    0.6624 H   0  0  0  0  0  0  0  0  0  0  0  0
    5.0727    0.3144    1.7470 H   0  0  0  0  0  0  0  0  0  0  0  0
    3.4212    0.8241    2.3165 H   0  0  0  0  0  0  0  0  0  0  0  0
    3.5015   -1.1914    1.4069 C   0  0  0  0  0  0  0  0  0  0  0  0
    2.5449   -1.1513    1.0788 H   0  0  0  0  0  0  0  0  0  0  0  0
    4.0574   -1.6190    0.6772 H   0  0  0  0  0  0  0  0  0  0  0  0
    3.5373   -2.1183    2.6211 C   0  0  0  0  0  0  0  0  0  0  0  0
    4.4545   -2.1795    2.9755 H   0  0  0  0  0  0  0  0  0  0  0  0
    2.8985   -1.8087    3.3032 H   0  0  0  0  0  0  0  0  0  0  0  0
    3.2354   -3.1246    2.3309 H   0  0  0  0  0  0  0  0  0  0  0  0
  1  5  1  0
  5  6  1  0
  5  7  2  0
  1  2  1  0
  1  3  1  0
  1  4  1  0
  8 12  1  0
 12 15  1  0
  8  9  1  0
  8 10  1  0
  8 11  1  0
 12 13  1  0
 12 14  1  0
 15 16  1  0
 15 17  1  0
 15 18  1  0
M  CHG  1   6  -1
M  END
>  <PDB_ID>  (792) 
pdb2vak

>  <RESIDUE_NAME>  (792) 
GLU   ARG

>  <FRAG_NAME>  (792) 
ACET   PRPA

>  <FRAG_ATOM_NUM>  (792) 
fragi: 7  fragj: 11

>  <atom.prop.CHAIN_ID>  (792) 
A A A A A A A Z Z Z Z Z Z Z Z Z Z Z

>  <atom.prop.IS_HEAVY_ATOM>  (792) 
1 0 0 0 1 1 1 1 0 0 0 1 0 0 1 0 0 0

>  <DIFUSE_FUNC_ATOM>  (792) 
atom 6   atom 7   

>  <FINAL_SINGLE_POINT_ENERGY>  (792) 
0

>  <NONCOV_INTER_ENERGY_QM>  (792) 
0

>  <FF_Energy>  (792) 
16.82

>  <QM_Energy>  (792) 
-2.12

>  <source>  (792) 
ACET_PRPA_07

>  <Index>  (792) 
36094

$$$$
ACET-pdb2vak-D-GLU-108:PRPA-pdb2vak-D-ARG-92
     RDKit          3D

 18 16  0  0  0  0  0  0  0  0999 V2000
    0.0007    1.5211   -0.0204 C   0  0  0  0  0  0  0  0  0  0  0  0
    0.5005    1.8051   -0.8158 H   0  0  0  0  0  0  0  0  0  0  0  0
    0.4158    1.8262    0.8142 H   0  0  0  0  0  0  0  0  0  0  0  0
   -1.0048    1.9378   -0.0791 H   0  0  0  0  0  0  0  0  0  0  0  0
    0.0000    0.0000    0.0000 C   0  0  0  0  0  0  0  0  0  0  0  0
   -1.1054   -0.6049    0.0000 O   0  0  0  0  0  1  0  0  0  0  0  0
    1.1054   -0.5879    0.0000 O   0  0  0  0  0  0  0  0  0  0  0  0
    3.5015   -1.1914    1.4069 C   0  0  0  0  0  0  0  0  0  0  0  0
    2.5449   -1.1513    1.0788 H   0  0  0  0  0  0  0  0  0  0  0  0
    4.0574   -1.6190    0.6772 H   0  0  0  0  0  0  0  0  0  0  0  0
    3.8513   -0.1667    1.5316 H   0  0  0  0  0  0  0  0  0  0  0  0
    3.5373   -2.1183    2.6211 C   0  0  0  0  0  0  0  0  0  0  0  0
    4.4545   -2.1795    2.9755 H   0  0  0  0  0  0  0  0  0  0  0  0
    2.8985   -1.8087    3.3032 H   0  0  0  0  0  0  0  0  0  0  0  0
    3.1034   -3.5645    2.2041 C   0  0  0  0  0  0  0  0  0  0  0  0
    3.9106   -4.0219    1.8465 H   0  0  0  0  0  0  0  0  0  0  0  0
    2.7813   -4.0220    3.0268 H   0  0  0  0  0  0  0  0  0  0  0  0
    2.3159   -3.5748    1.4504 H   0  0  0  0  0  0  0  0  0  0  0  0
  1  5  1  0
  5  6  1  0
  5  7  2  0
  1  2  1  0
  1  3  1  0
  1  4  1  0
  8 12  1  0
 12 15  1  0
  8  9  1  0
  8 10  1  0
  8 11  1  0
 12 13  1  0
 12 14  1  0
 15 16  1  0
 15 17  1  0
 15 18  1  0
M  CHG  1   6  -1
M  END
>  <PDB_ID>  (793) 
pdb2vak

>  <RESIDUE_NAME>  (793) 
GLU   ARG

>  <FRAG_NAME>  (793) 
ACET   PRPA

>  <FRAG_ATOM_NUM>  (793) 
fragi: 7  fragj: 11

>  <atom.prop.CHAIN_ID>  (793) 
A A A A A A A Z Z Z Z Z Z Z Z Z Z Z

>  <atom.prop.IS_HEAVY_ATOM>  (793) 
1 0 0 0 1 1 1 1 0 0 0 1 0 0 1 0 0 0

>  <DIFUSE_FUNC_ATOM>  (793) 
atom 6   atom 7   

>  <FINAL_SINGLE_POINT_ENERGY>  (793) 
0

>  <NONCOV_INTER_ENERGY_QM>  (793) 
0

>  <FF_Energy>  (793) 
14.67

>  <QM_Energy>  (793) 
-0.51

>  <source>  (793) 
ACET_PRPA_07

>  <Index>  (793) 
36096

$$$$
ACET-pdb1q1s-C-GLU-139:PRPA-pdb1q1s-C-ARG-101
     RDKit          3D

 18 16  0  0  0  0  0  0  0  0999 V2000
   -0.0083    1.5207    0.0217 C   0  0  0  0  0  0  0  0  0  0  0  0
    0.6350    1.8311   -0.6506 H   0  0  0  0  0  0  0  0  0  0  0  0
    0.2277    1.8057    0.9304 H   0  0  0  0  0  0  0  0  0  0  0  0
   -0.9850    1.9377   -0.2240 H   0  0  0  0  0  0  0  0  0  0  0  0
    0.0000    0.0000    0.0000 C   0  0  0  0  0  0  0  0  0  0  0  0
   -1.0991   -0.5902   -0.0000 O   0  0  0  0  0  1  0  0  0  0  0  0
    1.0991   -0.6039    0.0000 O   0  0  0  0  0  0  0  0  0  0  0  0
   -4.1040   -2.1428    0.2043 C   0  0  0  0  0  0  0  0  0  0  0  0
   -4.3251   -1.2056   -0.0418 H   0  0  0  0  0  0  0  0  0  0  0  0
   -3.3879   -2.1609    0.8930 H   0  0  0  0  0  0  0  0  0  0  0  0
   -4.9960   -2.6056    0.6265 H   0  0  0  0  0  0  0  0  0  0  0  0
   -3.5857   -2.8478   -1.0361 C   0  0  0  0  0  0  0  0  0  0  0  0
   -3.9062   -3.7888   -1.0411 H   0  0  0  0  0  0  0  0  0  0  0  0
   -3.9029   -2.3681   -1.8470 H   0  0  0  0  0  0  0  0  0  0  0  0
   -2.0735   -2.8572   -1.0487 C   0  0  0  0  0  0  0  0  0  0  0  0
   -1.7683   -2.6479   -1.9780 H   0  0  0  0  0  0  0  0  0  0  0  0
   -1.7525   -2.1433   -0.4247 H   0  0  0  0  0  0  0  0  0  0  0  0
   -1.6563   -3.8162   -0.7413 H   0  0  0  0  0  0  0  0  0  0  0  0
  1  5  1  0
  5  6  1  0
  5  7  2  0
  1  2  1  0
  1  3  1  0
  1  4  1  0
  8 12  1  0
 12 15  1  0
  8  9  1  0
  8 10  1  0
  8 11  1  0
 12 13  1  0
 12 14  1  0
 15 16  1  0
 15 17  1  0
 15 18  1  0
M  CHG  1   6  -1
M  END
>  <PDB_ID>  (794) 
pdb1q1s

>  <RESIDUE_NAME>  (794) 
GLU   ARG

>  <FRAG_NAME>  (794) 
ACET   PRPA

>  <FRAG_ATOM_NUM>  (794) 
fragi: 7  fragj: 11

>  <atom.prop.CHAIN_ID>  (794) 
A A A A A A A Z Z Z Z Z Z Z Z Z Z Z

>  <atom.prop.IS_HEAVY_ATOM>  (794) 
1 0 0 0 1 1 1 1 0 0 0 1 0 0 1 0 0 0

>  <DIFUSE_FUNC_ATOM>  (794) 
atom 6   atom 7   

>  <FINAL_SINGLE_POINT_ENERGY>  (794) 
0

>  <NONCOV_INTER_ENERGY_QM>  (794) 
0

>  <FF_Energy>  (794) 
43.86

>  <QM_Energy>  (794) 
2.18

>  <source>  (794) 
ACET_PRPA_07

>  <Index>  (794) 
36230

$$$$
ACET-pdb1q3o-B-GLU-631:PRPA-pdb1q3o-B-ARG-607
     RDKit          3D

 18 16  0  0  0  0  0  0  0  0999 V2000
   -0.0139    1.5103   -0.0236 C   0  0  0  0  0  0  0  0  0  0  0  0
    0.8889    1.8201    0.1874 H   0  0  0  0  0  0  0  0  0  0  0  0
   -0.6843    1.8118    0.6202 H   0  0  0  0  0  0  0  0  0  0  0  0
   -0.2866    1.8857   -1.0099 H   0  0  0  0  0  0  0  0  0  0  0  0
    0.0000    0.0000    0.0000 C   0  0  0  0  0  0  0  0  0  0  0  0
   -1.0988   -0.5898    0.0000 O   0  0  0  0  0  1  0  0  0  0  0  0
    1.0988   -0.5982   -0.0000 O   0  0  0  0  0  0  0  0  0  0  0  0
   -2.6413   -0.3055   -3.6623 C   0  0  0  0  0  0  0  0  0  0  0  0
   -1.7358   -0.2095   -3.2541 H   0  0  0  0  0  0  0  0  0  0  0  0
   -3.1506    0.5461   -3.5583 H   0  0  0  0  0  0  0  0  0  0  0  0
   -2.5159   -0.5006   -4.7273 H   0  0  0  0  0  0  0  0  0  0  0  0
   -3.3854   -1.3935   -2.9075 C   0  0  0  0  0  0  0  0  0  0  0  0
   -4.2996   -1.4903   -3.2795 H   0  0  0  0  0  0  0  0  0  0  0  0
   -2.8844   -2.2469   -2.9754 H   0  0  0  0  0  0  0  0  0  0  0  0
   -3.5031   -1.0264   -1.4396 C   0  0  0  0  0  0  0  0  0  0  0  0
   -2.5836   -0.8358   -1.0920 H   0  0  0  0  0  0  0  0  0  0  0  0
   -4.0610   -0.1976   -1.3717 H   0  0  0  0  0  0  0  0  0  0  0  0
   -3.9569   -1.8133   -0.8371 H   0  0  0  0  0  0  0  0  0  0  0  0
  1  5  1  0
  5  6  1  0
  5  7  2  0
  1  2  1  0
  1  3  1  0
  1  4  1  0
  8 12  1  0
 12 15  1  0
  8  9  1  0
  8 10  1  0
  8 11  1  0
 12 13  1  0
 12 14  1  0
 15 16  1  0
 15 17  1  0
 15 18  1  0
M  CHG  1   6  -1
M  END
>  <PDB_ID>  (795) 
pdb1q3o

>  <RESIDUE_NAME>  (795) 
GLU   ARG

>  <FRAG_NAME>  (795) 
ACET   PRPA

>  <FRAG_ATOM_NUM>  (795) 
fragi: 7  fragj: 11

>  <atom.prop.CHAIN_ID>  (795) 
A A A A A A A Z Z Z Z Z Z Z Z Z Z Z

>  <atom.prop.IS_HEAVY_ATOM>  (795) 
1 0 0 0 1 1 1 1 0 0 0 1 0 0 1 0 0 0

>  <DIFUSE_FUNC_ATOM>  (795) 
atom 6   atom 7   

>  <FINAL_SINGLE_POINT_ENERGY>  (795) 
0

>  <NONCOV_INTER_ENERGY_QM>  (795) 
0

>  <FF_Energy>  (795) 
17.59

>  <QM_Energy>  (795) 
-1.02

>  <source>  (795) 
ACET_PRPA_07

>  <Index>  (795) 
36250

$$$$
ACET-pdb1q18-B-GLU-168:PRPA-pdb1q18-A-GLU-175
     RDKit          3D

 18 16  0  0  0  0  0  0  0  0999 V2000
    0.0381    1.5551    0.0397 C   0  0  0  0  0  0  0  0  0  0  0  0
    0.8776    1.8305   -0.4134 H   0  0  0  0  0  0  0  0  0  0  0  0
    0.0569    1.8145    0.9981 H   0  0  0  0  0  0  0  0  0  0  0  0
   -0.7924    2.0746   -0.4384 H   0  0  0  0  0  0  0  0  0  0  0  0
    0.0000    0.0000    0.0000 C   0  0  0  0  0  0  0  0  0  0  0  0
   -1.0942   -0.6196   -0.0000 O   0  0  0  0  0  1  0  0  0  0  0  0
    1.0942   -0.6272    0.0000 O   0  0  0  0  0  0  0  0  0  0  0  0
    2.3967    2.3256    5.1571 C   0  0  0  0  0  0  0  0  0  0  0  0
    1.4561    2.6420    5.3850 H   0  0  0  0  0  0  0  0  0  0  0  0
    3.0898    3.1656    5.2010 H   0  0  0  0  0  0  0  0  0  0  0  0
    2.6508    1.4994    5.8212 H   0  0  0  0  0  0  0  0  0  0  0  0
    2.2092    1.8814    3.7192 C   0  0  0  0  0  0  0  0  0  0  0  0
    2.9655    2.2014    3.1922 H   0  0  0  0  0  0  0  0  0  0  0  0
    2.1050    0.9117    3.7019 H   0  0  0  0  0  0  0  0  0  0  0  0
    0.9330    2.4802    3.0786 C   0  0  0  0  0  0  0  0  0  0  0  0
    0.8709    2.1454    2.1506 H   0  0  0  0  0  0  0  0  0  0  0  0
    0.1554    2.1923    3.6172 H   0  0  0  0  0  0  0  0  0  0  0  0
    0.8962    3.5683    3.0262 H   0  0  0  0  0  0  0  0  0  0  0  0
  1  5  1  0
  5  6  1  0
  5  7  2  0
  1  2  1  0
  1  3  1  0
  1  4  1  0
  8 12  1  0
 12 15  1  0
  8  9  1  0
  8 10  1  0
  8 11  1  0
 12 13  1  0
 12 14  1  0
 15 16  1  0
 15 17  1  0
 15 18  1  0
M  CHG  1   6  -1
M  END
>  <PDB_ID>  (796) 
pdb1q18

>  <RESIDUE_NAME>  (796) 
GLU   GLU

>  <FRAG_NAME>  (796) 
ACET   PRPA

>  <FRAG_ATOM_NUM>  (796) 
fragi: 7  fragj: 11

>  <atom.prop.CHAIN_ID>  (796) 
A A A A A A A Z Z Z Z Z Z Z Z Z Z Z

>  <atom.prop.IS_HEAVY_ATOM>  (796) 
1 0 0 0 1 1 1 1 0 0 0 1 0 0 1 0 0 0

>  <DIFUSE_FUNC_ATOM>  (796) 
atom 6   atom 7   

>  <FINAL_SINGLE_POINT_ENERGY>  (796) 
0

>  <NONCOV_INTER_ENERGY_QM>  (796) 
0

>  <FF_Energy>  (796) 
41.2

>  <QM_Energy>  (796) 
4.47

>  <source>  (796) 
ACET_PRPA_07

>  <Index>  (796) 
36401

$$$$
ACET-pdb2vvf-C-GLU-160:PRPA-pdb2vvf-C-ARG-243
     RDKit          3D

 18 16  0  0  0  0  0  0  0  0999 V2000
   -0.0022    1.5153    0.0098 C   0  0  0  0  0  0  0  0  0  0  0  0
    0.0680    1.8188   -0.9214 H   0  0  0  0  0  0  0  0  0  0  0  0
    0.7566    1.8098    0.5597 H   0  0  0  0  0  0  0  0  0  0  0  0
   -0.9165    1.9280    0.4363 H   0  0  0  0  0  0  0  0  0  0  0  0
    0.0000    0.0000    0.0000 C   0  0  0  0  0  0  0  0  0  0  0  0
   -1.0968   -0.5955    0.0000 O   0  0  0  0  0  1  0  0  0  0  0  0
    1.0968   -0.5963    0.0000 O   0  0  0  0  0  0  0  0  0  0  0  0
   -5.0467   -0.4397   -3.3148 C   0  0  0  0  0  0  0  0  0  0  0  0
   -5.5612   -0.9992   -2.6641 H   0  0  0  0  0  0  0  0  0  0  0  0
   -4.7613   -1.0073   -4.0875 H   0  0  0  0  0  0  0  0  0  0  0  0
   -5.7115    0.3370   -3.6930 H   0  0  0  0  0  0  0  0  0  0  0  0
   -3.8033    0.0693   -2.6187 C   0  0  0  0  0  0  0  0  0  0  0  0
   -3.1712    0.4359   -3.2886 H   0  0  0  0  0  0  0  0  0  0  0  0
   -4.0523    0.7615   -1.9533 H   0  0  0  0  0  0  0  0  0  0  0  0
   -3.1143   -1.0658   -1.8859 C   0  0  0  0  0  0  0  0  0  0  0  0
   -2.5756   -1.5806   -2.5449 H   0  0  0  0  0  0  0  0  0  0  0  0
   -2.5225   -0.6714   -1.1889 H   0  0  0  0  0  0  0  0  0  0  0  0
   -3.8349   -1.7319   -1.4114 H   0  0  0  0  0  0  0  0  0  0  0  0
  1  5  1  0
  5  6  1  0
  5  7  2  0
  1  2  1  0
  1  3  1  0
  1  4  1  0
  8 12  1  0
 12 15  1  0
  8  9  1  0
  8 10  1  0
  8 11  1  0
 12 13  1  0
 12 14  1  0
 15 16  1  0
 15 17  1  0
 15 18  1  0
M  CHG  1   6  -1
M  END
>  <PDB_ID>  (797) 
pdb2vvf

>  <RESIDUE_NAME>  (797) 
GLU   ARG

>  <FRAG_NAME>  (797) 
ACET   PRPA

>  <FRAG_ATOM_NUM>  (797) 
fragi: 7  fragj: 11

>  <atom.prop.CHAIN_ID>  (797) 
A A A A A A A Z Z Z Z Z Z Z Z Z Z Z

>  <atom.prop.IS_HEAVY_ATOM>  (797) 
1 0 0 0 1 1 1 1 0 0 0 1 0 0 1 0 0 0

>  <DIFUSE_FUNC_ATOM>  (797) 
atom 6   atom 7   

>  <FINAL_SINGLE_POINT_ENERGY>  (797) 
0

>  <NONCOV_INTER_ENERGY_QM>  (797) 
0

>  <FF_Energy>  (797) 
18.07

>  <QM_Energy>  (797) 
-0.07

>  <source>  (797) 
ACET_PRPA_07

>  <Index>  (797) 
37274

$$$$
ACET-pdb1poi-B-ASP-3:PRPA-pdb1poi-B-LYS-246
     RDKit          3D

 18 16  0  0  0  0  0  0  0  0999 V2000
   -0.0078    1.5210    0.0273 C   0  0  0  0  0  0  0  0  0  0  0  0
    0.9146    1.8365    0.2240 H   0  0  0  0  0  0  0  0  0  0  0  0
   -0.6345    1.8199    0.7390 H   0  0  0  0  0  0  0  0  0  0  0  0
   -0.3265    1.9602   -0.9181 H   0  0  0  0  0  0  0  0  0  0  0  0
    0.0000    0.0000    0.0000 C   0  0  0  0  0  0  0  0  0  0  0  0
   -1.0936   -0.5986    0.0000 O   0  0  0  0  0  1  0  0  0  0  0  0
    1.0936   -0.6021    0.0000 O   0  0  0  0  0  0  0  0  0  0  0  0
    2.0014    3.5181    1.4250 C   0  0  0  0  0  0  0  0  0  0  0  0
    1.1580    3.1605    1.0378 H   0  0  0  0  0  0  0  0  0  0  0  0
    2.3163    4.3970    0.8626 H   0  0  0  0  0  0  0  0  0  0  0  0
    1.8066    3.8344    2.4498 H   0  0  0  0  0  0  0  0  0  0  0  0
    3.0949    2.4493    1.4390 C   0  0  0  0  0  0  0  0  0  0  0  0
    3.4306    2.3264    0.5091 H   0  0  0  0  0  0  0  0  0  0  0  0
    3.8342    2.7594    2.0313 H   0  0  0  0  0  0  0  0  0  0  0  0
    2.6225    1.0757    1.9544 C   0  0  0  0  0  0  0  0  0  0  0  0
    1.7121    1.1908    2.3672 H   0  0  0  0  0  0  0  0  0  0  0  0
    2.5402    0.4549    1.1677 H   0  0  0  0  0  0  0  0  0  0  0  0
    3.2979    0.6380    2.6895 H   0  0  0  0  0  0  0  0  0  0  0  0
  1  5  1  0
  5  6  1  0
  5  7  2  0
  1  2  1  0
  1  3  1  0
  1  4  1  0
  8 12  1  0
 12 15  1  0
  8  9  1  0
  8 10  1  0
  8 11  1  0
 12 13  1  0
 12 14  1  0
 15 16  1  0
 15 17  1  0
 15 18  1  0
M  CHG  1   6  -1
M  END
>  <PDB_ID>  (798) 
pdb1poi

>  <RESIDUE_NAME>  (798) 
ASP   LYS

>  <FRAG_NAME>  (798) 
ACET   PRPA

>  <FRAG_ATOM_NUM>  (798) 
fragi: 7  fragj: 11

>  <atom.prop.CHAIN_ID>  (798) 
A A A A A A A Z Z Z Z Z Z Z Z Z Z Z

>  <atom.prop.IS_HEAVY_ATOM>  (798) 
1 0 0 0 1 1 1 1 0 0 0 1 0 0 1 0 0 0

>  <DIFUSE_FUNC_ATOM>  (798) 
atom 6   atom 7   

>  <FINAL_SINGLE_POINT_ENERGY>  (798) 
0

>  <NONCOV_INTER_ENERGY_QM>  (798) 
0

>  <FF_Energy>  (798) 
25.97

>  <QM_Energy>  (798) 
3.85

>  <source>  (798) 
ACET_PRPA_07

>  <Index>  (798) 
37454

$$$$
ACET-pdb1pwx-C-GLU-197:PRPA-pdb1pwx-A-PRO-250
     RDKit          3D

 18 16  0  0  0  0  0  0  0  0999 V2000
    0.0128    1.5195   -0.0014 C   0  0  0  0  0  0  0  0  0  0  0  0
   -0.6179    1.8213   -0.6964 H   0  0  0  0  0  0  0  0  0  0  0  0
    0.9354    1.8083   -0.1949 H   0  0  0  0  0  0  0  0  0  0  0  0
   -0.2909    1.9611    0.9477 H   0  0  0  0  0  0  0  0  0  0  0  0
    0.0000    0.0000    0.0000 C   0  0  0  0  0  0  0  0  0  0  0  0
   -1.1024   -0.5934    0.0000 O   0  0  0  0  0  1  0  0  0  0  0  0
    1.1024   -0.5973   -0.0000 O   0  0  0  0  0  0  0  0  0  0  0  0
    2.6465   -2.6835    2.0244 C   0  0  0  0  0  0  0  0  0  0  0  0
    1.9390   -3.1400    1.4690 H   0  0  0  0  0  0  0  0  0  0  0  0
    2.7824   -3.1983    2.9755 H   0  0  0  0  0  0  0  0  0  0  0  0
    3.5829   -2.6135    1.4708 H   0  0  0  0  0  0  0  0  0  0  0  0
    2.1476   -1.3130    2.4599 C   0  0  0  0  0  0  0  0  0  0  0  0
    2.9145   -0.7261    2.7188 H   0  0  0  0  0  0  0  0  0  0  0  0
    1.6272   -0.8792    1.7261 H   0  0  0  0  0  0  0  0  0  0  0  0
    1.2989   -1.6353    3.6114 C   0  0  0  0  0  0  0  0  0  0  0  0
    1.1166   -0.8314    4.1699 H   0  0  0  0  0  0  0  0  0  0  0  0
    0.4417   -2.0574    3.3290 H   0  0  0  0  0  0  0  0  0  0  0  0
    1.9094   -2.3498    4.1635 H   0  0  0  0  0  0  0  0  0  0  0  0
  1  5  1  0
  5  6  1  0
  5  7  2  0
  1  2  1  0
  1  3  1  0
  1  4  1  0
  8 12  1  0
 12 15  1  0
  8  9  1  0
  8 10  1  0
  8 11  1  0
 12 13  1  0
 12 14  1  0
 15 16  1  0
 15 17  1  0
 15 18  1  0
M  CHG  1   6  -1
M  END
>  <PDB_ID>  (799) 
pdb1pwx

>  <RESIDUE_NAME>  (799) 
GLU   PRO

>  <FRAG_NAME>  (799) 
ACET   PRPA

>  <FRAG_ATOM_NUM>  (799) 
fragi: 7  fragj: 11

>  <atom.prop.CHAIN_ID>  (799) 
A A A A A A A Z Z Z Z Z Z Z Z Z Z Z

>  <atom.prop.IS_HEAVY_ATOM>  (799) 
1 0 0 0 1 1 1 1 0 0 0 1 0 0 1 0 0 0

>  <DIFUSE_FUNC_ATOM>  (799) 
atom 6   atom 7   

>  <FINAL_SINGLE_POINT_ENERGY>  (799) 
0

>  <NONCOV_INTER_ENERGY_QM>  (799) 
0

>  <FF_Energy>  (799) 
28.17

>  <QM_Energy>  (799) 
-0.64

>  <source>  (799) 
ACET_PRPA_07

>  <Index>  (799) 
37960

$$$$
ACET-pdb1pwx-C-GLU-197:PRPA-pdb1pwx-A-PRO-250
     RDKit          3D

 18 16  0  0  0  0  0  0  0  0999 V2000
    0.0128    1.5195   -0.0014 C   0  0  0  0  0  0  0  0  0  0  0  0
   -0.6179    1.8213   -0.6964 H   0  0  0  0  0  0  0  0  0  0  0  0
    0.9354    1.8083   -0.1949 H   0  0  0  0  0  0  0  0  0  0  0  0
   -0.2909    1.9611    0.9477 H   0  0  0  0  0  0  0  0  0  0  0  0
    0.0000    0.0000    0.0000 C   0  0  0  0  0  0  0  0  0  0  0  0
   -1.1024   -0.5934    0.0000 O   0  0  0  0  0  1  0  0  0  0  0  0
    1.1024   -0.5973   -0.0000 O   0  0  0  0  0  0  0  0  0  0  0  0
    2.1476   -1.3130    2.4599 C   0  0  0  0  0  0  0  0  0  0  0  0
    2.9145   -0.7261    2.7188 H   0  0  0  0  0  0  0  0  0  0  0  0
    1.6272   -0.8792    1.7261 H   0  0  0  0  0  0  0  0  0  0  0  0
    2.5049   -2.2944    2.1480 H   0  0  0  0  0  0  0  0  0  0  0  0
    1.2989   -1.6353    3.6114 C   0  0  0  0  0  0  0  0  0  0  0  0
    1.1166   -0.8314    4.1699 H   0  0  0  0  0  0  0  0  0  0  0  0
    0.4417   -2.0574    3.3290 H   0  0  0  0  0  0  0  0  0  0  0  0
    2.1470   -2.6280    4.3785 C   0  0  0  0  0  0  0  0  0  0  0  0
    2.8107   -2.1646    4.9598 H   0  0  0  0  0  0  0  0  0  0  0  0
    1.5817   -3.2395    4.9289 H   0  0  0  0  0  0  0  0  0  0  0  0
    2.6508   -3.1804    3.5852 H   0  0  0  0  0  0  0  0  0  0  0  0
  1  5  1  0
  5  6  1  0
  5  7  2  0
  1  2  1  0
  1  3  1  0
  1  4  1  0
  8 12  1  0
 12 15  1  0
  8  9  1  0
  8 10  1  0
  8 11  1  0
 12 13  1  0
 12 14  1  0
 15 16  1  0
 15 17  1  0
 15 18  1  0
M  CHG  1   6  -1
M  END
>  <PDB_ID>  (800) 
pdb1pwx

>  <RESIDUE_NAME>  (800) 
GLU   PRO

>  <FRAG_NAME>  (800) 
ACET   PRPA

>  <FRAG_ATOM_NUM>  (800) 
fragi: 7  fragj: 11

>  <atom.prop.CHAIN_ID>  (800) 
A A A A A A A Z Z Z Z Z Z Z Z Z Z Z

>  <atom.prop.IS_HEAVY_ATOM>  (800) 
1 0 0 0 1 1 1 1 0 0 0 1 0 0 1 0 0 0

>  <DIFUSE_FUNC_ATOM>  (800) 
atom 6   atom 7   

>  <FINAL_SINGLE_POINT_ENERGY>  (800) 
0

>  <NONCOV_INTER_ENERGY_QM>  (800) 
0

>  <FF_Energy>  (800) 
23.52

>  <QM_Energy>  (800) 
1.64

>  <source>  (800) 
ACET_PRPA_07

>  <Index>  (800) 
37964

$$$$
ACET-pdb2whg-A-GLU-43:PRPA-pdb2whg-A-PRO-40
     RDKit          3D

 18 16  0  0  0  0  0  0  0  0999 V2000
    0.0313    1.5281    0.0050 C   0  0  0  0  0  0  0  0  0  0  0  0
   -0.7703    1.8464   -0.4462 H   0  0  0  0  0  0  0  0  0  0  0  0
    0.8613    1.8121   -0.4180 H   0  0  0  0  0  0  0  0  0  0  0  0
    0.0213    1.9288    1.0186 H   0  0  0  0  0  0  0  0  0  0  0  0
    0.0000    0.0000    0.0000 C   0  0  0  0  0  0  0  0  0  0  0  0
   -1.1064   -0.6119   -0.0000 O   0  0  0  0  0  1  0  0  0  0  0  0
    1.1064   -0.5984    0.0000 O   0  0  0  0  0  0  0  0  0  0  0  0
    3.8237   -0.2808    0.9406 C   0  0  0  0  0  0  0  0  0  0  0  0
    3.1957    0.2961    0.4063 H   0  0  0  0  0  0  0  0  0  0  0  0
    4.4770   -0.7109    0.3092 H   0  0  0  0  0  0  0  0  0  0  0  0
    4.3414    0.3049    1.7003 H   0  0  0  0  0  0  0  0  0  0  0  0
    3.0528   -1.3343    1.6992 C   0  0  0  0  0  0  0  0  0  0  0  0
    2.2355   -1.6003    1.1757 H   0  0  0  0  0  0  0  0  0  0  0  0
    3.6283   -2.1500    1.8274 H   0  0  0  0  0  0  0  0  0  0  0  0
    2.6966   -0.7063    2.9916 C   0  0  0  0  0  0  0  0  0  0  0  0
    1.8458   -0.1835    2.9361 H   0  0  0  0  0  0  0  0  0  0  0  0
    2.6235   -1.3780    3.7309 H   0  0  0  0  0  0  0  0  0  0  0  0
    3.5376   -0.0371    3.1733 H   0  0  0  0  0  0  0  0  0  0  0  0
  1  5  1  0
  5  6  1  0
  5  7  2  0
  1  2  1  0
  1  3  1  0
  1  4  1  0
  8 12  1  0
 12 15  1  0
  8  9  1  0
  8 10  1  0
  8 11  1  0
 12 13  1  0
 12 14  1  0
 15 16  1  0
 15 17  1  0
 15 18  1  0
M  CHG  1   6  -1
M  END
>  <PDB_ID>  (801) 
pdb2whg

>  <RESIDUE_NAME>  (801) 
GLU   PRO

>  <FRAG_NAME>  (801) 
ACET   PRPA

>  <FRAG_ATOM_NUM>  (801) 
fragi: 7  fragj: 11

>  <atom.prop.CHAIN_ID>  (801) 
A A A A A A A Z Z Z Z Z Z Z Z Z Z Z

>  <atom.prop.IS_HEAVY_ATOM>  (801) 
1 0 0 0 1 1 1 1 0 0 0 1 0 0 1 0 0 0

>  <DIFUSE_FUNC_ATOM>  (801) 
atom 6   atom 7   

>  <FINAL_SINGLE_POINT_ENERGY>  (801) 
0

>  <NONCOV_INTER_ENERGY_QM>  (801) 
0

>  <FF_Energy>  (801) 
18.96

>  <QM_Energy>  (801) 
-1.41

>  <source>  (801) 
ACET_PRPA_07

>  <Index>  (801) 
38119

$$$$
ACET-pdb1pd5-J-ASP-111:PRPA-pdb1pd5-D-ARG-65
     RDKit          3D

 18 16  0  0  0  0  0  0  0  0999 V2000
    0.0713    1.4877    0.0500 C   0  0  0  0  0  0  0  0  0  0  0  0
    0.9420    1.7841   -0.3495 H   0  0  0  0  0  0  0  0  0  0  0  0
    0.0344    1.7824    1.0068 H   0  0  0  0  0  0  0  0  0  0  0  0
   -0.7372    1.9798   -0.4907 H   0  0  0  0  0  0  0  0  0  0  0  0
    0.0000    0.0000    0.0000 C   0  0  0  0  0  0  0  0  0  0  0  0
   -1.0635   -0.7460   -0.0000 O   0  0  0  0  0  1  0  0  0  0  0  0
    1.0635   -0.6026   -0.0000 O   0  0  0  0  0  0  0  0  0  0  0  0
    2.2383   -4.2445    1.2541 C   0  0  0  0  0  0  0  0  0  0  0  0
    1.8364   -5.1596    1.1561 H   0  0  0  0  0  0  0  0  0  0  0  0
    1.5661   -3.6409    1.6923 H   0  0  0  0  0  0  0  0  0  0  0  0
    3.1063   -4.3214    1.9089 H   0  0  0  0  0  0  0  0  0  0  0  0
    2.4777   -3.6937   -0.1840 C   0  0  0  0  0  0  0  0  0  0  0  0
    3.2474   -3.0824   -0.1706 H   0  0  0  0  0  0  0  0  0  0  0  0
    2.6101   -4.4486   -0.7992 H   0  0  0  0  0  0  0  0  0  0  0  0
    1.2359   -2.8975   -0.6566 C   0  0  0  0  0  0  0  0  0  0  0  0
    0.7297   -2.6792    0.1417 H   0  0  0  0  0  0  0  0  0  0  0  0
    1.5735   -2.1286   -1.1439 H   0  0  0  0  0  0  0  0  0  0  0  0
    0.7156   -3.6056   -1.3015 H   0  0  0  0  0  0  0  0  0  0  0  0
  1  5  1  0
  5  6  1  0
  5  7  2  0
  1  2  1  0
  1  3  1  0
  1  4  1  0
  8 12  1  0
 12 15  1  0
  8  9  1  0
  8 10  1  0
  8 11  1  0
 12 13  1  0
 12 14  1  0
 15 16  1  0
 15 17  1  0
 15 18  1  0
M  CHG  1   6  -1
M  END
>  <PDB_ID>  (802) 
pdb1pd5

>  <RESIDUE_NAME>  (802) 
ASP   ARG

>  <FRAG_NAME>  (802) 
ACET   PRPA

>  <FRAG_ATOM_NUM>  (802) 
fragi: 7  fragj: 11

>  <atom.prop.CHAIN_ID>  (802) 
A A A A A A A Z Z Z Z Z Z Z Z Z Z Z

>  <atom.prop.IS_HEAVY_ATOM>  (802) 
1 0 0 0 1 1 1 1 0 0 0 1 0 0 1 0 0 0

>  <DIFUSE_FUNC_ATOM>  (802) 
atom 6   atom 7   

>  <FINAL_SINGLE_POINT_ENERGY>  (802) 
0

>  <NONCOV_INTER_ENERGY_QM>  (802) 
0

>  <FF_Energy>  (802) 
30.53

>  <QM_Energy>  (802) 
8.36

>  <source>  (802) 
ACET_PRPA_07

>  <Index>  (802) 
38578

$$$$
ACET-pdb1qav-B-GLU-1090:PRPA-pdb1qav-B-LYS-1024
     RDKit          3D

 18 16  0  0  0  0  0  0  0  0999 V2000
    0.0162    1.5128    0.0177 C   0  0  0  0  0  0  0  0  0  0  0  0
   -0.6756    1.8257   -0.6057 H   0  0  0  0  0  0  0  0  0  0  0  0
    0.9172    1.8040   -0.2449 H   0  0  0  0  0  0  0  0  0  0  0  0
   -0.2024    1.9198    1.0050 H   0  0  0  0  0  0  0  0  0  0  0  0
    0.0000    0.0000    0.0000 C   0  0  0  0  0  0  0  0  0  0  0  0
   -1.0984   -0.5930    0.0000 O   0  0  0  0  0  1  0  0  0  0  0  0
    1.0984   -0.5982    0.0000 O   0  0  0  0  0  0  0  0  0  0  0  0
   -2.6744    1.1974   -3.6714 C   0  0  0  0  0  0  0  0  0  0  0  0
   -2.6201    2.1496   -3.4034 H   0  0  0  0  0  0  0  0  0  0  0  0
   -3.2610    0.6473   -2.9356 H   0  0  0  0  0  0  0  0  0  0  0  0
   -3.2144    1.1278   -4.6157 H   0  0  0  0  0  0  0  0  0  0  0  0
   -1.2884    0.5793   -3.8061 C   0  0  0  0  0  0  0  0  0  0  0  0
   -1.1954    0.2122   -4.7348 H   0  0  0  0  0  0  0  0  0  0  0  0
   -0.6069    1.3036   -3.6729 H   0  0  0  0  0  0  0  0  0  0  0  0
   -0.9842   -0.5441   -2.8224 C   0  0  0  0  0  0  0  0  0  0  0  0
   -1.0647   -0.1875   -1.8889 H   0  0  0  0  0  0  0  0  0  0  0  0
   -1.6533   -1.2784   -2.9516 H   0  0  0  0  0  0  0  0  0  0  0  0
    0.0184   -0.9484   -2.9622 H   0  0  0  0  0  0  0  0  0  0  0  0
  1  5  1  0
  5  6  1  0
  5  7  2  0
  1  2  1  0
  1  3  1  0
  1  4  1  0
  8 12  1  0
 12 15  1  0
  8  9  1  0
  8 10  1  0
  8 11  1  0
 12 13  1  0
 12 14  1  0
 15 16  1  0
 15 17  1  0
 15 18  1  0
M  CHG  1   6  -1
M  END
>  <PDB_ID>  (803) 
pdb1qav

>  <RESIDUE_NAME>  (803) 
GLU   LYS

>  <FRAG_NAME>  (803) 
ACET   PRPA

>  <FRAG_ATOM_NUM>  (803) 
fragi: 7  fragj: 11

>  <atom.prop.CHAIN_ID>  (803) 
A A A A A A A Z Z Z Z Z Z Z Z Z Z Z

>  <atom.prop.IS_HEAVY_ATOM>  (803) 
1 0 0 0 1 1 1 1 0 0 0 1 0 0 1 0 0 0

>  <DIFUSE_FUNC_ATOM>  (803) 
atom 6   atom 7   

>  <FINAL_SINGLE_POINT_ENERGY>  (803) 
0

>  <NONCOV_INTER_ENERGY_QM>  (803) 
0

>  <FF_Energy>  (803) 
18.33

>  <QM_Energy>  (803) 
1.87

>  <source>  (803) 
ACET_PRPA_07

>  <Index>  (803) 
38836

$$$$
ACET-pdb1qav-B-GLU-1090:PRPA-pdb1qav-B-LYS-1024
     RDKit          3D

 18 16  0  0  0  0  0  0  0  0999 V2000
    0.0162    1.5128    0.0177 C   0  0  0  0  0  0  0  0  0  0  0  0
   -0.6756    1.8257   -0.6057 H   0  0  0  0  0  0  0  0  0  0  0  0
    0.9172    1.8040   -0.2449 H   0  0  0  0  0  0  0  0  0  0  0  0
   -0.2024    1.9198    1.0050 H   0  0  0  0  0  0  0  0  0  0  0  0
    0.0000    0.0000    0.0000 C   0  0  0  0  0  0  0  0  0  0  0  0
   -1.0984   -0.5930    0.0000 O   0  0  0  0  0  1  0  0  0  0  0  0
    1.0984   -0.5982    0.0000 O   0  0  0  0  0  0  0  0  0  0  0  0
   -1.2884    0.5793   -3.8061 C   0  0  0  0  0  0  0  0  0  0  0  0
   -1.1954    0.2122   -4.7348 H   0  0  0  0  0  0  0  0  0  0  0  0
   -0.6069    1.3036   -3.6729 H   0  0  0  0  0  0  0  0  0  0  0  0
   -2.2799    1.0215   -3.7097 H   0  0  0  0  0  0  0  0  0  0  0  0
   -0.9842   -0.5441   -2.8224 C   0  0  0  0  0  0  0  0  0  0  0  0
   -1.0647   -0.1875   -1.8889 H   0  0  0  0  0  0  0  0  0  0  0  0
   -1.6533   -1.2784   -2.9516 H   0  0  0  0  0  0  0  0  0  0  0  0
    0.4097   -1.1063   -3.0167 C   0  0  0  0  0  0  0  0  0  0  0  0
    0.4866   -1.4588   -3.9520 H   0  0  0  0  0  0  0  0  0  0  0  0
    1.0761   -0.3679   -2.8882 H   0  0  0  0  0  0  0  0  0  0  0  0
    0.6420   -1.9111   -2.3193 H   0  0  0  0  0  0  0  0  0  0  0  0
  1  5  1  0
  5  6  1  0
  5  7  2  0
  1  2  1  0
  1  3  1  0
  1  4  1  0
  8 12  1  0
 12 15  1  0
  8  9  1  0
  8 10  1  0
  8 11  1  0
 12 13  1  0
 12 14  1  0
 15 16  1  0
 15 17  1  0
 15 18  1  0
M  CHG  1   6  -1
M  END
>  <PDB_ID>  (804) 
pdb1qav

>  <RESIDUE_NAME>  (804) 
GLU   LYS

>  <FRAG_NAME>  (804) 
ACET   PRPA

>  <FRAG_ATOM_NUM>  (804) 
fragi: 7  fragj: 11

>  <atom.prop.CHAIN_ID>  (804) 
A A A A A A A Z Z Z Z Z Z Z Z Z Z Z

>  <atom.prop.IS_HEAVY_ATOM>  (804) 
1 0 0 0 1 1 1 1 0 0 0 1 0 0 1 0 0 0

>  <DIFUSE_FUNC_ATOM>  (804) 
atom 6   atom 7   

>  <FINAL_SINGLE_POINT_ENERGY>  (804) 
0

>  <NONCOV_INTER_ENERGY_QM>  (804) 
0

>  <FF_Energy>  (804) 
21.72

>  <QM_Energy>  (804) 
1.23

>  <source>  (804) 
ACET_PRPA_07

>  <Index>  (804) 
38842

$$$$
ACET-pdb2wlw-A-ASP-123:PRPA-pdb2wlw-A-LYS-91
     RDKit          3D

 18 16  0  0  0  0  0  0  0  0999 V2000
   -0.0006    1.5560    0.1384 C   0  0  0  0  0  0  0  0  0  0  0  0
    0.6780    1.9074   -0.4861 H   0  0  0  0  0  0  0  0  0  0  0  0
    0.2227    1.7687    1.0751 H   0  0  0  0  0  0  0  0  0  0  0  0
   -0.9725    1.9839   -0.1073 H   0  0  0  0  0  0  0  0  0  0  0  0
    0.0000    0.0000    0.0000 C   0  0  0  0  0  0  0  0  0  0  0  0
   -1.1259   -0.6299   -0.0000 O   0  0  0  0  0  1  0  0  0  0  0  0
    1.1259   -0.6129    0.0000 O   0  0  0  0  0  0  0  0  0  0  0  0
   -2.7800   -2.3129    3.2701 C   0  0  0  0  0  0  0  0  0  0  0  0
   -3.6725   -2.5706    3.5972 H   0  0  0  0  0  0  0  0  0  0  0  0
   -2.1783   -2.3407    4.1785 H   0  0  0  0  0  0  0  0  0  0  0  0
   -2.3382   -3.0236    2.5717 H   0  0  0  0  0  0  0  0  0  0  0  0
   -2.7658   -0.8884    2.7741 C   0  0  0  0  0  0  0  0  0  0  0  0
   -3.0935   -0.8778    1.8192 H   0  0  0  0  0  0  0  0  0  0  0  0
   -3.4142   -0.3493    3.3305 H   0  0  0  0  0  0  0  0  0  0  0  0
   -1.4208   -0.1794    2.8097 C   0  0  0  0  0  0  0  0  0  0  0  0
   -0.7447   -0.7898    3.2384 H   0  0  0  0  0  0  0  0  0  0  0  0
   -1.1277    0.0087    1.8664 H   0  0  0  0  0  0  0  0  0  0  0  0
   -1.4542    0.7581    3.3648 H   0  0  0  0  0  0  0  0  0  0  0  0
  1  5  1  0
  5  6  1  0
  5  7  2  0
  1  2  1  0
  1  3  1  0
  1  4  1  0
  8 12  1  0
 12 15  1  0
  8  9  1  0
  8 10  1  0
  8 11  1  0
 12 13  1  0
 12 14  1  0
 15 16  1  0
 15 17  1  0
 15 18  1  0
M  CHG  1   6  -1
M  END
>  <PDB_ID>  (805) 
pdb2wlw

>  <RESIDUE_NAME>  (805) 
ASP   LYS

>  <FRAG_NAME>  (805) 
ACET   PRPA

>  <FRAG_ATOM_NUM>  (805) 
fragi: 7  fragj: 11

>  <atom.prop.CHAIN_ID>  (805) 
A A A A A A A Z Z Z Z Z Z Z Z Z Z Z

>  <atom.prop.IS_HEAVY_ATOM>  (805) 
1 0 0 0 1 1 1 1 0 0 0 1 0 0 1 0 0 0

>  <DIFUSE_FUNC_ATOM>  (805) 
atom 6   atom 7   

>  <FINAL_SINGLE_POINT_ENERGY>  (805) 
0

>  <NONCOV_INTER_ENERGY_QM>  (805) 
0

>  <FF_Energy>  (805) 
16.53

>  <QM_Energy>  (805) 
-0.49

>  <source>  (805) 
ACET_PRPA_07

>  <Index>  (805) 
39608

$$$$
ACET-pdb2wlw-A-ASP-123:PRPA-pdb2wlw-A-LYS-91
     RDKit          3D

 18 16  0  0  0  0  0  0  0  0999 V2000
   -0.0006    1.5560    0.1384 C   0  0  0  0  0  0  0  0  0  0  0  0
    0.6780    1.9074   -0.4861 H   0  0  0  0  0  0  0  0  0  0  0  0
    0.2227    1.7687    1.0751 H   0  0  0  0  0  0  0  0  0  0  0  0
   -0.9725    1.9839   -0.1073 H   0  0  0  0  0  0  0  0  0  0  0  0
    0.0000    0.0000    0.0000 C   0  0  0  0  0  0  0  0  0  0  0  0
   -1.1259   -0.6299   -0.0000 O   0  0  0  0  0  1  0  0  0  0  0  0
    1.1259   -0.6129    0.0000 O   0  0  0  0  0  0  0  0  0  0  0  0
   -2.7658   -0.8884    2.7741 C   0  0  0  0  0  0  0  0  0  0  0  0
   -3.0935   -0.8778    1.8192 H   0  0  0  0  0  0  0  0  0  0  0  0
   -3.4142   -0.3493    3.3305 H   0  0  0  0  0  0  0  0  0  0  0  0
   -2.7760   -1.9177    3.1325 H   0  0  0  0  0  0  0  0  0  0  0  0
   -1.4208   -0.1794    2.8097 C   0  0  0  0  0  0  0  0  0  0  0  0
   -0.7447   -0.7898    3.2384 H   0  0  0  0  0  0  0  0  0  0  0  0
   -1.1277    0.0087    1.8664 H   0  0  0  0  0  0  0  0  0  0  0  0
   -1.4671    1.1206    3.5796 C   0  0  0  0  0  0  0  0  0  0  0  0
   -2.1441    1.7255    3.1493 H   0  0  0  0  0  0  0  0  0  0  0  0
   -1.7592    0.9286    4.5214 H   0  0  0  0  0  0  0  0  0  0  0  0
   -0.5072    1.6361    3.6107 H   0  0  0  0  0  0  0  0  0  0  0  0
  1  5  1  0
  5  6  1  0
  5  7  2  0
  1  2  1  0
  1  3  1  0
  1  4  1  0
  8 12  1  0
 12 15  1  0
  8  9  1  0
  8 10  1  0
  8 11  1  0
 12 13  1  0
 12 14  1  0
 15 16  1  0
 15 17  1  0
 15 18  1  0
M  CHG  1   6  -1
M  END
>  <PDB_ID>  (806) 
pdb2wlw

>  <RESIDUE_NAME>  (806) 
ASP   LYS

>  <FRAG_NAME>  (806) 
ACET   PRPA

>  <FRAG_ATOM_NUM>  (806) 
fragi: 7  fragj: 11

>  <atom.prop.CHAIN_ID>  (806) 
A A A A A A A Z Z Z Z Z Z Z Z Z Z Z

>  <atom.prop.IS_HEAVY_ATOM>  (806) 
1 0 0 0 1 1 1 1 0 0 0 1 0 0 1 0 0 0

>  <DIFUSE_FUNC_ATOM>  (806) 
atom 6   atom 7   

>  <FINAL_SINGLE_POINT_ENERGY>  (806) 
0

>  <NONCOV_INTER_ENERGY_QM>  (806) 
0

>  <FF_Energy>  (806) 
18.0

>  <QM_Energy>  (806) 
-0.42

>  <source>  (806) 
ACET_PRPA_07

>  <Index>  (806) 
39613

$$$$
ACET-pdb2wlw-A-ASP-123:PRPA-pdb2wlw-A-LYS-91
     RDKit          3D

 18 16  0  0  0  0  0  0  0  0999 V2000
   -0.0006    1.5560    0.1384 C   0  0  0  0  0  0  0  0  0  0  0  0
    0.6780    1.9074   -0.4861 H   0  0  0  0  0  0  0  0  0  0  0  0
    0.2227    1.7687    1.0751 H   0  0  0  0  0  0  0  0  0  0  0  0
   -0.9725    1.9839   -0.1073 H   0  0  0  0  0  0  0  0  0  0  0  0
    0.0000    0.0000    0.0000 C   0  0  0  0  0  0  0  0  0  0  0  0
   -1.1259   -0.6299   -0.0000 O   0  0  0  0  0  1  0  0  0  0  0  0
    1.1259   -0.6129    0.0000 O   0  0  0  0  0  0  0  0  0  0  0  0
   -1.4208   -0.1794    2.8097 C   0  0  0  0  0  0  0  0  0  0  0  0
   -0.7447   -0.7898    3.2384 H   0  0  0  0  0  0  0  0  0  0  0  0
   -1.1277    0.0087    1.8664 H   0  0  0  0  0  0  0  0  0  0  0  0
   -2.3848   -0.6876    2.7842 H   0  0  0  0  0  0  0  0  0  0  0  0
   -1.4671    1.1206    3.5796 C   0  0  0  0  0  0  0  0  0  0  0  0
   -2.1441    1.7255    3.1493 H   0  0  0  0  0  0  0  0  0  0  0  0
   -1.7592    0.9286    4.5214 H   0  0  0  0  0  0  0  0  0  0  0  0
   -0.1413    1.8325    3.6224 C   0  0  0  0  0  0  0  0  0  0  0  0
    0.5391    1.2381    4.0574 H   0  0  0  0  0  0  0  0  0  0  0  0
    0.1550    2.0360    2.6859 H   0  0  0  0  0  0  0  0  0  0  0  0
   -0.2136    2.7638    4.1841 H   0  0  0  0  0  0  0  0  0  0  0  0
  1  5  1  0
  5  6  1  0
  5  7  2  0
  1  2  1  0
  1  3  1  0
  1  4  1  0
  8 12  1  0
 12 15  1  0
  8  9  1  0
  8 10  1  0
  8 11  1  0
 12 13  1  0
 12 14  1  0
 15 16  1  0
 15 17  1  0
 15 18  1  0
M  CHG  1   6  -1
M  END
>  <PDB_ID>  (807) 
pdb2wlw

>  <RESIDUE_NAME>  (807) 
ASP   LYS

>  <FRAG_NAME>  (807) 
ACET   PRPA

>  <FRAG_ATOM_NUM>  (807) 
fragi: 7  fragj: 11

>  <atom.prop.CHAIN_ID>  (807) 
A A A A A A A Z Z Z Z Z Z Z Z Z Z Z

>  <atom.prop.IS_HEAVY_ATOM>  (807) 
1 0 0 0 1 1 1 1 0 0 0 1 0 0 1 0 0 0

>  <DIFUSE_FUNC_ATOM>  (807) 
atom 6   atom 7   

>  <FINAL_SINGLE_POINT_ENERGY>  (807) 
0

>  <NONCOV_INTER_ENERGY_QM>  (807) 
0

>  <FF_Energy>  (807) 
24.96

>  <QM_Energy>  (807) 
4.24

>  <source>  (807) 
ACET_PRPA_07

>  <Index>  (807) 
39616

$$$$
ACET-pdb2vvf-D-GLU-160:PRPA-pdb2vvf-D-ARG-243
     RDKit          3D

 18 16  0  0  0  0  0  0  0  0999 V2000
    0.0006    1.5165    0.0063 C   0  0  0  0  0  0  0  0  0  0  0  0
    0.0639    1.8178   -0.9260 H   0  0  0  0  0  0  0  0  0  0  0  0
    0.7643    1.8104    0.5488 H   0  0  0  0  0  0  0  0  0  0  0  0
   -0.9090    1.9324    0.4395 H   0  0  0  0  0  0  0  0  0  0  0  0
    0.0000    0.0000    0.0000 C   0  0  0  0  0  0  0  0  0  0  0  0
   -1.0972   -0.5953   -0.0000 O   0  0  0  0  0  1  0  0  0  0  0  0
    1.0972   -0.5959   -0.0000 O   0  0  0  0  0  0  0  0  0  0  0  0
   -5.0033   -0.4910   -3.3323 C   0  0  0  0  0  0  0  0  0  0  0  0
   -5.5156   -1.0488   -2.6788 H   0  0  0  0  0  0  0  0  0  0  0  0
   -4.7203   -1.0607   -4.1042 H   0  0  0  0  0  0  0  0  0  0  0  0
   -5.6689    0.2852   -3.7099 H   0  0  0  0  0  0  0  0  0  0  0  0
   -3.7566    0.0183   -2.6419 C   0  0  0  0  0  0  0  0  0  0  0  0
   -3.1278    0.3855   -3.3156 H   0  0  0  0  0  0  0  0  0  0  0  0
   -4.0022    0.7125   -1.9768 H   0  0  0  0  0  0  0  0  0  0  0  0
   -3.0625   -1.1144   -1.9101 C   0  0  0  0  0  0  0  0  0  0  0  0
   -2.5254   -1.6297   -2.5713 H   0  0  0  0  0  0  0  0  0  0  0  0
   -2.4671   -0.7172   -1.2173 H   0  0  0  0  0  0  0  0  0  0  0  0
   -3.7788   -1.7813   -1.4305 H   0  0  0  0  0  0  0  0  0  0  0  0
  1  5  1  0
  5  6  1  0
  5  7  2  0
  1  2  1  0
  1  3  1  0
  1  4  1  0
  8 12  1  0
 12 15  1  0
  8  9  1  0
  8 10  1  0
  8 11  1  0
 12 13  1  0
 12 14  1  0
 15 16  1  0
 15 17  1  0
 15 18  1  0
M  CHG  1   6  -1
M  END
>  <PDB_ID>  (808) 
pdb2vvf

>  <RESIDUE_NAME>  (808) 
GLU   ARG

>  <FRAG_NAME>  (808) 
ACET   PRPA

>  <FRAG_ATOM_NUM>  (808) 
fragi: 7  fragj: 11

>  <atom.prop.CHAIN_ID>  (808) 
A A A A A A A Z Z Z Z Z Z Z Z Z Z Z

>  <atom.prop.IS_HEAVY_ATOM>  (808) 
1 0 0 0 1 1 1 1 0 0 0 1 0 0 1 0 0 0

>  <DIFUSE_FUNC_ATOM>  (808) 
atom 6   atom 7   

>  <FINAL_SINGLE_POINT_ENERGY>  (808) 
0

>  <NONCOV_INTER_ENERGY_QM>  (808) 
0

>  <FF_Energy>  (808) 
20.92

>  <QM_Energy>  (808) 
0.14

>  <source>  (808) 
ACET_PRPA_07

>  <Index>  (808) 
39918

$$$$
ACET-pdb2wlt-B-GLU-33:PRPA-pdb2wlt-B-LYS-30
     RDKit          3D

 18 16  0  0  0  0  0  0  0  0999 V2000
    0.1728    1.4780    0.0127 C   0  0  0  0  0  0  0  0  0  0  0  0
    0.6951    1.7339   -0.8050 H   0  0  0  0  0  0  0  0  0  0  0  0
    0.7071    1.7176    0.8270 H   0  0  0  0  0  0  0  0  0  0  0  0
   -0.7363    2.0794    0.0234 H   0  0  0  0  0  0  0  0  0  0  0  0
    0.0000    0.0000    0.0000 C   0  0  0  0  0  0  0  0  0  0  0  0
   -1.0895   -0.5623   -0.0000 O   0  0  0  0  0  1  0  0  0  0  0  0
    1.0895   -0.6109    0.0000 O   0  0  0  0  0  0  0  0  0  0  0  0
    2.9254   -0.5754    2.1401 C   0  0  0  0  0  0  0  0  0  0  0  0
    3.7723   -0.7580    2.6266 H   0  0  0  0  0  0  0  0  0  0  0  0
    2.3025   -1.4697    2.1456 H   0  0  0  0  0  0  0  0  0  0  0  0
    2.3846    0.2074    2.6719 H   0  0  0  0  0  0  0  0  0  0  0  0
    3.3149   -0.0289    0.7763 C   0  0  0  0  0  0  0  0  0  0  0  0
    2.6166    0.6728    0.5123 H   0  0  0  0  0  0  0  0  0  0  0  0
    4.1934    0.4873    0.8884 H   0  0  0  0  0  0  0  0  0  0  0  0
    3.4808   -0.9755   -0.3885 C   0  0  0  0  0  0  0  0  0  0  0  0
    4.4513   -1.1877   -0.5101 H   0  0  0  0  0  0  0  0  0  0  0  0
    2.9774   -1.8210   -0.2067 H   0  0  0  0  0  0  0  0  0  0  0  0
    3.1043   -0.5424   -1.3152 H   0  0  0  0  0  0  0  0  0  0  0  0
  1  5  1  0
  5  6  1  0
  5  7  2  0
  1  2  1  0
  1  3  1  0
  1  4  1  0
  8 12  1  0
 12 15  1  0
  8  9  1  0
  8 10  1  0
  8 11  1  0
 12 13  1  0
 12 14  1  0
 15 16  1  0
 15 17  1  0
 15 18  1  0
M  CHG  1   6  -1
M  END
>  <PDB_ID>  (809) 
pdb2wlt

>  <RESIDUE_NAME>  (809) 
GLU   LYS

>  <FRAG_NAME>  (809) 
ACET   PRPA

>  <FRAG_ATOM_NUM>  (809) 
fragi: 7  fragj: 11

>  <atom.prop.CHAIN_ID>  (809) 
A A A A A A A Z Z Z Z Z Z Z Z Z Z Z

>  <atom.prop.IS_HEAVY_ATOM>  (809) 
1 0 0 0 1 1 1 1 0 0 0 1 0 0 1 0 0 0

>  <DIFUSE_FUNC_ATOM>  (809) 
atom 6   atom 7   

>  <FINAL_SINGLE_POINT_ENERGY>  (809) 
0

>  <NONCOV_INTER_ENERGY_QM>  (809) 
0

>  <FF_Energy>  (809) 
37.55

>  <QM_Energy>  (809) 
7.8

>  <source>  (809) 
ACET_PRPA_08

>  <Index>  (809) 
12

$$$$
ACET-pdb2wlt-B-GLU-33:PRPA-pdb2wlt-B-LYS-30
     RDKit          3D

 18 16  0  0  0  0  0  0  0  0999 V2000
    0.1728    1.4780    0.0127 C   0  0  0  0  0  0  0  0  0  0  0  0
    0.6951    1.7339   -0.8050 H   0  0  0  0  0  0  0  0  0  0  0  0
    0.7071    1.7176    0.8270 H   0  0  0  0  0  0  0  0  0  0  0  0
   -0.7363    2.0794    0.0234 H   0  0  0  0  0  0  0  0  0  0  0  0
    0.0000    0.0000    0.0000 C   0  0  0  0  0  0  0  0  0  0  0  0
   -1.0895   -0.5623   -0.0000 O   0  0  0  0  0  1  0  0  0  0  0  0
    1.0895   -0.6109    0.0000 O   0  0  0  0  0  0  0  0  0  0  0  0
    3.3149   -0.0289    0.7763 C   0  0  0  0  0  0  0  0  0  0  0  0
    2.6166    0.6728    0.5123 H   0  0  0  0  0  0  0  0  0  0  0  0
    4.1934    0.4873    0.8884 H   0  0  0  0  0  0  0  0  0  0  0  0
    3.0356   -0.4208    1.7544 H   0  0  0  0  0  0  0  0  0  0  0  0
    3.4808   -0.9755   -0.3885 C   0  0  0  0  0  0  0  0  0  0  0  0
    4.4513   -1.1877   -0.5101 H   0  0  0  0  0  0  0  0  0  0  0  0
    2.9774   -1.8210   -0.2067 H   0  0  0  0  0  0  0  0  0  0  0  0
    2.9524   -0.3676   -1.6893 C   0  0  0  0  0  0  0  0  0  0  0  0
    2.1849   -0.9250   -2.0096 H   0  0  0  0  0  0  0  0  0  0  0  0
    2.6333    0.5605   -1.4986 H   0  0  0  0  0  0  0  0  0  0  0  0
    3.7077   -0.3248   -2.4740 H   0  0  0  0  0  0  0  0  0  0  0  0
  1  5  1  0
  5  6  1  0
  5  7  2  0
  1  2  1  0
  1  3  1  0
  1  4  1  0
  8 12  1  0
 12 15  1  0
  8  9  1  0
  8 10  1  0
  8 11  1  0
 12 13  1  0
 12 14  1  0
 15 16  1  0
 15 17  1  0
 15 18  1  0
M  CHG  1   6  -1
M  END
>  <PDB_ID>  (810) 
pdb2wlt

>  <RESIDUE_NAME>  (810) 
GLU   LYS

>  <FRAG_NAME>  (810) 
ACET   PRPA

>  <FRAG_ATOM_NUM>  (810) 
fragi: 7  fragj: 11

>  <atom.prop.CHAIN_ID>  (810) 
A A A A A A A Z Z Z Z Z Z Z Z Z Z Z

>  <atom.prop.IS_HEAVY_ATOM>  (810) 
1 0 0 0 1 1 1 1 0 0 0 1 0 0 1 0 0 0

>  <DIFUSE_FUNC_ATOM>  (810) 
atom 6   atom 7   

>  <FINAL_SINGLE_POINT_ENERGY>  (810) 
0

>  <NONCOV_INTER_ENERGY_QM>  (810) 
0

>  <FF_Energy>  (810) 
45.54

>  <QM_Energy>  (810) 
8.42

>  <source>  (810) 
ACET_PRPA_08

>  <Index>  (810) 
28

$$$$
ACET-pdb2wlt-B-GLU-33:PRPA-pdb2wlt-B-LYS-30
     RDKit          3D

 18 16  0  0  0  0  0  0  0  0999 V2000
    0.1728    1.4780    0.0127 C   0  0  0  0  0  0  0  0  0  0  0  0
    0.6951    1.7339   -0.8050 H   0  0  0  0  0  0  0  0  0  0  0  0
    0.7071    1.7176    0.8270 H   0  0  0  0  0  0  0  0  0  0  0  0
   -0.7363    2.0794    0.0234 H   0  0  0  0  0  0  0  0  0  0  0  0
    0.0000    0.0000    0.0000 C   0  0  0  0  0  0  0  0  0  0  0  0
   -1.0895   -0.5623   -0.0000 O   0  0  0  0  0  1  0  0  0  0  0  0
    1.0895   -0.6109    0.0000 O   0  0  0  0  0  0  0  0  0  0  0  0
    3.4808   -0.9755   -0.3885 C   0  0  0  0  0  0  0  0  0  0  0  0
    4.4513   -1.1877   -0.5101 H   0  0  0  0  0  0  0  0  0  0  0  0
    2.9774   -1.8210   -0.2067 H   0  0  0  0  0  0  0  0  0  0  0  0
    3.3611   -0.2923    0.4523 H   0  0  0  0  0  0  0  0  0  0  0  0
    2.9524   -0.3676   -1.6893 C   0  0  0  0  0  0  0  0  0  0  0  0
    2.1849   -0.9250   -2.0096 H   0  0  0  0  0  0  0  0  0  0  0  0
    2.6333    0.5605   -1.4986 H   0  0  0  0  0  0  0  0  0  0  0  0
    4.0009   -0.3083   -2.7787 C   0  0  0  0  0  0  0  0  0  0  0  0
    4.8651    0.0421   -2.3848 H   0  0  0  0  0  0  0  0  0  0  0  0
    4.1777   -1.2454   -3.1164 H   0  0  0  0  0  0  0  0  0  0  0  0
    3.7212    0.3209   -3.6236 H   0  0  0  0  0  0  0  0  0  0  0  0
  1  5  1  0
  5  6  1  0
  5  7  2  0
  1  2  1  0
  1  3  1  0
  1  4  1  0
  8 12  1  0
 12 15  1  0
  8  9  1  0
  8 10  1  0
  8 11  1  0
 12 13  1  0
 12 14  1  0
 15 16  1  0
 15 17  1  0
 15 18  1  0
M  CHG  1   6  -1
M  END
>  <PDB_ID>  (811) 
pdb2wlt

>  <RESIDUE_NAME>  (811) 
GLU   LYS

>  <FRAG_NAME>  (811) 
ACET   PRPA

>  <FRAG_ATOM_NUM>  (811) 
fragi: 7  fragj: 11

>  <atom.prop.CHAIN_ID>  (811) 
A A A A A A A Z Z Z Z Z Z Z Z Z Z Z

>  <atom.prop.IS_HEAVY_ATOM>  (811) 
1 0 0 0 1 1 1 1 0 0 0 1 0 0 1 0 0 0

>  <DIFUSE_FUNC_ATOM>  (811) 
atom 6   atom 7   

>  <FINAL_SINGLE_POINT_ENERGY>  (811) 
0

>  <NONCOV_INTER_ENERGY_QM>  (811) 
0

>  <FF_Energy>  (811) 
24.03

>  <QM_Energy>  (811) 
4.21

>  <source>  (811) 
ACET_PRPA_08

>  <Index>  (811) 
42

$$$$
ACET-pdb2w01-F-GLU-517:PRPA-pdb2w01-F-VAL-478
     RDKit          3D

 18 16  0  0  0  0  0  0  0  0999 V2000
   -0.0382    1.5178    0.0100 C   0  0  0  0  0  0  0  0  0  0  0  0
   -0.8549    1.7936   -0.4571 H   0  0  0  0  0  0  0  0  0  0  0  0
    0.7768    1.8338   -0.4359 H   0  0  0  0  0  0  0  0  0  0  0  0
   -0.0625    1.9185    1.0233 H   0  0  0  0  0  0  0  0  0  0  0  0
    0.0000    0.0000    0.0000 C   0  0  0  0  0  0  0  0  0  0  0  0
   -1.1032   -0.5929    0.0000 O   0  0  0  0  0  1  0  0  0  0  0  0
    1.1032   -0.6022    0.0000 O   0  0  0  0  0  0  0  0  0  0  0  0
   -3.2585   -3.1652    1.8548 C   0  0  0  0  0  0  0  0  0  0  0  0
   -2.6001   -3.4773    1.1479 H   0  0  0  0  0  0  0  0  0  0  0  0
   -4.2235   -3.6217    1.6343 H   0  0  0  0  0  0  0  0  0  0  0  0
   -2.8506   -3.4377    2.8281 H   0  0  0  0  0  0  0  0  0  0  0  0
   -3.1830   -1.6191    1.5460 C   0  0  0  0  0  0  0  0  0  0  0  0
   -2.3624   -1.4744    1.0026 H   0  0  0  0  0  0  0  0  0  0  0  0
   -3.0237   -1.0078    2.4342 H   0  0  0  0  0  0  0  0  0  0  0  0
   -4.3741   -1.1595    0.7100 C   0  0  0  0  0  0  0  0  0  0  0  0
   -4.3782   -0.1616    0.6583 H   0  0  0  0  0  0  0  0  0  0  0  0
   -4.3008   -1.5412   -0.2101 H   0  0  0  0  0  0  0  0  0  0  0  0
   -5.2203   -1.4751    1.1363 H   0  0  0  0  0  0  0  0  0  0  0  0
  1  5  1  0
  5  6  1  0
  5  7  2  0
  1  2  1  0
  1  3  1  0
  1  4  1  0
  8 12  1  0
 12 15  1  0
  8  9  1  0
  8 10  1  0
  8 11  1  0
 12 13  1  0
 12 14  1  0
 15 16  1  0
 15 17  1  0
 15 18  1  0
M  CHG  1   6  -1
M  END
>  <PDB_ID>  (812) 
pdb2w01

>  <RESIDUE_NAME>  (812) 
GLU   VAL

>  <FRAG_NAME>  (812) 
ACET   PRPA

>  <FRAG_ATOM_NUM>  (812) 
fragi: 7  fragj: 11

>  <atom.prop.CHAIN_ID>  (812) 
A A A A A A A Z Z Z Z Z Z Z Z Z Z Z

>  <atom.prop.IS_HEAVY_ATOM>  (812) 
1 0 0 0 1 1 1 1 0 0 0 1 0 0 1 0 0 0

>  <DIFUSE_FUNC_ATOM>  (812) 
atom 6   atom 7   

>  <FINAL_SINGLE_POINT_ENERGY>  (812) 
0

>  <NONCOV_INTER_ENERGY_QM>  (812) 
0

>  <FF_Energy>  (812) 
24.42

>  <QM_Energy>  (812) 
-1.78

>  <source>  (812) 
ACET_PRPA_08

>  <Index>  (812) 
99

$$$$
ACET-pdb2w01-F-GLU-517:PRPA-pdb2w01-F-VAL-478
     RDKit          3D

 18 16  0  0  0  0  0  0  0  0999 V2000
   -0.0382    1.5178    0.0100 C   0  0  0  0  0  0  0  0  0  0  0  0
   -0.8549    1.7936   -0.4571 H   0  0  0  0  0  0  0  0  0  0  0  0
    0.7768    1.8338   -0.4359 H   0  0  0  0  0  0  0  0  0  0  0  0
   -0.0625    1.9185    1.0233 H   0  0  0  0  0  0  0  0  0  0  0  0
    0.0000    0.0000    0.0000 C   0  0  0  0  0  0  0  0  0  0  0  0
   -1.1032   -0.5929    0.0000 O   0  0  0  0  0  1  0  0  0  0  0  0
    1.1032   -0.6022    0.0000 O   0  0  0  0  0  0  0  0  0  0  0  0
   -3.2585   -3.1652    1.8548 C   0  0  0  0  0  0  0  0  0  0  0  0
   -2.6001   -3.4773    1.1479 H   0  0  0  0  0  0  0  0  0  0  0  0
   -4.2235   -3.6217    1.6343 H   0  0  0  0  0  0  0  0  0  0  0  0
   -2.8506   -3.4377    2.8281 H   0  0  0  0  0  0  0  0  0  0  0  0
   -3.1830   -1.6191    1.5460 C   0  0  0  0  0  0  0  0  0  0  0  0
   -2.3624   -1.4744    1.0026 H   0  0  0  0  0  0  0  0  0  0  0  0
   -4.0337   -1.2908    0.9488 H   0  0  0  0  0  0  0  0  0  0  0  0
   -2.9599   -0.7629    2.7902 C   0  0  0  0  0  0  0  0  0  0  0  0
   -2.0121   -0.8617    3.0898 H   0  0  0  0  0  0  0  0  0  0  0  0
   -3.1464    0.1926    2.5673 H   0  0  0  0  0  0  0  0  0  0  0  0
   -3.5770   -1.0685    3.5139 H   0  0  0  0  0  0  0  0  0  0  0  0
  1  5  1  0
  5  6  1  0
  5  7  2  0
  1  2  1  0
  1  3  1  0
  1  4  1  0
  8 12  1  0
 12 15  1  0
  8  9  1  0
  8 10  1  0
  8 11  1  0
 12 13  1  0
 12 14  1  0
 15 16  1  0
 15 17  1  0
 15 18  1  0
M  CHG  1   6  -1
M  END
>  <PDB_ID>  (813) 
pdb2w01

>  <RESIDUE_NAME>  (813) 
GLU   VAL

>  <FRAG_NAME>  (813) 
ACET   PRPA

>  <FRAG_ATOM_NUM>  (813) 
fragi: 7  fragj: 11

>  <atom.prop.CHAIN_ID>  (813) 
A A A A A A A Z Z Z Z Z Z Z Z Z Z Z

>  <atom.prop.IS_HEAVY_ATOM>  (813) 
1 0 0 0 1 1 1 1 0 0 0 1 0 0 1 0 0 0

>  <DIFUSE_FUNC_ATOM>  (813) 
atom 6   atom 7   

>  <FINAL_SINGLE_POINT_ENERGY>  (813) 
0

>  <NONCOV_INTER_ENERGY_QM>  (813) 
0

>  <FF_Energy>  (813) 
24.36

>  <QM_Energy>  (813) 
-2.01

>  <source>  (813) 
ACET_PRPA_08

>  <Index>  (813) 
102

$$$$
ACET-pdb2w01-F-GLU-517:PRPA-pdb2w01-F-VAL-478
     RDKit          3D

 18 16  0  0  0  0  0  0  0  0999 V2000
   -0.0382    1.5178    0.0100 C   0  0  0  0  0  0  0  0  0  0  0  0
   -0.8549    1.7936   -0.4571 H   0  0  0  0  0  0  0  0  0  0  0  0
    0.7768    1.8338   -0.4359 H   0  0  0  0  0  0  0  0  0  0  0  0
   -0.0625    1.9185    1.0233 H   0  0  0  0  0  0  0  0  0  0  0  0
    0.0000    0.0000    0.0000 C   0  0  0  0  0  0  0  0  0  0  0  0
   -1.1032   -0.5929    0.0000 O   0  0  0  0  0  1  0  0  0  0  0  0
    1.1032   -0.6022    0.0000 O   0  0  0  0  0  0  0  0  0  0  0  0
   -4.3741   -1.1595    0.7100 C   0  0  0  0  0  0  0  0  0  0  0  0
   -4.3782   -0.1616    0.6583 H   0  0  0  0  0  0  0  0  0  0  0  0
   -4.3008   -1.5412   -0.2101 H   0  0  0  0  0  0  0  0  0  0  0  0
   -5.2203   -1.4751    1.1363 H   0  0  0  0  0  0  0  0  0  0  0  0
   -3.1830   -1.6191    1.5460 C   0  0  0  0  0  0  0  0  0  0  0  0
   -2.3624   -1.4744    1.0026 H   0  0  0  0  0  0  0  0  0  0  0  0
   -3.2351   -2.6867    1.7592 H   0  0  0  0  0  0  0  0  0  0  0  0
   -2.9599   -0.7629    2.7902 C   0  0  0  0  0  0  0  0  0  0  0  0
   -2.0121   -0.8617    3.0898 H   0  0  0  0  0  0  0  0  0  0  0  0
   -3.1464    0.1926    2.5673 H   0  0  0  0  0  0  0  0  0  0  0  0
   -3.5770   -1.0685    3.5139 H   0  0  0  0  0  0  0  0  0  0  0  0
  1  5  1  0
  5  6  1  0
  5  7  2  0
  1  2  1  0
  1  3  1  0
  1  4  1  0
  8 12  1  0
 12 15  1  0
  8  9  1  0
  8 10  1  0
  8 11  1  0
 12 13  1  0
 12 14  1  0
 15 16  1  0
 15 17  1  0
 15 18  1  0
M  CHG  1   6  -1
M  END
>  <PDB_ID>  (814) 
pdb2w01

>  <RESIDUE_NAME>  (814) 
GLU   VAL

>  <FRAG_NAME>  (814) 
ACET   PRPA

>  <FRAG_ATOM_NUM>  (814) 
fragi: 7  fragj: 11

>  <atom.prop.CHAIN_ID>  (814) 
A A A A A A A Z Z Z Z Z Z Z Z Z Z Z

>  <atom.prop.IS_HEAVY_ATOM>  (814) 
1 0 0 0 1 1 1 1 0 0 0 1 0 0 1 0 0 0

>  <DIFUSE_FUNC_ATOM>  (814) 
atom 6   atom 7   

>  <FINAL_SINGLE_POINT_ENERGY>  (814) 
0

>  <NONCOV_INTER_ENERGY_QM>  (814) 
0

>  <FF_Energy>  (814) 
25.09

>  <QM_Energy>  (814) 
-1.57

>  <source>  (814) 
ACET_PRPA_08

>  <Index>  (814) 
106

$$$$
ACET-pdb2wia-A-GLU-236:PRPA-pdb2wia-A-PRO-180
     RDKit          3D

 18 16  0  0  0  0  0  0  0  0999 V2000
    0.1880    1.4941    0.0139 C   0  0  0  0  0  0  0  0  0  0  0  0
    0.7001    1.7434   -0.8037 H   0  0  0  0  0  0  0  0  0  0  0  0
    0.7125    1.7263    0.8277 H   0  0  0  0  0  0  0  0  0  0  0  0
   -0.7241    2.0908    0.0256 H   0  0  0  0  0  0  0  0  0  0  0  0
    0.0000    0.0000    0.0000 C   0  0  0  0  0  0  0  0  0  0  0  0
   -1.0890   -0.5488   -0.0000 O   0  0  0  0  0  1  0  0  0  0  0  0
    1.0890   -0.6092   -0.0000 O   0  0  0  0  0  0  0  0  0  0  0  0
    3.6646    4.0041    1.1269 C   0  0  0  0  0  0  0  0  0  0  0  0
    3.4069    4.1742    0.1581 H   0  0  0  0  0  0  0  0  0  0  0  0
    4.4699    3.2711    1.1749 H   0  0  0  0  0  0  0  0  0  0  0  0
    3.9152    4.9322    1.6406 H   0  0  0  0  0  0  0  0  0  0  0  0
    2.4881    3.3274    1.8637 C   0  0  0  0  0  0  0  0  0  0  0  0
    2.5903    3.4234    2.8403 H   0  0  0  0  0  0  0  0  0  0  0  0
    1.6273    3.6903    1.5484 H   0  0  0  0  0  0  0  0  0  0  0  0
    2.6706    1.9046    1.4345 C   0  0  0  0  0  0  0  0  0  0  0  0
    2.2084    1.2814    2.0671 H   0  0  0  0  0  0  0  0  0  0  0  0
    2.3098    1.7650    0.5108 H   0  0  0  0  0  0  0  0  0  0  0  0
    3.7480    1.7402    1.4536 H   0  0  0  0  0  0  0  0  0  0  0  0
  1  5  1  0
  5  6  1  0
  5  7  2  0
  1  2  1  0
  1  3  1  0
  1  4  1  0
  8 12  1  0
 12 15  1  0
  8  9  1  0
  8 10  1  0
  8 11  1  0
 12 13  1  0
 12 14  1  0
 15 16  1  0
 15 17  1  0
 15 18  1  0
M  CHG  1   6  -1
M  END
>  <PDB_ID>  (815) 
pdb2wia

>  <RESIDUE_NAME>  (815) 
GLU   PRO

>  <FRAG_NAME>  (815) 
ACET   PRPA

>  <FRAG_ATOM_NUM>  (815) 
fragi: 7  fragj: 11

>  <atom.prop.CHAIN_ID>  (815) 
A A A A A A A Z Z Z Z Z Z Z Z Z Z Z

>  <atom.prop.IS_HEAVY_ATOM>  (815) 
1 0 0 0 1 1 1 1 0 0 0 1 0 0 1 0 0 0

>  <DIFUSE_FUNC_ATOM>  (815) 
atom 6   atom 7   

>  <FINAL_SINGLE_POINT_ENERGY>  (815) 
0

>  <NONCOV_INTER_ENERGY_QM>  (815) 
0

>  <FF_Energy>  (815) 
34.13

>  <QM_Energy>  (815) 
6.66

>  <source>  (815) 
ACET_PRPA_08

>  <Index>  (815) 
929

$$$$
ACET-pdb2wia-A-GLU-236:PRPA-pdb2wia-A-PRO-180
     RDKit          3D

 18 16  0  0  0  0  0  0  0  0999 V2000
    0.1880    1.4941    0.0139 C   0  0  0  0  0  0  0  0  0  0  0  0
    0.7001    1.7434   -0.8037 H   0  0  0  0  0  0  0  0  0  0  0  0
    0.7125    1.7263    0.8277 H   0  0  0  0  0  0  0  0  0  0  0  0
   -0.7241    2.0908    0.0256 H   0  0  0  0  0  0  0  0  0  0  0  0
    0.0000    0.0000    0.0000 C   0  0  0  0  0  0  0  0  0  0  0  0
   -1.0890   -0.5488   -0.0000 O   0  0  0  0  0  1  0  0  0  0  0  0
    1.0890   -0.6092   -0.0000 O   0  0  0  0  0  0  0  0  0  0  0  0
    2.4881    3.3274    1.8637 C   0  0  0  0  0  0  0  0  0  0  0  0
    2.5903    3.4234    2.8403 H   0  0  0  0  0  0  0  0  0  0  0  0
    1.6273    3.6903    1.5484 H   0  0  0  0  0  0  0  0  0  0  0  0
    3.3184    3.8050    1.3437 H   0  0  0  0  0  0  0  0  0  0  0  0
    2.6706    1.9046    1.4345 C   0  0  0  0  0  0  0  0  0  0  0  0
    2.2084    1.2814    2.0671 H   0  0  0  0  0  0  0  0  0  0  0  0
    2.3098    1.7650    0.5108 H   0  0  0  0  0  0  0  0  0  0  0  0
    4.1728    1.6753    1.4611 C   0  0  0  0  0  0  0  0  0  0  0  0
    4.4723    1.3407    2.3546 H   0  0  0  0  0  0  0  0  0  0  0  0
    4.4535    1.0266    0.7528 H   0  0  0  0  0  0  0  0  0  0  0  0
    4.5950    2.6605    1.2632 H   0  0  0  0  0  0  0  0  0  0  0  0
  1  5  1  0
  5  6  1  0
  5  7  2  0
  1  2  1  0
  1  3  1  0
  1  4  1  0
  8 12  1  0
 12 15  1  0
  8  9  1  0
  8 10  1  0
  8 11  1  0
 12 13  1  0
 12 14  1  0
 15 16  1  0
 15 17  1  0
 15 18  1  0
M  CHG  1   6  -1
M  END
>  <PDB_ID>  (816) 
pdb2wia

>  <RESIDUE_NAME>  (816) 
GLU   PRO

>  <FRAG_NAME>  (816) 
ACET   PRPA

>  <FRAG_ATOM_NUM>  (816) 
fragi: 7  fragj: 11

>  <atom.prop.CHAIN_ID>  (816) 
A A A A A A A Z Z Z Z Z Z Z Z Z Z Z

>  <atom.prop.IS_HEAVY_ATOM>  (816) 
1 0 0 0 1 1 1 1 0 0 0 1 0 0 1 0 0 0

>  <DIFUSE_FUNC_ATOM>  (816) 
atom 6   atom 7   

>  <FINAL_SINGLE_POINT_ENERGY>  (816) 
0

>  <NONCOV_INTER_ENERGY_QM>  (816) 
0

>  <FF_Energy>  (816) 
32.84

>  <QM_Energy>  (816) 
6.08

>  <source>  (816) 
ACET_PRPA_08

>  <Index>  (816) 
934

$$$$
ACET-pdb2vvf-E-GLU-160:PRPA-pdb2vvf-E-ARG-243
     RDKit          3D

 18 16  0  0  0  0  0  0  0  0999 V2000
   -0.0004    1.5159    0.0074 C   0  0  0  0  0  0  0  0  0  0  0  0
    0.0754    1.8190   -0.9226 H   0  0  0  0  0  0  0  0  0  0  0  0
    0.7523    1.8110    0.5629 H   0  0  0  0  0  0  0  0  0  0  0  0
   -0.9179    1.9289    0.4264 H   0  0  0  0  0  0  0  0  0  0  0  0
    0.0000    0.0000    0.0000 C   0  0  0  0  0  0  0  0  0  0  0  0
   -1.0967   -0.5938   -0.0000 O   0  0  0  0  0  1  0  0  0  0  0  0
    1.0967   -0.5996   -0.0000 O   0  0  0  0  0  0  0  0  0  0  0  0
   -5.0235   -0.4350   -3.3403 C   0  0  0  0  0  0  0  0  0  0  0  0
   -5.5445   -0.9911   -2.6932 H   0  0  0  0  0  0  0  0  0  0  0  0
   -4.7328   -1.0038   -4.1087 H   0  0  0  0  0  0  0  0  0  0  0  0
   -5.6837    0.3419   -3.7259 H   0  0  0  0  0  0  0  0  0  0  0  0
   -3.7844    0.0742   -2.6347 C   0  0  0  0  0  0  0  0  0  0  0  0
   -3.1479    0.4435   -3.3007 H   0  0  0  0  0  0  0  0  0  0  0  0
   -4.0392    0.7679   -1.9718 H   0  0  0  0  0  0  0  0  0  0  0  0
   -3.0972   -1.0581   -1.8974 C   0  0  0  0  0  0  0  0  0  0  0  0
   -2.5625   -1.5786   -2.5548 H   0  0  0  0  0  0  0  0  0  0  0  0
   -2.5030   -0.6620   -1.2049 H   0  0  0  0  0  0  0  0  0  0  0  0
   -3.8192   -1.7186   -1.4173 H   0  0  0  0  0  0  0  0  0  0  0  0
  1  5  1  0
  5  6  1  0
  5  7  2  0
  1  2  1  0
  1  3  1  0
  1  4  1  0
  8 12  1  0
 12 15  1  0
  8  9  1  0
  8 10  1  0
  8 11  1  0
 12 13  1  0
 12 14  1  0
 15 16  1  0
 15 17  1  0
 15 18  1  0
M  CHG  1   6  -1
M  END
>  <PDB_ID>  (817) 
pdb2vvf

>  <RESIDUE_NAME>  (817) 
GLU   ARG

>  <FRAG_NAME>  (817) 
ACET   PRPA

>  <FRAG_ATOM_NUM>  (817) 
fragi: 7  fragj: 11

>  <atom.prop.CHAIN_ID>  (817) 
A A A A A A A Z Z Z Z Z Z Z Z Z Z Z

>  <atom.prop.IS_HEAVY_ATOM>  (817) 
1 0 0 0 1 1 1 1 0 0 0 1 0 0 1 0 0 0

>  <DIFUSE_FUNC_ATOM>  (817) 
atom 6   atom 7   

>  <FINAL_SINGLE_POINT_ENERGY>  (817) 
0

>  <NONCOV_INTER_ENERGY_QM>  (817) 
0

>  <FF_Energy>  (817) 
18.7

>  <QM_Energy>  (817) 
0.03

>  <source>  (817) 
ACET_PRPA_08

>  <Index>  (817) 
2265

$$$$
ACET-pdb1qfg-A-GLU-582:PRPA-pdb1qfg-A-ARG-93
     RDKit          3D

 18 16  0  0  0  0  0  0  0  0999 V2000
   -0.0130    1.5148    0.0072 C   0  0  0  0  0  0  0  0  0  0  0  0
    0.5368    1.8185   -0.7502 H   0  0  0  0  0  0  0  0  0  0  0  0
    0.3549    1.8088    0.8720 H   0  0  0  0  0  0  0  0  0  0  0  0
   -1.0152    1.9288   -0.1037 H   0  0  0  0  0  0  0  0  0  0  0  0
    0.0000    0.0000    0.0000 C   0  0  0  0  0  0  0  0  0  0  0  0
   -1.1009   -0.5762    0.0000 O   0  0  0  0  0  1  0  0  0  0  0  0
    1.1009   -0.6107   -0.0000 O   0  0  0  0  0  0  0  0  0  0  0  0
    4.8204   -3.3557    0.8450 C   0  0  0  0  0  0  0  0  0  0  0  0
    4.4858   -3.9807    0.1540 H   0  0  0  0  0  0  0  0  0  0  0  0
    5.3042   -3.8408    1.5592 H   0  0  0  0  0  0  0  0  0  0  0  0
    5.5258   -2.6769    0.3656 H   0  0  0  0  0  0  0  0  0  0  0  0
    3.6865   -2.6217    1.4333 C   0  0  0  0  0  0  0  0  0  0  0  0
    3.6322   -2.8292    2.4397 H   0  0  0  0  0  0  0  0  0  0  0  0
    3.8716   -1.6104    1.3811 H   0  0  0  0  0  0  0  0  0  0  0  0
    2.3562   -2.8694    0.8458 C   0  0  0  0  0  0  0  0  0  0  0  0
    1.9212   -2.0026    0.6489 H   0  0  0  0  0  0  0  0  0  0  0  0
    2.4607   -3.4123    0.0249 H   0  0  0  0  0  0  0  0  0  0  0  0
    1.7549   -3.4198    1.5694 H   0  0  0  0  0  0  0  0  0  0  0  0
  1  5  1  0
  5  6  1  0
  5  7  2  0
  1  2  1  0
  1  3  1  0
  1  4  1  0
  8 12  1  0
 12 15  1  0
  8  9  1  0
  8 10  1  0
  8 11  1  0
 12 13  1  0
 12 14  1  0
 15 16  1  0
 15 17  1  0
 15 18  1  0
M  CHG  1   6  -1
M  END
>  <PDB_ID>  (818) 
pdb1qfg

>  <RESIDUE_NAME>  (818) 
GLU   ARG

>  <FRAG_NAME>  (818) 
ACET   PRPA

>  <FRAG_ATOM_NUM>  (818) 
fragi: 7  fragj: 11

>  <atom.prop.CHAIN_ID>  (818) 
A A A A A A A Z Z Z Z Z Z Z Z Z Z Z

>  <atom.prop.IS_HEAVY_ATOM>  (818) 
1 0 0 0 1 1 1 1 0 0 0 1 0 0 1 0 0 0

>  <DIFUSE_FUNC_ATOM>  (818) 
atom 6   atom 7   

>  <FINAL_SINGLE_POINT_ENERGY>  (818) 
0

>  <NONCOV_INTER_ENERGY_QM>  (818) 
0

>  <FF_Energy>  (818) 
41.57

>  <QM_Energy>  (818) 
1.62

>  <source>  (818) 
ACET_PRPA_08

>  <Index>  (818) 
2834

$$$$
ACET-pdb1qht-A-ASP-45:PRPA-pdb1qht-A-LYS-70
     RDKit          3D

 18 16  0  0  0  0  0  0  0  0999 V2000
   -0.0112    1.4923    0.0110 C   0  0  0  0  0  0  0  0  0  0  0  0
   -0.8191    1.8168   -0.4707 H   0  0  0  0  0  0  0  0  0  0  0  0
    0.8123    1.8293   -0.4348 H   0  0  0  0  0  0  0  0  0  0  0  0
   -0.0371    1.8966    1.0228 H   0  0  0  0  0  0  0  0  0  0  0  0
    0.0000    0.0000    0.0000 C   0  0  0  0  0  0  0  0  0  0  0  0
   -1.1045   -0.5794   -0.0000 O   0  0  0  0  0  1  0  0  0  0  0  0
    1.1045   -0.5878    0.0000 O   0  0  0  0  0  0  0  0  0  0  0  0
   -2.5184   -4.3829    0.3179 C   0  0  0  0  0  0  0  0  0  0  0  0
   -3.0644   -4.2043    1.1410 H   0  0  0  0  0  0  0  0  0  0  0  0
   -1.5797   -4.0670    0.4735 H   0  0  0  0  0  0  0  0  0  0  0  0
   -2.5038   -5.4566    0.1304 H   0  0  0  0  0  0  0  0  0  0  0  0
   -3.1113   -3.6157   -0.8421 C   0  0  0  0  0  0  0  0  0  0  0  0
   -3.3817   -4.2571   -1.5533 H   0  0  0  0  0  0  0  0  0  0  0  0
   -3.9009   -3.1003   -0.5247 H   0  0  0  0  0  0  0  0  0  0  0  0
   -2.1051   -2.6369   -1.4346 C   0  0  0  0  0  0  0  0  0  0  0  0
   -2.6054   -1.9330   -1.9560 H   0  0  0  0  0  0  0  0  0  0  0  0
   -1.6162   -2.1778   -0.6806 H   0  0  0  0  0  0  0  0  0  0  0  0
   -1.3770   -3.1137   -2.0907 H   0  0  0  0  0  0  0  0  0  0  0  0
  1  5  1  0
  5  6  1  0
  5  7  2  0
  1  2  1  0
  1  3  1  0
  1  4  1  0
  8 12  1  0
 12 15  1  0
  8  9  1  0
  8 10  1  0
  8 11  1  0
 12 13  1  0
 12 14  1  0
 15 16  1  0
 15 17  1  0
 15 18  1  0
M  CHG  1   6  -1
M  END
>  <PDB_ID>  (819) 
pdb1qht

>  <RESIDUE_NAME>  (819) 
ASP   LYS

>  <FRAG_NAME>  (819) 
ACET   PRPA

>  <FRAG_ATOM_NUM>  (819) 
fragi: 7  fragj: 11

>  <atom.prop.CHAIN_ID>  (819) 
A A A A A A A Z Z Z Z Z Z Z Z Z Z Z

>  <atom.prop.IS_HEAVY_ATOM>  (819) 
1 0 0 0 1 1 1 1 0 0 0 1 0 0 1 0 0 0

>  <DIFUSE_FUNC_ATOM>  (819) 
atom 6   atom 7   

>  <FINAL_SINGLE_POINT_ENERGY>  (819) 
0

>  <NONCOV_INTER_ENERGY_QM>  (819) 
0

>  <FF_Energy>  (819) 
26.56

>  <QM_Energy>  (819) 
1.5

>  <source>  (819) 
ACET_PRPA_08

>  <Index>  (819) 
3882

$$$$
ACET-pdb2wuu-A-ASP-119:PRPA-pdb2wuu-A-ARG-116
     RDKit          3D

 18 16  0  0  0  0  0  0  0  0999 V2000
    0.0719    1.5654   -0.0438 C   0  0  0  0  0  0  0  0  0  0  0  0
    0.6076    1.8215   -0.8325 H   0  0  0  0  0  0  0  0  0  0  0  0
    0.4915    1.8730    0.7949 H   0  0  0  0  0  0  0  0  0  0  0  0
   -0.9066    2.0380   -0.1286 H   0  0  0  0  0  0  0  0  0  0  0  0
    0.0000    0.0000    0.0000 C   0  0  0  0  0  0  0  0  0  0  0  0
   -1.1012   -0.5493   -0.0000 O   0  0  0  0  0  1  0  0  0  0  0  0
    1.1012   -0.6711   -0.0000 O   0  0  0  0  0  0  0  0  0  0  0  0
   -3.5488   -2.7707    0.9239 C   0  0  0  0  0  0  0  0  0  0  0  0
   -3.3815   -3.7408    0.7260 H   0  0  0  0  0  0  0  0  0  0  0  0
   -3.0372   -2.2150    0.2625 H   0  0  0  0  0  0  0  0  0  0  0  0
   -4.6084   -2.5850    0.7483 H   0  0  0  0  0  0  0  0  0  0  0  0
   -3.0766   -2.4628    2.2867 C   0  0  0  0  0  0  0  0  0  0  0  0
   -3.4679   -1.6293    2.6031 H   0  0  0  0  0  0  0  0  0  0  0  0
   -3.2280   -3.2203    2.8785 H   0  0  0  0  0  0  0  0  0  0  0  0
   -1.6221   -2.2762    2.1039 C   0  0  0  0  0  0  0  0  0  0  0  0
   -1.4624   -1.8934    1.2223 H   0  0  0  0  0  0  0  0  0  0  0  0
   -1.2812   -1.7315    2.8370 H   0  0  0  0  0  0  0  0  0  0  0  0
   -1.2229   -3.2889    2.1610 H   0  0  0  0  0  0  0  0  0  0  0  0
  1  5  1  0
  5  6  1  0
  5  7  2  0
  1  2  1  0
  1  3  1  0
  1  4  1  0
  8 12  1  0
 12 15  1  0
  8  9  1  0
  8 10  1  0
  8 11  1  0
 12 13  1  0
 12 14  1  0
 15 16  1  0
 15 17  1  0
 15 18  1  0
M  CHG  1   6  -1
M  END
>  <PDB_ID>  (820) 
pdb2wuu

>  <RESIDUE_NAME>  (820) 
ASP   ARG

>  <FRAG_NAME>  (820) 
ACET   PRPA

>  <FRAG_ATOM_NUM>  (820) 
fragi: 7  fragj: 11

>  <atom.prop.CHAIN_ID>  (820) 
A A A A A A A Z Z Z Z Z Z Z Z Z Z Z

>  <atom.prop.IS_HEAVY_ATOM>  (820) 
1 0 0 0 1 1 1 1 0 0 0 1 0 0 1 0 0 0

>  <DIFUSE_FUNC_ATOM>  (820) 
atom 6   atom 7   

>  <FINAL_SINGLE_POINT_ENERGY>  (820) 
0

>  <NONCOV_INTER_ENERGY_QM>  (820) 
0

>  <FF_Energy>  (820) 
19.95

>  <QM_Energy>  (820) 
-1.01

>  <source>  (820) 
ACET_PRPA_08

>  <Index>  (820) 
5494

$$$$
ACET-pdb1pd5-J-ASP-123:PRPA-pdb1pd5-J-LYS-136
     RDKit          3D

 18 16  0  0  0  0  0  0  0  0999 V2000
    0.0395    1.5029    0.0167 C   0  0  0  0  0  0  0  0  0  0  0  0
    0.9387    1.8006   -0.3037 H   0  0  0  0  0  0  0  0  0  0  0  0
   -0.0999    1.8143    0.9554 H   0  0  0  0  0  0  0  0  0  0  0  0
   -0.7219    1.9581   -0.6168 H   0  0  0  0  0  0  0  0  0  0  0  0
    0.0000    0.0000    0.0000 C   0  0  0  0  0  0  0  0  0  0  0  0
   -1.0592   -0.6669    0.0000 O   0  0  0  0  0  1  0  0  0  0  0  0
    1.0592   -0.6194   -0.0000 O   0  0  0  0  0  0  0  0  0  0  0  0
   -2.5426   -1.5057    4.1885 C   0  0  0  0  0  0  0  0  0  0  0  0
   -3.4620   -1.3301    3.8478 H   0  0  0  0  0  0  0  0  0  0  0  0
   -2.0072   -0.6666    4.1773 H   0  0  0  0  0  0  0  0  0  0  0  0
   -2.6019   -1.8844    5.2089 H   0  0  0  0  0  0  0  0  0  0  0  0
   -1.8533   -2.5292    3.2027 C   0  0  0  0  0  0  0  0  0  0  0  0
   -1.3359   -3.1494    3.7631 H   0  0  0  0  0  0  0  0  0  0  0  0
   -2.5794   -2.9811    2.7179 H   0  0  0  0  0  0  0  0  0  0  0  0
   -0.9961   -1.7784    2.3030 C   0  0  0  0  0  0  0  0  0  0  0  0
   -1.5413   -1.1930    1.6959 H   0  0  0  0  0  0  0  0  0  0  0  0
   -0.3543   -1.2023    2.8173 H   0  0  0  0  0  0  0  0  0  0  0  0
   -0.4152   -2.4612    1.6829 H   0  0  0  0  0  0  0  0  0  0  0  0
  1  5  1  0
  5  6  1  0
  5  7  2  0
  1  2  1  0
  1  3  1  0
  1  4  1  0
  8 12  1  0
 12 15  1  0
  8  9  1  0
  8 10  1  0
  8 11  1  0
 12 13  1  0
 12 14  1  0
 15 16  1  0
 15 17  1  0
 15 18  1  0
M  CHG  1   6  -1
M  END
>  <PDB_ID>  (821) 
pdb1pd5

>  <RESIDUE_NAME>  (821) 
ASP   LYS

>  <FRAG_NAME>  (821) 
ACET   PRPA

>  <FRAG_ATOM_NUM>  (821) 
fragi: 7  fragj: 11

>  <atom.prop.CHAIN_ID>  (821) 
A A A A A A A Z Z Z Z Z Z Z Z Z Z Z

>  <atom.prop.IS_HEAVY_ATOM>  (821) 
1 0 0 0 1 1 1 1 0 0 0 1 0 0 1 0 0 0

>  <DIFUSE_FUNC_ATOM>  (821) 
atom 6   atom 7   

>  <FINAL_SINGLE_POINT_ENERGY>  (821) 
0

>  <NONCOV_INTER_ENERGY_QM>  (821) 
0

>  <FF_Energy>  (821) 
27.7

>  <QM_Energy>  (821) 
4.92

>  <source>  (821) 
ACET_PRPA_08

>  <Index>  (821) 
7114

$$$$
ACET-pdb2wr3-A-GLU-254:PRPA-pdb2wr3-A-ARG-123
     RDKit          3D

 18 16  0  0  0  0  0  0  0  0999 V2000
    0.0226    1.5249   -0.0416 C   0  0  0  0  0  0  0  0  0  0  0  0
   -0.6442    1.8109   -0.7102 H   0  0  0  0  0  0  0  0  0  0  0  0
    0.9348    1.7976   -0.2980 H   0  0  0  0  0  0  0  0  0  0  0  0
   -0.2229    1.9967    0.9098 H   0  0  0  0  0  0  0  0  0  0  0  0
    0.0000    0.0000    0.0000 C   0  0  0  0  0  0  0  0  0  0  0  0
   -1.1003   -0.6081   -0.0000 O   0  0  0  0  0  1  0  0  0  0  0  0
    1.1003   -0.5948    0.0000 O   0  0  0  0  0  0  0  0  0  0  0  0
    4.5090   -0.4699    1.3702 C   0  0  0  0  0  0  0  0  0  0  0  0
    4.5925    0.3272    1.9975 H   0  0  0  0  0  0  0  0  0  0  0  0
    4.1028   -0.1208    0.4208 H   0  0  0  0  0  0  0  0  0  0  0  0
    5.4874   -0.9409    1.2765 H   0  0  0  0  0  0  0  0  0  0  0  0
    3.5425   -1.3640    2.1737 C   0  0  0  0  0  0  0  0  0  0  0  0
    4.0971   -1.9166    2.8059 H   0  0  0  0  0  0  0  0  0  0  0  0
    2.9506   -0.7585    2.7162 H   0  0  0  0  0  0  0  0  0  0  0  0
    2.6638   -2.2943    1.3741 C   0  0  0  0  0  0  0  0  0  0  0  0
    1.9199   -1.7790    0.9501 H   0  0  0  0  0  0  0  0  0  0  0  0
    3.2042   -2.7470    0.6652 H   0  0  0  0  0  0  0  0  0  0  0  0
    2.2162   -3.0712    1.9938 H   0  0  0  0  0  0  0  0  0  0  0  0
  1  5  1  0
  5  6  1  0
  5  7  2  0
  1  2  1  0
  1  3  1  0
  1  4  1  0
  8 12  1  0
 12 15  1  0
  8  9  1  0
  8 10  1  0
  8 11  1  0
 12 13  1  0
 12 14  1  0
 15 16  1  0
 15 17  1  0
 15 18  1  0
M  CHG  1   6  -1
M  END
>  <PDB_ID>  (822) 
pdb2wr3

>  <RESIDUE_NAME>  (822) 
GLU   ARG

>  <FRAG_NAME>  (822) 
ACET   PRPA

>  <FRAG_ATOM_NUM>  (822) 
fragi: 7  fragj: 11

>  <atom.prop.CHAIN_ID>  (822) 
A A A A A A A Z Z Z Z Z Z Z Z Z Z Z

>  <atom.prop.IS_HEAVY_ATOM>  (822) 
1 0 0 0 1 1 1 1 0 0 0 1 0 0 1 0 0 0

>  <DIFUSE_FUNC_ATOM>  (822) 
atom 6   atom 7   

>  <FINAL_SINGLE_POINT_ENERGY>  (822) 
0

>  <NONCOV_INTER_ENERGY_QM>  (822) 
0

>  <FF_Energy>  (822) 
47.63

>  <QM_Energy>  (822) 
1.37

>  <source>  (822) 
ACET_PRPA_08

>  <Index>  (822) 
7274

$$$$
ACET-pdb1qh4-A-ASP-189:PRPA-pdb1qh4-A-GLN-186
     RDKit          3D

 18 16  0  0  0  0  0  0  0  0999 V2000
    0.0099    1.5168   -0.0209 C   0  0  0  0  0  0  0  0  0  0  0  0
    0.8734    1.8251   -0.3887 H   0  0  0  0  0  0  0  0  0  0  0  0
   -0.1302    1.8500    0.8976 H   0  0  0  0  0  0  0  0  0  0  0  0
   -0.7877    1.9108   -0.6507 H   0  0  0  0  0  0  0  0  0  0  0  0
    0.0000    0.0000    0.0000 C   0  0  0  0  0  0  0  0  0  0  0  0
   -1.1018   -0.5841    0.0000 O   0  0  0  0  0  1  0  0  0  0  0  0
    1.1018   -0.5900   -0.0000 O   0  0  0  0  0  0  0  0  0  0  0  0
    2.9481    0.3748   -1.8670 C   0  0  0  0  0  0  0  0  0  0  0  0
    2.3396    0.3333   -1.0578 H   0  0  0  0  0  0  0  0  0  0  0  0
    2.7938   -0.5339   -2.4487 H   0  0  0  0  0  0  0  0  0  0  0  0
    2.6962    1.2778   -2.4232 H   0  0  0  0  0  0  0  0  0  0  0  0
    4.3951    0.5889   -1.4118 C   0  0  0  0  0  0  0  0  0  0  0  0
    4.6790   -0.1795   -0.8633 H   0  0  0  0  0  0  0  0  0  0  0  0
    4.9702    0.7054   -2.2049 H   0  0  0  0  0  0  0  0  0  0  0  0
    4.5107    1.8564   -0.5508 C   0  0  0  0  0  0  0  0  0  0  0  0
    5.4221    2.2202   -0.6487 H   0  0  0  0  0  0  0  0  0  0  0  0
    3.8251    2.5012   -0.8466 H   0  0  0  0  0  0  0  0  0  0  0  0
    4.3379    1.6098    0.4968 H   0  0  0  0  0  0  0  0  0  0  0  0
  1  5  1  0
  5  6  1  0
  5  7  2  0
  1  2  1  0
  1  3  1  0
  1  4  1  0
  8 12  1  0
 12 15  1  0
  8  9  1  0
  8 10  1  0
  8 11  1  0
 12 13  1  0
 12 14  1  0
 15 16  1  0
 15 17  1  0
 15 18  1  0
M  CHG  1   6  -1
M  END
>  <PDB_ID>  (823) 
pdb1qh4

>  <RESIDUE_NAME>  (823) 
ASP   GLN

>  <FRAG_NAME>  (823) 
ACET   PRPA

>  <FRAG_ATOM_NUM>  (823) 
fragi: 7  fragj: 11

>  <atom.prop.CHAIN_ID>  (823) 
A A A A A A A Z Z Z Z Z Z Z Z Z Z Z

>  <atom.prop.IS_HEAVY_ATOM>  (823) 
1 0 0 0 1 1 1 1 0 0 0 1 0 0 1 0 0 0

>  <DIFUSE_FUNC_ATOM>  (823) 
atom 6   atom 7   

>  <FINAL_SINGLE_POINT_ENERGY>  (823) 
0

>  <NONCOV_INTER_ENERGY_QM>  (823) 
0

>  <FF_Energy>  (823) 
23.19

>  <QM_Energy>  (823) 
0.46

>  <source>  (823) 
ACET_PRPA_08

>  <Index>  (823) 
8450

$$$$
ACET-pdb2wj3-A-ASP-165:PRPA-pdb2wj3-C-ARG-260
     RDKit          3D

 18 16  0  0  0  0  0  0  0  0999 V2000
    0.0644    1.5155    0.0643 C   0  0  0  0  0  0  0  0  0  0  0  0
    0.0041    1.8742   -0.8658 H   0  0  0  0  0  0  0  0  0  0  0  0
    0.9368    1.7783    0.4700 H   0  0  0  0  0  0  0  0  0  0  0  0
   -0.7352    1.9630    0.6546 H   0  0  0  0  0  0  0  0  0  0  0  0
    0.0000    0.0000    0.0000 C   0  0  0  0  0  0  0  0  0  0  0  0
   -1.0660   -0.6490    0.0000 O   0  0  0  0  0  1  0  0  0  0  0  0
    1.0660   -0.5518   -0.0000 O   0  0  0  0  0  0  0  0  0  0  0  0
    2.4759   -3.6937   -1.8024 C   0  0  0  0  0  0  0  0  0  0  0  0
    3.2236   -3.7167   -2.4575 H   0  0  0  0  0  0  0  0  0  0  0  0
    1.9110   -2.8890   -1.9508 H   0  0  0  0  0  0  0  0  0  0  0  0
    1.8623   -4.5844   -1.9372 H   0  0  0  0  0  0  0  0  0  0  0  0
    3.0717   -3.5965   -0.4181 C   0  0  0  0  0  0  0  0  0  0  0  0
    3.2654   -4.5012   -0.0774 H   0  0  0  0  0  0  0  0  0  0  0  0
    3.8813   -3.0349   -0.4460 H   0  0  0  0  0  0  0  0  0  0  0  0
    2.0628   -2.9475    0.4744 C   0  0  0  0  0  0  0  0  0  0  0  0
    2.5438   -2.4179    1.1570 H   0  0  0  0  0  0  0  0  0  0  0  0
    1.4794   -2.3716   -0.0813 H   0  0  0  0  0  0  0  0  0  0  0  0
    1.4701   -3.7254    0.9558 H   0  0  0  0  0  0  0  0  0  0  0  0
  1  5  1  0
  5  6  1  0
  5  7  2  0
  1  2  1  0
  1  3  1  0
  1  4  1  0
  8 12  1  0
 12 15  1  0
  8  9  1  0
  8 10  1  0
  8 11  1  0
 12 13  1  0
 12 14  1  0
 15 16  1  0
 15 17  1  0
 15 18  1  0
M  CHG  1   6  -1
M  END
>  <PDB_ID>  (824) 
pdb2wj3

>  <RESIDUE_NAME>  (824) 
ASP   ARG

>  <FRAG_NAME>  (824) 
ACET   PRPA

>  <FRAG_ATOM_NUM>  (824) 
fragi: 7  fragj: 11

>  <atom.prop.CHAIN_ID>  (824) 
A A A A A A A Z Z Z Z Z Z Z Z Z Z Z

>  <atom.prop.IS_HEAVY_ATOM>  (824) 
1 0 0 0 1 1 1 1 0 0 0 1 0 0 1 0 0 0

>  <DIFUSE_FUNC_ATOM>  (824) 
atom 6   atom 7   

>  <FINAL_SINGLE_POINT_ENERGY>  (824) 
0

>  <NONCOV_INTER_ENERGY_QM>  (824) 
0

>  <FF_Energy>  (824) 
20.52

>  <QM_Energy>  (824) 
2.56

>  <source>  (824) 
ACET_PRPA_08

>  <Index>  (824) 
9612

$$$$
ACET-pdb2x5p-A-ASP-117:PRPA-pdb2x5p-A-LEU-39
     RDKit          3D

 18 16  0  0  0  0  0  0  0  0999 V2000
   -0.0037    1.5240    0.0178 C   0  0  0  0  0  0  0  0  0  0  0  0
    0.6372    1.8319    0.7079 H   0  0  0  0  0  0  0  0  0  0  0  0
   -0.9212    1.8343    0.2241 H   0  0  0  0  0  0  0  0  0  0  0  0
    0.2945    1.9481   -0.9410 H   0  0  0  0  0  0  0  0  0  0  0  0
    0.0000    0.0000    0.0000 C   0  0  0  0  0  0  0  0  0  0  0  0
   -1.0953   -0.5859    0.0000 O   0  0  0  0  0  1  0  0  0  0  0  0
    1.0953   -0.6156    0.0000 O   0  0  0  0  0  0  0  0  0  0  0  0
   -1.2974   -3.3713    1.9848 C   0  0  0  0  0  0  0  0  0  0  0  0
   -0.5794   -3.5633    1.2974 H   0  0  0  0  0  0  0  0  0  0  0  0
   -2.0260   -2.8404    1.5264 H   0  0  0  0  0  0  0  0  0  0  0  0
   -1.7269   -4.3266    2.2866 H   0  0  0  0  0  0  0  0  0  0  0  0
   -0.6755   -2.4617    3.0369 C   0  0  0  0  0  0  0  0  0  0  0  0
   -1.3666   -2.2363    3.7292 H   0  0  0  0  0  0  0  0  0  0  0  0
    0.1754   -2.9333    3.5285 H   0  0  0  0  0  0  0  0  0  0  0  0
   -0.2735   -1.1736    2.3757 C   0  0  0  0  0  0  0  0  0  0  0  0
   -1.0784   -0.7263    1.9750 H   0  0  0  0  0  0  0  0  0  0  0  0
    0.1403   -0.5553    3.0496 H   0  0  0  0  0  0  0  0  0  0  0  0
    0.3935   -1.3545    1.6478 H   0  0  0  0  0  0  0  0  0  0  0  0
  1  5  1  0
  5  6  1  0
  5  7  2  0
  1  2  1  0
  1  3  1  0
  1  4  1  0
  8 12  1  0
 12 15  1  0
  8  9  1  0
  8 10  1  0
  8 11  1  0
 12 13  1  0
 12 14  1  0
 15 16  1  0
 15 17  1  0
 15 18  1  0
M  CHG  1   6  -1
M  END
>  <PDB_ID>  (825) 
pdb2x5p

>  <RESIDUE_NAME>  (825) 
ASP   LEU

>  <FRAG_NAME>  (825) 
ACET   PRPA

>  <FRAG_ATOM_NUM>  (825) 
fragi: 7  fragj: 11

>  <atom.prop.CHAIN_ID>  (825) 
A A A A A A A Z Z Z Z Z Z Z Z Z Z Z

>  <atom.prop.IS_HEAVY_ATOM>  (825) 
1 0 0 0 1 1 1 1 0 0 0 1 0 0 1 0 0 0

>  <DIFUSE_FUNC_ATOM>  (825) 
atom 6   atom 7   

>  <FINAL_SINGLE_POINT_ENERGY>  (825) 
0

>  <NONCOV_INTER_ENERGY_QM>  (825) 
0

>  <FF_Energy>  (825) 
43.07

>  <QM_Energy>  (825) 
8.44

>  <source>  (825) 
ACET_PRPA_08

>  <Index>  (825) 
10711

$$$$
ACET-pdb2x5p-A-ASP-117:PRPA-pdb2x5p-A-LEU-39
     RDKit          3D

 18 16  0  0  0  0  0  0  0  0999 V2000
   -0.0037    1.5240    0.0178 C   0  0  0  0  0  0  0  0  0  0  0  0
    0.6372    1.8319    0.7079 H   0  0  0  0  0  0  0  0  0  0  0  0
   -0.9212    1.8343    0.2241 H   0  0  0  0  0  0  0  0  0  0  0  0
    0.2945    1.9481   -0.9410 H   0  0  0  0  0  0  0  0  0  0  0  0
    0.0000    0.0000    0.0000 C   0  0  0  0  0  0  0  0  0  0  0  0
   -1.0953   -0.5859    0.0000 O   0  0  0  0  0  1  0  0  0  0  0  0
    1.0953   -0.6156    0.0000 O   0  0  0  0  0  0  0  0  0  0  0  0
    0.5227   -3.1258    3.7293 C   0  0  0  0  0  0  0  0  0  0  0  0
    1.2186   -3.3407    3.0462 H   0  0  0  0  0  0  0  0  0  0  0  0
    0.8985   -2.4983    4.4083 H   0  0  0  0  0  0  0  0  0  0  0  0
    0.2193   -3.9652    4.1770 H   0  0  0  0  0  0  0  0  0  0  0  0
   -0.6755   -2.4617    3.0369 C   0  0  0  0  0  0  0  0  0  0  0  0
   -1.3666   -2.2363    3.7292 H   0  0  0  0  0  0  0  0  0  0  0  0
   -1.1204   -3.1124    2.2842 H   0  0  0  0  0  0  0  0  0  0  0  0
   -0.2735   -1.1736    2.3757 C   0  0  0  0  0  0  0  0  0  0  0  0
   -1.0784   -0.7263    1.9750 H   0  0  0  0  0  0  0  0  0  0  0  0
    0.1403   -0.5553    3.0496 H   0  0  0  0  0  0  0  0  0  0  0  0
    0.3935   -1.3545    1.6478 H   0  0  0  0  0  0  0  0  0  0  0  0
  1  5  1  0
  5  6  1  0
  5  7  2  0
  1  2  1  0
  1  3  1  0
  1  4  1  0
  8 12  1  0
 12 15  1  0
  8  9  1  0
  8 10  1  0
  8 11  1  0
 12 13  1  0
 12 14  1  0
 15 16  1  0
 15 17  1  0
 15 18  1  0
M  CHG  1   6  -1
M  END
>  <PDB_ID>  (826) 
pdb2x5p

>  <RESIDUE_NAME>  (826) 
ASP   LEU

>  <FRAG_NAME>  (826) 
ACET   PRPA

>  <FRAG_ATOM_NUM>  (826) 
fragi: 7  fragj: 11

>  <atom.prop.CHAIN_ID>  (826) 
A A A A A A A Z Z Z Z Z Z Z Z Z Z Z

>  <atom.prop.IS_HEAVY_ATOM>  (826) 
1 0 0 0 1 1 1 1 0 0 0 1 0 0 1 0 0 0

>  <DIFUSE_FUNC_ATOM>  (826) 
atom 6   atom 7   

>  <FINAL_SINGLE_POINT_ENERGY>  (826) 
0

>  <NONCOV_INTER_ENERGY_QM>  (826) 
0

>  <FF_Energy>  (826) 
42.82

>  <QM_Energy>  (826) 
9.36

>  <source>  (826) 
ACET_PRPA_08

>  <Index>  (826) 
10728

$$$$
ACET-pdb1qgh-B-GLU-118:PRPA-pdb1qgh-B-LYS-114
     RDKit          3D

 18 16  0  0  0  0  0  0  0  0999 V2000
   -0.0883    1.5208    0.0106 C   0  0  0  0  0  0  0  0  0  0  0  0
   -0.6530    1.7899   -0.7681 H   0  0  0  0  0  0  0  0  0  0  0  0
    0.8396    1.8709   -0.1099 H   0  0  0  0  0  0  0  0  0  0  0  0
   -0.5088    1.9825    0.9041 H   0  0  0  0  0  0  0  0  0  0  0  0
    0.0000    0.0000    0.0000 C   0  0  0  0  0  0  0  0  0  0  0  0
   -1.0911   -0.6548   -0.0000 O   0  0  0  0  0  1  0  0  0  0  0  0
    1.0911   -0.5284   -0.0000 O   0  0  0  0  0  0  0  0  0  0  0  0
    4.2848   -0.9010   -0.4828 C   0  0  0  0  0  0  0  0  0  0  0  0
    4.6092   -1.5750   -1.1421 H   0  0  0  0  0  0  0  0  0  0  0  0
    3.4990   -1.2617    0.0131 H   0  0  0  0  0  0  0  0  0  0  0  0
    5.0840   -0.6704    0.2216 H   0  0  0  0  0  0  0  0  0  0  0  0
    3.8660    0.3501   -1.2254 C   0  0  0  0  0  0  0  0  0  0  0  0
    3.5645    1.0340   -0.5676 H   0  0  0  0  0  0  0  0  0  0  0  0
    4.6392    0.6936   -1.7495 H   0  0  0  0  0  0  0  0  0  0  0  0
    2.7174    0.0715   -2.1896 C   0  0  0  0  0  0  0  0  0  0  0  0
    3.0280   -0.6016   -2.8725 H   0  0  0  0  0  0  0  0  0  0  0  0
    1.9545   -0.3375   -1.6707 H   0  0  0  0  0  0  0  0  0  0  0  0
    2.3659    0.9677   -2.7008 H   0  0  0  0  0  0  0  0  0  0  0  0
  1  5  1  0
  5  6  1  0
  5  7  2  0
  1  2  1  0
  1  3  1  0
  1  4  1  0
  8 12  1  0
 12 15  1  0
  8  9  1  0
  8 10  1  0
  8 11  1  0
 12 13  1  0
 12 14  1  0
 15 16  1  0
 15 17  1  0
 15 18  1  0
M  CHG  1   6  -1
M  END
>  <PDB_ID>  (827) 
pdb1qgh

>  <RESIDUE_NAME>  (827) 
GLU   LYS

>  <FRAG_NAME>  (827) 
ACET   PRPA

>  <FRAG_ATOM_NUM>  (827) 
fragi: 7  fragj: 11

>  <atom.prop.CHAIN_ID>  (827) 
A A A A A A A Z Z Z Z Z Z Z Z Z Z Z

>  <atom.prop.IS_HEAVY_ATOM>  (827) 
1 0 0 0 1 1 1 1 0 0 0 1 0 0 1 0 0 0

>  <DIFUSE_FUNC_ATOM>  (827) 
atom 6   atom 7   

>  <FINAL_SINGLE_POINT_ENERGY>  (827) 
0

>  <NONCOV_INTER_ENERGY_QM>  (827) 
0

>  <FF_Energy>  (827) 
16.62

>  <QM_Energy>  (827) 
-1.58

>  <source>  (827) 
ACET_PRPA_08

>  <Index>  (827) 
10872

$$$$
ACET-pdb1qzz-A-GLU-83:PRPA-pdb1qzz-A-ARG-87
     RDKit          3D

 18 16  0  0  0  0  0  0  0  0999 V2000
   -0.0031    1.5210    0.0100 C   0  0  0  0  0  0  0  0  0  0  0  0
    0.4696    1.8216   -0.7911 H   0  0  0  0  0  0  0  0  0  0  0  0
    0.4235    1.8098    0.8406 H   0  0  0  0  0  0  0  0  0  0  0  0
   -1.0185    1.9165   -0.0168 H   0  0  0  0  0  0  0  0  0  0  0  0
    0.0000    0.0000    0.0000 C   0  0  0  0  0  0  0  0  0  0  0  0
   -1.1025   -0.6024   -0.0000 O   0  0  0  0  0  1  0  0  0  0  0  0
    1.1025   -0.5928    0.0000 O   0  0  0  0  0  0  0  0  0  0  0  0
    1.2443    0.9805    2.9235 C   0  0  0  0  0  0  0  0  0  0  0  0
    0.5883    0.6931    2.2201 H   0  0  0  0  0  0  0  0  0  0  0  0
    1.5613    1.9084    2.7109 H   0  0  0  0  0  0  0  0  0  0  0  0
    0.7265    1.0077    3.8822 H   0  0  0  0  0  0  0  0  0  0  0  0
    2.4478    0.0498    2.8449 C   0  0  0  0  0  0  0  0  0  0  0  0
    3.1234    0.4336    2.2117 H   0  0  0  0  0  0  0  0  0  0  0  0
    2.8613   -0.0345    3.7537 H   0  0  0  0  0  0  0  0  0  0  0  0
    2.0881   -1.3472    2.3607 C   0  0  0  0  0  0  0  0  0  0  0  0
    2.0759   -1.9558    3.1527 H   0  0  0  0  0  0  0  0  0  0  0  0
    1.1767   -1.3073    1.9528 H   0  0  0  0  0  0  0  0  0  0  0  0
    2.7932   -1.7327    1.6242 H   0  0  0  0  0  0  0  0  0  0  0  0
  1  5  1  0
  5  6  1  0
  5  7  2  0
  1  2  1  0
  1  3  1  0
  1  4  1  0
  8 12  1  0
 12 15  1  0
  8  9  1  0
  8 10  1  0
  8 11  1  0
 12 13  1  0
 12 14  1  0
 15 16  1  0
 15 17  1  0
 15 18  1  0
M  CHG  1   6  -1
M  END
>  <PDB_ID>  (828) 
pdb1qzz

>  <RESIDUE_NAME>  (828) 
GLU   ARG

>  <FRAG_NAME>  (828) 
ACET   PRPA

>  <FRAG_ATOM_NUM>  (828) 
fragi: 7  fragj: 11

>  <atom.prop.CHAIN_ID>  (828) 
A A A A A A A Z Z Z Z Z Z Z Z Z Z Z

>  <atom.prop.IS_HEAVY_ATOM>  (828) 
1 0 0 0 1 1 1 1 0 0 0 1 0 0 1 0 0 0

>  <DIFUSE_FUNC_ATOM>  (828) 
atom 6   atom 7   

>  <FINAL_SINGLE_POINT_ENERGY>  (828) 
0

>  <NONCOV_INTER_ENERGY_QM>  (828) 
0

>  <FF_Energy>  (828) 
17.8

>  <QM_Energy>  (828) 
2.69

>  <source>  (828) 
ACET_PRPA_08

>  <Index>  (828) 
11580

$$$$
ACET-pdb1qxm-A-GLU-34:PRPA-pdb1qxm-A-ILE-30
     RDKit          3D

 18 16  0  0  0  0  0  0  0  0999 V2000
    0.0010    1.5244   -0.0188 C   0  0  0  0  0  0  0  0  0  0  0  0
   -0.0996    1.8086   -0.9520 H   0  0  0  0  0  0  0  0  0  0  0  0
    0.8474    1.8239    0.3775 H   0  0  0  0  0  0  0  0  0  0  0  0
   -0.8181    1.9530    0.5587 H   0  0  0  0  0  0  0  0  0  0  0  0
    0.0000    0.0000    0.0000 C   0  0  0  0  0  0  0  0  0  0  0  0
   -1.0980   -0.6029    0.0000 O   0  0  0  0  0  1  0  0  0  0  0  0
    1.0980   -0.5977    0.0000 O   0  0  0  0  0  0  0  0  0  0  0  0
   -2.9000    1.8784   -4.1418 C   0  0  0  0  0  0  0  0  0  0  0  0
   -3.4890    1.1257   -4.4116 H   0  0  0  0  0  0  0  0  0  0  0  0
   -3.5084    2.7824   -4.1143 H   0  0  0  0  0  0  0  0  0  0  0  0
   -2.0897    1.9910   -4.8620 H   0  0  0  0  0  0  0  0  0  0  0  0
   -2.3410    1.5781   -2.7585 C   0  0  0  0  0  0  0  0  0  0  0  0
   -1.6630    2.2676   -2.5298 H   0  0  0  0  0  0  0  0  0  0  0  0
   -3.0858    1.6157   -2.1003 H   0  0  0  0  0  0  0  0  0  0  0  0
   -1.6922    0.2060   -2.6748 C   0  0  0  0  0  0  0  0  0  0  0  0
   -0.9403    0.1582   -3.3289 H   0  0  0  0  0  0  0  0  0  0  0  0
   -1.3450    0.0630   -1.7498 H   0  0  0  0  0  0  0  0  0  0  0  0
   -2.3722   -0.4915   -2.8917 H   0  0  0  0  0  0  0  0  0  0  0  0
  1  5  1  0
  5  6  1  0
  5  7  2  0
  1  2  1  0
  1  3  1  0
  1  4  1  0
  8 12  1  0
 12 15  1  0
  8  9  1  0
  8 10  1  0
  8 11  1  0
 12 13  1  0
 12 14  1  0
 15 16  1  0
 15 17  1  0
 15 18  1  0
M  CHG  1   6  -1
M  END
>  <PDB_ID>  (829) 
pdb1qxm

>  <RESIDUE_NAME>  (829) 
GLU   ILE

>  <FRAG_NAME>  (829) 
ACET   PRPA

>  <FRAG_ATOM_NUM>  (829) 
fragi: 7  fragj: 11

>  <atom.prop.CHAIN_ID>  (829) 
A A A A A A A Z Z Z Z Z Z Z Z Z Z Z

>  <atom.prop.IS_HEAVY_ATOM>  (829) 
1 0 0 0 1 1 1 1 0 0 0 1 0 0 1 0 0 0

>  <DIFUSE_FUNC_ATOM>  (829) 
atom 6   atom 7   

>  <FINAL_SINGLE_POINT_ENERGY>  (829) 
0

>  <NONCOV_INTER_ENERGY_QM>  (829) 
0

>  <FF_Energy>  (829) 
20.52

>  <QM_Energy>  (829) 
1.09

>  <source>  (829) 
ACET_PRPA_08

>  <Index>  (829) 
11805

$$$$
ACET-pdb2wj3-B-ASP-165:PRPA-pdb2wj3-D-ARG-260
     RDKit          3D

 18 16  0  0  0  0  0  0  0  0999 V2000
    0.0247    1.4995    0.0470 C   0  0  0  0  0  0  0  0  0  0  0  0
   -0.1514    1.8566   -0.8631 H   0  0  0  0  0  0  0  0  0  0  0  0
    0.9133    1.8003    0.3729 H   0  0  0  0  0  0  0  0  0  0  0  0
   -0.7341    1.9019    0.7181 H   0  0  0  0  0  0  0  0  0  0  0  0
    0.0000    0.0000    0.0000 C   0  0  0  0  0  0  0  0  0  0  0  0
   -1.0866   -0.6197    0.0000 O   0  0  0  0  0  1  0  0  0  0  0  0
    1.0866   -0.6108    0.0000 O   0  0  0  0  0  0  0  0  0  0  0  0
    2.5957   -3.4832   -2.0769 C   0  0  0  0  0  0  0  0  0  0  0  0
    3.3019   -3.4362   -2.7686 H   0  0  0  0  0  0  0  0  0  0  0  0
    1.9701   -2.7204   -2.1538 H   0  0  0  0  0  0  0  0  0  0  0  0
    2.0361   -4.4086   -2.2129 H   0  0  0  0  0  0  0  0  0  0  0  0
    3.2628   -3.4095   -0.7150 C   0  0  0  0  0  0  0  0  0  0  0  0
    3.5708   -4.3119   -0.4541 H   0  0  0  0  0  0  0  0  0  0  0  0
    4.0149   -2.7695   -0.7551 H   0  0  0  0  0  0  0  0  0  0  0  0
    2.2639   -2.9267    0.2796 C   0  0  0  0  0  0  0  0  0  0  0  0
    2.7485   -2.3985    0.9802 H   0  0  0  0  0  0  0  0  0  0  0  0
    1.6164   -2.3262   -0.1950 H   0  0  0  0  0  0  0  0  0  0  0  0
    1.7291   -3.7545    0.7449 H   0  0  0  0  0  0  0  0  0  0  0  0
  1  5  1  0
  5  6  1  0
  5  7  2  0
  1  2  1  0
  1  3  1  0
  1  4  1  0
  8 12  1  0
 12 15  1  0
  8  9  1  0
  8 10  1  0
  8 11  1  0
 12 13  1  0
 12 14  1  0
 15 16  1  0
 15 17  1  0
 15 18  1  0
M  CHG  1   6  -1
M  END
>  <PDB_ID>  (830) 
pdb2wj3

>  <RESIDUE_NAME>  (830) 
ASP   ARG

>  <FRAG_NAME>  (830) 
ACET   PRPA

>  <FRAG_ATOM_NUM>  (830) 
fragi: 7  fragj: 11

>  <atom.prop.CHAIN_ID>  (830) 
A A A A A A A Z Z Z Z Z Z Z Z Z Z Z

>  <atom.prop.IS_HEAVY_ATOM>  (830) 
1 0 0 0 1 1 1 1 0 0 0 1 0 0 1 0 0 0

>  <DIFUSE_FUNC_ATOM>  (830) 
atom 6   atom 7   

>  <FINAL_SINGLE_POINT_ENERGY>  (830) 
0

>  <NONCOV_INTER_ENERGY_QM>  (830) 
0

>  <FF_Energy>  (830) 
29.84

>  <QM_Energy>  (830) 
3.16

>  <source>  (830) 
ACET_PRPA_08

>  <Index>  (830) 
12163

$$$$
ACET-pdb2x6u-A-ASP-105:PRPA-pdb2x6u-A-ARG-182
     RDKit          3D

 18 16  0  0  0  0  0  0  0  0999 V2000
    0.0210    1.5181    0.0125 C   0  0  0  0  0  0  0  0  0  0  0  0
    0.4163    1.8401   -0.8424 H   0  0  0  0  0  0  0  0  0  0  0  0
    0.5693    1.8243    0.7826 H   0  0  0  0  0  0  0  0  0  0  0  0
   -0.9703    1.9606    0.1103 H   0  0  0  0  0  0  0  0  0  0  0  0
    0.0000    0.0000    0.0000 C   0  0  0  0  0  0  0  0  0  0  0  0
   -1.0957   -0.5960   -0.0000 O   0  0  0  0  0  1  0  0  0  0  0  0
    1.0957   -0.5993    0.0000 O   0  0  0  0  0  0  0  0  0  0  0  0
   -3.2838   -2.8029    0.5406 C   0  0  0  0  0  0  0  0  0  0  0  0
   -2.5461   -2.2057    0.8543 H   0  0  0  0  0  0  0  0  0  0  0  0
   -3.2267   -3.6818    1.0126 H   0  0  0  0  0  0  0  0  0  0  0  0
   -4.2333   -2.3368    0.8037 H   0  0  0  0  0  0  0  0  0  0  0  0
   -3.0881   -3.0527   -0.9439 C   0  0  0  0  0  0  0  0  0  0  0  0
   -3.4770   -3.9319   -1.1879 H   0  0  0  0  0  0  0  0  0  0  0  0
   -3.5159   -2.3237   -1.4633 H   0  0  0  0  0  0  0  0  0  0  0  0
   -1.6083   -3.0743   -1.2853 C   0  0  0  0  0  0  0  0  0  0  0  0
   -1.5119   -2.8673   -2.2585 H   0  0  0  0  0  0  0  0  0  0  0  0
   -1.1563   -2.3631   -0.7458 H   0  0  0  0  0  0  0  0  0  0  0  0
   -1.1425   -4.0369   -1.0745 H   0  0  0  0  0  0  0  0  0  0  0  0
  1  5  1  0
  5  6  1  0
  5  7  2  0
  1  2  1  0
  1  3  1  0
  1  4  1  0
  8 12  1  0
 12 15  1  0
  8  9  1  0
  8 10  1  0
  8 11  1  0
 12 13  1  0
 12 14  1  0
 15 16  1  0
 15 17  1  0
 15 18  1  0
M  CHG  1   6  -1
M  END
>  <PDB_ID>  (831) 
pdb2x6u

>  <RESIDUE_NAME>  (831) 
ASP   ARG

>  <FRAG_NAME>  (831) 
ACET   PRPA

>  <FRAG_ATOM_NUM>  (831) 
fragi: 7  fragj: 11

>  <atom.prop.CHAIN_ID>  (831) 
A A A A A A A Z Z Z Z Z Z Z Z Z Z Z

>  <atom.prop.IS_HEAVY_ATOM>  (831) 
1 0 0 0 1 1 1 1 0 0 0 1 0 0 1 0 0 0

>  <DIFUSE_FUNC_ATOM>  (831) 
atom 6   atom 7   

>  <FINAL_SINGLE_POINT_ENERGY>  (831) 
0

>  <NONCOV_INTER_ENERGY_QM>  (831) 
0

>  <FF_Energy>  (831) 
13.76

>  <QM_Energy>  (831) 
-2.74

>  <source>  (831) 
ACET_PRPA_08

>  <Index>  (831) 
13180

$$$$
ACET-pdb1r0d-A-GLU-795:PRPA-pdb1r0d-A-ARG-835
     RDKit          3D

 18 16  0  0  0  0  0  0  0  0999 V2000
    0.0123    1.5109   -0.0153 C   0  0  0  0  0  0  0  0  0  0  0  0
    0.9509    1.7981   -0.0490 H   0  0  0  0  0  0  0  0  0  0  0  0
   -0.4431    1.8178    0.7991 H   0  0  0  0  0  0  0  0  0  0  0  0
   -0.5093    1.9141   -0.8833 H   0  0  0  0  0  0  0  0  0  0  0  0
    0.0000    0.0000    0.0000 C   0  0  0  0  0  0  0  0  0  0  0  0
   -1.0962   -0.6025   -0.0000 O   0  0  0  0  0  1  0  0  0  0  0  0
    1.0962   -0.5867   -0.0000 O   0  0  0  0  0  0  0  0  0  0  0  0
    4.3015   -2.9552   -0.5995 C   0  0  0  0  0  0  0  0  0  0  0  0
    3.7200   -2.5322   -1.2975 H   0  0  0  0  0  0  0  0  0  0  0  0
    4.2370   -3.9521   -0.6816 H   0  0  0  0  0  0  0  0  0  0  0  0
    5.3331   -2.6668   -0.8011 H   0  0  0  0  0  0  0  0  0  0  0  0
    3.7441   -2.5623    0.7742 C   0  0  0  0  0  0  0  0  0  0  0  0
    4.1201   -3.1593    1.4706 H   0  0  0  0  0  0  0  0  0  0  0  0
    3.9628   -1.6146    0.9640 H   0  0  0  0  0  0  0  0  0  0  0  0
    2.1997   -2.7045    0.8171 C   0  0  0  0  0  0  0  0  0  0  0  0
    1.8719   -2.1291    1.5698 H   0  0  0  0  0  0  0  0  0  0  0  0
    1.8481   -2.3433   -0.0498 H   0  0  0  0  0  0  0  0  0  0  0  0
    1.8518   -3.7278    0.9582 H   0  0  0  0  0  0  0  0  0  0  0  0
  1  5  1  0
  5  6  1  0
  5  7  2  0
  1  2  1  0
  1  3  1  0
  1  4  1  0
  8 12  1  0
 12 15  1  0
  8  9  1  0
  8 10  1  0
  8 11  1  0
 12 13  1  0
 12 14  1  0
 15 16  1  0
 15 17  1  0
 15 18  1  0
M  CHG  1   6  -1
M  END
>  <PDB_ID>  (832) 
pdb1r0d

>  <RESIDUE_NAME>  (832) 
GLU   ARG

>  <FRAG_NAME>  (832) 
ACET   PRPA

>  <FRAG_ATOM_NUM>  (832) 
fragi: 7  fragj: 11

>  <atom.prop.CHAIN_ID>  (832) 
A A A A A A A Z Z Z Z Z Z Z Z Z Z Z

>  <atom.prop.IS_HEAVY_ATOM>  (832) 
1 0 0 0 1 1 1 1 0 0 0 1 0 0 1 0 0 0

>  <DIFUSE_FUNC_ATOM>  (832) 
atom 6   atom 7   

>  <FINAL_SINGLE_POINT_ENERGY>  (832) 
0

>  <NONCOV_INTER_ENERGY_QM>  (832) 
0

>  <FF_Energy>  (832) 
21.39

>  <QM_Energy>  (832) 
4.32

>  <source>  (832) 
ACET_PRPA_08

>  <Index>  (832) 
14078

$$$$
ACET-pdb1qs1-C-ASP-2121:PRPA-pdb1qs1-A-LYS-401
     RDKit          3D

 18 16  0  0  0  0  0  0  0  0999 V2000
    0.0074    1.5218    0.0439 C   0  0  0  0  0  0  0  0  0  0  0  0
    0.8483    1.8472   -0.3729 H   0  0  0  0  0  0  0  0  0  0  0  0
   -0.0481    1.8135    0.9911 H   0  0  0  0  0  0  0  0  0  0  0  0
   -0.8299    1.9642   -0.4957 H   0  0  0  0  0  0  0  0  0  0  0  0
    0.0000    0.0000    0.0000 C   0  0  0  0  0  0  0  0  0  0  0  0
   -1.0978   -0.5966   -0.0000 O   0  0  0  0  0  1  0  0  0  0  0  0
    1.0978   -0.5994   -0.0000 O   0  0  0  0  0  0  0  0  0  0  0  0
    2.9590   -4.0470    0.1530 C   0  0  0  0  0  0  0  0  0  0  0  0
    2.2656   -3.6320    0.7390 H   0  0  0  0  0  0  0  0  0  0  0  0
    3.8427   -3.6126    0.3187 H   0  0  0  0  0  0  0  0  0  0  0  0
    3.0342   -5.1084    0.3892 H   0  0  0  0  0  0  0  0  0  0  0  0
    2.5684   -3.8336   -1.3008 C   0  0  0  0  0  0  0  0  0  0  0  0
    3.2020   -4.3328   -1.8825 H   0  0  0  0  0  0  0  0  0  0  0  0
    1.6397   -4.1607   -1.4380 H   0  0  0  0  0  0  0  0  0  0  0  0
    2.6221   -2.3583   -1.6810 C   0  0  0  0  0  0  0  0  0  0  0  0
    1.9418   -1.8586   -1.1420 H   0  0  0  0  0  0  0  0  0  0  0  0
    3.5345   -2.0007   -1.4701 H   0  0  0  0  0  0  0  0  0  0  0  0
    2.4172   -2.2078   -2.7410 H   0  0  0  0  0  0  0  0  0  0  0  0
  1  5  1  0
  5  6  1  0
  5  7  2  0
  1  2  1  0
  1  3  1  0
  1  4  1  0
  8 12  1  0
 12 15  1  0
  8  9  1  0
  8 10  1  0
  8 11  1  0
 12 13  1  0
 12 14  1  0
 15 16  1  0
 15 17  1  0
 15 18  1  0
M  CHG  1   6  -1
M  END
>  <PDB_ID>  (833) 
pdb1qs1

>  <RESIDUE_NAME>  (833) 
ASP   LYS

>  <FRAG_NAME>  (833) 
ACET   PRPA

>  <FRAG_ATOM_NUM>  (833) 
fragi: 7  fragj: 11

>  <atom.prop.CHAIN_ID>  (833) 
A A A A A A A Z Z Z Z Z Z Z Z Z Z Z

>  <atom.prop.IS_HEAVY_ATOM>  (833) 
1 0 0 0 1 1 1 1 0 0 0 1 0 0 1 0 0 0

>  <DIFUSE_FUNC_ATOM>  (833) 
atom 6   atom 7   

>  <FINAL_SINGLE_POINT_ENERGY>  (833) 
0

>  <NONCOV_INTER_ENERGY_QM>  (833) 
0

>  <FF_Energy>  (833) 
13.76

>  <QM_Energy>  (833) 
-1.85

>  <source>  (833) 
ACET_PRPA_08

>  <Index>  (833) 
15644

$$$$
ACET-pdb1r5a-A-GLU-140:PRPA-pdb1r5a-A-ARG-180
     RDKit          3D

 18 16  0  0  0  0  0  0  0  0999 V2000
    0.0119    1.5187   -0.0113 C   0  0  0  0  0  0  0  0  0  0  0  0
    0.3249    1.8076   -0.8990 H   0  0  0  0  0  0  0  0  0  0  0  0
    0.6153    1.8164    0.7075 H   0  0  0  0  0  0  0  0  0  0  0  0
   -0.9698    1.9590    0.1630 H   0  0  0  0  0  0  0  0  0  0  0  0
    0.0000    0.0000    0.0000 C   0  0  0  0  0  0  0  0  0  0  0  0
   -1.0956   -0.5946    0.0000 O   0  0  0  0  0  1  0  0  0  0  0  0
    1.0956   -0.6057   -0.0000 O   0  0  0  0  0  0  0  0  0  0  0  0
    0.4340   -3.5024    1.5525 C   0  0  0  0  0  0  0  0  0  0  0  0
    1.0032   -4.2223    1.9389 H   0  0  0  0  0  0  0  0  0  0  0  0
    0.6932   -3.3700    0.5021 H   0  0  0  0  0  0  0  0  0  0  0  0
   -0.6099   -3.8109    1.6099 H   0  0  0  0  0  0  0  0  0  0  0  0
    0.6568   -2.2085    2.3401 C   0  0  0  0  0  0  0  0  0  0  0  0
    0.9746   -1.5135    1.7154 H   0  0  0  0  0  0  0  0  0  0  0  0
   -0.1946   -1.9516    2.7667 H   0  0  0  0  0  0  0  0  0  0  0  0
    1.7050   -2.3760    3.4370 C   0  0  0  0  0  0  0  0  0  0  0  0
    1.2924   -2.8463    4.2172 H   0  0  0  0  0  0  0  0  0  0  0  0
    2.4661   -2.9199    3.0840 H   0  0  0  0  0  0  0  0  0  0  0  0
    2.0990   -1.4202    3.7825 H   0  0  0  0  0  0  0  0  0  0  0  0
  1  5  1  0
  5  6  1  0
  5  7  2  0
  1  2  1  0
  1  3  1  0
  1  4  1  0
  8 12  1  0
 12 15  1  0
  8  9  1  0
  8 10  1  0
  8 11  1  0
 12 13  1  0
 12 14  1  0
 15 16  1  0
 15 17  1  0
 15 18  1  0
M  CHG  1   6  -1
M  END
>  <PDB_ID>  (834) 
pdb1r5a

>  <RESIDUE_NAME>  (834) 
GLU   ARG

>  <FRAG_NAME>  (834) 
ACET   PRPA

>  <FRAG_ATOM_NUM>  (834) 
fragi: 7  fragj: 11

>  <atom.prop.CHAIN_ID>  (834) 
A A A A A A A Z Z Z Z Z Z Z Z Z Z Z

>  <atom.prop.IS_HEAVY_ATOM>  (834) 
1 0 0 0 1 1 1 1 0 0 0 1 0 0 1 0 0 0

>  <DIFUSE_FUNC_ATOM>  (834) 
atom 6   atom 7   

>  <FINAL_SINGLE_POINT_ENERGY>  (834) 
0

>  <NONCOV_INTER_ENERGY_QM>  (834) 
0

>  <FF_Energy>  (834) 
13.25

>  <QM_Energy>  (834) 
-2.43

>  <source>  (834) 
ACET_PRPA_08

>  <Index>  (834) 
16035

$$$$
ACET-pdb1r3h-A-ASP-1058:PRPA-pdb1r3h-A-GLU-1055
     RDKit          3D

 18 16  0  0  0  0  0  0  0  0999 V2000
   -0.0009    1.5224   -0.0014 C   0  0  0  0  0  0  0  0  0  0  0  0
    0.1981    1.8377   -0.9177 H   0  0  0  0  0  0  0  0  0  0  0  0
    0.6790    1.8397    0.6422 H   0  0  0  0  0  0  0  0  0  0  0  0
   -0.9683    1.9271    0.2958 H   0  0  0  0  0  0  0  0  0  0  0  0
    0.0000    0.0000    0.0000 C   0  0  0  0  0  0  0  0  0  0  0  0
   -1.0997   -0.5934    0.0000 O   0  0  0  0  0  1  0  0  0  0  0  0
    1.0997   -0.5958    0.0000 O   0  0  0  0  0  0  0  0  0  0  0  0
    0.5250    2.1607   -3.3868 C   0  0  0  0  0  0  0  0  0  0  0  0
    0.1922    1.8619   -2.4577 H   0  0  0  0  0  0  0  0  0  0  0  0
    1.5306    1.7714   -3.5459 H   0  0  0  0  0  0  0  0  0  0  0  0
   -0.2235    1.8909   -4.1319 H   0  0  0  0  0  0  0  0  0  0  0  0
    0.5688    3.6957   -3.2268 C   0  0  0  0  0  0  0  0  0  0  0  0
    1.1329    3.8986   -2.4434 H   0  0  0  0  0  0  0  0  0  0  0  0
    0.9465    4.0728   -4.0559 H   0  0  0  0  0  0  0  0  0  0  0  0
   -0.7955    4.3775   -2.9956 C   0  0  0  0  0  0  0  0  0  0  0  0
   -1.3891    3.7271   -2.5587 H   0  0  0  0  0  0  0  0  0  0  0  0
   -0.6466    5.1766   -2.4430 H   0  0  0  0  0  0  0  0  0  0  0  0
   -1.2862    4.7024   -3.9131 H   0  0  0  0  0  0  0  0  0  0  0  0
  1  5  1  0
  5  6  1  0
  5  7  2  0
  1  2  1  0
  1  3  1  0
  1  4  1  0
  8 12  1  0
 12 15  1  0
  8  9  1  0
  8 10  1  0
  8 11  1  0
 12 13  1  0
 12 14  1  0
 15 16  1  0
 15 17  1  0
 15 18  1  0
M  CHG  1   6  -1
M  END
>  <PDB_ID>  (835) 
pdb1r3h

>  <RESIDUE_NAME>  (835) 
ASP   GLU

>  <FRAG_NAME>  (835) 
ACET   PRPA

>  <FRAG_ATOM_NUM>  (835) 
fragi: 7  fragj: 11

>  <atom.prop.CHAIN_ID>  (835) 
A A A A A A A Z Z Z Z Z Z Z Z Z Z Z

>  <atom.prop.IS_HEAVY_ATOM>  (835) 
1 0 0 0 1 1 1 1 0 0 0 1 0 0 1 0 0 0

>  <DIFUSE_FUNC_ATOM>  (835) 
atom 6   atom 7   

>  <FINAL_SINGLE_POINT_ENERGY>  (835) 
0

>  <NONCOV_INTER_ENERGY_QM>  (835) 
0

>  <FF_Energy>  (835) 
18.38

>  <QM_Energy>  (835) 
1.79

>  <source>  (835) 
ACET_PRPA_08

>  <Index>  (835) 
16445

$$$$
ACET-pdb2wv7-B-ASP-210:PRPA-pdb2wv7-B-ARG-214
     RDKit          3D

 18 16  0  0  0  0  0  0  0  0999 V2000
    0.0663    1.5130   -0.0299 C   0  0  0  0  0  0  0  0  0  0  0  0
    0.2545    1.8053   -0.9642 H   0  0  0  0  0  0  0  0  0  0  0  0
    0.8001    1.8122    0.5742 H   0  0  0  0  0  0  0  0  0  0  0  0
   -0.8573    1.9918    0.2953 H   0  0  0  0  0  0  0  0  0  0  0  0
    0.0000    0.0000    0.0000 C   0  0  0  0  0  0  0  0  0  0  0  0
   -1.0988   -0.6223    0.0000 O   0  0  0  0  0  1  0  0  0  0  0  0
    1.0988   -0.5812    0.0000 O   0  0  0  0  0  0  0  0  0  0  0  0
   -0.8524   -3.3780    1.9817 C   0  0  0  0  0  0  0  0  0  0  0  0
   -1.1450   -4.3375    1.7687 H   0  0  0  0  0  0  0  0  0  0  0  0
   -0.8853   -2.8769    1.0877 H   0  0  0  0  0  0  0  0  0  0  0  0
   -1.6395   -2.9490    2.6018 H   0  0  0  0  0  0  0  0  0  0  0  0
    0.5062   -3.3882    2.4772 C   0  0  0  0  0  0  0  0  0  0  0  0
    0.6531   -2.6831    3.1546 H   0  0  0  0  0  0  0  0  0  0  0  0
    0.7614   -4.2789    2.8240 H   0  0  0  0  0  0  0  0  0  0  0  0
    1.4162   -3.0845    1.3025 C   0  0  0  0  0  0  0  0  0  0  0  0
    1.0301   -2.2919    0.8040 H   0  0  0  0  0  0  0  0  0  0  0  0
    2.3168   -2.8026    1.6699 H   0  0  0  0  0  0  0  0  0  0  0  0
    1.5712   -3.8974    0.5931 H   0  0  0  0  0  0  0  0  0  0  0  0
  1  5  1  0
  5  6  1  0
  5  7  2  0
  1  2  1  0
  1  3  1  0
  1  4  1  0
  8 12  1  0
 12 15  1  0
  8  9  1  0
  8 10  1  0
  8 11  1  0
 12 13  1  0
 12 14  1  0
 15 16  1  0
 15 17  1  0
 15 18  1  0
M  CHG  1   6  -1
M  END
>  <PDB_ID>  (836) 
pdb2wv7

>  <RESIDUE_NAME>  (836) 
ASP   ARG

>  <FRAG_NAME>  (836) 
ACET   PRPA

>  <FRAG_ATOM_NUM>  (836) 
fragi: 7  fragj: 11

>  <atom.prop.CHAIN_ID>  (836) 
A A A A A A A Z Z Z Z Z Z Z Z Z Z Z

>  <atom.prop.IS_HEAVY_ATOM>  (836) 
1 0 0 0 1 1 1 1 0 0 0 1 0 0 1 0 0 0

>  <DIFUSE_FUNC_ATOM>  (836) 
atom 6   atom 7   

>  <FINAL_SINGLE_POINT_ENERGY>  (836) 
0

>  <NONCOV_INTER_ENERGY_QM>  (836) 
0

>  <FF_Energy>  (836) 
14.29

>  <QM_Energy>  (836) 
-1.78

>  <source>  (836) 
ACET_PRPA_08

>  <Index>  (836) 
16911

$$$$
ACET-pdb1r4a-B-ASP-67:PRPA-pdb1r4a-B-LYS-30
     RDKit          3D

 18 16  0  0  0  0  0  0  0  0999 V2000
    0.0370    1.5324   -0.0168 C   0  0  0  0  0  0  0  0  0  0  0  0
   -0.1563    1.8420   -0.9402 H   0  0  0  0  0  0  0  0  0  0  0  0
    0.9397    1.8298    0.2700 H   0  0  0  0  0  0  0  0  0  0  0  0
   -0.6948    1.9884    0.6502 H   0  0  0  0  0  0  0  0  0  0  0  0
    0.0000    0.0000    0.0000 C   0  0  0  0  0  0  0  0  0  0  0  0
   -1.0913   -0.6171   -0.0000 O   0  0  0  0  0  1  0  0  0  0  0  0
    1.0913   -0.6003    0.0000 O   0  0  0  0  0  0  0  0  0  0  0  0
   -2.6925   -2.1262   -3.6905 C   0  0  0  0  0  0  0  0  0  0  0  0
   -3.2482   -1.5048   -4.2941 H   0  0  0  0  0  0  0  0  0  0  0  0
   -2.8839   -3.1565   -3.9906 H   0  0  0  0  0  0  0  0  0  0  0  0
   -1.6558   -1.7915   -3.7265 H   0  0  0  0  0  0  0  0  0  0  0  0
   -3.2472   -1.8848   -2.2864 C   0  0  0  0  0  0  0  0  0  0  0  0
   -2.6803   -2.3833   -1.6362 H   0  0  0  0  0  0  0  0  0  0  0  0
   -3.2049   -0.9078   -2.0980 H   0  0  0  0  0  0  0  0  0  0  0  0
   -4.6878   -2.3440   -2.1163 C   0  0  0  0  0  0  0  0  0  0  0  0
   -5.2521   -1.9281   -2.8344 H   0  0  0  0  0  0  0  0  0  0  0  0
   -4.7278   -3.3419   -2.2061 H   0  0  0  0  0  0  0  0  0  0  0  0
   -5.1012   -2.0662   -1.1467 H   0  0  0  0  0  0  0  0  0  0  0  0
  1  5  1  0
  5  6  1  0
  5  7  2  0
  1  2  1  0
  1  3  1  0
  1  4  1  0
  8 12  1  0
 12 15  1  0
  8  9  1  0
  8 10  1  0
  8 11  1  0
 12 13  1  0
 12 14  1  0
 15 16  1  0
 15 17  1  0
 15 18  1  0
M  CHG  1   6  -1
M  END
>  <PDB_ID>  (837) 
pdb1r4a

>  <RESIDUE_NAME>  (837) 
ASP   LYS

>  <FRAG_NAME>  (837) 
ACET   PRPA

>  <FRAG_ATOM_NUM>  (837) 
fragi: 7  fragj: 11

>  <atom.prop.CHAIN_ID>  (837) 
A A A A A A A Z Z Z Z Z Z Z Z Z Z Z

>  <atom.prop.IS_HEAVY_ATOM>  (837) 
1 0 0 0 1 1 1 1 0 0 0 1 0 0 1 0 0 0

>  <DIFUSE_FUNC_ATOM>  (837) 
atom 6   atom 7   

>  <FINAL_SINGLE_POINT_ENERGY>  (837) 
0

>  <NONCOV_INTER_ENERGY_QM>  (837) 
0

>  <FF_Energy>  (837) 
13.35

>  <QM_Energy>  (837) 
-2.52

>  <source>  (837) 
ACET_PRPA_08

>  <Index>  (837) 
17441

$$$$
ACET-pdb1r5z-A-ASP-3:PRPA-pdb1r5z-A-GLU-79
     RDKit          3D

 18 16  0  0  0  0  0  0  0  0999 V2000
   -0.1116    1.5876   -0.0561 C   0  0  0  0  0  0  0  0  0  0  0  0
   -1.0209    1.8251    0.2545 H   0  0  0  0  0  0  0  0  0  0  0  0
    0.0263    1.8548   -0.9977 H   0  0  0  0  0  0  0  0  0  0  0  0
    0.6181    2.1052    0.5666 H   0  0  0  0  0  0  0  0  0  0  0  0
    0.0000    0.0000    0.0000 C   0  0  0  0  0  0  0  0  0  0  0  0
   -1.0775   -0.6664    0.0000 O   0  0  0  0  0  1  0  0  0  0  0  0
    1.0775   -0.6728    0.0000 O   0  0  0  0  0  0  0  0  0  0  0  0
   -3.6777    2.7818    0.6854 C   0  0  0  0  0  0  0  0  0  0  0  0
   -4.6612    2.9872    0.5216 H   0  0  0  0  0  0  0  0  0  0  0  0
   -3.0928    3.6985    0.6094 H   0  0  0  0  0  0  0  0  0  0  0  0
   -3.5863    2.2727    1.6449 H   0  0  0  0  0  0  0  0  0  0  0  0
   -3.3660    1.7551   -0.4440 C   0  0  0  0  0  0  0  0  0  0  0  0
   -3.7276    2.1077   -1.2653 H   0  0  0  0  0  0  0  0  0  0  0  0
   -2.4155    1.5965   -0.4397 H   0  0  0  0  0  0  0  0  0  0  0  0
   -4.0691    0.4097   -0.1601 C   0  0  0  0  0  0  0  0  0  0  0  0
   -3.7707    0.0922    0.7267 H   0  0  0  0  0  0  0  0  0  0  0  0
   -5.0453    0.5662   -0.1764 H   0  0  0  0  0  0  0  0  0  0  0  0
   -3.8591   -0.3862   -0.8747 H   0  0  0  0  0  0  0  0  0  0  0  0
  1  5  1  0
  5  6  1  0
  5  7  2  0
  1  2  1  0
  1  3  1  0
  1  4  1  0
  8 12  1  0
 12 15  1  0
  8  9  1  0
  8 10  1  0
  8 11  1  0
 12 13  1  0
 12 14  1  0
 15 16  1  0
 15 17  1  0
 15 18  1  0
M  CHG  1   6  -1
M  END
>  <PDB_ID>  (838) 
pdb1r5z

>  <RESIDUE_NAME>  (838) 
ASP   GLU

>  <FRAG_NAME>  (838) 
ACET   PRPA

>  <FRAG_ATOM_NUM>  (838) 
fragi: 7  fragj: 11

>  <atom.prop.CHAIN_ID>  (838) 
A A A A A A A Z Z Z Z Z Z Z Z Z Z Z

>  <atom.prop.IS_HEAVY_ATOM>  (838) 
1 0 0 0 1 1 1 1 0 0 0 1 0 0 1 0 0 0

>  <DIFUSE_FUNC_ATOM>  (838) 
atom 6   atom 7   

>  <FINAL_SINGLE_POINT_ENERGY>  (838) 
0

>  <NONCOV_INTER_ENERGY_QM>  (838) 
0

>  <FF_Energy>  (838) 
20.02

>  <QM_Energy>  (838) 
0.83

>  <source>  (838) 
ACET_PRPA_08

>  <Index>  (838) 
18185

$$$$
ACET-pdb2xam-A-GLU-18:PRPA-pdb2xam-A-ARG-126
     RDKit          3D

 18 16  0  0  0  0  0  0  0  0999 V2000
    0.0048    1.5198    0.0118 C   0  0  0  0  0  0  0  0  0  0  0  0
   -0.8895    1.8224   -0.2522 H   0  0  0  0  0  0  0  0  0  0  0  0
    0.7046    1.8204   -0.6062 H   0  0  0  0  0  0  0  0  0  0  0  0
    0.2234    1.9281    0.9985 H   0  0  0  0  0  0  0  0  0  0  0  0
    0.0000    0.0000    0.0000 C   0  0  0  0  0  0  0  0  0  0  0  0
   -1.1011   -0.6029   -0.0000 O   0  0  0  0  0  1  0  0  0  0  0  0
    1.1011   -0.5904    0.0000 O   0  0  0  0  0  0  0  0  0  0  0  0
   -4.5824   -2.8157   -1.3914 C   0  0  0  0  0  0  0  0  0  0  0  0
   -4.5099   -1.8190   -1.2057 H   0  0  0  0  0  0  0  0  0  0  0  0
   -5.5099   -3.1844   -0.9533 H   0  0  0  0  0  0  0  0  0  0  0  0
   -4.5206   -2.9700   -2.4687 H   0  0  0  0  0  0  0  0  0  0  0  0
   -3.3940   -3.4833   -0.6938 C   0  0  0  0  0  0  0  0  0  0  0  0
   -3.7155   -4.3276   -0.2864 H   0  0  0  0  0  0  0  0  0  0  0  0
   -2.7010   -3.6635   -1.3784 H   0  0  0  0  0  0  0  0  0  0  0  0
   -2.8047   -2.6220    0.3759 C   0  0  0  0  0  0  0  0  0  0  0  0
   -2.0061   -2.1216    0.0084 H   0  0  0  0  0  0  0  0  0  0  0  0
   -3.4858   -1.9368    0.6738 H   0  0  0  0  0  0  0  0  0  0  0  0
   -2.4782   -3.1741    1.2572 H   0  0  0  0  0  0  0  0  0  0  0  0
  1  5  1  0
  5  6  1  0
  5  7  2  0
  1  2  1  0
  1  3  1  0
  1  4  1  0
  8 12  1  0
 12 15  1  0
  8  9  1  0
  8 10  1  0
  8 11  1  0
 12 13  1  0
 12 14  1  0
 15 16  1  0
 15 17  1  0
 15 18  1  0
M  CHG  1   6  -1
M  END
>  <PDB_ID>  (839) 
pdb2xam

>  <RESIDUE_NAME>  (839) 
GLU   ARG

>  <FRAG_NAME>  (839) 
ACET   PRPA

>  <FRAG_ATOM_NUM>  (839) 
fragi: 7  fragj: 11

>  <atom.prop.CHAIN_ID>  (839) 
A A A A A A A Z Z Z Z Z Z Z Z Z Z Z

>  <atom.prop.IS_HEAVY_ATOM>  (839) 
1 0 0 0 1 1 1 1 0 0 0 1 0 0 1 0 0 0

>  <DIFUSE_FUNC_ATOM>  (839) 
atom 6   atom 7   

>  <FINAL_SINGLE_POINT_ENERGY>  (839) 
0

>  <NONCOV_INTER_ENERGY_QM>  (839) 
0

>  <FF_Energy>  (839) 
35.51

>  <QM_Energy>  (839) 
2.12

>  <source>  (839) 
ACET_PRPA_08

>  <Index>  (839) 
18585

$$$$
ACET-pdb2xam-A-GLU-18:PRPA-pdb2xam-A-ARG-126
     RDKit          3D

 18 16  0  0  0  0  0  0  0  0999 V2000
    0.0048    1.5198    0.0118 C   0  0  0  0  0  0  0  0  0  0  0  0
   -0.8895    1.8224   -0.2522 H   0  0  0  0  0  0  0  0  0  0  0  0
    0.7046    1.8204   -0.6062 H   0  0  0  0  0  0  0  0  0  0  0  0
    0.2234    1.9281    0.9985 H   0  0  0  0  0  0  0  0  0  0  0  0
    0.0000    0.0000    0.0000 C   0  0  0  0  0  0  0  0  0  0  0  0
   -1.1011   -0.6029   -0.0000 O   0  0  0  0  0  1  0  0  0  0  0  0
    1.1011   -0.5904    0.0000 O   0  0  0  0  0  0  0  0  0  0  0  0
   -3.3940   -3.4833   -0.6938 C   0  0  0  0  0  0  0  0  0  0  0  0
   -3.7155   -4.3276   -0.2864 H   0  0  0  0  0  0  0  0  0  0  0  0
   -2.7010   -3.6635   -1.3784 H   0  0  0  0  0  0  0  0  0  0  0  0
   -4.2400   -3.0081   -1.1904 H   0  0  0  0  0  0  0  0  0  0  0  0
   -2.8047   -2.6220    0.3759 C   0  0  0  0  0  0  0  0  0  0  0  0
   -2.0061   -2.1216    0.0084 H   0  0  0  0  0  0  0  0  0  0  0  0
   -3.4858   -1.9368    0.6738 H   0  0  0  0  0  0  0  0  0  0  0  0
   -2.3545   -3.3835    1.5914 C   0  0  0  0  0  0  0  0  0  0  0  0
   -1.9891   -2.7231    2.2615 H   0  0  0  0  0  0  0  0  0  0  0  0
   -3.1628   -3.8285    2.0022 H   0  0  0  0  0  0  0  0  0  0  0  0
   -1.5965   -4.1425    1.3976 H   0  0  0  0  0  0  0  0  0  0  0  0
  1  5  1  0
  5  6  1  0
  5  7  2  0
  1  2  1  0
  1  3  1  0
  1  4  1  0
  8 12  1  0
 12 15  1  0
  8  9  1  0
  8 10  1  0
  8 11  1  0
 12 13  1  0
 12 14  1  0
 15 16  1  0
 15 17  1  0
 15 18  1  0
M  CHG  1   6  -1
M  END
>  <PDB_ID>  (840) 
pdb2xam

>  <RESIDUE_NAME>  (840) 
GLU   ARG

>  <FRAG_NAME>  (840) 
ACET   PRPA

>  <FRAG_ATOM_NUM>  (840) 
fragi: 7  fragj: 11

>  <atom.prop.CHAIN_ID>  (840) 
A A A A A A A Z Z Z Z Z Z Z Z Z Z Z

>  <atom.prop.IS_HEAVY_ATOM>  (840) 
1 0 0 0 1 1 1 1 0 0 0 1 0 0 1 0 0 0

>  <DIFUSE_FUNC_ATOM>  (840) 
atom 6   atom 7   

>  <FINAL_SINGLE_POINT_ENERGY>  (840) 
0

>  <NONCOV_INTER_ENERGY_QM>  (840) 
0

>  <FF_Energy>  (840) 
40.93

>  <QM_Energy>  (840) 
1.74

>  <source>  (840) 
ACET_PRPA_08

>  <Index>  (840) 
18595

$$$$
ACET-pdb2xam-A-ASP-119:PRPA-pdb2xam-A-VAL-136
     RDKit          3D

 18 16  0  0  0  0  0  0  0  0999 V2000
    0.0177    1.5241   -0.0146 C   0  0  0  0  0  0  0  0  0  0  0  0
    0.1176    1.8314   -0.9542 H   0  0  0  0  0  0  0  0  0  0  0  0
    0.7805    1.8378    0.5382 H   0  0  0  0  0  0  0  0  0  0  0  0
   -0.8948    1.9636    0.3883 H   0  0  0  0  0  0  0  0  0  0  0  0
    0.0000    0.0000    0.0000 C   0  0  0  0  0  0  0  0  0  0  0  0
   -1.0924   -0.6083    0.0000 O   0  0  0  0  0  1  0  0  0  0  0  0
    1.0924   -0.5959   -0.0000 O   0  0  0  0  0  0  0  0  0  0  0  0
   -0.0836   -1.1933   -4.4402 C   0  0  0  0  0  0  0  0  0  0  0  0
   -0.7426   -1.5588   -5.0963 H   0  0  0  0  0  0  0  0  0  0  0  0
   -0.0635   -1.8505   -3.5708 H   0  0  0  0  0  0  0  0  0  0  0  0
    0.9014   -1.2035   -4.9069 H   0  0  0  0  0  0  0  0  0  0  0  0
   -0.4748    0.2384   -4.0684 C   0  0  0  0  0  0  0  0  0  0  0  0
   -0.4408    0.7904   -4.8956 H   0  0  0  0  0  0  0  0  0  0  0  0
   -1.5038    0.2658   -3.7100 H   0  0  0  0  0  0  0  0  0  0  0  0
    0.4708    0.7916   -3.0131 C   0  0  0  0  0  0  0  0  0  0  0  0
   -0.0612    1.1315   -2.2381 H   0  0  0  0  0  0  0  0  0  0  0  0
    1.0849    0.0643   -2.7060 H   0  0  0  0  0  0  0  0  0  0  0  0
    1.0051    1.5386   -3.4072 H   0  0  0  0  0  0  0  0  0  0  0  0
  1  5  1  0
  5  6  1  0
  5  7  2  0
  1  2  1  0
  1  3  1  0
  1  4  1  0
  8 12  1  0
 12 15  1  0
  8  9  1  0
  8 10  1  0
  8 11  1  0
 12 13  1  0
 12 14  1  0
 15 16  1  0
 15 17  1  0
 15 18  1  0
M  CHG  1   6  -1
M  END
>  <PDB_ID>  (841) 
pdb2xam

>  <RESIDUE_NAME>  (841) 
ASP   VAL

>  <FRAG_NAME>  (841) 
ACET   PRPA

>  <FRAG_ATOM_NUM>  (841) 
fragi: 7  fragj: 11

>  <atom.prop.CHAIN_ID>  (841) 
A A A A A A A Z Z Z Z Z Z Z Z Z Z Z

>  <atom.prop.IS_HEAVY_ATOM>  (841) 
1 0 0 0 1 1 1 1 0 0 0 1 0 0 1 0 0 0

>  <DIFUSE_FUNC_ATOM>  (841) 
atom 6   atom 7   

>  <FINAL_SINGLE_POINT_ENERGY>  (841) 
0

>  <NONCOV_INTER_ENERGY_QM>  (841) 
0

>  <FF_Energy>  (841) 
39.15

>  <QM_Energy>  (841) 
4.09

>  <source>  (841) 
ACET_PRPA_08

>  <Index>  (841) 
18674

$$$$
ACET-pdb1rkp-A-GLU-535:PRPA-pdb1rkp-A-ARG-538
     RDKit          3D

 18 16  0  0  0  0  0  0  0  0999 V2000
   -0.0043    1.5191   -0.0007 C   0  0  0  0  0  0  0  0  0  0  0  0
   -0.5214    1.8143   -0.7811 H   0  0  0  0  0  0  0  0  0  0  0  0
    0.9294    1.8185   -0.0323 H   0  0  0  0  0  0  0  0  0  0  0  0
   -0.4678    1.9359    0.8935 H   0  0  0  0  0  0  0  0  0  0  0  0
    0.0000    0.0000    0.0000 C   0  0  0  0  0  0  0  0  0  0  0  0
   -1.0987   -0.5988    0.0000 O   0  0  0  0  0  1  0  0  0  0  0  0
    1.0987   -0.5963   -0.0000 O   0  0  0  0  0  0  0  0  0  0  0  0
   -0.7000    4.8022   -2.4070 C   0  0  0  0  0  0  0  0  0  0  0  0
   -0.8924    4.5932   -3.3604 H   0  0  0  0  0  0  0  0  0  0  0  0
    0.3571    4.6255   -2.2085 H   0  0  0  0  0  0  0  0  0  0  0  0
   -0.8960    5.8601   -2.2322 H   0  0  0  0  0  0  0  0  0  0  0  0
   -1.5714    3.9539   -1.4807 C   0  0  0  0  0  0  0  0  0  0  0  0
   -1.2086    3.0278   -1.4739 H   0  0  0  0  0  0  0  0  0  0  0  0
   -1.5304    4.3467   -0.5682 H   0  0  0  0  0  0  0  0  0  0  0  0
   -3.0287    3.8884   -1.9022 C   0  0  0  0  0  0  0  0  0  0  0  0
   -3.4218    4.8057   -1.8873 H   0  0  0  0  0  0  0  0  0  0  0  0
   -3.0921    3.5082   -2.8227 H   0  0  0  0  0  0  0  0  0  0  0  0
   -3.6140    3.2569   -1.2339 H   0  0  0  0  0  0  0  0  0  0  0  0
  1  5  1  0
  5  6  1  0
  5  7  2  0
  1  2  1  0
  1  3  1  0
  1  4  1  0
  8 12  1  0
 12 15  1  0
  8  9  1  0
  8 10  1  0
  8 11  1  0
 12 13  1  0
 12 14  1  0
 15 16  1  0
 15 17  1  0
 15 18  1  0
M  CHG  1   6  -1
M  END
>  <PDB_ID>  (842) 
pdb1rkp

>  <RESIDUE_NAME>  (842) 
GLU   ARG

>  <FRAG_NAME>  (842) 
ACET   PRPA

>  <FRAG_ATOM_NUM>  (842) 
fragi: 7  fragj: 11

>  <atom.prop.CHAIN_ID>  (842) 
A A A A A A A Z Z Z Z Z Z Z Z Z Z Z

>  <atom.prop.IS_HEAVY_ATOM>  (842) 
1 0 0 0 1 1 1 1 0 0 0 1 0 0 1 0 0 0

>  <DIFUSE_FUNC_ATOM>  (842) 
atom 6   atom 7   

>  <FINAL_SINGLE_POINT_ENERGY>  (842) 
0

>  <NONCOV_INTER_ENERGY_QM>  (842) 
0

>  <FF_Energy>  (842) 
20.06

>  <QM_Energy>  (842) 
3.07

>  <source>  (842) 
ACET_PRPA_08

>  <Index>  (842) 
21556

$$$$
ACET-pdb2xpl-A-ASP-77:PRPA-pdb2xpl-A-LYS-90
     RDKit          3D

 18 16  0  0  0  0  0  0  0  0999 V2000
    0.0249    1.5663    0.0617 C   0  0  0  0  0  0  0  0  0  0  0  0
    0.3644    1.8939   -0.8062 H   0  0  0  0  0  0  0  0  0  0  0  0
    0.6208    1.8266    0.8043 H   0  0  0  0  0  0  0  0  0  0  0  0
   -0.9606    1.9982    0.2359 H   0  0  0  0  0  0  0  0  0  0  0  0
    0.0000    0.0000    0.0000 C   0  0  0  0  0  0  0  0  0  0  0  0
   -1.1076   -0.6087    0.0000 O   0  0  0  0  0  1  0  0  0  0  0  0
    1.1076   -0.6089   -0.0000 O   0  0  0  0  0  0  0  0  0  0  0  0
    2.9356   -3.4354   -1.6054 C   0  0  0  0  0  0  0  0  0  0  0  0
    2.9421   -3.4620   -2.6239 H   0  0  0  0  0  0  0  0  0  0  0  0
    1.9228   -3.2424   -1.2519 H   0  0  0  0  0  0  0  0  0  0  0  0
    3.3431   -4.3802   -1.2458 H   0  0  0  0  0  0  0  0  0  0  0  0
    3.8505   -2.2745   -1.2420 C   0  0  0  0  0  0  0  0  0  0  0  0
    3.9903   -2.2864   -0.2454 H   0  0  0  0  0  0  0  0  0  0  0  0
    4.7403   -2.4267   -1.6887 H   0  0  0  0  0  0  0  0  0  0  0  0
    3.3510   -0.9025   -1.6340 C   0  0  0  0  0  0  0  0  0  0  0  0
    3.0277   -0.9151   -2.5854 H   0  0  0  0  0  0  0  0  0  0  0  0
    2.5895   -0.6324   -1.0382 H   0  0  0  0  0  0  0  0  0  0  0  0
    4.1138   -0.1273   -1.5600 H   0  0  0  0  0  0  0  0  0  0  0  0
  1  5  1  0
  5  6  1  0
  5  7  2  0
  1  2  1  0
  1  3  1  0
  1  4  1  0
  8 12  1  0
 12 15  1  0
  8  9  1  0
  8 10  1  0
  8 11  1  0
 12 13  1  0
 12 14  1  0
 15 16  1  0
 15 17  1  0
 15 18  1  0
M  CHG  1   6  -1
M  END
>  <PDB_ID>  (843) 
pdb2xpl

>  <RESIDUE_NAME>  (843) 
ASP   LYS

>  <FRAG_NAME>  (843) 
ACET   PRPA

>  <FRAG_ATOM_NUM>  (843) 
fragi: 7  fragj: 11

>  <atom.prop.CHAIN_ID>  (843) 
A A A A A A A Z Z Z Z Z Z Z Z Z Z Z

>  <atom.prop.IS_HEAVY_ATOM>  (843) 
1 0 0 0 1 1 1 1 0 0 0 1 0 0 1 0 0 0

>  <DIFUSE_FUNC_ATOM>  (843) 
atom 6   atom 7   

>  <FINAL_SINGLE_POINT_ENERGY>  (843) 
0

>  <NONCOV_INTER_ENERGY_QM>  (843) 
0

>  <FF_Energy>  (843) 
25.92

>  <QM_Energy>  (843) 
-0.89

>  <source>  (843) 
ACET_PRPA_08

>  <Index>  (843) 
22560

$$$$
ACET-pdb2xpl-A-ASP-77:PRPA-pdb2xpl-A-LYS-90
     RDKit          3D

 18 16  0  0  0  0  0  0  0  0999 V2000
    0.0249    1.5663    0.0617 C   0  0  0  0  0  0  0  0  0  0  0  0
    0.3644    1.8939   -0.8062 H   0  0  0  0  0  0  0  0  0  0  0  0
    0.6208    1.8266    0.8043 H   0  0  0  0  0  0  0  0  0  0  0  0
   -0.9606    1.9982    0.2359 H   0  0  0  0  0  0  0  0  0  0  0  0
    0.0000    0.0000    0.0000 C   0  0  0  0  0  0  0  0  0  0  0  0
   -1.1076   -0.6087    0.0000 O   0  0  0  0  0  1  0  0  0  0  0  0
    1.1076   -0.6089   -0.0000 O   0  0  0  0  0  0  0  0  0  0  0  0
    3.8505   -2.2745   -1.2420 C   0  0  0  0  0  0  0  0  0  0  0  0
    3.9903   -2.2864   -0.2454 H   0  0  0  0  0  0  0  0  0  0  0  0
    4.7403   -2.4267   -1.6887 H   0  0  0  0  0  0  0  0  0  0  0  0
    3.1954   -3.1059   -1.5023 H   0  0  0  0  0  0  0  0  0  0  0  0
    3.3510   -0.9025   -1.6340 C   0  0  0  0  0  0  0  0  0  0  0  0
    3.0277   -0.9151   -2.5854 H   0  0  0  0  0  0  0  0  0  0  0  0
    2.5895   -0.6324   -1.0382 H   0  0  0  0  0  0  0  0  0  0  0  0
    4.4468    0.2111   -1.5277 C   0  0  0  0  0  0  0  0  0  0  0  0
    5.2474   -0.1110   -2.0065 H   0  0  0  0  0  0  0  0  0  0  0  0
    4.0817    1.0307   -1.9375 H   0  0  0  0  0  0  0  0  0  0  0  0
    4.6946    0.4011   -0.4834 H   0  0  0  0  0  0  0  0  0  0  0  0
  1  5  1  0
  5  6  1  0
  5  7  2  0
  1  2  1  0
  1  3  1  0
  1  4  1  0
  8 12  1  0
 12 15  1  0
  8  9  1  0
  8 10  1  0
  8 11  1  0
 12 13  1  0
 12 14  1  0
 15 16  1  0
 15 17  1  0
 15 18  1  0
M  CHG  1   6  -1
M  END
>  <PDB_ID>  (844) 
pdb2xpl

>  <RESIDUE_NAME>  (844) 
ASP   LYS

>  <FRAG_NAME>  (844) 
ACET   PRPA

>  <FRAG_ATOM_NUM>  (844) 
fragi: 7  fragj: 11

>  <atom.prop.CHAIN_ID>  (844) 
A A A A A A A Z Z Z Z Z Z Z Z Z Z Z

>  <atom.prop.IS_HEAVY_ATOM>  (844) 
1 0 0 0 1 1 1 1 0 0 0 1 0 0 1 0 0 0

>  <DIFUSE_FUNC_ATOM>  (844) 
atom 6   atom 7   

>  <FINAL_SINGLE_POINT_ENERGY>  (844) 
0

>  <NONCOV_INTER_ENERGY_QM>  (844) 
0

>  <FF_Energy>  (844) 
29.69

>  <QM_Energy>  (844) 
-0.07

>  <source>  (844) 
ACET_PRPA_08

>  <Index>  (844) 
22567

$$$$
ACET-pdb2xpl-A-ASP-77:PRPA-pdb2xpl-A-LYS-90
     RDKit          3D

 18 16  0  0  0  0  0  0  0  0999 V2000
    0.0249    1.5663    0.0617 C   0  0  0  0  0  0  0  0  0  0  0  0
    0.3644    1.8939   -0.8062 H   0  0  0  0  0  0  0  0  0  0  0  0
    0.6208    1.8266    0.8043 H   0  0  0  0  0  0  0  0  0  0  0  0
   -0.9606    1.9982    0.2359 H   0  0  0  0  0  0  0  0  0  0  0  0
    0.0000    0.0000    0.0000 C   0  0  0  0  0  0  0  0  0  0  0  0
   -1.1076   -0.6087    0.0000 O   0  0  0  0  0  1  0  0  0  0  0  0
    1.1076   -0.6089   -0.0000 O   0  0  0  0  0  0  0  0  0  0  0  0
    3.3510   -0.9025   -1.6340 C   0  0  0  0  0  0  0  0  0  0  0  0
    3.0277   -0.9151   -2.5854 H   0  0  0  0  0  0  0  0  0  0  0  0
    2.5895   -0.6324   -1.0382 H   0  0  0  0  0  0  0  0  0  0  0  0
    3.7112   -1.8917   -1.3514 H   0  0  0  0  0  0  0  0  0  0  0  0
    4.4468    0.2111   -1.5277 C   0  0  0  0  0  0  0  0  0  0  0  0
    5.2474   -0.1110   -2.0065 H   0  0  0  0  0  0  0  0  0  0  0  0
    4.0817    1.0307   -1.9375 H   0  0  0  0  0  0  0  0  0  0  0  0
    4.7900    0.4742   -0.0814 C   0  0  0  0  0  0  0  0  0  0  0  0
    5.2385   -0.3214    0.2947 H   0  0  0  0  0  0  0  0  0  0  0  0
    5.3688    1.2741   -0.0250 H   0  0  0  0  0  0  0  0  0  0  0  0
    3.8523    0.6563    0.4436 H   0  0  0  0  0  0  0  0  0  0  0  0
  1  5  1  0
  5  6  1  0
  5  7  2  0
  1  2  1  0
  1  3  1  0
  1  4  1  0
  8 12  1  0
 12 15  1  0
  8  9  1  0
  8 10  1  0
  8 11  1  0
 12 13  1  0
 12 14  1  0
 15 16  1  0
 15 17  1  0
 15 18  1  0
M  CHG  1   6  -1
M  END
>  <PDB_ID>  (845) 
pdb2xpl

>  <RESIDUE_NAME>  (845) 
ASP   LYS

>  <FRAG_NAME>  (845) 
ACET   PRPA

>  <FRAG_ATOM_NUM>  (845) 
fragi: 7  fragj: 11

>  <atom.prop.CHAIN_ID>  (845) 
A A A A A A A Z Z Z Z Z Z Z Z Z Z Z

>  <atom.prop.IS_HEAVY_ATOM>  (845) 
1 0 0 0 1 1 1 1 0 0 0 1 0 0 1 0 0 0

>  <DIFUSE_FUNC_ATOM>  (845) 
atom 6   atom 7   

>  <FINAL_SINGLE_POINT_ENERGY>  (845) 
0

>  <NONCOV_INTER_ENERGY_QM>  (845) 
0

>  <FF_Energy>  (845) 
24.89

>  <QM_Energy>  (845) 
0.06

>  <source>  (845) 
ACET_PRPA_08

>  <Index>  (845) 
22577

$$$$
ACET-pdb2xpz-A-GLU-55:PRPA-pdb2xpz-A-PRO-50
     RDKit          3D

 18 16  0  0  0  0  0  0  0  0999 V2000
    0.0068    1.5375    0.0146 C   0  0  0  0  0  0  0  0  0  0  0  0
    0.9352    1.8236    0.1466 H   0  0  0  0  0  0  0  0  0  0  0  0
   -0.5853    1.8245    0.7414 H   0  0  0  0  0  0  0  0  0  0  0  0
   -0.3558    1.9761   -0.9150 H   0  0  0  0  0  0  0  0  0  0  0  0
    0.0000    0.0000    0.0000 C   0  0  0  0  0  0  0  0  0  0  0  0
   -1.0909   -0.6077   -0.0000 O   0  0  0  0  0  1  0  0  0  0  0  0
    1.0909   -0.6094   -0.0000 O   0  0  0  0  0  0  0  0  0  0  0  0
   -4.5386    1.3364    2.5470 C   0  0  0  0  0  0  0  0  0  0  0  0
   -4.0755    1.0204    3.3775 H   0  0  0  0  0  0  0  0  0  0  0  0
   -5.0551    0.5138    2.0525 H   0  0  0  0  0  0  0  0  0  0  0  0
   -5.2371    2.1401    2.7799 H   0  0  0  0  0  0  0  0  0  0  0  0
   -3.4944    1.7801    1.5138 C   0  0  0  0  0  0  0  0  0  0  0  0
   -3.8404    2.5451    0.9696 H   0  0  0  0  0  0  0  0  0  0  0  0
   -2.6452    2.0522    1.9658 H   0  0  0  0  0  0  0  0  0  0  0  0
   -3.2871    0.5677    0.6637 C   0  0  0  0  0  0  0  0  0  0  0  0
   -2.9978    0.8425   -0.2713 H   0  0  0  0  0  0  0  0  0  0  0  0
   -2.5398   -0.0038    1.0484 H   0  0  0  0  0  0  0  0  0  0  0  0
   -4.2273    0.0168    0.6370 H   0  0  0  0  0  0  0  0  0  0  0  0
  1  5  1  0
  5  6  1  0
  5  7  2  0
  1  2  1  0
  1  3  1  0
  1  4  1  0
  8 12  1  0
 12 15  1  0
  8  9  1  0
  8 10  1  0
  8 11  1  0
 12 13  1  0
 12 14  1  0
 15 16  1  0
 15 17  1  0
 15 18  1  0
M  CHG  1   6  -1
M  END
>  <PDB_ID>  (846) 
pdb2xpz

>  <RESIDUE_NAME>  (846) 
GLU   PRO

>  <FRAG_NAME>  (846) 
ACET   PRPA

>  <FRAG_ATOM_NUM>  (846) 
fragi: 7  fragj: 11

>  <atom.prop.CHAIN_ID>  (846) 
A A A A A A A Z Z Z Z Z Z Z Z Z Z Z

>  <atom.prop.IS_HEAVY_ATOM>  (846) 
1 0 0 0 1 1 1 1 0 0 0 1 0 0 1 0 0 0

>  <DIFUSE_FUNC_ATOM>  (846) 
atom 6   atom 7   

>  <FINAL_SINGLE_POINT_ENERGY>  (846) 
0

>  <NONCOV_INTER_ENERGY_QM>  (846) 
0

>  <FF_Energy>  (846) 
20.49

>  <QM_Energy>  (846) 
5.08

>  <source>  (846) 
ACET_PRPA_08

>  <Index>  (846) 
23875

$$$$
ACET-pdb2xpz-A-GLU-55:PRPA-pdb2xpz-A-PRO-50
     RDKit          3D

 18 16  0  0  0  0  0  0  0  0999 V2000
    0.0068    1.5375    0.0146 C   0  0  0  0  0  0  0  0  0  0  0  0
    0.9352    1.8236    0.1466 H   0  0  0  0  0  0  0  0  0  0  0  0
   -0.5853    1.8245    0.7414 H   0  0  0  0  0  0  0  0  0  0  0  0
   -0.3558    1.9761   -0.9150 H   0  0  0  0  0  0  0  0  0  0  0  0
    0.0000    0.0000    0.0000 C   0  0  0  0  0  0  0  0  0  0  0  0
   -1.0909   -0.6077   -0.0000 O   0  0  0  0  0  1  0  0  0  0  0  0
    1.0909   -0.6094   -0.0000 O   0  0  0  0  0  0  0  0  0  0  0  0
   -3.4944    1.7801    1.5138 C   0  0  0  0  0  0  0  0  0  0  0  0
   -3.8404    2.5451    0.9696 H   0  0  0  0  0  0  0  0  0  0  0  0
   -2.6452    2.0522    1.9658 H   0  0  0  0  0  0  0  0  0  0  0  0
   -4.2361    1.4649    2.2477 H   0  0  0  0  0  0  0  0  0  0  0  0
   -3.2871    0.5677    0.6637 C   0  0  0  0  0  0  0  0  0  0  0  0
   -2.9978    0.8425   -0.2713 H   0  0  0  0  0  0  0  0  0  0  0  0
   -2.5398   -0.0038    1.0484 H   0  0  0  0  0  0  0  0  0  0  0  0
   -4.5724   -0.1854    0.6271 C   0  0  0  0  0  0  0  0  0  0  0  0
   -5.1326    0.0700   -0.1620 H   0  0  0  0  0  0  0  0  0  0  0  0
   -4.4251   -1.1757    0.6207 H   0  0  0  0  0  0  0  0  0  0  0  0
   -5.0628    0.1182    1.5520 H   0  0  0  0  0  0  0  0  0  0  0  0
  1  5  1  0
  5  6  1  0
  5  7  2  0
  1  2  1  0
  1  3  1  0
  1  4  1  0
  8 12  1  0
 12 15  1  0
  8  9  1  0
  8 10  1  0
  8 11  1  0
 12 13  1  0
 12 14  1  0
 15 16  1  0
 15 17  1  0
 15 18  1  0
M  CHG  1   6  -1
M  END
>  <PDB_ID>  (847) 
pdb2xpz

>  <RESIDUE_NAME>  (847) 
GLU   PRO

>  <FRAG_NAME>  (847) 
ACET   PRPA

>  <FRAG_ATOM_NUM>  (847) 
fragi: 7  fragj: 11

>  <atom.prop.CHAIN_ID>  (847) 
A A A A A A A Z Z Z Z Z Z Z Z Z Z Z

>  <atom.prop.IS_HEAVY_ATOM>  (847) 
1 0 0 0 1 1 1 1 0 0 0 1 0 0 1 0 0 0

>  <DIFUSE_FUNC_ATOM>  (847) 
atom 6   atom 7   

>  <FINAL_SINGLE_POINT_ENERGY>  (847) 
0

>  <NONCOV_INTER_ENERGY_QM>  (847) 
0

>  <FF_Energy>  (847) 
21.6

>  <QM_Energy>  (847) 
4.55

>  <source>  (847) 
ACET_PRPA_08

>  <Index>  (847) 
23879

$$$$
ACET-pdb2wvs-D-GLU-306:PRPA-pdb2wvs-D-LYS-130
     RDKit          3D

 18 16  0  0  0  0  0  0  0  0999 V2000
    0.0001    1.5355    0.0435 C   0  0  0  0  0  0  0  0  0  0  0  0
   -0.6815    1.8455   -0.5776 H   0  0  0  0  0  0  0  0  0  0  0  0
    0.9005    1.8333   -0.1748 H   0  0  0  0  0  0  0  0  0  0  0  0
   -0.2517    1.9022    1.0386 H   0  0  0  0  0  0  0  0  0  0  0  0
    0.0000    0.0000    0.0000 C   0  0  0  0  0  0  0  0  0  0  0  0
   -1.1071   -0.6022   -0.0000 O   0  0  0  0  0  1  0  0  0  0  0  0
    1.1071   -0.6029    0.0000 O   0  0  0  0  0  0  0  0  0  0  0  0
    0.5573   -4.0047   -3.4475 C   0  0  0  0  0  0  0  0  0  0  0  0
    0.9089   -4.5490   -2.7058 H   0  0  0  0  0  0  0  0  0  0  0  0
    1.2728   -3.5320   -3.9305 H   0  0  0  0  0  0  0  0  0  0  0  0
    0.0056   -4.6410   -4.1394 H   0  0  0  0  0  0  0  0  0  0  0  0
   -0.4243   -2.9945   -2.8998 C   0  0  0  0  0  0  0  0  0  0  0  0
   -0.2705   -2.1225   -3.3574 H   0  0  0  0  0  0  0  0  0  0  0  0
   -1.3492   -3.3177   -3.0847 H   0  0  0  0  0  0  0  0  0  0  0  0
   -0.2432   -2.8243   -1.4377 C   0  0  0  0  0  0  0  0  0  0  0  0
    0.7669   -2.8615   -1.2283 H   0  0  0  0  0  0  0  0  0  0  0  0
   -0.5239   -1.8642   -1.1840 H   0  0  0  0  0  0  0  0  0  0  0  0
   -0.7714   -3.5356   -0.8028 H   0  0  0  0  0  0  0  0  0  0  0  0
  1  5  1  0
  5  6  1  0
  5  7  2  0
  1  2  1  0
  1  3  1  0
  1  4  1  0
  8 12  1  0
 12 15  1  0
  8  9  1  0
  8 10  1  0
  8 11  1  0
 12 13  1  0
 12 14  1  0
 15 16  1  0
 15 17  1  0
 15 18  1  0
M  CHG  1   6  -1
M  END
>  <PDB_ID>  (848) 
pdb2wvs

>  <RESIDUE_NAME>  (848) 
GLU   LYS

>  <FRAG_NAME>  (848) 
ACET   PRPA

>  <FRAG_ATOM_NUM>  (848) 
fragi: 7  fragj: 11

>  <atom.prop.CHAIN_ID>  (848) 
A A A A A A A Z Z Z Z Z Z Z Z Z Z Z

>  <atom.prop.IS_HEAVY_ATOM>  (848) 
1 0 0 0 1 1 1 1 0 0 0 1 0 0 1 0 0 0

>  <DIFUSE_FUNC_ATOM>  (848) 
atom 6   atom 7   

>  <FINAL_SINGLE_POINT_ENERGY>  (848) 
0

>  <NONCOV_INTER_ENERGY_QM>  (848) 
0

>  <FF_Energy>  (848) 
27.81

>  <QM_Energy>  (848) 
3.37

>  <source>  (848) 
ACET_PRPA_08

>  <Index>  (848) 
24043

$$$$
ACET-pdb2xot-A-GLU-224:PRPA-pdb2xot-A-LYS-199
     RDKit          3D

 18 16  0  0  0  0  0  0  0  0999 V2000
    0.1757    1.4869    0.0127 C   0  0  0  0  0  0  0  0  0  0  0  0
    0.6942    1.7405   -0.8050 H   0  0  0  0  0  0  0  0  0  0  0  0
    0.7055    1.7247    0.8270 H   0  0  0  0  0  0  0  0  0  0  0  0
   -0.7354    2.0851    0.0237 H   0  0  0  0  0  0  0  0  0  0  0  0
    0.0000    0.0000    0.0000 C   0  0  0  0  0  0  0  0  0  0  0  0
   -1.0894   -0.5568    0.0000 O   0  0  0  0  0  1  0  0  0  0  0  0
    1.0894   -0.6075   -0.0000 O   0  0  0  0  0  0  0  0  0  0  0  0
    1.3886   -0.1819    3.8990 C   0  0  0  0  0  0  0  0  0  0  0  0
    0.5349    0.0301    3.4125 H   0  0  0  0  0  0  0  0  0  0  0  0
    2.1504    0.5473    3.6234 H   0  0  0  0  0  0  0  0  0  0  0  0
    1.1921   -0.1417    4.9704 H   0  0  0  0  0  0  0  0  0  0  0  0
    1.8769   -1.6122    3.5558 C   0  0  0  0  0  0  0  0  0  0  0  0
    2.6761   -1.8083    4.1296 H   0  0  0  0  0  0  0  0  0  0  0  0
    1.1412   -2.2522    3.7965 H   0  0  0  0  0  0  0  0  0  0  0  0
    2.2666   -1.8592    2.0936 C   0  0  0  0  0  0  0  0  0  0  0  0
    1.4679   -1.6659    1.5175 H   0  0  0  0  0  0  0  0  0  0  0  0
    3.0038   -1.2227    1.8512 H   0  0  0  0  0  0  0  0  0  0  0  0
    2.5981   -2.8840    1.9259 H   0  0  0  0  0  0  0  0  0  0  0  0
  1  5  1  0
  5  6  1  0
  5  7  2  0
  1  2  1  0
  1  3  1  0
  1  4  1  0
  8 12  1  0
 12 15  1  0
  8  9  1  0
  8 10  1  0
  8 11  1  0
 12 13  1  0
 12 14  1  0
 15 16  1  0
 15 17  1  0
 15 18  1  0
M  CHG  1   6  -1
M  END
>  <PDB_ID>  (849) 
pdb2xot

>  <RESIDUE_NAME>  (849) 
GLU   LYS

>  <FRAG_NAME>  (849) 
ACET   PRPA

>  <FRAG_ATOM_NUM>  (849) 
fragi: 7  fragj: 11

>  <atom.prop.CHAIN_ID>  (849) 
A A A A A A A Z Z Z Z Z Z Z Z Z Z Z

>  <atom.prop.IS_HEAVY_ATOM>  (849) 
1 0 0 0 1 1 1 1 0 0 0 1 0 0 1 0 0 0

>  <DIFUSE_FUNC_ATOM>  (849) 
atom 6   atom 7   

>  <FINAL_SINGLE_POINT_ENERGY>  (849) 
0

>  <NONCOV_INTER_ENERGY_QM>  (849) 
0

>  <FF_Energy>  (849) 
16.79

>  <QM_Energy>  (849) 
0.61

>  <source>  (849) 
ACET_PRPA_08

>  <Index>  (849) 
25874

$$$$
ACET-pdb2xot-A-GLU-224:PRPA-pdb2xot-A-LYS-199
     RDKit          3D

 18 16  0  0  0  0  0  0  0  0999 V2000
    0.1757    1.4869    0.0127 C   0  0  0  0  0  0  0  0  0  0  0  0
    0.6942    1.7405   -0.8050 H   0  0  0  0  0  0  0  0  0  0  0  0
    0.7055    1.7247    0.8270 H   0  0  0  0  0  0  0  0  0  0  0  0
   -0.7354    2.0851    0.0237 H   0  0  0  0  0  0  0  0  0  0  0  0
    0.0000    0.0000    0.0000 C   0  0  0  0  0  0  0  0  0  0  0  0
   -1.0894   -0.5568    0.0000 O   0  0  0  0  0  1  0  0  0  0  0  0
    1.0894   -0.6075   -0.0000 O   0  0  0  0  0  0  0  0  0  0  0  0
    1.8769   -1.6122    3.5558 C   0  0  0  0  0  0  0  0  0  0  0  0
    2.6761   -1.8083    4.1296 H   0  0  0  0  0  0  0  0  0  0  0  0
    1.1412   -2.2522    3.7965 H   0  0  0  0  0  0  0  0  0  0  0  0
    1.5335   -0.6063    3.7972 H   0  0  0  0  0  0  0  0  0  0  0  0
    2.2666   -1.8592    2.0936 C   0  0  0  0  0  0  0  0  0  0  0  0
    1.4679   -1.6659    1.5175 H   0  0  0  0  0  0  0  0  0  0  0  0
    3.0038   -1.2227    1.8512 H   0  0  0  0  0  0  0  0  0  0  0  0
    2.7220   -3.2671    1.8631 C   0  0  0  0  0  0  0  0  0  0  0  0
    3.5183   -3.4565    2.4462 H   0  0  0  0  0  0  0  0  0  0  0  0
    1.9824   -3.8993    2.1111 H   0  0  0  0  0  0  0  0  0  0  0  0
    3.0031   -3.4592    0.8277 H   0  0  0  0  0  0  0  0  0  0  0  0
  1  5  1  0
  5  6  1  0
  5  7  2  0
  1  2  1  0
  1  3  1  0
  1  4  1  0
  8 12  1  0
 12 15  1  0
  8  9  1  0
  8 10  1  0
  8 11  1  0
 12 13  1  0
 12 14  1  0
 15 16  1  0
 15 17  1  0
 15 18  1  0
M  CHG  1   6  -1
M  END
>  <PDB_ID>  (850) 
pdb2xot

>  <RESIDUE_NAME>  (850) 
GLU   LYS

>  <FRAG_NAME>  (850) 
ACET   PRPA

>  <FRAG_ATOM_NUM>  (850) 
fragi: 7  fragj: 11

>  <atom.prop.CHAIN_ID>  (850) 
A A A A A A A Z Z Z Z Z Z Z Z Z Z Z

>  <atom.prop.IS_HEAVY_ATOM>  (850) 
1 0 0 0 1 1 1 1 0 0 0 1 0 0 1 0 0 0

>  <DIFUSE_FUNC_ATOM>  (850) 
atom 6   atom 7   

>  <FINAL_SINGLE_POINT_ENERGY>  (850) 
0

>  <NONCOV_INTER_ENERGY_QM>  (850) 
0

>  <FF_Energy>  (850) 
18.59

>  <QM_Energy>  (850) 
1.01

>  <source>  (850) 
ACET_PRPA_08

>  <Index>  (850) 
25885

$$$$
ACET-pdb2xot-A-GLU-224:PRPA-pdb2xot-A-LYS-199
     RDKit          3D

 18 16  0  0  0  0  0  0  0  0999 V2000
    0.1757    1.4869    0.0127 C   0  0  0  0  0  0  0  0  0  0  0  0
    0.6942    1.7405   -0.8050 H   0  0  0  0  0  0  0  0  0  0  0  0
    0.7055    1.7247    0.8270 H   0  0  0  0  0  0  0  0  0  0  0  0
   -0.7354    2.0851    0.0237 H   0  0  0  0  0  0  0  0  0  0  0  0
    0.0000    0.0000    0.0000 C   0  0  0  0  0  0  0  0  0  0  0  0
   -1.0894   -0.5568    0.0000 O   0  0  0  0  0  1  0  0  0  0  0  0
    1.0894   -0.6075   -0.0000 O   0  0  0  0  0  0  0  0  0  0  0  0
    2.2666   -1.8592    2.0936 C   0  0  0  0  0  0  0  0  0  0  0  0
    1.4679   -1.6659    1.5175 H   0  0  0  0  0  0  0  0  0  0  0  0
    3.0038   -1.2227    1.8512 H   0  0  0  0  0  0  0  0  0  0  0  0
    1.9895   -1.6836    3.1330 H   0  0  0  0  0  0  0  0  0  0  0  0
    2.7220   -3.2671    1.8631 C   0  0  0  0  0  0  0  0  0  0  0  0
    3.5183   -3.4565    2.4462 H   0  0  0  0  0  0  0  0  0  0  0  0
    1.9824   -3.8993    2.1111 H   0  0  0  0  0  0  0  0  0  0  0  0
    3.1122   -3.5338    0.4260 C   0  0  0  0  0  0  0  0  0  0  0  0
    2.3235   -3.3593   -0.1655 H   0  0  0  0  0  0  0  0  0  0  0  0
    3.8588   -2.9166    0.1688 H   0  0  0  0  0  0  0  0  0  0  0  0
    3.4389   -4.5651    0.2929 H   0  0  0  0  0  0  0  0  0  0  0  0
  1  5  1  0
  5  6  1  0
  5  7  2  0
  1  2  1  0
  1  3  1  0
  1  4  1  0
  8 12  1  0
 12 15  1  0
  8  9  1  0
  8 10  1  0
  8 11  1  0
 12 13  1  0
 12 14  1  0
 15 16  1  0
 15 17  1  0
 15 18  1  0
M  CHG  1   6  -1
M  END
>  <PDB_ID>  (851) 
pdb2xot

>  <RESIDUE_NAME>  (851) 
GLU   LYS

>  <FRAG_NAME>  (851) 
ACET   PRPA

>  <FRAG_ATOM_NUM>  (851) 
fragi: 7  fragj: 11

>  <atom.prop.CHAIN_ID>  (851) 
A A A A A A A Z Z Z Z Z Z Z Z Z Z Z

>  <atom.prop.IS_HEAVY_ATOM>  (851) 
1 0 0 0 1 1 1 1 0 0 0 1 0 0 1 0 0 0

>  <DIFUSE_FUNC_ATOM>  (851) 
atom 6   atom 7   

>  <FINAL_SINGLE_POINT_ENERGY>  (851) 
0

>  <NONCOV_INTER_ENERGY_QM>  (851) 
0

>  <FF_Energy>  (851) 
17.19

>  <QM_Energy>  (851) 
0.27

>  <source>  (851) 
ACET_PRPA_08

>  <Index>  (851) 
25901

$$$$
ACET-pdb2wv7-E-ASP-210:PRPA-pdb2wv7-E-ARG-214
     RDKit          3D

 18 16  0  0  0  0  0  0  0  0999 V2000
    0.0256    1.5263   -0.0168 C   0  0  0  0  0  0  0  0  0  0  0  0
    0.1045    1.8305   -0.9590 H   0  0  0  0  0  0  0  0  0  0  0  0
    0.8059    1.8361    0.5143 H   0  0  0  0  0  0  0  0  0  0  0  0
   -0.8722    1.9746    0.4087 H   0  0  0  0  0  0  0  0  0  0  0  0
    0.0000    0.0000    0.0000 C   0  0  0  0  0  0  0  0  0  0  0  0
   -1.0963   -0.5970    0.0000 O   0  0  0  0  0  1  0  0  0  0  0  0
    1.0963   -0.6065   -0.0000 O   0  0  0  0  0  0  0  0  0  0  0  0
   -1.4625   -2.7191    2.6955 C   0  0  0  0  0  0  0  0  0  0  0  0
   -1.7419   -3.5330    3.1815 H   0  0  0  0  0  0  0  0  0  0  0  0
   -2.3417   -2.1930    2.3235 H   0  0  0  0  0  0  0  0  0  0  0  0
   -0.9949   -2.0327    3.4014 H   0  0  0  0  0  0  0  0  0  0  0  0
   -0.5910   -2.9795    1.4840 C   0  0  0  0  0  0  0  0  0  0  0  0
   -1.1239   -3.5822    0.8530 H   0  0  0  0  0  0  0  0  0  0  0  0
   -0.4815   -2.0892    0.9937 H   0  0  0  0  0  0  0  0  0  0  0  0
    0.7348   -3.5687    1.6882 C   0  0  0  0  0  0  0  0  0  0  0  0
    1.3871   -2.8909    1.9866 H   0  0  0  0  0  0  0  0  0  0  0  0
    0.6953   -4.3348    2.3092 H   0  0  0  0  0  0  0  0  0  0  0  0
    1.0787   -3.9494    0.7265 H   0  0  0  0  0  0  0  0  0  0  0  0
  1  5  1  0
  5  6  1  0
  5  7  2  0
  1  2  1  0
  1  3  1  0
  1  4  1  0
  8 12  1  0
 12 15  1  0
  8  9  1  0
  8 10  1  0
  8 11  1  0
 12 13  1  0
 12 14  1  0
 15 16  1  0
 15 17  1  0
 15 18  1  0
M  CHG  1   6  -1
M  END
>  <PDB_ID>  (852) 
pdb2wv7

>  <RESIDUE_NAME>  (852) 
ASP   ARG

>  <FRAG_NAME>  (852) 
ACET   PRPA

>  <FRAG_ATOM_NUM>  (852) 
fragi: 7  fragj: 11

>  <atom.prop.CHAIN_ID>  (852) 
A A A A A A A Z Z Z Z Z Z Z Z Z Z Z

>  <atom.prop.IS_HEAVY_ATOM>  (852) 
1 0 0 0 1 1 1 1 0 0 0 1 0 0 1 0 0 0

>  <DIFUSE_FUNC_ATOM>  (852) 
atom 6   atom 7   

>  <FINAL_SINGLE_POINT_ENERGY>  (852) 
0

>  <NONCOV_INTER_ENERGY_QM>  (852) 
0

>  <FF_Energy>  (852) 
18.86

>  <QM_Energy>  (852) 
-1.61

>  <source>  (852) 
ACET_PRPA_08

>  <Index>  (852) 
26098

$$$$
ACET-pdb2wv7-E-ASP-210:PRPA-pdb2wv7-E-ARG-214
     RDKit          3D

 18 16  0  0  0  0  0  0  0  0999 V2000
    0.0256    1.5263   -0.0168 C   0  0  0  0  0  0  0  0  0  0  0  0
    0.1045    1.8305   -0.9590 H   0  0  0  0  0  0  0  0  0  0  0  0
    0.8059    1.8361    0.5143 H   0  0  0  0  0  0  0  0  0  0  0  0
   -0.8722    1.9746    0.4087 H   0  0  0  0  0  0  0  0  0  0  0  0
    0.0000    0.0000    0.0000 C   0  0  0  0  0  0  0  0  0  0  0  0
   -1.0963   -0.5970    0.0000 O   0  0  0  0  0  1  0  0  0  0  0  0
    1.0963   -0.6065   -0.0000 O   0  0  0  0  0  0  0  0  0  0  0  0
   -0.5910   -2.9795    1.4840 C   0  0  0  0  0  0  0  0  0  0  0  0
   -1.1239   -3.5822    0.8530 H   0  0  0  0  0  0  0  0  0  0  0  0
   -0.4815   -2.0892    0.9937 H   0  0  0  0  0  0  0  0  0  0  0  0
   -1.2180   -2.7921    2.3557 H   0  0  0  0  0  0  0  0  0  0  0  0
    0.7348   -3.5687    1.6882 C   0  0  0  0  0  0  0  0  0  0  0  0
    1.3871   -2.8909    1.9866 H   0  0  0  0  0  0  0  0  0  0  0  0
    0.6953   -4.3348    2.3092 H   0  0  0  0  0  0  0  0  0  0  0  0
    1.2171   -4.1025    0.3394 C   0  0  0  0  0  0  0  0  0  0  0  0
    1.9951   -4.7036    0.5100 H   0  0  0  0  0  0  0  0  0  0  0  0
    0.4687   -4.6254   -0.0655 H   0  0  0  0  0  0  0  0  0  0  0  0
    1.5151   -3.3056   -0.3418 H   0  0  0  0  0  0  0  0  0  0  0  0
  1  5  1  0
  5  6  1  0
  5  7  2  0
  1  2  1  0
  1  3  1  0
  1  4  1  0
  8 12  1  0
 12 15  1  0
  8  9  1  0
  8 10  1  0
  8 11  1  0
 12 13  1  0
 12 14  1  0
 15 16  1  0
 15 17  1  0
 15 18  1  0
M  CHG  1   6  -1
M  END
>  <PDB_ID>  (853) 
pdb2wv7

>  <RESIDUE_NAME>  (853) 
ASP   ARG

>  <FRAG_NAME>  (853) 
ACET   PRPA

>  <FRAG_ATOM_NUM>  (853) 
fragi: 7  fragj: 11

>  <atom.prop.CHAIN_ID>  (853) 
A A A A A A A Z Z Z Z Z Z Z Z Z Z Z

>  <atom.prop.IS_HEAVY_ATOM>  (853) 
1 0 0 0 1 1 1 1 0 0 0 1 0 0 1 0 0 0

>  <DIFUSE_FUNC_ATOM>  (853) 
atom 6   atom 7   

>  <FINAL_SINGLE_POINT_ENERGY>  (853) 
0

>  <NONCOV_INTER_ENERGY_QM>  (853) 
0

>  <FF_Energy>  (853) 
16.64

>  <QM_Energy>  (853) 
-1.4

>  <source>  (853) 
ACET_PRPA_08

>  <Index>  (853) 
26100

$$$$
ACET-pdb1rf4-A-GLU-34:PRPA-pdb1rf4-A-LYS-221
     RDKit          3D

 18 16  0  0  0  0  0  0  0  0999 V2000
    0.0044    1.5156    0.0220 C   0  0  0  0  0  0  0  0  0  0  0  0
    0.8641    1.8133   -0.3480 H   0  0  0  0  0  0  0  0  0  0  0  0
   -0.1199    1.7968    0.9547 H   0  0  0  0  0  0  0  0  0  0  0  0
   -0.7991    1.9384   -0.5811 H   0  0  0  0  0  0  0  0  0  0  0  0
    0.0000    0.0000    0.0000 C   0  0  0  0  0  0  0  0  0  0  0  0
   -1.1006   -0.5971   -0.0000 O   0  0  0  0  0  1  0  0  0  0  0  0
    1.1006   -0.5944   -0.0000 O   0  0  0  0  0  0  0  0  0  0  0  0
   -0.0649   -0.1818    4.9657 C   0  0  0  0  0  0  0  0  0  0  0  0
    0.6798   -0.8484    4.9538 H   0  0  0  0  0  0  0  0  0  0  0  0
   -0.8116   -0.5260    5.5345 H   0  0  0  0  0  0  0  0  0  0  0  0
    0.3082    0.7386    5.4148 H   0  0  0  0  0  0  0  0  0  0  0  0
   -0.5897   -0.0311    3.5330 C   0  0  0  0  0  0  0  0  0  0  0  0
   -1.5300    0.3052    3.5653 H   0  0  0  0  0  0  0  0  0  0  0  0
   -0.0167    0.6244    3.0439 H   0  0  0  0  0  0  0  0  0  0  0  0
   -0.5719   -1.3648    2.7704 C   0  0  0  0  0  0  0  0  0  0  0  0
   -0.7435   -1.1762    1.8023 H   0  0  0  0  0  0  0  0  0  0  0  0
    0.3355   -1.7745    2.8714 H   0  0  0  0  0  0  0  0  0  0  0  0
   -1.3176   -2.0764    3.1253 H   0  0  0  0  0  0  0  0  0  0  0  0
  1  5  1  0
  5  6  1  0
  5  7  2  0
  1  2  1  0
  1  3  1  0
  1  4  1  0
  8 12  1  0
 12 15  1  0
  8  9  1  0
  8 10  1  0
  8 11  1  0
 12 13  1  0
 12 14  1  0
 15 16  1  0
 15 17  1  0
 15 18  1  0
M  CHG  1   6  -1
M  END
>  <PDB_ID>  (854) 
pdb1rf4

>  <RESIDUE_NAME>  (854) 
GLU   LYS

>  <FRAG_NAME>  (854) 
ACET   PRPA

>  <FRAG_ATOM_NUM>  (854) 
fragi: 7  fragj: 11

>  <atom.prop.CHAIN_ID>  (854) 
A A A A A A A Z Z Z Z Z Z Z Z Z Z Z

>  <atom.prop.IS_HEAVY_ATOM>  (854) 
1 0 0 0 1 1 1 1 0 0 0 1 0 0 1 0 0 0

>  <DIFUSE_FUNC_ATOM>  (854) 
atom 6   atom 7   

>  <FINAL_SINGLE_POINT_ENERGY>  (854) 
0

>  <NONCOV_INTER_ENERGY_QM>  (854) 
0

>  <FF_Energy>  (854) 
14.59

>  <QM_Energy>  (854) 
-1.72

>  <source>  (854) 
ACET_PRPA_08

>  <Index>  (854) 
26818

$$$$
ACET-pdb1rf4-A-GLU-34:PRPA-pdb1rf4-A-LYS-221
     RDKit          3D

 18 16  0  0  0  0  0  0  0  0999 V2000
    0.0044    1.5156    0.0220 C   0  0  0  0  0  0  0  0  0  0  0  0
    0.8641    1.8133   -0.3480 H   0  0  0  0  0  0  0  0  0  0  0  0
   -0.1199    1.7968    0.9547 H   0  0  0  0  0  0  0  0  0  0  0  0
   -0.7991    1.9384   -0.5811 H   0  0  0  0  0  0  0  0  0  0  0  0
    0.0000    0.0000    0.0000 C   0  0  0  0  0  0  0  0  0  0  0  0
   -1.1006   -0.5971   -0.0000 O   0  0  0  0  0  1  0  0  0  0  0  0
    1.1006   -0.5944   -0.0000 O   0  0  0  0  0  0  0  0  0  0  0  0
   -0.5897   -0.0311    3.5330 C   0  0  0  0  0  0  0  0  0  0  0  0
   -1.5300    0.3052    3.5653 H   0  0  0  0  0  0  0  0  0  0  0  0
   -0.0167    0.6244    3.0439 H   0  0  0  0  0  0  0  0  0  0  0  0
   -0.2166   -0.1383    4.5516 H   0  0  0  0  0  0  0  0  0  0  0  0
   -0.5719   -1.3648    2.7704 C   0  0  0  0  0  0  0  0  0  0  0  0
   -0.7435   -1.1762    1.8023 H   0  0  0  0  0  0  0  0  0  0  0  0
    0.3355   -1.7745    2.8714 H   0  0  0  0  0  0  0  0  0  0  0  0
   -1.6129   -2.3582    3.2658 C   0  0  0  0  0  0  0  0  0  0  0  0
   -1.4546   -3.2406    2.8230 H   0  0  0  0  0  0  0  0  0  0  0  0
   -1.5174   -2.4613    4.2558 H   0  0  0  0  0  0  0  0  0  0  0  0
   -2.6213   -2.0145    3.0350 H   0  0  0  0  0  0  0  0  0  0  0  0
  1  5  1  0
  5  6  1  0
  5  7  2  0
  1  2  1  0
  1  3  1  0
  1  4  1  0
  8 12  1  0
 12 15  1  0
  8  9  1  0
  8 10  1  0
  8 11  1  0
 12 13  1  0
 12 14  1  0
 15 16  1  0
 15 17  1  0
 15 18  1  0
M  CHG  1   6  -1
M  END
>  <PDB_ID>  (855) 
pdb1rf4

>  <RESIDUE_NAME>  (855) 
GLU   LYS

>  <FRAG_NAME>  (855) 
ACET   PRPA

>  <FRAG_ATOM_NUM>  (855) 
fragi: 7  fragj: 11

>  <atom.prop.CHAIN_ID>  (855) 
A A A A A A A Z Z Z Z Z Z Z Z Z Z Z

>  <atom.prop.IS_HEAVY_ATOM>  (855) 
1 0 0 0 1 1 1 1 0 0 0 1 0 0 1 0 0 0

>  <DIFUSE_FUNC_ATOM>  (855) 
atom 6   atom 7   

>  <FINAL_SINGLE_POINT_ENERGY>  (855) 
0

>  <NONCOV_INTER_ENERGY_QM>  (855) 
0

>  <FF_Energy>  (855) 
16.96

>  <QM_Energy>  (855) 
-2.09

>  <source>  (855) 
ACET_PRPA_08

>  <Index>  (855) 
26828

$$$$
ACET-pdb2wvs-D-GLU-429:PRPA-pdb2wvs-D-ARG-470
     RDKit          3D

 18 16  0  0  0  0  0  0  0  0999 V2000
    0.0420    1.4666   -0.0079 C   0  0  0  0  0  0  0  0  0  0  0  0
   -0.3160    1.7808   -0.8760 H   0  0  0  0  0  0  0  0  0  0  0  0
    0.9842    1.7480    0.1097 H   0  0  0  0  0  0  0  0  0  0  0  0
   -0.5562    1.8989    0.7942 H   0  0  0  0  0  0  0  0  0  0  0  0
    0.0000    0.0000    0.0000 C   0  0  0  0  0  0  0  0  0  0  0  0
   -1.1192   -0.6001    0.0000 O   0  0  0  0  0  1  0  0  0  0  0  0
    1.1192   -0.5414   -0.0000 O   0  0  0  0  0  0  0  0  0  0  0  0
    1.2362   -2.6146    3.3293 C   0  0  0  0  0  0  0  0  0  0  0  0
    0.6752   -3.4191    3.5481 H   0  0  0  0  0  0  0  0  0  0  0  0
    0.6372   -1.8941    2.9660 H   0  0  0  0  0  0  0  0  0  0  0  0
    1.6615   -2.2478    4.2636 H   0  0  0  0  0  0  0  0  0  0  0  0
    2.2224   -3.0011    2.2491 C   0  0  0  0  0  0  0  0  0  0  0  0
    3.0010   -2.3817    2.2671 H   0  0  0  0  0  0  0  0  0  0  0  0
    2.5241   -3.9382    2.3905 H   0  0  0  0  0  0  0  0  0  0  0  0
    1.5815   -2.9150    0.8733 C   0  0  0  0  0  0  0  0  0  0  0  0
    0.9639   -2.1266    0.8691 H   0  0  0  0  0  0  0  0  0  0  0  0
    2.3103   -2.7656    0.2018 H   0  0  0  0  0  0  0  0  0  0  0  0
    1.0225   -3.8106    0.6021 H   0  0  0  0  0  0  0  0  0  0  0  0
  1  5  1  0
  5  6  1  0
  5  7  2  0
  1  2  1  0
  1  3  1  0
  1  4  1  0
  8 12  1  0
 12 15  1  0
  8  9  1  0
  8 10  1  0
  8 11  1  0
 12 13  1  0
 12 14  1  0
 15 16  1  0
 15 17  1  0
 15 18  1  0
M  CHG  1   6  -1
M  END
>  <PDB_ID>  (856) 
pdb2wvs

>  <RESIDUE_NAME>  (856) 
GLU   ARG

>  <FRAG_NAME>  (856) 
ACET   PRPA

>  <FRAG_ATOM_NUM>  (856) 
fragi: 7  fragj: 11

>  <atom.prop.CHAIN_ID>  (856) 
A A A A A A A Z Z Z Z Z Z Z Z Z Z Z

>  <atom.prop.IS_HEAVY_ATOM>  (856) 
1 0 0 0 1 1 1 1 0 0 0 1 0 0 1 0 0 0

>  <DIFUSE_FUNC_ATOM>  (856) 
atom 6   atom 7   

>  <FINAL_SINGLE_POINT_ENERGY>  (856) 
0

>  <NONCOV_INTER_ENERGY_QM>  (856) 
0

>  <FF_Energy>  (856) 
30.69

>  <QM_Energy>  (856) 
4.84

>  <source>  (856) 
ACET_PRPA_08

>  <Index>  (856) 
27051

$$$$
ACET-pdb1rpn-A-GLU-56:PRPA-pdb1rpn-A-LYS-72
     RDKit          3D

 18 16  0  0  0  0  0  0  0  0999 V2000
   -0.0096    1.5156    0.0135 C   0  0  0  0  0  0  0  0  0  0  0  0
    0.8024    1.8233   -0.4419 H   0  0  0  0  0  0  0  0  0  0  0  0
   -0.0501    1.8051    0.9501 H   0  0  0  0  0  0  0  0  0  0  0  0
   -0.8711    1.9294   -0.5105 H   0  0  0  0  0  0  0  0  0  0  0  0
    0.0000    0.0000    0.0000 C   0  0  0  0  0  0  0  0  0  0  0  0
   -1.0979   -0.5967   -0.0000 O   0  0  0  0  0  1  0  0  0  0  0  0
    1.0979   -0.5957   -0.0000 O   0  0  0  0  0  0  0  0  0  0  0  0
   -1.5050   -2.5164    3.4339 C   0  0  0  0  0  0  0  0  0  0  0  0
   -2.4522   -2.8237    3.4352 H   0  0  0  0  0  0  0  0  0  0  0  0
   -1.4545   -1.5640    3.1473 H   0  0  0  0  0  0  0  0  0  0  0  0
   -1.1213   -2.5877    4.4516 H   0  0  0  0  0  0  0  0  0  0  0  0
   -0.7295   -3.3615    2.4267 C   0  0  0  0  0  0  0  0  0  0  0  0
    0.2171   -3.0412    2.3967 H   0  0  0  0  0  0  0  0  0  0  0  0
   -0.7498   -4.3161    2.7203 H   0  0  0  0  0  0  0  0  0  0  0  0
   -1.3299   -3.2591    1.0342 C   0  0  0  0  0  0  0  0  0  0  0  0
   -2.2497   -3.6383    1.0502 H   0  0  0  0  0  0  0  0  0  0  0  0
   -1.3545   -2.3024    0.7621 H   0  0  0  0  0  0  0  0  0  0  0  0
   -0.7401   -3.8119    0.3031 H   0  0  0  0  0  0  0  0  0  0  0  0
  1  5  1  0
  5  6  1  0
  5  7  2  0
  1  2  1  0
  1  3  1  0
  1  4  1  0
  8 12  1  0
 12 15  1  0
  8  9  1  0
  8 10  1  0
  8 11  1  0
 12 13  1  0
 12 14  1  0
 15 16  1  0
 15 17  1  0
 15 18  1  0
M  CHG  1   6  -1
M  END
>  <PDB_ID>  (857) 
pdb1rpn

>  <RESIDUE_NAME>  (857) 
GLU   LYS

>  <FRAG_NAME>  (857) 
ACET   PRPA

>  <FRAG_ATOM_NUM>  (857) 
fragi: 7  fragj: 11

>  <atom.prop.CHAIN_ID>  (857) 
A A A A A A A Z Z Z Z Z Z Z Z Z Z Z

>  <atom.prop.IS_HEAVY_ATOM>  (857) 
1 0 0 0 1 1 1 1 0 0 0 1 0 0 1 0 0 0

>  <DIFUSE_FUNC_ATOM>  (857) 
atom 6   atom 7   

>  <FINAL_SINGLE_POINT_ENERGY>  (857) 
0

>  <NONCOV_INTER_ENERGY_QM>  (857) 
0

>  <FF_Energy>  (857) 
15.02

>  <QM_Energy>  (857) 
-1.8

>  <source>  (857) 
ACET_PRPA_08

>  <Index>  (857) 
29757

$$$$
ACET-pdb1rpn-A-GLU-56:PRPA-pdb1rpn-A-LYS-72
     RDKit          3D

 18 16  0  0  0  0  0  0  0  0999 V2000
   -0.0096    1.5156    0.0135 C   0  0  0  0  0  0  0  0  0  0  0  0
    0.8024    1.8233   -0.4419 H   0  0  0  0  0  0  0  0  0  0  0  0
   -0.0501    1.8051    0.9501 H   0  0  0  0  0  0  0  0  0  0  0  0
   -0.8711    1.9294   -0.5105 H   0  0  0  0  0  0  0  0  0  0  0  0
    0.0000    0.0000    0.0000 C   0  0  0  0  0  0  0  0  0  0  0  0
   -1.0979   -0.5967   -0.0000 O   0  0  0  0  0  1  0  0  0  0  0  0
    1.0979   -0.5957   -0.0000 O   0  0  0  0  0  0  0  0  0  0  0  0
   -0.7295   -3.3615    2.4267 C   0  0  0  0  0  0  0  0  0  0  0  0
    0.2171   -3.0412    2.3967 H   0  0  0  0  0  0  0  0  0  0  0  0
   -0.7498   -4.3161    2.7203 H   0  0  0  0  0  0  0  0  0  0  0  0
   -1.2832   -2.7581    3.1459 H   0  0  0  0  0  0  0  0  0  0  0  0
   -1.3299   -3.2591    1.0342 C   0  0  0  0  0  0  0  0  0  0  0  0
   -2.2497   -3.6383    1.0502 H   0  0  0  0  0  0  0  0  0  0  0  0
   -1.3545   -2.3024    0.7621 H   0  0  0  0  0  0  0  0  0  0  0  0
   -0.5063   -4.0311    0.0133 C   0  0  0  0  0  0  0  0  0  0  0  0
   -0.5057   -5.0028    0.2637 H   0  0  0  0  0  0  0  0  0  0  0  0
   -0.9298   -3.9295   -0.8916 H   0  0  0  0  0  0  0  0  0  0  0  0
    0.5230   -3.6758   -0.0352 H   0  0  0  0  0  0  0  0  0  0  0  0
  1  5  1  0
  5  6  1  0
  5  7  2  0
  1  2  1  0
  1  3  1  0
  1  4  1  0
  8 12  1  0
 12 15  1  0
  8  9  1  0
  8 10  1  0
  8 11  1  0
 12 13  1  0
 12 14  1  0
 15 16  1  0
 15 17  1  0
 15 18  1  0
M  CHG  1   6  -1
M  END
>  <PDB_ID>  (858) 
pdb1rpn

>  <RESIDUE_NAME>  (858) 
GLU   LYS

>  <FRAG_NAME>  (858) 
ACET   PRPA

>  <FRAG_ATOM_NUM>  (858) 
fragi: 7  fragj: 11

>  <atom.prop.CHAIN_ID>  (858) 
A A A A A A A Z Z Z Z Z Z Z Z Z Z Z

>  <atom.prop.IS_HEAVY_ATOM>  (858) 
1 0 0 0 1 1 1 1 0 0 0 1 0 0 1 0 0 0

>  <DIFUSE_FUNC_ATOM>  (858) 
atom 6   atom 7   

>  <FINAL_SINGLE_POINT_ENERGY>  (858) 
0

>  <NONCOV_INTER_ENERGY_QM>  (858) 
0

>  <FF_Energy>  (858) 
17.59

>  <QM_Energy>  (858) 
-2.42

>  <source>  (858) 
ACET_PRPA_08

>  <Index>  (858) 
29775

$$$$
ACET-pdb2xec-D-GLU-207:PRPA-pdb2xec-D-ARG-240
     RDKit          3D

 18 16  0  0  0  0  0  0  0  0999 V2000
   -0.0086    1.5111    0.0013 C   0  0  0  0  0  0  0  0  0  0  0  0
   -0.7158    1.8001    0.6225 H   0  0  0  0  0  0  0  0  0  0  0  0
   -0.1878    1.8036   -0.9218 H   0  0  0  0  0  0  0  0  0  0  0  0
    0.9420    1.9324    0.3282 H   0  0  0  0  0  0  0  0  0  0  0  0
    0.0000    0.0000    0.0000 C   0  0  0  0  0  0  0  0  0  0  0  0
   -1.0895   -0.6039   -0.0000 O   0  0  0  0  0  1  0  0  0  0  0  0
    1.0895   -0.6011    0.0000 O   0  0  0  0  0  0  0  0  0  0  0  0
   -0.9953   -4.7864    1.6360 C   0  0  0  0  0  0  0  0  0  0  0  0
   -1.9779   -4.6048    1.6204 H   0  0  0  0  0  0  0  0  0  0  0  0
   -0.8196   -5.6241    2.1522 H   0  0  0  0  0  0  0  0  0  0  0  0
   -0.6637   -4.9443    0.6098 H   0  0  0  0  0  0  0  0  0  0  0  0
   -0.3142   -3.6468    2.3385 C   0  0  0  0  0  0  0  0  0  0  0  0
   -0.3683   -3.7868    3.3282 H   0  0  0  0  0  0  0  0  0  0  0  0
    0.6469   -3.6131    2.0611 H   0  0  0  0  0  0  0  0  0  0  0  0
   -0.9541   -2.3497    2.0030 C   0  0  0  0  0  0  0  0  0  0  0  0
   -0.5836   -2.0200    1.1386 H   0  0  0  0  0  0  0  0  0  0  0  0
   -1.9384   -2.4869    1.9230 H   0  0  0  0  0  0  0  0  0  0  0  0
   -0.7606   -1.6084    2.7782 H   0  0  0  0  0  0  0  0  0  0  0  0
  1  5  1  0
  5  6  1  0
  5  7  2  0
  1  2  1  0
  1  3  1  0
  1  4  1  0
  8 12  1  0
 12 15  1  0
  8  9  1  0
  8 10  1  0
  8 11  1  0
 12 13  1  0
 12 14  1  0
 15 16  1  0
 15 17  1  0
 15 18  1  0
M  CHG  1   6  -1
M  END
>  <PDB_ID>  (859) 
pdb2xec

>  <RESIDUE_NAME>  (859) 
GLU   ARG

>  <FRAG_NAME>  (859) 
ACET   PRPA

>  <FRAG_ATOM_NUM>  (859) 
fragi: 7  fragj: 11

>  <atom.prop.CHAIN_ID>  (859) 
A A A A A A A Z Z Z Z Z Z Z Z Z Z Z

>  <atom.prop.IS_HEAVY_ATOM>  (859) 
1 0 0 0 1 1 1 1 0 0 0 1 0 0 1 0 0 0

>  <DIFUSE_FUNC_ATOM>  (859) 
atom 6   atom 7   

>  <FINAL_SINGLE_POINT_ENERGY>  (859) 
0

>  <NONCOV_INTER_ENERGY_QM>  (859) 
0

>  <FF_Energy>  (859) 
20.23

>  <QM_Energy>  (859) 
2.15

>  <source>  (859) 
ACET_PRPA_08

>  <Index>  (859) 
30706

$$$$
ACET-pdb1rp3-A-GLU-167:PRPA-pdb1rp3-A-LYS-171
     RDKit          3D

 18 16  0  0  0  0  0  0  0  0999 V2000
    0.0283    1.5276    0.0033 C   0  0  0  0  0  0  0  0  0  0  0  0
    0.4361    1.8162   -0.8443 H   0  0  0  0  0  0  0  0  0  0  0  0
    0.5571    1.8095    0.7837 H   0  0  0  0  0  0  0  0  0  0  0  0
   -0.9598    1.9817    0.0774 H   0  0  0  0  0  0  0  0  0  0  0  0
    0.0000    0.0000    0.0000 C   0  0  0  0  0  0  0  0  0  0  0  0
   -1.0934   -0.6074   -0.0000 O   0  0  0  0  0  1  0  0  0  0  0  0
    1.0934   -0.6010   -0.0000 O   0  0  0  0  0  0  0  0  0  0  0  0
    3.1043    3.7665   -1.9090 C   0  0  0  0  0  0  0  0  0  0  0  0
    3.9242    3.6212   -1.3503 H   0  0  0  0  0  0  0  0  0  0  0  0
    2.3270    3.9620   -1.3082 H   0  0  0  0  0  0  0  0  0  0  0  0
    3.2707    4.6233   -2.5619 H   0  0  0  0  0  0  0  0  0  0  0  0
    2.8146    2.5027   -2.6975 C   0  0  0  0  0  0  0  0  0  0  0  0
    1.9971    2.6540   -3.2563 H   0  0  0  0  0  0  0  0  0  0  0  0
    3.5935    2.3128   -3.2978 H   0  0  0  0  0  0  0  0  0  0  0  0
    2.5807    1.3034   -1.8123 C   0  0  0  0  0  0  0  0  0  0  0  0
    3.3958    1.1428   -1.2541 H   0  0  0  0  0  0  0  0  0  0  0  0
    1.8000    1.4835   -1.2120 H   0  0  0  0  0  0  0  0  0  0  0  0
    2.3752    0.4153   -2.4100 H   0  0  0  0  0  0  0  0  0  0  0  0
  1  5  1  0
  5  6  1  0
  5  7  2  0
  1  2  1  0
  1  3  1  0
  1  4  1  0
  8 12  1  0
 12 15  1  0
  8  9  1  0
  8 10  1  0
  8 11  1  0
 12 13  1  0
 12 14  1  0
 15 16  1  0
 15 17  1  0
 15 18  1  0
M  CHG  1   6  -1
M  END
>  <PDB_ID>  (860) 
pdb1rp3

>  <RESIDUE_NAME>  (860) 
GLU   LYS

>  <FRAG_NAME>  (860) 
ACET   PRPA

>  <FRAG_ATOM_NUM>  (860) 
fragi: 7  fragj: 11

>  <atom.prop.CHAIN_ID>  (860) 
A A A A A A A Z Z Z Z Z Z Z Z Z Z Z

>  <atom.prop.IS_HEAVY_ATOM>  (860) 
1 0 0 0 1 1 1 1 0 0 0 1 0 0 1 0 0 0

>  <DIFUSE_FUNC_ATOM>  (860) 
atom 6   atom 7   

>  <FINAL_SINGLE_POINT_ENERGY>  (860) 
0

>  <NONCOV_INTER_ENERGY_QM>  (860) 
0

>  <FF_Energy>  (860) 
47.48

>  <QM_Energy>  (860) 
5.91

>  <source>  (860) 
ACET_PRPA_08

>  <Index>  (860) 
30763

$$$$
ACET-pdb1rsg-A-ASP-138:PRPA-pdb1rsg-A-LYS-185
     RDKit          3D

 18 16  0  0  0  0  0  0  0  0999 V2000
   -0.0044    1.5162    0.0080 C   0  0  0  0  0  0  0  0  0  0  0  0
    0.9108    1.8395   -0.1985 H   0  0  0  0  0  0  0  0  0  0  0  0
   -0.2930    1.8314    0.9038 H   0  0  0  0  0  0  0  0  0  0  0  0
   -0.6852    1.9355   -0.7328 H   0  0  0  0  0  0  0  0  0  0  0  0
    0.0000    0.0000    0.0000 C   0  0  0  0  0  0  0  0  0  0  0  0
   -1.0986   -0.5955    0.0000 O   0  0  0  0  0  1  0  0  0  0  0  0
    1.0986   -0.5988    0.0000 O   0  0  0  0  0  0  0  0  0  0  0  0
   -2.9789   -2.0240    2.8168 C   0  0  0  0  0  0  0  0  0  0  0  0
   -3.0067   -2.4638    3.7130 H   0  0  0  0  0  0  0  0  0  0  0  0
   -3.7630   -2.3183    2.2734 H   0  0  0  0  0  0  0  0  0  0  0  0
   -3.0180   -0.9425    2.9476 H   0  0  0  0  0  0  0  0  0  0  0  0
   -1.7010   -2.4439    2.1033 C   0  0  0  0  0  0  0  0  0  0  0  0
   -1.6405   -1.9571    1.2373 H   0  0  0  0  0  0  0  0  0  0  0  0
   -0.9210   -2.2224    2.6798 H   0  0  0  0  0  0  0  0  0  0  0  0
   -1.6787   -3.9434    1.8168 C   0  0  0  0  0  0  0  0  0  0  0  0
   -1.7470   -4.4401    2.6873 H   0  0  0  0  0  0  0  0  0  0  0  0
   -2.4744   -4.1762    1.2492 H   0  0  0  0  0  0  0  0  0  0  0  0
   -0.7697   -4.2518    1.3005 H   0  0  0  0  0  0  0  0  0  0  0  0
  1  5  1  0
  5  6  1  0
  5  7  2  0
  1  2  1  0
  1  3  1  0
  1  4  1  0
  8 12  1  0
 12 15  1  0
  8  9  1  0
  8 10  1  0
  8 11  1  0
 12 13  1  0
 12 14  1  0
 15 16  1  0
 15 17  1  0
 15 18  1  0
M  CHG  1   6  -1
M  END
>  <PDB_ID>  (861) 
pdb1rsg

>  <RESIDUE_NAME>  (861) 
ASP   LYS

>  <FRAG_NAME>  (861) 
ACET   PRPA

>  <FRAG_ATOM_NUM>  (861) 
fragi: 7  fragj: 11

>  <atom.prop.CHAIN_ID>  (861) 
A A A A A A A Z Z Z Z Z Z Z Z Z Z Z

>  <atom.prop.IS_HEAVY_ATOM>  (861) 
1 0 0 0 1 1 1 1 0 0 0 1 0 0 1 0 0 0

>  <DIFUSE_FUNC_ATOM>  (861) 
atom 6   atom 7   

>  <FINAL_SINGLE_POINT_ENERGY>  (861) 
0

>  <NONCOV_INTER_ENERGY_QM>  (861) 
0

>  <FF_Energy>  (861) 
13.78

>  <QM_Energy>  (861) 
-1.29

>  <source>  (861) 
ACET_PRPA_08

>  <Index>  (861) 
31333

$$$$
ACET-pdb1rw9-A-GLU-120:PRPA-pdb1rw9-A-LYS-173
     RDKit          3D

 18 16  0  0  0  0  0  0  0  0999 V2000
    0.0252    1.5422    0.0226 C   0  0  0  0  0  0  0  0  0  0  0  0
   -0.2458    1.8392   -0.8764 H   0  0  0  0  0  0  0  0  0  0  0  0
    0.9521    1.8025    0.2315 H   0  0  0  0  0  0  0  0  0  0  0  0
   -0.6481    1.9727    0.7638 H   0  0  0  0  0  0  0  0  0  0  0  0
    0.0000    0.0000    0.0000 C   0  0  0  0  0  0  0  0  0  0  0  0
   -1.0998   -0.6238    0.0000 O   0  0  0  0  0  1  0  0  0  0  0  0
    1.0998   -0.5673   -0.0000 O   0  0  0  0  0  0  0  0  0  0  0  0
    4.8936   -0.8920   -0.4951 C   0  0  0  0  0  0  0  0  0  0  0  0
    5.3544   -1.5665    0.0921 H   0  0  0  0  0  0  0  0  0  0  0  0
    4.9055   -0.0006   -0.0287 H   0  0  0  0  0  0  0  0  0  0  0  0
    5.4475   -0.8060   -1.4300 H   0  0  0  0  0  0  0  0  0  0  0  0
    3.4611   -1.3187   -0.7064 C   0  0  0  0  0  0  0  0  0  0  0  0
    3.4432   -2.3021   -0.9127 H   0  0  0  0  0  0  0  0  0  0  0  0
    2.9463   -1.1579    0.1410 H   0  0  0  0  0  0  0  0  0  0  0  0
    2.7809   -0.5798   -1.8297 C   0  0  0  0  0  0  0  0  0  0  0  0
    2.7864    0.4024   -1.6287 H   0  0  0  0  0  0  0  0  0  0  0  0
    3.2827   -0.7405   -2.6825 H   0  0  0  0  0  0  0  0  0  0  0  0
    1.7507   -0.9143   -1.9524 H   0  0  0  0  0  0  0  0  0  0  0  0
  1  5  1  0
  5  6  1  0
  5  7  2  0
  1  2  1  0
  1  3  1  0
  1  4  1  0
  8 12  1  0
 12 15  1  0
  8  9  1  0
  8 10  1  0
  8 11  1  0
 12 13  1  0
 12 14  1  0
 15 16  1  0
 15 17  1  0
 15 18  1  0
M  CHG  1   6  -1
M  END
>  <PDB_ID>  (862) 
pdb1rw9

>  <RESIDUE_NAME>  (862) 
GLU   LYS

>  <FRAG_NAME>  (862) 
ACET   PRPA

>  <FRAG_ATOM_NUM>  (862) 
fragi: 7  fragj: 11

>  <atom.prop.CHAIN_ID>  (862) 
A A A A A A A Z Z Z Z Z Z Z Z Z Z Z

>  <atom.prop.IS_HEAVY_ATOM>  (862) 
1 0 0 0 1 1 1 1 0 0 0 1 0 0 1 0 0 0

>  <DIFUSE_FUNC_ATOM>  (862) 
atom 6   atom 7   

>  <FINAL_SINGLE_POINT_ENERGY>  (862) 
0

>  <NONCOV_INTER_ENERGY_QM>  (862) 
0

>  <FF_Energy>  (862) 
31.95

>  <QM_Energy>  (862) 
6.02

>  <source>  (862) 
ACET_PRPA_08

>  <Index>  (862) 
31796

$$$$
ACET-pdb1rxv-A-GLU-13:PRPA-pdb1rxv-A-LYS-205
     RDKit          3D

 18 16  0  0  0  0  0  0  0  0999 V2000
   -0.0034    1.5149   -0.0347 C   0  0  0  0  0  0  0  0  0  0  0  0
    0.8768    1.8161    0.2675 H   0  0  0  0  0  0  0  0  0  0  0  0
   -0.7331    1.8187    0.5428 H   0  0  0  0  0  0  0  0  0  0  0  0
   -0.1747    1.8815   -1.0468 H   0  0  0  0  0  0  0  0  0  0  0  0
    0.0000    0.0000    0.0000 C   0  0  0  0  0  0  0  0  0  0  0  0
   -1.1006   -0.5955    0.0000 O   0  0  0  0  0  1  0  0  0  0  0  0
    1.1006   -0.5946   -0.0000 O   0  0  0  0  0  0  0  0  0  0  0  0
    3.6884    2.0854    2.0181 C   0  0  0  0  0  0  0  0  0  0  0  0
    3.5821    3.0744    1.9147 H   0  0  0  0  0  0  0  0  0  0  0  0
    4.6606    1.8561    2.0506 H   0  0  0  0  0  0  0  0  0  0  0  0
    3.2168    1.7729    2.9497 H   0  0  0  0  0  0  0  0  0  0  0  0
    3.0621    1.3961    0.8051 C   0  0  0  0  0  0  0  0  0  0  0  0
    2.1234    1.1372    1.0374 H   0  0  0  0  0  0  0  0  0  0  0  0
    3.0490    2.0439    0.0428 H   0  0  0  0  0  0  0  0  0  0  0  0
    3.8178    0.1541    0.3740 C   0  0  0  0  0  0  0  0  0  0  0  0
    4.2031   -0.2901    1.1811 H   0  0  0  0  0  0  0  0  0  0  0  0
    3.1857   -0.4703   -0.0827 H   0  0  0  0  0  0  0  0  0  0  0  0
    4.6235    0.4161   -0.3117 H   0  0  0  0  0  0  0  0  0  0  0  0
  1  5  1  0
  5  6  1  0
  5  7  2  0
  1  2  1  0
  1  3  1  0
  1  4  1  0
  8 12  1  0
 12 15  1  0
  8  9  1  0
  8 10  1  0
  8 11  1  0
 12 13  1  0
 12 14  1  0
 15 16  1  0
 15 17  1  0
 15 18  1  0
M  CHG  1   6  -1
M  END
>  <PDB_ID>  (863) 
pdb1rxv

>  <RESIDUE_NAME>  (863) 
GLU   LYS

>  <FRAG_NAME>  (863) 
ACET   PRPA

>  <FRAG_ATOM_NUM>  (863) 
fragi: 7  fragj: 11

>  <atom.prop.CHAIN_ID>  (863) 
A A A A A A A Z Z Z Z Z Z Z Z Z Z Z

>  <atom.prop.IS_HEAVY_ATOM>  (863) 
1 0 0 0 1 1 1 1 0 0 0 1 0 0 1 0 0 0

>  <DIFUSE_FUNC_ATOM>  (863) 
atom 6   atom 7   

>  <FINAL_SINGLE_POINT_ENERGY>  (863) 
0

>  <NONCOV_INTER_ENERGY_QM>  (863) 
0

>  <FF_Energy>  (863) 
24.35

>  <QM_Energy>  (863) 
2.91

>  <source>  (863) 
ACET_PRPA_08

>  <Index>  (863) 
31807

$$$$
ACET-pdb2y1h-A-GLU-96:PRPA-pdb2y1h-A-LYS-99
     RDKit          3D

 18 16  0  0  0  0  0  0  0  0999 V2000
    0.0279    1.5140   -0.1380 C   0  0  0  0  0  0  0  0  0  0  0  0
   -0.1410    1.7263   -1.1029 H   0  0  0  0  0  0  0  0  0  0  0  0
    0.9526    1.8152    0.1054 H   0  0  0  0  0  0  0  0  0  0  0  0
   -0.6802    2.0894    0.4583 H   0  0  0  0  0  0  0  0  0  0  0  0
    0.0000    0.0000    0.0000 C   0  0  0  0  0  0  0  0  0  0  0  0
   -1.1006   -0.6003    0.0000 O   0  0  0  0  0  1  0  0  0  0  0  0
    1.1006   -0.5992    0.0000 O   0  0  0  0  0  0  0  0  0  0  0  0
    1.8689   -0.1912    4.9217 C   0  0  0  0  0  0  0  0  0  0  0  0
    2.7009    0.3124    4.6871 H   0  0  0  0  0  0  0  0  0  0  0  0
    2.0749   -1.1690    4.9673 H   0  0  0  0  0  0  0  0  0  0  0  0
    1.5526    0.1298    5.9142 H   0  0  0  0  0  0  0  0  0  0  0  0
    0.8437    0.0350    3.8228 C   0  0  0  0  0  0  0  0  0  0  0  0
    0.0073   -0.4688    4.0488 H   0  0  0  0  0  0  0  0  0  0  0  0
    0.6334    1.0124    3.7677 H   0  0  0  0  0  0  0  0  0  0  0  0
    1.3527   -0.4368    2.4756 C   0  0  0  0  0  0  0  0  0  0  0  0
    1.6986   -1.3718    2.5706 H   0  0  0  0  0  0  0  0  0  0  0  0
    0.5936   -0.4298    1.8222 H   0  0  0  0  0  0  0  0  0  0  0  0
    2.1530    0.1915    2.0847 H   0  0  0  0  0  0  0  0  0  0  0  0
  1  5  1  0
  5  6  1  0
  5  7  2  0
  1  2  1  0
  1  3  1  0
  1  4  1  0
  8 12  1  0
 12 15  1  0
  8  9  1  0
  8 10  1  0
  8 11  1  0
 12 13  1  0
 12 14  1  0
 15 16  1  0
 15 17  1  0
 15 18  1  0
M  CHG  1   6  -1
M  END
>  <PDB_ID>  (864) 
pdb2y1h

>  <RESIDUE_NAME>  (864) 
GLU   LYS

>  <FRAG_NAME>  (864) 
ACET   PRPA

>  <FRAG_ATOM_NUM>  (864) 
fragi: 7  fragj: 11

>  <atom.prop.CHAIN_ID>  (864) 
A A A A A A A Z Z Z Z Z Z Z Z Z Z Z

>  <atom.prop.IS_HEAVY_ATOM>  (864) 
1 0 0 0 1 1 1 1 0 0 0 1 0 0 1 0 0 0

>  <DIFUSE_FUNC_ATOM>  (864) 
atom 6   atom 7   

>  <FINAL_SINGLE_POINT_ENERGY>  (864) 
0

>  <NONCOV_INTER_ENERGY_QM>  (864) 
0

>  <FF_Energy>  (864) 
48.69

>  <QM_Energy>  (864) 
10.3

>  <source>  (864) 
ACET_PRPA_08

>  <Index>  (864) 
31973

$$$$
ACET-pdb1qni-C-GLU-412:PRPA-pdb1qni-C-GLU-435
     RDKit          3D

 18 16  0  0  0  0  0  0  0  0999 V2000
    0.0149    1.5249    0.0178 C   0  0  0  0  0  0  0  0  0  0  0  0
    0.9210    1.8148   -0.2390 H   0  0  0  0  0  0  0  0  0  0  0  0
   -0.2151    1.8112    0.9329 H   0  0  0  0  0  0  0  0  0  0  0  0
   -0.6953    1.9812   -0.6717 H   0  0  0  0  0  0  0  0  0  0  0  0
    0.0000    0.0000    0.0000 C   0  0  0  0  0  0  0  0  0  0  0  0
   -1.0953   -0.6004    0.0000 O   0  0  0  0  0  1  0  0  0  0  0  0
    1.0953   -0.6037   -0.0000 O   0  0  0  0  0  0  0  0  0  0  0  0
    0.9847    1.8332    3.1337 C   0  0  0  0  0  0  0  0  0  0  0  0
    0.3050    1.8053    2.3132 H   0  0  0  0  0  0  0  0  0  0  0  0
    1.9966    1.7708    2.7334 H   0  0  0  0  0  0  0  0  0  0  0  0
    0.6496    2.6181    3.8118 H   0  0  0  0  0  0  0  0  0  0  0  0
    0.6416    0.4809    3.7576 C   0  0  0  0  0  0  0  0  0  0  0  0
    0.8095   -0.2101    3.0729 H   0  0  0  0  0  0  0  0  0  0  0  0
    1.2260    0.3621    4.5440 H   0  0  0  0  0  0  0  0  0  0  0  0
   -0.7825    0.3548    4.2092 C   0  0  0  0  0  0  0  0  0  0  0  0
   -0.9632    1.0524    4.8742 H   0  0  0  0  0  0  0  0  0  0  0  0
   -1.3681    0.4185    3.4257 H   0  0  0  0  0  0  0  0  0  0  0  0
   -0.9622   -0.6111    4.6814 H   0  0  0  0  0  0  0  0  0  0  0  0
  1  5  1  0
  5  6  1  0
  5  7  2  0
  1  2  1  0
  1  3  1  0
  1  4  1  0
  8 12  1  0
 12 15  1  0
  8  9  1  0
  8 10  1  0
  8 11  1  0
 12 13  1  0
 12 14  1  0
 15 16  1  0
 15 17  1  0
 15 18  1  0
M  CHG  1   6  -1
M  END
>  <PDB_ID>  (865) 
pdb1qni

>  <RESIDUE_NAME>  (865) 
GLU   GLU

>  <FRAG_NAME>  (865) 
ACET   PRPA

>  <FRAG_ATOM_NUM>  (865) 
fragi: 7  fragj: 11

>  <atom.prop.CHAIN_ID>  (865) 
A A A A A A A Z Z Z Z Z Z Z Z Z Z Z

>  <atom.prop.IS_HEAVY_ATOM>  (865) 
1 0 0 0 1 1 1 1 0 0 0 1 0 0 1 0 0 0

>  <DIFUSE_FUNC_ATOM>  (865) 
atom 6   atom 7   

>  <FINAL_SINGLE_POINT_ENERGY>  (865) 
0

>  <NONCOV_INTER_ENERGY_QM>  (865) 
0

>  <FF_Energy>  (865) 
32.3

>  <QM_Energy>  (865) 
1.66

>  <source>  (865) 
ACET_PRPA_08

>  <Index>  (865) 
33359

$$$$
ACET-pdb2y8d-A-ASP-2453:PRPA-pdb2y8d-A-ARG-2461
     RDKit          3D

 18 16  0  0  0  0  0  0  0  0999 V2000
   -0.0010    1.5177    0.0022 C   0  0  0  0  0  0  0  0  0  0  0  0
    0.8582    1.8374   -0.3879 H   0  0  0  0  0  0  0  0  0  0  0  0
   -0.0893    1.8356    0.9414 H   0  0  0  0  0  0  0  0  0  0  0  0
   -0.8162    1.9499   -0.5781 H   0  0  0  0  0  0  0  0  0  0  0  0
    0.0000    0.0000    0.0000 C   0  0  0  0  0  0  0  0  0  0  0  0
   -1.0805   -0.6003    0.0000 O   0  0  0  0  0  1  0  0  0  0  0  0
    1.0805   -0.5934    0.0000 O   0  0  0  0  0  0  0  0  0  0  0  0
    4.4279   -1.8386   -1.0334 C   0  0  0  0  0  0  0  0  0  0  0  0
    5.3717   -2.1697   -0.9053 H   0  0  0  0  0  0  0  0  0  0  0  0
    4.4579   -1.0336   -1.6399 H   0  0  0  0  0  0  0  0  0  0  0  0
    3.8717   -2.6202   -1.5509 H   0  0  0  0  0  0  0  0  0  0  0  0
    3.8958   -1.4013    0.3061 C   0  0  0  0  0  0  0  0  0  0  0  0
    3.0565   -1.8812    0.5081 H   0  0  0  0  0  0  0  0  0  0  0  0
    4.5769   -1.5545    1.0049 H   0  0  0  0  0  0  0  0  0  0  0  0
    3.5971    0.0793    0.2505 C   0  0  0  0  0  0  0  0  0  0  0  0
    3.5751    0.3583   -0.7113 H   0  0  0  0  0  0  0  0  0  0  0  0
    2.6957    0.2318    0.6596 H   0  0  0  0  0  0  0  0  0  0  0  0
    4.3356    0.6812    0.7802 H   0  0  0  0  0  0  0  0  0  0  0  0
  1  5  1  0
  5  6  1  0
  5  7  2  0
  1  2  1  0
  1  3  1  0
  1  4  1  0
  8 12  1  0
 12 15  1  0
  8  9  1  0
  8 10  1  0
  8 11  1  0
 12 13  1  0
 12 14  1  0
 15 16  1  0
 15 17  1  0
 15 18  1  0
M  CHG  1   6  -1
M  END
>  <PDB_ID>  (866) 
pdb2y8d

>  <RESIDUE_NAME>  (866) 
ASP   ARG

>  <FRAG_NAME>  (866) 
ACET   PRPA

>  <FRAG_ATOM_NUM>  (866) 
fragi: 7  fragj: 11

>  <atom.prop.CHAIN_ID>  (866) 
A A A A A A A Z Z Z Z Z Z Z Z Z Z Z

>  <atom.prop.IS_HEAVY_ATOM>  (866) 
1 0 0 0 1 1 1 1 0 0 0 1 0 0 1 0 0 0

>  <DIFUSE_FUNC_ATOM>  (866) 
atom 6   atom 7   

>  <FINAL_SINGLE_POINT_ENERGY>  (866) 
0

>  <NONCOV_INTER_ENERGY_QM>  (866) 
0

>  <FF_Energy>  (866) 
17.71

>  <QM_Energy>  (866) 
0.77

>  <source>  (866) 
ACET_PRPA_08

>  <Index>  (866) 
33685

$$$$
ACET-pdb1rv8-A-ASP-253:PRPA-pdb1rv8-A-ARG-257
     RDKit          3D

 18 16  0  0  0  0  0  0  0  0999 V2000
    0.0046    1.5128    0.0013 C   0  0  0  0  0  0  0  0  0  0  0  0
    0.6505    1.8329   -0.6831 H   0  0  0  0  0  0  0  0  0  0  0  0
    0.2684    1.8338    0.9041 H   0  0  0  0  0  0  0  0  0  0  0  0
   -0.9711    1.9381   -0.2341 H   0  0  0  0  0  0  0  0  0  0  0  0
    0.0000    0.0000    0.0000 C   0  0  0  0  0  0  0  0  0  0  0  0
   -1.0907   -0.5982   -0.0000 O   0  0  0  0  0  1  0  0  0  0  0  0
    1.0907   -0.6009    0.0000 O   0  0  0  0  0  0  0  0  0  0  0  0
   -4.7027   -1.6997    2.9221 C   0  0  0  0  0  0  0  0  0  0  0  0
   -4.3834   -0.8563    3.3190 H   0  0  0  0  0  0  0  0  0  0  0  0
   -4.8101   -2.4075    3.5988 H   0  0  0  0  0  0  0  0  0  0  0  0
   -5.6697   -1.5183    2.4530 H   0  0  0  0  0  0  0  0  0  0  0  0
   -3.6643   -2.1692    1.9064 C   0  0  0  0  0  0  0  0  0  0  0  0
   -3.7053   -3.1739    1.8288 H   0  0  0  0  0  0  0  0  0  0  0  0
   -3.8805   -1.7752    1.0036 H   0  0  0  0  0  0  0  0  0  0  0  0
   -2.2202   -1.7876    2.2457 C   0  0  0  0  0  0  0  0  0  0  0  0
   -1.7254   -1.6797    1.3831 H   0  0  0  0  0  0  0  0  0  0  0  0
   -2.2447   -0.9114    2.7281 H   0  0  0  0  0  0  0  0  0  0  0  0
   -1.7176   -2.5309    2.8644 H   0  0  0  0  0  0  0  0  0  0  0  0
  1  5  1  0
  5  6  1  0
  5  7  2  0
  1  2  1  0
  1  3  1  0
  1  4  1  0
  8 12  1  0
 12 15  1  0
  8  9  1  0
  8 10  1  0
  8 11  1  0
 12 13  1  0
 12 14  1  0
 15 16  1  0
 15 17  1  0
 15 18  1  0
M  CHG  1   6  -1
M  END
>  <PDB_ID>  (867) 
pdb1rv8

>  <RESIDUE_NAME>  (867) 
ASP   ARG

>  <FRAG_NAME>  (867) 
ACET   PRPA

>  <FRAG_ATOM_NUM>  (867) 
fragi: 7  fragj: 11

>  <atom.prop.CHAIN_ID>  (867) 
A A A A A A A Z Z Z Z Z Z Z Z Z Z Z

>  <atom.prop.IS_HEAVY_ATOM>  (867) 
1 0 0 0 1 1 1 1 0 0 0 1 0 0 1 0 0 0

>  <DIFUSE_FUNC_ATOM>  (867) 
atom 6   atom 7   

>  <FINAL_SINGLE_POINT_ENERGY>  (867) 
0

>  <NONCOV_INTER_ENERGY_QM>  (867) 
0

>  <FF_Energy>  (867) 
17.43

>  <QM_Energy>  (867) 
-0.79

>  <source>  (867) 
ACET_PRPA_08

>  <Index>  (867) 
34284

$$$$
ACET-pdb2y8p-A-ASP-160:PRPA-pdb2y8p-A-LYS-163
     RDKit          3D

 18 16  0  0  0  0  0  0  0  0999 V2000
   -0.0059    1.5060    0.0096 C   0  0  0  0  0  0  0  0  0  0  0  0
   -0.5344    1.8327   -0.7660 H   0  0  0  0  0  0  0  0  0  0  0  0
    0.9298    1.8340   -0.0433 H   0  0  0  0  0  0  0  0  0  0  0  0
   -0.4540    1.9135    0.9158 H   0  0  0  0  0  0  0  0  0  0  0  0
    0.0000    0.0000    0.0000 C   0  0  0  0  0  0  0  0  0  0  0  0
   -1.0958   -0.5850    0.0000 O   0  0  0  0  0  1  0  0  0  0  0  0
    1.0958   -0.6017   -0.0000 O   0  0  0  0  0  0  0  0  0  0  0  0
   -2.5494   -2.0934   -1.9376 C   0  0  0  0  0  0  0  0  0  0  0  0
   -3.0068   -2.1079   -2.8321 H   0  0  0  0  0  0  0  0  0  0  0  0
   -1.9987   -1.2560   -1.8703 H   0  0  0  0  0  0  0  0  0  0  0  0
   -3.3076   -2.0810   -1.1546 H   0  0  0  0  0  0  0  0  0  0  0  0
   -1.6026   -3.3071   -1.8565 C   0  0  0  0  0  0  0  0  0  0  0  0
   -2.1588   -4.1367   -1.8223 H   0  0  0  0  0  0  0  0  0  0  0  0
   -1.0331   -3.3170   -2.6766 H   0  0  0  0  0  0  0  0  0  0  0  0
   -0.6962   -3.2738   -0.6321 C   0  0  0  0  0  0  0  0  0  0  0  0
   -0.4697   -2.3129   -0.4190 H   0  0  0  0  0  0  0  0  0  0  0  0
   -1.1975   -3.6560    0.1573 H   0  0  0  0  0  0  0  0  0  0  0  0
    0.2321   -3.8310   -0.7582 H   0  0  0  0  0  0  0  0  0  0  0  0
  1  5  1  0
  5  6  1  0
  5  7  2  0
  1  2  1  0
  1  3  1  0
  1  4  1  0
  8 12  1  0
 12 15  1  0
  8  9  1  0
  8 10  1  0
  8 11  1  0
 12 13  1  0
 12 14  1  0
 15 16  1  0
 15 17  1  0
 15 18  1  0
M  CHG  1   6  -1
M  END
>  <PDB_ID>  (868) 
pdb2y8p

>  <RESIDUE_NAME>  (868) 
ASP   LYS

>  <FRAG_NAME>  (868) 
ACET   PRPA

>  <FRAG_ATOM_NUM>  (868) 
fragi: 7  fragj: 11

>  <atom.prop.CHAIN_ID>  (868) 
A A A A A A A Z Z Z Z Z Z Z Z Z Z Z

>  <atom.prop.IS_HEAVY_ATOM>  (868) 
1 0 0 0 1 1 1 1 0 0 0 1 0 0 1 0 0 0

>  <DIFUSE_FUNC_ATOM>  (868) 
atom 6   atom 7   

>  <FINAL_SINGLE_POINT_ENERGY>  (868) 
0

>  <NONCOV_INTER_ENERGY_QM>  (868) 
0

>  <FF_Energy>  (868) 
22.26

>  <QM_Energy>  (868) 
1.62

>  <source>  (868) 
ACET_PRPA_08

>  <Index>  (868) 
35266

$$$$
ACET-pdb2y7j-D-ASP-28:PRPA-pdb2y7j-A-ARG-61
     RDKit          3D

 18 16  0  0  0  0  0  0  0  0999 V2000
    0.0168    1.5144    0.0907 C   0  0  0  0  0  0  0  0  0  0  0  0
    0.9682    1.8249    0.1346 H   0  0  0  0  0  0  0  0  0  0  0  0
   -0.4589    1.7937    0.9257 H   0  0  0  0  0  0  0  0  0  0  0  0
   -0.4567    2.0319   -0.7436 H   0  0  0  0  0  0  0  0  0  0  0  0
    0.0000    0.0000    0.0000 C   0  0  0  0  0  0  0  0  0  0  0  0
   -1.0972   -0.5779   -0.0000 O   0  0  0  0  0  1  0  0  0  0  0  0
    1.0972   -0.6083   -0.0000 O   0  0  0  0  0  0  0  0  0  0  0  0
    0.3441    1.7022    4.0972 C   0  0  0  0  0  0  0  0  0  0  0  0
   -0.5647    1.5521    3.7348 H   0  0  0  0  0  0  0  0  0  0  0  0
    0.7817    2.5680    3.6001 H   0  0  0  0  0  0  0  0  0  0  0  0
    0.2679    1.9444    5.1572 H   0  0  0  0  0  0  0  0  0  0  0  0
    1.1551    0.4089    3.8579 C   0  0  0  0  0  0  0  0  0  0  0  0
    2.0668    0.5468    4.2321 H   0  0  0  0  0  0  0  0  0  0  0  0
    0.6951   -0.3327    4.3360 H   0  0  0  0  0  0  0  0  0  0  0  0
    1.2950    0.0170    2.3934 C   0  0  0  0  0  0  0  0  0  0  0  0
    0.3862   -0.1267    2.0064 H   0  0  0  0  0  0  0  0  0  0  0  0
    1.7587    0.7526    1.9029 H   0  0  0  0  0  0  0  0  0  0  0  0
    1.8750   -0.8995    2.2843 H   0  0  0  0  0  0  0  0  0  0  0  0
  1  5  1  0
  5  6  1  0
  5  7  2  0
  1  2  1  0
  1  3  1  0
  1  4  1  0
  8 12  1  0
 12 15  1  0
  8  9  1  0
  8 10  1  0
  8 11  1  0
 12 13  1  0
 12 14  1  0
 15 16  1  0
 15 17  1  0
 15 18  1  0
M  CHG  1   6  -1
M  END
>  <PDB_ID>  (869) 
pdb2y7j

>  <RESIDUE_NAME>  (869) 
ASP   ARG

>  <FRAG_NAME>  (869) 
ACET   PRPA

>  <FRAG_ATOM_NUM>  (869) 
fragi: 7  fragj: 11

>  <atom.prop.CHAIN_ID>  (869) 
A A A A A A A Z Z Z Z Z Z Z Z Z Z Z

>  <atom.prop.IS_HEAVY_ATOM>  (869) 
1 0 0 0 1 1 1 1 0 0 0 1 0 0 1 0 0 0

>  <DIFUSE_FUNC_ATOM>  (869) 
atom 6   atom 7   

>  <FINAL_SINGLE_POINT_ENERGY>  (869) 
0

>  <NONCOV_INTER_ENERGY_QM>  (869) 
0

>  <FF_Energy>  (869) 
36.65

>  <QM_Energy>  (869) 
7.88

>  <source>  (869) 
ACET_PRPA_08

>  <Index>  (869) 
36147

$$$$
ACET-pdb1r1n-F-GLU-264:PRPA-pdb1r1n-F-ARG-101
     RDKit          3D

 18 16  0  0  0  0  0  0  0  0999 V2000
   -0.0015    1.5160   -0.0087 C   0  0  0  0  0  0  0  0  0  0  0  0
    0.9306    1.8154    0.0447 H   0  0  0  0  0  0  0  0  0  0  0  0
   -0.5392    1.8177    0.7540 H   0  0  0  0  0  0  0  0  0  0  0  0
   -0.4392    1.9239   -0.9199 H   0  0  0  0  0  0  0  0  0  0  0  0
    0.0000    0.0000    0.0000 C   0  0  0  0  0  0  0  0  0  0  0  0
   -1.0944   -0.5979   -0.0000 O   0  0  0  0  0  1  0  0  0  0  0  0
    1.0944   -0.6001   -0.0000 O   0  0  0  0  0  0  0  0  0  0  0  0
    4.9060    2.4593    0.2812 C   0  0  0  0  0  0  0  0  0  0  0  0
    5.6300    1.7845    0.1809 H   0  0  0  0  0  0  0  0  0  0  0  0
    5.1693    3.1528    0.9438 H   0  0  0  0  0  0  0  0  0  0  0  0
    4.7633    2.9480   -0.6827 H   0  0  0  0  0  0  0  0  0  0  0  0
    3.6679    1.7557    0.7967 C   0  0  0  0  0  0  0  0  0  0  0  0
    3.6519    1.8002    1.7908 H   0  0  0  0  0  0  0  0  0  0  0  0
    2.8582    2.1937    0.4193 H   0  0  0  0  0  0  0  0  0  0  0  0
    3.6694    0.3123    0.3804 C   0  0  0  0  0  0  0  0  0  0  0  0
    2.7400    0.0504    0.1414 H   0  0  0  0  0  0  0  0  0  0  0  0
    4.2706    0.2109   -0.4057 H   0  0  0  0  0  0  0  0  0  0  0  0
    4.0249   -0.3262    1.1891 H   0  0  0  0  0  0  0  0  0  0  0  0
  1  5  1  0
  5  6  1  0
  5  7  2  0
  1  2  1  0
  1  3  1  0
  1  4  1  0
  8 12  1  0
 12 15  1  0
  8  9  1  0
  8 10  1  0
  8 11  1  0
 12 13  1  0
 12 14  1  0
 15 16  1  0
 15 17  1  0
 15 18  1  0
M  CHG  1   6  -1
M  END
>  <PDB_ID>  (870) 
pdb1r1n

>  <RESIDUE_NAME>  (870) 
GLU   ARG

>  <FRAG_NAME>  (870) 
ACET   PRPA

>  <FRAG_ATOM_NUM>  (870) 
fragi: 7  fragj: 11

>  <atom.prop.CHAIN_ID>  (870) 
A A A A A A A Z Z Z Z Z Z Z Z Z Z Z

>  <atom.prop.IS_HEAVY_ATOM>  (870) 
1 0 0 0 1 1 1 1 0 0 0 1 0 0 1 0 0 0

>  <DIFUSE_FUNC_ATOM>  (870) 
atom 6   atom 7   

>  <FINAL_SINGLE_POINT_ENERGY>  (870) 
0

>  <NONCOV_INTER_ENERGY_QM>  (870) 
0

>  <FF_Energy>  (870) 
32.85

>  <QM_Energy>  (870) 
1.75

>  <source>  (870) 
ACET_PRPA_08

>  <Index>  (870) 
37685

$$$$
ACET-pdb1rqx-C-GLU-100:PRPA-pdb1rqx-C-ILE-135
     RDKit          3D

 18 16  0  0  0  0  0  0  0  0999 V2000
    0.0393    1.5089   -0.0274 C   0  0  0  0  0  0  0  0  0  0  0  0
    0.2615    1.7879   -0.9499 H   0  0  0  0  0  0  0  0  0  0  0  0
    0.7334    1.8031    0.6127 H   0  0  0  0  0  0  0  0  0  0  0  0
   -0.9005    1.9862    0.2505 H   0  0  0  0  0  0  0  0  0  0  0  0
    0.0000    0.0000    0.0000 C   0  0  0  0  0  0  0  0  0  0  0  0
   -1.1045   -0.6073    0.0000 O   0  0  0  0  0  1  0  0  0  0  0  0
    1.1045   -0.5746   -0.0000 O   0  0  0  0  0  0  0  0  0  0  0  0
   -0.3693   -1.7499    3.6086 C   0  0  0  0  0  0  0  0  0  0  0  0
    0.3029   -1.7842    4.3387 H   0  0  0  0  0  0  0  0  0  0  0  0
    0.1808   -1.8933    2.6786 H   0  0  0  0  0  0  0  0  0  0  0  0
   -1.0214   -2.6134    3.7403 H   0  0  0  0  0  0  0  0  0  0  0  0
   -1.2325   -0.4403    3.5980 C   0  0  0  0  0  0  0  0  0  0  0  0
   -1.6882   -0.3813    4.4754 H   0  0  0  0  0  0  0  0  0  0  0  0
   -0.5896    0.4309    3.4724 H   0  0  0  0  0  0  0  0  0  0  0  0
   -2.2974   -0.5148    2.5013 C   0  0  0  0  0  0  0  0  0  0  0  0
   -1.8287   -0.5748    1.6164 H   0  0  0  0  0  0  0  0  0  0  0  0
   -2.8165   -1.3637    2.6342 H   0  0  0  0  0  0  0  0  0  0  0  0
   -2.9892    0.3275    2.4874 H   0  0  0  0  0  0  0  0  0  0  0  0
  1  5  1  0
  5  6  1  0
  5  7  2  0
  1  2  1  0
  1  3  1  0
  1  4  1  0
  8 12  1  0
 12 15  1  0
  8  9  1  0
  8 10  1  0
  8 11  1  0
 12 13  1  0
 12 14  1  0
 15 16  1  0
 15 17  1  0
 15 18  1  0
M  CHG  1   6  -1
M  END
>  <PDB_ID>  (871) 
pdb1rqx

>  <RESIDUE_NAME>  (871) 
GLU   ILE

>  <FRAG_NAME>  (871) 
ACET   PRPA

>  <FRAG_ATOM_NUM>  (871) 
fragi: 7  fragj: 11

>  <atom.prop.CHAIN_ID>  (871) 
A A A A A A A Z Z Z Z Z Z Z Z Z Z Z

>  <atom.prop.IS_HEAVY_ATOM>  (871) 
1 0 0 0 1 1 1 1 0 0 0 1 0 0 1 0 0 0

>  <DIFUSE_FUNC_ATOM>  (871) 
atom 6   atom 7   

>  <FINAL_SINGLE_POINT_ENERGY>  (871) 
0

>  <NONCOV_INTER_ENERGY_QM>  (871) 
0

>  <FF_Energy>  (871) 
33.69

>  <QM_Energy>  (871) 
0.27

>  <source>  (871) 
ACET_PRPA_08

>  <Index>  (871) 
37719

$$$$
ACET-pdb1rqx-C-GLU-100:PRPA-pdb1rqx-C-ILE-135
     RDKit          3D

 18 16  0  0  0  0  0  0  0  0999 V2000
    0.0393    1.5089   -0.0274 C   0  0  0  0  0  0  0  0  0  0  0  0
    0.2615    1.7879   -0.9499 H   0  0  0  0  0  0  0  0  0  0  0  0
    0.7334    1.8031    0.6127 H   0  0  0  0  0  0  0  0  0  0  0  0
   -0.9005    1.9862    0.2505 H   0  0  0  0  0  0  0  0  0  0  0  0
    0.0000    0.0000    0.0000 C   0  0  0  0  0  0  0  0  0  0  0  0
   -1.1045   -0.6073    0.0000 O   0  0  0  0  0  1  0  0  0  0  0  0
    1.1045   -0.5746   -0.0000 O   0  0  0  0  0  0  0  0  0  0  0  0
   -1.2325   -0.4403    3.5980 C   0  0  0  0  0  0  0  0  0  0  0  0
   -1.6882   -0.3813    4.4754 H   0  0  0  0  0  0  0  0  0  0  0  0
   -0.6326   -1.3504    3.6054 H   0  0  0  0  0  0  0  0  0  0  0  0
   -0.5896    0.4309    3.4724 H   0  0  0  0  0  0  0  0  0  0  0  0
   -2.2974   -0.5148    2.5013 C   0  0  0  0  0  0  0  0  0  0  0  0
   -1.8287   -0.5748    1.6164 H   0  0  0  0  0  0  0  0  0  0  0  0
   -2.8165   -1.3637    2.6342 H   0  0  0  0  0  0  0  0  0  0  0  0
   -3.2477    0.6422    2.4823 C   0  0  0  0  0  0  0  0  0  0  0  0
   -2.7417    1.4946    2.3362 H   0  0  0  0  0  0  0  0  0  0  0  0
   -3.9118    0.5234    1.7413 H   0  0  0  0  0  0  0  0  0  0  0  0
   -3.7357    0.6953    3.3559 H   0  0  0  0  0  0  0  0  0  0  0  0
  1  5  1  0
  5  6  1  0
  5  7  2  0
  1  2  1  0
  1  3  1  0
  1  4  1  0
  8 12  1  0
 12 15  1  0
  8  9  1  0
  8 10  1  0
  8 11  1  0
 12 13  1  0
 12 14  1  0
 15 16  1  0
 15 17  1  0
 15 18  1  0
M  CHG  1   6  -1
M  END
>  <PDB_ID>  (872) 
pdb1rqx

>  <RESIDUE_NAME>  (872) 
GLU   ILE

>  <FRAG_NAME>  (872) 
ACET   PRPA

>  <FRAG_ATOM_NUM>  (872) 
fragi: 7  fragj: 11

>  <atom.prop.CHAIN_ID>  (872) 
A A A A A A A Z Z Z Z Z Z Z Z Z Z Z

>  <atom.prop.IS_HEAVY_ATOM>  (872) 
1 0 0 0 1 1 1 1 0 0 0 1 0 0 1 0 0 0

>  <DIFUSE_FUNC_ATOM>  (872) 
atom 6   atom 7   

>  <FINAL_SINGLE_POINT_ENERGY>  (872) 
0

>  <NONCOV_INTER_ENERGY_QM>  (872) 
0

>  <FF_Energy>  (872) 
39.29

>  <QM_Energy>  (872) 
0.61

>  <source>  (872) 
ACET_PRPA_08

>  <Index>  (872) 
37729

$$$$
ACET-pdb1rqx-C-GLU-100:PRPA-pdb1rqx-C-ILE-135
     RDKit          3D

 18 16  0  0  0  0  0  0  0  0999 V2000
    0.0393    1.5089   -0.0274 C   0  0  0  0  0  0  0  0  0  0  0  0
    0.2615    1.7879   -0.9499 H   0  0  0  0  0  0  0  0  0  0  0  0
    0.7334    1.8031    0.6127 H   0  0  0  0  0  0  0  0  0  0  0  0
   -0.9005    1.9862    0.2505 H   0  0  0  0  0  0  0  0  0  0  0  0
    0.0000    0.0000    0.0000 C   0  0  0  0  0  0  0  0  0  0  0  0
   -1.1045   -0.6073    0.0000 O   0  0  0  0  0  1  0  0  0  0  0  0
    1.1045   -0.5746   -0.0000 O   0  0  0  0  0  0  0  0  0  0  0  0
   -2.2974   -0.5148    2.5013 C   0  0  0  0  0  0  0  0  0  0  0  0
   -1.8287   -0.5748    1.6164 H   0  0  0  0  0  0  0  0  0  0  0  0
   -2.8165   -1.3637    2.6342 H   0  0  0  0  0  0  0  0  0  0  0  0
   -2.9892    0.3275    2.4874 H   0  0  0  0  0  0  0  0  0  0  0  0
   -1.2325   -0.4403    3.5980 C   0  0  0  0  0  0  0  0  0  0  0  0
   -1.6882   -0.3813    4.4754 H   0  0  0  0  0  0  0  0  0  0  0  0
   -0.6326   -1.3504    3.6054 H   0  0  0  0  0  0  0  0  0  0  0  0
   -0.3280    0.7853    3.4213 C   0  0  0  0  0  0  0  0  0  0  0  0
   -0.8843    1.6117    3.4618 H   0  0  0  0  0  0  0  0  0  0  0  0
    0.3507    0.7997    4.1513 H   0  0  0  0  0  0  0  0  0  0  0  0
    0.1296    0.7304    2.5372 H   0  0  0  0  0  0  0  0  0  0  0  0
  1  5  1  0
  5  6  1  0
  5  7  2  0
  1  2  1  0
  1  3  1  0
  1  4  1  0
  8 12  1  0
 12 15  1  0
  8  9  1  0
  8 10  1  0
  8 11  1  0
 12 13  1  0
 12 14  1  0
 15 16  1  0
 15 17  1  0
 15 18  1  0
M  CHG  1   6  -1
M  END
>  <PDB_ID>  (873) 
pdb1rqx

>  <RESIDUE_NAME>  (873) 
GLU   ILE

>  <FRAG_NAME>  (873) 
ACET   PRPA

>  <FRAG_ATOM_NUM>  (873) 
fragi: 7  fragj: 11

>  <atom.prop.CHAIN_ID>  (873) 
A A A A A A A Z Z Z Z Z Z Z Z Z Z Z

>  <atom.prop.IS_HEAVY_ATOM>  (873) 
1 0 0 0 1 1 1 1 0 0 0 1 0 0 1 0 0 0

>  <DIFUSE_FUNC_ATOM>  (873) 
atom 6   atom 7   

>  <FINAL_SINGLE_POINT_ENERGY>  (873) 
0

>  <NONCOV_INTER_ENERGY_QM>  (873) 
0

>  <FF_Energy>  (873) 
34.57

>  <QM_Energy>  (873) 
0.65

>  <source>  (873) 
ACET_PRPA_08

>  <Index>  (873) 
37736

$$$$
ACET-pdb1rjw-D-GLU-11:PRPA-pdb1rjw-D-GLN-8
     RDKit          3D

 18 16  0  0  0  0  0  0  0  0999 V2000
    0.0017    1.5144    0.0015 C   0  0  0  0  0  0  0  0  0  0  0  0
   -0.5011    1.8145   -0.7888 H   0  0  0  0  0  0  0  0  0  0  0  0
    0.9393    1.8122   -0.0227 H   0  0  0  0  0  0  0  0  0  0  0  0
   -0.4694    1.9423    0.8864 H   0  0  0  0  0  0  0  0  0  0  0  0
    0.0000    0.0000    0.0000 C   0  0  0  0  0  0  0  0  0  0  0  0
   -1.1010   -0.5937    0.0000 O   0  0  0  0  0  1  0  0  0  0  0  0
    1.1010   -0.5952   -0.0000 O   0  0  0  0  0  0  0  0  0  0  0  0
    2.4091    4.6960   -0.4845 C   0  0  0  0  0  0  0  0  0  0  0  0
    3.0031    5.2099   -1.0941 H   0  0  0  0  0  0  0  0  0  0  0  0
    2.5849    5.0442    0.5332 H   0  0  0  0  0  0  0  0  0  0  0  0
    1.3761    4.9351   -0.7373 H   0  0  0  0  0  0  0  0  0  0  0  0
    2.6195    3.1848   -0.5996 C   0  0  0  0  0  0  0  0  0  0  0  0
    2.1571    2.7374    0.1756 H   0  0  0  0  0  0  0  0  0  0  0  0
    2.1873    2.8658   -1.4528 H   0  0  0  0  0  0  0  0  0  0  0  0
    4.0673    2.7338   -0.6083 C   0  0  0  0  0  0  0  0  0  0  0  0
    4.5636    3.2471   -1.3078 H   0  0  0  0  0  0  0  0  0  0  0  0
    4.4690    2.9134    0.2881 H   0  0  0  0  0  0  0  0  0  0  0  0
    4.1735    1.6706   -0.8245 H   0  0  0  0  0  0  0  0  0  0  0  0
  1  5  1  0
  5  6  1  0
  5  7  2  0
  1  2  1  0
  1  3  1  0
  1  4  1  0
  8 12  1  0
 12 15  1  0
  8  9  1  0
  8 10  1  0
  8 11  1  0
 12 13  1  0
 12 14  1  0
 15 16  1  0
 15 17  1  0
 15 18  1  0
M  CHG  1   6  -1
M  END
>  <PDB_ID>  (874) 
pdb1rjw

>  <RESIDUE_NAME>  (874) 
GLU   GLN

>  <FRAG_NAME>  (874) 
ACET   PRPA

>  <FRAG_ATOM_NUM>  (874) 
fragi: 7  fragj: 11

>  <atom.prop.CHAIN_ID>  (874) 
A A A A A A A Z Z Z Z Z Z Z Z Z Z Z

>  <atom.prop.IS_HEAVY_ATOM>  (874) 
1 0 0 0 1 1 1 1 0 0 0 1 0 0 1 0 0 0

>  <DIFUSE_FUNC_ATOM>  (874) 
atom 6   atom 7   

>  <FINAL_SINGLE_POINT_ENERGY>  (874) 
0

>  <NONCOV_INTER_ENERGY_QM>  (874) 
0

>  <FF_Energy>  (874) 
24.92

>  <QM_Energy>  (874) 
4.4

>  <source>  (874) 
ACET_PRPA_08

>  <Index>  (874) 
37773

$$$$
ACET-pdb2x7j-D-ASP-319:PRPA-pdb2x7j-D-ARG-162
     RDKit          3D

 18 16  0  0  0  0  0  0  0  0999 V2000
   -0.0139    1.5152   -0.0196 C   0  0  0  0  0  0  0  0  0  0  0  0
    0.5429    1.8301   -0.7771 H   0  0  0  0  0  0  0  0  0  0  0  0
    0.3423    1.8495    0.8423 H   0  0  0  0  0  0  0  0  0  0  0  0
   -1.0194    1.9156   -0.1491 H   0  0  0  0  0  0  0  0  0  0  0  0
    0.0000    0.0000    0.0000 C   0  0  0  0  0  0  0  0  0  0  0  0
   -1.0979   -0.6026    0.0000 O   0  0  0  0  0  1  0  0  0  0  0  0
    1.0979   -0.5993   -0.0000 O   0  0  0  0  0  0  0  0  0  0  0  0
   -1.9813   -0.5855    3.2070 C   0  0  0  0  0  0  0  0  0  0  0  0
   -2.7411   -0.0543    3.5297 H   0  0  0  0  0  0  0  0  0  0  0  0
   -1.5950   -0.2250    2.3796 H   0  0  0  0  0  0  0  0  0  0  0  0
   -1.2091   -0.5843    3.9764 H   0  0  0  0  0  0  0  0  0  0  0  0
   -2.4612   -1.9965    2.9381 C   0  0  0  0  0  0  0  0  0  0  0  0
   -1.7566   -2.6561    3.2343 H   0  0  0  0  0  0  0  0  0  0  0  0
   -3.2996   -2.1765    3.4717 H   0  0  0  0  0  0  0  0  0  0  0  0
   -2.7824   -2.2973    1.4673 C   0  0  0  0  0  0  0  0  0  0  0  0
   -3.7168   -2.0357    1.3000 H   0  0  0  0  0  0  0  0  0  0  0  0
   -2.1506   -1.7894    0.9085 H   0  0  0  0  0  0  0  0  0  0  0  0
   -2.6626   -3.3639    1.2773 H   0  0  0  0  0  0  0  0  0  0  0  0
  1  5  1  0
  5  6  1  0
  5  7  2  0
  1  2  1  0
  1  3  1  0
  1  4  1  0
  8 12  1  0
 12 15  1  0
  8  9  1  0
  8 10  1  0
  8 11  1  0
 12 13  1  0
 12 14  1  0
 15 16  1  0
 15 17  1  0
 15 18  1  0
M  CHG  1   6  -1
M  END
>  <PDB_ID>  (875) 
pdb2x7j

>  <RESIDUE_NAME>  (875) 
ASP   ARG

>  <FRAG_NAME>  (875) 
ACET   PRPA

>  <FRAG_ATOM_NUM>  (875) 
fragi: 7  fragj: 11

>  <atom.prop.CHAIN_ID>  (875) 
A A A A A A A Z Z Z Z Z Z Z Z Z Z Z

>  <atom.prop.IS_HEAVY_ATOM>  (875) 
1 0 0 0 1 1 1 1 0 0 0 1 0 0 1 0 0 0

>  <DIFUSE_FUNC_ATOM>  (875) 
atom 6   atom 7   

>  <FINAL_SINGLE_POINT_ENERGY>  (875) 
0

>  <NONCOV_INTER_ENERGY_QM>  (875) 
0

>  <FF_Energy>  (875) 
32.65

>  <QM_Energy>  (875) 
-1.73

>  <source>  (875) 
ACET_PRPA_08

>  <Index>  (875) 
38803

$$$$
ACET-pdb1sfn-A-GLU-1065:PRPA-pdb1sfn-A-LYS-1103
     RDKit          3D

 18 16  0  0  0  0  0  0  0  0999 V2000
   -0.0129    1.5114    0.0343 C   0  0  0  0  0  0  0  0  0  0  0  0
    0.1189    1.7886    0.9729 H   0  0  0  0  0  0  0  0  0  0  0  0
   -0.8890    1.8088   -0.3115 H   0  0  0  0  0  0  0  0  0  0  0  0
    0.7701    1.9674   -0.5716 H   0  0  0  0  0  0  0  0  0  0  0  0
    0.0000    0.0000    0.0000 C   0  0  0  0  0  0  0  0  0  0  0  0
   -1.0988   -0.5959   -0.0000 O   0  0  0  0  0  1  0  0  0  0  0  0
    1.0988   -0.5908   -0.0000 O   0  0  0  0  0  0  0  0  0  0  0  0
   -0.3591    1.5348    3.2898 C   0  0  0  0  0  0  0  0  0  0  0  0
   -0.0308    1.2529    2.3954 H   0  0  0  0  0  0  0  0  0  0  0  0
    0.4130    2.1195    3.7899 H   0  0  0  0  0  0  0  0  0  0  0  0
   -1.2239    2.1850    3.1579 H   0  0  0  0  0  0  0  0  0  0  0  0
   -0.7192    0.3060    4.1279 C   0  0  0  0  0  0  0  0  0  0  0  0
    0.0601    0.0833    4.7058 H   0  0  0  0  0  0  0  0  0  0  0  0
   -1.5090    0.5329    4.6899 H   0  0  0  0  0  0  0  0  0  0  0  0
   -1.0619   -0.9204    3.2918 C   0  0  0  0  0  0  0  0  0  0  0  0
   -1.9559   -0.7837    2.8598 H   0  0  0  0  0  0  0  0  0  0  0  0
   -0.3680   -1.0369    2.5780 H   0  0  0  0  0  0  0  0  0  0  0  0
   -1.1021   -1.8322    3.8878 H   0  0  0  0  0  0  0  0  0  0  0  0
  1  5  1  0
  5  6  1  0
  5  7  2  0
  1  2  1  0
  1  3  1  0
  1  4  1  0
  8 12  1  0
 12 15  1  0
  8  9  1  0
  8 10  1  0
  8 11  1  0
 12 13  1  0
 12 14  1  0
 15 16  1  0
 15 17  1  0
 15 18  1  0
M  CHG  1   6  -1
M  END
>  <PDB_ID>  (876) 
pdb1sfn

>  <RESIDUE_NAME>  (876) 
GLU   LYS

>  <FRAG_NAME>  (876) 
ACET   PRPA

>  <FRAG_ATOM_NUM>  (876) 
fragi: 7  fragj: 11

>  <atom.prop.CHAIN_ID>  (876) 
A A A A A A A Z Z Z Z Z Z Z Z Z Z Z

>  <atom.prop.IS_HEAVY_ATOM>  (876) 
1 0 0 0 1 1 1 1 0 0 0 1 0 0 1 0 0 0

>  <DIFUSE_FUNC_ATOM>  (876) 
atom 6   atom 7   

>  <FINAL_SINGLE_POINT_ENERGY>  (876) 
0

>  <NONCOV_INTER_ENERGY_QM>  (876) 
0

>  <FF_Energy>  (876) 
23.41

>  <QM_Energy>  (876) 
1.32

>  <source>  (876) 
ACET_PRPA_09

>  <Index>  (876) 
594

$$$$
ACET-pdb1sgv-A-ASP-166:PRPA-pdb1sgv-A-ARG-75
     RDKit          3D

 18 16  0  0  0  0  0  0  0  0999 V2000
   -0.0367    1.5279    0.0111 C   0  0  0  0  0  0  0  0  0  0  0  0
    0.6869    1.8641   -0.5794 H   0  0  0  0  0  0  0  0  0  0  0  0
    0.0987    1.8402    0.9431 H   0  0  0  0  0  0  0  0  0  0  0  0
   -0.9826    1.9332   -0.3481 H   0  0  0  0  0  0  0  0  0  0  0  0
    0.0000    0.0000    0.0000 C   0  0  0  0  0  0  0  0  0  0  0  0
   -1.0706   -0.6434   -0.0000 O   0  0  0  0  0  1  0  0  0  0  0  0
    1.0706   -0.6472   -0.0000 O   0  0  0  0  0  0  0  0  0  0  0  0
   -3.7898   -2.4022    1.1273 C   0  0  0  0  0  0  0  0  0  0  0  0
   -2.9380   -2.3446    1.6392 H   0  0  0  0  0  0  0  0  0  0  0  0
   -4.4565   -2.9422    1.6317 H   0  0  0  0  0  0  0  0  0  0  0  0
   -4.1860   -1.3938    1.0082 H   0  0  0  0  0  0  0  0  0  0  0  0
   -3.5062   -3.1074   -0.1833 C   0  0  0  0  0  0  0  0  0  0  0  0
   -3.8212   -4.0571   -0.1249 H   0  0  0  0  0  0  0  0  0  0  0  0
   -3.9996   -2.6448   -0.9226 H   0  0  0  0  0  0  0  0  0  0  0  0
   -2.0376   -3.1157   -0.5283 C   0  0  0  0  0  0  0  0  0  0  0  0
   -1.9509   -3.1245   -1.5246 H   0  0  0  0  0  0  0  0  0  0  0  0
   -1.6284   -2.2771   -0.1661 H   0  0  0  0  0  0  0  0  0  0  0  0
   -1.5178   -3.9794   -0.1136 H   0  0  0  0  0  0  0  0  0  0  0  0
  1  5  1  0
  5  6  1  0
  5  7  2  0
  1  2  1  0
  1  3  1  0
  1  4  1  0
  8 12  1  0
 12 15  1  0
  8  9  1  0
  8 10  1  0
  8 11  1  0
 12 13  1  0
 12 14  1  0
 15 16  1  0
 15 17  1  0
 15 18  1  0
M  CHG  1   6  -1
M  END
>  <PDB_ID>  (877) 
pdb1sgv

>  <RESIDUE_NAME>  (877) 
ASP   ARG

>  <FRAG_NAME>  (877) 
ACET   PRPA

>  <FRAG_ATOM_NUM>  (877) 
fragi: 7  fragj: 11

>  <atom.prop.CHAIN_ID>  (877) 
A A A A A A A Z Z Z Z Z Z Z Z Z Z Z

>  <atom.prop.IS_HEAVY_ATOM>  (877) 
1 0 0 0 1 1 1 1 0 0 0 1 0 0 1 0 0 0

>  <DIFUSE_FUNC_ATOM>  (877) 
atom 6   atom 7   

>  <FINAL_SINGLE_POINT_ENERGY>  (877) 
0

>  <NONCOV_INTER_ENERGY_QM>  (877) 
0

>  <FF_Energy>  (877) 
44.42

>  <QM_Energy>  (877) 
1.52

>  <source>  (877) 
ACET_PRPA_09

>  <Index>  (877) 
1460

$$$$
ACET-pdb1s5u-G-ASP-73:PRPA-pdb1s5u-F-GLN-47
     RDKit          3D

 18 16  0  0  0  0  0  0  0  0999 V2000
   -0.0005    1.5044    0.0108 C   0  0  0  0  0  0  0  0  0  0  0  0
    0.9329    1.8302   -0.0964 H   0  0  0  0  0  0  0  0  0  0  0  0
   -0.3807    1.8237    0.8717 H   0  0  0  0  0  0  0  0  0  0  0  0
   -0.5969    1.9306   -0.7960 H   0  0  0  0  0  0  0  0  0  0  0  0
    0.0000    0.0000    0.0000 C   0  0  0  0  0  0  0  0  0  0  0  0
   -1.0966   -0.5925   -0.0000 O   0  0  0  0  0  1  0  0  0  0  0  0
    1.0966   -0.5920    0.0000 O   0  0  0  0  0  0  0  0  0  0  0  0
    3.6091   -2.6905    1.1322 C   0  0  0  0  0  0  0  0  0  0  0  0
    4.0068   -3.5407    0.7545 H   0  0  0  0  0  0  0  0  0  0  0  0
    2.6012   -2.9155    1.4809 H   0  0  0  0  0  0  0  0  0  0  0  0
    4.2597   -2.3524    1.9387 H   0  0  0  0  0  0  0  0  0  0  0  0
    3.5792   -1.6388    0.0270 C   0  0  0  0  0  0  0  0  0  0  0  0
    2.6332   -1.4969   -0.2574 H   0  0  0  0  0  0  0  0  0  0  0  0
    3.9562   -0.7846    0.3839 H   0  0  0  0  0  0  0  0  0  0  0  0
    4.3867   -2.0377   -1.1964 C   0  0  0  0  0  0  0  0  0  0  0  0
    4.5330   -1.2286   -1.7627 H   0  0  0  0  0  0  0  0  0  0  0  0
    5.2659   -2.4030   -0.8959 H   0  0  0  0  0  0  0  0  0  0  0  0
    3.8814   -2.7947   -1.7961 H   0  0  0  0  0  0  0  0  0  0  0  0
  1  5  1  0
  5  6  1  0
  5  7  2  0
  1  2  1  0
  1  3  1  0
  1  4  1  0
  8 12  1  0
 12 15  1  0
  8  9  1  0
  8 10  1  0
  8 11  1  0
 12 13  1  0
 12 14  1  0
 15 16  1  0
 15 17  1  0
 15 18  1  0
M  CHG  1   6  -1
M  END
>  <PDB_ID>  (878) 
pdb1s5u

>  <RESIDUE_NAME>  (878) 
ASP   GLN

>  <FRAG_NAME>  (878) 
ACET   PRPA

>  <FRAG_ATOM_NUM>  (878) 
fragi: 7  fragj: 11

>  <atom.prop.CHAIN_ID>  (878) 
A A A A A A A Z Z Z Z Z Z Z Z Z Z Z

>  <atom.prop.IS_HEAVY_ATOM>  (878) 
1 0 0 0 1 1 1 1 0 0 0 1 0 0 1 0 0 0

>  <DIFUSE_FUNC_ATOM>  (878) 
atom 6   atom 7   

>  <FINAL_SINGLE_POINT_ENERGY>  (878) 
0

>  <NONCOV_INTER_ENERGY_QM>  (878) 
0

>  <FF_Energy>  (878) 
32.48

>  <QM_Energy>  (878) 
0.83

>  <source>  (878) 
ACET_PRPA_09

>  <Index>  (878) 
2938

$$$$
ACET-pdb1sj9-A-GLU-1056:PRPA-pdb1sj9-A-LYS-1040
     RDKit          3D

 18 16  0  0  0  0  0  0  0  0999 V2000
   -0.0009    1.5252    0.0004 C   0  0  0  0  0  0  0  0  0  0  0  0
   -0.2644    1.8161   -0.8960 H   0  0  0  0  0  0  0  0  0  0  0  0
    0.8993    1.8157    0.2491 H   0  0  0  0  0  0  0  0  0  0  0  0
   -0.7122    1.9261    0.7225 H   0  0  0  0  0  0  0  0  0  0  0  0
    0.0000    0.0000    0.0000 C   0  0  0  0  0  0  0  0  0  0  0  0
   -1.0975   -0.6001    0.0000 O   0  0  0  0  0  1  0  0  0  0  0  0
    1.0975   -0.6006    0.0000 O   0  0  0  0  0  0  0  0  0  0  0  0
   -4.0662   -1.0452    2.3680 C   0  0  0  0  0  0  0  0  0  0  0  0
   -3.3182   -0.4078    2.2015 H   0  0  0  0  0  0  0  0  0  0  0  0
   -3.7688   -1.7648    2.9900 H   0  0  0  0  0  0  0  0  0  0  0  0
   -4.8737   -0.4963    2.8524 H   0  0  0  0  0  0  0  0  0  0  0  0
   -4.4681   -1.6746    1.0545 C   0  0  0  0  0  0  0  0  0  0  0  0
   -5.1956   -2.3422    1.2179 H   0  0  0  0  0  0  0  0  0  0  0  0
   -4.8026   -0.9629    0.4366 H   0  0  0  0  0  0  0  0  0  0  0  0
   -3.2958   -2.3770    0.4051 C   0  0  0  0  0  0  0  0  0  0  0  0
   -2.5128   -1.7632    0.3997 H   0  0  0  0  0  0  0  0  0  0  0  0
   -3.0855   -3.2024    0.9190 H   0  0  0  0  0  0  0  0  0  0  0  0
   -3.5244   -2.6575   -0.6231 H   0  0  0  0  0  0  0  0  0  0  0  0
  1  5  1  0
  5  6  1  0
  5  7  2  0
  1  2  1  0
  1  3  1  0
  1  4  1  0
  8 12  1  0
 12 15  1  0
  8  9  1  0
  8 10  1  0
  8 11  1  0
 12 13  1  0
 12 14  1  0
 15 16  1  0
 15 17  1  0
 15 18  1  0
M  CHG  1   6  -1
M  END
>  <PDB_ID>  (879) 
pdb1sj9

>  <RESIDUE_NAME>  (879) 
GLU   LYS

>  <FRAG_NAME>  (879) 
ACET   PRPA

>  <FRAG_ATOM_NUM>  (879) 
fragi: 7  fragj: 11

>  <atom.prop.CHAIN_ID>  (879) 
A A A A A A A Z Z Z Z Z Z Z Z Z Z Z

>  <atom.prop.IS_HEAVY_ATOM>  (879) 
1 0 0 0 1 1 1 1 0 0 0 1 0 0 1 0 0 0

>  <DIFUSE_FUNC_ATOM>  (879) 
atom 6   atom 7   

>  <FINAL_SINGLE_POINT_ENERGY>  (879) 
0

>  <NONCOV_INTER_ENERGY_QM>  (879) 
0

>  <FF_Energy>  (879) 
15.98

>  <QM_Energy>  (879) 
-1.83

>  <source>  (879) 
ACET_PRPA_09

>  <Index>  (879) 
5524

$$$$
ACET-pdb1sj9-A-GLU-1056:PRPA-pdb1sj9-A-LYS-1040
     RDKit          3D

 18 16  0  0  0  0  0  0  0  0999 V2000
   -0.0009    1.5252    0.0004 C   0  0  0  0  0  0  0  0  0  0  0  0
   -0.2644    1.8161   -0.8960 H   0  0  0  0  0  0  0  0  0  0  0  0
    0.8993    1.8157    0.2491 H   0  0  0  0  0  0  0  0  0  0  0  0
   -0.7122    1.9261    0.7225 H   0  0  0  0  0  0  0  0  0  0  0  0
    0.0000    0.0000    0.0000 C   0  0  0  0  0  0  0  0  0  0  0  0
   -1.0975   -0.6001    0.0000 O   0  0  0  0  0  1  0  0  0  0  0  0
    1.0975   -0.6006    0.0000 O   0  0  0  0  0  0  0  0  0  0  0  0
   -4.4681   -1.6746    1.0545 C   0  0  0  0  0  0  0  0  0  0  0  0
   -5.1956   -2.3422    1.2179 H   0  0  0  0  0  0  0  0  0  0  0  0
   -4.8026   -0.9629    0.4366 H   0  0  0  0  0  0  0  0  0  0  0  0
   -4.1782   -1.2205    2.0021 H   0  0  0  0  0  0  0  0  0  0  0  0
   -3.2958   -2.3770    0.4051 C   0  0  0  0  0  0  0  0  0  0  0  0
   -2.5128   -1.7632    0.3997 H   0  0  0  0  0  0  0  0  0  0  0  0
   -3.0855   -3.2024    0.9190 H   0  0  0  0  0  0  0  0  0  0  0  0
   -3.6139   -2.7672   -1.0252 C   0  0  0  0  0  0  0  0  0  0  0  0
   -4.2946   -3.4967   -1.0205 H   0  0  0  0  0  0  0  0  0  0  0  0
   -3.9762   -1.9712   -1.5076 H   0  0  0  0  0  0  0  0  0  0  0  0
   -2.7139   -3.1168   -1.5311 H   0  0  0  0  0  0  0  0  0  0  0  0
  1  5  1  0
  5  6  1  0
  5  7  2  0
  1  2  1  0
  1  3  1  0
  1  4  1  0
  8 12  1  0
 12 15  1  0
  8  9  1  0
  8 10  1  0
  8 11  1  0
 12 13  1  0
 12 14  1  0
 15 16  1  0
 15 17  1  0
 15 18  1  0
M  CHG  1   6  -1
M  END
>  <PDB_ID>  (880) 
pdb1sj9

>  <RESIDUE_NAME>  (880) 
GLU   LYS

>  <FRAG_NAME>  (880) 
ACET   PRPA

>  <FRAG_ATOM_NUM>  (880) 
fragi: 7  fragj: 11

>  <atom.prop.CHAIN_ID>  (880) 
A A A A A A A Z Z Z Z Z Z Z Z Z Z Z

>  <atom.prop.IS_HEAVY_ATOM>  (880) 
1 0 0 0 1 1 1 1 0 0 0 1 0 0 1 0 0 0

>  <DIFUSE_FUNC_ATOM>  (880) 
atom 6   atom 7   

>  <FINAL_SINGLE_POINT_ENERGY>  (880) 
0

>  <NONCOV_INTER_ENERGY_QM>  (880) 
0

>  <FF_Energy>  (880) 
18.65

>  <QM_Energy>  (880) 
-1.86

>  <source>  (880) 
ACET_PRPA_09

>  <Index>  (880) 
5530

$$$$
ACET-pdb2yww-A-ASP-22:PRPA-pdb2yww-A-LYS-25
     RDKit          3D

 18 16  0  0  0  0  0  0  0  0999 V2000
    0.0132    1.5255    0.0205 C   0  0  0  0  0  0  0  0  0  0  0  0
    0.8487    1.8410   -0.4137 H   0  0  0  0  0  0  0  0  0  0  0  0
   -0.0268    1.8297    0.9635 H   0  0  0  0  0  0  0  0  0  0  0  0
   -0.8303    1.9641   -0.5127 H   0  0  0  0  0  0  0  0  0  0  0  0
    0.0000    0.0000    0.0000 C   0  0  0  0  0  0  0  0  0  0  0  0
   -1.0967   -0.6001    0.0000 O   0  0  0  0  0  1  0  0  0  0  0  0
    1.0967   -0.5971   -0.0000 O   0  0  0  0  0  0  0  0  0  0  0  0
    2.7484    4.2356   -2.2999 C   0  0  0  0  0  0  0  0  0  0  0  0
    1.8350    3.8726   -2.4799 H   0  0  0  0  0  0  0  0  0  0  0  0
    3.4060    3.8078   -2.9193 H   0  0  0  0  0  0  0  0  0  0  0  0
    2.7360    5.3061   -2.5050 H   0  0  0  0  0  0  0  0  0  0  0  0
    3.1321    3.8710   -0.8693 C   0  0  0  0  0  0  0  0  0  0  0  0
    4.0511    4.2079   -0.6834 H   0  0  0  0  0  0  0  0  0  0  0  0
    2.4810    4.2868   -0.2421 H   0  0  0  0  0  0  0  0  0  0  0  0
    3.1105    2.3623   -0.6780 C   0  0  0  0  0  0  0  0  0  0  0  0
    2.2101    2.0161   -0.9373 H   0  0  0  0  0  0  0  0  0  0  0  0
    3.8103    1.9515   -1.2595 H   0  0  0  0  0  0  0  0  0  0  0  0
    3.3066    2.0690    0.3534 H   0  0  0  0  0  0  0  0  0  0  0  0
  1  5  1  0
  5  6  1  0
  5  7  2  0
  1  2  1  0
  1  3  1  0
  1  4  1  0
  8 12  1  0
 12 15  1  0
  8  9  1  0
  8 10  1  0
  8 11  1  0
 12 13  1  0
 12 14  1  0
 15 16  1  0
 15 17  1  0
 15 18  1  0
M  CHG  1   6  -1
M  END
>  <PDB_ID>  (881) 
pdb2yww

>  <RESIDUE_NAME>  (881) 
ASP   LYS

>  <FRAG_NAME>  (881) 
ACET   PRPA

>  <FRAG_ATOM_NUM>  (881) 
fragi: 7  fragj: 11

>  <atom.prop.CHAIN_ID>  (881) 
A A A A A A A Z Z Z Z Z Z Z Z Z Z Z

>  <atom.prop.IS_HEAVY_ATOM>  (881) 
1 0 0 0 1 1 1 1 0 0 0 1 0 0 1 0 0 0

>  <DIFUSE_FUNC_ATOM>  (881) 
atom 6   atom 7   

>  <FINAL_SINGLE_POINT_ENERGY>  (881) 
0

>  <NONCOV_INTER_ENERGY_QM>  (881) 
0

>  <FF_Energy>  (881) 
34.57

>  <QM_Energy>  (881) 
3.79

>  <source>  (881) 
ACET_PRPA_09

>  <Index>  (881) 
5953

$$$$
ACET-pdb1suu-A-ASP-578:PRPA-pdb1suu-A-ARG-520
     RDKit          3D

 18 16  0  0  0  0  0  0  0  0999 V2000
    0.0360    1.5146   -0.0192 C   0  0  0  0  0  0  0  0  0  0  0  0
    0.5271    1.8136   -0.8366 H   0  0  0  0  0  0  0  0  0  0  0  0
    0.5165    1.8346    0.7956 H   0  0  0  0  0  0  0  0  0  0  0  0
   -0.9478    1.9838   -0.0323 H   0  0  0  0  0  0  0  0  0  0  0  0
    0.0000    0.0000    0.0000 C   0  0  0  0  0  0  0  0  0  0  0  0
   -1.0951   -0.6009   -0.0000 O   0  0  0  0  0  1  0  0  0  0  0  0
    1.0951   -0.5859    0.0000 O   0  0  0  0  0  0  0  0  0  0  0  0
   -3.7159   -0.3655    3.7721 C   0  0  0  0  0  0  0  0  0  0  0  0
   -4.1523   -1.2331    4.0244 H   0  0  0  0  0  0  0  0  0  0  0  0
   -4.1809    0.0086    2.9656 H   0  0  0  0  0  0  0  0  0  0  0  0
   -3.8560    0.3338    4.5963 H   0  0  0  0  0  0  0  0  0  0  0  0
   -2.2821   -0.6507    3.3993 C   0  0  0  0  0  0  0  0  0  0  0  0
   -1.7446    0.1977    3.4646 H   0  0  0  0  0  0  0  0  0  0  0  0
   -1.8968   -1.3220    4.0422 H   0  0  0  0  0  0  0  0  0  0  0  0
   -2.1302   -1.1972    2.0048 C   0  0  0  0  0  0  0  0  0  0  0  0
   -2.7797   -1.9412    1.8851 H   0  0  0  0  0  0  0  0  0  0  0  0
   -2.3201   -0.4648    1.3580 H   0  0  0  0  0  0  0  0  0  0  0  0
   -1.1199   -1.5713    1.8395 H   0  0  0  0  0  0  0  0  0  0  0  0
  1  5  1  0
  5  6  1  0
  5  7  2  0
  1  2  1  0
  1  3  1  0
  1  4  1  0
  8 12  1  0
 12 15  1  0
  8  9  1  0
  8 10  1  0
  8 11  1  0
 12 13  1  0
 12 14  1  0
 15 16  1  0
 15 17  1  0
 15 18  1  0
M  CHG  1   6  -1
M  END
>  <PDB_ID>  (882) 
pdb1suu

>  <RESIDUE_NAME>  (882) 
ASP   ARG

>  <FRAG_NAME>  (882) 
ACET   PRPA

>  <FRAG_ATOM_NUM>  (882) 
fragi: 7  fragj: 11

>  <atom.prop.CHAIN_ID>  (882) 
A A A A A A A Z Z Z Z Z Z Z Z Z Z Z

>  <atom.prop.IS_HEAVY_ATOM>  (882) 
1 0 0 0 1 1 1 1 0 0 0 1 0 0 1 0 0 0

>  <DIFUSE_FUNC_ATOM>  (882) 
atom 6   atom 7   

>  <FINAL_SINGLE_POINT_ENERGY>  (882) 
0

>  <NONCOV_INTER_ENERGY_QM>  (882) 
0

>  <FF_Energy>  (882) 
49.2

>  <QM_Energy>  (882) 
13.37

>  <source>  (882) 
ACET_PRPA_09

>  <Index>  (882) 
6607

$$$$
ACET-pdb1sqi-A-ASP-126:PRPA-pdb1sqi-A-PRO-158
     RDKit          3D

 18 16  0  0  0  0  0  0  0  0999 V2000
    0.0235    1.5216    0.0033 C   0  0  0  0  0  0  0  0  0  0  0  0
    0.7203    1.8282   -0.6518 H   0  0  0  0  0  0  0  0  0  0  0  0
    0.2845    1.8318    0.9213 H   0  0  0  0  0  0  0  0  0  0  0  0
   -0.9191    2.0021   -0.2588 H   0  0  0  0  0  0  0  0  0  0  0  0
    0.0000    0.0000    0.0000 C   0  0  0  0  0  0  0  0  0  0  0  0
   -1.1176   -0.6332   -0.0000 O   0  0  0  0  0  1  0  0  0  0  0  0
    1.1176   -0.6482    0.0000 O   0  0  0  0  0  0  0  0  0  0  0  0
    2.5888    0.4219   -2.4897 C   0  0  0  0  0  0  0  0  0  0  0  0
    2.2019    0.1846   -1.5809 H   0  0  0  0  0  0  0  0  0  0  0  0
    3.6556    0.6327   -2.4152 H   0  0  0  0  0  0  0  0  0  0  0  0
    2.3708   -0.3632   -3.2137 H   0  0  0  0  0  0  0  0  0  0  0  0
    1.9707    1.7573   -2.8297 C   0  0  0  0  0  0  0  0  0  0  0  0
    1.4949    1.7255   -3.7276 H   0  0  0  0  0  0  0  0  0  0  0  0
    1.2785    2.0316   -2.1379 H   0  0  0  0  0  0  0  0  0  0  0  0
    3.0851    2.7863   -2.8763 C   0  0  0  0  0  0  0  0  0  0  0  0
    3.0885    3.2426   -3.7861 H   0  0  0  0  0  0  0  0  0  0  0  0
    2.9071    3.5113   -2.1850 H   0  0  0  0  0  0  0  0  0  0  0  0
    4.0338    2.2850   -2.6845 H   0  0  0  0  0  0  0  0  0  0  0  0
  1  5  1  0
  5  6  1  0
  5  7  2  0
  1  2  1  0
  1  3  1  0
  1  4  1  0
  8 12  1  0
 12 15  1  0
  8  9  1  0
  8 10  1  0
  8 11  1  0
 12 13  1  0
 12 14  1  0
 15 16  1  0
 15 17  1  0
 15 18  1  0
M  CHG  1   6  -1
M  END
>  <PDB_ID>  (883) 
pdb1sqi

>  <RESIDUE_NAME>  (883) 
ASP   PRO

>  <FRAG_NAME>  (883) 
ACET   PRPA

>  <FRAG_ATOM_NUM>  (883) 
fragi: 7  fragj: 11

>  <atom.prop.CHAIN_ID>  (883) 
A A A A A A A Z Z Z Z Z Z Z Z Z Z Z

>  <atom.prop.IS_HEAVY_ATOM>  (883) 
1 0 0 0 1 1 1 1 0 0 0 1 0 0 1 0 0 0

>  <DIFUSE_FUNC_ATOM>  (883) 
atom 6   atom 7   

>  <FINAL_SINGLE_POINT_ENERGY>  (883) 
0

>  <NONCOV_INTER_ENERGY_QM>  (883) 
0

>  <FF_Energy>  (883) 
17.56

>  <QM_Energy>  (883) 
0.3

>  <source>  (883) 
ACET_PRPA_09

>  <Index>  (883) 
6972

$$$$
ACET-pdb1suj-A-ASP-65:PRPA-pdb1suj-A-LEU-69
     RDKit          3D

 18 16  0  0  0  0  0  0  0  0999 V2000
    0.0082    1.5272   -0.0003 C   0  0  0  0  0  0  0  0  0  0  0  0
    0.9447    1.8382    0.0934 H   0  0  0  0  0  0  0  0  0  0  0  0
   -0.5472    1.8469    0.7560 H   0  0  0  0  0  0  0  0  0  0  0  0
   -0.3976    1.9490   -0.9198 H   0  0  0  0  0  0  0  0  0  0  0  0
    0.0000    0.0000    0.0000 C   0  0  0  0  0  0  0  0  0  0  0  0
   -1.0988   -0.6038   -0.0000 O   0  0  0  0  0  1  0  0  0  0  0  0
    1.0988   -0.5954    0.0000 O   0  0  0  0  0  0  0  0  0  0  0  0
    4.4753    0.7653    1.6371 C   0  0  0  0  0  0  0  0  0  0  0  0
    3.5041    0.9491    1.7871 H   0  0  0  0  0  0  0  0  0  0  0  0
    4.7916    0.0850    2.2981 H   0  0  0  0  0  0  0  0  0  0  0  0
    4.9961    1.6110    1.7524 H   0  0  0  0  0  0  0  0  0  0  0  0
    4.6796    0.2320    0.2231 C   0  0  0  0  0  0  0  0  0  0  0  0
    5.6447    0.0627    0.0686 H   0  0  0  0  0  0  0  0  0  0  0  0
    4.3320    0.9793   -0.4901 H   0  0  0  0  0  0  0  0  0  0  0  0
    3.9338   -1.0795    0.0370 C   0  0  0  0  0  0  0  0  0  0  0  0
    4.0874   -1.4239   -0.8899 H   0  0  0  0  0  0  0  0  0  0  0  0
    4.2665   -1.7520    0.7004 H   0  0  0  0  0  0  0  0  0  0  0  0
    2.9540   -0.9315    0.1784 H   0  0  0  0  0  0  0  0  0  0  0  0
  1  5  1  0
  5  6  1  0
  5  7  2  0
  1  2  1  0
  1  3  1  0
  1  4  1  0
  8 12  1  0
 12 15  1  0
  8  9  1  0
  8 10  1  0
  8 11  1  0
 12 13  1  0
 12 14  1  0
 15 16  1  0
 15 17  1  0
 15 18  1  0
M  CHG  1   6  -1
M  END
>  <PDB_ID>  (884) 
pdb1suj

>  <RESIDUE_NAME>  (884) 
ASP   LEU

>  <FRAG_NAME>  (884) 
ACET   PRPA

>  <FRAG_ATOM_NUM>  (884) 
fragi: 7  fragj: 11

>  <atom.prop.CHAIN_ID>  (884) 
A A A A A A A Z Z Z Z Z Z Z Z Z Z Z

>  <atom.prop.IS_HEAVY_ATOM>  (884) 
1 0 0 0 1 1 1 1 0 0 0 1 0 0 1 0 0 0

>  <DIFUSE_FUNC_ATOM>  (884) 
atom 6   atom 7   

>  <FINAL_SINGLE_POINT_ENERGY>  (884) 
0

>  <NONCOV_INTER_ENERGY_QM>  (884) 
0

>  <FF_Energy>  (884) 
13.75

>  <QM_Energy>  (884) 
-1.61

>  <source>  (884) 
ACET_PRPA_09

>  <Index>  (884) 
7082

$$$$
ACET-pdb2yvy-A-GLU-133:PRPA-pdb2yvy-A-GLU-130
     RDKit          3D

 18 16  0  0  0  0  0  0  0  0999 V2000
    0.0111    1.5289    0.0062 C   0  0  0  0  0  0  0  0  0  0  0  0
    0.7744    1.8263   -0.5363 H   0  0  0  0  0  0  0  0  0  0  0  0
    0.0782    1.8248    0.9403 H   0  0  0  0  0  0  0  0  0  0  0  0
   -0.8869    1.9778   -0.4181 H   0  0  0  0  0  0  0  0  0  0  0  0
    0.0000    0.0000    0.0000 C   0  0  0  0  0  0  0  0  0  0  0  0
   -1.1049   -0.5875    0.0000 O   0  0  0  0  0  1  0  0  0  0  0  0
    1.1049   -0.6082   -0.0000 O   0  0  0  0  0  0  0  0  0  0  0  0
   -1.2902    1.7700    4.0854 C   0  0  0  0  0  0  0  0  0  0  0  0
   -0.9138    1.6804    4.9877 H   0  0  0  0  0  0  0  0  0  0  0  0
   -2.3194    1.4115    4.0644 H   0  0  0  0  0  0  0  0  0  0  0  0
   -1.3533    2.8256    3.8210 H   0  0  0  0  0  0  0  0  0  0  0  0
   -0.4534    0.9488    3.0943 C   0  0  0  0  0  0  0  0  0  0  0  0
   -0.9649    0.1430    2.8684 H   0  0  0  0  0  0  0  0  0  0  0  0
   -0.2745    1.5150    2.3136 H   0  0  0  0  0  0  0  0  0  0  0  0
    0.8902    0.5005    3.6586 C   0  0  0  0  0  0  0  0  0  0  0  0
    1.1872   -0.2843    3.1548 H   0  0  0  0  0  0  0  0  0  0  0  0
    1.5153    1.2513    3.5977 H   0  0  0  0  0  0  0  0  0  0  0  0
    0.8172    0.2140    4.7077 H   0  0  0  0  0  0  0  0  0  0  0  0
  1  5  1  0
  5  6  1  0
  5  7  2  0
  1  2  1  0
  1  3  1  0
  1  4  1  0
  8 12  1  0
 12 15  1  0
  8  9  1  0
  8 10  1  0
  8 11  1  0
 12 13  1  0
 12 14  1  0
 15 16  1  0
 15 17  1  0
 15 18  1  0
M  CHG  1   6  -1
M  END
>  <PDB_ID>  (885) 
pdb2yvy

>  <RESIDUE_NAME>  (885) 
GLU   GLU

>  <FRAG_NAME>  (885) 
ACET   PRPA

>  <FRAG_ATOM_NUM>  (885) 
fragi: 7  fragj: 11

>  <atom.prop.CHAIN_ID>  (885) 
A A A A A A A Z Z Z Z Z Z Z Z Z Z Z

>  <atom.prop.IS_HEAVY_ATOM>  (885) 
1 0 0 0 1 1 1 1 0 0 0 1 0 0 1 0 0 0

>  <DIFUSE_FUNC_ATOM>  (885) 
atom 6   atom 7   

>  <FINAL_SINGLE_POINT_ENERGY>  (885) 
0

>  <NONCOV_INTER_ENERGY_QM>  (885) 
0

>  <FF_Energy>  (885) 
47.42

>  <QM_Energy>  (885) 
2.65

>  <source>  (885) 
ACET_PRPA_09

>  <Index>  (885) 
7265

$$$$
ACET-pdb2ywe-A-GLU-151:PRPA-pdb2ywe-A-LYS-147
     RDKit          3D

 18 16  0  0  0  0  0  0  0  0999 V2000
    0.0019    1.5153    0.0048 C   0  0  0  0  0  0  0  0  0  0  0  0
    0.9336    1.8117   -0.0884 H   0  0  0  0  0  0  0  0  0  0  0  0
   -0.4028    1.8090    0.8496 H   0  0  0  0  0  0  0  0  0  0  0  0
   -0.5762    1.9335   -0.8192 H   0  0  0  0  0  0  0  0  0  0  0  0
    0.0000    0.0000    0.0000 C   0  0  0  0  0  0  0  0  0  0  0  0
   -1.0987   -0.5987   -0.0000 O   0  0  0  0  0  1  0  0  0  0  0  0
    1.0987   -0.5951   -0.0000 O   0  0  0  0  0  0  0  0  0  0  0  0
   -1.9648   -0.1567    3.3960 C   0  0  0  0  0  0  0  0  0  0  0  0
   -2.0765   -1.1305    3.5874 H   0  0  0  0  0  0  0  0  0  0  0  0
   -2.2086    0.0303    2.4468 H   0  0  0  0  0  0  0  0  0  0  0  0
   -2.6243    0.4116    4.0521 H   0  0  0  0  0  0  0  0  0  0  0  0
   -0.5060    0.2251    3.6149 C   0  0  0  0  0  0  0  0  0  0  0  0
   -0.3555    1.1400    3.2539 H   0  0  0  0  0  0  0  0  0  0  0  0
   -0.3106    0.2011    4.5897 H   0  0  0  0  0  0  0  0  0  0  0  0
    0.4364   -0.7373    2.9068 C   0  0  0  0  0  0  0  0  0  0  0  0
    0.2172   -0.7443    1.9249 H   0  0  0  0  0  0  0  0  0  0  0  0
    1.3818   -0.4102    3.0195 H   0  0  0  0  0  0  0  0  0  0  0  0
    0.3652   -1.7539    3.2936 H   0  0  0  0  0  0  0  0  0  0  0  0
  1  5  1  0
  5  6  1  0
  5  7  2  0
  1  2  1  0
  1  3  1  0
  1  4  1  0
  8 12  1  0
 12 15  1  0
  8  9  1  0
  8 10  1  0
  8 11  1  0
 12 13  1  0
 12 14  1  0
 15 16  1  0
 15 17  1  0
 15 18  1  0
M  CHG  1   6  -1
M  END
>  <PDB_ID>  (886) 
pdb2ywe

>  <RESIDUE_NAME>  (886) 
GLU   LYS

>  <FRAG_NAME>  (886) 
ACET   PRPA

>  <FRAG_ATOM_NUM>  (886) 
fragi: 7  fragj: 11

>  <atom.prop.CHAIN_ID>  (886) 
A A A A A A A Z Z Z Z Z Z Z Z Z Z Z

>  <atom.prop.IS_HEAVY_ATOM>  (886) 
1 0 0 0 1 1 1 1 0 0 0 1 0 0 1 0 0 0

>  <DIFUSE_FUNC_ATOM>  (886) 
atom 6   atom 7   

>  <FINAL_SINGLE_POINT_ENERGY>  (886) 
0

>  <NONCOV_INTER_ENERGY_QM>  (886) 
0

>  <FF_Energy>  (886) 
15.57

>  <QM_Energy>  (886) 
-0.98

>  <source>  (886) 
ACET_PRPA_09

>  <Index>  (886) 
8015

$$$$
ACET-pdb2yjj-C-ASP-122:PRPA-pdb2yjj-C-LYS-31
     RDKit          3D

 18 16  0  0  0  0  0  0  0  0999 V2000
    0.0258    1.5584    0.0757 C   0  0  0  0  0  0  0  0  0  0  0  0
    0.7526    1.8743   -0.5181 H   0  0  0  0  0  0  0  0  0  0  0  0
    0.2011    1.8092    1.0169 H   0  0  0  0  0  0  0  0  0  0  0  0
   -0.9113    2.0155   -0.2420 H   0  0  0  0  0  0  0  0  0  0  0  0
    0.0000    0.0000    0.0000 C   0  0  0  0  0  0  0  0  0  0  0  0
   -1.1118   -0.6312   -0.0000 O   0  0  0  0  0  1  0  0  0  0  0  0
    1.1118   -0.5934   -0.0000 O   0  0  0  0  0  0  0  0  0  0  0  0
    4.8515   -0.7901   -0.9507 C   0  0  0  0  0  0  0  0  0  0  0  0
    5.4325   -1.6018   -1.0131 H   0  0  0  0  0  0  0  0  0  0  0  0
    4.5721   -0.6523   -0.0015 H   0  0  0  0  0  0  0  0  0  0  0  0
    5.4835    0.0589   -1.2114 H   0  0  0  0  0  0  0  0  0  0  0  0
    3.7019   -0.8838   -1.8413 C   0  0  0  0  0  0  0  0  0  0  0  0
    3.1197   -0.0727   -1.7779 H   0  0  0  0  0  0  0  0  0  0  0  0
    3.9814   -1.0185   -2.7918 H   0  0  0  0  0  0  0  0  0  0  0  0
    2.7563   -2.1179   -1.4944 C   0  0  0  0  0  0  0  0  0  0  0  0
    2.2147   -1.8455   -0.6726 H   0  0  0  0  0  0  0  0  0  0  0  0
    2.0869   -2.1957   -2.2624 H   0  0  0  0  0  0  0  0  0  0  0  0
    3.2340   -3.0822   -1.3209 H   0  0  0  0  0  0  0  0  0  0  0  0
  1  5  1  0
  5  6  1  0
  5  7  2  0
  1  2  1  0
  1  3  1  0
  1  4  1  0
  8 12  1  0
 12 15  1  0
  8  9  1  0
  8 10  1  0
  8 11  1  0
 12 13  1  0
 12 14  1  0
 15 16  1  0
 15 17  1  0
 15 18  1  0
M  CHG  1   6  -1
M  END
>  <PDB_ID>  (887) 
pdb2yjj

>  <RESIDUE_NAME>  (887) 
ASP   LYS

>  <FRAG_NAME>  (887) 
ACET   PRPA

>  <FRAG_ATOM_NUM>  (887) 
fragi: 7  fragj: 11

>  <atom.prop.CHAIN_ID>  (887) 
A A A A A A A Z Z Z Z Z Z Z Z Z Z Z

>  <atom.prop.IS_HEAVY_ATOM>  (887) 
1 0 0 0 1 1 1 1 0 0 0 1 0 0 1 0 0 0

>  <DIFUSE_FUNC_ATOM>  (887) 
atom 6   atom 7   

>  <FINAL_SINGLE_POINT_ENERGY>  (887) 
0

>  <NONCOV_INTER_ENERGY_QM>  (887) 
0

>  <FF_Energy>  (887) 
15.0

>  <QM_Energy>  (887) 
0.11

>  <source>  (887) 
ACET_PRPA_09

>  <Index>  (887) 
8174

$$$$
ACET-pdb2xlb-D-ASP-77:PRPA-pdb2xlb-D-LYS-55
     RDKit          3D

 18 16  0  0  0  0  0  0  0  0999 V2000
    0.0109    1.5163    0.0159 C   0  0  0  0  0  0  0  0  0  0  0  0
    0.3458    1.8446   -0.8615 H   0  0  0  0  0  0  0  0  0  0  0  0
    0.6045    1.8263    0.7496 H   0  0  0  0  0  0  0  0  0  0  0  0
   -0.9757    1.9499    0.1792 H   0  0  0  0  0  0  0  0  0  0  0  0
    0.0000    0.0000    0.0000 C   0  0  0  0  0  0  0  0  0  0  0  0
   -1.0981   -0.5975    0.0000 O   0  0  0  0  0  1  0  0  0  0  0  0
    1.0981   -0.5950   -0.0000 O   0  0  0  0  0  0  0  0  0  0  0  0
   -0.7325    0.1431   -3.8509 C   0  0  0  0  0  0  0  0  0  0  0  0
    0.1028   -0.3874   -4.0070 H   0  0  0  0  0  0  0  0  0  0  0  0
   -0.6228    0.6948   -3.0220 H   0  0  0  0  0  0  0  0  0  0  0  0
   -0.8960    0.8058   -4.7007 H   0  0  0  0  0  0  0  0  0  0  0  0
   -1.8931   -0.8135   -3.6556 C   0  0  0  0  0  0  0  0  0  0  0  0
   -2.7268   -0.2804   -3.5017 H   0  0  0  0  0  0  0  0  0  0  0  0
   -2.0012   -1.3636   -4.4846 H   0  0  0  0  0  0  0  0  0  0  0  0
   -1.6906   -1.7441   -2.4815 C   0  0  0  0  0  0  0  0  0  0  0  0
   -0.8619   -2.2842   -2.6300 H   0  0  0  0  0  0  0  0  0  0  0  0
   -1.5878   -1.2025   -1.6464 H   0  0  0  0  0  0  0  0  0  0  0  0
   -2.5417   -2.4159   -2.3699 H   0  0  0  0  0  0  0  0  0  0  0  0
  1  5  1  0
  5  6  1  0
  5  7  2  0
  1  2  1  0
  1  3  1  0
  1  4  1  0
  8 12  1  0
 12 15  1  0
  8  9  1  0
  8 10  1  0
  8 11  1  0
 12 13  1  0
 12 14  1  0
 15 16  1  0
 15 17  1  0
 15 18  1  0
M  CHG  1   6  -1
M  END
>  <PDB_ID>  (888) 
pdb2xlb

>  <RESIDUE_NAME>  (888) 
ASP   LYS

>  <FRAG_NAME>  (888) 
ACET   PRPA

>  <FRAG_ATOM_NUM>  (888) 
fragi: 7  fragj: 11

>  <atom.prop.CHAIN_ID>  (888) 
A A A A A A A Z Z Z Z Z Z Z Z Z Z Z

>  <atom.prop.IS_HEAVY_ATOM>  (888) 
1 0 0 0 1 1 1 1 0 0 0 1 0 0 1 0 0 0

>  <DIFUSE_FUNC_ATOM>  (888) 
atom 6   atom 7   

>  <FINAL_SINGLE_POINT_ENERGY>  (888) 
0

>  <NONCOV_INTER_ENERGY_QM>  (888) 
0

>  <FF_Energy>  (888) 
23.79

>  <QM_Energy>  (888) 
-0.29

>  <source>  (888) 
ACET_PRPA_09

>  <Index>  (888) 
8384

$$$$
ACET-pdb2yvk-A-GLU-119:PRPA-pdb2yvk-A-ILE-115
     RDKit          3D

 18 16  0  0  0  0  0  0  0  0999 V2000
    0.0087    1.5099   -0.0033 C   0  0  0  0  0  0  0  0  0  0  0  0
   -0.4059    1.8091   -0.8431 H   0  0  0  0  0  0  0  0  0  0  0  0
    0.9446    1.8031    0.0730 H   0  0  0  0  0  0  0  0  0  0  0  0
   -0.5544    1.9347    0.8278 H   0  0  0  0  0  0  0  0  0  0  0  0
    0.0000    0.0000    0.0000 C   0  0  0  0  0  0  0  0  0  0  0  0
   -1.0991   -0.5919    0.0000 O   0  0  0  0  0  1  0  0  0  0  0  0
    1.0991   -0.5947    0.0000 O   0  0  0  0  0  0  0  0  0  0  0  0
   -3.4276   -2.3954   -1.3763 C   0  0  0  0  0  0  0  0  0  0  0  0
   -3.8272   -2.8380   -2.1731 H   0  0  0  0  0  0  0  0  0  0  0  0
   -2.5655   -1.8353   -1.7384 H   0  0  0  0  0  0  0  0  0  0  0  0
   -4.1664   -1.6842   -1.0070 H   0  0  0  0  0  0  0  0  0  0  0  0
   -3.0265   -3.3137   -0.1937 C   0  0  0  0  0  0  0  0  0  0  0  0
   -2.2406   -3.8507   -0.4824 H   0  0  0  0  0  0  0  0  0  0  0  0
   -3.8371   -3.9985    0.0552 H   0  0  0  0  0  0  0  0  0  0  0  0
   -2.7377   -2.4725    1.0486 C   0  0  0  0  0  0  0  0  0  0  0  0
   -2.4706   -3.0729    1.7995 H   0  0  0  0  0  0  0  0  0  0  0  0
   -1.9970   -1.8338    0.8501 H   0  0  0  0  0  0  0  0  0  0  0  0
   -3.5580   -1.9649    1.3022 H   0  0  0  0  0  0  0  0  0  0  0  0
  1  5  1  0
  5  6  1  0
  5  7  2  0
  1  2  1  0
  1  3  1  0
  1  4  1  0
  8 12  1  0
 12 15  1  0
  8  9  1  0
  8 10  1  0
  8 11  1  0
 12 13  1  0
 12 14  1  0
 15 16  1  0
 15 17  1  0
 15 18  1  0
M  CHG  1   6  -1
M  END
>  <PDB_ID>  (889) 
pdb2yvk

>  <RESIDUE_NAME>  (889) 
GLU   ILE

>  <FRAG_NAME>  (889) 
ACET   PRPA

>  <FRAG_ATOM_NUM>  (889) 
fragi: 7  fragj: 11

>  <atom.prop.CHAIN_ID>  (889) 
A A A A A A A Z Z Z Z Z Z Z Z Z Z Z

>  <atom.prop.IS_HEAVY_ATOM>  (889) 
1 0 0 0 1 1 1 1 0 0 0 1 0 0 1 0 0 0

>  <DIFUSE_FUNC_ATOM>  (889) 
atom 6   atom 7   

>  <FINAL_SINGLE_POINT_ENERGY>  (889) 
0

>  <NONCOV_INTER_ENERGY_QM>  (889) 
0

>  <FF_Energy>  (889) 
39.75

>  <QM_Energy>  (889) 
0.72

>  <source>  (889) 
ACET_PRPA_09

>  <Index>  (889) 
8434

$$$$
ACET-pdb2yvk-A-GLU-119:PRPA-pdb2yvk-A-ILE-115
     RDKit          3D

 18 16  0  0  0  0  0  0  0  0999 V2000
    0.0087    1.5099   -0.0033 C   0  0  0  0  0  0  0  0  0  0  0  0
   -0.4059    1.8091   -0.8431 H   0  0  0  0  0  0  0  0  0  0  0  0
    0.9446    1.8031    0.0730 H   0  0  0  0  0  0  0  0  0  0  0  0
   -0.5544    1.9347    0.8278 H   0  0  0  0  0  0  0  0  0  0  0  0
    0.0000    0.0000    0.0000 C   0  0  0  0  0  0  0  0  0  0  0  0
   -1.0991   -0.5919    0.0000 O   0  0  0  0  0  1  0  0  0  0  0  0
    1.0991   -0.5947    0.0000 O   0  0  0  0  0  0  0  0  0  0  0  0
   -4.1610   -4.2721    0.1546 C   0  0  0  0  0  0  0  0  0  0  0  0
   -4.9812   -3.7440    0.3511 H   0  0  0  0  0  0  0  0  0  0  0  0
   -4.3312   -4.8627   -0.6285 H   0  0  0  0  0  0  0  0  0  0  0  0
   -3.9424   -4.9033    1.0160 H   0  0  0  0  0  0  0  0  0  0  0  0
   -3.0265   -3.3137   -0.1937 C   0  0  0  0  0  0  0  0  0  0  0  0
   -2.2406   -3.8507   -0.4824 H   0  0  0  0  0  0  0  0  0  0  0  0
   -3.3086   -2.6680   -1.0253 H   0  0  0  0  0  0  0  0  0  0  0  0
   -2.7377   -2.4725    1.0486 C   0  0  0  0  0  0  0  0  0  0  0  0
   -2.4706   -3.0729    1.7995 H   0  0  0  0  0  0  0  0  0  0  0  0
   -1.9970   -1.8338    0.8501 H   0  0  0  0  0  0  0  0  0  0  0  0
   -3.5580   -1.9649    1.3022 H   0  0  0  0  0  0  0  0  0  0  0  0
  1  5  1  0
  5  6  1  0
  5  7  2  0
  1  2  1  0
  1  3  1  0
  1  4  1  0
  8 12  1  0
 12 15  1  0
  8  9  1  0
  8 10  1  0
  8 11  1  0
 12 13  1  0
 12 14  1  0
 15 16  1  0
 15 17  1  0
 15 18  1  0
M  CHG  1   6  -1
M  END
>  <PDB_ID>  (890) 
pdb2yvk

>  <RESIDUE_NAME>  (890) 
GLU   ILE

>  <FRAG_NAME>  (890) 
ACET   PRPA

>  <FRAG_ATOM_NUM>  (890) 
fragi: 7  fragj: 11

>  <atom.prop.CHAIN_ID>  (890) 
A A A A A A A Z Z Z Z Z Z Z Z Z Z Z

>  <atom.prop.IS_HEAVY_ATOM>  (890) 
1 0 0 0 1 1 1 1 0 0 0 1 0 0 1 0 0 0

>  <DIFUSE_FUNC_ATOM>  (890) 
atom 6   atom 7   

>  <FINAL_SINGLE_POINT_ENERGY>  (890) 
0

>  <NONCOV_INTER_ENERGY_QM>  (890) 
0

>  <FF_Energy>  (890) 
38.92

>  <QM_Energy>  (890) 
1.5

>  <source>  (890) 
ACET_PRPA_09

>  <Index>  (890) 
8485

$$$$
ACET-pdb2yvs-B-ASP-89:PRPA-pdb2yvs-B-ARG-92
     RDKit          3D

 18 16  0  0  0  0  0  0  0  0999 V2000
    0.0147    1.4986    0.0134 C   0  0  0  0  0  0  0  0  0  0  0  0
    0.6760    1.8243   -0.6564 H   0  0  0  0  0  0  0  0  0  0  0  0
    0.2633    1.8148    0.9242 H   0  0  0  0  0  0  0  0  0  0  0  0
   -0.9547    1.9292   -0.2375 H   0  0  0  0  0  0  0  0  0  0  0  0
    0.0000    0.0000    0.0000 C   0  0  0  0  0  0  0  0  0  0  0  0
   -1.1056   -0.5883    0.0000 O   0  0  0  0  0  1  0  0  0  0  0  0
    1.1056   -0.5813   -0.0000 O   0  0  0  0  0  0  0  0  0  0  0  0
    0.4735   -1.9117    2.9606 C   0  0  0  0  0  0  0  0  0  0  0  0
    0.4166   -1.1194    2.3564 H   0  0  0  0  0  0  0  0  0  0  0  0
    1.0389   -1.6924    3.7531 H   0  0  0  0  0  0  0  0  0  0  0  0
   -0.5316   -2.1414    3.3143 H   0  0  0  0  0  0  0  0  0  0  0  0
    1.1474   -3.0393    2.1988 C   0  0  0  0  0  0  0  0  0  0  0  0
    2.1316   -2.9672    2.3023 H   0  0  0  0  0  0  0  0  0  0  0  0
    0.8210   -3.9112    2.5427 H   0  0  0  0  0  0  0  0  0  0  0  0
    0.8130   -2.9502    0.7276 C   0  0  0  0  0  0  0  0  0  0  0  0
    0.2609   -2.1299    0.5853 H   0  0  0  0  0  0  0  0  0  0  0  0
    1.6712   -2.8691    0.2207 H   0  0  0  0  0  0  0  0  0  0  0  0
    0.2643   -3.8257    0.3803 H   0  0  0  0  0  0  0  0  0  0  0  0
  1  5  1  0
  5  6  1  0
  5  7  2  0
  1  2  1  0
  1  3  1  0
  1  4  1  0
  8 12  1  0
 12 15  1  0
  8  9  1  0
  8 10  1  0
  8 11  1  0
 12 13  1  0
 12 14  1  0
 15 16  1  0
 15 17  1  0
 15 18  1  0
M  CHG  1   6  -1
M  END
>  <PDB_ID>  (891) 
pdb2yvs

>  <RESIDUE_NAME>  (891) 
ASP   ARG

>  <FRAG_NAME>  (891) 
ACET   PRPA

>  <FRAG_ATOM_NUM>  (891) 
fragi: 7  fragj: 11

>  <atom.prop.CHAIN_ID>  (891) 
A A A A A A A Z Z Z Z Z Z Z Z Z Z Z

>  <atom.prop.IS_HEAVY_ATOM>  (891) 
1 0 0 0 1 1 1 1 0 0 0 1 0 0 1 0 0 0

>  <DIFUSE_FUNC_ATOM>  (891) 
atom 6   atom 7   

>  <FINAL_SINGLE_POINT_ENERGY>  (891) 
0

>  <NONCOV_INTER_ENERGY_QM>  (891) 
0

>  <FF_Energy>  (891) 
36.74

>  <QM_Energy>  (891) 
7.17

>  <source>  (891) 
ACET_PRPA_09

>  <Index>  (891) 
8638

$$$$
ACET-pdb1syx-A-GLU-107:PRPA-pdb1syx-A-LYS-40
     RDKit          3D

 18 16  0  0  0  0  0  0  0  0999 V2000
   -0.0021    1.5165   -0.0008 C   0  0  0  0  0  0  0  0  0  0  0  0
    0.5900    1.7768   -0.7723 H   0  0  0  0  0  0  0  0  0  0  0  0
    0.4601    1.7766    0.8551 H   0  0  0  0  0  0  0  0  0  0  0  0
   -0.9918    1.9662   -0.0809 H   0  0  0  0  0  0  0  0  0  0  0  0
    0.0000    0.0000    0.0000 C   0  0  0  0  0  0  0  0  0  0  0  0
   -1.0978   -0.5943    0.0000 O   0  0  0  0  0  1  0  0  0  0  0  0
    1.0978   -0.5921   -0.0000 O   0  0  0  0  0  0  0  0  0  0  0  0
    3.7958    0.8091   -1.7894 C   0  0  0  0  0  0  0  0  0  0  0  0
    4.5637    1.2110   -1.2884 H   0  0  0  0  0  0  0  0  0  0  0  0
    2.9368    1.1692   -1.4219 H   0  0  0  0  0  0  0  0  0  0  0  0
    3.8732    1.1166   -2.8322 H   0  0  0  0  0  0  0  0  0  0  0  0
    3.8158   -0.7011   -1.5591 C   0  0  0  0  0  0  0  0  0  0  0  0
    3.0221   -1.1088   -2.0067 H   0  0  0  0  0  0  0  0  0  0  0  0
    4.6542   -1.0787   -1.9444 H   0  0  0  0  0  0  0  0  0  0  0  0
    3.7650   -1.0355   -0.0677 C   0  0  0  0  0  0  0  0  0  0  0  0
    4.5346   -0.5962    0.3830 H   0  0  0  0  0  0  0  0  0  0  0  0
    2.9067   -0.7010    0.3053 H   0  0  0  0  0  0  0  0  0  0  0  0
    3.8257   -2.1103    0.1029 H   0  0  0  0  0  0  0  0  0  0  0  0
  1  5  1  0
  5  6  1  0
  5  7  2  0
  1  2  1  0
  1  3  1  0
  1  4  1  0
  8 12  1  0
 12 15  1  0
  8  9  1  0
  8 10  1  0
  8 11  1  0
 12 13  1  0
 12 14  1  0
 15 16  1  0
 15 17  1  0
 15 18  1  0
M  CHG  1   6  -1
M  END
>  <PDB_ID>  (892) 
pdb1syx

>  <RESIDUE_NAME>  (892) 
GLU   LYS

>  <FRAG_NAME>  (892) 
ACET   PRPA

>  <FRAG_ATOM_NUM>  (892) 
fragi: 7  fragj: 11

>  <atom.prop.CHAIN_ID>  (892) 
A A A A A A A Z Z Z Z Z Z Z Z Z Z Z

>  <atom.prop.IS_HEAVY_ATOM>  (892) 
1 0 0 0 1 1 1 1 0 0 0 1 0 0 1 0 0 0

>  <DIFUSE_FUNC_ATOM>  (892) 
atom 6   atom 7   

>  <FINAL_SINGLE_POINT_ENERGY>  (892) 
0

>  <NONCOV_INTER_ENERGY_QM>  (892) 
0

>  <FF_Energy>  (892) 
23.18

>  <QM_Energy>  (892) 
-0.95

>  <source>  (892) 
ACET_PRPA_09

>  <Index>  (892) 
9253

$$$$
ACET-pdb1syx-A-GLU-107:PRPA-pdb1syx-A-LYS-40
     RDKit          3D

 18 16  0  0  0  0  0  0  0  0999 V2000
   -0.0021    1.5165   -0.0008 C   0  0  0  0  0  0  0  0  0  0  0  0
    0.5900    1.7768   -0.7723 H   0  0  0  0  0  0  0  0  0  0  0  0
    0.4601    1.7766    0.8551 H   0  0  0  0  0  0  0  0  0  0  0  0
   -0.9918    1.9662   -0.0809 H   0  0  0  0  0  0  0  0  0  0  0  0
    0.0000    0.0000    0.0000 C   0  0  0  0  0  0  0  0  0  0  0  0
   -1.0978   -0.5943    0.0000 O   0  0  0  0  0  1  0  0  0  0  0  0
    1.0978   -0.5921   -0.0000 O   0  0  0  0  0  0  0  0  0  0  0  0
    3.8158   -0.7011   -1.5591 C   0  0  0  0  0  0  0  0  0  0  0  0
    3.0221   -1.1088   -2.0067 H   0  0  0  0  0  0  0  0  0  0  0  0
    4.6542   -1.0787   -1.9444 H   0  0  0  0  0  0  0  0  0  0  0  0
    3.8015    0.3763   -1.7234 H   0  0  0  0  0  0  0  0  0  0  0  0
    3.7650   -1.0355   -0.0677 C   0  0  0  0  0  0  0  0  0  0  0  0
    4.5346   -0.5962    0.3830 H   0  0  0  0  0  0  0  0  0  0  0  0
    2.9067   -0.7010    0.3053 H   0  0  0  0  0  0  0  0  0  0  0  0
    3.8497   -2.5345    0.1703 C   0  0  0  0  0  0  0  0  0  0  0  0
    3.5724   -3.0182   -0.6676 H   0  0  0  0  0  0  0  0  0  0  0  0
    4.8031   -2.7833    0.3785 H   0  0  0  0  0  0  0  0  0  0  0  0
    3.2174   -2.8738    0.9907 H   0  0  0  0  0  0  0  0  0  0  0  0
  1  5  1  0
  5  6  1  0
  5  7  2  0
  1  2  1  0
  1  3  1  0
  1  4  1  0
  8 12  1  0
 12 15  1  0
  8  9  1  0
  8 10  1  0
  8 11  1  0
 12 13  1  0
 12 14  1  0
 15 16  1  0
 15 17  1  0
 15 18  1  0
M  CHG  1   6  -1
M  END
>  <PDB_ID>  (893) 
pdb1syx

>  <RESIDUE_NAME>  (893) 
GLU   LYS

>  <FRAG_NAME>  (893) 
ACET   PRPA

>  <FRAG_ATOM_NUM>  (893) 
fragi: 7  fragj: 11

>  <atom.prop.CHAIN_ID>  (893) 
A A A A A A A Z Z Z Z Z Z Z Z Z Z Z

>  <atom.prop.IS_HEAVY_ATOM>  (893) 
1 0 0 0 1 1 1 1 0 0 0 1 0 0 1 0 0 0

>  <DIFUSE_FUNC_ATOM>  (893) 
atom 6   atom 7   

>  <FINAL_SINGLE_POINT_ENERGY>  (893) 
0

>  <NONCOV_INTER_ENERGY_QM>  (893) 
0

>  <FF_Energy>  (893) 
26.74

>  <QM_Energy>  (893) 
-0.39

>  <source>  (893) 
ACET_PRPA_09

>  <Index>  (893) 
9257

$$$$
ACET-pdb1sj9-C-ASP-3005:PRPA-pdb1sj9-C-LYS-3013
     RDKit          3D

 18 16  0  0  0  0  0  0  0  0999 V2000
   -0.0436    1.5246    0.0173 C   0  0  0  0  0  0  0  0  0  0  0  0
   -0.0056    1.8291    0.9620 H   0  0  0  0  0  0  0  0  0  0  0  0
   -0.8888    1.8200   -0.4105 H   0  0  0  0  0  0  0  0  0  0  0  0
    0.7893    1.9760   -0.5219 H   0  0  0  0  0  0  0  0  0  0  0  0
    0.0000    0.0000    0.0000 C   0  0  0  0  0  0  0  0  0  0  0  0
   -1.0910   -0.5900   -0.0000 O   0  0  0  0  0  1  0  0  0  0  0  0
    1.0910   -0.6121   -0.0000 O   0  0  0  0  0  0  0  0  0  0  0  0
   -2.9736   -4.2610   -0.0641 C   0  0  0  0  0  0  0  0  0  0  0  0
   -2.3022   -4.5902    0.5922 H   0  0  0  0  0  0  0  0  0  0  0  0
   -2.4758   -4.0483   -1.0102 H   0  0  0  0  0  0  0  0  0  0  0  0
   -3.7072   -5.0473   -0.2418 H   0  0  0  0  0  0  0  0  0  0  0  0
   -3.6522   -3.0030    0.4982 C   0  0  0  0  0  0  0  0  0  0  0  0
   -3.8515   -2.3918   -0.2591 H   0  0  0  0  0  0  0  0  0  0  0  0
   -4.4922   -3.2798    0.9528 H   0  0  0  0  0  0  0  0  0  0  0  0
   -2.7853   -2.2503    1.5068 C   0  0  0  0  0  0  0  0  0  0  0  0
   -2.2263   -2.9110    2.0146 H   0  0  0  0  0  0  0  0  0  0  0  0
   -2.1799   -1.6215    1.0130 H   0  0  0  0  0  0  0  0  0  0  0  0
   -3.3749   -1.6749    2.2206 H   0  0  0  0  0  0  0  0  0  0  0  0
  1  5  1  0
  5  6  1  0
  5  7  2  0
  1  2  1  0
  1  3  1  0
  1  4  1  0
  8 12  1  0
 12 15  1  0
  8  9  1  0
  8 10  1  0
  8 11  1  0
 12 13  1  0
 12 14  1  0
 15 16  1  0
 15 17  1  0
 15 18  1  0
M  CHG  1   6  -1
M  END
>  <PDB_ID>  (894) 
pdb1sj9

>  <RESIDUE_NAME>  (894) 
ASP   LYS

>  <FRAG_NAME>  (894) 
ACET   PRPA

>  <FRAG_ATOM_NUM>  (894) 
fragi: 7  fragj: 11

>  <atom.prop.CHAIN_ID>  (894) 
A A A A A A A Z Z Z Z Z Z Z Z Z Z Z

>  <atom.prop.IS_HEAVY_ATOM>  (894) 
1 0 0 0 1 1 1 1 0 0 0 1 0 0 1 0 0 0

>  <DIFUSE_FUNC_ATOM>  (894) 
atom 6   atom 7   

>  <FINAL_SINGLE_POINT_ENERGY>  (894) 
0

>  <NONCOV_INTER_ENERGY_QM>  (894) 
0

>  <FF_Energy>  (894) 
25.56

>  <QM_Energy>  (894) 
-0.72

>  <source>  (894) 
ACET_PRPA_09

>  <Index>  (894) 
9971

$$$$
ACET-pdb1sj9-C-ASP-3005:PRPA-pdb1sj9-C-LYS-3013
     RDKit          3D

 18 16  0  0  0  0  0  0  0  0999 V2000
   -0.0436    1.5246    0.0173 C   0  0  0  0  0  0  0  0  0  0  0  0
   -0.0056    1.8291    0.9620 H   0  0  0  0  0  0  0  0  0  0  0  0
   -0.8888    1.8200   -0.4105 H   0  0  0  0  0  0  0  0  0  0  0  0
    0.7893    1.9760   -0.5219 H   0  0  0  0  0  0  0  0  0  0  0  0
    0.0000    0.0000    0.0000 C   0  0  0  0  0  0  0  0  0  0  0  0
   -1.0910   -0.5900   -0.0000 O   0  0  0  0  0  1  0  0  0  0  0  0
    1.0910   -0.6121   -0.0000 O   0  0  0  0  0  0  0  0  0  0  0  0
   -3.6522   -3.0030    0.4982 C   0  0  0  0  0  0  0  0  0  0  0  0
   -3.8515   -2.3918   -0.2591 H   0  0  0  0  0  0  0  0  0  0  0  0
   -4.4922   -3.2798    0.9528 H   0  0  0  0  0  0  0  0  0  0  0  0
   -3.1706   -3.8957    0.0991 H   0  0  0  0  0  0  0  0  0  0  0  0
   -2.7853   -2.2503    1.5068 C   0  0  0  0  0  0  0  0  0  0  0  0
   -2.2263   -2.9110    2.0146 H   0  0  0  0  0  0  0  0  0  0  0  0
   -2.1799   -1.6215    1.0130 H   0  0  0  0  0  0  0  0  0  0  0  0
   -3.6153   -1.4403    2.5117 C   0  0  0  0  0  0  0  0  0  0  0  0
   -2.9944   -0.9635    3.1249 H   0  0  0  0  0  0  0  0  0  0  0  0
   -4.1751   -0.7900    2.0099 H   0  0  0  0  0  0  0  0  0  0  0  0
   -4.2693   -2.0788    3.1054 H   0  0  0  0  0  0  0  0  0  0  0  0
  1  5  1  0
  5  6  1  0
  5  7  2  0
  1  2  1  0
  1  3  1  0
  1  4  1  0
  8 12  1  0
 12 15  1  0
  8  9  1  0
  8 10  1  0
  8 11  1  0
 12 13  1  0
 12 14  1  0
 15 16  1  0
 15 17  1  0
 15 18  1  0
M  CHG  1   6  -1
M  END
>  <PDB_ID>  (895) 
pdb1sj9

>  <RESIDUE_NAME>  (895) 
ASP   LYS

>  <FRAG_NAME>  (895) 
ACET   PRPA

>  <FRAG_ATOM_NUM>  (895) 
fragi: 7  fragj: 11

>  <atom.prop.CHAIN_ID>  (895) 
A A A A A A A Z Z Z Z Z Z Z Z Z Z Z

>  <atom.prop.IS_HEAVY_ATOM>  (895) 
1 0 0 0 1 1 1 1 0 0 0 1 0 0 1 0 0 0

>  <DIFUSE_FUNC_ATOM>  (895) 
atom 6   atom 7   

>  <FINAL_SINGLE_POINT_ENERGY>  (895) 
0

>  <NONCOV_INTER_ENERGY_QM>  (895) 
0

>  <FF_Energy>  (895) 
29.39

>  <QM_Energy>  (895) 
-1.12

>  <source>  (895) 
ACET_PRPA_09

>  <Index>  (895) 
9981

$$$$
ACET-pdb1sj9-C-ASP-3005:PRPA-pdb1sj9-C-LYS-3013
     RDKit          3D

 18 16  0  0  0  0  0  0  0  0999 V2000
   -0.0436    1.5246    0.0173 C   0  0  0  0  0  0  0  0  0  0  0  0
   -0.0056    1.8291    0.9620 H   0  0  0  0  0  0  0  0  0  0  0  0
   -0.8888    1.8200   -0.4105 H   0  0  0  0  0  0  0  0  0  0  0  0
    0.7893    1.9760   -0.5219 H   0  0  0  0  0  0  0  0  0  0  0  0
    0.0000    0.0000    0.0000 C   0  0  0  0  0  0  0  0  0  0  0  0
   -1.0910   -0.5900   -0.0000 O   0  0  0  0  0  1  0  0  0  0  0  0
    1.0910   -0.6121   -0.0000 O   0  0  0  0  0  0  0  0  0  0  0  0
   -2.7853   -2.2503    1.5068 C   0  0  0  0  0  0  0  0  0  0  0  0
   -2.2263   -2.9110    2.0146 H   0  0  0  0  0  0  0  0  0  0  0  0
   -2.1799   -1.6215    1.0130 H   0  0  0  0  0  0  0  0  0  0  0  0
   -3.4037   -2.7872    0.7874 H   0  0  0  0  0  0  0  0  0  0  0  0
   -3.6153   -1.4403    2.5117 C   0  0  0  0  0  0  0  0  0  0  0  0
   -2.9944   -0.9635    3.1249 H   0  0  0  0  0  0  0  0  0  0  0  0
   -4.1751   -0.7900    2.0099 H   0  0  0  0  0  0  0  0  0  0  0  0
   -4.5308   -2.3341    3.3428 C   0  0  0  0  0  0  0  0  0  0  0  0
   -4.9463   -1.7851    4.0694 H   0  0  0  0  0  0  0  0  0  0  0  0
   -5.2525   -2.6973    2.7512 H   0  0  0  0  0  0  0  0  0  0  0  0
   -3.9809   -3.1628    3.7886 H   0  0  0  0  0  0  0  0  0  0  0  0
  1  5  1  0
  5  6  1  0
  5  7  2  0
  1  2  1  0
  1  3  1  0
  1  4  1  0
  8 12  1  0
 12 15  1  0
  8  9  1  0
  8 10  1  0
  8 11  1  0
 12 13  1  0
 12 14  1  0
 15 16  1  0
 15 17  1  0
 15 18  1  0
M  CHG  1   6  -1
M  END
>  <PDB_ID>  (896) 
pdb1sj9

>  <RESIDUE_NAME>  (896) 
ASP   LYS

>  <FRAG_NAME>  (896) 
ACET   PRPA

>  <FRAG_ATOM_NUM>  (896) 
fragi: 7  fragj: 11

>  <atom.prop.CHAIN_ID>  (896) 
A A A A A A A Z Z Z Z Z Z Z Z Z Z Z

>  <atom.prop.IS_HEAVY_ATOM>  (896) 
1 0 0 0 1 1 1 1 0 0 0 1 0 0 1 0 0 0

>  <DIFUSE_FUNC_ATOM>  (896) 
atom 6   atom 7   

>  <FINAL_SINGLE_POINT_ENERGY>  (896) 
0

>  <NONCOV_INTER_ENERGY_QM>  (896) 
0

>  <FF_Energy>  (896) 
24.81

>  <QM_Energy>  (896) 
-0.12

>  <source>  (896) 
ACET_PRPA_09

>  <Index>  (896) 
9998

$$$$
ACET-pdb1sj2-A-GLU-651:PRPA-pdb1sj2-A-VAL-469
     RDKit          3D

 18 16  0  0  0  0  0  0  0  0999 V2000
   -0.0005    1.5267   -0.0052 C   0  0  0  0  0  0  0  0  0  0  0  0
   -0.5241    1.8229    0.7721 H   0  0  0  0  0  0  0  0  0  0  0  0
   -0.3975    1.8175   -0.8559 H   0  0  0  0  0  0  0  0  0  0  0  0
    0.9987    1.9553    0.0718 H   0  0  0  0  0  0  0  0  0  0  0  0
    0.0000    0.0000    0.0000 C   0  0  0  0  0  0  0  0  0  0  0  0
   -1.0982   -0.6016   -0.0000 O   0  0  0  0  0  1  0  0  0  0  0  0
    1.0982   -0.6019    0.0000 O   0  0  0  0  0  0  0  0  0  0  0  0
   -1.8480   -1.0451   -3.9389 C   0  0  0  0  0  0  0  0  0  0  0  0
   -2.7672   -0.7940   -4.2228 H   0  0  0  0  0  0  0  0  0  0  0  0
   -1.9277   -1.7537   -3.1144 H   0  0  0  0  0  0  0  0  0  0  0  0
   -1.3614   -1.5576   -4.7687 H   0  0  0  0  0  0  0  0  0  0  0  0
   -1.0002    0.2050   -3.5572 C   0  0  0  0  0  0  0  0  0  0  0  0
   -0.1706   -0.1246   -3.1239 H   0  0  0  0  0  0  0  0  0  0  0  0
   -0.7067    0.7466   -4.4564 H   0  0  0  0  0  0  0  0  0  0  0  0
   -1.7975    1.1221   -2.6588 C   0  0  0  0  0  0  0  0  0  0  0  0
   -1.7626    2.0570   -3.0174 H   0  0  0  0  0  0  0  0  0  0  0  0
   -2.7496    0.8144   -2.6251 H   0  0  0  0  0  0  0  0  0  0  0  0
   -1.4105    1.1060   -1.7346 H   0  0  0  0  0  0  0  0  0  0  0  0
  1  5  1  0
  5  6  1  0
  5  7  2  0
  1  2  1  0
  1  3  1  0
  1  4  1  0
  8 12  1  0
 12 15  1  0
  8  9  1  0
  8 10  1  0
  8 11  1  0
 12 13  1  0
 12 14  1  0
 15 16  1  0
 15 17  1  0
 15 18  1  0
M  CHG  1   6  -1
M  END
>  <PDB_ID>  (897) 
pdb1sj2

>  <RESIDUE_NAME>  (897) 
GLU   VAL

>  <FRAG_NAME>  (897) 
ACET   PRPA

>  <FRAG_ATOM_NUM>  (897) 
fragi: 7  fragj: 11

>  <atom.prop.CHAIN_ID>  (897) 
A A A A A A A Z Z Z Z Z Z Z Z Z Z Z

>  <atom.prop.IS_HEAVY_ATOM>  (897) 
1 0 0 0 1 1 1 1 0 0 0 1 0 0 1 0 0 0

>  <DIFUSE_FUNC_ATOM>  (897) 
atom 6   atom 7   

>  <FINAL_SINGLE_POINT_ENERGY>  (897) 
0

>  <NONCOV_INTER_ENERGY_QM>  (897) 
0

>  <FF_Energy>  (897) 
28.37

>  <QM_Energy>  (897) 
1.63

>  <source>  (897) 
ACET_PRPA_09

>  <Index>  (897) 
10436

$$$$
ACET-pdb1sj2-A-GLU-651:PRPA-pdb1sj2-A-VAL-469
     RDKit          3D

 18 16  0  0  0  0  0  0  0  0999 V2000
   -0.0005    1.5267   -0.0052 C   0  0  0  0  0  0  0  0  0  0  0  0
   -0.5241    1.8229    0.7721 H   0  0  0  0  0  0  0  0  0  0  0  0
   -0.3975    1.8175   -0.8559 H   0  0  0  0  0  0  0  0  0  0  0  0
    0.9987    1.9553    0.0718 H   0  0  0  0  0  0  0  0  0  0  0  0
    0.0000    0.0000    0.0000 C   0  0  0  0  0  0  0  0  0  0  0  0
   -1.0982   -0.6016   -0.0000 O   0  0  0  0  0  1  0  0  0  0  0  0
    1.0982   -0.6019    0.0000 O   0  0  0  0  0  0  0  0  0  0  0  0
   -0.5917    0.9588   -4.8088 C   0  0  0  0  0  0  0  0  0  0  0  0
   -0.4240    0.3105   -5.5527 H   0  0  0  0  0  0  0  0  0  0  0  0
   -1.3229    1.5877   -5.0767 H   0  0  0  0  0  0  0  0  0  0  0  0
    0.2435    1.4804   -4.6295 H   0  0  0  0  0  0  0  0  0  0  0  0
   -1.0002    0.2050   -3.5572 C   0  0  0  0  0  0  0  0  0  0  0  0
   -0.1706   -0.1246   -3.1239 H   0  0  0  0  0  0  0  0  0  0  0  0
   -1.5933   -0.6697   -3.8242 H   0  0  0  0  0  0  0  0  0  0  0  0
   -1.7975    1.1221   -2.6588 C   0  0  0  0  0  0  0  0  0  0  0  0
   -1.7626    2.0570   -3.0174 H   0  0  0  0  0  0  0  0  0  0  0  0
   -2.7496    0.8144   -2.6251 H   0  0  0  0  0  0  0  0  0  0  0  0
   -1.4105    1.1060   -1.7346 H   0  0  0  0  0  0  0  0  0  0  0  0
  1  5  1  0
  5  6  1  0
  5  7  2  0
  1  2  1  0
  1  3  1  0
  1  4  1  0
  8 12  1  0
 12 15  1  0
  8  9  1  0
  8 10  1  0
  8 11  1  0
 12 13  1  0
 12 14  1  0
 15 16  1  0
 15 17  1  0
 15 18  1  0
M  CHG  1   6  -1
M  END
>  <PDB_ID>  (898) 
pdb1sj2

>  <RESIDUE_NAME>  (898) 
GLU   VAL

>  <FRAG_NAME>  (898) 
ACET   PRPA

>  <FRAG_ATOM_NUM>  (898) 
fragi: 7  fragj: 11

>  <atom.prop.CHAIN_ID>  (898) 
A A A A A A A Z Z Z Z Z Z Z Z Z Z Z

>  <atom.prop.IS_HEAVY_ATOM>  (898) 
1 0 0 0 1 1 1 1 0 0 0 1 0 0 1 0 0 0

>  <DIFUSE_FUNC_ATOM>  (898) 
atom 6   atom 7   

>  <FINAL_SINGLE_POINT_ENERGY>  (898) 
0

>  <NONCOV_INTER_ENERGY_QM>  (898) 
0

>  <FF_Energy>  (898) 
27.88

>  <QM_Energy>  (898) 
2.43

>  <source>  (898) 
ACET_PRPA_09

>  <Index>  (898) 
10442

$$$$
ACET-pdb2z0m-A-GLU-189:PRPA-pdb2z0m-A-ARG-37
     RDKit          3D

 18 16  0  0  0  0  0  0  0  0999 V2000
   -0.0015    1.5124    0.0073 C   0  0  0  0  0  0  0  0  0  0  0  0
   -0.5802    1.8106   -0.7274 H   0  0  0  0  0  0  0  0  0  0  0  0
    0.9286    1.8088   -0.1042 H   0  0  0  0  0  0  0  0  0  0  0  0
   -0.3889    1.9174    0.9423 H   0  0  0  0  0  0  0  0  0  0  0  0
    0.0000    0.0000    0.0000 C   0  0  0  0  0  0  0  0  0  0  0  0
   -1.0968   -0.6001   -0.0000 O   0  0  0  0  0  1  0  0  0  0  0  0
    1.0968   -0.5858    0.0000 O   0  0  0  0  0  0  0  0  0  0  0  0
   -1.6412    3.3361   -3.7620 C   0  0  0  0  0  0  0  0  0  0  0  0
   -1.6785    3.2669   -4.7486 H   0  0  0  0  0  0  0  0  0  0  0  0
   -0.9885    4.1639   -3.4847 H   0  0  0  0  0  0  0  0  0  0  0  0
   -2.6333    3.5896   -3.3885 H   0  0  0  0  0  0  0  0  0  0  0  0
   -1.1744    2.0186   -3.1259 C   0  0  0  0  0  0  0  0  0  0  0  0
   -0.9396    2.2020   -2.1715 H   0  0  0  0  0  0  0  0  0  0  0  0
   -1.9343    1.3710   -3.1638 H   0  0  0  0  0  0  0  0  0  0  0  0
    0.0311    1.3693   -3.7915 C   0  0  0  0  0  0  0  0  0  0  0  0
   -0.0583    1.4287   -4.7732 H   0  0  0  0  0  0  0  0  0  0  0  0
    0.8592    1.8034   -3.4758 H   0  0  0  0  0  0  0  0  0  0  0  0
    0.0749    0.3154   -3.5170 H   0  0  0  0  0  0  0  0  0  0  0  0
  1  5  1  0
  5  6  1  0
  5  7  2  0
  1  2  1  0
  1  3  1  0
  1  4  1  0
  8 12  1  0
 12 15  1  0
  8  9  1  0
  8 10  1  0
  8 11  1  0
 12 13  1  0
 12 14  1  0
 15 16  1  0
 15 17  1  0
 15 18  1  0
M  CHG  1   6  -1
M  END
>  <PDB_ID>  (899) 
pdb2z0m

>  <RESIDUE_NAME>  (899) 
GLU   ARG

>  <FRAG_NAME>  (899) 
ACET   PRPA

>  <FRAG_ATOM_NUM>  (899) 
fragi: 7  fragj: 11

>  <atom.prop.CHAIN_ID>  (899) 
A A A A A A A Z Z Z Z Z Z Z Z Z Z Z

>  <atom.prop.IS_HEAVY_ATOM>  (899) 
1 0 0 0 1 1 1 1 0 0 0 1 0 0 1 0 0 0

>  <DIFUSE_FUNC_ATOM>  (899) 
atom 6   atom 7   

>  <FINAL_SINGLE_POINT_ENERGY>  (899) 
0

>  <NONCOV_INTER_ENERGY_QM>  (899) 
0

>  <FF_Energy>  (899) 
21.93

>  <QM_Energy>  (899) 
1.58

>  <source>  (899) 
ACET_PRPA_09

>  <Index>  (899) 
11690

$$$$
ACET-pdb2z0m-A-GLU-189:PRPA-pdb2z0m-A-ARG-37
     RDKit          3D

 18 16  0  0  0  0  0  0  0  0999 V2000
   -0.0015    1.5124    0.0073 C   0  0  0  0  0  0  0  0  0  0  0  0
   -0.5802    1.8106   -0.7274 H   0  0  0  0  0  0  0  0  0  0  0  0
    0.9286    1.8088   -0.1042 H   0  0  0  0  0  0  0  0  0  0  0  0
   -0.3889    1.9174    0.9423 H   0  0  0  0  0  0  0  0  0  0  0  0
    0.0000    0.0000    0.0000 C   0  0  0  0  0  0  0  0  0  0  0  0
   -1.0968   -0.6001   -0.0000 O   0  0  0  0  0  1  0  0  0  0  0  0
    1.0968   -0.5858    0.0000 O   0  0  0  0  0  0  0  0  0  0  0  0
   -1.1744    2.0186   -3.1259 C   0  0  0  0  0  0  0  0  0  0  0  0
   -0.9396    2.2020   -2.1715 H   0  0  0  0  0  0  0  0  0  0  0  0
   -1.9343    1.3710   -3.1638 H   0  0  0  0  0  0  0  0  0  0  0  0
   -1.5056    2.9537   -3.5773 H   0  0  0  0  0  0  0  0  0  0  0  0
    0.0311    1.3693   -3.7915 C   0  0  0  0  0  0  0  0  0  0  0  0
   -0.0583    1.4287   -4.7732 H   0  0  0  0  0  0  0  0  0  0  0  0
    0.8592    1.8034   -3.4758 H   0  0  0  0  0  0  0  0  0  0  0  0
    0.0925   -0.1083   -3.4067 C   0  0  0  0  0  0  0  0  0  0  0  0
    0.2974   -0.1609   -2.4269 H   0  0  0  0  0  0  0  0  0  0  0  0
   -0.8133   -0.5053   -3.5730 H   0  0  0  0  0  0  0  0  0  0  0  0
    0.8405   -0.6745   -3.9616 H   0  0  0  0  0  0  0  0  0  0  0  0
  1  5  1  0
  5  6  1  0
  5  7  2  0
  1  2  1  0
  1  3  1  0
  1  4  1  0
  8 12  1  0
 12 15  1  0
  8  9  1  0
  8 10  1  0
  8 11  1  0
 12 13  1  0
 12 14  1  0
 15 16  1  0
 15 17  1  0
 15 18  1  0
M  CHG  1   6  -1
M  END
>  <PDB_ID>  (900) 
pdb2z0m

>  <RESIDUE_NAME>  (900) 
GLU   ARG

>  <FRAG_NAME>  (900) 
ACET   PRPA

>  <FRAG_ATOM_NUM>  (900) 
fragi: 7  fragj: 11

>  <atom.prop.CHAIN_ID>  (900) 
A A A A A A A Z Z Z Z Z Z Z Z Z Z Z

>  <atom.prop.IS_HEAVY_ATOM>  (900) 
1 0 0 0 1 1 1 1 0 0 0 1 0 0 1 0 0 0

>  <DIFUSE_FUNC_ATOM>  (900) 
atom 6   atom 7   

>  <FINAL_SINGLE_POINT_ENERGY>  (900) 
0

>  <NONCOV_INTER_ENERGY_QM>  (900) 
0

>  <FF_Energy>  (900) 
20.1

>  <QM_Energy>  (900) 
0.68

>  <source>  (900) 
ACET_PRPA_09

>  <Index>  (900) 
11694

$$$$
ACET-pdb1t5c-A-GLU-64:PRPA-pdb1t5c-A-LYS-60
     RDKit          3D

 18 16  0  0  0  0  0  0  0  0999 V2000
   -0.0051    1.5279    0.0055 C   0  0  0  0  0  0  0  0  0  0  0  0
   -0.3700    1.8180    0.8720 H   0  0  0  0  0  0  0  0  0  0  0  0
   -0.5645    1.8220   -0.7486 H   0  0  0  0  0  0  0  0  0  0  0  0
    0.9856    1.9671   -0.1110 H   0  0  0  0  0  0  0  0  0  0  0  0
    0.0000    0.0000    0.0000 C   0  0  0  0  0  0  0  0  0  0  0  0
   -1.0972   -0.5926   -0.0000 O   0  0  0  0  0  1  0  0  0  0  0  0
    1.0972   -0.5968    0.0000 O   0  0  0  0  0  0  0  0  0  0  0  0
   -3.0407   -0.2677   -2.6780 C   0  0  0  0  0  0  0  0  0  0  0  0
   -2.2212    0.0476   -2.1940 H   0  0  0  0  0  0  0  0  0  0  0  0
   -3.8503    0.1428   -2.2518 H   0  0  0  0  0  0  0  0  0  0  0  0
   -2.9842    0.0561   -3.7173 H   0  0  0  0  0  0  0  0  0  0  0  0
   -3.1333   -1.7828   -2.5513 C   0  0  0  0  0  0  0  0  0  0  0  0
   -3.9724   -2.0905   -2.9808 H   0  0  0  0  0  0  0  0  0  0  0  0
   -2.3423   -2.1916   -2.9882 H   0  0  0  0  0  0  0  0  0  0  0  0
   -3.1525   -2.2052   -1.0877 C   0  0  0  0  0  0  0  0  0  0  0  0
   -2.4471   -1.6840   -0.5924 H   0  0  0  0  0  0  0  0  0  0  0  0
   -4.0505   -1.9719   -0.6964 H   0  0  0  0  0  0  0  0  0  0  0  0
   -2.9698   -3.2721   -0.9591 H   0  0  0  0  0  0  0  0  0  0  0  0
  1  5  1  0
  5  6  1  0
  5  7  2  0
  1  2  1  0
  1  3  1  0
  1  4  1  0
  8 12  1  0
 12 15  1  0
  8  9  1  0
  8 10  1  0
  8 11  1  0
 12 13  1  0
 12 14  1  0
 15 16  1  0
 15 17  1  0
 15 18  1  0
M  CHG  1   6  -1
M  END
>  <PDB_ID>  (901) 
pdb1t5c

>  <RESIDUE_NAME>  (901) 
GLU   LYS

>  <FRAG_NAME>  (901) 
ACET   PRPA

>  <FRAG_ATOM_NUM>  (901) 
fragi: 7  fragj: 11

>  <atom.prop.CHAIN_ID>  (901) 
A A A A A A A Z Z Z Z Z Z Z Z Z Z Z

>  <atom.prop.IS_HEAVY_ATOM>  (901) 
1 0 0 0 1 1 1 1 0 0 0 1 0 0 1 0 0 0

>  <DIFUSE_FUNC_ATOM>  (901) 
atom 6   atom 7   

>  <FINAL_SINGLE_POINT_ENERGY>  (901) 
0

>  <NONCOV_INTER_ENERGY_QM>  (901) 
0

>  <FF_Energy>  (901) 
21.52

>  <QM_Energy>  (901) 
-1.93

>  <source>  (901) 
ACET_PRPA_09

>  <Index>  (901) 
13950

$$$$
ACET-pdb2z04-A-ASP-184:PRPA-pdb2z04-A-LYS-188
     RDKit          3D

 18 16  0  0  0  0  0  0  0  0999 V2000
    0.0226    1.5147   -0.0124 C   0  0  0  0  0  0  0  0  0  0  0  0
   -0.2540    1.8327   -0.9133 H   0  0  0  0  0  0  0  0  0  0  0  0
    0.9436    1.8246    0.1953 H   0  0  0  0  0  0  0  0  0  0  0  0
   -0.6526    1.9565    0.7205 H   0  0  0  0  0  0  0  0  0  0  0  0
    0.0000    0.0000    0.0000 C   0  0  0  0  0  0  0  0  0  0  0  0
   -1.0948   -0.6017    0.0000 O   0  0  0  0  0  1  0  0  0  0  0  0
    1.0948   -0.5912    0.0000 O   0  0  0  0  0  0  0  0  0  0  0  0
    1.0048   -2.9758    1.3893 C   0  0  0  0  0  0  0  0  0  0  0  0
    0.6973   -3.4675    0.5806 H   0  0  0  0  0  0  0  0  0  0  0  0
    1.1300   -2.0112    1.1798 H   0  0  0  0  0  0  0  0  0  0  0  0
    0.2336   -3.0613    2.1549 H   0  0  0  0  0  0  0  0  0  0  0  0
    2.3468   -3.5518    1.8197 C   0  0  0  0  0  0  0  0  0  0  0  0
    2.5819   -3.1889    2.7268 H   0  0  0  0  0  0  0  0  0  0  0  0
    2.2692   -4.5511    1.8830 H   0  0  0  0  0  0  0  0  0  0  0  0
    3.4720   -3.2090    0.8507 C   0  0  0  0  0  0  0  0  0  0  0  0
    4.2758   -3.7483    1.0877 H   0  0  0  0  0  0  0  0  0  0  0  0
    3.1765   -3.4235   -0.0758 H   0  0  0  0  0  0  0  0  0  0  0  0
    3.7398   -2.1533    0.8921 H   0  0  0  0  0  0  0  0  0  0  0  0
  1  5  1  0
  5  6  1  0
  5  7  2  0
  1  2  1  0
  1  3  1  0
  1  4  1  0
  8 12  1  0
 12 15  1  0
  8  9  1  0
  8 10  1  0
  8 11  1  0
 12 13  1  0
 12 14  1  0
 15 16  1  0
 15 17  1  0
 15 18  1  0
M  CHG  1   6  -1
M  END
>  <PDB_ID>  (902) 
pdb2z04

>  <RESIDUE_NAME>  (902) 
ASP   LYS

>  <FRAG_NAME>  (902) 
ACET   PRPA

>  <FRAG_ATOM_NUM>  (902) 
fragi: 7  fragj: 11

>  <atom.prop.CHAIN_ID>  (902) 
A A A A A A A Z Z Z Z Z Z Z Z Z Z Z

>  <atom.prop.IS_HEAVY_ATOM>  (902) 
1 0 0 0 1 1 1 1 0 0 0 1 0 0 1 0 0 0

>  <DIFUSE_FUNC_ATOM>  (902) 
atom 6   atom 7   

>  <FINAL_SINGLE_POINT_ENERGY>  (902) 
0

>  <NONCOV_INTER_ENERGY_QM>  (902) 
0

>  <FF_Energy>  (902) 
21.17

>  <QM_Energy>  (902) 
1.25

>  <source>  (902) 
ACET_PRPA_09

>  <Index>  (902) 
14707

$$$$
ACET-pdb2z51-A-GLU-74:PRPA-pdb2z51-A-VAL-36
     RDKit          3D

 18 16  0  0  0  0  0  0  0  0999 V2000
    0.0018    1.5207    0.0389 C   0  0  0  0  0  0  0  0  0  0  0  0
    0.6887    1.8430   -0.5887 H   0  0  0  0  0  0  0  0  0  0  0  0
    0.1891    1.8030    0.9645 H   0  0  0  0  0  0  0  0  0  0  0  0
   -0.9409    1.9830   -0.2540 H   0  0  0  0  0  0  0  0  0  0  0  0
    0.0000    0.0000    0.0000 C   0  0  0  0  0  0  0  0  0  0  0  0
   -1.1176   -0.6270   -0.0000 O   0  0  0  0  0  1  0  0  0  0  0  0
    1.1176   -0.5893    0.0000 O   0  0  0  0  0  0  0  0  0  0  0  0
    4.9891    0.2465   -0.1540 C   0  0  0  0  0  0  0  0  0  0  0  0
    4.5211   -0.5585   -0.5120 H   0  0  0  0  0  0  0  0  0  0  0  0
    5.9995   -0.0502    0.1272 H   0  0  0  0  0  0  0  0  0  0  0  0
    5.0505    0.9891   -0.9495 H   0  0  0  0  0  0  0  0  0  0  0  0
    4.2280    0.8386    1.0482 C   0  0  0  0  0  0  0  0  0  0  0  0
    4.6901    1.6743    1.3187 H   0  0  0  0  0  0  0  0  0  0  0  0
    4.2009    0.0850    1.8352 H   0  0  0  0  0  0  0  0  0  0  0  0
    2.8077    1.2324    0.6315 C   0  0  0  0  0  0  0  0  0  0  0  0
    2.7716    1.3316   -0.3616 H   0  0  0  0  0  0  0  0  0  0  0  0
    2.1707    0.5207    0.9222 H   0  0  0  0  0  0  0  0  0  0  0  0
    2.5655    2.0982    1.0655 H   0  0  0  0  0  0  0  0  0  0  0  0
  1  5  1  0
  5  6  1  0
  5  7  2  0
  1  2  1  0
  1  3  1  0
  1  4  1  0
  8 12  1  0
 12 15  1  0
  8  9  1  0
  8 10  1  0
  8 11  1  0
 12 13  1  0
 12 14  1  0
 15 16  1  0
 15 17  1  0
 15 18  1  0
M  CHG  1   6  -1
M  END
>  <PDB_ID>  (903) 
pdb2z51

>  <RESIDUE_NAME>  (903) 
GLU   VAL

>  <FRAG_NAME>  (903) 
ACET   PRPA

>  <FRAG_ATOM_NUM>  (903) 
fragi: 7  fragj: 11

>  <atom.prop.CHAIN_ID>  (903) 
A A A A A A A Z Z Z Z Z Z Z Z Z Z Z

>  <atom.prop.IS_HEAVY_ATOM>  (903) 
1 0 0 0 1 1 1 1 0 0 0 1 0 0 1 0 0 0

>  <DIFUSE_FUNC_ATOM>  (903) 
atom 6   atom 7   

>  <FINAL_SINGLE_POINT_ENERGY>  (903) 
0

>  <NONCOV_INTER_ENERGY_QM>  (903) 
0

>  <FF_Energy>  (903) 
47.5

>  <QM_Energy>  (903) 
9.3

>  <source>  (903) 
ACET_PRPA_09

>  <Index>  (903) 
14965

$$$$
ACET-pdb2z51-A-GLU-74:PRPA-pdb2z51-A-VAL-36
     RDKit          3D

 18 16  0  0  0  0  0  0  0  0999 V2000
    0.0018    1.5207    0.0389 C   0  0  0  0  0  0  0  0  0  0  0  0
    0.6887    1.8430   -0.5887 H   0  0  0  0  0  0  0  0  0  0  0  0
    0.1891    1.8030    0.9645 H   0  0  0  0  0  0  0  0  0  0  0  0
   -0.9409    1.9830   -0.2540 H   0  0  0  0  0  0  0  0  0  0  0  0
    0.0000    0.0000    0.0000 C   0  0  0  0  0  0  0  0  0  0  0  0
   -1.1176   -0.6270   -0.0000 O   0  0  0  0  0  1  0  0  0  0  0  0
    1.1176   -0.5893    0.0000 O   0  0  0  0  0  0  0  0  0  0  0  0
    2.8077    1.2324    0.6315 C   0  0  0  0  0  0  0  0  0  0  0  0
    2.7716    1.3316   -0.3616 H   0  0  0  0  0  0  0  0  0  0  0  0
    2.1707    0.5207    0.9222 H   0  0  0  0  0  0  0  0  0  0  0  0
    2.5655    2.0982    1.0655 H   0  0  0  0  0  0  0  0  0  0  0  0
    4.2280    0.8386    1.0482 C   0  0  0  0  0  0  0  0  0  0  0  0
    4.6901    1.6743    1.3187 H   0  0  0  0  0  0  0  0  0  0  0  0
    4.7663    0.4198    0.1979 H   0  0  0  0  0  0  0  0  0  0  0  0
    4.1902   -0.2129    2.1463 C   0  0  0  0  0  0  0  0  0  0  0  0
    4.7118   -1.0144    1.8548 H   0  0  0  0  0  0  0  0  0  0  0  0
    4.5926    0.1647    2.9801 H   0  0  0  0  0  0  0  0  0  0  0  0
    3.2406   -0.4753    2.3205 H   0  0  0  0  0  0  0  0  0  0  0  0
  1  5  1  0
  5  6  1  0
  5  7  2  0
  1  2  1  0
  1  3  1  0
  1  4  1  0
  8 12  1  0
 12 15  1  0
  8  9  1  0
  8 10  1  0
  8 11  1  0
 12 13  1  0
 12 14  1  0
 15 16  1  0
 15 17  1  0
 15 18  1  0
M  CHG  1   6  -1
M  END
>  <PDB_ID>  (904) 
pdb2z51

>  <RESIDUE_NAME>  (904) 
GLU   VAL

>  <FRAG_NAME>  (904) 
ACET   PRPA

>  <FRAG_ATOM_NUM>  (904) 
fragi: 7  fragj: 11

>  <atom.prop.CHAIN_ID>  (904) 
A A A A A A A Z Z Z Z Z Z Z Z Z Z Z

>  <atom.prop.IS_HEAVY_ATOM>  (904) 
1 0 0 0 1 1 1 1 0 0 0 1 0 0 1 0 0 0

>  <DIFUSE_FUNC_ATOM>  (904) 
atom 6   atom 7   

>  <FINAL_SINGLE_POINT_ENERGY>  (904) 
0

>  <NONCOV_INTER_ENERGY_QM>  (904) 
0

>  <FF_Energy>  (904) 
43.94

>  <QM_Energy>  (904) 
9.32

>  <source>  (904) 
ACET_PRPA_09

>  <Index>  (904) 
14984

$$$$
ACET-pdb1sj9-E-ASP-5027:PRPA-pdb1sj9-E-ARG-5030
     RDKit          3D

 18 16  0  0  0  0  0  0  0  0999 V2000
   -0.0023    1.5152   -0.0007 C   0  0  0  0  0  0  0  0  0  0  0  0
   -0.4601    1.8352   -0.8213 H   0  0  0  0  0  0  0  0  0  0  0  0
    0.9354    1.8382    0.0254 H   0  0  0  0  0  0  0  0  0  0  0  0
   -0.5250    1.9331    0.8596 H   0  0  0  0  0  0  0  0  0  0  0  0
    0.0000    0.0000    0.0000 C   0  0  0  0  0  0  0  0  0  0  0  0
   -1.0978   -0.5943   -0.0000 O   0  0  0  0  0  1  0  0  0  0  0  0
    1.0978   -0.5973   -0.0000 O   0  0  0  0  0  0  0  0  0  0  0  0
   -2.5366   -3.1045    1.7922 C   0  0  0  0  0  0  0  0  0  0  0  0
   -2.2496   -2.1680    1.9682 H   0  0  0  0  0  0  0  0  0  0  0  0
   -2.8796   -3.5227    2.6265 H   0  0  0  0  0  0  0  0  0  0  0  0
   -3.3432   -3.0851    1.0594 H   0  0  0  0  0  0  0  0  0  0  0  0
   -1.3191   -3.8927    1.3377 C   0  0  0  0  0  0  0  0  0  0  0  0
   -0.6328   -3.8919    2.0642 H   0  0  0  0  0  0  0  0  0  0  0  0
   -1.5901   -4.8333    1.1345 H   0  0  0  0  0  0  0  0  0  0  0  0
   -0.6915   -3.3014    0.0912 C   0  0  0  0  0  0  0  0  0  0  0  0
   -1.3434   -3.3917   -0.6584 H   0  0  0  0  0  0  0  0  0  0  0  0
   -0.5057   -2.3365    0.2652 H   0  0  0  0  0  0  0  0  0  0  0  0
    0.2378   -3.8035   -0.1781 H   0  0  0  0  0  0  0  0  0  0  0  0
  1  5  1  0
  5  6  1  0
  5  7  2  0
  1  2  1  0
  1  3  1  0
  1  4  1  0
  8 12  1  0
 12 15  1  0
  8  9  1  0
  8 10  1  0
  8 11  1  0
 12 13  1  0
 12 14  1  0
 15 16  1  0
 15 17  1  0
 15 18  1  0
M  CHG  1   6  -1
M  END
>  <PDB_ID>  (905) 
pdb1sj9

>  <RESIDUE_NAME>  (905) 
ASP   ARG

>  <FRAG_NAME>  (905) 
ACET   PRPA

>  <FRAG_ATOM_NUM>  (905) 
fragi: 7  fragj: 11

>  <atom.prop.CHAIN_ID>  (905) 
A A A A A A A Z Z Z Z Z Z Z Z Z Z Z

>  <atom.prop.IS_HEAVY_ATOM>  (905) 
1 0 0 0 1 1 1 1 0 0 0 1 0 0 1 0 0 0

>  <DIFUSE_FUNC_ATOM>  (905) 
atom 6   atom 7   

>  <FINAL_SINGLE_POINT_ENERGY>  (905) 
0

>  <NONCOV_INTER_ENERGY_QM>  (905) 
0

>  <FF_Energy>  (905) 
21.8

>  <QM_Energy>  (905) 
1.7

>  <source>  (905) 
ACET_PRPA_09

>  <Index>  (905) 
15045

$$$$
ACET-pdb2xlb-F-ASP-77:PRPA-pdb2xlb-F-LYS-55
     RDKit          3D

 18 16  0  0  0  0  0  0  0  0999 V2000
    0.0275    1.5317    0.0088 C   0  0  0  0  0  0  0  0  0  0  0  0
    0.3490    1.8452   -0.8778 H   0  0  0  0  0  0  0  0  0  0  0  0
    0.6426    1.8306    0.7285 H   0  0  0  0  0  0  0  0  0  0  0  0
   -0.9498    1.9785    0.1910 H   0  0  0  0  0  0  0  0  0  0  0  0
    0.0000    0.0000    0.0000 C   0  0  0  0  0  0  0  0  0  0  0  0
   -1.0912   -0.6082   -0.0000 O   0  0  0  0  0  1  0  0  0  0  0  0
    1.0912   -0.6031   -0.0000 O   0  0  0  0  0  0  0  0  0  0  0  0
   -0.7489    0.2560   -3.8669 C   0  0  0  0  0  0  0  0  0  0  0  0
    0.0729   -0.2860   -4.0485 H   0  0  0  0  0  0  0  0  0  0  0  0
   -0.6126    0.7926   -3.0323 H   0  0  0  0  0  0  0  0  0  0  0  0
   -0.9160    0.9361   -4.7022 H   0  0  0  0  0  0  0  0  0  0  0  0
   -1.9234   -0.6811   -3.6642 C   0  0  0  0  0  0  0  0  0  0  0  0
   -2.7427   -0.1357   -3.4854 H   0  0  0  0  0  0  0  0  0  0  0  0
   -2.0568   -1.2150   -4.5004 H   0  0  0  0  0  0  0  0  0  0  0  0
   -1.7153   -1.6354   -2.5096 C   0  0  0  0  0  0  0  0  0  0  0  0
   -0.9004   -2.1878   -2.6837 H   0  0  0  0  0  0  0  0  0  0  0  0
   -1.5860   -1.1094   -1.6692 H   0  0  0  0  0  0  0  0  0  0  0  0
   -2.5767   -2.2929   -2.3927 H   0  0  0  0  0  0  0  0  0  0  0  0
  1  5  1  0
  5  6  1  0
  5  7  2  0
  1  2  1  0
  1  3  1  0
  1  4  1  0
  8 12  1  0
 12 15  1  0
  8  9  1  0
  8 10  1  0
  8 11  1  0
 12 13  1  0
 12 14  1  0
 15 16  1  0
 15 17  1  0
 15 18  1  0
M  CHG  1   6  -1
M  END
>  <PDB_ID>  (906) 
pdb2xlb

>  <RESIDUE_NAME>  (906) 
ASP   LYS

>  <FRAG_NAME>  (906) 
ACET   PRPA

>  <FRAG_ATOM_NUM>  (906) 
fragi: 7  fragj: 11

>  <atom.prop.CHAIN_ID>  (906) 
A A A A A A A Z Z Z Z Z Z Z Z Z Z Z

>  <atom.prop.IS_HEAVY_ATOM>  (906) 
1 0 0 0 1 1 1 1 0 0 0 1 0 0 1 0 0 0

>  <DIFUSE_FUNC_ATOM>  (906) 
atom 6   atom 7   

>  <FINAL_SINGLE_POINT_ENERGY>  (906) 
0

>  <NONCOV_INTER_ENERGY_QM>  (906) 
0

>  <FF_Energy>  (906) 
25.52

>  <QM_Energy>  (906) 
0.08

>  <source>  (906) 
ACET_PRPA_09

>  <Index>  (906) 
15195

$$$$
ACET-pdb2z34-A-ASP-89:PRPA-pdb2z34-A-GLN-86
     RDKit          3D

 18 16  0  0  0  0  0  0  0  0999 V2000
   -0.0939    1.5205    0.0416 C   0  0  0  0  0  0  0  0  0  0  0  0
   -0.8773    1.7731    0.5961 H   0  0  0  0  0  0  0  0  0  0  0  0
   -0.1990    1.8556   -0.8864 H   0  0  0  0  0  0  0  0  0  0  0  0
    0.7933    1.9833    0.4738 H   0  0  0  0  0  0  0  0  0  0  0  0
    0.0000    0.0000    0.0000 C   0  0  0  0  0  0  0  0  0  0  0  0
   -1.0911   -0.6050   -0.0000 O   0  0  0  0  0  1  0  0  0  0  0  0
    1.0911   -0.6630    0.0000 O   0  0  0  0  0  0  0  0  0  0  0  0
   -1.8785   -1.6242    3.6367 C   0  0  0  0  0  0  0  0  0  0  0  0
   -1.6281   -2.1414    4.4436 H   0  0  0  0  0  0  0  0  0  0  0  0
   -2.9627   -1.6648    3.5327 H   0  0  0  0  0  0  0  0  0  0  0  0
   -1.6170   -0.5801    3.8084 H   0  0  0  0  0  0  0  0  0  0  0  0
   -1.1420   -2.0899    2.3808 C   0  0  0  0  0  0  0  0  0  0  0  0
   -1.3355   -1.4324    1.6352 H   0  0  0  0  0  0  0  0  0  0  0  0
   -0.1450   -2.0549    2.5637 H   0  0  0  0  0  0  0  0  0  0  0  0
   -1.4783   -3.4773    1.8819 C   0  0  0  0  0  0  0  0  0  0  0  0
   -0.7780   -4.1131    2.1851 H   0  0  0  0  0  0  0  0  0  0  0  0
   -2.3683   -3.7451    2.2317 H   0  0  0  0  0  0  0  0  0  0  0  0
   -1.5163   -3.5067    0.7929 H   0  0  0  0  0  0  0  0  0  0  0  0
  1  5  1  0
  5  6  1  0
  5  7  2  0
  1  2  1  0
  1  3  1  0
  1  4  1  0
  8 12  1  0
 12 15  1  0
  8  9  1  0
  8 10  1  0
  8 11  1  0
 12 13  1  0
 12 14  1  0
 15 16  1  0
 15 17  1  0
 15 18  1  0
M  CHG  1   6  -1
M  END
>  <PDB_ID>  (907) 
pdb2z34

>  <RESIDUE_NAME>  (907) 
ASP   GLN

>  <FRAG_NAME>  (907) 
ACET   PRPA

>  <FRAG_ATOM_NUM>  (907) 
fragi: 7  fragj: 11

>  <atom.prop.CHAIN_ID>  (907) 
A A A A A A A Z Z Z Z Z Z Z Z Z Z Z

>  <atom.prop.IS_HEAVY_ATOM>  (907) 
1 0 0 0 1 1 1 1 0 0 0 1 0 0 1 0 0 0

>  <DIFUSE_FUNC_ATOM>  (907) 
atom 6   atom 7   

>  <FINAL_SINGLE_POINT_ENERGY>  (907) 
0

>  <NONCOV_INTER_ENERGY_QM>  (907) 
0

>  <FF_Energy>  (907) 
22.89

>  <QM_Energy>  (907) 
-1.08

>  <source>  (907) 
ACET_PRPA_09

>  <Index>  (907) 
15310

$$$$
ACET-pdb2z1d-A-ASP-75:PRPA-pdb2z1d-A-PRO-72
     RDKit          3D

 18 16  0  0  0  0  0  0  0  0999 V2000
    0.0118    1.5163    0.0081 C   0  0  0  0  0  0  0  0  0  0  0  0
   -0.9189    1.8420    0.1124 H   0  0  0  0  0  0  0  0  0  0  0  0
    0.4051    1.8372   -0.8428 H   0  0  0  0  0  0  0  0  0  0  0  0
    0.6057    1.9175    0.8294 H   0  0  0  0  0  0  0  0  0  0  0  0
    0.0000    0.0000    0.0000 C   0  0  0  0  0  0  0  0  0  0  0  0
   -1.1016   -0.6035   -0.0000 O   0  0  0  0  0  1  0  0  0  0  0  0
    1.1016   -0.5849    0.0000 O   0  0  0  0  0  0  0  0  0  0  0  0
   -4.4508    1.2341    2.1214 C   0  0  0  0  0  0  0  0  0  0  0  0
   -5.2812    1.0978    2.7375 H   0  0  0  0  0  0  0  0  0  0  0  0
   -4.7796    1.3097    1.0849 H   0  0  0  0  0  0  0  0  0  0  0  0
   -3.8132    2.0207    2.5248 H   0  0  0  0  0  0  0  0  0  0  0  0
   -3.8141   -0.1674    2.2082 C   0  0  0  0  0  0  0  0  0  0  0  0
   -2.9126   -0.1158    2.6491 H   0  0  0  0  0  0  0  0  0  0  0  0
   -4.3985   -0.7854    2.7417 H   0  0  0  0  0  0  0  0  0  0  0  0
   -3.6906   -0.6375    0.7902 C   0  0  0  0  0  0  0  0  0  0  0  0
   -2.7547   -0.4446    0.4436 H   0  0  0  0  0  0  0  0  0  0  0  0
   -3.8184   -1.6447    0.7489 H   0  0  0  0  0  0  0  0  0  0  0  0
   -4.4471   -0.1171    0.2029 H   0  0  0  0  0  0  0  0  0  0  0  0
  1  5  1  0
  5  6  1  0
  5  7  2  0
  1  2  1  0
  1  3  1  0
  1  4  1  0
  8 12  1  0
 12 15  1  0
  8  9  1  0
  8 10  1  0
  8 11  1  0
 12 13  1  0
 12 14  1  0
 15 16  1  0
 15 17  1  0
 15 18  1  0
M  CHG  1   6  -1
M  END
>  <PDB_ID>  (908) 
pdb2z1d

>  <RESIDUE_NAME>  (908) 
ASP   PRO

>  <FRAG_NAME>  (908) 
ACET   PRPA

>  <FRAG_ATOM_NUM>  (908) 
fragi: 7  fragj: 11

>  <atom.prop.CHAIN_ID>  (908) 
A A A A A A A Z Z Z Z Z Z Z Z Z Z Z

>  <atom.prop.IS_HEAVY_ATOM>  (908) 
1 0 0 0 1 1 1 1 0 0 0 1 0 0 1 0 0 0

>  <DIFUSE_FUNC_ATOM>  (908) 
atom 6   atom 7   

>  <FINAL_SINGLE_POINT_ENERGY>  (908) 
0

>  <NONCOV_INTER_ENERGY_QM>  (908) 
0

>  <FF_Energy>  (908) 
48.57

>  <QM_Energy>  (908) 
1.19

>  <source>  (908) 
ACET_PRPA_09

>  <Index>  (908) 
16288

$$$$
ACET-pdb1sj9-E-ASP-5133:PRPA-pdb1sj9-E-ARG-5212
     RDKit          3D

 18 16  0  0  0  0  0  0  0  0999 V2000
    0.0107    1.5026   -0.0079 C   0  0  0  0  0  0  0  0  0  0  0  0
   -0.3930    1.8272   -0.8569 H   0  0  0  0  0  0  0  0  0  0  0  0
    0.9484    1.8225    0.0720 H   0  0  0  0  0  0  0  0  0  0  0  0
   -0.5595    1.9301    0.8169 H   0  0  0  0  0  0  0  0  0  0  0  0
    0.0000    0.0000    0.0000 C   0  0  0  0  0  0  0  0  0  0  0  0
   -1.1021   -0.5919   -0.0000 O   0  0  0  0  0  1  0  0  0  0  0  0
    1.1021   -0.5847    0.0000 O   0  0  0  0  0  0  0  0  0  0  0  0
    1.3476    0.3416   -3.3812 C   0  0  0  0  0  0  0  0  0  0  0  0
    2.1443    0.0970   -3.9396 H   0  0  0  0  0  0  0  0  0  0  0  0
    1.6575    0.5626   -2.4527 H   0  0  0  0  0  0  0  0  0  0  0  0
    0.9020    1.2401   -3.8082 H   0  0  0  0  0  0  0  0  0  0  0  0
    0.4423   -0.8856   -3.2933 C   0  0  0  0  0  0  0  0  0  0  0  0
   -0.3985   -0.6448   -2.8337 H   0  0  0  0  0  0  0  0  0  0  0  0
    0.2697   -1.2345   -4.2016 H   0  0  0  0  0  0  0  0  0  0  0  0
    1.1313   -1.9855   -2.4836 C   0  0  0  0  0  0  0  0  0  0  0  0
    1.2118   -1.6699   -1.5457 H   0  0  0  0  0  0  0  0  0  0  0  0
    0.5644   -2.7999   -2.5315 H   0  0  0  0  0  0  0  0  0  0  0  0
    2.1229   -2.2098   -2.8768 H   0  0  0  0  0  0  0  0  0  0  0  0
  1  5  1  0
  5  6  1  0
  5  7  2  0
  1  2  1  0
  1  3  1  0
  1  4  1  0
  8 12  1  0
 12 15  1  0
  8  9  1  0
  8 10  1  0
  8 11  1  0
 12 13  1  0
 12 14  1  0
 15 16  1  0
 15 17  1  0
 15 18  1  0
M  CHG  1   6  -1
M  END
>  <PDB_ID>  (909) 
pdb1sj9

>  <RESIDUE_NAME>  (909) 
ASP   ARG

>  <FRAG_NAME>  (909) 
ACET   PRPA

>  <FRAG_ATOM_NUM>  (909) 
fragi: 7  fragj: 11

>  <atom.prop.CHAIN_ID>  (909) 
A A A A A A A Z Z Z Z Z Z Z Z Z Z Z

>  <atom.prop.IS_HEAVY_ATOM>  (909) 
1 0 0 0 1 1 1 1 0 0 0 1 0 0 1 0 0 0

>  <DIFUSE_FUNC_ATOM>  (909) 
atom 6   atom 7   

>  <FINAL_SINGLE_POINT_ENERGY>  (909) 
0

>  <NONCOV_INTER_ENERGY_QM>  (909) 
0

>  <FF_Energy>  (909) 
15.03

>  <QM_Energy>  (909) 
-3.63

>  <source>  (909) 
ACET_PRPA_09

>  <Index>  (909) 
16328

$$$$
ACET-pdb2z1m-A-GLU-51:PRPA-pdb2z1m-A-LYS-46
     RDKit          3D

 18 16  0  0  0  0  0  0  0  0999 V2000
    0.0125    1.5323    0.0313 C   0  0  0  0  0  0  0  0  0  0  0  0
    0.8731    1.8122    0.4150 H   0  0  0  0  0  0  0  0  0  0  0  0
   -0.7514    1.8210    0.5795 H   0  0  0  0  0  0  0  0  0  0  0  0
   -0.0830    1.9918   -0.9524 H   0  0  0  0  0  0  0  0  0  0  0  0
    0.0000    0.0000    0.0000 C   0  0  0  0  0  0  0  0  0  0  0  0
   -1.0871   -0.5944    0.0000 O   0  0  0  0  0  1  0  0  0  0  0  0
    1.0871   -0.6161   -0.0000 O   0  0  0  0  0  0  0  0  0  0  0  0
   -3.6245   -0.1969   -1.2676 C   0  0  0  0  0  0  0  0  0  0  0  0
   -2.6960   -0.2296   -0.8628 H   0  0  0  0  0  0  0  0  0  0  0  0
   -3.5608    0.2928   -2.2394 H   0  0  0  0  0  0  0  0  0  0  0  0
   -4.0136   -1.2126   -1.3382 H   0  0  0  0  0  0  0  0  0  0  0  0
   -4.4680    0.6328   -0.2943 C   0  0  0  0  0  0  0  0  0  0  0  0
   -5.3573    0.7897   -0.7072 H   0  0  0  0  0  0  0  0  0  0  0  0
   -4.5634    0.1189    0.5518 H   0  0  0  0  0  0  0  0  0  0  0  0
   -3.8466    1.9884    0.0347 C   0  0  0  0  0  0  0  0  0  0  0  0
   -2.9052    1.8448    0.3535 H   0  0  0  0  0  0  0  0  0  0  0  0
   -3.8269    2.5474   -0.7979 H   0  0  0  0  0  0  0  0  0  0  0  0
   -4.3996    2.5252    0.8055 H   0  0  0  0  0  0  0  0  0  0  0  0
  1  5  1  0
  5  6  1  0
  5  7  2  0
  1  2  1  0
  1  3  1  0
  1  4  1  0
  8 12  1  0
 12 15  1  0
  8  9  1  0
  8 10  1  0
  8 11  1  0
 12 13  1  0
 12 14  1  0
 15 16  1  0
 15 17  1  0
 15 18  1  0
M  CHG  1   6  -1
M  END
>  <PDB_ID>  (910) 
pdb2z1m

>  <RESIDUE_NAME>  (910) 
GLU   LYS

>  <FRAG_NAME>  (910) 
ACET   PRPA

>  <FRAG_ATOM_NUM>  (910) 
fragi: 7  fragj: 11

>  <atom.prop.CHAIN_ID>  (910) 
A A A A A A A Z Z Z Z Z Z Z Z Z Z Z

>  <atom.prop.IS_HEAVY_ATOM>  (910) 
1 0 0 0 1 1 1 1 0 0 0 1 0 0 1 0 0 0

>  <DIFUSE_FUNC_ATOM>  (910) 
atom 6   atom 7   

>  <FINAL_SINGLE_POINT_ENERGY>  (910) 
0

>  <NONCOV_INTER_ENERGY_QM>  (910) 
0

>  <FF_Energy>  (910) 
17.29

>  <QM_Energy>  (910) 
-1.58

>  <source>  (910) 
ACET_PRPA_09

>  <Index>  (910) 
16595

$$$$
ACET-pdb1ta8-A-GLU-131:PRPA-pdb1ta8-A-VAL-136
     RDKit          3D

 18 16  0  0  0  0  0  0  0  0999 V2000
    0.0111    1.5164    0.0204 C   0  0  0  0  0  0  0  0  0  0  0  0
    0.8861    1.8107   -0.3260 H   0  0  0  0  0  0  0  0  0  0  0  0
   -0.1273    1.8008    0.9540 H   0  0  0  0  0  0  0  0  0  0  0  0
   -0.7694    1.9640   -0.5949 H   0  0  0  0  0  0  0  0  0  0  0  0
    0.0000    0.0000    0.0000 C   0  0  0  0  0  0  0  0  0  0  0  0
   -1.0979   -0.5980    0.0000 O   0  0  0  0  0  1  0  0  0  0  0  0
    1.0979   -0.5931   -0.0000 O   0  0  0  0  0  0  0  0  0  0  0  0
   -2.7580    1.3609    2.9099 C   0  0  0  0  0  0  0  0  0  0  0  0
   -2.9592    2.3341    3.0041 H   0  0  0  0  0  0  0  0  0  0  0  0
   -2.4611    1.1687    1.9762 H   0  0  0  0  0  0  0  0  0  0  0  0
   -3.5753    0.8271    3.1194 H   0  0  0  0  0  0  0  0  0  0  0  0
   -1.6419    0.9785    3.8843 C   0  0  0  0  0  0  0  0  0  0  0  0
   -1.7118    0.0039    4.0358 H   0  0  0  0  0  0  0  0  0  0  0  0
   -1.8096    1.4741    4.8406 H   0  0  0  0  0  0  0  0  0  0  0  0
   -0.2879    1.3626    3.3165 C   0  0  0  0  0  0  0  0  0  0  0  0
   -0.1301    2.3389    3.4659 H   0  0  0  0  0  0  0  0  0  0  0  0
    0.4269    0.8337    3.7753 H   0  0  0  0  0  0  0  0  0  0  0  0
   -0.2711    1.1672    2.3357 H   0  0  0  0  0  0  0  0  0  0  0  0
  1  5  1  0
  5  6  1  0
  5  7  2  0
  1  2  1  0
  1  3  1  0
  1  4  1  0
  8 12  1  0
 12 15  1  0
  8  9  1  0
  8 10  1  0
  8 11  1  0
 12 13  1  0
 12 14  1  0
 15 16  1  0
 15 17  1  0
 15 18  1  0
M  CHG  1   6  -1
M  END
>  <PDB_ID>  (911) 
pdb1ta8

>  <RESIDUE_NAME>  (911) 
GLU   VAL

>  <FRAG_NAME>  (911) 
ACET   PRPA

>  <FRAG_ATOM_NUM>  (911) 
fragi: 7  fragj: 11

>  <atom.prop.CHAIN_ID>  (911) 
A A A A A A A Z Z Z Z Z Z Z Z Z Z Z

>  <atom.prop.IS_HEAVY_ATOM>  (911) 
1 0 0 0 1 1 1 1 0 0 0 1 0 0 1 0 0 0

>  <DIFUSE_FUNC_ATOM>  (911) 
atom 6   atom 7   

>  <FINAL_SINGLE_POINT_ENERGY>  (911) 
0

>  <NONCOV_INTER_ENERGY_QM>  (911) 
0

>  <FF_Energy>  (911) 
23.01

>  <QM_Energy>  (911) 
1.25

>  <source>  (911) 
ACET_PRPA_09

>  <Index>  (911) 
16706

$$$$
ACET-pdb1tab-E-ASP-165:PRPA-pdb1tab-E-LYS-169
     RDKit          3D

 18 16  0  0  0  0  0  0  0  0999 V2000
    0.0345    1.4812   -0.0267 C   0  0  0  0  0  0  0  0  0  0  0  0
   -0.9248    1.8363   -0.0819 H   0  0  0  0  0  0  0  0  0  0  0  0
    0.4947    1.7888   -0.8875 H   0  0  0  0  0  0  0  0  0  0  0  0
    0.5177    2.0122    0.7935 H   0  0  0  0  0  0  0  0  0  0  0  0
    0.0000    0.0000    0.0000 C   0  0  0  0  0  0  0  0  0  0  0  0
   -1.0556   -0.6966    0.0000 O   0  0  0  0  0  1  0  0  0  0  0  0
    1.0556   -0.7061    0.0000 O   0  0  0  0  0  0  0  0  0  0  0  0
    0.8809   -2.3448    3.4819 C   0  0  0  0  0  0  0  0  0  0  0  0
    0.7376   -3.1722    4.0560 H   0  0  0  0  0  0  0  0  0  0  0  0
    0.1545   -1.6805    3.7352 H   0  0  0  0  0  0  0  0  0  0  0  0
    1.8259   -1.9068    3.8031 H   0  0  0  0  0  0  0  0  0  0  0  0
    0.8117   -2.6774    2.0628 C   0  0  0  0  0  0  0  0  0  0  0  0
    1.0941   -1.9245    1.5024 H   0  0  0  0  0  0  0  0  0  0  0  0
    1.2965   -3.5052    1.8623 H   0  0  0  0  0  0  0  0  0  0  0  0
   -0.6927   -2.9460    1.7282 C   0  0  0  0  0  0  0  0  0  0  0  0
   -1.2352   -2.5025    2.4028 H   0  0  0  0  0  0  0  0  0  0  0  0
   -0.8599   -2.6394    0.8194 H   0  0  0  0  0  0  0  0  0  0  0  0
   -0.8109   -4.0275    1.7938 H   0  0  0  0  0  0  0  0  0  0  0  0
  1  5  1  0
  5  6  1  0
  5  7  2  0
  1  2  1  0
  1  3  1  0
  1  4  1  0
  8 12  1  0
 12 15  1  0
  8  9  1  0
  8 10  1  0
  8 11  1  0
 12 13  1  0
 12 14  1  0
 15 16  1  0
 15 17  1  0
 15 18  1  0
M  CHG  1   6  -1
M  END
>  <PDB_ID>  (912) 
pdb1tab

>  <RESIDUE_NAME>  (912) 
ASP   LYS

>  <FRAG_NAME>  (912) 
ACET   PRPA

>  <FRAG_ATOM_NUM>  (912) 
fragi: 7  fragj: 11

>  <atom.prop.CHAIN_ID>  (912) 
A A A A A A A Z Z Z Z Z Z Z Z Z Z Z

>  <atom.prop.IS_HEAVY_ATOM>  (912) 
1 0 0 0 1 1 1 1 0 0 0 1 0 0 1 0 0 0

>  <DIFUSE_FUNC_ATOM>  (912) 
atom 6   atom 7   

>  <FINAL_SINGLE_POINT_ENERGY>  (912) 
0

>  <NONCOV_INTER_ENERGY_QM>  (912) 
0

>  <FF_Energy>  (912) 
17.92

>  <QM_Energy>  (912) 
-2.1

>  <source>  (912) 
ACET_PRPA_09

>  <Index>  (912) 
16824

$$$$
ACET-pdb1t6g-A-ASP-359:PRPA-pdb1t6g-A-ARG-163
     RDKit          3D

 18 16  0  0  0  0  0  0  0  0999 V2000
   -0.0461    1.5204    0.0495 C   0  0  0  0  0  0  0  0  0  0  0  0
    0.1205    1.8737   -0.8659 H   0  0  0  0  0  0  0  0  0  0  0  0
    0.6568    1.8408    0.6764 H   0  0  0  0  0  0  0  0  0  0  0  0
   -1.0043    1.9119    0.3908 H   0  0  0  0  0  0  0  0  0  0  0  0
    0.0000    0.0000    0.0000 C   0  0  0  0  0  0  0  0  0  0  0  0
   -1.0885   -0.6157   -0.0000 O   0  0  0  0  0  1  0  0  0  0  0  0
    1.0885   -0.6398   -0.0000 O   0  0  0  0  0  0  0  0  0  0  0  0
   -4.0348   -4.4591    0.6467 C   0  0  0  0  0  0  0  0  0  0  0  0
   -3.4978   -4.7463    1.4338 H   0  0  0  0  0  0  0  0  0  0  0  0
   -4.1485   -5.2166    0.0122 H   0  0  0  0  0  0  0  0  0  0  0  0
   -5.0206   -4.1533    0.9970 H   0  0  0  0  0  0  0  0  0  0  0  0
   -3.2460   -3.3553   -0.0800 C   0  0  0  0  0  0  0  0  0  0  0  0
   -3.4699   -3.4089   -1.0813 H   0  0  0  0  0  0  0  0  0  0  0  0
   -3.6100   -2.4464    0.2304 H   0  0  0  0  0  0  0  0  0  0  0  0
   -1.7453   -3.3293    0.0617 C   0  0  0  0  0  0  0  0  0  0  0  0
   -1.4326   -2.3919   -0.1263 H   0  0  0  0  0  0  0  0  0  0  0  0
   -1.5206   -3.5575    1.0155 H   0  0  0  0  0  0  0  0  0  0  0  0
   -1.2374   -4.0235   -0.6077 H   0  0  0  0  0  0  0  0  0  0  0  0
  1  5  1  0
  5  6  1  0
  5  7  2  0
  1  2  1  0
  1  3  1  0
  1  4  1  0
  8 12  1  0
 12 15  1  0
  8  9  1  0
  8 10  1  0
  8 11  1  0
 12 13  1  0
 12 14  1  0
 15 16  1  0
 15 17  1  0
 15 18  1  0
M  CHG  1   6  -1
M  END
>  <PDB_ID>  (913) 
pdb1t6g

>  <RESIDUE_NAME>  (913) 
ASP   ARG

>  <FRAG_NAME>  (913) 
ACET   PRPA

>  <FRAG_ATOM_NUM>  (913) 
fragi: 7  fragj: 11

>  <atom.prop.CHAIN_ID>  (913) 
A A A A A A A Z Z Z Z Z Z Z Z Z Z Z

>  <atom.prop.IS_HEAVY_ATOM>  (913) 
1 0 0 0 1 1 1 1 0 0 0 1 0 0 1 0 0 0

>  <DIFUSE_FUNC_ATOM>  (913) 
atom 6   atom 7   

>  <FINAL_SINGLE_POINT_ENERGY>  (913) 
0

>  <NONCOV_INTER_ENERGY_QM>  (913) 
0

>  <FF_Energy>  (913) 
24.46

>  <QM_Energy>  (913) 
-0.79

>  <source>  (913) 
ACET_PRPA_09

>  <Index>  (913) 
16906

$$$$
ACET-pdb1t8t-A-ASP-280:PRPA-pdb1t8t-A-LYS-272
     RDKit          3D

 18 16  0  0  0  0  0  0  0  0999 V2000
    0.0017    1.5227   -0.0109 C   0  0  0  0  0  0  0  0  0  0  0  0
    0.3790    1.8343   -0.8739 H   0  0  0  0  0  0  0  0  0  0  0  0
    0.5497    1.8462    0.7497 H   0  0  0  0  0  0  0  0  0  0  0  0
   -0.9984    1.9439    0.0912 H   0  0  0  0  0  0  0  0  0  0  0  0
    0.0000    0.0000    0.0000 C   0  0  0  0  0  0  0  0  0  0  0  0
   -1.0962   -0.5985   -0.0000 O   0  0  0  0  0  1  0  0  0  0  0  0
    1.0962   -0.6003    0.0000 O   0  0  0  0  0  0  0  0  0  0  0  0
   -1.4491    1.6566   -2.4074 C   0  0  0  0  0  0  0  0  0  0  0  0
   -0.8382    0.9362   -2.0758 H   0  0  0  0  0  0  0  0  0  0  0  0
   -1.3799    2.4520   -1.8048 H   0  0  0  0  0  0  0  0  0  0  0  0
   -1.1436    1.9454   -3.4131 H   0  0  0  0  0  0  0  0  0  0  0  0
   -2.8764    1.1419   -2.3827 C   0  0  0  0  0  0  0  0  0  0  0  0
   -3.4842    1.8634   -2.7170 H   0  0  0  0  0  0  0  0  0  0  0  0
   -2.9424    0.3464   -2.9873 H   0  0  0  0  0  0  0  0  0  0  0  0
   -3.3246    0.7349   -0.9977 C   0  0  0  0  0  0  0  0  0  0  0  0
   -2.7247    0.0099   -0.6586 H   0  0  0  0  0  0  0  0  0  0  0  0
   -3.2664    1.5257   -0.3875 H   0  0  0  0  0  0  0  0  0  0  0  0
   -4.3517    0.3707   -1.0156 H   0  0  0  0  0  0  0  0  0  0  0  0
  1  5  1  0
  5  6  1  0
  5  7  2  0
  1  2  1  0
  1  3  1  0
  1  4  1  0
  8 12  1  0
 12 15  1  0
  8  9  1  0
  8 10  1  0
  8 11  1  0
 12 13  1  0
 12 14  1  0
 15 16  1  0
 15 17  1  0
 15 18  1  0
M  CHG  1   6  -1
M  END
>  <PDB_ID>  (914) 
pdb1t8t

>  <RESIDUE_NAME>  (914) 
ASP   LYS

>  <FRAG_NAME>  (914) 
ACET   PRPA

>  <FRAG_ATOM_NUM>  (914) 
fragi: 7  fragj: 11

>  <atom.prop.CHAIN_ID>  (914) 
A A A A A A A Z Z Z Z Z Z Z Z Z Z Z

>  <atom.prop.IS_HEAVY_ATOM>  (914) 
1 0 0 0 1 1 1 1 0 0 0 1 0 0 1 0 0 0

>  <DIFUSE_FUNC_ATOM>  (914) 
atom 6   atom 7   

>  <FINAL_SINGLE_POINT_ENERGY>  (914) 
0

>  <NONCOV_INTER_ENERGY_QM>  (914) 
0

>  <FF_Energy>  (914) 
35.71

>  <QM_Energy>  (914) 
6.88

>  <source>  (914) 
ACET_PRPA_09

>  <Index>  (914) 
17262

$$$$
ACET-pdb1t5o-A-GLU-64:PRPA-pdb1t5o-A-VAL-32
     RDKit          3D

 18 16  0  0  0  0  0  0  0  0999 V2000
    0.0057    1.5227   -0.0060 C   0  0  0  0  0  0  0  0  0  0  0  0
   -0.3174    1.8136   -0.8869 H   0  0  0  0  0  0  0  0  0  0  0  0
    0.9274    1.8128    0.1698 H   0  0  0  0  0  0  0  0  0  0  0  0
   -0.6442    1.9479    0.7589 H   0  0  0  0  0  0  0  0  0  0  0  0
    0.0000    0.0000    0.0000 C   0  0  0  0  0  0  0  0  0  0  0  0
   -1.0997   -0.6038    0.0000 O   0  0  0  0  0  1  0  0  0  0  0  0
    1.0997   -0.5945    0.0000 O   0  0  0  0  0  0  0  0  0  0  0  0
    2.6748   -3.5882   -1.1145 C   0  0  0  0  0  0  0  0  0  0  0  0
    2.8977   -3.9641   -0.1943 H   0  0  0  0  0  0  0  0  0  0  0  0
    2.7858   -2.5049   -1.0671 H   0  0  0  0  0  0  0  0  0  0  0  0
    3.3328   -4.0657   -1.8404 H   0  0  0  0  0  0  0  0  0  0  0  0
    1.2427   -4.0094   -1.5337 C   0  0  0  0  0  0  0  0  0  0  0  0
    1.2569   -4.1818   -2.5086 H   0  0  0  0  0  0  0  0  0  0  0  0
    0.9814   -4.9475   -1.0440 H   0  0  0  0  0  0  0  0  0  0  0  0
    0.2396   -2.9026   -1.2417 C   0  0  0  0  0  0  0  0  0  0  0  0
   -0.5510   -3.2907   -0.7679 H   0  0  0  0  0  0  0  0  0  0  0  0
    0.6712   -2.2097   -0.6648 H   0  0  0  0  0  0  0  0  0  0  0  0
   -0.0538   -2.4879   -2.1028 H   0  0  0  0  0  0  0  0  0  0  0  0
  1  5  1  0
  5  6  1  0
  5  7  2  0
  1  2  1  0
  1  3  1  0
  1  4  1  0
  8 12  1  0
 12 15  1  0
  8  9  1  0
  8 10  1  0
  8 11  1  0
 12 13  1  0
 12 14  1  0
 15 16  1  0
 15 17  1  0
 15 18  1  0
M  CHG  1   6  -1
M  END
>  <PDB_ID>  (915) 
pdb1t5o

>  <RESIDUE_NAME>  (915) 
GLU   VAL

>  <FRAG_NAME>  (915) 
ACET   PRPA

>  <FRAG_ATOM_NUM>  (915) 
fragi: 7  fragj: 11

>  <atom.prop.CHAIN_ID>  (915) 
A A A A A A A Z Z Z Z Z Z Z Z Z Z Z

>  <atom.prop.IS_HEAVY_ATOM>  (915) 
1 0 0 0 1 1 1 1 0 0 0 1 0 0 1 0 0 0

>  <DIFUSE_FUNC_ATOM>  (915) 
atom 6   atom 7   

>  <FINAL_SINGLE_POINT_ENERGY>  (915) 
0

>  <NONCOV_INTER_ENERGY_QM>  (915) 
0

>  <FF_Energy>  (915) 
31.37

>  <QM_Energy>  (915) 
1.53

>  <source>  (915) 
ACET_PRPA_09

>  <Index>  (915) 
17467

$$$$
ACET-pdb1t5o-A-GLU-64:PRPA-pdb1t5o-A-VAL-32
     RDKit          3D

 18 16  0  0  0  0  0  0  0  0999 V2000
    0.0057    1.5227   -0.0060 C   0  0  0  0  0  0  0  0  0  0  0  0
   -0.3174    1.8136   -0.8869 H   0  0  0  0  0  0  0  0  0  0  0  0
    0.9274    1.8128    0.1698 H   0  0  0  0  0  0  0  0  0  0  0  0
   -0.6442    1.9479    0.7589 H   0  0  0  0  0  0  0  0  0  0  0  0
    0.0000    0.0000    0.0000 C   0  0  0  0  0  0  0  0  0  0  0  0
   -1.0997   -0.6038    0.0000 O   0  0  0  0  0  1  0  0  0  0  0  0
    1.0997   -0.5945    0.0000 O   0  0  0  0  0  0  0  0  0  0  0  0
    0.8778   -5.3192   -0.8499 C   0  0  0  0  0  0  0  0  0  0  0  0
    1.0997   -6.0843   -1.4543 H   0  0  0  0  0  0  0  0  0  0  0  0
    1.3944   -5.4070    0.0016 H   0  0  0  0  0  0  0  0  0  0  0  0
   -0.1012   -5.3282   -0.6471 H   0  0  0  0  0  0  0  0  0  0  0  0
    1.2427   -4.0094   -1.5337 C   0  0  0  0  0  0  0  0  0  0  0  0
    1.2569   -4.1818   -2.5086 H   0  0  0  0  0  0  0  0  0  0  0  0
    2.2494   -3.7133   -1.2390 H   0  0  0  0  0  0  0  0  0  0  0  0
    0.2396   -2.9026   -1.2417 C   0  0  0  0  0  0  0  0  0  0  0  0
   -0.5510   -3.2907   -0.7679 H   0  0  0  0  0  0  0  0  0  0  0  0
    0.6712   -2.2097   -0.6648 H   0  0  0  0  0  0  0  0  0  0  0  0
   -0.0538   -2.4879   -2.1028 H   0  0  0  0  0  0  0  0  0  0  0  0
  1  5  1  0
  5  6  1  0
  5  7  2  0
  1  2  1  0
  1  3  1  0
  1  4  1  0
  8 12  1  0
 12 15  1  0
  8  9  1  0
  8 10  1  0
  8 11  1  0
 12 13  1  0
 12 14  1  0
 15 16  1  0
 15 17  1  0
 15 18  1  0
M  CHG  1   6  -1
M  END
>  <PDB_ID>  (916) 
pdb1t5o

>  <RESIDUE_NAME>  (916) 
GLU   VAL

>  <FRAG_NAME>  (916) 
ACET   PRPA

>  <FRAG_ATOM_NUM>  (916) 
fragi: 7  fragj: 11

>  <atom.prop.CHAIN_ID>  (916) 
A A A A A A A Z Z Z Z Z Z Z Z Z Z Z

>  <atom.prop.IS_HEAVY_ATOM>  (916) 
1 0 0 0 1 1 1 1 0 0 0 1 0 0 1 0 0 0

>  <DIFUSE_FUNC_ATOM>  (916) 
atom 6   atom 7   

>  <FINAL_SINGLE_POINT_ENERGY>  (916) 
0

>  <NONCOV_INTER_ENERGY_QM>  (916) 
0

>  <FF_Energy>  (916) 
31.13

>  <QM_Energy>  (916) 
2.6

>  <source>  (916) 
ACET_PRPA_09

>  <Index>  (916) 
17487

$$$$
ACET-pdb1tfu-A-ASP-46:PRPA-pdb1tfu-A-GLU-49
     RDKit          3D

 18 16  0  0  0  0  0  0  0  0999 V2000
    0.0103    1.5117   -0.0211 C   0  0  0  0  0  0  0  0  0  0  0  0
   -0.1513    1.8237   -0.9517 H   0  0  0  0  0  0  0  0  0  0  0  0
    0.8929    1.8346    0.3036 H   0  0  0  0  0  0  0  0  0  0  0  0
   -0.7575    1.9544    0.6133 H   0  0  0  0  0  0  0  0  0  0  0  0
    0.0000    0.0000    0.0000 C   0  0  0  0  0  0  0  0  0  0  0  0
   -1.1015   -0.5932   -0.0000 O   0  0  0  0  0  1  0  0  0  0  0  0
    1.1015   -0.6008   -0.0000 O   0  0  0  0  0  0  0  0  0  0  0  0
   -3.8861   -2.4137    1.4612 C   0  0  0  0  0  0  0  0  0  0  0  0
   -3.8656   -3.4144    1.4145 H   0  0  0  0  0  0  0  0  0  0  0  0
   -3.6779   -1.9948    0.4767 H   0  0  0  0  0  0  0  0  0  0  0  0
   -4.8668   -2.0888    1.8090 H   0  0  0  0  0  0  0  0  0  0  0  0
   -2.8075   -1.9810    2.4706 C   0  0  0  0  0  0  0  0  0  0  0  0
   -2.8179   -0.9956    2.5134 H   0  0  0  0  0  0  0  0  0  0  0  0
   -3.0325   -2.3876    3.3398 H   0  0  0  0  0  0  0  0  0  0  0  0
   -1.3806   -2.4101    2.1170 C   0  0  0  0  0  0  0  0  0  0  0  0
   -1.3478   -3.3918    2.1115 H   0  0  0  0  0  0  0  0  0  0  0  0
   -1.1487   -2.0228    1.2449 H   0  0  0  0  0  0  0  0  0  0  0  0
   -0.6368   -2.0639    2.8346 H   0  0  0  0  0  0  0  0  0  0  0  0
  1  5  1  0
  5  6  1  0
  5  7  2  0
  1  2  1  0
  1  3  1  0
  1  4  1  0
  8 12  1  0
 12 15  1  0
  8  9  1  0
  8 10  1  0
  8 11  1  0
 12 13  1  0
 12 14  1  0
 15 16  1  0
 15 17  1  0
 15 18  1  0
M  CHG  1   6  -1
M  END
>  <PDB_ID>  (917) 
pdb1tfu

>  <RESIDUE_NAME>  (917) 
ASP   GLU

>  <FRAG_NAME>  (917) 
ACET   PRPA

>  <FRAG_ATOM_NUM>  (917) 
fragi: 7  fragj: 11

>  <atom.prop.CHAIN_ID>  (917) 
A A A A A A A Z Z Z Z Z Z Z Z Z Z Z

>  <atom.prop.IS_HEAVY_ATOM>  (917) 
1 0 0 0 1 1 1 1 0 0 0 1 0 0 1 0 0 0

>  <DIFUSE_FUNC_ATOM>  (917) 
atom 6   atom 7   

>  <FINAL_SINGLE_POINT_ENERGY>  (917) 
0

>  <NONCOV_INTER_ENERGY_QM>  (917) 
0

>  <FF_Energy>  (917) 
15.2

>  <QM_Energy>  (917) 
-1.96

>  <source>  (917) 
ACET_PRPA_09

>  <Index>  (917) 
17817

$$$$
ACET-pdb1tb6-H-GLU-61:PRPA-pdb1tb6-H-LYS-87
     RDKit          3D

 18 16  0  0  0  0  0  0  0  0999 V2000
   -0.0051    1.5023   -0.0093 C   0  0  0  0  0  0  0  0  0  0  0  0
   -0.4328    1.7913   -0.8502 H   0  0  0  0  0  0  0  0  0  0  0  0
    0.9340    1.7998    0.0430 H   0  0  0  0  0  0  0  0  0  0  0  0
   -0.5585    1.9207    0.8314 H   0  0  0  0  0  0  0  0  0  0  0  0
    0.0000    0.0000    0.0000 C   0  0  0  0  0  0  0  0  0  0  0  0
   -1.1035   -0.5839   -0.0000 O   0  0  0  0  0  1  0  0  0  0  0  0
    1.1035   -0.5922   -0.0000 O   0  0  0  0  0  0  0  0  0  0  0  0
    1.2456    2.6035   -2.5587 C   0  0  0  0  0  0  0  0  0  0  0  0
    0.7731    1.9667   -1.9395 H   0  0  0  0  0  0  0  0  0  0  0  0
    0.7392    3.5684   -2.5344 H   0  0  0  0  0  0  0  0  0  0  0  0
    2.2783    2.7083   -2.2262 H   0  0  0  0  0  0  0  0  0  0  0  0
    1.2237    2.0618   -3.9872 C   0  0  0  0  0  0  0  0  0  0  0  0
    0.2830    2.1310   -4.3311 H   0  0  0  0  0  0  0  0  0  0  0  0
    1.8156    2.6473   -4.5508 H   0  0  0  0  0  0  0  0  0  0  0  0
    1.6841    0.6274   -4.1435 C   0  0  0  0  0  0  0  0  0  0  0  0
    1.9063    0.4568   -5.1012 H   0  0  0  0  0  0  0  0  0  0  0  0
    2.4901    0.4774   -3.5760 H   0  0  0  0  0  0  0  0  0  0  0  0
    0.8989   -0.0623   -3.8339 H   0  0  0  0  0  0  0  0  0  0  0  0
  1  5  1  0
  5  6  1  0
  5  7  2  0
  1  2  1  0
  1  3  1  0
  1  4  1  0
  8 12  1  0
 12 15  1  0
  8  9  1  0
  8 10  1  0
  8 11  1  0
 12 13  1  0
 12 14  1  0
 15 16  1  0
 15 17  1  0
 15 18  1  0
M  CHG  1   6  -1
M  END
>  <PDB_ID>  (918) 
pdb1tb6

>  <RESIDUE_NAME>  (918) 
GLU   LYS

>  <FRAG_NAME>  (918) 
ACET   PRPA

>  <FRAG_ATOM_NUM>  (918) 
fragi: 7  fragj: 11

>  <atom.prop.CHAIN_ID>  (918) 
A A A A A A A Z Z Z Z Z Z Z Z Z Z Z

>  <atom.prop.IS_HEAVY_ATOM>  (918) 
1 0 0 0 1 1 1 1 0 0 0 1 0 0 1 0 0 0

>  <DIFUSE_FUNC_ATOM>  (918) 
atom 6   atom 7   

>  <FINAL_SINGLE_POINT_ENERGY>  (918) 
0

>  <NONCOV_INTER_ENERGY_QM>  (918) 
0

>  <FF_Energy>  (918) 
20.03

>  <QM_Energy>  (918) 
4.2

>  <source>  (918) 
ACET_PRPA_09

>  <Index>  (918) 
19278

$$$$
ACET-pdb2z37-A-GLU-349:PRPA-pdb2z37-A-LYS-357
     RDKit          3D

 18 16  0  0  0  0  0  0  0  0999 V2000
    0.0315    1.5238   -0.0037 C   0  0  0  0  0  0  0  0  0  0  0  0
    0.3899    1.8075   -0.8777 H   0  0  0  0  0  0  0  0  0  0  0  0
    0.6173    1.8057    0.7388 H   0  0  0  0  0  0  0  0  0  0  0  0
   -0.9473    1.9834    0.1332 H   0  0  0  0  0  0  0  0  0  0  0  0
    0.0000    0.0000    0.0000 C   0  0  0  0  0  0  0  0  0  0  0  0
   -1.1032   -0.5916    0.0000 O   0  0  0  0  0  1  0  0  0  0  0  0
    1.1032   -0.5966   -0.0000 O   0  0  0  0  0  0  0  0  0  0  0  0
    1.1068   -0.7944   -4.2756 C   0  0  0  0  0  0  0  0  0  0  0  0
    1.4944   -1.6840   -4.5462 H   0  0  0  0  0  0  0  0  0  0  0  0
    0.9388   -0.2545   -5.1090 H   0  0  0  0  0  0  0  0  0  0  0  0
    0.1599   -0.9606   -3.7618 H   0  0  0  0  0  0  0  0  0  0  0  0
    2.1505   -0.0531   -3.4210 C   0  0  0  0  0  0  0  0  0  0  0  0
    2.4375   -0.6549   -2.6790 H   0  0  0  0  0  0  0  0  0  0  0  0
    2.9309    0.1726   -3.9986 H   0  0  0  0  0  0  0  0  0  0  0  0
    1.6055    1.2440   -2.8115 C   0  0  0  0  0  0  0  0  0  0  0  0
    0.8270    1.5754   -3.3925 H   0  0  0  0  0  0  0  0  0  0  0  0
    1.1897    1.0260   -1.8979 H   0  0  0  0  0  0  0  0  0  0  0  0
    2.2941    2.0774   -2.6724 H   0  0  0  0  0  0  0  0  0  0  0  0
  1  5  1  0
  5  6  1  0
  5  7  2  0
  1  2  1  0
  1  3  1  0
  1  4  1  0
  8 12  1  0
 12 15  1  0
  8  9  1  0
  8 10  1  0
  8 11  1  0
 12 13  1  0
 12 14  1  0
 15 16  1  0
 15 17  1  0
 15 18  1  0
M  CHG  1   6  -1
M  END
>  <PDB_ID>  (919) 
pdb2z37

>  <RESIDUE_NAME>  (919) 
GLU   LYS

>  <FRAG_NAME>  (919) 
ACET   PRPA

>  <FRAG_ATOM_NUM>  (919) 
fragi: 7  fragj: 11

>  <atom.prop.CHAIN_ID>  (919) 
A A A A A A A Z Z Z Z Z Z Z Z Z Z Z

>  <atom.prop.IS_HEAVY_ATOM>  (919) 
1 0 0 0 1 1 1 1 0 0 0 1 0 0 1 0 0 0

>  <DIFUSE_FUNC_ATOM>  (919) 
atom 6   atom 7   

>  <FINAL_SINGLE_POINT_ENERGY>  (919) 
0

>  <NONCOV_INTER_ENERGY_QM>  (919) 
0

>  <FF_Energy>  (919) 
29.03

>  <QM_Energy>  (919) 
2.08

>  <source>  (919) 
ACET_PRPA_09

>  <Index>  (919) 
19306

$$$$
ACET-pdb1tco-A-GLU-325:PRPA-pdb1tco-A-PRO-84
     RDKit          3D

 18 16  0  0  0  0  0  0  0  0999 V2000
    0.0226    1.5023    0.0337 C   0  0  0  0  0  0  0  0  0  0  0  0
    0.8898    1.7778    0.4271 H   0  0  0  0  0  0  0  0  0  0  0  0
   -0.7331    1.7976    0.6038 H   0  0  0  0  0  0  0  0  0  0  0  0
   -0.0775    1.9668   -0.9473 H   0  0  0  0  0  0  0  0  0  0  0  0
    0.0000    0.0000    0.0000 C   0  0  0  0  0  0  0  0  0  0  0  0
   -1.0979   -0.5917    0.0000 O   0  0  0  0  0  1  0  0  0  0  0  0
    1.0979   -0.5887   -0.0000 O   0  0  0  0  0  0  0  0  0  0  0  0
   -0.9368    3.9977    2.8827 C   0  0  0  0  0  0  0  0  0  0  0  0
   -0.7675    4.3591    1.9539 H   0  0  0  0  0  0  0  0  0  0  0  0
   -0.0694    4.1626    3.5218 H   0  0  0  0  0  0  0  0  0  0  0  0
   -1.8429    4.4307    3.3066 H   0  0  0  0  0  0  0  0  0  0  0  0
   -1.0656    2.4638    2.9108 C   0  0  0  0  0  0  0  0  0  0  0  0
   -1.7464    2.1851    3.5929 H   0  0  0  0  0  0  0  0  0  0  0  0
   -1.3458    2.1220    2.0112 H   0  0  0  0  0  0  0  0  0  0  0  0
    0.2904    1.9861    3.2733 C   0  0  0  0  0  0  0  0  0  0  0  0
    0.2514    1.0585    3.6346 H   0  0  0  0  0  0  0  0  0  0  0  0
    0.8974    2.0204    2.4842 H   0  0  0  0  0  0  0  0  0  0  0  0
    0.5855    2.7035    4.0391 H   0  0  0  0  0  0  0  0  0  0  0  0
  1  5  1  0
  5  6  1  0
  5  7  2  0
  1  2  1  0
  1  3  1  0
  1  4  1  0
  8 12  1  0
 12 15  1  0
  8  9  1  0
  8 10  1  0
  8 11  1  0
 12 13  1  0
 12 14  1  0
 15 16  1  0
 15 17  1  0
 15 18  1  0
M  CHG  1   6  -1
M  END
>  <PDB_ID>  (920) 
pdb1tco

>  <RESIDUE_NAME>  (920) 
GLU   PRO

>  <FRAG_NAME>  (920) 
ACET   PRPA

>  <FRAG_ATOM_NUM>  (920) 
fragi: 7  fragj: 11

>  <atom.prop.CHAIN_ID>  (920) 
A A A A A A A Z Z Z Z Z Z Z Z Z Z Z

>  <atom.prop.IS_HEAVY_ATOM>  (920) 
1 0 0 0 1 1 1 1 0 0 0 1 0 0 1 0 0 0

>  <DIFUSE_FUNC_ATOM>  (920) 
atom 6   atom 7   

>  <FINAL_SINGLE_POINT_ENERGY>  (920) 
0

>  <NONCOV_INTER_ENERGY_QM>  (920) 
0

>  <FF_Energy>  (920) 
19.91

>  <QM_Energy>  (920) 
1.39

>  <source>  (920) 
ACET_PRPA_09

>  <Index>  (920) 
19364

$$$$
ACET-pdb1tco-A-GLU-325:PRPA-pdb1tco-A-PRO-84
     RDKit          3D

 18 16  0  0  0  0  0  0  0  0999 V2000
    0.0226    1.5023    0.0337 C   0  0  0  0  0  0  0  0  0  0  0  0
    0.8898    1.7778    0.4271 H   0  0  0  0  0  0  0  0  0  0  0  0
   -0.7331    1.7976    0.6038 H   0  0  0  0  0  0  0  0  0  0  0  0
   -0.0775    1.9668   -0.9473 H   0  0  0  0  0  0  0  0  0  0  0  0
    0.0000    0.0000    0.0000 C   0  0  0  0  0  0  0  0  0  0  0  0
   -1.0979   -0.5917    0.0000 O   0  0  0  0  0  1  0  0  0  0  0  0
    1.0979   -0.5887   -0.0000 O   0  0  0  0  0  0  0  0  0  0  0  0
   -1.0656    2.4638    2.9108 C   0  0  0  0  0  0  0  0  0  0  0  0
   -1.7464    2.1851    3.5929 H   0  0  0  0  0  0  0  0  0  0  0  0
   -1.3458    2.1220    2.0112 H   0  0  0  0  0  0  0  0  0  0  0  0
   -0.9744    3.5498    2.8909 H   0  0  0  0  0  0  0  0  0  0  0  0
    0.2904    1.9861    3.2733 C   0  0  0  0  0  0  0  0  0  0  0  0
    0.2514    1.0585    3.6346 H   0  0  0  0  0  0  0  0  0  0  0  0
    0.8974    2.0204    2.4842 H   0  0  0  0  0  0  0  0  0  0  0  0
    0.6900    2.9577    4.3104 C   0  0  0  0  0  0  0  0  0  0  0  0
    0.2382    2.7802    5.1852 H   0  0  0  0  0  0  0  0  0  0  0  0
    1.6822    2.9737    4.4489 H   0  0  0  0  0  0  0  0  0  0  0  0
    0.3468    3.9013    3.8861 H   0  0  0  0  0  0  0  0  0  0  0  0
  1  5  1  0
  5  6  1  0
  5  7  2  0
  1  2  1  0
  1  3  1  0
  1  4  1  0
  8 12  1  0
 12 15  1  0
  8  9  1  0
  8 10  1  0
  8 11  1  0
 12 13  1  0
 12 14  1  0
 15 16  1  0
 15 17  1  0
 15 18  1  0
M  CHG  1   6  -1
M  END
>  <PDB_ID>  (921) 
pdb1tco

>  <RESIDUE_NAME>  (921) 
GLU   PRO

>  <FRAG_NAME>  (921) 
ACET   PRPA

>  <FRAG_ATOM_NUM>  (921) 
fragi: 7  fragj: 11

>  <atom.prop.CHAIN_ID>  (921) 
A A A A A A A Z Z Z Z Z Z Z Z Z Z Z

>  <atom.prop.IS_HEAVY_ATOM>  (921) 
1 0 0 0 1 1 1 1 0 0 0 1 0 0 1 0 0 0

>  <DIFUSE_FUNC_ATOM>  (921) 
atom 6   atom 7   

>  <FINAL_SINGLE_POINT_ENERGY>  (921) 
0

>  <NONCOV_INTER_ENERGY_QM>  (921) 
0

>  <FF_Energy>  (921) 
17.55

>  <QM_Energy>  (921) 
2.18

>  <source>  (921) 
ACET_PRPA_09

>  <Index>  (921) 
19370

$$$$
ACET-pdb2yvk-D-ASP-154:PRPA-pdb2yvk-D-LYS-151
     RDKit          3D

 18 16  0  0  0  0  0  0  0  0999 V2000
    0.0050    1.5066   -0.0042 C   0  0  0  0  0  0  0  0  0  0  0  0
   -0.3926    1.8341    0.8460 H   0  0  0  0  0  0  0  0  0  0  0  0
   -0.5219    1.8304   -0.7820 H   0  0  0  0  0  0  0  0  0  0  0  0
    1.0100    1.9209   -0.0845 H   0  0  0  0  0  0  0  0  0  0  0  0
    0.0000    0.0000    0.0000 C   0  0  0  0  0  0  0  0  0  0  0  0
   -1.0962   -0.5938    0.0000 O   0  0  0  0  0  1  0  0  0  0  0  0
    1.0962   -0.5918   -0.0000 O   0  0  0  0  0  0  0  0  0  0  0  0
    0.1209   -2.1729    3.5004 C   0  0  0  0  0  0  0  0  0  0  0  0
    0.8033   -2.2325    4.2325 H   0  0  0  0  0  0  0  0  0  0  0  0
   -0.4289   -3.0119    3.4969 H   0  0  0  0  0  0  0  0  0  0  0  0
   -0.5410   -1.3357    3.7219 H   0  0  0  0  0  0  0  0  0  0  0  0
    0.8683   -2.0908    2.1625 C   0  0  0  0  0  0  0  0  0  0  0  0
    0.2665   -1.6793    1.4793 H   0  0  0  0  0  0  0  0  0  0  0  0
    1.6823   -1.5243    2.2789 H   0  0  0  0  0  0  0  0  0  0  0  0
    1.3025   -3.4779    1.6620 C   0  0  0  0  0  0  0  0  0  0  0  0
    1.6046   -4.0206    2.4439 H   0  0  0  0  0  0  0  0  0  0  0  0
    0.5215   -3.9208    1.2254 H   0  0  0  0  0  0  0  0  0  0  0  0
    2.1180   -3.4408    0.9398 H   0  0  0  0  0  0  0  0  0  0  0  0
  1  5  1  0
  5  6  1  0
  5  7  2  0
  1  2  1  0
  1  3  1  0
  1  4  1  0
  8 12  1  0
 12 15  1  0
  8  9  1  0
  8 10  1  0
  8 11  1  0
 12 13  1  0
 12 14  1  0
 15 16  1  0
 15 17  1  0
 15 18  1  0
M  CHG  1   6  -1
M  END
>  <PDB_ID>  (922) 
pdb2yvk

>  <RESIDUE_NAME>  (922) 
ASP   LYS

>  <FRAG_NAME>  (922) 
ACET   PRPA

>  <FRAG_ATOM_NUM>  (922) 
fragi: 7  fragj: 11

>  <atom.prop.CHAIN_ID>  (922) 
A A A A A A A Z Z Z Z Z Z Z Z Z Z Z

>  <atom.prop.IS_HEAVY_ATOM>  (922) 
1 0 0 0 1 1 1 1 0 0 0 1 0 0 1 0 0 0

>  <DIFUSE_FUNC_ATOM>  (922) 
atom 6   atom 7   

>  <FINAL_SINGLE_POINT_ENERGY>  (922) 
0

>  <NONCOV_INTER_ENERGY_QM>  (922) 
0

>  <FF_Energy>  (922) 
16.76

>  <QM_Energy>  (922) 
1.42

>  <source>  (922) 
ACET_PRPA_09

>  <Index>  (922) 
19959

$$$$
ACET-pdb2yvk-D-ASP-154:PRPA-pdb2yvk-D-LYS-151
     RDKit          3D

 18 16  0  0  0  0  0  0  0  0999 V2000
    0.0050    1.5066   -0.0042 C   0  0  0  0  0  0  0  0  0  0  0  0
   -0.3926    1.8341    0.8460 H   0  0  0  0  0  0  0  0  0  0  0  0
   -0.5219    1.8304   -0.7820 H   0  0  0  0  0  0  0  0  0  0  0  0
    1.0100    1.9209   -0.0845 H   0  0  0  0  0  0  0  0  0  0  0  0
    0.0000    0.0000    0.0000 C   0  0  0  0  0  0  0  0  0  0  0  0
   -1.0962   -0.5938    0.0000 O   0  0  0  0  0  1  0  0  0  0  0  0
    1.0962   -0.5918   -0.0000 O   0  0  0  0  0  0  0  0  0  0  0  0
    0.8683   -2.0908    2.1625 C   0  0  0  0  0  0  0  0  0  0  0  0
    0.2665   -1.6793    1.4793 H   0  0  0  0  0  0  0  0  0  0  0  0
    1.6823   -1.5243    2.2789 H   0  0  0  0  0  0  0  0  0  0  0  0
    0.3375   -2.1490    3.1127 H   0  0  0  0  0  0  0  0  0  0  0  0
    1.3025   -3.4779    1.6620 C   0  0  0  0  0  0  0  0  0  0  0  0
    1.6046   -4.0206    2.4439 H   0  0  0  0  0  0  0  0  0  0  0  0
    0.5215   -3.9208    1.2254 H   0  0  0  0  0  0  0  0  0  0  0  0
    2.4581   -3.4253    0.6384 C   0  0  0  0  0  0  0  0  0  0  0  0
    3.2084   -2.8591    1.0375 H   0  0  0  0  0  0  0  0  0  0  0  0
    2.8352   -4.3684    0.5384 H   0  0  0  0  0  0  0  0  0  0  0  0
    2.2167   -3.0385   -0.3517 H   0  0  0  0  0  0  0  0  0  0  0  0
  1  5  1  0
  5  6  1  0
  5  7  2  0
  1  2  1  0
  1  3  1  0
  1  4  1  0
  8 12  1  0
 12 15  1  0
  8  9  1  0
  8 10  1  0
  8 11  1  0
 12 13  1  0
 12 14  1  0
 15 16  1  0
 15 17  1  0
 15 18  1  0
M  CHG  1   6  -1
M  END
>  <PDB_ID>  (923) 
pdb2yvk

>  <RESIDUE_NAME>  (923) 
ASP   LYS

>  <FRAG_NAME>  (923) 
ACET   PRPA

>  <FRAG_ATOM_NUM>  (923) 
fragi: 7  fragj: 11

>  <atom.prop.CHAIN_ID>  (923) 
A A A A A A A Z Z Z Z Z Z Z Z Z Z Z

>  <atom.prop.IS_HEAVY_ATOM>  (923) 
1 0 0 0 1 1 1 1 0 0 0 1 0 0 1 0 0 0

>  <DIFUSE_FUNC_ATOM>  (923) 
atom 6   atom 7   

>  <FINAL_SINGLE_POINT_ENERGY>  (923) 
0

>  <NONCOV_INTER_ENERGY_QM>  (923) 
0

>  <FF_Energy>  (923) 
17.45

>  <QM_Energy>  (923) 
1.27

>  <source>  (923) 
ACET_PRPA_09

>  <Index>  (923) 
19962

$$$$
ACET-pdb2z3t-A-GLU-200:PRPA-pdb2z3t-A-ARG-88
     RDKit          3D

 18 16  0  0  0  0  0  0  0  0999 V2000
    0.0301    1.5217    0.0062 C   0  0  0  0  0  0  0  0  0  0  0  0
    0.9528    1.8030   -0.1827 H   0  0  0  0  0  0  0  0  0  0  0  0
   -0.2767    1.8226    0.8907 H   0  0  0  0  0  0  0  0  0  0  0  0
   -0.6180    1.9699   -0.7468 H   0  0  0  0  0  0  0  0  0  0  0  0
    0.0000    0.0000    0.0000 C   0  0  0  0  0  0  0  0  0  0  0  0
   -1.0989   -0.5970    0.0000 O   0  0  0  0  0  1  0  0  0  0  0  0
    1.0989   -0.5952   -0.0000 O   0  0  0  0  0  0  0  0  0  0  0  0
    0.8433   -3.3376   -0.3330 C   0  0  0  0  0  0  0  0  0  0  0  0
    0.9844   -2.3395   -0.2618 H   0  0  0  0  0  0  0  0  0  0  0  0
    1.7915   -3.8384   -0.1366 H   0  0  0  0  0  0  0  0  0  0  0  0
    0.0765   -3.6347    0.3823 H   0  0  0  0  0  0  0  0  0  0  0  0
    0.3450   -3.6757   -1.7400 C   0  0  0  0  0  0  0  0  0  0  0  0
    0.1269   -4.6472   -1.7664 H   0  0  0  0  0  0  0  0  0  0  0  0
   -0.4728   -3.1366   -1.9167 H   0  0  0  0  0  0  0  0  0  0  0  0
    1.3500   -3.3856   -2.8359 C   0  0  0  0  0  0  0  0  0  0  0  0
    2.2493   -3.7298   -2.5637 H   0  0  0  0  0  0  0  0  0  0  0  0
    1.0622   -3.8373   -3.6804 H   0  0  0  0  0  0  0  0  0  0  0  0
    1.4407   -2.3179   -3.0358 H   0  0  0  0  0  0  0  0  0  0  0  0
  1  5  1  0
  5  6  1  0
  5  7  2  0
  1  2  1  0
  1  3  1  0
  1  4  1  0
  8 12  1  0
 12 15  1  0
  8  9  1  0
  8 10  1  0
  8 11  1  0
 12 13  1  0
 12 14  1  0
 15 16  1  0
 15 17  1  0
 15 18  1  0
M  CHG  1   6  -1
M  END
>  <PDB_ID>  (924) 
pdb2z3t

>  <RESIDUE_NAME>  (924) 
GLU   ARG

>  <FRAG_NAME>  (924) 
ACET   PRPA

>  <FRAG_ATOM_NUM>  (924) 
fragi: 7  fragj: 11

>  <atom.prop.CHAIN_ID>  (924) 
A A A A A A A Z Z Z Z Z Z Z Z Z Z Z

>  <atom.prop.IS_HEAVY_ATOM>  (924) 
1 0 0 0 1 1 1 1 0 0 0 1 0 0 1 0 0 0

>  <DIFUSE_FUNC_ATOM>  (924) 
atom 6   atom 7   

>  <FINAL_SINGLE_POINT_ENERGY>  (924) 
0

>  <NONCOV_INTER_ENERGY_QM>  (924) 
0

>  <FF_Energy>  (924) 
34.79

>  <QM_Energy>  (924) 
0.39

>  <source>  (924) 
ACET_PRPA_09

>  <Index>  (924) 
20161

$$$$
ACET-pdb2zdj-A-GLU-64:PRPA-pdb2zdj-A-ARG-4
     RDKit          3D

 18 16  0  0  0  0  0  0  0  0999 V2000
    0.0082    1.5176    0.0036 C   0  0  0  0  0  0  0  0  0  0  0  0
   -0.6115    1.8153   -0.7011 H   0  0  0  0  0  0  0  0  0  0  0  0
    0.9327    1.8054   -0.1741 H   0  0  0  0  0  0  0  0  0  0  0  0
   -0.3148    1.9397    0.9553 H   0  0  0  0  0  0  0  0  0  0  0  0
    0.0000    0.0000    0.0000 C   0  0  0  0  0  0  0  0  0  0  0  0
   -1.1031   -0.5929   -0.0000 O   0  0  0  0  0  1  0  0  0  0  0  0
    1.1031   -0.5917   -0.0000 O   0  0  0  0  0  0  0  0  0  0  0  0
   -0.3779    1.6392   -4.8101 C   0  0  0  0  0  0  0  0  0  0  0  0
   -1.1299    2.2579   -4.5701 H   0  0  0  0  0  0  0  0  0  0  0  0
   -0.4598    1.3661   -5.8621 H   0  0  0  0  0  0  0  0  0  0  0  0
    0.5666    2.1574   -4.6449 H   0  0  0  0  0  0  0  0  0  0  0  0
   -0.4482    0.3818   -3.9393 C   0  0  0  0  0  0  0  0  0  0  0  0
   -0.8672   -0.3421   -4.4730 H   0  0  0  0  0  0  0  0  0  0  0  0
    0.4758    0.1335   -3.6765 H   0  0  0  0  0  0  0  0  0  0  0  0
   -1.2652    0.5737   -2.6743 C   0  0  0  0  0  0  0  0  0  0  0  0
   -0.7492    0.2206   -1.8872 H   0  0  0  0  0  0  0  0  0  0  0  0
   -1.4364    1.5536   -2.5337 H   0  0  0  0  0  0  0  0  0  0  0  0
   -2.2291    0.0655   -2.7005 H   0  0  0  0  0  0  0  0  0  0  0  0
  1  5  1  0
  5  6  1  0
  5  7  2  0
  1  2  1  0
  1  3  1  0
  1  4  1  0
  8 12  1  0
 12 15  1  0
  8  9  1  0
  8 10  1  0
  8 11  1  0
 12 13  1  0
 12 14  1  0
 15 16  1  0
 15 17  1  0
 15 18  1  0
M  CHG  1   6  -1
M  END
>  <PDB_ID>  (925) 
pdb2zdj

>  <RESIDUE_NAME>  (925) 
GLU   ARG

>  <FRAG_NAME>  (925) 
ACET   PRPA

>  <FRAG_ATOM_NUM>  (925) 
fragi: 7  fragj: 11

>  <atom.prop.CHAIN_ID>  (925) 
A A A A A A A Z Z Z Z Z Z Z Z Z Z Z

>  <atom.prop.IS_HEAVY_ATOM>  (925) 
1 0 0 0 1 1 1 1 0 0 0 1 0 0 1 0 0 0

>  <DIFUSE_FUNC_ATOM>  (925) 
atom 6   atom 7   

>  <FINAL_SINGLE_POINT_ENERGY>  (925) 
0

>  <NONCOV_INTER_ENERGY_QM>  (925) 
0

>  <FF_Energy>  (925) 
24.24

>  <QM_Energy>  (925) 
4.2

>  <source>  (925) 
ACET_PRPA_09

>  <Index>  (925) 
20306

$$$$
ACET-pdb2zdj-A-GLU-64:PRPA-pdb2zdj-A-ARG-4
     RDKit          3D

 18 16  0  0  0  0  0  0  0  0999 V2000
    0.0082    1.5176    0.0036 C   0  0  0  0  0  0  0  0  0  0  0  0
   -0.6115    1.8153   -0.7011 H   0  0  0  0  0  0  0  0  0  0  0  0
    0.9327    1.8054   -0.1741 H   0  0  0  0  0  0  0  0  0  0  0  0
   -0.3148    1.9397    0.9553 H   0  0  0  0  0  0  0  0  0  0  0  0
    0.0000    0.0000    0.0000 C   0  0  0  0  0  0  0  0  0  0  0  0
   -1.1031   -0.5929   -0.0000 O   0  0  0  0  0  1  0  0  0  0  0  0
    1.1031   -0.5917   -0.0000 O   0  0  0  0  0  0  0  0  0  0  0  0
   -0.4482    0.3818   -3.9393 C   0  0  0  0  0  0  0  0  0  0  0  0
   -0.8672   -0.3421   -4.4730 H   0  0  0  0  0  0  0  0  0  0  0  0
    0.4758    0.1335   -3.6765 H   0  0  0  0  0  0  0  0  0  0  0  0
   -0.3982    1.2769   -4.5592 H   0  0  0  0  0  0  0  0  0  0  0  0
   -1.2652    0.5737   -2.6743 C   0  0  0  0  0  0  0  0  0  0  0  0
   -0.7492    0.2206   -1.8872 H   0  0  0  0  0  0  0  0  0  0  0  0
   -1.4364    1.5536   -2.5337 H   0  0  0  0  0  0  0  0  0  0  0  0
   -2.6093   -0.1350   -2.7107 C   0  0  0  0  0  0  0  0  0  0  0  0
   -2.4408   -1.1184   -2.6835 H   0  0  0  0  0  0  0  0  0  0  0  0
   -3.1254    0.1414   -1.9008 H   0  0  0  0  0  0  0  0  0  0  0  0
   -3.1831    0.1084   -3.6048 H   0  0  0  0  0  0  0  0  0  0  0  0
  1  5  1  0
  5  6  1  0
  5  7  2  0
  1  2  1  0
  1  3  1  0
  1  4  1  0
  8 12  1  0
 12 15  1  0
  8  9  1  0
  8 10  1  0
  8 11  1  0
 12 13  1  0
 12 14  1  0
 15 16  1  0
 15 17  1  0
 15 18  1  0
M  CHG  1   6  -1
M  END
>  <PDB_ID>  (926) 
pdb2zdj

>  <RESIDUE_NAME>  (926) 
GLU   ARG

>  <FRAG_NAME>  (926) 
ACET   PRPA

>  <FRAG_ATOM_NUM>  (926) 
fragi: 7  fragj: 11

>  <atom.prop.CHAIN_ID>  (926) 
A A A A A A A Z Z Z Z Z Z Z Z Z Z Z

>  <atom.prop.IS_HEAVY_ATOM>  (926) 
1 0 0 0 1 1 1 1 0 0 0 1 0 0 1 0 0 0

>  <DIFUSE_FUNC_ATOM>  (926) 
atom 6   atom 7   

>  <FINAL_SINGLE_POINT_ENERGY>  (926) 
0

>  <NONCOV_INTER_ENERGY_QM>  (926) 
0

>  <FF_Energy>  (926) 
27.52

>  <QM_Energy>  (926) 
1.93

>  <source>  (926) 
ACET_PRPA_09

>  <Index>  (926) 
20308

$$$$
ACET-pdb2zbi-A-ASP-261:PRPA-pdb2zbi-A-VAL-264
     RDKit          3D

 18 16  0  0  0  0  0  0  0  0999 V2000
   -0.0031    1.5456   -0.0197 C   0  0  0  0  0  0  0  0  0  0  0  0
    0.4291    1.8459   -0.8571 H   0  0  0  0  0  0  0  0  0  0  0  0
    0.4910    1.8676    0.7741 H   0  0  0  0  0  0  0  0  0  0  0  0
   -1.0084    1.9656    0.0125 H   0  0  0  0  0  0  0  0  0  0  0  0
    0.0000    0.0000    0.0000 C   0  0  0  0  0  0  0  0  0  0  0  0
   -1.1037   -0.5859    0.0000 O   0  0  0  0  0  1  0  0  0  0  0  0
    1.1037   -0.6117   -0.0000 O   0  0  0  0  0  0  0  0  0  0  0  0
    0.9833    0.4239    4.5569 C   0  0  0  0  0  0  0  0  0  0  0  0
    1.4561   -0.2794    5.1080 H   0  0  0  0  0  0  0  0  0  0  0  0
    0.2605   -0.0780    3.9136 H   0  0  0  0  0  0  0  0  0  0  0  0
    0.5240    1.1245    5.2543 H   0  0  0  0  0  0  0  0  0  0  0  0
    2.1802    1.0360    3.7715 C   0  0  0  0  0  0  0  0  0  0  0  0
    2.6158    0.2835    3.2681 H   0  0  0  0  0  0  0  0  0  0  0  0
    2.8997    1.4911    4.4522 H   0  0  0  0  0  0  0  0  0  0  0  0
    1.7541    2.0708    2.7606 C   0  0  0  0  0  0  0  0  0  0  0  0
    2.5219    2.6806    2.5533 H   0  0  0  0  0  0  0  0  0  0  0  0
    1.4572    1.6200    1.9162 H   0  0  0  0  0  0  0  0  0  0  0  0
    0.9951    2.6135    3.1273 H   0  0  0  0  0  0  0  0  0  0  0  0
  1  5  1  0
  5  6  1  0
  5  7  2  0
  1  2  1  0
  1  3  1  0
  1  4  1  0
  8 12  1  0
 12 15  1  0
  8  9  1  0
  8 10  1  0
  8 11  1  0
 12 13  1  0
 12 14  1  0
 15 16  1  0
 15 17  1  0
 15 18  1  0
M  CHG  1   6  -1
M  END
>  <PDB_ID>  (927) 
pdb2zbi

>  <RESIDUE_NAME>  (927) 
ASP   VAL

>  <FRAG_NAME>  (927) 
ACET   PRPA

>  <FRAG_ATOM_NUM>  (927) 
fragi: 7  fragj: 11

>  <atom.prop.CHAIN_ID>  (927) 
A A A A A A A Z Z Z Z Z Z Z Z Z Z Z

>  <atom.prop.IS_HEAVY_ATOM>  (927) 
1 0 0 0 1 1 1 1 0 0 0 1 0 0 1 0 0 0

>  <DIFUSE_FUNC_ATOM>  (927) 
atom 6   atom 7   

>  <FINAL_SINGLE_POINT_ENERGY>  (927) 
0

>  <NONCOV_INTER_ENERGY_QM>  (927) 
0

>  <FF_Energy>  (927) 
24.48

>  <QM_Energy>  (927) 
1.86

>  <source>  (927) 
ACET_PRPA_09

>  <Index>  (927) 
20911

$$$$
ACET-pdb2zbi-A-ASP-261:PRPA-pdb2zbi-A-VAL-264
     RDKit          3D

 18 16  0  0  0  0  0  0  0  0999 V2000
   -0.0031    1.5456   -0.0197 C   0  0  0  0  0  0  0  0  0  0  0  0
    0.4291    1.8459   -0.8571 H   0  0  0  0  0  0  0  0  0  0  0  0
    0.4910    1.8676    0.7741 H   0  0  0  0  0  0  0  0  0  0  0  0
   -1.0084    1.9656    0.0125 H   0  0  0  0  0  0  0  0  0  0  0  0
    0.0000    0.0000    0.0000 C   0  0  0  0  0  0  0  0  0  0  0  0
   -1.1037   -0.5859    0.0000 O   0  0  0  0  0  1  0  0  0  0  0  0
    1.1037   -0.6117   -0.0000 O   0  0  0  0  0  0  0  0  0  0  0  0
    1.7541    2.0708    2.7606 C   0  0  0  0  0  0  0  0  0  0  0  0
    2.5219    2.6806    2.5533 H   0  0  0  0  0  0  0  0  0  0  0  0
    1.4572    1.6200    1.9162 H   0  0  0  0  0  0  0  0  0  0  0  0
    0.9951    2.6135    3.1273 H   0  0  0  0  0  0  0  0  0  0  0  0
    2.1802    1.0360    3.7715 C   0  0  0  0  0  0  0  0  0  0  0  0
    2.6158    0.2835    3.2681 H   0  0  0  0  0  0  0  0  0  0  0  0
    1.3423    0.6075    4.3213 H   0  0  0  0  0  0  0  0  0  0  0  0
    3.1966    1.6789    4.7330 C   0  0  0  0  0  0  0  0  0  0  0  0
    2.7317    2.3760    5.2732 H   0  0  0  0  0  0  0  0  0  0  0  0
    3.5657    0.9707    5.3305 H   0  0  0  0  0  0  0  0  0  0  0  0
    3.9290    2.0923    4.1971 H   0  0  0  0  0  0  0  0  0  0  0  0
  1  5  1  0
  5  6  1  0
  5  7  2  0
  1  2  1  0
  1  3  1  0
  1  4  1  0
  8 12  1  0
 12 15  1  0
  8  9  1  0
  8 10  1  0
  8 11  1  0
 12 13  1  0
 12 14  1  0
 15 16  1  0
 15 17  1  0
 15 18  1  0
M  CHG  1   6  -1
M  END
>  <PDB_ID>  (928) 
pdb2zbi

>  <RESIDUE_NAME>  (928) 
ASP   VAL

>  <FRAG_NAME>  (928) 
ACET   PRPA

>  <FRAG_ATOM_NUM>  (928) 
fragi: 7  fragj: 11

>  <atom.prop.CHAIN_ID>  (928) 
A A A A A A A Z Z Z Z Z Z Z Z Z Z Z

>  <atom.prop.IS_HEAVY_ATOM>  (928) 
1 0 0 0 1 1 1 1 0 0 0 1 0 0 1 0 0 0

>  <DIFUSE_FUNC_ATOM>  (928) 
atom 6   atom 7   

>  <FINAL_SINGLE_POINT_ENERGY>  (928) 
0

>  <NONCOV_INTER_ENERGY_QM>  (928) 
0

>  <FF_Energy>  (928) 
24.26

>  <QM_Energy>  (928) 
2.59

>  <source>  (928) 
ACET_PRPA_09

>  <Index>  (928) 
20919

$$$$
ACET-pdb2yxg-C-ASP-223:PRPA-pdb2yxg-C-LYS-226
     RDKit          3D

 18 16  0  0  0  0  0  0  0  0999 V2000
    0.0393    1.5357    0.0798 C   0  0  0  0  0  0  0  0  0  0  0  0
    0.8002    1.8601   -0.4674 H   0  0  0  0  0  0  0  0  0  0  0  0
    0.1488    1.7989    1.0286 H   0  0  0  0  0  0  0  0  0  0  0  0
   -0.8677    2.0091   -0.2960 H   0  0  0  0  0  0  0  0  0  0  0  0
    0.0000    0.0000    0.0000 C   0  0  0  0  0  0  0  0  0  0  0  0
   -1.0974   -0.6052   -0.0000 O   0  0  0  0  0  1  0  0  0  0  0  0
    1.0974   -0.6166    0.0000 O   0  0  0  0  0  0  0  0  0  0  0  0
   -0.8268   -1.6741    3.3556 C   0  0  0  0  0  0  0  0  0  0  0  0
   -0.6338   -0.8684    2.8088 H   0  0  0  0  0  0  0  0  0  0  0  0
   -0.4651   -1.5681    4.2741 H   0  0  0  0  0  0  0  0  0  0  0  0
   -1.9079   -1.7958    3.4223 H   0  0  0  0  0  0  0  0  0  0  0  0
   -0.1306   -2.8713    2.7038 C   0  0  0  0  0  0  0  0  0  0  0  0
    0.1379   -3.5124    3.4036 H   0  0  0  0  0  0  0  0  0  0  0  0
   -0.7377   -3.2823    2.0444 H   0  0  0  0  0  0  0  0  0  0  0  0
    1.1301   -2.3764    1.9762 C   0  0  0  0  0  0  0  0  0  0  0  0
    0.8485   -1.9040    1.1385 H   0  0  0  0  0  0  0  0  0  0  0  0
    1.6090   -1.7302    2.5731 H   0  0  0  0  0  0  0  0  0  0  0  0
    1.8250   -3.1710    1.7045 H   0  0  0  0  0  0  0  0  0  0  0  0
  1  5  1  0
  5  6  1  0
  5  7  2  0
  1  2  1  0
  1  3  1  0
  1  4  1  0
  8 12  1  0
 12 15  1  0
  8  9  1  0
  8 10  1  0
  8 11  1  0
 12 13  1  0
 12 14  1  0
 15 16  1  0
 15 17  1  0
 15 18  1  0
M  CHG  1   6  -1
M  END
>  <PDB_ID>  (929) 
pdb2yxg

>  <RESIDUE_NAME>  (929) 
ASP   LYS

>  <FRAG_NAME>  (929) 
ACET   PRPA

>  <FRAG_ATOM_NUM>  (929) 
fragi: 7  fragj: 11

>  <atom.prop.CHAIN_ID>  (929) 
A A A A A A A Z Z Z Z Z Z Z Z Z Z Z

>  <atom.prop.IS_HEAVY_ATOM>  (929) 
1 0 0 0 1 1 1 1 0 0 0 1 0 0 1 0 0 0

>  <DIFUSE_FUNC_ATOM>  (929) 
atom 6   atom 7   

>  <FINAL_SINGLE_POINT_ENERGY>  (929) 
0

>  <NONCOV_INTER_ENERGY_QM>  (929) 
0

>  <FF_Energy>  (929) 
46.7

>  <QM_Energy>  (929) 
2.39

>  <source>  (929) 
ACET_PRPA_09

>  <Index>  (929) 
21176

$$$$
ACET-pdb2z37-A-ASP-354:PRPA-pdb2z37-A-LYS-357
     RDKit          3D

 18 16  0  0  0  0  0  0  0  0999 V2000
    0.0226    1.5271   -0.0050 C   0  0  0  0  0  0  0  0  0  0  0  0
    0.8924    1.8277   -0.3755 H   0  0  0  0  0  0  0  0  0  0  0  0
   -0.0908    1.8468    0.9265 H   0  0  0  0  0  0  0  0  0  0  0  0
   -0.7735    1.9565   -0.6133 H   0  0  0  0  0  0  0  0  0  0  0  0
    0.0000    0.0000    0.0000 C   0  0  0  0  0  0  0  0  0  0  0  0
   -1.0991   -0.5949    0.0000 O   0  0  0  0  0  1  0  0  0  0  0  0
    1.0991   -0.6155   -0.0000 O   0  0  0  0  0  0  0  0  0  0  0  0
   -0.1343   -1.3052    3.4054 C   0  0  0  0  0  0  0  0  0  0  0  0
   -0.2110   -2.0914    4.0306 H   0  0  0  0  0  0  0  0  0  0  0  0
   -0.4981   -1.5775    2.5066 H   0  0  0  0  0  0  0  0  0  0  0  0
   -0.7307   -0.4807    3.7962 H   0  0  0  0  0  0  0  0  0  0  0  0
    1.3574   -0.9636    3.2404 C   0  0  0  0  0  0  0  0  0  0  0  0
    1.7583   -0.8491    4.1465 H   0  0  0  0  0  0  0  0  0  0  0  0
    1.8040   -1.7156    2.7622 H   0  0  0  0  0  0  0  0  0  0  0  0
    1.5864    0.3249    2.4414 C   0  0  0  0  0  0  0  0  0  0  0  0
    0.7703    0.4850    1.8398 H   0  0  0  0  0  0  0  0  0  0  0  0
    1.6016    1.1165    3.0958 H   0  0  0  0  0  0  0  0  0  0  0  0
    2.4773    0.3931    1.8171 H   0  0  0  0  0  0  0  0  0  0  0  0
  1  5  1  0
  5  6  1  0
  5  7  2  0
  1  2  1  0
  1  3  1  0
  1  4  1  0
  8 12  1  0
 12 15  1  0
  8  9  1  0
  8 10  1  0
  8 11  1  0
 12 13  1  0
 12 14  1  0
 15 16  1  0
 15 17  1  0
 15 18  1  0
M  CHG  1   6  -1
M  END
>  <PDB_ID>  (930) 
pdb2z37

>  <RESIDUE_NAME>  (930) 
ASP   LYS

>  <FRAG_NAME>  (930) 
ACET   PRPA

>  <FRAG_ATOM_NUM>  (930) 
fragi: 7  fragj: 11

>  <atom.prop.CHAIN_ID>  (930) 
A A A A A A A Z Z Z Z Z Z Z Z Z Z Z

>  <atom.prop.IS_HEAVY_ATOM>  (930) 
1 0 0 0 1 1 1 1 0 0 0 1 0 0 1 0 0 0

>  <DIFUSE_FUNC_ATOM>  (930) 
atom 6   atom 7   

>  <FINAL_SINGLE_POINT_ENERGY>  (930) 
0

>  <NONCOV_INTER_ENERGY_QM>  (930) 
0

>  <FF_Energy>  (930) 
29.56

>  <QM_Energy>  (930) 
5.31

>  <source>  (930) 
ACET_PRPA_09

>  <Index>  (930) 
21507

$$$$
ACET-pdb1t5r-A-GLU-227:PRPA-pdb1t5r-A-LYS-268
     RDKit          3D

 18 16  0  0  0  0  0  0  0  0999 V2000
   -0.0022    1.5249   -0.0020 C   0  0  0  0  0  0  0  0  0  0  0  0
   -0.4661    1.8180    0.8138 H   0  0  0  0  0  0  0  0  0  0  0  0
   -0.4649    1.8150   -0.8188 H   0  0  0  0  0  0  0  0  0  0  0  0
    1.0018    1.9493   -0.0008 H   0  0  0  0  0  0  0  0  0  0  0  0
    0.0000    0.0000    0.0000 C   0  0  0  0  0  0  0  0  0  0  0  0
   -1.1033   -0.5998    0.0000 O   0  0  0  0  0  1  0  0  0  0  0  0
    1.1033   -0.5959    0.0000 O   0  0  0  0  0  0  0  0  0  0  0  0
   -1.6772    4.1496    3.1170 C   0  0  0  0  0  0  0  0  0  0  0  0
   -1.0606    4.1776    2.3279 H   0  0  0  0  0  0  0  0  0  0  0  0
   -1.0810    4.0997    4.0282 H   0  0  0  0  0  0  0  0  0  0  0  0
   -2.2827    5.0559    3.1267 H   0  0  0  0  0  0  0  0  0  0  0  0
   -2.5742    2.9148    2.9923 C   0  0  0  0  0  0  0  0  0  0  0  0
   -3.1856    2.8927    3.7835 H   0  0  0  0  0  0  0  0  0  0  0  0
   -3.1180    3.0086    2.1564 H   0  0  0  0  0  0  0  0  0  0  0  0
   -1.8261    1.5900    2.9300 C   0  0  0  0  0  0  0  0  0  0  0  0
   -1.2152    1.5987    2.1365 H   0  0  0  0  0  0  0  0  0  0  0  0
   -1.2835    1.4824    3.7643 H   0  0  0  0  0  0  0  0  0  0  0  0
   -2.5088    0.7450    2.8403 H   0  0  0  0  0  0  0  0  0  0  0  0
  1  5  1  0
  5  6  1  0
  5  7  2  0
  1  2  1  0
  1  3  1  0
  1  4  1  0
  8 12  1  0
 12 15  1  0
  8  9  1  0
  8 10  1  0
  8 11  1  0
 12 13  1  0
 12 14  1  0
 15 16  1  0
 15 17  1  0
 15 18  1  0
M  CHG  1   6  -1
M  END
>  <PDB_ID>  (931) 
pdb1t5r

>  <RESIDUE_NAME>  (931) 
GLU   LYS

>  <FRAG_NAME>  (931) 
ACET   PRPA

>  <FRAG_ATOM_NUM>  (931) 
fragi: 7  fragj: 11

>  <atom.prop.CHAIN_ID>  (931) 
A A A A A A A Z Z Z Z Z Z Z Z Z Z Z

>  <atom.prop.IS_HEAVY_ATOM>  (931) 
1 0 0 0 1 1 1 1 0 0 0 1 0 0 1 0 0 0

>  <DIFUSE_FUNC_ATOM>  (931) 
atom 6   atom 7   

>  <FINAL_SINGLE_POINT_ENERGY>  (931) 
0

>  <NONCOV_INTER_ENERGY_QM>  (931) 
0

>  <FF_Energy>  (931) 
19.24

>  <QM_Energy>  (931) 
1.76

>  <source>  (931) 
ACET_PRPA_09

>  <Index>  (931) 
21860

$$$$
ACET-pdb1t5r-A-GLU-227:PRPA-pdb1t5r-A-LYS-268
     RDKit          3D

 18 16  0  0  0  0  0  0  0  0999 V2000
   -0.0022    1.5249   -0.0020 C   0  0  0  0  0  0  0  0  0  0  0  0
   -0.4661    1.8180    0.8138 H   0  0  0  0  0  0  0  0  0  0  0  0
   -0.4649    1.8150   -0.8188 H   0  0  0  0  0  0  0  0  0  0  0  0
    1.0018    1.9493   -0.0008 H   0  0  0  0  0  0  0  0  0  0  0  0
    0.0000    0.0000    0.0000 C   0  0  0  0  0  0  0  0  0  0  0  0
   -1.1033   -0.5998    0.0000 O   0  0  0  0  0  1  0  0  0  0  0  0
    1.1033   -0.5959    0.0000 O   0  0  0  0  0  0  0  0  0  0  0  0
   -1.8261    1.5900    2.9300 C   0  0  0  0  0  0  0  0  0  0  0  0
   -1.2152    1.5987    2.1365 H   0  0  0  0  0  0  0  0  0  0  0  0
   -1.2835    1.4824    3.7643 H   0  0  0  0  0  0  0  0  0  0  0  0
   -2.3616    2.5383    2.9746 H   0  0  0  0  0  0  0  0  0  0  0  0
   -2.7767    0.4135    2.8050 C   0  0  0  0  0  0  0  0  0  0  0  0
   -3.3883    0.4091    3.5989 H   0  0  0  0  0  0  0  0  0  0  0  0
   -3.3193    0.5248    1.9715 H   0  0  0  0  0  0  0  0  0  0  0  0
   -2.0569   -0.9136    2.7415 C   0  0  0  0  0  0  0  0  0  0  0  0
   -1.4481   -0.9188    1.9483 H   0  0  0  0  0  0  0  0  0  0  0  0
   -1.5165   -1.0341    3.5751 H   0  0  0  0  0  0  0  0  0  0  0  0
   -2.7681   -1.7348    2.6531 H   0  0  0  0  0  0  0  0  0  0  0  0
  1  5  1  0
  5  6  1  0
  5  7  2  0
  1  2  1  0
  1  3  1  0
  1  4  1  0
  8 12  1  0
 12 15  1  0
  8  9  1  0
  8 10  1  0
  8 11  1  0
 12 13  1  0
 12 14  1  0
 15 16  1  0
 15 17  1  0
 15 18  1  0
M  CHG  1   6  -1
M  END
>  <PDB_ID>  (932) 
pdb1t5r

>  <RESIDUE_NAME>  (932) 
GLU   LYS

>  <FRAG_NAME>  (932) 
ACET   PRPA

>  <FRAG_ATOM_NUM>  (932) 
fragi: 7  fragj: 11

>  <atom.prop.CHAIN_ID>  (932) 
A A A A A A A Z Z Z Z Z Z Z Z Z Z Z

>  <atom.prop.IS_HEAVY_ATOM>  (932) 
1 0 0 0 1 1 1 1 0 0 0 1 0 0 1 0 0 0

>  <DIFUSE_FUNC_ATOM>  (932) 
atom 6   atom 7   

>  <FINAL_SINGLE_POINT_ENERGY>  (932) 
0

>  <NONCOV_INTER_ENERGY_QM>  (932) 
0

>  <FF_Energy>  (932) 
27.54

>  <QM_Energy>  (932) 
1.28

>  <source>  (932) 
ACET_PRPA_09

>  <Index>  (932) 
21884

$$$$
ACET-pdb1tn3-A-GLU-120:PRPA-pdb1tn3-A-LYS-148
     RDKit          3D

 18 16  0  0  0  0  0  0  0  0999 V2000
    0.2428    1.4552    0.1152 C   0  0  0  0  0  0  0  0  0  0  0  0
    1.2135    1.6051    0.1815 H   0  0  0  0  0  0  0  0  0  0  0  0
   -0.2371    1.7895    0.9078 H   0  0  0  0  0  0  0  0  0  0  0  0
   -0.1220    2.0011   -0.7548 H   0  0  0  0  0  0  0  0  0  0  0  0
    0.0000    0.0000    0.0000 C   0  0  0  0  0  0  0  0  0  0  0  0
   -1.1243   -0.5252    0.0000 O   0  0  0  0  0  1  0  0  0  0  0  0
    1.1243   -0.6340    0.0000 O   0  0  0  0  0  0  0  0  0  0  0  0
    2.3191    0.4666    3.3132 C   0  0  0  0  0  0  0  0  0  0  0  0
    2.0943    0.7001    4.2724 H   0  0  0  0  0  0  0  0  0  0  0  0
    3.3096    0.2586    3.2759 H   0  0  0  0  0  0  0  0  0  0  0  0
    1.7732   -0.4385    3.0467 H   0  0  0  0  0  0  0  0  0  0  0  0
    2.0679    1.7003    2.4624 C   0  0  0  0  0  0  0  0  0  0  0  0
    1.8483    1.4297    1.5471 H   0  0  0  0  0  0  0  0  0  0  0  0
    1.3730    2.2508    2.8772 H   0  0  0  0  0  0  0  0  0  0  0  0
    3.3810    2.4910    2.4431 C   0  0  0  0  0  0  0  0  0  0  0  0
    3.7356    2.5372    3.3960 H   0  0  0  0  0  0  0  0  0  0  0  0
    4.0614    1.9601    1.9036 H   0  0  0  0  0  0  0  0  0  0  0  0
    3.3453    3.5044    2.0433 H   0  0  0  0  0  0  0  0  0  0  0  0
  1  5  1  0
  5  6  1  0
  5  7  2  0
  1  2  1  0
  1  3  1  0
  1  4  1  0
  8 12  1  0
 12 15  1  0
  8  9  1  0
  8 10  1  0
  8 11  1  0
 12 13  1  0
 12 14  1  0
 15 16  1  0
 15 17  1  0
 15 18  1  0
M  CHG  1   6  -1
M  END
>  <PDB_ID>  (933) 
pdb1tn3

>  <RESIDUE_NAME>  (933) 
GLU   LYS

>  <FRAG_NAME>  (933) 
ACET   PRPA

>  <FRAG_ATOM_NUM>  (933) 
fragi: 7  fragj: 11

>  <atom.prop.CHAIN_ID>  (933) 
A A A A A A A Z Z Z Z Z Z Z Z Z Z Z

>  <atom.prop.IS_HEAVY_ATOM>  (933) 
1 0 0 0 1 1 1 1 0 0 0 1 0 0 1 0 0 0

>  <DIFUSE_FUNC_ATOM>  (933) 
atom 6   atom 7   

>  <FINAL_SINGLE_POINT_ENERGY>  (933) 
0

>  <NONCOV_INTER_ENERGY_QM>  (933) 
0

>  <FF_Energy>  (933) 
37.44

>  <QM_Energy>  (933) 
3.89

>  <source>  (933) 
ACET_PRPA_09

>  <Index>  (933) 
22589

$$$$
ACET-pdb1tn3-A-GLU-120:PRPA-pdb1tn3-A-LYS-148
     RDKit          3D

 18 16  0  0  0  0  0  0  0  0999 V2000
    0.2428    1.4552    0.1152 C   0  0  0  0  0  0  0  0  0  0  0  0
    1.2135    1.6051    0.1815 H   0  0  0  0  0  0  0  0  0  0  0  0
   -0.2371    1.7895    0.9078 H   0  0  0  0  0  0  0  0  0  0  0  0
   -0.1220    2.0011   -0.7548 H   0  0  0  0  0  0  0  0  0  0  0  0
    0.0000    0.0000    0.0000 C   0  0  0  0  0  0  0  0  0  0  0  0
   -1.1243   -0.5252    0.0000 O   0  0  0  0  0  1  0  0  0  0  0  0
    1.1243   -0.6340    0.0000 O   0  0  0  0  0  0  0  0  0  0  0  0
    1.5583   -0.7949    2.9417 C   0  0  0  0  0  0  0  0  0  0  0  0
    1.6673   -0.9049    1.9205 H   0  0  0  0  0  0  0  0  0  0  0  0
    0.4928   -0.7144    3.1567 H   0  0  0  0  0  0  0  0  0  0  0  0
    2.0954   -1.6013    3.4411 H   0  0  0  0  0  0  0  0  0  0  0  0
    2.3191    0.4666    3.3132 C   0  0  0  0  0  0  0  0  0  0  0  0
    2.0943    0.7001    4.2724 H   0  0  0  0  0  0  0  0  0  0  0  0
    3.3096    0.2586    3.2759 H   0  0  0  0  0  0  0  0  0  0  0  0
    2.0679    1.7003    2.4624 C   0  0  0  0  0  0  0  0  0  0  0  0
    1.8483    1.4297    1.5471 H   0  0  0  0  0  0  0  0  0  0  0  0
    1.3730    2.2508    2.8772 H   0  0  0  0  0  0  0  0  0  0  0  0
    3.0017    2.2625    2.4486 H   0  0  0  0  0  0  0  0  0  0  0  0
  1  5  1  0
  5  6  1  0
  5  7  2  0
  1  2  1  0
  1  3  1  0
  1  4  1  0
  8 12  1  0
 12 15  1  0
  8  9  1  0
  8 10  1  0
  8 11  1  0
 12 13  1  0
 12 14  1  0
 15 16  1  0
 15 17  1  0
 15 18  1  0
M  CHG  1   6  -1
M  END
>  <PDB_ID>  (934) 
pdb1tn3

>  <RESIDUE_NAME>  (934) 
GLU   LYS

>  <FRAG_NAME>  (934) 
ACET   PRPA

>  <FRAG_ATOM_NUM>  (934) 
fragi: 7  fragj: 11

>  <atom.prop.CHAIN_ID>  (934) 
A A A A A A A Z Z Z Z Z Z Z Z Z Z Z

>  <atom.prop.IS_HEAVY_ATOM>  (934) 
1 0 0 0 1 1 1 1 0 0 0 1 0 0 1 0 0 0

>  <DIFUSE_FUNC_ATOM>  (934) 
atom 6   atom 7   

>  <FINAL_SINGLE_POINT_ENERGY>  (934) 
0

>  <NONCOV_INTER_ENERGY_QM>  (934) 
0

>  <FF_Energy>  (934) 
39.71

>  <QM_Energy>  (934) 
4.34

>  <source>  (934) 
ACET_PRPA_09

>  <Index>  (934) 
22595

$$$$
ACET-pdb1tn3-A-GLU-120:PRPA-pdb1tn3-A-LYS-148
     RDKit          3D

 18 16  0  0  0  0  0  0  0  0999 V2000
    0.2428    1.4552    0.1152 C   0  0  0  0  0  0  0  0  0  0  0  0
    1.2135    1.6051    0.1815 H   0  0  0  0  0  0  0  0  0  0  0  0
   -0.2371    1.7895    0.9078 H   0  0  0  0  0  0  0  0  0  0  0  0
   -0.1220    2.0011   -0.7548 H   0  0  0  0  0  0  0  0  0  0  0  0
    0.0000    0.0000    0.0000 C   0  0  0  0  0  0  0  0  0  0  0  0
   -1.1243   -0.5252    0.0000 O   0  0  0  0  0  1  0  0  0  0  0  0
    1.1243   -0.6340    0.0000 O   0  0  0  0  0  0  0  0  0  0  0  0
    2.0679    1.7003    2.4624 C   0  0  0  0  0  0  0  0  0  0  0  0
    1.8483    1.4297    1.5471 H   0  0  0  0  0  0  0  0  0  0  0  0
    1.3730    2.2508    2.8772 H   0  0  0  0  0  0  0  0  0  0  0  0
    2.2481    0.8154    3.0727 H   0  0  0  0  0  0  0  0  0  0  0  0
    3.3810    2.4910    2.4431 C   0  0  0  0  0  0  0  0  0  0  0  0
    3.7356    2.5372    3.3960 H   0  0  0  0  0  0  0  0  0  0  0  0
    4.0614    1.9601    1.9036 H   0  0  0  0  0  0  0  0  0  0  0  0
    3.3312    3.9061    1.8849 C   0  0  0  0  0  0  0  0  0  0  0  0
    3.1261    3.8497    0.9018 H   0  0  0  0  0  0  0  0  0  0  0  0
    2.5799    4.3973    2.3391 H   0  0  0  0  0  0  0  0  0  0  0  0
    4.2741    4.4293    2.0437 H   0  0  0  0  0  0  0  0  0  0  0  0
  1  5  1  0
  5  6  1  0
  5  7  2  0
  1  2  1  0
  1  3  1  0
  1  4  1  0
  8 12  1  0
 12 15  1  0
  8  9  1  0
  8 10  1  0
  8 11  1  0
 12 13  1  0
 12 14  1  0
 15 16  1  0
 15 17  1  0
 15 18  1  0
M  CHG  1   6  -1
M  END
>  <PDB_ID>  (935) 
pdb1tn3

>  <RESIDUE_NAME>  (935) 
GLU   LYS

>  <FRAG_NAME>  (935) 
ACET   PRPA

>  <FRAG_ATOM_NUM>  (935) 
fragi: 7  fragj: 11

>  <atom.prop.CHAIN_ID>  (935) 
A A A A A A A Z Z Z Z Z Z Z Z Z Z Z

>  <atom.prop.IS_HEAVY_ATOM>  (935) 
1 0 0 0 1 1 1 1 0 0 0 1 0 0 1 0 0 0

>  <DIFUSE_FUNC_ATOM>  (935) 
atom 6   atom 7   

>  <FINAL_SINGLE_POINT_ENERGY>  (935) 
0

>  <NONCOV_INTER_ENERGY_QM>  (935) 
0

>  <FF_Energy>  (935) 
32.61

>  <QM_Energy>  (935) 
4.87

>  <source>  (935) 
ACET_PRPA_09

>  <Index>  (935) 
22598

$$$$
ACET-pdb2zad-A-GLU-152:PRPA-pdb2zad-A-LYS-148
     RDKit          3D

 18 16  0  0  0  0  0  0  0  0999 V2000
    0.0243    1.5197    0.0195 C   0  0  0  0  0  0  0  0  0  0  0  0
    0.2398    1.8242   -0.8903 H   0  0  0  0  0  0  0  0  0  0  0  0
    0.7058    1.7963    0.6733 H   0  0  0  0  0  0  0  0  0  0  0  0
   -0.9291    1.9610    0.3099 H   0  0  0  0  0  0  0  0  0  0  0  0
    0.0000    0.0000    0.0000 C   0  0  0  0  0  0  0  0  0  0  0  0
   -1.0829   -0.5947   -0.0000 O   0  0  0  0  0  1  0  0  0  0  0  0
    1.0829   -0.6104    0.0000 O   0  0  0  0  0  0  0  0  0  0  0  0
    2.7338   -1.1491    2.1562 C   0  0  0  0  0  0  0  0  0  0  0  0
    3.2281   -1.9021    1.7124 H   0  0  0  0  0  0  0  0  0  0  0  0
    1.8384   -1.0444    1.7162 H   0  0  0  0  0  0  0  0  0  0  0  0
    2.5842   -1.3976    3.2069 H   0  0  0  0  0  0  0  0  0  0  0  0
    3.5355    0.1507    1.9471 C   0  0  0  0  0  0  0  0  0  0  0  0
    3.0077    0.9104    2.3119 H   0  0  0  0  0  0  0  0  0  0  0  0
    4.4031    0.0691    2.4268 H   0  0  0  0  0  0  0  0  0  0  0  0
    3.8243    0.4272    0.4635 C   0  0  0  0  0  0  0  0  0  0  0  0
    4.1531   -0.4129    0.0415 H   0  0  0  0  0  0  0  0  0  0  0  0
    2.9805    0.7227    0.0245 H   0  0  0  0  0  0  0  0  0  0  0  0
    4.5798    1.2061    0.3606 H   0  0  0  0  0  0  0  0  0  0  0  0
  1  5  1  0
  5  6  1  0
  5  7  2  0
  1  2  1  0
  1  3  1  0
  1  4  1  0
  8 12  1  0
 12 15  1  0
  8  9  1  0
  8 10  1  0
  8 11  1  0
 12 13  1  0
 12 14  1  0
 15 16  1  0
 15 17  1  0
 15 18  1  0
M  CHG  1   6  -1
M  END
>  <PDB_ID>  (936) 
pdb2zad

>  <RESIDUE_NAME>  (936) 
GLU   LYS

>  <FRAG_NAME>  (936) 
ACET   PRPA

>  <FRAG_ATOM_NUM>  (936) 
fragi: 7  fragj: 11

>  <atom.prop.CHAIN_ID>  (936) 
A A A A A A A Z Z Z Z Z Z Z Z Z Z Z

>  <atom.prop.IS_HEAVY_ATOM>  (936) 
1 0 0 0 1 1 1 1 0 0 0 1 0 0 1 0 0 0

>  <DIFUSE_FUNC_ATOM>  (936) 
atom 6   atom 7   

>  <FINAL_SINGLE_POINT_ENERGY>  (936) 
0

>  <NONCOV_INTER_ENERGY_QM>  (936) 
0

>  <FF_Energy>  (936) 
15.14

>  <QM_Energy>  (936) 
-0.77

>  <source>  (936) 
ACET_PRPA_09

>  <Index>  (936) 
24055

$$$$
ACET-pdb1toh-A-GLU-229:PRPA-pdb1toh-A-ILE-315
     RDKit          3D

 18 16  0  0  0  0  0  0  0  0999 V2000
    0.0138    1.5206    0.0234 C   0  0  0  0  0  0  0  0  0  0  0  0
    0.7573    1.8247   -0.5459 H   0  0  0  0  0  0  0  0  0  0  0  0
    0.1271    1.8072    0.9590 H   0  0  0  0  0  0  0  0  0  0  0  0
   -0.8998    1.9792   -0.3548 H   0  0  0  0  0  0  0  0  0  0  0  0
    0.0000    0.0000    0.0000 C   0  0  0  0  0  0  0  0  0  0  0  0
   -1.0941   -0.6315    0.0000 O   0  0  0  0  0  1  0  0  0  0  0  0
    1.0941   -0.5806    0.0000 O   0  0  0  0  0  0  0  0  0  0  0  0
    3.4005    2.2914   -4.3685 C   0  0  0  0  0  0  0  0  0  0  0  0
    3.4274    2.5986   -5.3275 H   0  0  0  0  0  0  0  0  0  0  0  0
    3.5052    1.2066   -4.3868 H   0  0  0  0  0  0  0  0  0  0  0  0
    4.2412    2.7747   -3.8708 H   0  0  0  0  0  0  0  0  0  0  0  0
    2.0426    2.6717   -3.6914 C   0  0  0  0  0  0  0  0  0  0  0  0
    1.3224    2.1888   -4.1823 H   0  0  0  0  0  0  0  0  0  0  0  0
    1.8475    3.7420   -3.7578 H   0  0  0  0  0  0  0  0  0  0  0  0
    2.0707    2.3518   -2.2580 C   0  0  0  0  0  0  0  0  0  0  0  0
    1.1907    2.5773   -1.8217 H   0  0  0  0  0  0  0  0  0  0  0  0
    2.2477    1.3701   -2.1113 H   0  0  0  0  0  0  0  0  0  0  0  0
    2.7943    2.8721   -1.7865 H   0  0  0  0  0  0  0  0  0  0  0  0
  1  5  1  0
  5  6  1  0
  5  7  2  0
  1  2  1  0
  1  3  1  0
  1  4  1  0
  8 12  1  0
 12 15  1  0
  8  9  1  0
  8 10  1  0
  8 11  1  0
 12 13  1  0
 12 14  1  0
 15 16  1  0
 15 17  1  0
 15 18  1  0
M  CHG  1   6  -1
M  END
>  <PDB_ID>  (937) 
pdb1toh

>  <RESIDUE_NAME>  (937) 
GLU   ILE

>  <FRAG_NAME>  (937) 
ACET   PRPA

>  <FRAG_ATOM_NUM>  (937) 
fragi: 7  fragj: 11

>  <atom.prop.CHAIN_ID>  (937) 
A A A A A A A Z Z Z Z Z Z Z Z Z Z Z

>  <atom.prop.IS_HEAVY_ATOM>  (937) 
1 0 0 0 1 1 1 1 0 0 0 1 0 0 1 0 0 0

>  <DIFUSE_FUNC_ATOM>  (937) 
atom 6   atom 7   

>  <FINAL_SINGLE_POINT_ENERGY>  (937) 
0

>  <NONCOV_INTER_ENERGY_QM>  (937) 
0

>  <FF_Energy>  (937) 
23.9

>  <QM_Energy>  (937) 
4.15

>  <source>  (937) 
ACET_PRPA_09

>  <Index>  (937) 
24807

$$$$
ACET-pdb2z3t-B-ASP-102:PRPA-pdb2z3t-B-ARG-67
     RDKit          3D

 18 16  0  0  0  0  0  0  0  0999 V2000
   -0.0101    1.5083    0.0211 C   0  0  0  0  0  0  0  0  0  0  0  0
    0.8741    1.8418   -0.2884 H   0  0  0  0  0  0  0  0  0  0  0  0
   -0.1928    1.8174    0.9477 H   0  0  0  0  0  0  0  0  0  0  0  0
   -0.7751    1.9300   -0.6308 H   0  0  0  0  0  0  0  0  0  0  0  0
    0.0000    0.0000    0.0000 C   0  0  0  0  0  0  0  0  0  0  0  0
   -1.0981   -0.5977   -0.0000 O   0  0  0  0  0  1  0  0  0  0  0  0
    1.0981   -0.5849   -0.0000 O   0  0  0  0  0  0  0  0  0  0  0  0
   -1.3364   -3.8216   -0.9557 C   0  0  0  0  0  0  0  0  0  0  0  0
   -1.9014   -4.6902   -0.9257 H   0  0  0  0  0  0  0  0  0  0  0  0
   -1.4852   -3.2888   -0.0165 H   0  0  0  0  0  0  0  0  0  0  0  0
   -0.3162   -4.0916   -1.2284 H   0  0  0  0  0  0  0  0  0  0  0  0
   -2.0471   -3.1930   -2.1823 C   0  0  0  0  0  0  0  0  0  0  0  0
   -1.4684   -3.4052   -2.9985 H   0  0  0  0  0  0  0  0  0  0  0  0
   -2.9192   -3.7097   -2.3141 H   0  0  0  0  0  0  0  0  0  0  0  0
   -2.3636   -1.7258   -2.1996 C   0  0  0  0  0  0  0  0  0  0  0  0
   -1.8857   -1.2617   -1.4629 H   0  0  0  0  0  0  0  0  0  0  0  0
   -2.1183   -1.3314   -3.0777 H   0  0  0  0  0  0  0  0  0  0  0  0
   -3.4317   -1.5656   -2.0529 H   0  0  0  0  0  0  0  0  0  0  0  0
  1  5  1  0
  5  6  1  0
  5  7  2  0
  1  2  1  0
  1  3  1  0
  1  4  1  0
  8 12  1  0
 12 15  1  0
  8  9  1  0
  8 10  1  0
  8 11  1  0
 12 13  1  0
 12 14  1  0
 15 16  1  0
 15 17  1  0
 15 18  1  0
M  CHG  1   6  -1
M  END
>  <PDB_ID>  (938) 
pdb2z3t

>  <RESIDUE_NAME>  (938) 
ASP   ARG

>  <FRAG_NAME>  (938) 
ACET   PRPA

>  <FRAG_ATOM_NUM>  (938) 
fragi: 7  fragj: 11

>  <atom.prop.CHAIN_ID>  (938) 
A A A A A A A Z Z Z Z Z Z Z Z Z Z Z

>  <atom.prop.IS_HEAVY_ATOM>  (938) 
1 0 0 0 1 1 1 1 0 0 0 1 0 0 1 0 0 0

>  <DIFUSE_FUNC_ATOM>  (938) 
atom 6   atom 7   

>  <FINAL_SINGLE_POINT_ENERGY>  (938) 
0

>  <NONCOV_INTER_ENERGY_QM>  (938) 
0

>  <FF_Energy>  (938) 
30.97

>  <QM_Energy>  (938) 
0.04

>  <source>  (938) 
ACET_PRPA_09

>  <Index>  (938) 
25323

$$$$
ACET-pdb2z3t-B-ASP-102:PRPA-pdb2z3t-B-ARG-67
     RDKit          3D

 18 16  0  0  0  0  0  0  0  0999 V2000
   -0.0101    1.5083    0.0211 C   0  0  0  0  0  0  0  0  0  0  0  0
    0.8741    1.8418   -0.2884 H   0  0  0  0  0  0  0  0  0  0  0  0
   -0.1928    1.8174    0.9477 H   0  0  0  0  0  0  0  0  0  0  0  0
   -0.7751    1.9300   -0.6308 H   0  0  0  0  0  0  0  0  0  0  0  0
    0.0000    0.0000    0.0000 C   0  0  0  0  0  0  0  0  0  0  0  0
   -1.0981   -0.5977   -0.0000 O   0  0  0  0  0  1  0  0  0  0  0  0
    1.0981   -0.5849   -0.0000 O   0  0  0  0  0  0  0  0  0  0  0  0
   -2.0471   -3.1930   -2.1823 C   0  0  0  0  0  0  0  0  0  0  0  0
   -1.4684   -3.4052   -2.9985 H   0  0  0  0  0  0  0  0  0  0  0  0
   -2.9192   -3.7097   -2.3141 H   0  0  0  0  0  0  0  0  0  0  0  0
   -1.5476   -3.6349   -1.3202 H   0  0  0  0  0  0  0  0  0  0  0  0
   -2.3636   -1.7258   -2.1996 C   0  0  0  0  0  0  0  0  0  0  0  0
   -1.8857   -1.2617   -1.4629 H   0  0  0  0  0  0  0  0  0  0  0  0
   -2.1183   -1.3314   -3.0777 H   0  0  0  0  0  0  0  0  0  0  0  0
   -3.8643   -1.5008   -1.9934 C   0  0  0  0  0  0  0  0  0  0  0  0
   -4.1428   -2.0270   -1.1745 H   0  0  0  0  0  0  0  0  0  0  0  0
   -3.9997   -0.5184   -1.7847 H   0  0  0  0  0  0  0  0  0  0  0  0
   -4.5125   -1.7761   -2.8255 H   0  0  0  0  0  0  0  0  0  0  0  0
  1  5  1  0
  5  6  1  0
  5  7  2  0
  1  2  1  0
  1  3  1  0
  1  4  1  0
  8 12  1  0
 12 15  1  0
  8  9  1  0
  8 10  1  0
  8 11  1  0
 12 13  1  0
 12 14  1  0
 15 16  1  0
 15 17  1  0
 15 18  1  0
M  CHG  1   6  -1
M  END
>  <PDB_ID>  (939) 
pdb2z3t

>  <RESIDUE_NAME>  (939) 
ASP   ARG

>  <FRAG_NAME>  (939) 
ACET   PRPA

>  <FRAG_ATOM_NUM>  (939) 
fragi: 7  fragj: 11

>  <atom.prop.CHAIN_ID>  (939) 
A A A A A A A Z Z Z Z Z Z Z Z Z Z Z

>  <atom.prop.IS_HEAVY_ATOM>  (939) 
1 0 0 0 1 1 1 1 0 0 0 1 0 0 1 0 0 0

>  <DIFUSE_FUNC_ATOM>  (939) 
atom 6   atom 7   

>  <FINAL_SINGLE_POINT_ENERGY>  (939) 
0

>  <NONCOV_INTER_ENERGY_QM>  (939) 
0

>  <FF_Energy>  (939) 
15.94

>  <QM_Energy>  (939) 
-0.83

>  <source>  (939) 
ACET_PRPA_09

>  <Index>  (939) 
25324

$$$$
ACET-pdb1txj-A-ASP-16:PRPA-pdb1txj-A-LYS-2
     RDKit          3D

 18 16  0  0  0  0  0  0  0  0999 V2000
   -0.0213    1.5170    0.0208 C   0  0  0  0  0  0  0  0  0  0  0  0
    0.6698    1.8531   -0.6029 H   0  0  0  0  0  0  0  0  0  0  0  0
    0.1522    1.8249    0.9446 H   0  0  0  0  0  0  0  0  0  0  0  0
   -0.9874    1.9105   -0.2952 H   0  0  0  0  0  0  0  0  0  0  0  0
    0.0000    0.0000    0.0000 C   0  0  0  0  0  0  0  0  0  0  0  0
   -1.1045   -0.6024    0.0000 O   0  0  0  0  0  1  0  0  0  0  0  0
    1.1045   -0.5828   -0.0000 O   0  0  0  0  0  0  0  0  0  0  0  0
    2.2521   -1.9303   -3.3492 C   0  0  0  0  0  0  0  0  0  0  0  0
    1.3467   -1.8422   -3.7539 H   0  0  0  0  0  0  0  0  0  0  0  0
    2.9306   -2.1049   -4.0560 H   0  0  0  0  0  0  0  0  0  0  0  0
    2.5043   -1.0065   -2.8284 H   0  0  0  0  0  0  0  0  0  0  0  0
    2.2423   -3.1044   -2.3741 C   0  0  0  0  0  0  0  0  0  0  0  0
    2.0785   -3.9410   -2.8809 H   0  0  0  0  0  0  0  0  0  0  0  0
    3.1154   -3.1404   -1.9052 H   0  0  0  0  0  0  0  0  0  0  0  0
    1.1383   -2.9400   -1.3355 C   0  0  0  0  0  0  0  0  0  0  0  0
    1.0994   -1.9702   -1.0546 H   0  0  0  0  0  0  0  0  0  0  0  0
    0.2529   -3.1730   -1.7633 H   0  0  0  0  0  0  0  0  0  0  0  0
    1.2770   -3.5594   -0.4494 H   0  0  0  0  0  0  0  0  0  0  0  0
  1  5  1  0
  5  6  1  0
  5  7  2  0
  1  2  1  0
  1  3  1  0
  1  4  1  0
  8 12  1  0
 12 15  1  0
  8  9  1  0
  8 10  1  0
  8 11  1  0
 12 13  1  0
 12 14  1  0
 15 16  1  0
 15 17  1  0
 15 18  1  0
M  CHG  1   6  -1
M  END
>  <PDB_ID>  (940) 
pdb1txj

>  <RESIDUE_NAME>  (940) 
ASP   LYS

>  <FRAG_NAME>  (940) 
ACET   PRPA

>  <FRAG_ATOM_NUM>  (940) 
fragi: 7  fragj: 11

>  <atom.prop.CHAIN_ID>  (940) 
A A A A A A A Z Z Z Z Z Z Z Z Z Z Z

>  <atom.prop.IS_HEAVY_ATOM>  (940) 
1 0 0 0 1 1 1 1 0 0 0 1 0 0 1 0 0 0

>  <DIFUSE_FUNC_ATOM>  (940) 
atom 6   atom 7   

>  <FINAL_SINGLE_POINT_ENERGY>  (940) 
0

>  <NONCOV_INTER_ENERGY_QM>  (940) 
0

>  <FF_Energy>  (940) 
42.22

>  <QM_Energy>  (940) 
3.0

>  <source>  (940) 
ACET_PRPA_09

>  <Index>  (940) 
25947

$$$$
ACET-pdb1t5r-D-GLU-227:PRPA-pdb1t5r-D-LYS-83
     RDKit          3D

 18 16  0  0  0  0  0  0  0  0999 V2000
   -0.0014    1.5163    0.0106 C   0  0  0  0  0  0  0  0  0  0  0  0
   -0.3098    1.8042    0.8989 H   0  0  0  0  0  0  0  0  0  0  0  0
   -0.6044    1.8149   -0.7067 H   0  0  0  0  0  0  0  0  0  0  0  0
    0.9886    1.9361   -0.1675 H   0  0  0  0  0  0  0  0  0  0  0  0
    0.0000    0.0000    0.0000 C   0  0  0  0  0  0  0  0  0  0  0  0
   -1.1029   -0.5946    0.0000 O   0  0  0  0  0  1  0  0  0  0  0  0
    1.1029   -0.5959   -0.0000 O   0  0  0  0  0  0  0  0  0  0  0  0
    1.8710    1.1199   -3.8418 C   0  0  0  0  0  0  0  0  0  0  0  0
    2.1032    1.5871   -2.9863 H   0  0  0  0  0  0  0  0  0  0  0  0
    0.8838    1.1901   -3.9977 H   0  0  0  0  0  0  0  0  0  0  0  0
    2.3948    1.6073   -4.6641 H   0  0  0  0  0  0  0  0  0  0  0  0
    2.2494   -0.3435   -3.7224 C   0  0  0  0  0  0  0  0  0  0  0  0
    2.0170   -0.8063   -4.5793 H   0  0  0  0  0  0  0  0  0  0  0  0
    3.2360   -0.4097   -3.5671 H   0  0  0  0  0  0  0  0  0  0  0  0
    1.5342   -1.0401   -2.5870 C   0  0  0  0  0  0  0  0  0  0  0  0
    1.7652   -0.5866   -1.7258 H   0  0  0  0  0  0  0  0  0  0  0  0
    0.5465   -0.9842   -2.7371 H   0  0  0  0  0  0  0  0  0  0  0  0
    1.8289   -2.0881   -2.5304 H   0  0  0  0  0  0  0  0  0  0  0  0
  1  5  1  0
  5  6  1  0
  5  7  2  0
  1  2  1  0
  1  3  1  0
  1  4  1  0
  8 12  1  0
 12 15  1  0
  8  9  1  0
  8 10  1  0
  8 11  1  0
 12 13  1  0
 12 14  1  0
 15 16  1  0
 15 17  1  0
 15 18  1  0
M  CHG  1   6  -1
M  END
>  <PDB_ID>  (941) 
pdb1t5r

>  <RESIDUE_NAME>  (941) 
GLU   LYS

>  <FRAG_NAME>  (941) 
ACET   PRPA

>  <FRAG_ATOM_NUM>  (941) 
fragi: 7  fragj: 11

>  <atom.prop.CHAIN_ID>  (941) 
A A A A A A A Z Z Z Z Z Z Z Z Z Z Z

>  <atom.prop.IS_HEAVY_ATOM>  (941) 
1 0 0 0 1 1 1 1 0 0 0 1 0 0 1 0 0 0

>  <DIFUSE_FUNC_ATOM>  (941) 
atom 6   atom 7   

>  <FINAL_SINGLE_POINT_ENERGY>  (941) 
0

>  <NONCOV_INTER_ENERGY_QM>  (941) 
0

>  <FF_Energy>  (941) 
22.78

>  <QM_Energy>  (941) 
2.6

>  <source>  (941) 
ACET_PRPA_09

>  <Index>  (941) 
26619

$$$$
ACET-pdb1tpl-A-ASP-147:PRPA-pdb1tpl-A-LEU-150
     RDKit          3D

 18 16  0  0  0  0  0  0  0  0999 V2000
    0.0364    1.5074   -0.0349 C   0  0  0  0  0  0  0  0  0  0  0  0
   -0.7007    1.8376   -0.6704 H   0  0  0  0  0  0  0  0  0  0  0  0
    0.9186    1.8030   -0.4682 H   0  0  0  0  0  0  0  0  0  0  0  0
   -0.0658    2.0886    0.8815 H   0  0  0  0  0  0  0  0  0  0  0  0
    0.0000    0.0000    0.0000 C   0  0  0  0  0  0  0  0  0  0  0  0
   -1.0954   -0.6170    0.0000 O   0  0  0  0  0  1  0  0  0  0  0  0
    1.0954   -0.6330   -0.0000 O   0  0  0  0  0  0  0  0  0  0  0  0
   -1.0277   -3.5037   -0.5768 C   0  0  0  0  0  0  0  0  0  0  0  0
   -2.0657   -3.6741   -0.5454 H   0  0  0  0  0  0  0  0  0  0  0  0
   -0.9651   -2.4941   -0.2936 H   0  0  0  0  0  0  0  0  0  0  0  0
   -0.6043   -4.0748    0.2494 H   0  0  0  0  0  0  0  0  0  0  0  0
   -0.6333   -3.5623   -2.0291 C   0  0  0  0  0  0  0  0  0  0  0  0
   -1.4292   -3.2977   -2.6060 H   0  0  0  0  0  0  0  0  0  0  0  0
   -0.4085   -4.5860   -2.3283 H   0  0  0  0  0  0  0  0  0  0  0  0
    0.5542   -2.6647   -2.4051 C   0  0  0  0  0  0  0  0  0  0  0  0
    1.3537   -2.9385   -1.8738 H   0  0  0  0  0  0  0  0  0  0  0  0
    0.7451   -2.7655   -3.3797 H   0  0  0  0  0  0  0  0  0  0  0  0
    0.3237   -1.7149   -2.2031 H   0  0  0  0  0  0  0  0  0  0  0  0
  1  5  1  0
  5  6  1  0
  5  7  2  0
  1  2  1  0
  1  3  1  0
  1  4  1  0
  8 12  1  0
 12 15  1  0
  8  9  1  0
  8 10  1  0
  8 11  1  0
 12 13  1  0
 12 14  1  0
 15 16  1  0
 15 17  1  0
 15 18  1  0
M  CHG  1   6  -1
M  END
>  <PDB_ID>  (942) 
pdb1tpl

>  <RESIDUE_NAME>  (942) 
ASP   LEU

>  <FRAG_NAME>  (942) 
ACET   PRPA

>  <FRAG_ATOM_NUM>  (942) 
fragi: 7  fragj: 11

>  <atom.prop.CHAIN_ID>  (942) 
A A A A A A A Z Z Z Z Z Z Z Z Z Z Z

>  <atom.prop.IS_HEAVY_ATOM>  (942) 
1 0 0 0 1 1 1 1 0 0 0 1 0 0 1 0 0 0

>  <DIFUSE_FUNC_ATOM>  (942) 
atom 6   atom 7   

>  <FINAL_SINGLE_POINT_ENERGY>  (942) 
0

>  <NONCOV_INTER_ENERGY_QM>  (942) 
0

>  <FF_Energy>  (942) 
13.32

>  <QM_Energy>  (942) 
-2.74

>  <source>  (942) 
ACET_PRPA_09

>  <Index>  (942) 
26763

$$$$
ACET-pdb1tpl-A-ASP-147:PRPA-pdb1tpl-A-LEU-150
     RDKit          3D

 18 16  0  0  0  0  0  0  0  0999 V2000
    0.0364    1.5074   -0.0349 C   0  0  0  0  0  0  0  0  0  0  0  0
   -0.7007    1.8376   -0.6704 H   0  0  0  0  0  0  0  0  0  0  0  0
    0.9186    1.8030   -0.4682 H   0  0  0  0  0  0  0  0  0  0  0  0
   -0.0658    2.0886    0.8815 H   0  0  0  0  0  0  0  0  0  0  0  0
    0.0000    0.0000    0.0000 C   0  0  0  0  0  0  0  0  0  0  0  0
   -1.0954   -0.6170    0.0000 O   0  0  0  0  0  1  0  0  0  0  0  0
    1.0954   -0.6330   -0.0000 O   0  0  0  0  0  0  0  0  0  0  0  0
   -0.4345   -4.3037    0.5807 C   0  0  0  0  0  0  0  0  0  0  0  0
   -0.7055   -5.2534    0.3730 H   0  0  0  0  0  0  0  0  0  0  0  0
   -0.9266   -3.9928    1.5023 H   0  0  0  0  0  0  0  0  0  0  0  0
    0.6512   -4.2735    0.6726 H   0  0  0  0  0  0  0  0  0  0  0  0
   -1.0277   -3.5037   -0.5768 C   0  0  0  0  0  0  0  0  0  0  0  0
   -2.0657   -3.6741   -0.5454 H   0  0  0  0  0  0  0  0  0  0  0  0
   -0.9651   -2.4941   -0.2936 H   0  0  0  0  0  0  0  0  0  0  0  0
   -0.6333   -3.5623   -2.0291 C   0  0  0  0  0  0  0  0  0  0  0  0
   -1.4292   -3.2977   -2.6060 H   0  0  0  0  0  0  0  0  0  0  0  0
    0.2098   -2.9251   -2.2960 H   0  0  0  0  0  0  0  0  0  0  0  0
   -0.4085   -4.5860   -2.3283 H   0  0  0  0  0  0  0  0  0  0  0  0
  1  5  1  0
  5  6  1  0
  5  7  2  0
  1  2  1  0
  1  3  1  0
  1  4  1  0
  8 12  1  0
 12 15  1  0
  8  9  1  0
  8 10  1  0
  8 11  1  0
 12 13  1  0
 12 14  1  0
 15 16  1  0
 15 17  1  0
 15 18  1  0
M  CHG  1   6  -1
M  END
>  <PDB_ID>  (943) 
pdb1tpl

>  <RESIDUE_NAME>  (943) 
ASP   LEU

>  <FRAG_NAME>  (943) 
ACET   PRPA

>  <FRAG_ATOM_NUM>  (943) 
fragi: 7  fragj: 11

>  <atom.prop.CHAIN_ID>  (943) 
A A A A A A A Z Z Z Z Z Z Z Z Z Z Z

>  <atom.prop.IS_HEAVY_ATOM>  (943) 
1 0 0 0 1 1 1 1 0 0 0 1 0 0 1 0 0 0

>  <DIFUSE_FUNC_ATOM>  (943) 
atom 6   atom 7   

>  <FINAL_SINGLE_POINT_ENERGY>  (943) 
0

>  <NONCOV_INTER_ENERGY_QM>  (943) 
0

>  <FF_Energy>  (943) 
15.26

>  <QM_Energy>  (943) 
-2.45

>  <source>  (943) 
ACET_PRPA_09

>  <Index>  (943) 
26769

$$$$
ACET-pdb2yxz-D-GLU-94:PRPA-pdb2yxz-D-ARG-126
     RDKit          3D

 18 16  0  0  0  0  0  0  0  0999 V2000
    0.1711    1.4828    0.0127 C   0  0  0  0  0  0  0  0  0  0  0  0
    0.6916    1.7395   -0.8037 H   0  0  0  0  0  0  0  0  0  0  0  0
    0.7033    1.7225    0.8286 H   0  0  0  0  0  0  0  0  0  0  0  0
   -0.7391    2.0823    0.0245 H   0  0  0  0  0  0  0  0  0  0  0  0
    0.0000    0.0000    0.0000 C   0  0  0  0  0  0  0  0  0  0  0  0
   -1.0897   -0.5601   -0.0000 O   0  0  0  0  0  1  0  0  0  0  0  0
    1.0897   -0.6072   -0.0000 O   0  0  0  0  0  0  0  0  0  0  0  0
    4.7294    1.6018    0.4447 C   0  0  0  0  0  0  0  0  0  0  0  0
    5.4665    0.9627    0.6839 H   0  0  0  0  0  0  0  0  0  0  0  0
    4.0241    1.5623    1.1588 H   0  0  0  0  0  0  0  0  0  0  0  0
    5.1432    2.6100    0.4286 H   0  0  0  0  0  0  0  0  0  0  0  0
    4.0992    1.1181   -0.8548 C   0  0  0  0  0  0  0  0  0  0  0  0
    3.3518    1.7383   -1.1023 H   0  0  0  0  0  0  0  0  0  0  0  0
    4.7937    1.1388   -1.5781 H   0  0  0  0  0  0  0  0  0  0  0  0
    3.5638   -0.2630   -0.7382 C   0  0  0  0  0  0  0  0  0  0  0  0
    4.3134   -0.8812   -0.4914 H   0  0  0  0  0  0  0  0  0  0  0  0
    2.8705   -0.2802   -0.0148 H   0  0  0  0  0  0  0  0  0  0  0  0
    3.1128   -0.6105   -1.6676 H   0  0  0  0  0  0  0  0  0  0  0  0
  1  5  1  0
  5  6  1  0
  5  7  2  0
  1  2  1  0
  1  3  1  0
  1  4  1  0
  8 12  1  0
 12 15  1  0
  8  9  1  0
  8 10  1  0
  8 11  1  0
 12 13  1  0
 12 14  1  0
 15 16  1  0
 15 17  1  0
 15 18  1  0
M  CHG  1   6  -1
M  END
>  <PDB_ID>  (944) 
pdb2yxz

>  <RESIDUE_NAME>  (944) 
GLU   ARG

>  <FRAG_NAME>  (944) 
ACET   PRPA

>  <FRAG_ATOM_NUM>  (944) 
fragi: 7  fragj: 11

>  <atom.prop.CHAIN_ID>  (944) 
A A A A A A A Z Z Z Z Z Z Z Z Z Z Z

>  <atom.prop.IS_HEAVY_ATOM>  (944) 
1 0 0 0 1 1 1 1 0 0 0 1 0 0 1 0 0 0

>  <DIFUSE_FUNC_ATOM>  (944) 
atom 6   atom 7   

>  <FINAL_SINGLE_POINT_ENERGY>  (944) 
0

>  <NONCOV_INTER_ENERGY_QM>  (944) 
0

>  <FF_Energy>  (944) 
28.87

>  <QM_Energy>  (944) 
3.64

>  <source>  (944) 
ACET_PRPA_09

>  <Index>  (944) 
27043

$$$$
ACET-pdb1tw2-A-ASP-14:PRPA-pdb1tw2-A-ARG-17
     RDKit          3D

 18 16  0  0  0  0  0  0  0  0999 V2000
   -0.0383    1.5448    0.0061 C   0  0  0  0  0  0  0  0  0  0  0  0
    0.3526    1.8709   -0.8450 H   0  0  0  0  0  0  0  0  0  0  0  0
    0.4856    1.8678    0.7825 H   0  0  0  0  0  0  0  0  0  0  0  0
   -1.0448    1.9548    0.0889 H   0  0  0  0  0  0  0  0  0  0  0  0
    0.0000    0.0000    0.0000 C   0  0  0  0  0  0  0  0  0  0  0  0
   -1.0680   -0.6443   -0.0000 O   0  0  0  0  0  1  0  0  0  0  0  0
    1.0680   -0.6546    0.0000 O   0  0  0  0  0  0  0  0  0  0  0  0
   -0.6058   -3.7569   -2.5327 C   0  0  0  0  0  0  0  0  0  0  0  0
    0.0729   -4.4514   -2.7703 H   0  0  0  0  0  0  0  0  0  0  0  0
   -0.2693   -2.7877   -2.9007 H   0  0  0  0  0  0  0  0  0  0  0  0
   -1.5493   -4.0165   -3.0128 H   0  0  0  0  0  0  0  0  0  0  0  0
   -0.7167   -3.7415   -1.0078 C   0  0  0  0  0  0  0  0  0  0  0  0
   -1.3804   -3.0444   -0.7504 H   0  0  0  0  0  0  0  0  0  0  0  0
   -1.0313   -4.6381   -0.7092 H   0  0  0  0  0  0  0  0  0  0  0  0
    0.5885   -3.4376   -0.2940 C   0  0  0  0  0  0  0  0  0  0  0  0
    1.3068   -4.0294   -0.6471 H   0  0  0  0  0  0  0  0  0  0  0  0
    0.8310   -2.4826   -0.4371 H   0  0  0  0  0  0  0  0  0  0  0  0
    0.5023   -3.6091    0.7790 H   0  0  0  0  0  0  0  0  0  0  0  0
  1  5  1  0
  5  6  1  0
  5  7  2  0
  1  2  1  0
  1  3  1  0
  1  4  1  0
  8 12  1  0
 12 15  1  0
  8  9  1  0
  8 10  1  0
  8 11  1  0
 12 13  1  0
 12 14  1  0
 15 16  1  0
 15 17  1  0
 15 18  1  0
M  CHG  1   6  -1
M  END
>  <PDB_ID>  (945) 
pdb1tw2

>  <RESIDUE_NAME>  (945) 
ASP   ARG

>  <FRAG_NAME>  (945) 
ACET   PRPA

>  <FRAG_ATOM_NUM>  (945) 
fragi: 7  fragj: 11

>  <atom.prop.CHAIN_ID>  (945) 
A A A A A A A Z Z Z Z Z Z Z Z Z Z Z

>  <atom.prop.IS_HEAVY_ATOM>  (945) 
1 0 0 0 1 1 1 1 0 0 0 1 0 0 1 0 0 0

>  <DIFUSE_FUNC_ATOM>  (945) 
atom 6   atom 7   

>  <FINAL_SINGLE_POINT_ENERGY>  (945) 
0

>  <NONCOV_INTER_ENERGY_QM>  (945) 
0

>  <FF_Energy>  (945) 
15.27

>  <QM_Energy>  (945) 
-1.97

>  <source>  (945) 
ACET_PRPA_09

>  <Index>  (945) 
27446

$$$$
ACET-pdb1tw2-A-ASP-14:PRPA-pdb1tw2-A-ARG-17
     RDKit          3D

 18 16  0  0  0  0  0  0  0  0999 V2000
   -0.0383    1.5448    0.0061 C   0  0  0  0  0  0  0  0  0  0  0  0
    0.3526    1.8709   -0.8450 H   0  0  0  0  0  0  0  0  0  0  0  0
    0.4856    1.8678    0.7825 H   0  0  0  0  0  0  0  0  0  0  0  0
   -1.0448    1.9548    0.0889 H   0  0  0  0  0  0  0  0  0  0  0  0
    0.0000    0.0000    0.0000 C   0  0  0  0  0  0  0  0  0  0  0  0
   -1.0680   -0.6443   -0.0000 O   0  0  0  0  0  1  0  0  0  0  0  0
    1.0680   -0.6546    0.0000 O   0  0  0  0  0  0  0  0  0  0  0  0
   -0.7167   -3.7415   -1.0078 C   0  0  0  0  0  0  0  0  0  0  0  0
   -1.3804   -3.0444   -0.7504 H   0  0  0  0  0  0  0  0  0  0  0  0
   -1.0313   -4.6381   -0.7092 H   0  0  0  0  0  0  0  0  0  0  0  0
   -0.6377   -3.7525   -2.0948 H   0  0  0  0  0  0  0  0  0  0  0  0
    0.5885   -3.4376   -0.2940 C   0  0  0  0  0  0  0  0  0  0  0  0
    1.3068   -4.0294   -0.6471 H   0  0  0  0  0  0  0  0  0  0  0  0
    0.8310   -2.4826   -0.4371 H   0  0  0  0  0  0  0  0  0  0  0  0
    0.4683   -3.6765    1.2014 C   0  0  0  0  0  0  0  0  0  0  0  0
   -0.2514   -3.0842    1.5531 H   0  0  0  0  0  0  0  0  0  0  0  0
    0.2242   -4.6324    1.3428 H   0  0  0  0  0  0  0  0  0  0  0  0
    1.3997   -3.4617    1.7252 H   0  0  0  0  0  0  0  0  0  0  0  0
  1  5  1  0
  5  6  1  0
  5  7  2  0
  1  2  1  0
  1  3  1  0
  1  4  1  0
  8 12  1  0
 12 15  1  0
  8  9  1  0
  8 10  1  0
  8 11  1  0
 12 13  1  0
 12 14  1  0
 15 16  1  0
 15 17  1  0
 15 18  1  0
M  CHG  1   6  -1
M  END
>  <PDB_ID>  (946) 
pdb1tw2

>  <RESIDUE_NAME>  (946) 
ASP   ARG

>  <FRAG_NAME>  (946) 
ACET   PRPA

>  <FRAG_ATOM_NUM>  (946) 
fragi: 7  fragj: 11

>  <atom.prop.CHAIN_ID>  (946) 
A A A A A A A Z Z Z Z Z Z Z Z Z Z Z

>  <atom.prop.IS_HEAVY_ATOM>  (946) 
1 0 0 0 1 1 1 1 0 0 0 1 0 0 1 0 0 0

>  <DIFUSE_FUNC_ATOM>  (946) 
atom 6   atom 7   

>  <FINAL_SINGLE_POINT_ENERGY>  (946) 
0

>  <NONCOV_INTER_ENERGY_QM>  (946) 
0

>  <FF_Energy>  (946) 
17.94

>  <QM_Energy>  (946) 
-3.37

>  <source>  (946) 
ACET_PRPA_09

>  <Index>  (946) 
27449

$$$$
ACET-pdb2z3b-D-ASP-123:PRPA-pdb2z3b-D-ARG-140
     RDKit          3D

 18 16  0  0  0  0  0  0  0  0999 V2000
    0.0420    1.5592    0.0220 C   0  0  0  0  0  0  0  0  0  0  0  0
    0.4896    1.8546   -0.8157 H   0  0  0  0  0  0  0  0  0  0  0  0
    0.5784    1.8299    0.8142 H   0  0  0  0  0  0  0  0  0  0  0  0
   -0.9435    2.0209    0.0826 H   0  0  0  0  0  0  0  0  0  0  0  0
    0.0000    0.0000    0.0000 C   0  0  0  0  0  0  0  0  0  0  0  0
   -1.0972   -0.6805    0.0000 O   0  0  0  0  0  1  0  0  0  0  0  0
    1.0972   -0.6430   -0.0000 O   0  0  0  0  0  0  0  0  0  0  0  0
    3.7750   -2.8142   -3.1865 C   0  0  0  0  0  0  0  0  0  0  0  0
    4.1991   -3.7163   -3.3234 H   0  0  0  0  0  0  0  0  0  0  0  0
    4.4427   -2.2153   -2.7305 H   0  0  0  0  0  0  0  0  0  0  0  0
    3.5605   -2.3921   -4.1683 H   0  0  0  0  0  0  0  0  0  0  0  0
    2.5871   -3.0007   -2.2238 C   0  0  0  0  0  0  0  0  0  0  0  0
    1.8517   -2.3933   -2.4858 H   0  0  0  0  0  0  0  0  0  0  0  0
    2.2929   -3.9457   -2.2422 H   0  0  0  0  0  0  0  0  0  0  0  0
    2.9903   -2.6595   -0.7701 C   0  0  0  0  0  0  0  0  0  0  0  0
    3.9847   -2.4198   -0.7727 H   0  0  0  0  0  0  0  0  0  0  0  0
    2.4953   -1.8040   -0.5055 H   0  0  0  0  0  0  0  0  0  0  0  0
    2.8312   -3.3887    0.0242 H   0  0  0  0  0  0  0  0  0  0  0  0
  1  5  1  0
  5  6  1  0
  5  7  2  0
  1  2  1  0
  1  3  1  0
  1  4  1  0
  8 12  1  0
 12 15  1  0
  8  9  1  0
  8 10  1  0
  8 11  1  0
 12 13  1  0
 12 14  1  0
 15 16  1  0
 15 17  1  0
 15 18  1  0
M  CHG  1   6  -1
M  END
>  <PDB_ID>  (947) 
pdb2z3b

>  <RESIDUE_NAME>  (947) 
ASP   ARG

>  <FRAG_NAME>  (947) 
ACET   PRPA

>  <FRAG_ATOM_NUM>  (947) 
fragi: 7  fragj: 11

>  <atom.prop.CHAIN_ID>  (947) 
A A A A A A A Z Z Z Z Z Z Z Z Z Z Z

>  <atom.prop.IS_HEAVY_ATOM>  (947) 
1 0 0 0 1 1 1 1 0 0 0 1 0 0 1 0 0 0

>  <DIFUSE_FUNC_ATOM>  (947) 
atom 6   atom 7   

>  <FINAL_SINGLE_POINT_ENERGY>  (947) 
0

>  <NONCOV_INTER_ENERGY_QM>  (947) 
0

>  <FF_Energy>  (947) 
14.51

>  <QM_Energy>  (947) 
-1.77

>  <source>  (947) 
ACET_PRPA_09

>  <Index>  (947) 
27850

$$$$
ACET-pdb2zkt-A-GLU-122:PRPA-pdb2zkt-A-LEU-224
     RDKit          3D

 18 16  0  0  0  0  0  0  0  0999 V2000
    0.0078    1.5163   -0.0006 C   0  0  0  0  0  0  0  0  0  0  0  0
   -0.4099    1.8150   -0.8380 H   0  0  0  0  0  0  0  0  0  0  0  0
    0.9428    1.8078    0.0757 H   0  0  0  0  0  0  0  0  0  0  0  0
   -0.5541    1.9383    0.8326 H   0  0  0  0  0  0  0  0  0  0  0  0
    0.0000    0.0000    0.0000 C   0  0  0  0  0  0  0  0  0  0  0  0
   -1.1052   -0.5956   -0.0000 O   0  0  0  0  0  1  0  0  0  0  0  0
    1.1052   -0.5997    0.0000 O   0  0  0  0  0  0  0  0  0  0  0  0
    3.0162    1.2321   -3.0321 C   0  0  0  0  0  0  0  0  0  0  0  0
    2.7577    0.6601   -3.8089 H   0  0  0  0  0  0  0  0  0  0  0  0
    2.2163    1.4039   -2.4604 H   0  0  0  0  0  0  0  0  0  0  0  0
    3.3878    2.0988   -3.3605 H   0  0  0  0  0  0  0  0  0  0  0  0
    4.0828    0.5076   -2.2043 C   0  0  0  0  0  0  0  0  0  0  0  0
    4.3293    1.0797   -1.4127 H   0  0  0  0  0  0  0  0  0  0  0  0
    4.9854    0.2907   -2.7755 H   0  0  0  0  0  0  0  0  0  0  0  0
    3.4151   -0.7449   -1.6317 C   0  0  0  0  0  0  0  0  0  0  0  0
    4.0556   -1.2110   -1.0218 H   0  0  0  0  0  0  0  0  0  0  0  0
    2.5981   -0.4799   -1.1213 H   0  0  0  0  0  0  0  0  0  0  0  0
    3.1607   -1.3553   -2.3806 H   0  0  0  0  0  0  0  0  0  0  0  0
  1  5  1  0
  5  6  1  0
  5  7  2  0
  1  2  1  0
  1  3  1  0
  1  4  1  0
  8 12  1  0
 12 15  1  0
  8  9  1  0
  8 10  1  0
  8 11  1  0
 12 13  1  0
 12 14  1  0
 15 16  1  0
 15 17  1  0
 15 18  1  0
M  CHG  1   6  -1
M  END
>  <PDB_ID>  (948) 
pdb2zkt

>  <RESIDUE_NAME>  (948) 
GLU   LEU

>  <FRAG_NAME>  (948) 
ACET   PRPA

>  <FRAG_ATOM_NUM>  (948) 
fragi: 7  fragj: 11

>  <atom.prop.CHAIN_ID>  (948) 
A A A A A A A Z Z Z Z Z Z Z Z Z Z Z

>  <atom.prop.IS_HEAVY_ATOM>  (948) 
1 0 0 0 1 1 1 1 0 0 0 1 0 0 1 0 0 0

>  <DIFUSE_FUNC_ATOM>  (948) 
atom 6   atom 7   

>  <FINAL_SINGLE_POINT_ENERGY>  (948) 
0

>  <NONCOV_INTER_ENERGY_QM>  (948) 
0

>  <FF_Energy>  (948) 
16.0

>  <QM_Energy>  (948) 
-1.14

>  <source>  (948) 
ACET_PRPA_09

>  <Index>  (948) 
27984

$$$$
ACET-pdb2zkt-A-GLU-122:PRPA-pdb2zkt-A-LEU-224
     RDKit          3D

 18 16  0  0  0  0  0  0  0  0999 V2000
    0.0078    1.5163   -0.0006 C   0  0  0  0  0  0  0  0  0  0  0  0
   -0.4099    1.8150   -0.8380 H   0  0  0  0  0  0  0  0  0  0  0  0
    0.9428    1.8078    0.0757 H   0  0  0  0  0  0  0  0  0  0  0  0
   -0.5541    1.9383    0.8326 H   0  0  0  0  0  0  0  0  0  0  0  0
    0.0000    0.0000    0.0000 C   0  0  0  0  0  0  0  0  0  0  0  0
   -1.1052   -0.5956   -0.0000 O   0  0  0  0  0  1  0  0  0  0  0  0
    1.1052   -0.5997    0.0000 O   0  0  0  0  0  0  0  0  0  0  0  0
    5.3534    0.2022   -3.0085 C   0  0  0  0  0  0  0  0  0  0  0  0
    5.2708    0.6506   -3.8701 H   0  0  0  0  0  0  0  0  0  0  0  0
    5.4368   -0.7661   -3.0727 H   0  0  0  0  0  0  0  0  0  0  0  0
    6.2375    0.5908   -2.5030 H   0  0  0  0  0  0  0  0  0  0  0  0
    4.0828    0.5076   -2.2043 C   0  0  0  0  0  0  0  0  0  0  0  0
    4.3293    1.0797   -1.4127 H   0  0  0  0  0  0  0  0  0  0  0  0
    3.3240    1.0230   -2.7931 H   0  0  0  0  0  0  0  0  0  0  0  0
    3.4151   -0.7449   -1.6317 C   0  0  0  0  0  0  0  0  0  0  0  0
    4.0556   -1.2110   -1.0218 H   0  0  0  0  0  0  0  0  0  0  0  0
    2.5981   -0.4799   -1.1213 H   0  0  0  0  0  0  0  0  0  0  0  0
    3.1607   -1.3553   -2.3806 H   0  0  0  0  0  0  0  0  0  0  0  0
  1  5  1  0
  5  6  1  0
  5  7  2  0
  1  2  1  0
  1  3  1  0
  1  4  1  0
  8 12  1  0
 12 15  1  0
  8  9  1  0
  8 10  1  0
  8 11  1  0
 12 13  1  0
 12 14  1  0
 15 16  1  0
 15 17  1  0
 15 18  1  0
M  CHG  1   6  -1
M  END
>  <PDB_ID>  (949) 
pdb2zkt

>  <RESIDUE_NAME>  (949) 
GLU   LEU

>  <FRAG_NAME>  (949) 
ACET   PRPA

>  <FRAG_ATOM_NUM>  (949) 
fragi: 7  fragj: 11

>  <atom.prop.CHAIN_ID>  (949) 
A A A A A A A Z Z Z Z Z Z Z Z Z Z Z

>  <atom.prop.IS_HEAVY_ATOM>  (949) 
1 0 0 0 1 1 1 1 0 0 0 1 0 0 1 0 0 0

>  <DIFUSE_FUNC_ATOM>  (949) 
atom 6   atom 7   

>  <FINAL_SINGLE_POINT_ENERGY>  (949) 
0

>  <NONCOV_INTER_ENERGY_QM>  (949) 
0

>  <FF_Energy>  (949) 
15.92

>  <QM_Energy>  (949) 
-0.28

>  <source>  (949) 
ACET_PRPA_09

>  <Index>  (949) 
28004

$$$$
ACET-pdb2z3b-E-ASP-123:PRPA-pdb2z3b-E-ARG-140
     RDKit          3D

 18 16  0  0  0  0  0  0  0  0999 V2000
    0.0322    1.5872    0.0321 C   0  0  0  0  0  0  0  0  0  0  0  0
    0.6723    1.8699   -0.6697 H   0  0  0  0  0  0  0  0  0  0  0  0
    0.3566    1.8441    0.9315 H   0  0  0  0  0  0  0  0  0  0  0  0
   -0.9422    2.0393   -0.1529 H   0  0  0  0  0  0  0  0  0  0  0  0
    0.0000    0.0000    0.0000 C   0  0  0  0  0  0  0  0  0  0  0  0
   -1.0926   -0.6777   -0.0000 O   0  0  0  0  0  1  0  0  0  0  0  0
    1.0926   -0.6461   -0.0000 O   0  0  0  0  0  0  0  0  0  0  0  0
    4.3613   -2.9326   -1.5241 C   0  0  0  0  0  0  0  0  0  0  0  0
    4.9465   -3.7419   -1.4690 H   0  0  0  0  0  0  0  0  0  0  0  0
    4.7469   -2.2063   -0.9543 H   0  0  0  0  0  0  0  0  0  0  0  0
    4.3630   -2.5862   -2.5576 H   0  0  0  0  0  0  0  0  0  0  0  0
    3.0094   -3.2857   -0.9939 C   0  0  0  0  0  0  0  0  0  0  0  0
    2.2945   -2.8845   -1.5689 H   0  0  0  0  0  0  0  0  0  0  0  0
    2.8937   -4.2801   -0.9703 H   0  0  0  0  0  0  0  0  0  0  0  0
    2.7889   -2.7684    0.4353 C   0  0  0  0  0  0  0  0  0  0  0  0
    3.6480   -2.2960    0.7292 H   0  0  0  0  0  0  0  0  0  0  0  0
    2.0705   -2.0400    0.3919 H   0  0  0  0  0  0  0  0  0  0  0  0
    2.5077   -3.4698    1.2210 H   0  0  0  0  0  0  0  0  0  0  0  0
  1  5  1  0
  5  6  1  0
  5  7  2  0
  1  2  1  0
  1  3  1  0
  1  4  1  0
  8 12  1  0
 12 15  1  0
  8  9  1  0
  8 10  1  0
  8 11  1  0
 12 13  1  0
 12 14  1  0
 15 16  1  0
 15 17  1  0
 15 18  1  0
M  CHG  1   6  -1
M  END
>  <PDB_ID>  (950) 
pdb2z3b

>  <RESIDUE_NAME>  (950) 
ASP   ARG

>  <FRAG_NAME>  (950) 
ACET   PRPA

>  <FRAG_ATOM_NUM>  (950) 
fragi: 7  fragj: 11

>  <atom.prop.CHAIN_ID>  (950) 
A A A A A A A Z Z Z Z Z Z Z Z Z Z Z

>  <atom.prop.IS_HEAVY_ATOM>  (950) 
1 0 0 0 1 1 1 1 0 0 0 1 0 0 1 0 0 0

>  <DIFUSE_FUNC_ATOM>  (950) 
atom 6   atom 7   

>  <FINAL_SINGLE_POINT_ENERGY>  (950) 
0

>  <NONCOV_INTER_ENERGY_QM>  (950) 
0

>  <FF_Energy>  (950) 
39.25

>  <QM_Energy>  (950) 
-0.1

>  <source>  (950) 
ACET_PRPA_09

>  <Index>  (950) 
29332

$$$$
ACET-pdb2z3t-C-GLU-200:PRPA-pdb2z3t-C-ARG-88
     RDKit          3D

 18 16  0  0  0  0  0  0  0  0999 V2000
   -0.0137    1.5187   -0.0055 C   0  0  0  0  0  0  0  0  0  0  0  0
   -0.3973    1.8099   -0.8603 H   0  0  0  0  0  0  0  0  0  0  0  0
    0.9102    1.8243    0.1176 H   0  0  0  0  0  0  0  0  0  0  0  0
   -0.6212    1.9329    0.7991 H   0  0  0  0  0  0  0  0  0  0  0  0
    0.0000    0.0000    0.0000 C   0  0  0  0  0  0  0  0  0  0  0  0
   -1.0957   -0.5971   -0.0000 O   0  0  0  0  0  1  0  0  0  0  0  0
    1.0957   -0.5988    0.0000 O   0  0  0  0  0  0  0  0  0  0  0  0
   -1.7674   -3.8729   -0.1208 C   0  0  0  0  0  0  0  0  0  0  0  0
   -1.7898   -4.8385    0.1387 H   0  0  0  0  0  0  0  0  0  0  0  0
   -1.8590   -3.3056    0.6970 H   0  0  0  0  0  0  0  0  0  0  0  0
   -0.7944   -3.6665   -0.5666 H   0  0  0  0  0  0  0  0  0  0  0  0
   -2.9576   -3.5980   -1.0215 C   0  0  0  0  0  0  0  0  0  0  0  0
   -2.7835   -3.9813   -1.9293 H   0  0  0  0  0  0  0  0  0  0  0  0
   -3.7751   -4.0255   -0.6328 H   0  0  0  0  0  0  0  0  0  0  0  0
   -3.2312   -2.1141   -1.1788 C   0  0  0  0  0  0  0  0  0  0  0  0
   -2.4087   -1.6156   -0.9145 H   0  0  0  0  0  0  0  0  0  0  0  0
   -3.4426   -1.9369   -2.1375 H   0  0  0  0  0  0  0  0  0  0  0  0
   -4.0651   -1.7806   -0.5611 H   0  0  0  0  0  0  0  0  0  0  0  0
  1  5  1  0
  5  6  1  0
  5  7  2  0
  1  2  1  0
  1  3  1  0
  1  4  1  0
  8 12  1  0
 12 15  1  0
  8  9  1  0
  8 10  1  0
  8 11  1  0
 12 13  1  0
 12 14  1  0
 15 16  1  0
 15 17  1  0
 15 18  1  0
M  CHG  1   6  -1
M  END
>  <PDB_ID>  (951) 
pdb2z3t

>  <RESIDUE_NAME>  (951) 
GLU   ARG

>  <FRAG_NAME>  (951) 
ACET   PRPA

>  <FRAG_ATOM_NUM>  (951) 
fragi: 7  fragj: 11

>  <atom.prop.CHAIN_ID>  (951) 
A A A A A A A Z Z Z Z Z Z Z Z Z Z Z

>  <atom.prop.IS_HEAVY_ATOM>  (951) 
1 0 0 0 1 1 1 1 0 0 0 1 0 0 1 0 0 0

>  <DIFUSE_FUNC_ATOM>  (951) 
atom 6   atom 7   

>  <FINAL_SINGLE_POINT_ENERGY>  (951) 
0

>  <NONCOV_INTER_ENERGY_QM>  (951) 
0

>  <FF_Energy>  (951) 
13.93

>  <QM_Energy>  (951) 
-1.78

>  <source>  (951) 
ACET_PRPA_09

>  <Index>  (951) 
29661

$$$$
ACET-pdb2znj-A-ASP-248:PRPA-pdb2znj-A-LYS-148
     RDKit          3D

 18 16  0  0  0  0  0  0  0  0999 V2000
   -0.0057    1.5130   -0.0134 C   0  0  0  0  0  0  0  0  0  0  0  0
    0.9156    1.8395    0.1602 H   0  0  0  0  0  0  0  0  0  0  0  0
   -0.6293    1.8384    0.6866 H   0  0  0  0  0  0  0  0  0  0  0  0
   -0.3314    1.9210   -0.9702 H   0  0  0  0  0  0  0  0  0  0  0  0
    0.0000    0.0000    0.0000 C   0  0  0  0  0  0  0  0  0  0  0  0
   -1.0967   -0.5955    0.0000 O   0  0  0  0  0  1  0  0  0  0  0  0
    1.0967   -0.5971   -0.0000 O   0  0  0  0  0  0  0  0  0  0  0  0
    0.1950   -1.4469    4.9440 C   0  0  0  0  0  0  0  0  0  0  0  0
    1.1134   -1.1449    5.2019 H   0  0  0  0  0  0  0  0  0  0  0  0
    0.1683   -2.4465    4.9155 H   0  0  0  0  0  0  0  0  0  0  0  0
   -0.5203   -1.0902    5.6851 H   0  0  0  0  0  0  0  0  0  0  0  0
   -0.1259   -0.9076    3.5586 C   0  0  0  0  0  0  0  0  0  0  0  0
   -1.1065   -0.7789    3.4835 H   0  0  0  0  0  0  0  0  0  0  0  0
    0.3538   -0.0499    3.4282 H   0  0  0  0  0  0  0  0  0  0  0  0
    0.3208   -1.8836    2.4866 C   0  0  0  0  0  0  0  0  0  0  0  0
    0.2342   -1.4466    1.5951 H   0  0  0  0  0  0  0  0  0  0  0  0
    1.2716   -2.1345    2.6521 H   0  0  0  0  0  0  0  0  0  0  0  0
   -0.3036   -2.7765    2.5184 H   0  0  0  0  0  0  0  0  0  0  0  0
  1  5  1  0
  5  6  1  0
  5  7  2  0
  1  2  1  0
  1  3  1  0
  1  4  1  0
  8 12  1  0
 12 15  1  0
  8  9  1  0
  8 10  1  0
  8 11  1  0
 12 13  1  0
 12 14  1  0
 15 16  1  0
 15 17  1  0
 15 18  1  0
M  CHG  1   6  -1
M  END
>  <PDB_ID>  (952) 
pdb2znj

>  <RESIDUE_NAME>  (952) 
ASP   LYS

>  <FRAG_NAME>  (952) 
ACET   PRPA

>  <FRAG_ATOM_NUM>  (952) 
fragi: 7  fragj: 11

>  <atom.prop.CHAIN_ID>  (952) 
A A A A A A A Z Z Z Z Z Z Z Z Z Z Z

>  <atom.prop.IS_HEAVY_ATOM>  (952) 
1 0 0 0 1 1 1 1 0 0 0 1 0 0 1 0 0 0

>  <DIFUSE_FUNC_ATOM>  (952) 
atom 6   atom 7   

>  <FINAL_SINGLE_POINT_ENERGY>  (952) 
0

>  <NONCOV_INTER_ENERGY_QM>  (952) 
0

>  <FF_Energy>  (952) 
15.04

>  <QM_Energy>  (952) 
-0.51

>  <source>  (952) 
ACET_PRPA_09

>  <Index>  (952) 
29704

$$$$
ACET-pdb2zoq-A-ASP-128:PRPA-pdb2zoq-A-LYS-131
     RDKit          3D

 18 16  0  0  0  0  0  0  0  0999 V2000
   -0.0047    1.5131   -0.0001 C   0  0  0  0  0  0  0  0  0  0  0  0
    0.8810    1.8355   -0.3110 H   0  0  0  0  0  0  0  0  0  0  0  0
   -0.1907    1.8321    0.9205 H   0  0  0  0  0  0  0  0  0  0  0  0
   -0.7674    1.9210   -0.6634 H   0  0  0  0  0  0  0  0  0  0  0  0
    0.0000    0.0000    0.0000 C   0  0  0  0  0  0  0  0  0  0  0  0
   -1.0986   -0.5901    0.0000 O   0  0  0  0  0  1  0  0  0  0  0  0
    1.0986   -0.5944   -0.0000 O   0  0  0  0  0  0  0  0  0  0  0  0
   -3.1391   -2.9372    0.3264 C   0  0  0  0  0  0  0  0  0  0  0  0
   -3.0411   -3.7805    0.8514 H   0  0  0  0  0  0  0  0  0  0  0  0
   -2.2060   -2.7361   -0.1997 H   0  0  0  0  0  0  0  0  0  0  0  0
   -3.9319   -3.0692   -0.4099 H   0  0  0  0  0  0  0  0  0  0  0  0
   -3.5122   -1.7683    1.2502 C   0  0  0  0  0  0  0  0  0  0  0  0
   -3.7625   -0.9865    0.6753 H   0  0  0  0  0  0  0  0  0  0  0  0
   -4.3095   -2.0447    1.7919 H   0  0  0  0  0  0  0  0  0  0  0  0
   -2.4140   -1.3212    2.2104 C   0  0  0  0  0  0  0  0  0  0  0  0
   -2.1055   -2.1048    2.7420 H   0  0  0  0  0  0  0  0  0  0  0  0
   -1.6565   -0.9401    1.6882 H   0  0  0  0  0  0  0  0  0  0  0  0
   -2.7846   -0.5587    2.8955 H   0  0  0  0  0  0  0  0  0  0  0  0
  1  5  1  0
  5  6  1  0
  5  7  2  0
  1  2  1  0
  1  3  1  0
  1  4  1  0
  8 12  1  0
 12 15  1  0
  8  9  1  0
  8 10  1  0
  8 11  1  0
 12 13  1  0
 12 14  1  0
 15 16  1  0
 15 17  1  0
 15 18  1  0
M  CHG  1   6  -1
M  END
>  <PDB_ID>  (953) 
pdb2zoq

>  <RESIDUE_NAME>  (953) 
ASP   LYS

>  <FRAG_NAME>  (953) 
ACET   PRPA

>  <FRAG_ATOM_NUM>  (953) 
fragi: 7  fragj: 11

>  <atom.prop.CHAIN_ID>  (953) 
A A A A A A A Z Z Z Z Z Z Z Z Z Z Z

>  <atom.prop.IS_HEAVY_ATOM>  (953) 
1 0 0 0 1 1 1 1 0 0 0 1 0 0 1 0 0 0

>  <DIFUSE_FUNC_ATOM>  (953) 
atom 6   atom 7   

>  <FINAL_SINGLE_POINT_ENERGY>  (953) 
0

>  <NONCOV_INTER_ENERGY_QM>  (953) 
0

>  <FF_Energy>  (953) 
30.38

>  <QM_Energy>  (953) 
0.44

>  <source>  (953) 
ACET_PRPA_09

>  <Index>  (953) 
29877

$$$$
ACET-pdb2zoq-A-ASP-128:PRPA-pdb2zoq-A-LYS-131
     RDKit          3D

 18 16  0  0  0  0  0  0  0  0999 V2000
   -0.0047    1.5131   -0.0001 C   0  0  0  0  0  0  0  0  0  0  0  0
    0.8810    1.8355   -0.3110 H   0  0  0  0  0  0  0  0  0  0  0  0
   -0.1907    1.8321    0.9205 H   0  0  0  0  0  0  0  0  0  0  0  0
   -0.7674    1.9210   -0.6634 H   0  0  0  0  0  0  0  0  0  0  0  0
    0.0000    0.0000    0.0000 C   0  0  0  0  0  0  0  0  0  0  0  0
   -1.0986   -0.5901    0.0000 O   0  0  0  0  0  1  0  0  0  0  0  0
    1.0986   -0.5944   -0.0000 O   0  0  0  0  0  0  0  0  0  0  0  0
   -3.5122   -1.7683    1.2502 C   0  0  0  0  0  0  0  0  0  0  0  0
   -3.7625   -0.9865    0.6753 H   0  0  0  0  0  0  0  0  0  0  0  0
   -4.3095   -2.0447    1.7919 H   0  0  0  0  0  0  0  0  0  0  0  0
   -3.2475   -2.5978    0.5946 H   0  0  0  0  0  0  0  0  0  0  0  0
   -2.4140   -1.3212    2.2104 C   0  0  0  0  0  0  0  0  0  0  0  0
   -2.1055   -2.1048    2.7420 H   0  0  0  0  0  0  0  0  0  0  0  0
   -1.6565   -0.9401    1.6882 H   0  0  0  0  0  0  0  0  0  0  0  0
   -2.9352   -0.2488    3.1739 C   0  0  0  0  0  0  0  0  0  0  0  0
   -3.4963    0.3945    2.6606 H   0  0  0  0  0  0  0  0  0  0  0  0
   -3.4808   -0.6920    3.8797 H   0  0  0  0  0  0  0  0  0  0  0  0
   -2.1275    0.3024    3.6555 H   0  0  0  0  0  0  0  0  0  0  0  0
  1  5  1  0
  5  6  1  0
  5  7  2  0
  1  2  1  0
  1  3  1  0
  1  4  1  0
  8 12  1  0
 12 15  1  0
  8  9  1  0
  8 10  1  0
  8 11  1  0
 12 13  1  0
 12 14  1  0
 15 16  1  0
 15 17  1  0
 15 18  1  0
M  CHG  1   6  -1
M  END
>  <PDB_ID>  (954) 
pdb2zoq

>  <RESIDUE_NAME>  (954) 
ASP   LYS

>  <FRAG_NAME>  (954) 
ACET   PRPA

>  <FRAG_ATOM_NUM>  (954) 
fragi: 7  fragj: 11

>  <atom.prop.CHAIN_ID>  (954) 
A A A A A A A Z Z Z Z Z Z Z Z Z Z Z

>  <atom.prop.IS_HEAVY_ATOM>  (954) 
1 0 0 0 1 1 1 1 0 0 0 1 0 0 1 0 0 0

>  <DIFUSE_FUNC_ATOM>  (954) 
atom 6   atom 7   

>  <FINAL_SINGLE_POINT_ENERGY>  (954) 
0

>  <NONCOV_INTER_ENERGY_QM>  (954) 
0

>  <FF_Energy>  (954) 
32.97

>  <QM_Energy>  (954) 
1.37

>  <source>  (954) 
ACET_PRPA_09

>  <Index>  (954) 
29895

$$$$
ACET-pdb2zoq-A-ASP-128:PRPA-pdb2zoq-A-LYS-131
     RDKit          3D

 18 16  0  0  0  0  0  0  0  0999 V2000
   -0.0047    1.5131   -0.0001 C   0  0  0  0  0  0  0  0  0  0  0  0
    0.8810    1.8355   -0.3110 H   0  0  0  0  0  0  0  0  0  0  0  0
   -0.1907    1.8321    0.9205 H   0  0  0  0  0  0  0  0  0  0  0  0
   -0.7674    1.9210   -0.6634 H   0  0  0  0  0  0  0  0  0  0  0  0
    0.0000    0.0000    0.0000 C   0  0  0  0  0  0  0  0  0  0  0  0
   -1.0986   -0.5901    0.0000 O   0  0  0  0  0  1  0  0  0  0  0  0
    1.0986   -0.5944   -0.0000 O   0  0  0  0  0  0  0  0  0  0  0  0
   -2.4140   -1.3212    2.2104 C   0  0  0  0  0  0  0  0  0  0  0  0
   -2.1055   -2.1048    2.7420 H   0  0  0  0  0  0  0  0  0  0  0  0
   -1.6565   -0.9401    1.6882 H   0  0  0  0  0  0  0  0  0  0  0  0
   -3.1985   -1.6406    1.5245 H   0  0  0  0  0  0  0  0  0  0  0  0
   -2.9352   -0.2488    3.1739 C   0  0  0  0  0  0  0  0  0  0  0  0
   -3.4963    0.3945    2.6606 H   0  0  0  0  0  0  0  0  0  0  0  0
   -3.4808   -0.6920    3.8797 H   0  0  0  0  0  0  0  0  0  0  0  0
   -1.8033    0.5238    3.8489 C   0  0  0  0  0  0  0  0  0  0  0  0
   -1.2146    0.9239    3.1356 H   0  0  0  0  0  0  0  0  0  0  0  0
   -2.2017    1.2775    4.3868 H   0  0  0  0  0  0  0  0  0  0  0  0
   -1.1930   -0.0963    4.5055 H   0  0  0  0  0  0  0  0  0  0  0  0
  1  5  1  0
  5  6  1  0
  5  7  2  0
  1  2  1  0
  1  3  1  0
  1  4  1  0
  8 12  1  0
 12 15  1  0
  8  9  1  0
  8 10  1  0
  8 11  1  0
 12 13  1  0
 12 14  1  0
 15 16  1  0
 15 17  1  0
 15 18  1  0
M  CHG  1   6  -1
M  END
>  <PDB_ID>  (955) 
pdb2zoq

>  <RESIDUE_NAME>  (955) 
ASP   LYS

>  <FRAG_NAME>  (955) 
ACET   PRPA

>  <FRAG_ATOM_NUM>  (955) 
fragi: 7  fragj: 11

>  <atom.prop.CHAIN_ID>  (955) 
A A A A A A A Z Z Z Z Z Z Z Z Z Z Z

>  <atom.prop.IS_HEAVY_ATOM>  (955) 
1 0 0 0 1 1 1 1 0 0 0 1 0 0 1 0 0 0

>  <DIFUSE_FUNC_ATOM>  (955) 
atom 6   atom 7   

>  <FINAL_SINGLE_POINT_ENERGY>  (955) 
0

>  <NONCOV_INTER_ENERGY_QM>  (955) 
0

>  <FF_Energy>  (955) 
27.45

>  <QM_Energy>  (955) 
2.53

>  <source>  (955) 
ACET_PRPA_09

>  <Index>  (955) 
29906

$$$$
ACET-pdb2zf3-C-GLU-95:PRPA-pdb2zf3-D-LEU-129
     RDKit          3D

 18 16  0  0  0  0  0  0  0  0999 V2000
   -0.0115    1.5103   -0.0084 C   0  0  0  0  0  0  0  0  0  0  0  0
    0.5693    1.8151   -0.7370 H   0  0  0  0  0  0  0  0  0  0  0  0
    0.2901    1.8212    0.8711 H   0  0  0  0  0  0  0  0  0  0  0  0
   -1.0071    1.9178   -0.1840 H   0  0  0  0  0  0  0  0  0  0  0  0
    0.0000    0.0000    0.0000 C   0  0  0  0  0  0  0  0  0  0  0  0
   -1.0937   -0.6088   -0.0000 O   0  0  0  0  0  1  0  0  0  0  0  0
    1.0937   -0.5871    0.0000 O   0  0  0  0  0  0  0  0  0  0  0  0
    3.4480    2.0870    3.0036 C   0  0  0  0  0  0  0  0  0  0  0  0
    3.7263    1.3697    3.6717 H   0  0  0  0  0  0  0  0  0  0  0  0
    4.1419    2.8280    3.0649 H   0  0  0  0  0  0  0  0  0  0  0  0
    3.5344    1.6489    2.0092 H   0  0  0  0  0  0  0  0  0  0  0  0
    2.1204    2.6767    3.5139 C   0  0  0  0  0  0  0  0  0  0  0  0
    2.0005    3.5955    3.1010 H   0  0  0  0  0  0  0  0  0  0  0  0
    2.1739    2.8564    4.5876 H   0  0  0  0  0  0  0  0  0  0  0  0
    0.9004    1.8251    3.2068 C   0  0  0  0  0  0  0  0  0  0  0  0
    1.0030    0.9254    3.6333 H   0  0  0  0  0  0  0  0  0  0  0  0
    0.0805    2.2710    3.5677 H   0  0  0  0  0  0  0  0  0  0  0  0
    0.8089    1.7145    2.2164 H   0  0  0  0  0  0  0  0  0  0  0  0
  1  5  1  0
  5  6  1  0
  5  7  2  0
  1  2  1  0
  1  3  1  0
  1  4  1  0
  8 12  1  0
 12 15  1  0
  8  9  1  0
  8 10  1  0
  8 11  1  0
 12 13  1  0
 12 14  1  0
 15 16  1  0
 15 17  1  0
 15 18  1  0
M  CHG  1   6  -1
M  END
>  <PDB_ID>  (956) 
pdb2zf3

>  <RESIDUE_NAME>  (956) 
GLU   LEU

>  <FRAG_NAME>  (956) 
ACET   PRPA

>  <FRAG_ATOM_NUM>  (956) 
fragi: 7  fragj: 11

>  <atom.prop.CHAIN_ID>  (956) 
A A A A A A A Z Z Z Z Z Z Z Z Z Z Z

>  <atom.prop.IS_HEAVY_ATOM>  (956) 
1 0 0 0 1 1 1 1 0 0 0 1 0 0 1 0 0 0

>  <DIFUSE_FUNC_ATOM>  (956) 
atom 6   atom 7   

>  <FINAL_SINGLE_POINT_ENERGY>  (956) 
0

>  <NONCOV_INTER_ENERGY_QM>  (956) 
0

>  <FF_Energy>  (956) 
41.23

>  <QM_Energy>  (956) 
3.76

>  <source>  (956) 
ACET_PRPA_09

>  <Index>  (956) 
30407

$$$$
ACET-pdb2zf3-C-GLU-95:PRPA-pdb2zf3-D-LEU-129
     RDKit          3D

 18 16  0  0  0  0  0  0  0  0999 V2000
   -0.0115    1.5103   -0.0084 C   0  0  0  0  0  0  0  0  0  0  0  0
    0.5693    1.8151   -0.7370 H   0  0  0  0  0  0  0  0  0  0  0  0
    0.2901    1.8212    0.8711 H   0  0  0  0  0  0  0  0  0  0  0  0
   -1.0071    1.9178   -0.1840 H   0  0  0  0  0  0  0  0  0  0  0  0
    0.0000    0.0000    0.0000 C   0  0  0  0  0  0  0  0  0  0  0  0
   -1.0937   -0.6088   -0.0000 O   0  0  0  0  0  1  0  0  0  0  0  0
    1.0937   -0.5871    0.0000 O   0  0  0  0  0  0  0  0  0  0  0  0
    0.9004    1.8251    3.2068 C   0  0  0  0  0  0  0  0  0  0  0  0
    1.0030    0.9254    3.6333 H   0  0  0  0  0  0  0  0  0  0  0  0
    0.0805    2.2710    3.5677 H   0  0  0  0  0  0  0  0  0  0  0  0
    0.8089    1.7145    2.2164 H   0  0  0  0  0  0  0  0  0  0  0  0
    2.1204    2.6767    3.5139 C   0  0  0  0  0  0  0  0  0  0  0  0
    2.0005    3.5955    3.1010 H   0  0  0  0  0  0  0  0  0  0  0  0
    3.0603    2.2592    3.1527 H   0  0  0  0  0  0  0  0  0  0  0  0
    2.1949    2.9268    5.0079 C   0  0  0  0  0  0  0  0  0  0  0  0
    2.9348    3.5725    5.2050 H   0  0  0  0  0  0  0  0  0  0  0  0
    1.3272    3.3101    5.3295 H   0  0  0  0  0  0  0  0  0  0  0  0
    2.3728    2.0646    5.4858 H   0  0  0  0  0  0  0  0  0  0  0  0
  1  5  1  0
  5  6  1  0
  5  7  2  0
  1  2  1  0
  1  3  1  0
  1  4  1  0
  8 12  1  0
 12 15  1  0
  8  9  1  0
  8 10  1  0
  8 11  1  0
 12 13  1  0
 12 14  1  0
 15 16  1  0
 15 17  1  0
 15 18  1  0
M  CHG  1   6  -1
M  END
>  <PDB_ID>  (957) 
pdb2zf3

>  <RESIDUE_NAME>  (957) 
GLU   LEU

>  <FRAG_NAME>  (957) 
ACET   PRPA

>  <FRAG_ATOM_NUM>  (957) 
fragi: 7  fragj: 11

>  <atom.prop.CHAIN_ID>  (957) 
A A A A A A A Z Z Z Z Z Z Z Z Z Z Z

>  <atom.prop.IS_HEAVY_ATOM>  (957) 
1 0 0 0 1 1 1 1 0 0 0 1 0 0 1 0 0 0

>  <DIFUSE_FUNC_ATOM>  (957) 
atom 6   atom 7   

>  <FINAL_SINGLE_POINT_ENERGY>  (957) 
0

>  <NONCOV_INTER_ENERGY_QM>  (957) 
0

>  <FF_Energy>  (957) 
41.07

>  <QM_Energy>  (957) 
4.11

>  <source>  (957) 
ACET_PRPA_09

>  <Index>  (957) 
30439

$$$$
ACET-pdb2z3t-C-GLU-116:PRPA-pdb2z3t-C-LEU-225
     RDKit          3D

 18 16  0  0  0  0  0  0  0  0999 V2000
   -0.0062    1.5197   -0.0156 C   0  0  0  0  0  0  0  0  0  0  0  0
   -0.0093    1.8046   -0.9541 H   0  0  0  0  0  0  0  0  0  0  0  0
    0.7919    1.8224    0.4682 H   0  0  0  0  0  0  0  0  0  0  0  0
   -0.8872    1.9338    0.4746 H   0  0  0  0  0  0  0  0  0  0  0  0
    0.0000    0.0000    0.0000 C   0  0  0  0  0  0  0  0  0  0  0  0
   -1.0972   -0.6000    0.0000 O   0  0  0  0  0  1  0  0  0  0  0  0
    1.0972   -0.5991   -0.0000 O   0  0  0  0  0  0  0  0  0  0  0  0
    0.4506    3.3820   -2.5807 C   0  0  0  0  0  0  0  0  0  0  0  0
    0.6029    2.9123   -1.7092 H   0  0  0  0  0  0  0  0  0  0  0  0
   -0.4970    3.7037   -2.6217 H   0  0  0  0  0  0  0  0  0  0  0  0
    0.6150    2.7426   -3.3330 H   0  0  0  0  0  0  0  0  0  0  0  0
    1.3956    4.5614   -2.6973 C   0  0  0  0  0  0  0  0  0  0  0  0
    1.2460    5.0269   -3.5681 H   0  0  0  0  0  0  0  0  0  0  0  0
    2.4311    4.2237   -2.6539 H   0  0  0  0  0  0  0  0  0  0  0  0
    1.1337    5.5584   -1.5904 C   0  0  0  0  0  0  0  0  0  0  0  0
    1.7418    6.3484   -1.6948 H   0  0  0  0  0  0  0  0  0  0  0  0
    0.1816    5.8683   -1.6317 H   0  0  0  0  0  0  0  0  0  0  0  0
    1.3022    5.1286   -0.7004 H   0  0  0  0  0  0  0  0  0  0  0  0
  1  5  1  0
  5  6  1  0
  5  7  2  0
  1  2  1  0
  1  3  1  0
  1  4  1  0
  8 12  1  0
 12 15  1  0
  8  9  1  0
  8 10  1  0
  8 11  1  0
 12 13  1  0
 12 14  1  0
 15 16  1  0
 15 17  1  0
 15 18  1  0
M  CHG  1   6  -1
M  END
>  <PDB_ID>  (958) 
pdb2z3t

>  <RESIDUE_NAME>  (958) 
GLU   LEU

>  <FRAG_NAME>  (958) 
ACET   PRPA

>  <FRAG_ATOM_NUM>  (958) 
fragi: 7  fragj: 11

>  <atom.prop.CHAIN_ID>  (958) 
A A A A A A A Z Z Z Z Z Z Z Z Z Z Z

>  <atom.prop.IS_HEAVY_ATOM>  (958) 
1 0 0 0 1 1 1 1 0 0 0 1 0 0 1 0 0 0

>  <DIFUSE_FUNC_ATOM>  (958) 
atom 6   atom 7   

>  <FINAL_SINGLE_POINT_ENERGY>  (958) 
0

>  <NONCOV_INTER_ENERGY_QM>  (958) 
0

>  <FF_Energy>  (958) 
36.99

>  <QM_Energy>  (958) 
5.86

>  <source>  (958) 
ACET_PRPA_09

>  <Index>  (958) 
30808

$$$$
ACET-pdb1u2p-A-GLU-103:PRPA-pdb1u2p-A-ARG-106
     RDKit          3D

 18 16  0  0  0  0  0  0  0  0999 V2000
    0.0247    1.5129   -0.0161 C   0  0  0  0  0  0  0  0  0  0  0  0
    0.1788    1.7983   -0.9477 H   0  0  0  0  0  0  0  0  0  0  0  0
    0.7543    1.8047    0.5801 H   0  0  0  0  0  0  0  0  0  0  0  0
   -0.9044    1.9652    0.3308 H   0  0  0  0  0  0  0  0  0  0  0  0
    0.0000    0.0000    0.0000 C   0  0  0  0  0  0  0  0  0  0  0  0
   -1.0973   -0.6008   -0.0000 O   0  0  0  0  0  1  0  0  0  0  0  0
    1.0973   -0.5912    0.0000 O   0  0  0  0  0  0  0  0  0  0  0  0
    0.9410   -0.1947   -4.0090 C   0  0  0  0  0  0  0  0  0  0  0  0
    0.1409    0.0576   -3.4688 H   0  0  0  0  0  0  0  0  0  0  0  0
    0.6885   -0.8870   -4.6823 H   0  0  0  0  0  0  0  0  0  0  0  0
    1.2791    0.6914   -4.5463 H   0  0  0  0  0  0  0  0  0  0  0  0
    1.9722   -0.7986   -3.0729 C   0  0  0  0  0  0  0  0  0  0  0  0
    2.7135   -1.1913   -3.5999 H   0  0  0  0  0  0  0  0  0  0  0  0
    2.3085   -0.1028   -2.4524 H   0  0  0  0  0  0  0  0  0  0  0  0
    1.3416   -1.9099   -2.2394 C   0  0  0  0  0  0  0  0  0  0  0  0
    2.0535   -2.3013   -1.6652 H   0  0  0  0  0  0  0  0  0  0  0  0
    0.6291   -1.5006   -1.6777 H   0  0  0  0  0  0  0  0  0  0  0  0
    0.9111   -2.6855   -2.8728 H   0  0  0  0  0  0  0  0  0  0  0  0
  1  5  1  0
  5  6  1  0
  5  7  2  0
  1  2  1  0
  1  3  1  0
  1  4  1  0
  8 12  1  0
 12 15  1  0
  8  9  1  0
  8 10  1  0
  8 11  1  0
 12 13  1  0
 12 14  1  0
 15 16  1  0
 15 17  1  0
 15 18  1  0
M  CHG  1   6  -1
M  END
>  <PDB_ID>  (959) 
pdb1u2p

>  <RESIDUE_NAME>  (959) 
GLU   ARG

>  <FRAG_NAME>  (959) 
ACET   PRPA

>  <FRAG_ATOM_NUM>  (959) 
fragi: 7  fragj: 11

>  <atom.prop.CHAIN_ID>  (959) 
A A A A A A A Z Z Z Z Z Z Z Z Z Z Z

>  <atom.prop.IS_HEAVY_ATOM>  (959) 
1 0 0 0 1 1 1 1 0 0 0 1 0 0 1 0 0 0

>  <DIFUSE_FUNC_ATOM>  (959) 
atom 6   atom 7   

>  <FINAL_SINGLE_POINT_ENERGY>  (959) 
0

>  <NONCOV_INTER_ENERGY_QM>  (959) 
0

>  <FF_Energy>  (959) 
16.37

>  <QM_Energy>  (959) 
0.72

>  <source>  (959) 
ACET_PRPA_09

>  <Index>  (959) 
31152

$$$$
ACET-pdb2zci-A-GLU-403:PRPA-pdb2zci-A-LYS-255
     RDKit          3D

 18 16  0  0  0  0  0  0  0  0999 V2000
    0.1140    1.5767    0.0139 C   0  0  0  0  0  0  0  0  0  0  0  0
    0.1605    1.8455   -0.9272 H   0  0  0  0  0  0  0  0  0  0  0  0
    0.9379    1.7760    0.5056 H   0  0  0  0  0  0  0  0  0  0  0  0
   -0.7341    2.0622    0.4966 H   0  0  0  0  0  0  0  0  0  0  0  0
    0.0000    0.0000    0.0000 C   0  0  0  0  0  0  0  0  0  0  0  0
   -1.0977   -0.6686    0.0000 O   0  0  0  0  0  1  0  0  0  0  0  0
    1.0977   -0.5846   -0.0000 O   0  0  0  0  0  0  0  0  0  0  0  0
    3.1531   -3.0086   -1.7356 C   0  0  0  0  0  0  0  0  0  0  0  0
    3.3746   -3.9762   -1.7539 H   0  0  0  0  0  0  0  0  0  0  0  0
    3.6329   -2.5536   -0.9953 H   0  0  0  0  0  0  0  0  0  0  0  0
    3.3633   -2.5363   -2.6953 H   0  0  0  0  0  0  0  0  0  0  0  0
    1.5965   -2.9094   -1.3919 C   0  0  0  0  0  0  0  0  0  0  0  0
    1.3078   -1.9839   -1.6087 H   0  0  0  0  0  0  0  0  0  0  0  0
    1.1256   -3.5660   -1.9706 H   0  0  0  0  0  0  0  0  0  0  0  0
    1.2711   -3.2096    0.0833 C   0  0  0  0  0  0  0  0  0  0  0  0
    1.9038   -3.9104    0.4183 H   0  0  0  0  0  0  0  0  0  0  0  0
    1.3943   -2.3720    0.6183 H   0  0  0  0  0  0  0  0  0  0  0  0
    0.2505   -3.5658    0.2232 H   0  0  0  0  0  0  0  0  0  0  0  0
  1  5  1  0
  5  6  1  0
  5  7  2  0
  1  2  1  0
  1  3  1  0
  1  4  1  0
  8 12  1  0
 12 15  1  0
  8  9  1  0
  8 10  1  0
  8 11  1  0
 12 13  1  0
 12 14  1  0
 15 16  1  0
 15 17  1  0
 15 18  1  0
M  CHG  1   6  -1
M  END
>  <PDB_ID>  (960) 
pdb2zci

>  <RESIDUE_NAME>  (960) 
GLU   LYS

>  <FRAG_NAME>  (960) 
ACET   PRPA

>  <FRAG_ATOM_NUM>  (960) 
fragi: 7  fragj: 11

>  <atom.prop.CHAIN_ID>  (960) 
A A A A A A A Z Z Z Z Z Z Z Z Z Z Z

>  <atom.prop.IS_HEAVY_ATOM>  (960) 
1 0 0 0 1 1 1 1 0 0 0 1 0 0 1 0 0 0

>  <DIFUSE_FUNC_ATOM>  (960) 
atom 6   atom 7   

>  <FINAL_SINGLE_POINT_ENERGY>  (960) 
0

>  <NONCOV_INTER_ENERGY_QM>  (960) 
0

>  <FF_Energy>  (960) 
22.45

>  <QM_Energy>  (960) 
2.09

>  <source>  (960) 
ACET_PRPA_09

>  <Index>  (960) 
31543

$$$$
ACET-pdb2ztg-A-GLU-6:PRPA-pdb2ztg-A-PRO-199
     RDKit          3D

 18 16  0  0  0  0  0  0  0  0999 V2000
   -0.0057    1.5210   -0.0064 C   0  0  0  0  0  0  0  0  0  0  0  0
   -0.4789    1.8107   -0.8163 H   0  0  0  0  0  0  0  0  0  0  0  0
    0.9297    1.8193    0.0103 H   0  0  0  0  0  0  0  0  0  0  0  0
   -0.5178    1.9403    0.8596 H   0  0  0  0  0  0  0  0  0  0  0  0
    0.0000    0.0000    0.0000 C   0  0  0  0  0  0  0  0  0  0  0  0
   -1.0947   -0.5981    0.0000 O   0  0  0  0  0  1  0  0  0  0  0  0
    1.0947   -0.5979   -0.0000 O   0  0  0  0  0  0  0  0  0  0  0  0
   -3.7094    3.5987   -3.6081 C   0  0  0  0  0  0  0  0  0  0  0  0
   -4.6547    3.8594   -3.5018 H   0  0  0  0  0  0  0  0  0  0  0  0
   -3.6173    2.6078   -4.0528 H   0  0  0  0  0  0  0  0  0  0  0  0
   -3.1854    4.2847   -4.2737 H   0  0  0  0  0  0  0  0  0  0  0  0
   -2.9917    3.4346   -2.2718 C   0  0  0  0  0  0  0  0  0  0  0  0
   -2.6063    4.2948   -1.9630 H   0  0  0  0  0  0  0  0  0  0  0  0
   -3.5929    3.0495   -1.5854 H   0  0  0  0  0  0  0  0  0  0  0  0
   -1.8913    2.4555   -2.6239 C   0  0  0  0  0  0  0  0  0  0  0  0
   -1.1966    2.8980   -3.1659 H   0  0  0  0  0  0  0  0  0  0  0  0
   -1.5154    2.0520   -1.8068 H   0  0  0  0  0  0  0  0  0  0  0  0
   -2.4351    1.7161   -3.2119 H   0  0  0  0  0  0  0  0  0  0  0  0
  1  5  1  0
  5  6  1  0
  5  7  2  0
  1  2  1  0
  1  3  1  0
  1  4  1  0
  8 12  1  0
 12 15  1  0
  8  9  1  0
  8 10  1  0
  8 11  1  0
 12 13  1  0
 12 14  1  0
 15 16  1  0
 15 17  1  0
 15 18  1  0
M  CHG  1   6  -1
M  END
>  <PDB_ID>  (961) 
pdb2ztg

>  <RESIDUE_NAME>  (961) 
GLU   PRO

>  <FRAG_NAME>  (961) 
ACET   PRPA

>  <FRAG_ATOM_NUM>  (961) 
fragi: 7  fragj: 11

>  <atom.prop.CHAIN_ID>  (961) 
A A A A A A A Z Z Z Z Z Z Z Z Z Z Z

>  <atom.prop.IS_HEAVY_ATOM>  (961) 
1 0 0 0 1 1 1 1 0 0 0 1 0 0 1 0 0 0

>  <DIFUSE_FUNC_ATOM>  (961) 
atom 6   atom 7   

>  <FINAL_SINGLE_POINT_ENERGY>  (961) 
0

>  <NONCOV_INTER_ENERGY_QM>  (961) 
0

>  <FF_Energy>  (961) 
38.49

>  <QM_Energy>  (961) 
4.17

>  <source>  (961) 
ACET_PRPA_09

>  <Index>  (961) 
32448

$$$$
ACET-pdb2ztg-A-GLU-6:PRPA-pdb2ztg-A-PRO-199
     RDKit          3D

 18 16  0  0  0  0  0  0  0  0999 V2000
   -0.0057    1.5210   -0.0064 C   0  0  0  0  0  0  0  0  0  0  0  0
   -0.4789    1.8107   -0.8163 H   0  0  0  0  0  0  0  0  0  0  0  0
    0.9297    1.8193    0.0103 H   0  0  0  0  0  0  0  0  0  0  0  0
   -0.5178    1.9403    0.8596 H   0  0  0  0  0  0  0  0  0  0  0  0
    0.0000    0.0000    0.0000 C   0  0  0  0  0  0  0  0  0  0  0  0
   -1.0947   -0.5981    0.0000 O   0  0  0  0  0  1  0  0  0  0  0  0
    1.0947   -0.5979   -0.0000 O   0  0  0  0  0  0  0  0  0  0  0  0
   -2.9917    3.4346   -2.2718 C   0  0  0  0  0  0  0  0  0  0  0  0
   -2.6063    4.2948   -1.9630 H   0  0  0  0  0  0  0  0  0  0  0  0
   -3.5929    3.0495   -1.5854 H   0  0  0  0  0  0  0  0  0  0  0  0
   -3.5045    3.5518   -3.2265 H   0  0  0  0  0  0  0  0  0  0  0  0
   -1.8913    2.4555   -2.6239 C   0  0  0  0  0  0  0  0  0  0  0  0
   -1.1966    2.8980   -3.1659 H   0  0  0  0  0  0  0  0  0  0  0  0
   -1.5154    2.0520   -1.8068 H   0  0  0  0  0  0  0  0  0  0  0  0
   -2.6489    1.4254   -3.4431 C   0  0  0  0  0  0  0  0  0  0  0  0
   -2.0389    0.9329   -4.0527 H   0  0  0  0  0  0  0  0  0  0  0  0
   -3.1400    0.7895   -2.8560 H   0  0  0  0  0  0  0  0  0  0  0  0
   -3.3424    2.0486   -4.0076 H   0  0  0  0  0  0  0  0  0  0  0  0
  1  5  1  0
  5  6  1  0
  5  7  2  0
  1  2  1  0
  1  3  1  0
  1  4  1  0
  8 12  1  0
 12 15  1  0
  8  9  1  0
  8 10  1  0
  8 11  1  0
 12 13  1  0
 12 14  1  0
 15 16  1  0
 15 17  1  0
 15 18  1  0
M  CHG  1   6  -1
M  END
>  <PDB_ID>  (962) 
pdb2ztg

>  <RESIDUE_NAME>  (962) 
GLU   PRO

>  <FRAG_NAME>  (962) 
ACET   PRPA

>  <FRAG_ATOM_NUM>  (962) 
fragi: 7  fragj: 11

>  <atom.prop.CHAIN_ID>  (962) 
A A A A A A A Z Z Z Z Z Z Z Z Z Z Z

>  <atom.prop.IS_HEAVY_ATOM>  (962) 
1 0 0 0 1 1 1 1 0 0 0 1 0 0 1 0 0 0

>  <DIFUSE_FUNC_ATOM>  (962) 
atom 6   atom 7   

>  <FINAL_SINGLE_POINT_ENERGY>  (962) 
0

>  <NONCOV_INTER_ENERGY_QM>  (962) 
0

>  <FF_Energy>  (962) 
45.14

>  <QM_Energy>  (962) 
3.07

>  <source>  (962) 
ACET_PRPA_09

>  <Index>  (962) 
32454

$$$$
ACET-pdb1t5r-G-GLU-227:PRPA-pdb1t5r-G-LYS-268
     RDKit          3D

 18 16  0  0  0  0  0  0  0  0999 V2000
   -0.0046    1.5103    0.0119 C   0  0  0  0  0  0  0  0  0  0  0  0
   -0.5014    1.8109   -0.7779 H   0  0  0  0  0  0  0  0  0  0  0  0
    0.9292    1.8089    0.0097 H   0  0  0  0  0  0  0  0  0  0  0  0
   -0.4960    1.9006    0.9031 H   0  0  0  0  0  0  0  0  0  0  0  0
    0.0000    0.0000    0.0000 C   0  0  0  0  0  0  0  0  0  0  0  0
   -1.1001   -0.5939   -0.0000 O   0  0  0  0  0  1  0  0  0  0  0  0
    1.1001   -0.5940    0.0000 O   0  0  0  0  0  0  0  0  0  0  0  0
   -0.1365    3.6587   -3.6470 C   0  0  0  0  0  0  0  0  0  0  0  0
   -0.3262    3.7974   -4.6195 H   0  0  0  0  0  0  0  0  0  0  0  0
    0.8484    3.7463   -3.4869 H   0  0  0  0  0  0  0  0  0  0  0  0
   -0.6415    4.4464   -3.0878 H   0  0  0  0  0  0  0  0  0  0  0  0
   -0.5552    2.2432   -3.2763 C   0  0  0  0  0  0  0  0  0  0  0  0
   -0.3639    2.0916   -2.3045 H   0  0  0  0  0  0  0  0  0  0  0  0
   -1.5390    2.1418   -3.4385 H   0  0  0  0  0  0  0  0  0  0  0  0
    0.1885    1.2043   -4.0921 C   0  0  0  0  0  0  0  0  0  0  0  0
   -0.0035    1.3595   -5.0631 H   0  0  0  0  0  0  0  0  0  0  0  0
    1.1708    1.3086   -3.9291 H   0  0  0  0  0  0  0  0  0  0  0  0
   -0.1008    0.1842   -3.8396 H   0  0  0  0  0  0  0  0  0  0  0  0
  1  5  1  0
  5  6  1  0
  5  7  2  0
  1  2  1  0
  1  3  1  0
  1  4  1  0
  8 12  1  0
 12 15  1  0
  8  9  1  0
  8 10  1  0
  8 11  1  0
 12 13  1  0
 12 14  1  0
 15 16  1  0
 15 17  1  0
 15 18  1  0
M  CHG  1   6  -1
M  END
>  <PDB_ID>  (963) 
pdb1t5r

>  <RESIDUE_NAME>  (963) 
GLU   LYS

>  <FRAG_NAME>  (963) 
ACET   PRPA

>  <FRAG_ATOM_NUM>  (963) 
fragi: 7  fragj: 11

>  <atom.prop.CHAIN_ID>  (963) 
A A A A A A A Z Z Z Z Z Z Z Z Z Z Z

>  <atom.prop.IS_HEAVY_ATOM>  (963) 
1 0 0 0 1 1 1 1 0 0 0 1 0 0 1 0 0 0

>  <DIFUSE_FUNC_ATOM>  (963) 
atom 6   atom 7   

>  <FINAL_SINGLE_POINT_ENERGY>  (963) 
0

>  <NONCOV_INTER_ENERGY_QM>  (963) 
0

>  <FF_Energy>  (963) 
19.59

>  <QM_Energy>  (963) 
1.78

>  <source>  (963) 
ACET_PRPA_09

>  <Index>  (963) 
33396

$$$$
ACET-pdb2zci-B-ASP-353:PRPA-pdb2zci-B-ARG-67
     RDKit          3D

 18 16  0  0  0  0  0  0  0  0999 V2000
   -0.0098    1.4618   -0.0079 C   0  0  0  0  0  0  0  0  0  0  0  0
   -0.4268    1.7957   -0.8515 H   0  0  0  0  0  0  0  0  0  0  0  0
    0.9221    1.8099    0.0673 H   0  0  0  0  0  0  0  0  0  0  0  0
   -0.5814    1.8714    0.8250 H   0  0  0  0  0  0  0  0  0  0  0  0
    0.0000    0.0000    0.0000 C   0  0  0  0  0  0  0  0  0  0  0  0
   -1.0692   -0.5487    0.0000 O   0  0  0  0  0  1  0  0  0  0  0  0
    1.0692   -0.6131   -0.0000 O   0  0  0  0  0  0  0  0  0  0  0  0
   -4.9224   -2.5359    1.3303 C   0  0  0  0  0  0  0  0  0  0  0  0
   -5.3805   -2.0625    2.0829 H   0  0  0  0  0  0  0  0  0  0  0  0
   -4.6909   -3.4659    1.6144 H   0  0  0  0  0  0  0  0  0  0  0  0
   -5.6068   -2.5898    0.4837 H   0  0  0  0  0  0  0  0  0  0  0  0
   -3.5529   -1.7829    1.0904 C   0  0  0  0  0  0  0  0  0  0  0  0
   -3.4648   -1.5681    0.1058 H   0  0  0  0  0  0  0  0  0  0  0  0
   -3.5679   -0.9055    1.5948 H   0  0  0  0  0  0  0  0  0  0  0  0
   -2.1844   -2.5222    1.5149 C   0  0  0  0  0  0  0  0  0  0  0  0
   -1.4757   -2.1353    0.9253 H   0  0  0  0  0  0  0  0  0  0  0  0
   -2.0152   -2.2502    2.4624 H   0  0  0  0  0  0  0  0  0  0  0  0
   -2.2016   -3.6085    1.4277 H   0  0  0  0  0  0  0  0  0  0  0  0
  1  5  1  0
  5  6  1  0
  5  7  2  0
  1  2  1  0
  1  3  1  0
  1  4  1  0
  8 12  1  0
 12 15  1  0
  8  9  1  0
  8 10  1  0
  8 11  1  0
 12 13  1  0
 12 14  1  0
 15 16  1  0
 15 17  1  0
 15 18  1  0
M  CHG  1   6  -1
M  END
>  <PDB_ID>  (964) 
pdb2zci

>  <RESIDUE_NAME>  (964) 
ASP   ARG

>  <FRAG_NAME>  (964) 
ACET   PRPA

>  <FRAG_ATOM_NUM>  (964) 
fragi: 7  fragj: 11

>  <atom.prop.CHAIN_ID>  (964) 
A A A A A A A Z Z Z Z Z Z Z Z Z Z Z

>  <atom.prop.IS_HEAVY_ATOM>  (964) 
1 0 0 0 1 1 1 1 0 0 0 1 0 0 1 0 0 0

>  <DIFUSE_FUNC_ATOM>  (964) 
atom 6   atom 7   

>  <FINAL_SINGLE_POINT_ENERGY>  (964) 
0

>  <NONCOV_INTER_ENERGY_QM>  (964) 
0

>  <FF_Energy>  (964) 
17.55

>  <QM_Energy>  (964) 
-1.17

>  <source>  (964) 
ACET_PRPA_09

>  <Index>  (964) 
33481

$$$$
ACET-pdb1t5o-D-ASP-146:PRPA-pdb1t5o-D-GLU-180
     RDKit          3D

 18 16  0  0  0  0  0  0  0  0999 V2000
    0.0032    1.5007    0.0012 C   0  0  0  0  0  0  0  0  0  0  0  0
   -0.3242    1.8295   -0.8790 H   0  0  0  0  0  0  0  0  0  0  0  0
    0.9278    1.8265    0.1687 H   0  0  0  0  0  0  0  0  0  0  0  0
   -0.6418    1.9203    0.7732 H   0  0  0  0  0  0  0  0  0  0  0  0
    0.0000    0.0000    0.0000 C   0  0  0  0  0  0  0  0  0  0  0  0
   -1.0984   -0.5929   -0.0000 O   0  0  0  0  0  1  0  0  0  0  0  0
    1.0984   -0.5871    0.0000 O   0  0  0  0  0  0  0  0  0  0  0  0
   -4.4028   -1.6096    1.2121 C   0  0  0  0  0  0  0  0  0  0  0  0
   -5.1865   -2.0730    0.8773 H   0  0  0  0  0  0  0  0  0  0  0  0
   -4.0199   -0.9134    0.4660 H   0  0  0  0  0  0  0  0  0  0  0  0
   -4.6943   -0.9349    2.0169 H   0  0  0  0  0  0  0  0  0  0  0  0
   -3.2849   -2.5396    1.6987 C   0  0  0  0  0  0  0  0  0  0  0  0
   -2.7568   -2.0557    2.3715 H   0  0  0  0  0  0  0  0  0  0  0  0
   -3.6995   -3.3522    2.0626 H   0  0  0  0  0  0  0  0  0  0  0  0
   -2.2973   -2.9935    0.5922 C   0  0  0  0  0  0  0  0  0  0  0  0
   -2.7977   -3.5293   -0.0589 H   0  0  0  0  0  0  0  0  0  0  0  0
   -1.8972   -2.1918    0.1944 H   0  0  0  0  0  0  0  0  0  0  0  0
   -1.4798   -3.6133    0.9604 H   0  0  0  0  0  0  0  0  0  0  0  0
  1  5  1  0
  5  6  1  0
  5  7  2  0
  1  2  1  0
  1  3  1  0
  1  4  1  0
  8 12  1  0
 12 15  1  0
  8  9  1  0
  8 10  1  0
  8 11  1  0
 12 13  1  0
 12 14  1  0
 15 16  1  0
 15 17  1  0
 15 18  1  0
M  CHG  1   6  -1
M  END
>  <PDB_ID>  (965) 
pdb1t5o

>  <RESIDUE_NAME>  (965) 
ASP   GLU

>  <FRAG_NAME>  (965) 
ACET   PRPA

>  <FRAG_ATOM_NUM>  (965) 
fragi: 7  fragj: 11

>  <atom.prop.CHAIN_ID>  (965) 
A A A A A A A Z Z Z Z Z Z Z Z Z Z Z

>  <atom.prop.IS_HEAVY_ATOM>  (965) 
1 0 0 0 1 1 1 1 0 0 0 1 0 0 1 0 0 0

>  <DIFUSE_FUNC_ATOM>  (965) 
atom 6   atom 7   

>  <FINAL_SINGLE_POINT_ENERGY>  (965) 
0

>  <NONCOV_INTER_ENERGY_QM>  (965) 
0

>  <FF_Energy>  (965) 
28.28

>  <QM_Energy>  (965) 
-0.19

>  <source>  (965) 
ACET_PRPA_09

>  <Index>  (965) 
33508

$$$$
ACET-pdb1u4f-A-GLU-191:PRPA-pdb1u4f-A-LYS-188
     RDKit          3D

 18 16  0  0  0  0  0  0  0  0999 V2000
    0.0022    1.5176   -0.0070 C   0  0  0  0  0  0  0  0  0  0  0  0
    0.9408    1.8129   -0.0051 H   0  0  0  0  0  0  0  0  0  0  0  0
   -0.4820    1.8179    0.7952 H   0  0  0  0  0  0  0  0  0  0  0  0
   -0.4878    1.9408   -0.8838 H   0  0  0  0  0  0  0  0  0  0  0  0
    0.0000    0.0000    0.0000 C   0  0  0  0  0  0  0  0  0  0  0  0
   -1.0987   -0.5922    0.0000 O   0  0  0  0  0  1  0  0  0  0  0  0
    1.0987   -0.5995    0.0000 O   0  0  0  0  0  0  0  0  0  0  0  0
    2.1629    2.8747    1.8208 C   0  0  0  0  0  0  0  0  0  0  0  0
    1.5878    2.1586    1.3954 H   0  0  0  0  0  0  0  0  0  0  0  0
    3.0186    2.3994    2.3003 H   0  0  0  0  0  0  0  0  0  0  0  0
    2.4683    3.5805    1.0482 H   0  0  0  0  0  0  0  0  0  0  0  0
    1.2878    3.5789    2.8603 C   0  0  0  0  0  0  0  0  0  0  0  0
    1.8306    3.7196    3.6814 H   0  0  0  0  0  0  0  0  0  0  0  0
    0.9995    4.4530    2.4839 H   0  0  0  0  0  0  0  0  0  0  0  0
    0.0471    2.7837    3.2349 C   0  0  0  0  0  0  0  0  0  0  0  0
   -0.5687    2.7521    2.4436 H   0  0  0  0  0  0  0  0  0  0  0  0
    0.3198    1.8486    3.4743 H   0  0  0  0  0  0  0  0  0  0  0  0
   -0.4816    3.2273    4.0786 H   0  0  0  0  0  0  0  0  0  0  0  0
  1  5  1  0
  5  6  1  0
  5  7  2  0
  1  2  1  0
  1  3  1  0
  1  4  1  0
  8 12  1  0
 12 15  1  0
  8  9  1  0
  8 10  1  0
  8 11  1  0
 12 13  1  0
 12 14  1  0
 15 16  1  0
 15 17  1  0
 15 18  1  0
M  CHG  1   6  -1
M  END
>  <PDB_ID>  (966) 
pdb1u4f

>  <RESIDUE_NAME>  (966) 
GLU   LYS

>  <FRAG_NAME>  (966) 
ACET   PRPA

>  <FRAG_ATOM_NUM>  (966) 
fragi: 7  fragj: 11

>  <atom.prop.CHAIN_ID>  (966) 
A A A A A A A Z Z Z Z Z Z Z Z Z Z Z

>  <atom.prop.IS_HEAVY_ATOM>  (966) 
1 0 0 0 1 1 1 1 0 0 0 1 0 0 1 0 0 0

>  <DIFUSE_FUNC_ATOM>  (966) 
atom 6   atom 7   

>  <FINAL_SINGLE_POINT_ENERGY>  (966) 
0

>  <NONCOV_INTER_ENERGY_QM>  (966) 
0

>  <FF_Energy>  (966) 
21.66

>  <QM_Energy>  (966) 
4.81

>  <source>  (966) 
ACET_PRPA_09

>  <Index>  (966) 
33969

$$$$
ACET-pdb2zxo-A-GLU-60:PRPA-pdb2zxo-A-LEU-171
     RDKit          3D

 18 16  0  0  0  0  0  0  0  0999 V2000
   -0.0386    1.5250   -0.0037 C   0  0  0  0  0  0  0  0  0  0  0  0
   -0.5731    1.8121    0.7773 H   0  0  0  0  0  0  0  0  0  0  0  0
   -0.4601    1.8106   -0.8518 H   0  0  0  0  0  0  0  0  0  0  0  0
    0.9350    2.0102    0.0641 H   0  0  0  0  0  0  0  0  0  0  0  0
    0.0000    0.0000    0.0000 C   0  0  0  0  0  0  0  0  0  0  0  0
   -1.1095   -0.5937   -0.0000 O   0  0  0  0  0  1  0  0  0  0  0  0
    1.1095   -0.6023   -0.0000 O   0  0  0  0  0  0  0  0  0  0  0  0
    1.9008    0.3536    3.6959 C   0  0  0  0  0  0  0  0  0  0  0  0
    2.2575   -0.5201    4.0223 H   0  0  0  0  0  0  0  0  0  0  0  0
    2.1807    0.4991    2.7492 H   0  0  0  0  0  0  0  0  0  0  0  0
    2.2488    1.0942    4.2678 H   0  0  0  0  0  0  0  0  0  0  0  0
    0.3697    0.3345    3.7718 C   0  0  0  0  0  0  0  0  0  0  0  0
    0.0182    1.2076    3.4512 H   0  0  0  0  0  0  0  0  0  0  0  0
    0.0619    0.1757    4.8054 H   0  0  0  0  0  0  0  0  0  0  0  0
   -0.2271   -0.7765    2.9127 C   0  0  0  0  0  0  0  0  0  0  0  0
   -1.2241   -0.7498    2.9800 H   0  0  0  0  0  0  0  0  0  0  0  0
    0.0471   -0.6441    1.9605 H   0  0  0  0  0  0  0  0  0  0  0  0
    0.1063   -1.6621    3.2358 H   0  0  0  0  0  0  0  0  0  0  0  0
  1  5  1  0
  5  6  1  0
  5  7  2  0
  1  2  1  0
  1  3  1  0
  1  4  1  0
  8 12  1  0
 12 15  1  0
  8  9  1  0
  8 10  1  0
  8 11  1  0
 12 13  1  0
 12 14  1  0
 15 16  1  0
 15 17  1  0
 15 18  1  0
M  CHG  1   6  -1
M  END
>  <PDB_ID>  (967) 
pdb2zxo

>  <RESIDUE_NAME>  (967) 
GLU   LEU

>  <FRAG_NAME>  (967) 
ACET   PRPA

>  <FRAG_ATOM_NUM>  (967) 
fragi: 7  fragj: 11

>  <atom.prop.CHAIN_ID>  (967) 
A A A A A A A Z Z Z Z Z Z Z Z Z Z Z

>  <atom.prop.IS_HEAVY_ATOM>  (967) 
1 0 0 0 1 1 1 1 0 0 0 1 0 0 1 0 0 0

>  <DIFUSE_FUNC_ATOM>  (967) 
atom 6   atom 7   

>  <FINAL_SINGLE_POINT_ENERGY>  (967) 
0

>  <NONCOV_INTER_ENERGY_QM>  (967) 
0

>  <FF_Energy>  (967) 
15.09

>  <QM_Energy>  (967) 
-0.57

>  <source>  (967) 
ACET_PRPA_09

>  <Index>  (967) 
34309

$$$$
ACET-pdb2zci-B-ASP-463:PRPA-pdb2zci-B-PRO-271
     RDKit          3D

 18 16  0  0  0  0  0  0  0  0999 V2000
   -0.0018    1.5604    0.0007 C   0  0  0  0  0  0  0  0  0  0  0  0
    0.5612    1.8583   -0.7596 H   0  0  0  0  0  0  0  0  0  0  0  0
    0.3870    1.8570    0.8632 H   0  0  0  0  0  0  0  0  0  0  0  0
   -0.9992    1.9867   -0.1068 H   0  0  0  0  0  0  0  0  0  0  0  0
    0.0000    0.0000    0.0000 C   0  0  0  0  0  0  0  0  0  0  0  0
   -1.0950   -0.5967    0.0000 O   0  0  0  0  0  1  0  0  0  0  0  0
    1.0950   -0.6777   -0.0000 O   0  0  0  0  0  0  0  0  0  0  0  0
    3.8902   -1.2550    2.1837 C   0  0  0  0  0  0  0  0  0  0  0  0
    3.2226   -1.9955    2.0085 H   0  0  0  0  0  0  0  0  0  0  0  0
    3.8945   -0.9893    3.2408 H   0  0  0  0  0  0  0  0  0  0  0  0
    4.8728   -1.5371    1.8057 H   0  0  0  0  0  0  0  0  0  0  0  0
    3.4479    0.0196    1.4953 C   0  0  0  0  0  0  0  0  0  0  0  0
    4.1744    0.3821    0.8953 H   0  0  0  0  0  0  0  0  0  0  0  0
    2.6269   -0.1350    0.9310 H   0  0  0  0  0  0  0  0  0  0  0  0
    3.1426    1.0100    2.5980 C   0  0  0  0  0  0  0  0  0  0  0  0
    3.4135    1.9347    2.3058 H   0  0  0  0  0  0  0  0  0  0  0  0
    2.1532    1.0136    2.7832 H   0  0  0  0  0  0  0  0  0  0  0  0
    3.7161    0.6735    3.4618 H   0  0  0  0  0  0  0  0  0  0  0  0
  1  5  1  0
  5  6  1  0
  5  7  2  0
  1  2  1  0
  1  3  1  0
  1  4  1  0
  8 12  1  0
 12 15  1  0
  8  9  1  0
  8 10  1  0
  8 11  1  0
 12 13  1  0
 12 14  1  0
 15 16  1  0
 15 17  1  0
 15 18  1  0
M  CHG  1   6  -1
M  END
>  <PDB_ID>  (968) 
pdb2zci

>  <RESIDUE_NAME>  (968) 
ASP   PRO

>  <FRAG_NAME>  (968) 
ACET   PRPA

>  <FRAG_ATOM_NUM>  (968) 
fragi: 7  fragj: 11

>  <atom.prop.CHAIN_ID>  (968) 
A A A A A A A Z Z Z Z Z Z Z Z Z Z Z

>  <atom.prop.IS_HEAVY_ATOM>  (968) 
1 0 0 0 1 1 1 1 0 0 0 1 0 0 1 0 0 0

>  <DIFUSE_FUNC_ATOM>  (968) 
atom 6   atom 7   

>  <FINAL_SINGLE_POINT_ENERGY>  (968) 
0

>  <NONCOV_INTER_ENERGY_QM>  (968) 
0

>  <FF_Energy>  (968) 
18.41

>  <QM_Energy>  (968) 
-2.65

>  <source>  (968) 
ACET_PRPA_09

>  <Index>  (968) 
34558

$$$$
ACET-pdb2zci-B-ASP-463:PRPA-pdb2zci-B-PRO-271
     RDKit          3D

 18 16  0  0  0  0  0  0  0  0999 V2000
   -0.0018    1.5604    0.0007 C   0  0  0  0  0  0  0  0  0  0  0  0
    0.5612    1.8583   -0.7596 H   0  0  0  0  0  0  0  0  0  0  0  0
    0.3870    1.8570    0.8632 H   0  0  0  0  0  0  0  0  0  0  0  0
   -0.9992    1.9867   -0.1068 H   0  0  0  0  0  0  0  0  0  0  0  0
    0.0000    0.0000    0.0000 C   0  0  0  0  0  0  0  0  0  0  0  0
   -1.0950   -0.5967    0.0000 O   0  0  0  0  0  1  0  0  0  0  0  0
    1.0950   -0.6777   -0.0000 O   0  0  0  0  0  0  0  0  0  0  0  0
    3.4479    0.0196    1.4953 C   0  0  0  0  0  0  0  0  0  0  0  0
    4.1744    0.3821    0.8953 H   0  0  0  0  0  0  0  0  0  0  0  0
    2.6269   -0.1350    0.9310 H   0  0  0  0  0  0  0  0  0  0  0  0
    3.7662   -0.8977    1.9908 H   0  0  0  0  0  0  0  0  0  0  0  0
    3.1426    1.0100    2.5980 C   0  0  0  0  0  0  0  0  0  0  0  0
    3.4135    1.9347    2.3058 H   0  0  0  0  0  0  0  0  0  0  0  0
    2.1532    1.0136    2.7832 H   0  0  0  0  0  0  0  0  0  0  0  0
    3.9203    0.5538    3.7692 C   0  0  0  0  0  0  0  0  0  0  0  0
    4.8627    0.8955    3.7496 H   0  0  0  0  0  0  0  0  0  0  0  0
    3.4914    0.8280    4.6343 H   0  0  0  0  0  0  0  0  0  0  0  0
    3.9022   -0.5304    3.6582 H   0  0  0  0  0  0  0  0  0  0  0  0
  1  5  1  0
  5  6  1  0
  5  7  2  0
  1  2  1  0
  1  3  1  0
  1  4  1  0
  8 12  1  0
 12 15  1  0
  8  9  1  0
  8 10  1  0
  8 11  1  0
 12 13  1  0
 12 14  1  0
 15 16  1  0
 15 17  1  0
 15 18  1  0
M  CHG  1   6  -1
M  END
>  <PDB_ID>  (969) 
pdb2zci

>  <RESIDUE_NAME>  (969) 
ASP   PRO

>  <FRAG_NAME>  (969) 
ACET   PRPA

>  <FRAG_ATOM_NUM>  (969) 
fragi: 7  fragj: 11

>  <atom.prop.CHAIN_ID>  (969) 
A A A A A A A Z Z Z Z Z Z Z Z Z Z Z

>  <atom.prop.IS_HEAVY_ATOM>  (969) 
1 0 0 0 1 1 1 1 0 0 0 1 0 0 1 0 0 0

>  <DIFUSE_FUNC_ATOM>  (969) 
atom 6   atom 7   

>  <FINAL_SINGLE_POINT_ENERGY>  (969) 
0

>  <NONCOV_INTER_ENERGY_QM>  (969) 
0

>  <FF_Energy>  (969) 
15.34

>  <QM_Energy>  (969) 
-1.12

>  <source>  (969) 
ACET_PRPA_09

>  <Index>  (969) 
34563

$$$$
ACET-pdb1u94-A-GLU-31:PRPA-pdb1u94-A-ARG-28
     RDKit          3D

 18 16  0  0  0  0  0  0  0  0999 V2000
    0.0005    1.5155    0.0211 C   0  0  0  0  0  0  0  0  0  0  0  0
   -0.7421    1.8186   -0.5430 H   0  0  0  0  0  0  0  0  0  0  0  0
    0.8733    1.8139   -0.3105 H   0  0  0  0  0  0  0  0  0  0  0  0
   -0.1440    1.9083    1.0275 H   0  0  0  0  0  0  0  0  0  0  0  0
    0.0000    0.0000    0.0000 C   0  0  0  0  0  0  0  0  0  0  0  0
   -1.0995   -0.5956    0.0000 O   0  0  0  0  0  1  0  0  0  0  0  0
    1.0995   -0.5956    0.0000 O   0  0  0  0  0  0  0  0  0  0  0  0
    3.7434    1.6047   -1.4344 C   0  0  0  0  0  0  0  0  0  0  0  0
    4.5448    1.5873   -2.0068 H   0  0  0  0  0  0  0  0  0  0  0  0
    3.6864    0.6738   -0.8702 H   0  0  0  0  0  0  0  0  0  0  0  0
    3.8601    2.3826   -0.6799 H   0  0  0  0  0  0  0  0  0  0  0  0
    2.4596    1.8679   -2.2302 C   0  0  0  0  0  0  0  0  0  0  0  0
    1.6905    1.8437   -1.5898 H   0  0  0  0  0  0  0  0  0  0  0  0
    2.5275    2.7842   -2.6290 H   0  0  0  0  0  0  0  0  0  0  0  0
    2.1791    0.8861   -3.3449 C   0  0  0  0  0  0  0  0  0  0  0  0
    2.9973    0.7624   -3.9016 H   0  0  0  0  0  0  0  0  0  0  0  0
    1.8922    0.0116   -2.9618 H   0  0  0  0  0  0  0  0  0  0  0  0
    1.3817    1.2385   -3.9992 H   0  0  0  0  0  0  0  0  0  0  0  0
  1  5  1  0
  5  6  1  0
  5  7  2  0
  1  2  1  0
  1  3  1  0
  1  4  1  0
  8 12  1  0
 12 15  1  0
  8  9  1  0
  8 10  1  0
  8 11  1  0
 12 13  1  0
 12 14  1  0
 15 16  1  0
 15 17  1  0
 15 18  1  0
M  CHG  1   6  -1
M  END
>  <PDB_ID>  (970) 
pdb1u94

>  <RESIDUE_NAME>  (970) 
GLU   ARG

>  <FRAG_NAME>  (970) 
ACET   PRPA

>  <FRAG_ATOM_NUM>  (970) 
fragi: 7  fragj: 11

>  <atom.prop.CHAIN_ID>  (970) 
A A A A A A A Z Z Z Z Z Z Z Z Z Z Z

>  <atom.prop.IS_HEAVY_ATOM>  (970) 
1 0 0 0 1 1 1 1 0 0 0 1 0 0 1 0 0 0

>  <DIFUSE_FUNC_ATOM>  (970) 
atom 6   atom 7   

>  <FINAL_SINGLE_POINT_ENERGY>  (970) 
0

>  <NONCOV_INTER_ENERGY_QM>  (970) 
0

>  <FF_Energy>  (970) 
27.4

>  <QM_Energy>  (970) 
0.52

>  <source>  (970) 
ACET_PRPA_09

>  <Index>  (970) 
35643

$$$$
ACET-pdb1u94-A-GLU-31:PRPA-pdb1u94-A-ARG-28
     RDKit          3D

 18 16  0  0  0  0  0  0  0  0999 V2000
    0.0005    1.5155    0.0211 C   0  0  0  0  0  0  0  0  0  0  0  0
   -0.7421    1.8186   -0.5430 H   0  0  0  0  0  0  0  0  0  0  0  0
    0.8733    1.8139   -0.3105 H   0  0  0  0  0  0  0  0  0  0  0  0
   -0.1440    1.9083    1.0275 H   0  0  0  0  0  0  0  0  0  0  0  0
    0.0000    0.0000    0.0000 C   0  0  0  0  0  0  0  0  0  0  0  0
   -1.0995   -0.5956    0.0000 O   0  0  0  0  0  1  0  0  0  0  0  0
    1.0995   -0.5956    0.0000 O   0  0  0  0  0  0  0  0  0  0  0  0
    2.4596    1.8679   -2.2302 C   0  0  0  0  0  0  0  0  0  0  0  0
    1.6905    1.8437   -1.5898 H   0  0  0  0  0  0  0  0  0  0  0  0
    2.5275    2.7842   -2.6290 H   0  0  0  0  0  0  0  0  0  0  0  0
    3.3723    1.6807   -1.6645 H   0  0  0  0  0  0  0  0  0  0  0  0
    2.1791    0.8861   -3.3449 C   0  0  0  0  0  0  0  0  0  0  0  0
    2.9973    0.7624   -3.9016 H   0  0  0  0  0  0  0  0  0  0  0  0
    1.8922    0.0116   -2.9618 H   0  0  0  0  0  0  0  0  0  0  0  0
    1.0596    1.3808   -4.2635 C   0  0  0  0  0  0  0  0  0  0  0  0
    1.3907    2.1962   -4.7377 H   0  0  0  0  0  0  0  0  0  0  0  0
    0.8712    0.6598   -4.9311 H   0  0  0  0  0  0  0  0  0  0  0  0
    0.1420    1.6240   -3.7279 H   0  0  0  0  0  0  0  0  0  0  0  0
  1  5  1  0
  5  6  1  0
  5  7  2  0
  1  2  1  0
  1  3  1  0
  1  4  1  0
  8 12  1  0
 12 15  1  0
  8  9  1  0
  8 10  1  0
  8 11  1  0
 12 13  1  0
 12 14  1  0
 15 16  1  0
 15 17  1  0
 15 18  1  0
M  CHG  1   6  -1
M  END
>  <PDB_ID>  (971) 
pdb1u94

>  <RESIDUE_NAME>  (971) 
GLU   ARG

>  <FRAG_NAME>  (971) 
ACET   PRPA

>  <FRAG_ATOM_NUM>  (971) 
fragi: 7  fragj: 11

>  <atom.prop.CHAIN_ID>  (971) 
A A A A A A A Z Z Z Z Z Z Z Z Z Z Z

>  <atom.prop.IS_HEAVY_ATOM>  (971) 
1 0 0 0 1 1 1 1 0 0 0 1 0 0 1 0 0 0

>  <DIFUSE_FUNC_ATOM>  (971) 
atom 6   atom 7   

>  <FINAL_SINGLE_POINT_ENERGY>  (971) 
0

>  <NONCOV_INTER_ENERGY_QM>  (971) 
0

>  <FF_Energy>  (971) 
23.48

>  <QM_Energy>  (971) 
1.64

>  <source>  (971) 
ACET_PRPA_09

>  <Index>  (971) 
35650

$$$$
ACET-pdb2zyh-A-GLU-194:PRPA-pdb2zyh-A-LEU-191
     RDKit          3D

 18 16  0  0  0  0  0  0  0  0999 V2000
   -0.0090    1.5097   -0.0293 C   0  0  0  0  0  0  0  0  0  0  0  0
    0.8907    1.8209    0.2061 H   0  0  0  0  0  0  0  0  0  0  0  0
   -0.6931    1.8186    0.6022 H   0  0  0  0  0  0  0  0  0  0  0  0
   -0.2552    1.8999   -1.0167 H   0  0  0  0  0  0  0  0  0  0  0  0
    0.0000    0.0000    0.0000 C   0  0  0  0  0  0  0  0  0  0  0  0
   -1.1068   -0.5862   -0.0000 O   0  0  0  0  0  1  0  0  0  0  0  0
    1.1068   -0.5898    0.0000 O   0  0  0  0  0  0  0  0  0  0  0  0
   -0.6359   -3.2753    1.4859 C   0  0  0  0  0  0  0  0  0  0  0  0
    0.0655   -2.7564    2.0069 H   0  0  0  0  0  0  0  0  0  0  0  0
   -0.6283   -4.3090    1.8317 H   0  0  0  0  0  0  0  0  0  0  0  0
   -1.5935   -2.7726    1.6214 H   0  0  0  0  0  0  0  0  0  0  0  0
   -0.2195   -3.2055    0.0077 C   0  0  0  0  0  0  0  0  0  0  0  0
   -0.8555   -3.7925   -0.5143 H   0  0  0  0  0  0  0  0  0  0  0  0
   -0.3548   -2.2533   -0.3015 H   0  0  0  0  0  0  0  0  0  0  0  0
    1.2053   -3.6122   -0.4067 C   0  0  0  0  0  0  0  0  0  0  0  0
    1.2394   -4.5917   -0.5385 H   0  0  0  0  0  0  0  0  0  0  0  0
    1.4547   -3.1175   -1.3454 H   0  0  0  0  0  0  0  0  0  0  0  0
    1.9226   -3.3366    0.3664 H   0  0  0  0  0  0  0  0  0  0  0  0
  1  5  1  0
  5  6  1  0
  5  7  2  0
  1  2  1  0
  1  3  1  0
  1  4  1  0
  8 12  1  0
 12 15  1  0
  8  9  1  0
  8 10  1  0
  8 11  1  0
 12 13  1  0
 12 14  1  0
 15 16  1  0
 15 17  1  0
 15 18  1  0
M  CHG  1   6  -1
M  END
>  <PDB_ID>  (972) 
pdb2zyh

>  <RESIDUE_NAME>  (972) 
GLU   LEU

>  <FRAG_NAME>  (972) 
ACET   PRPA

>  <FRAG_ATOM_NUM>  (972) 
fragi: 7  fragj: 11

>  <atom.prop.CHAIN_ID>  (972) 
A A A A A A A Z Z Z Z Z Z Z Z Z Z Z

>  <atom.prop.IS_HEAVY_ATOM>  (972) 
1 0 0 0 1 1 1 1 0 0 0 1 0 0 1 0 0 0

>  <DIFUSE_FUNC_ATOM>  (972) 
atom 6   atom 7   

>  <FINAL_SINGLE_POINT_ENERGY>  (972) 
0

>  <NONCOV_INTER_ENERGY_QM>  (972) 
0

>  <FF_Energy>  (972) 
30.41

>  <QM_Energy>  (972) 
0.84

>  <source>  (972) 
ACET_PRPA_09

>  <Index>  (972) 
35666

$$$$
ACET-pdb2zyh-A-GLU-194:PRPA-pdb2zyh-A-LEU-191
     RDKit          3D

 18 16  0  0  0  0  0  0  0  0999 V2000
   -0.0090    1.5097   -0.0293 C   0  0  0  0  0  0  0  0  0  0  0  0
    0.8907    1.8209    0.2061 H   0  0  0  0  0  0  0  0  0  0  0  0
   -0.6931    1.8186    0.6022 H   0  0  0  0  0  0  0  0  0  0  0  0
   -0.2552    1.8999   -1.0167 H   0  0  0  0  0  0  0  0  0  0  0  0
    0.0000    0.0000    0.0000 C   0  0  0  0  0  0  0  0  0  0  0  0
   -1.1068   -0.5862   -0.0000 O   0  0  0  0  0  1  0  0  0  0  0  0
    1.1068   -0.5898    0.0000 O   0  0  0  0  0  0  0  0  0  0  0  0
   -0.2195   -3.2055    0.0077 C   0  0  0  0  0  0  0  0  0  0  0  0
   -0.8555   -3.7925   -0.5143 H   0  0  0  0  0  0  0  0  0  0  0  0
   -0.3548   -2.2533   -0.3015 H   0  0  0  0  0  0  0  0  0  0  0  0
   -0.5147   -3.2550    1.0558 H   0  0  0  0  0  0  0  0  0  0  0  0
    1.2053   -3.6122   -0.4067 C   0  0  0  0  0  0  0  0  0  0  0  0
    1.2394   -4.5917   -0.5385 H   0  0  0  0  0  0  0  0  0  0  0  0
    1.9226   -3.3366    0.3664 H   0  0  0  0  0  0  0  0  0  0  0  0
    1.5585   -2.9114   -1.7364 C   0  0  0  0  0  0  0  0  0  0  0  0
    1.5096   -1.9247   -1.6050 H   0  0  0  0  0  0  0  0  0  0  0  0
    2.4817   -3.1741   -2.0056 H   0  0  0  0  0  0  0  0  0  0  0  0
    0.9058   -3.1950   -2.4346 H   0  0  0  0  0  0  0  0  0  0  0  0
  1  5  1  0
  5  6  1  0
  5  7  2  0
  1  2  1  0
  1  3  1  0
  1  4  1  0
  8 12  1  0
 12 15  1  0
  8  9  1  0
  8 10  1  0
  8 11  1  0
 12 13  1  0
 12 14  1  0
 15 16  1  0
 15 17  1  0
 15 18  1  0
M  CHG  1   6  -1
M  END
>  <PDB_ID>  (973) 
pdb2zyh

>  <RESIDUE_NAME>  (973) 
GLU   LEU

>  <FRAG_NAME>  (973) 
ACET   PRPA

>  <FRAG_ATOM_NUM>  (973) 
fragi: 7  fragj: 11

>  <atom.prop.CHAIN_ID>  (973) 
A A A A A A A Z Z Z Z Z Z Z Z Z Z Z

>  <atom.prop.IS_HEAVY_ATOM>  (973) 
1 0 0 0 1 1 1 1 0 0 0 1 0 0 1 0 0 0

>  <DIFUSE_FUNC_ATOM>  (973) 
atom 6   atom 7   

>  <FINAL_SINGLE_POINT_ENERGY>  (973) 
0

>  <NONCOV_INTER_ENERGY_QM>  (973) 
0

>  <FF_Energy>  (973) 
30.43

>  <QM_Energy>  (973) 
3.18

>  <source>  (973) 
ACET_PRPA_09

>  <Index>  (973) 
35671

$$$$
ACET-pdb2zyh-A-GLU-194:PRPA-pdb2zyh-A-LEU-191
     RDKit          3D

 18 16  0  0  0  0  0  0  0  0999 V2000
   -0.0090    1.5097   -0.0293 C   0  0  0  0  0  0  0  0  0  0  0  0
    0.8907    1.8209    0.2061 H   0  0  0  0  0  0  0  0  0  0  0  0
   -0.6931    1.8186    0.6022 H   0  0  0  0  0  0  0  0  0  0  0  0
   -0.2552    1.8999   -1.0167 H   0  0  0  0  0  0  0  0  0  0  0  0
    0.0000    0.0000    0.0000 C   0  0  0  0  0  0  0  0  0  0  0  0
   -1.1068   -0.5862   -0.0000 O   0  0  0  0  0  1  0  0  0  0  0  0
    1.1068   -0.5898    0.0000 O   0  0  0  0  0  0  0  0  0  0  0  0
   -0.2195   -3.2055    0.0077 C   0  0  0  0  0  0  0  0  0  0  0  0
   -0.8555   -3.7925   -0.5143 H   0  0  0  0  0  0  0  0  0  0  0  0
   -0.3548   -2.2533   -0.3015 H   0  0  0  0  0  0  0  0  0  0  0  0
   -0.5147   -3.2550    1.0558 H   0  0  0  0  0  0  0  0  0  0  0  0
    1.2053   -3.6122   -0.4067 C   0  0  0  0  0  0  0  0  0  0  0  0
    1.2394   -4.5917   -0.5385 H   0  0  0  0  0  0  0  0  0  0  0  0
    1.4547   -3.1175   -1.3454 H   0  0  0  0  0  0  0  0  0  0  0  0
    2.2181   -3.2230    0.6849 C   0  0  0  0  0  0  0  0  0  0  0  0
    1.9790   -3.6901    1.5333 H   0  0  0  0  0  0  0  0  0  0  0  0
    3.1318   -3.4964    0.3937 H   0  0  0  0  0  0  0  0  0  0  0  0
    2.1867   -2.2354    0.8214 H   0  0  0  0  0  0  0  0  0  0  0  0
  1  5  1  0
  5  6  1  0
  5  7  2  0
  1  2  1  0
  1  3  1  0
  1  4  1  0
  8 12  1  0
 12 15  1  0
  8  9  1  0
  8 10  1  0
  8 11  1  0
 12 13  1  0
 12 14  1  0
 15 16  1  0
 15 17  1  0
 15 18  1  0
M  CHG  1   6  -1
M  END
>  <PDB_ID>  (974) 
pdb2zyh

>  <RESIDUE_NAME>  (974) 
GLU   LEU

>  <FRAG_NAME>  (974) 
ACET   PRPA

>  <FRAG_ATOM_NUM>  (974) 
fragi: 7  fragj: 11

>  <atom.prop.CHAIN_ID>  (974) 
A A A A A A A Z Z Z Z Z Z Z Z Z Z Z

>  <atom.prop.IS_HEAVY_ATOM>  (974) 
1 0 0 0 1 1 1 1 0 0 0 1 0 0 1 0 0 0

>  <DIFUSE_FUNC_ATOM>  (974) 
atom 6   atom 7   

>  <FINAL_SINGLE_POINT_ENERGY>  (974) 
0

>  <NONCOV_INTER_ENERGY_QM>  (974) 
0

>  <FF_Energy>  (974) 
30.13

>  <QM_Energy>  (974) 
3.17

>  <source>  (974) 
ACET_PRPA_09

>  <Index>  (974) 
35679

$$$$
ACET-pdb1tqj-D-GLU-73:PRPA-pdb1tqj-D-LYS-76
     RDKit          3D

 18 16  0  0  0  0  0  0  0  0999 V2000
   -0.0103    1.5212   -0.0487 C   0  0  0  0  0  0  0  0  0  0  0  0
    0.8676    1.8083   -0.3643 H   0  0  0  0  0  0  0  0  0  0  0  0
   -0.2225    1.8389    0.8504 H   0  0  0  0  0  0  0  0  0  0  0  0
   -0.7697    1.8838   -0.7415 H   0  0  0  0  0  0  0  0  0  0  0  0
    0.0000    0.0000    0.0000 C   0  0  0  0  0  0  0  0  0  0  0  0
   -1.1096   -0.6155   -0.0000 O   0  0  0  0  0  1  0  0  0  0  0  0
    1.1096   -0.5762    0.0000 O   0  0  0  0  0  0  0  0  0  0  0  0
   -3.7270    0.0692   -4.3888 C   0  0  0  0  0  0  0  0  0  0  0  0
   -4.2148    0.8189   -3.9177 H   0  0  0  0  0  0  0  0  0  0  0  0
   -4.3358   -0.7378   -4.3952 H   0  0  0  0  0  0  0  0  0  0  0  0
   -3.5040    0.3656   -5.4137 H   0  0  0  0  0  0  0  0  0  0  0  0
   -2.5174   -0.2910   -3.5182 C   0  0  0  0  0  0  0  0  0  0  0  0
   -2.0265   -1.0529   -3.9534 H   0  0  0  0  0  0  0  0  0  0  0  0
   -1.9055    0.5038   -3.4759 H   0  0  0  0  0  0  0  0  0  0  0  0
   -2.9061   -0.6939   -2.1101 C   0  0  0  0  0  0  0  0  0  0  0  0
   -3.1242   -1.6737   -2.1073 H   0  0  0  0  0  0  0  0  0  0  0  0
   -2.1235   -0.5338   -1.5031 H   0  0  0  0  0  0  0  0  0  0  0  0
   -3.7651   -0.1409   -1.7298 H   0  0  0  0  0  0  0  0  0  0  0  0
  1  5  1  0
  5  6  1  0
  5  7  2  0
  1  2  1  0
  1  3  1  0
  1  4  1  0
  8 12  1  0
 12 15  1  0
  8  9  1  0
  8 10  1  0
  8 11  1  0
 12 13  1  0
 12 14  1  0
 15 16  1  0
 15 17  1  0
 15 18  1  0
M  CHG  1   6  -1
M  END
>  <PDB_ID>  (975) 
pdb1tqj

>  <RESIDUE_NAME>  (975) 
GLU   LYS

>  <FRAG_NAME>  (975) 
ACET   PRPA

>  <FRAG_ATOM_NUM>  (975) 
fragi: 7  fragj: 11

>  <atom.prop.CHAIN_ID>  (975) 
A A A A A A A Z Z Z Z Z Z Z Z Z Z Z

>  <atom.prop.IS_HEAVY_ATOM>  (975) 
1 0 0 0 1 1 1 1 0 0 0 1 0 0 1 0 0 0

>  <DIFUSE_FUNC_ATOM>  (975) 
atom 6   atom 7   

>  <FINAL_SINGLE_POINT_ENERGY>  (975) 
0

>  <NONCOV_INTER_ENERGY_QM>  (975) 
0

>  <FF_Energy>  (975) 
24.54

>  <QM_Energy>  (975) 
0.44

>  <source>  (975) 
ACET_PRPA_09

>  <Index>  (975) 
35741

$$$$
ACET-pdb1tqj-D-GLU-73:PRPA-pdb1tqj-D-LYS-76
     RDKit          3D

 18 16  0  0  0  0  0  0  0  0999 V2000
   -0.0103    1.5212   -0.0487 C   0  0  0  0  0  0  0  0  0  0  0  0
    0.8676    1.8083   -0.3643 H   0  0  0  0  0  0  0  0  0  0  0  0
   -0.2225    1.8389    0.8504 H   0  0  0  0  0  0  0  0  0  0  0  0
   -0.7697    1.8838   -0.7415 H   0  0  0  0  0  0  0  0  0  0  0  0
    0.0000    0.0000    0.0000 C   0  0  0  0  0  0  0  0  0  0  0  0
   -1.1096   -0.6155   -0.0000 O   0  0  0  0  0  1  0  0  0  0  0  0
    1.1096   -0.5762    0.0000 O   0  0  0  0  0  0  0  0  0  0  0  0
   -2.5174   -0.2910   -3.5182 C   0  0  0  0  0  0  0  0  0  0  0  0
   -2.0265   -1.0529   -3.9534 H   0  0  0  0  0  0  0  0  0  0  0  0
   -1.9055    0.5038   -3.4759 H   0  0  0  0  0  0  0  0  0  0  0  0
   -3.3774   -0.0349   -4.1371 H   0  0  0  0  0  0  0  0  0  0  0  0
   -2.9061   -0.6939   -2.1101 C   0  0  0  0  0  0  0  0  0  0  0  0
   -3.1242   -1.6737   -2.1073 H   0  0  0  0  0  0  0  0  0  0  0  0
   -2.1235   -0.5338   -1.5031 H   0  0  0  0  0  0  0  0  0  0  0  0
   -4.0890    0.0676   -1.5864 C   0  0  0  0  0  0  0  0  0  0  0  0
   -3.8787    1.0485   -1.5807 H   0  0  0  0  0  0  0  0  0  0  0  0
   -4.8795   -0.0920   -2.1836 H   0  0  0  0  0  0  0  0  0  0  0  0
   -4.3413   -0.2474   -0.5738 H   0  0  0  0  0  0  0  0  0  0  0  0
  1  5  1  0
  5  6  1  0
  5  7  2  0
  1  2  1  0
  1  3  1  0
  1  4  1  0
  8 12  1  0
 12 15  1  0
  8  9  1  0
  8 10  1  0
  8 11  1  0
 12 13  1  0
 12 14  1  0
 15 16  1  0
 15 17  1  0
 15 18  1  0
M  CHG  1   6  -1
M  END
>  <PDB_ID>  (976) 
pdb1tqj

>  <RESIDUE_NAME>  (976) 
GLU   LYS

>  <FRAG_NAME>  (976) 
ACET   PRPA

>  <FRAG_ATOM_NUM>  (976) 
fragi: 7  fragj: 11

>  <atom.prop.CHAIN_ID>  (976) 
A A A A A A A Z Z Z Z Z Z Z Z Z Z Z

>  <atom.prop.IS_HEAVY_ATOM>  (976) 
1 0 0 0 1 1 1 1 0 0 0 1 0 0 1 0 0 0

>  <DIFUSE_FUNC_ATOM>  (976) 
atom 6   atom 7   

>  <FINAL_SINGLE_POINT_ENERGY>  (976) 
0

>  <NONCOV_INTER_ENERGY_QM>  (976) 
0

>  <FF_Energy>  (976) 
28.81

>  <QM_Energy>  (976) 
-0.27

>  <source>  (976) 
ACET_PRPA_09

>  <Index>  (976) 
35744

$$$$
ACET-pdb1u1i-A-ASP-225:PRPA-pdb1u1i-A-PRO-201
     RDKit          3D

 18 16  0  0  0  0  0  0  0  0999 V2000
    0.0137    1.5174   -0.0016 C   0  0  0  0  0  0  0  0  0  0  0  0
    0.8952    1.8275   -0.3487 H   0  0  0  0  0  0  0  0  0  0  0  0
   -0.1163    1.8378    0.9321 H   0  0  0  0  0  0  0  0  0  0  0  0
   -0.7675    1.9561   -0.6223 H   0  0  0  0  0  0  0  0  0  0  0  0
    0.0000    0.0000    0.0000 C   0  0  0  0  0  0  0  0  0  0  0  0
   -1.0930   -0.6027   -0.0000 O   0  0  0  0  0  1  0  0  0  0  0  0
    1.0930   -0.5980   -0.0000 O   0  0  0  0  0  0  0  0  0  0  0  0
    2.6633    0.7580   -2.4382 C   0  0  0  0  0  0  0  0  0  0  0  0
    2.3008    1.3134   -1.6707 H   0  0  0  0  0  0  0  0  0  0  0  0
    1.8725    0.5347   -3.1543 H   0  0  0  0  0  0  0  0  0  0  0  0
    3.5189    1.2512   -2.8995 H   0  0  0  0  0  0  0  0  0  0  0  0
    3.1012   -0.6277   -1.9471 C   0  0  0  0  0  0  0  0  0  0  0  0
    4.0827   -0.6381   -1.7506 H   0  0  0  0  0  0  0  0  0  0  0  0
    2.5949   -0.8865   -1.1249 H   0  0  0  0  0  0  0  0  0  0  0  0
    2.7730   -1.5346   -3.0883 C   0  0  0  0  0  0  0  0  0  0  0  0
    3.5105   -1.5255   -3.7690 H   0  0  0  0  0  0  0  0  0  0  0  0
    2.6427   -2.4762   -2.7637 H   0  0  0  0  0  0  0  0  0  0  0  0
    1.8496   -1.1374   -3.5098 H   0  0  0  0  0  0  0  0  0  0  0  0
  1  5  1  0
  5  6  1  0
  5  7  2  0
  1  2  1  0
  1  3  1  0
  1  4  1  0
  8 12  1  0
 12 15  1  0
  8  9  1  0
  8 10  1  0
  8 11  1  0
 12 13  1  0
 12 14  1  0
 15 16  1  0
 15 17  1  0
 15 18  1  0
M  CHG  1   6  -1
M  END
>  <PDB_ID>  (977) 
pdb1u1i

>  <RESIDUE_NAME>  (977) 
ASP   PRO

>  <FRAG_NAME>  (977) 
ACET   PRPA

>  <FRAG_ATOM_NUM>  (977) 
fragi: 7  fragj: 11

>  <atom.prop.CHAIN_ID>  (977) 
A A A A A A A Z Z Z Z Z Z Z Z Z Z Z

>  <atom.prop.IS_HEAVY_ATOM>  (977) 
1 0 0 0 1 1 1 1 0 0 0 1 0 0 1 0 0 0

>  <DIFUSE_FUNC_ATOM>  (977) 
atom 6   atom 7   

>  <FINAL_SINGLE_POINT_ENERGY>  (977) 
0

>  <NONCOV_INTER_ENERGY_QM>  (977) 
0

>  <FF_Energy>  (977) 
17.43

>  <QM_Energy>  (977) 
-1.41

>  <source>  (977) 
ACET_PRPA_09

>  <Index>  (977) 
35975

$$$$
ACET-pdb1tjl-H-ASP-133:PRPA-pdb1tjl-F-LEU-141
     RDKit          3D

 18 16  0  0  0  0  0  0  0  0999 V2000
    0.0184    1.5112   -0.0025 C   0  0  0  0  0  0  0  0  0  0  0  0
   -0.5024    1.8400   -0.7866 H   0  0  0  0  0  0  0  0  0  0  0  0
    0.9624    1.8232   -0.0662 H   0  0  0  0  0  0  0  0  0  0  0  0
   -0.4173    1.9537    0.8933 H   0  0  0  0  0  0  0  0  0  0  0  0
    0.0000    0.0000    0.0000 C   0  0  0  0  0  0  0  0  0  0  0  0
   -1.1006   -0.5947    0.0000 O   0  0  0  0  0  1  0  0  0  0  0  0
    1.1006   -0.5982    0.0000 O   0  0  0  0  0  0  0  0  0  0  0  0
    4.3814    0.2091   -3.8345 C   0  0  0  0  0  0  0  0  0  0  0  0
    3.5952    0.0689   -4.3942 H   0  0  0  0  0  0  0  0  0  0  0  0
    4.9516   -0.5757   -3.7544 H   0  0  0  0  0  0  0  0  0  0  0  0
    4.9674    1.0273   -4.2529 H   0  0  0  0  0  0  0  0  0  0  0  0
    3.8810    0.5590   -2.4224 C   0  0  0  0  0  0  0  0  0  0  0  0
    4.6382    0.4295   -1.7765 H   0  0  0  0  0  0  0  0  0  0  0  0
    3.5240    1.5877   -2.3736 H   0  0  0  0  0  0  0  0  0  0  0  0
    2.7872   -0.4085   -2.0146 C   0  0  0  0  0  0  0  0  0  0  0  0
    3.1457   -1.3438   -2.0159 H   0  0  0  0  0  0  0  0  0  0  0  0
    2.4608   -0.1811   -1.0952 H   0  0  0  0  0  0  0  0  0  0  0  0
    2.0234   -0.3468   -2.6605 H   0  0  0  0  0  0  0  0  0  0  0  0
  1  5  1  0
  5  6  1  0
  5  7  2  0
  1  2  1  0
  1  3  1  0
  1  4  1  0
  8 12  1  0
 12 15  1  0
  8  9  1  0
  8 10  1  0
  8 11  1  0
 12 13  1  0
 12 14  1  0
 15 16  1  0
 15 17  1  0
 15 18  1  0
M  CHG  1   6  -1
M  END
>  <PDB_ID>  (978) 
pdb1tjl

>  <RESIDUE_NAME>  (978) 
ASP   LEU

>  <FRAG_NAME>  (978) 
ACET   PRPA

>  <FRAG_ATOM_NUM>  (978) 
fragi: 7  fragj: 11

>  <atom.prop.CHAIN_ID>  (978) 
A A A A A A A Z Z Z Z Z Z Z Z Z Z Z

>  <atom.prop.IS_HEAVY_ATOM>  (978) 
1 0 0 0 1 1 1 1 0 0 0 1 0 0 1 0 0 0

>  <DIFUSE_FUNC_ATOM>  (978) 
atom 6   atom 7   

>  <FINAL_SINGLE_POINT_ENERGY>  (978) 
0

>  <NONCOV_INTER_ENERGY_QM>  (978) 
0

>  <FF_Energy>  (978) 
30.63

>  <QM_Energy>  (978) 
3.66

>  <source>  (978) 
ACET_PRPA_09

>  <Index>  (978) 
36303

$$$$
ACET-pdb1tjl-H-ASP-133:PRPA-pdb1tjl-F-LEU-141
     RDKit          3D

 18 16  0  0  0  0  0  0  0  0999 V2000
    0.0184    1.5112   -0.0025 C   0  0  0  0  0  0  0  0  0  0  0  0
   -0.5024    1.8400   -0.7866 H   0  0  0  0  0  0  0  0  0  0  0  0
    0.9624    1.8232   -0.0662 H   0  0  0  0  0  0  0  0  0  0  0  0
   -0.4173    1.9537    0.8933 H   0  0  0  0  0  0  0  0  0  0  0  0
    0.0000    0.0000    0.0000 C   0  0  0  0  0  0  0  0  0  0  0  0
   -1.1006   -0.5947    0.0000 O   0  0  0  0  0  1  0  0  0  0  0  0
    1.1006   -0.5982    0.0000 O   0  0  0  0  0  0  0  0  0  0  0  0
    3.3874    1.9814   -2.3549 C   0  0  0  0  0  0  0  0  0  0  0  0
    2.6297    2.1114   -2.9996 H   0  0  0  0  0  0  0  0  0  0  0  0
    3.0665    2.1882   -1.4274 H   0  0  0  0  0  0  0  0  0  0  0  0
    4.1299    2.6130   -2.5919 H   0  0  0  0  0  0  0  0  0  0  0  0
    3.8810    0.5590   -2.4224 C   0  0  0  0  0  0  0  0  0  0  0  0
    4.6382    0.4295   -1.7765 H   0  0  0  0  0  0  0  0  0  0  0  0
    4.2355    0.3111   -3.4228 H   0  0  0  0  0  0  0  0  0  0  0  0
    2.7872   -0.4085   -2.0146 C   0  0  0  0  0  0  0  0  0  0  0  0
    3.1457   -1.3438   -2.0159 H   0  0  0  0  0  0  0  0  0  0  0  0
    2.4608   -0.1811   -1.0952 H   0  0  0  0  0  0  0  0  0  0  0  0
    2.0234   -0.3468   -2.6605 H   0  0  0  0  0  0  0  0  0  0  0  0
  1  5  1  0
  5  6  1  0
  5  7  2  0
  1  2  1  0
  1  3  1  0
  1  4  1  0
  8 12  1  0
 12 15  1  0
  8  9  1  0
  8 10  1  0
  8 11  1  0
 12 13  1  0
 12 14  1  0
 15 16  1  0
 15 17  1  0
 15 18  1  0
M  CHG  1   6  -1
M  END
>  <PDB_ID>  (979) 
pdb1tjl

>  <RESIDUE_NAME>  (979) 
ASP   LEU

>  <FRAG_NAME>  (979) 
ACET   PRPA

>  <FRAG_ATOM_NUM>  (979) 
fragi: 7  fragj: 11

>  <atom.prop.CHAIN_ID>  (979) 
A A A A A A A Z Z Z Z Z Z Z Z Z Z Z

>  <atom.prop.IS_HEAVY_ATOM>  (979) 
1 0 0 0 1 1 1 1 0 0 0 1 0 0 1 0 0 0

>  <DIFUSE_FUNC_ATOM>  (979) 
atom 6   atom 7   

>  <FINAL_SINGLE_POINT_ENERGY>  (979) 
0

>  <NONCOV_INTER_ENERGY_QM>  (979) 
0

>  <FF_Energy>  (979) 
30.68

>  <QM_Energy>  (979) 
3.37

>  <source>  (979) 
ACET_PRPA_09

>  <Index>  (979) 
36309

$$$$
ACET-pdb1uar-A-ASP-48:PRPA-pdb1uar-A-ILE-33
     RDKit          3D

 18 16  0  0  0  0  0  0  0  0999 V2000
   -0.0048    1.5112   -0.0040 C   0  0  0  0  0  0  0  0  0  0  0  0
   -0.5982    1.8286   -0.7352 H   0  0  0  0  0  0  0  0  0  0  0  0
    0.9234    1.8365   -0.1455 H   0  0  0  0  0  0  0  0  0  0  0  0
   -0.3701    1.9332    0.9322 H   0  0  0  0  0  0  0  0  0  0  0  0
    0.0000    0.0000    0.0000 C   0  0  0  0  0  0  0  0  0  0  0  0
   -1.1000   -0.5933    0.0000 O   0  0  0  0  0  1  0  0  0  0  0  0
    1.1000   -0.5955   -0.0000 O   0  0  0  0  0  0  0  0  0  0  0  0
   -3.2790   -2.7514    2.2661 C   0  0  0  0  0  0  0  0  0  0  0  0
   -3.6682   -1.8305    2.5071 H   0  0  0  0  0  0  0  0  0  0  0  0
   -3.3111   -3.3404    3.1826 H   0  0  0  0  0  0  0  0  0  0  0  0
   -3.8600   -3.1142    1.4183 H   0  0  0  0  0  0  0  0  0  0  0  0
   -1.8236   -2.5490    1.8006 C   0  0  0  0  0  0  0  0  0  0  0  0
   -1.8424   -2.0274    0.9560 H   0  0  0  0  0  0  0  0  0  0  0  0
   -1.2662   -2.0005    2.5598 H   0  0  0  0  0  0  0  0  0  0  0  0
   -1.1729   -3.9021    1.5102 C   0  0  0  0  0  0  0  0  0  0  0  0
   -1.1207   -4.4182    2.3630 H   0  0  0  0  0  0  0  0  0  0  0  0
   -1.7581   -4.3995    0.8707 H   0  0  0  0  0  0  0  0  0  0  0  0
   -0.1736   -3.8263    1.0816 H   0  0  0  0  0  0  0  0  0  0  0  0
  1  5  1  0
  5  6  1  0
  5  7  2  0
  1  2  1  0
  1  3  1  0
  1  4  1  0
  8 12  1  0
 12 15  1  0
  8  9  1  0
  8 10  1  0
  8 11  1  0
 12 13  1  0
 12 14  1  0
 15 16  1  0
 15 17  1  0
 15 18  1  0
M  CHG  1   6  -1
M  END
>  <PDB_ID>  (980) 
pdb1uar

>  <RESIDUE_NAME>  (980) 
ASP   ILE

>  <FRAG_NAME>  (980) 
ACET   PRPA

>  <FRAG_ATOM_NUM>  (980) 
fragi: 7  fragj: 11

>  <atom.prop.CHAIN_ID>  (980) 
A A A A A A A Z Z Z Z Z Z Z Z Z Z Z

>  <atom.prop.IS_HEAVY_ATOM>  (980) 
1 0 0 0 1 1 1 1 0 0 0 1 0 0 1 0 0 0

>  <DIFUSE_FUNC_ATOM>  (980) 
atom 6   atom 7   

>  <FINAL_SINGLE_POINT_ENERGY>  (980) 
0

>  <NONCOV_INTER_ENERGY_QM>  (980) 
0

>  <FF_Energy>  (980) 
19.12

>  <QM_Energy>  (980) 
-0.19

>  <source>  (980) 
ACET_PRPA_09

>  <Index>  (980) 
36534

$$$$
ACET-pdb1uar-A-ASP-48:PRPA-pdb1uar-A-ILE-33
     RDKit          3D

 18 16  0  0  0  0  0  0  0  0999 V2000
   -0.0048    1.5112   -0.0040 C   0  0  0  0  0  0  0  0  0  0  0  0
   -0.5982    1.8286   -0.7352 H   0  0  0  0  0  0  0  0  0  0  0  0
    0.9234    1.8365   -0.1455 H   0  0  0  0  0  0  0  0  0  0  0  0
   -0.3701    1.9332    0.9322 H   0  0  0  0  0  0  0  0  0  0  0  0
    0.0000    0.0000    0.0000 C   0  0  0  0  0  0  0  0  0  0  0  0
   -1.1000   -0.5933    0.0000 O   0  0  0  0  0  1  0  0  0  0  0  0
    1.1000   -0.5955   -0.0000 O   0  0  0  0  0  0  0  0  0  0  0  0
   -3.2790   -2.7514    2.2661 C   0  0  0  0  0  0  0  0  0  0  0  0
   -3.6682   -1.8305    2.5071 H   0  0  0  0  0  0  0  0  0  0  0  0
   -3.3111   -3.3404    3.1826 H   0  0  0  0  0  0  0  0  0  0  0  0
   -3.8600   -3.1142    1.4183 H   0  0  0  0  0  0  0  0  0  0  0  0
   -1.8236   -2.5490    1.8006 C   0  0  0  0  0  0  0  0  0  0  0  0
   -1.8424   -2.0274    0.9560 H   0  0  0  0  0  0  0  0  0  0  0  0
   -1.3598   -3.5135    1.5936 H   0  0  0  0  0  0  0  0  0  0  0  0
   -1.0438   -1.7818    2.8625 C   0  0  0  0  0  0  0  0  0  0  0  0
   -0.1118   -1.6256    2.5422 H   0  0  0  0  0  0  0  0  0  0  0  0
   -1.4888   -0.9046    3.0323 H   0  0  0  0  0  0  0  0  0  0  0  0
   -1.0218   -2.3136    3.7068 H   0  0  0  0  0  0  0  0  0  0  0  0
  1  5  1  0
  5  6  1  0
  5  7  2  0
  1  2  1  0
  1  3  1  0
  1  4  1  0
  8 12  1  0
 12 15  1  0
  8  9  1  0
  8 10  1  0
  8 11  1  0
 12 13  1  0
 12 14  1  0
 15 16  1  0
 15 17  1  0
 15 18  1  0
M  CHG  1   6  -1
M  END
>  <PDB_ID>  (981) 
pdb1uar

>  <RESIDUE_NAME>  (981) 
ASP   ILE

>  <FRAG_NAME>  (981) 
ACET   PRPA

>  <FRAG_ATOM_NUM>  (981) 
fragi: 7  fragj: 11

>  <atom.prop.CHAIN_ID>  (981) 
A A A A A A A Z Z Z Z Z Z Z Z Z Z Z

>  <atom.prop.IS_HEAVY_ATOM>  (981) 
1 0 0 0 1 1 1 1 0 0 0 1 0 0 1 0 0 0

>  <DIFUSE_FUNC_ATOM>  (981) 
atom 6   atom 7   

>  <FINAL_SINGLE_POINT_ENERGY>  (981) 
0

>  <NONCOV_INTER_ENERGY_QM>  (981) 
0

>  <FF_Energy>  (981) 
19.89

>  <QM_Energy>  (981) 
-1.8

>  <source>  (981) 
ACET_PRPA_09

>  <Index>  (981) 
36539

$$$$
ACET-pdb1uar-A-ASP-48:PRPA-pdb1uar-A-ILE-33
     RDKit          3D

 18 16  0  0  0  0  0  0  0  0999 V2000
   -0.0048    1.5112   -0.0040 C   0  0  0  0  0  0  0  0  0  0  0  0
   -0.5982    1.8286   -0.7352 H   0  0  0  0  0  0  0  0  0  0  0  0
    0.9234    1.8365   -0.1455 H   0  0  0  0  0  0  0  0  0  0  0  0
   -0.3701    1.9332    0.9322 H   0  0  0  0  0  0  0  0  0  0  0  0
    0.0000    0.0000    0.0000 C   0  0  0  0  0  0  0  0  0  0  0  0
   -1.1000   -0.5933    0.0000 O   0  0  0  0  0  1  0  0  0  0  0  0
    1.1000   -0.5955   -0.0000 O   0  0  0  0  0  0  0  0  0  0  0  0
   -1.8236   -2.5490    1.8006 C   0  0  0  0  0  0  0  0  0  0  0  0
   -1.8424   -2.0274    0.9560 H   0  0  0  0  0  0  0  0  0  0  0  0
   -2.8528   -2.6921    2.1297 H   0  0  0  0  0  0  0  0  0  0  0  0
   -1.2662   -2.0005    2.5598 H   0  0  0  0  0  0  0  0  0  0  0  0
   -1.1729   -3.9021    1.5102 C   0  0  0  0  0  0  0  0  0  0  0  0
   -1.1207   -4.4182    2.3630 H   0  0  0  0  0  0  0  0  0  0  0  0
   -1.7581   -4.3995    0.8707 H   0  0  0  0  0  0  0  0  0  0  0  0
    0.2161   -3.7968    0.9145 C   0  0  0  0  0  0  0  0  0  0  0  0
    0.8124   -3.3101    1.5506 H   0  0  0  0  0  0  0  0  0  0  0  0
    0.5759   -4.7139    0.7519 H   0  0  0  0  0  0  0  0  0  0  0  0
    0.1682   -3.2972    0.0504 H   0  0  0  0  0  0  0  0  0  0  0  0
  1  5  1  0
  5  6  1  0
  5  7  2  0
  1  2  1  0
  1  3  1  0
  1  4  1  0
  8 12  1  0
 12 15  1  0
  8  9  1  0
  8 10  1  0
  8 11  1  0
 12 13  1  0
 12 14  1  0
 15 16  1  0
 15 17  1  0
 15 18  1  0
M  CHG  1   6  -1
M  END
>  <PDB_ID>  (982) 
pdb1uar

>  <RESIDUE_NAME>  (982) 
ASP   ILE

>  <FRAG_NAME>  (982) 
ACET   PRPA

>  <FRAG_ATOM_NUM>  (982) 
fragi: 7  fragj: 11

>  <atom.prop.CHAIN_ID>  (982) 
A A A A A A A Z Z Z Z Z Z Z Z Z Z Z

>  <atom.prop.IS_HEAVY_ATOM>  (982) 
1 0 0 0 1 1 1 1 0 0 0 1 0 0 1 0 0 0

>  <DIFUSE_FUNC_ATOM>  (982) 
atom 6   atom 7   

>  <FINAL_SINGLE_POINT_ENERGY>  (982) 
0

>  <NONCOV_INTER_ENERGY_QM>  (982) 
0

>  <FF_Energy>  (982) 
17.32

>  <QM_Energy>  (982) 
-0.31

>  <source>  (982) 
ACET_PRPA_09

>  <Index>  (982) 
36548

$$$$
ACET-pdb2zv3-D-GLU-100:PRPA-pdb2zv3-D-LEU-74
     RDKit          3D

 18 16  0  0  0  0  0  0  0  0999 V2000
    0.0128    1.5302    0.0240 C   0  0  0  0  0  0  0  0  0  0  0  0
    0.8325    1.8238   -0.4352 H   0  0  0  0  0  0  0  0  0  0  0  0
   -0.0004    1.8087    0.9681 H   0  0  0  0  0  0  0  0  0  0  0  0
   -0.8410    1.9842   -0.4790 H   0  0  0  0  0  0  0  0  0  0  0  0
    0.0000    0.0000    0.0000 C   0  0  0  0  0  0  0  0  0  0  0  0
   -1.0930   -0.6035   -0.0000 O   0  0  0  0  0  1  0  0  0  0  0  0
    1.0930   -0.6034    0.0000 O   0  0  0  0  0  0  0  0  0  0  0  0
    0.9721    4.5377    3.4275 C   0  0  0  0  0  0  0  0  0  0  0  0
    0.9960    5.3788    3.9906 H   0  0  0  0  0  0  0  0  0  0  0  0
    0.6631    4.7984    2.5004 H   0  0  0  0  0  0  0  0  0  0  0  0
    1.9961    4.1741    3.3413 H   0  0  0  0  0  0  0  0  0  0  0  0
   -0.1042    3.6320    4.0210 C   0  0  0  0  0  0  0  0  0  0  0  0
    0.1218    3.4329    4.9666 H   0  0  0  0  0  0  0  0  0  0  0  0
   -1.0632    4.1482    3.9782 H   0  0  0  0  0  0  0  0  0  0  0  0
   -0.1662    2.3203    3.2489 C   0  0  0  0  0  0  0  0  0  0  0  0
    0.7198    1.8583    3.3038 H   0  0  0  0  0  0  0  0  0  0  0  0
   -0.8736    1.7335    3.6437 H   0  0  0  0  0  0  0  0  0  0  0  0
   -0.3855    2.5072    2.2905 H   0  0  0  0  0  0  0  0  0  0  0  0
  1  5  1  0
  5  6  1  0
  5  7  2  0
  1  2  1  0
  1  3  1  0
  1  4  1  0
  8 12  1  0
 12 15  1  0
  8  9  1  0
  8 10  1  0
  8 11  1  0
 12 13  1  0
 12 14  1  0
 15 16  1  0
 15 17  1  0
 15 18  1  0
M  CHG  1   6  -1
M  END
>  <PDB_ID>  (983) 
pdb2zv3

>  <RESIDUE_NAME>  (983) 
GLU   LEU

>  <FRAG_NAME>  (983) 
ACET   PRPA

>  <FRAG_ATOM_NUM>  (983) 
fragi: 7  fragj: 11

>  <atom.prop.CHAIN_ID>  (983) 
A A A A A A A Z Z Z Z Z Z Z Z Z Z Z

>  <atom.prop.IS_HEAVY_ATOM>  (983) 
1 0 0 0 1 1 1 1 0 0 0 1 0 0 1 0 0 0

>  <DIFUSE_FUNC_ATOM>  (983) 
atom 6   atom 7   

>  <FINAL_SINGLE_POINT_ENERGY>  (983) 
0

>  <NONCOV_INTER_ENERGY_QM>  (983) 
0

>  <FF_Energy>  (983) 
19.84

>  <QM_Energy>  (983) 
3.64

>  <source>  (983) 
ACET_PRPA_09

>  <Index>  (983) 
36907

$$$$
ACET-pdb1uan-A-GLU-28:PRPA-pdb1uan-A-ARG-24
     RDKit          3D

 18 16  0  0  0  0  0  0  0  0999 V2000
    0.0431    1.5230   -0.0491 C   0  0  0  0  0  0  0  0  0  0  0  0
    0.2469    1.7848   -0.9787 H   0  0  0  0  0  0  0  0  0  0  0  0
    0.7494    1.8205    0.5733 H   0  0  0  0  0  0  0  0  0  0  0  0
   -0.8886    2.0092    0.2402 H   0  0  0  0  0  0  0  0  0  0  0  0
    0.0000    0.0000    0.0000 C   0  0  0  0  0  0  0  0  0  0  0  0
   -1.0898   -0.6271   -0.0000 O   0  0  0  0  0  1  0  0  0  0  0  0
    1.0898   -0.5871    0.0000 O   0  0  0  0  0  0  0  0  0  0  0  0
    3.6214    0.9520    4.2157 C   0  0  0  0  0  0  0  0  0  0  0  0
    4.5580    0.8563    4.4272 H   0  0  0  0  0  0  0  0  0  0  0  0
    3.0134    0.4798    4.7974 H   0  0  0  0  0  0  0  0  0  0  0  0
    3.3709    2.0123    4.2479 H   0  0  0  0  0  0  0  0  0  0  0  0
    3.3926    0.4753    2.7800 C   0  0  0  0  0  0  0  0  0  0  0  0
    2.9478    1.2832    2.2507 H   0  0  0  0  0  0  0  0  0  0  0  0
    4.3448    0.4403    2.3079 H   0  0  0  0  0  0  0  0  0  0  0  0
    2.6602   -0.7674    2.3770 C   0  0  0  0  0  0  0  0  0  0  0  0
    1.9894   -0.9767    3.0851 H   0  0  0  0  0  0  0  0  0  0  0  0
    2.1945   -0.5862    1.5126 H   0  0  0  0  0  0  0  0  0  0  0  0
    3.3494   -1.6036    2.2595 H   0  0  0  0  0  0  0  0  0  0  0  0
  1  5  1  0
  5  6  1  0
  5  7  2  0
  1  2  1  0
  1  3  1  0
  1  4  1  0
  8 12  1  0
 12 15  1  0
  8  9  1  0
  8 10  1  0
  8 11  1  0
 12 13  1  0
 12 14  1  0
 15 16  1  0
 15 17  1  0
 15 18  1  0
M  CHG  1   6  -1
M  END
>  <PDB_ID>  (984) 
pdb1uan

>  <RESIDUE_NAME>  (984) 
GLU   ARG

>  <FRAG_NAME>  (984) 
ACET   PRPA

>  <FRAG_ATOM_NUM>  (984) 
fragi: 7  fragj: 11

>  <atom.prop.CHAIN_ID>  (984) 
A A A A A A A Z Z Z Z Z Z Z Z Z Z Z

>  <atom.prop.IS_HEAVY_ATOM>  (984) 
1 0 0 0 1 1 1 1 0 0 0 1 0 0 1 0 0 0

>  <DIFUSE_FUNC_ATOM>  (984) 
atom 6   atom 7   

>  <FINAL_SINGLE_POINT_ENERGY>  (984) 
0

>  <NONCOV_INTER_ENERGY_QM>  (984) 
0

>  <FF_Energy>  (984) 
15.52

>  <QM_Energy>  (984) 
-1.31

>  <source>  (984) 
ACET_PRPA_09

>  <Index>  (984) 
37176

$$$$
ACET-pdb1uax-B-ASP-35:PRPA-pdb1uax-A-ARG-32
     RDKit          3D

 18 16  0  0  0  0  0  0  0  0999 V2000
   -0.0149    1.5204   -0.0095 C   0  0  0  0  0  0  0  0  0  0  0  0
   -0.5905    1.8394    0.7336 H   0  0  0  0  0  0  0  0  0  0  0  0
   -0.3658    1.8315   -0.8835 H   0  0  0  0  0  0  0  0  0  0  0  0
    0.9764    1.9528    0.1263 H   0  0  0  0  0  0  0  0  0  0  0  0
    0.0000    0.0000    0.0000 C   0  0  0  0  0  0  0  0  0  0  0  0
   -1.0951   -0.5968    0.0000 O   0  0  0  0  0  1  0  0  0  0  0  0
    1.0951   -0.6098   -0.0000 O   0  0  0  0  0  0  0  0  0  0  0  0
   -3.4215   -2.2099   -2.3450 C   0  0  0  0  0  0  0  0  0  0  0  0
   -3.9060   -2.7714   -3.0058 H   0  0  0  0  0  0  0  0  0  0  0  0
   -2.4665   -2.1153   -2.6026 H   0  0  0  0  0  0  0  0  0  0  0  0
   -3.8746   -1.2186   -2.3406 H   0  0  0  0  0  0  0  0  0  0  0  0
   -3.4785   -2.9127   -0.9950 C   0  0  0  0  0  0  0  0  0  0  0  0
   -4.0707   -2.4058   -0.3804 H   0  0  0  0  0  0  0  0  0  0  0  0
   -3.8130   -3.8397   -1.1162 H   0  0  0  0  0  0  0  0  0  0  0  0
   -2.0907   -2.9891   -0.3627 C   0  0  0  0  0  0  0  0  0  0  0  0
   -1.5261   -2.2829   -0.7815 H   0  0  0  0  0  0  0  0  0  0  0  0
   -2.1923   -2.8128    0.6130 H   0  0  0  0  0  0  0  0  0  0  0  0
   -1.6299   -3.9653   -0.5136 H   0  0  0  0  0  0  0  0  0  0  0  0
  1  5  1  0
  5  6  1  0
  5  7  2  0
  1  2  1  0
  1  3  1  0
  1  4  1  0
  8 12  1  0
 12 15  1  0
  8  9  1  0
  8 10  1  0
  8 11  1  0
 12 13  1  0
 12 14  1  0
 15 16  1  0
 15 17  1  0
 15 18  1  0
M  CHG  1   6  -1
M  END
>  <PDB_ID>  (985) 
pdb1uax

>  <RESIDUE_NAME>  (985) 
ASP   ARG

>  <FRAG_NAME>  (985) 
ACET   PRPA

>  <FRAG_ATOM_NUM>  (985) 
fragi: 7  fragj: 11

>  <atom.prop.CHAIN_ID>  (985) 
A A A A A A A Z Z Z Z Z Z Z Z Z Z Z

>  <atom.prop.IS_HEAVY_ATOM>  (985) 
1 0 0 0 1 1 1 1 0 0 0 1 0 0 1 0 0 0

>  <DIFUSE_FUNC_ATOM>  (985) 
atom 6   atom 7   

>  <FINAL_SINGLE_POINT_ENERGY>  (985) 
0

>  <NONCOV_INTER_ENERGY_QM>  (985) 
0

>  <FF_Energy>  (985) 
17.88

>  <QM_Energy>  (985) 
2.5

>  <source>  (985) 
ACET_PRPA_09

>  <Index>  (985) 
37549

$$$$
ACET-pdb2zyk-A-GLU-129:PRPA-pdb2zyk-A-LYS-282
     RDKit          3D

 18 16  0  0  0  0  0  0  0  0999 V2000
    0.0388    1.5016   -0.0049 C   0  0  0  0  0  0  0  0  0  0  0  0
    0.5623    1.7851   -0.7950 H   0  0  0  0  0  0  0  0  0  0  0  0
    0.4726    1.7920    0.8347 H   0  0  0  0  0  0  0  0  0  0  0  0
   -0.9473    1.9624   -0.0622 H   0  0  0  0  0  0  0  0  0  0  0  0
    0.0000    0.0000    0.0000 C   0  0  0  0  0  0  0  0  0  0  0  0
   -1.0997   -0.6136   -0.0000 O   0  0  0  0  0  1  0  0  0  0  0  0
    1.0997   -0.5675   -0.0000 O   0  0  0  0  0  0  0  0  0  0  0  0
   -0.0171   -2.6651   -3.4789 C   0  0  0  0  0  0  0  0  0  0  0  0
    0.9414   -2.9255   -3.4087 H   0  0  0  0  0  0  0  0  0  0  0  0
   -0.1430   -1.7276   -3.1715 H   0  0  0  0  0  0  0  0  0  0  0  0
   -0.3355   -2.7483   -4.5180 H   0  0  0  0  0  0  0  0  0  0  0  0
   -0.8449   -3.5910   -2.5864 C   0  0  0  0  0  0  0  0  0  0  0  0
   -1.5448   -4.0240   -3.1453 H   0  0  0  0  0  0  0  0  0  0  0  0
   -0.2403   -4.2781   -2.1961 H   0  0  0  0  0  0  0  0  0  0  0  0
   -1.5111   -2.8292   -1.4660 C   0  0  0  0  0  0  0  0  0  0  0  0
   -0.8833   -2.1177   -1.1338 H   0  0  0  0  0  0  0  0  0  0  0  0
   -2.3413   -2.3844   -1.8182 H   0  0  0  0  0  0  0  0  0  0  0  0
   -1.7813   -3.4827   -0.6365 H   0  0  0  0  0  0  0  0  0  0  0  0
  1  5  1  0
  5  6  1  0
  5  7  2  0
  1  2  1  0
  1  3  1  0
  1  4  1  0
  8 12  1  0
 12 15  1  0
  8  9  1  0
  8 10  1  0
  8 11  1  0
 12 13  1  0
 12 14  1  0
 15 16  1  0
 15 17  1  0
 15 18  1  0
M  CHG  1   6  -1
M  END
>  <PDB_ID>  (986) 
pdb2zyk

>  <RESIDUE_NAME>  (986) 
GLU   LYS

>  <FRAG_NAME>  (986) 
ACET   PRPA

>  <FRAG_ATOM_NUM>  (986) 
fragi: 7  fragj: 11

>  <atom.prop.CHAIN_ID>  (986) 
A A A A A A A Z Z Z Z Z Z Z Z Z Z Z

>  <atom.prop.IS_HEAVY_ATOM>  (986) 
1 0 0 0 1 1 1 1 0 0 0 1 0 0 1 0 0 0

>  <DIFUSE_FUNC_ATOM>  (986) 
atom 6   atom 7   

>  <FINAL_SINGLE_POINT_ENERGY>  (986) 
0

>  <NONCOV_INTER_ENERGY_QM>  (986) 
0

>  <FF_Energy>  (986) 
16.77

>  <QM_Energy>  (986) 
1.36

>  <source>  (986) 
ACET_PRPA_09

>  <Index>  (986) 
37890

$$$$
ACET-pdb1u0u-A-GLU-49:PRPA-pdb1u0u-A-ARG-44
     RDKit          3D

 18 16  0  0  0  0  0  0  0  0999 V2000
   -0.0519    1.4963   -0.0180 C   0  0  0  0  0  0  0  0  0  0  0  0
   -0.1150    1.7897   -0.9488 H   0  0  0  0  0  0  0  0  0  0  0  0
    0.7424    1.8350    0.4397 H   0  0  0  0  0  0  0  0  0  0  0  0
   -0.9309    1.8628    0.5122 H   0  0  0  0  0  0  0  0  0  0  0  0
    0.0000    0.0000    0.0000 C   0  0  0  0  0  0  0  0  0  0  0  0
   -1.0881   -0.5785   -0.0000 O   0  0  0  0  0  1  0  0  0  0  0  0
    1.0881   -0.6119    0.0000 O   0  0  0  0  0  0  0  0  0  0  0  0
   -1.9566   -2.4569   -1.4975 C   0  0  0  0  0  0  0  0  0  0  0  0
   -2.1503   -1.5090   -1.2348 H   0  0  0  0  0  0  0  0  0  0  0  0
   -1.4855   -2.9680   -0.6578 H   0  0  0  0  0  0  0  0  0  0  0  0
   -2.8955   -2.9533   -1.7428 H   0  0  0  0  0  0  0  0  0  0  0  0
   -1.0454   -2.4945   -2.7251 C   0  0  0  0  0  0  0  0  0  0  0  0
   -0.1154   -2.2897   -2.4302 H   0  0  0  0  0  0  0  0  0  0  0  0
   -1.0837   -3.4110   -3.1150 H   0  0  0  0  0  0  0  0  0  0  0  0
   -1.4212   -1.5032   -3.8194 C   0  0  0  0  0  0  0  0  0  0  0  0
   -2.4124   -1.4887   -3.9282 H   0  0  0  0  0  0  0  0  0  0  0  0
   -1.0925   -0.5951   -3.5713 H   0  0  0  0  0  0  0  0  0  0  0  0
   -0.9782   -1.7731   -4.7780 H   0  0  0  0  0  0  0  0  0  0  0  0
  1  5  1  0
  5  6  1  0
  5  7  2  0
  1  2  1  0
  1  3  1  0
  1  4  1  0
  8 12  1  0
 12 15  1  0
  8  9  1  0
  8 10  1  0
  8 11  1  0
 12 13  1  0
 12 14  1  0
 15 16  1  0
 15 17  1  0
 15 18  1  0
M  CHG  1   6  -1
M  END
>  <PDB_ID>  (987) 
pdb1u0u

>  <RESIDUE_NAME>  (987) 
GLU   ARG

>  <FRAG_NAME>  (987) 
ACET   PRPA

>  <FRAG_ATOM_NUM>  (987) 
fragi: 7  fragj: 11

>  <atom.prop.CHAIN_ID>  (987) 
A A A A A A A Z Z Z Z Z Z Z Z Z Z Z

>  <atom.prop.IS_HEAVY_ATOM>  (987) 
1 0 0 0 1 1 1 1 0 0 0 1 0 0 1 0 0 0

>  <DIFUSE_FUNC_ATOM>  (987) 
atom 6   atom 7   

>  <FINAL_SINGLE_POINT_ENERGY>  (987) 
0

>  <NONCOV_INTER_ENERGY_QM>  (987) 
0

>  <FF_Energy>  (987) 
23.08

>  <QM_Energy>  (987) 
2.43

>  <source>  (987) 
ACET_PRPA_09

>  <Index>  (987) 
38241

$$$$
ACET-pdb2zvi-B-ASP-315:PRPA-pdb2zvi-B-LEU-311
     RDKit          3D

 18 16  0  0  0  0  0  0  0  0999 V2000
    0.0082    1.5167   -0.0010 C   0  0  0  0  0  0  0  0  0  0  0  0
    0.9492    1.8323    0.0297 H   0  0  0  0  0  0  0  0  0  0  0  0
   -0.4944    1.8407    0.7916 H   0  0  0  0  0  0  0  0  0  0  0  0
   -0.4580    1.9400   -0.8907 H   0  0  0  0  0  0  0  0  0  0  0  0
    0.0000    0.0000    0.0000 C   0  0  0  0  0  0  0  0  0  0  0  0
   -1.0966   -0.6000   -0.0000 O   0  0  0  0  0  1  0  0  0  0  0  0
    1.0966   -0.5923    0.0000 O   0  0  0  0  0  0  0  0  0  0  0  0
    4.6029    4.0901    1.4134 C   0  0  0  0  0  0  0  0  0  0  0  0
    5.0117    4.6095    2.1874 H   0  0  0  0  0  0  0  0  0  0  0  0
    4.5647    4.7263    0.6210 H   0  0  0  0  0  0  0  0  0  0  0  0
    5.3001    3.2928    1.1555 H   0  0  0  0  0  0  0  0  0  0  0  0
    3.1678    3.7714    1.7993 C   0  0  0  0  0  0  0  0  0  0  0  0
    3.1628    3.0323    2.4731 H   0  0  0  0  0  0  0  0  0  0  0  0
    2.6805    4.6471    2.2280 H   0  0  0  0  0  0  0  0  0  0  0  0
    2.4517    3.2997    0.5630 C   0  0  0  0  0  0  0  0  0  0  0  0
    2.8998    2.4785    0.1990 H   0  0  0  0  0  0  0  0  0  0  0  0
    1.4970    3.0799    0.7821 H   0  0  0  0  0  0  0  0  0  0  0  0
    2.4683    4.0180   -0.1381 H   0  0  0  0  0  0  0  0  0  0  0  0
  1  5  1  0
  5  6  1  0
  5  7  2  0
  1  2  1  0
  1  3  1  0
  1  4  1  0
  8 12  1  0
 12 15  1  0
  8  9  1  0
  8 10  1  0
  8 11  1  0
 12 13  1  0
 12 14  1  0
 15 16  1  0
 15 17  1  0
 15 18  1  0
M  CHG  1   6  -1
M  END
>  <PDB_ID>  (988) 
pdb2zvi

>  <RESIDUE_NAME>  (988) 
ASP   LEU

>  <FRAG_NAME>  (988) 
ACET   PRPA

>  <FRAG_ATOM_NUM>  (988) 
fragi: 7  fragj: 11

>  <atom.prop.CHAIN_ID>  (988) 
A A A A A A A Z Z Z Z Z Z Z Z Z Z Z

>  <atom.prop.IS_HEAVY_ATOM>  (988) 
1 0 0 0 1 1 1 1 0 0 0 1 0 0 1 0 0 0

>  <DIFUSE_FUNC_ATOM>  (988) 
atom 6   atom 7   

>  <FINAL_SINGLE_POINT_ENERGY>  (988) 
0

>  <NONCOV_INTER_ENERGY_QM>  (988) 
0

>  <FF_Energy>  (988) 
27.31

>  <QM_Energy>  (988) 
6.66

>  <source>  (988) 
ACET_PRPA_09

>  <Index>  (988) 
39193

$$$$
ACET-pdb2zvi-B-ASP-315:PRPA-pdb2zvi-B-LEU-311
     RDKit          3D

 18 16  0  0  0  0  0  0  0  0999 V2000
    0.0082    1.5167   -0.0010 C   0  0  0  0  0  0  0  0  0  0  0  0
    0.9492    1.8323    0.0297 H   0  0  0  0  0  0  0  0  0  0  0  0
   -0.4944    1.8407    0.7916 H   0  0  0  0  0  0  0  0  0  0  0  0
   -0.4580    1.9400   -0.8907 H   0  0  0  0  0  0  0  0  0  0  0  0
    0.0000    0.0000    0.0000 C   0  0  0  0  0  0  0  0  0  0  0  0
   -1.0966   -0.6000   -0.0000 O   0  0  0  0  0  1  0  0  0  0  0  0
    1.0966   -0.5923    0.0000 O   0  0  0  0  0  0  0  0  0  0  0  0
    2.4844    4.9994    2.4004 C   0  0  0  0  0  0  0  0  0  0  0  0
    2.4829    5.7391    1.7289 H   0  0  0  0  0  0  0  0  0  0  0  0
    1.5438    4.7677    2.6461 H   0  0  0  0  0  0  0  0  0  0  0  0
    2.9827    5.2894    3.2170 H   0  0  0  0  0  0  0  0  0  0  0  0
    3.1678    3.7714    1.7993 C   0  0  0  0  0  0  0  0  0  0  0  0
    3.1628    3.0323    2.4731 H   0  0  0  0  0  0  0  0  0  0  0  0
    4.1970    4.0000    1.5225 H   0  0  0  0  0  0  0  0  0  0  0  0
    2.4517    3.2997    0.5630 C   0  0  0  0  0  0  0  0  0  0  0  0
    2.8998    2.4785    0.1990 H   0  0  0  0  0  0  0  0  0  0  0  0
    1.4970    3.0799    0.7821 H   0  0  0  0  0  0  0  0  0  0  0  0
    2.4683    4.0180   -0.1381 H   0  0  0  0  0  0  0  0  0  0  0  0
  1  5  1  0
  5  6  1  0
  5  7  2  0
  1  2  1  0
  1  3  1  0
  1  4  1  0
  8 12  1  0
 12 15  1  0
  8  9  1  0
  8 10  1  0
  8 11  1  0
 12 13  1  0
 12 14  1  0
 15 16  1  0
 15 17  1  0
 15 18  1  0
M  CHG  1   6  -1
M  END
>  <PDB_ID>  (989) 
pdb2zvi

>  <RESIDUE_NAME>  (989) 
ASP   LEU

>  <FRAG_NAME>  (989) 
ACET   PRPA

>  <FRAG_ATOM_NUM>  (989) 
fragi: 7  fragj: 11

>  <atom.prop.CHAIN_ID>  (989) 
A A A A A A A Z Z Z Z Z Z Z Z Z Z Z

>  <atom.prop.IS_HEAVY_ATOM>  (989) 
1 0 0 0 1 1 1 1 0 0 0 1 0 0 1 0 0 0

>  <DIFUSE_FUNC_ATOM>  (989) 
atom 6   atom 7   

>  <FINAL_SINGLE_POINT_ENERGY>  (989) 
0

>  <NONCOV_INTER_ENERGY_QM>  (989) 
0

>  <FF_Energy>  (989) 
27.09

>  <QM_Energy>  (989) 
6.44

>  <source>  (989) 
ACET_PRPA_09

>  <Index>  (989) 
39196

$$$$
ACET-pdb2zqz-C-GLU-192:PRPA-pdb2zqz-C-LEU-321
     RDKit          3D

 18 16  0  0  0  0  0  0  0  0999 V2000
   -0.0087    1.5011   -0.0062 C   0  0  0  0  0  0  0  0  0  0  0  0
   -0.4428    1.7952   -0.8389 H   0  0  0  0  0  0  0  0  0  0  0  0
    0.9257    1.8058    0.0504 H   0  0  0  0  0  0  0  0  0  0  0  0
   -0.5612    1.9152    0.8372 H   0  0  0  0  0  0  0  0  0  0  0  0
    0.0000    0.0000    0.0000 C   0  0  0  0  0  0  0  0  0  0  0  0
   -1.1010   -0.5923    0.0000 O   0  0  0  0  0  1  0  0  0  0  0  0
    1.1010   -0.5852   -0.0000 O   0  0  0  0  0  0  0  0  0  0  0  0
    4.3867    1.2374    3.1517 C   0  0  0  0  0  0  0  0  0  0  0  0
    4.9167    0.4362    3.4363 H   0  0  0  0  0  0  0  0  0  0  0  0
    4.9561    1.8183    2.5676 H   0  0  0  0  0  0  0  0  0  0  0  0
    4.1096    1.7556    3.9632 H   0  0  0  0  0  0  0  0  0  0  0  0
    3.1578    0.7918    2.3864 C   0  0  0  0  0  0  0  0  0  0  0  0
    2.6262    1.5896    2.1078 H   0  0  0  0  0  0  0  0  0  0  0  0
    2.5312    0.1581    3.0141 H   0  0  0  0  0  0  0  0  0  0  0  0
    3.5503    0.0597    1.1140 C   0  0  0  0  0  0  0  0  0  0  0  0
    2.7268   -0.1893    0.6026 H   0  0  0  0  0  0  0  0  0  0  0  0
    4.1245    0.6536    0.5480 H   0  0  0  0  0  0  0  0  0  0  0  0
    4.0603   -0.7701    1.3473 H   0  0  0  0  0  0  0  0  0  0  0  0
  1  5  1  0
  5  6  1  0
  5  7  2  0
  1  2  1  0
  1  3  1  0
  1  4  1  0
  8 12  1  0
 12 15  1  0
  8  9  1  0
  8 10  1  0
  8 11  1  0
 12 13  1  0
 12 14  1  0
 15 16  1  0
 15 17  1  0
 15 18  1  0
M  CHG  1   6  -1
M  END
>  <PDB_ID>  (990) 
pdb2zqz

>  <RESIDUE_NAME>  (990) 
GLU   LEU

>  <FRAG_NAME>  (990) 
ACET   PRPA

>  <FRAG_ATOM_NUM>  (990) 
fragi: 7  fragj: 11

>  <atom.prop.CHAIN_ID>  (990) 
A A A A A A A Z Z Z Z Z Z Z Z Z Z Z

>  <atom.prop.IS_HEAVY_ATOM>  (990) 
1 0 0 0 1 1 1 1 0 0 0 1 0 0 1 0 0 0

>  <DIFUSE_FUNC_ATOM>  (990) 
atom 6   atom 7   

>  <FINAL_SINGLE_POINT_ENERGY>  (990) 
0

>  <NONCOV_INTER_ENERGY_QM>  (990) 
0

>  <FF_Energy>  (990) 
30.94

>  <QM_Energy>  (990) 
0.69

>  <source>  (990) 
ACET_PRPA_09

>  <Index>  (990) 
39286

$$$$
ACET-pdb1udx-A-ASP-105:PRPA-pdb1udx-A-ARG-93
     RDKit          3D

 18 16  0  0  0  0  0  0  0  0999 V2000
    0.0043    1.5160   -0.0157 C   0  0  0  0  0  0  0  0  0  0  0  0
   -0.7845    1.8434    0.4920 H   0  0  0  0  0  0  0  0  0  0  0  0
   -0.0336    1.8257   -0.9574 H   0  0  0  0  0  0  0  0  0  0  0  0
    0.8994    1.9360    0.4431 H   0  0  0  0  0  0  0  0  0  0  0  0
    0.0000    0.0000    0.0000 C   0  0  0  0  0  0  0  0  0  0  0  0
   -1.0975   -0.5962    0.0000 O   0  0  0  0  0  1  0  0  0  0  0  0
    1.0975   -0.5935   -0.0000 O   0  0  0  0  0  0  0  0  0  0  0  0
    4.5811   -1.9532   -0.8769 C   0  0  0  0  0  0  0  0  0  0  0  0
    5.4437   -2.3571   -1.1653 H   0  0  0  0  0  0  0  0  0  0  0  0
    4.1868   -2.4805   -0.1310 H   0  0  0  0  0  0  0  0  0  0  0  0
    4.7836   -0.9465   -0.5112 H   0  0  0  0  0  0  0  0  0  0  0  0
    3.6187   -2.0004   -2.0514 C   0  0  0  0  0  0  0  0  0  0  0  0
    3.5906   -1.1076   -2.4941 H   0  0  0  0  0  0  0  0  0  0  0  0
    3.9215   -2.6936   -2.6995 H   0  0  0  0  0  0  0  0  0  0  0  0
    2.2172   -2.3523   -1.5991 C   0  0  0  0  0  0  0  0  0  0  0  0
    2.0525   -1.9061   -0.7230 H   0  0  0  0  0  0  0  0  0  0  0  0
    1.5770   -2.0112   -2.2828 H   0  0  0  0  0  0  0  0  0  0  0  0
    2.0887   -3.4288   -1.4873 H   0  0  0  0  0  0  0  0  0  0  0  0
  1  5  1  0
  5  6  1  0
  5  7  2  0
  1  2  1  0
  1  3  1  0
  1  4  1  0
  8 12  1  0
 12 15  1  0
  8  9  1  0
  8 10  1  0
  8 11  1  0
 12 13  1  0
 12 14  1  0
 15 16  1  0
 15 17  1  0
 15 18  1  0
M  CHG  1   6  -1
M  END
>  <PDB_ID>  (991) 
pdb1udx

>  <RESIDUE_NAME>  (991) 
ASP   ARG

>  <FRAG_NAME>  (991) 
ACET   PRPA

>  <FRAG_ATOM_NUM>  (991) 
fragi: 7  fragj: 11

>  <atom.prop.CHAIN_ID>  (991) 
A A A A A A A Z Z Z Z Z Z Z Z Z Z Z

>  <atom.prop.IS_HEAVY_ATOM>  (991) 
1 0 0 0 1 1 1 1 0 0 0 1 0 0 1 0 0 0

>  <DIFUSE_FUNC_ATOM>  (991) 
atom 6   atom 7   

>  <FINAL_SINGLE_POINT_ENERGY>  (991) 
0

>  <NONCOV_INTER_ENERGY_QM>  (991) 
0

>  <FF_Energy>  (991) 
35.24

>  <QM_Energy>  (991) 
3.42

>  <source>  (991) 
ACET_PRPA_09

>  <Index>  (991) 
39625

$$$$
ACET-pdb2zv3-H-ASP-64:PRPA-pdb2zv3-H-GLU-61
     RDKit          3D

 18 16  0  0  0  0  0  0  0  0999 V2000
   -0.0159    1.5208   -0.0533 C   0  0  0  0  0  0  0  0  0  0  0  0
   -0.4992    1.8051   -0.8571 H   0  0  0  0  0  0  0  0  0  0  0  0
    0.9056    1.8493   -0.0260 H   0  0  0  0  0  0  0  0  0  0  0  0
   -0.5436    1.9096    0.8177 H   0  0  0  0  0  0  0  0  0  0  0  0
    0.0000    0.0000    0.0000 C   0  0  0  0  0  0  0  0  0  0  0  0
   -1.0836   -0.5858    0.0000 O   0  0  0  0  0  1  0  0  0  0  0  0
    1.0836   -0.5787   -0.0000 O   0  0  0  0  0  0  0  0  0  0  0  0
   -0.3274    2.7206   -2.8664 C   0  0  0  0  0  0  0  0  0  0  0  0
    0.1052    2.0303   -2.2788 H   0  0  0  0  0  0  0  0  0  0  0  0
   -1.2309    2.3087   -3.3159 H   0  0  0  0  0  0  0  0  0  0  0  0
   -0.5671    3.6027   -2.2728 H   0  0  0  0  0  0  0  0  0  0  0  0
    0.7024    3.0642   -3.9424 C   0  0  0  0  0  0  0  0  0  0  0  0
    0.9204    2.2344   -4.4225 H   0  0  0  0  0  0  0  0  0  0  0  0
    0.3041    3.7412   -4.5329 H   0  0  0  0  0  0  0  0  0  0  0  0
    1.9937    3.6327   -3.3905 C   0  0  0  0  0  0  0  0  0  0  0  0
    1.8180    4.5419   -3.0628 H   0  0  0  0  0  0  0  0  0  0  0  0
    2.3198    3.0358   -2.6813 H   0  0  0  0  0  0  0  0  0  0  0  0
    2.7752    3.7013   -4.1472 H   0  0  0  0  0  0  0  0  0  0  0  0
  1  5  1  0
  5  6  1  0
  5  7  2  0
  1  2  1  0
  1  3  1  0
  1  4  1  0
  8 12  1  0
 12 15  1  0
  8  9  1  0
  8 10  1  0
  8 11  1  0
 12 13  1  0
 12 14  1  0
 15 16  1  0
 15 17  1  0
 15 18  1  0
M  CHG  1   6  -1
M  END
>  <PDB_ID>  (992) 
pdb2zv3

>  <RESIDUE_NAME>  (992) 
ASP   GLU

>  <FRAG_NAME>  (992) 
ACET   PRPA

>  <FRAG_ATOM_NUM>  (992) 
fragi: 7  fragj: 11

>  <atom.prop.CHAIN_ID>  (992) 
A A A A A A A Z Z Z Z Z Z Z Z Z Z Z

>  <atom.prop.IS_HEAVY_ATOM>  (992) 
1 0 0 0 1 1 1 1 0 0 0 1 0 0 1 0 0 0

>  <DIFUSE_FUNC_ATOM>  (992) 
atom 6   atom 7   

>  <FINAL_SINGLE_POINT_ENERGY>  (992) 
0

>  <NONCOV_INTER_ENERGY_QM>  (992) 
0

>  <FF_Energy>  (992) 
24.62

>  <QM_Energy>  (992) 
5.48

>  <source>  (992) 
ACET_PRPA_10

>  <Index>  (992) 
328

$$$$
ACET-pdb1uhd-A-ASP-108:PRPA-pdb1uhd-A-GLU-112
     RDKit          3D

 18 16  0  0  0  0  0  0  0  0999 V2000
    0.0177    1.5194   -0.0136 C   0  0  0  0  0  0  0  0  0  0  0  0
   -0.3505    1.8355   -0.8802 H   0  0  0  0  0  0  0  0  0  0  0  0
    0.9536    1.8294    0.1003 H   0  0  0  0  0  0  0  0  0  0  0  0
   -0.5808    1.9575    0.7851 H   0  0  0  0  0  0  0  0  0  0  0  0
    0.0000    0.0000    0.0000 C   0  0  0  0  0  0  0  0  0  0  0  0
   -1.0960   -0.5973   -0.0000 O   0  0  0  0  0  1  0  0  0  0  0  0
    1.0960   -0.5986    0.0000 O   0  0  0  0  0  0  0  0  0  0  0  0
    0.2514   -2.9725    2.6198 C   0  0  0  0  0  0  0  0  0  0  0  0
    0.1983   -3.8153    3.1146 H   0  0  0  0  0  0  0  0  0  0  0  0
   -0.7222   -2.4827    2.5989 H   0  0  0  0  0  0  0  0  0  0  0  0
    0.8870   -2.2685    3.1569 H   0  0  0  0  0  0  0  0  0  0  0  0
    0.7716   -3.1724    1.1919 C   0  0  0  0  0  0  0  0  0  0  0  0
    0.9874   -2.2844    0.8244 H   0  0  0  0  0  0  0  0  0  0  0  0
    1.5636   -3.7547    1.2393 H   0  0  0  0  0  0  0  0  0  0  0  0
   -0.2276   -3.8314    0.2442 C   0  0  0  0  0  0  0  0  0  0  0  0
   -1.1234   -3.4822    0.4536 H   0  0  0  0  0  0  0  0  0  0  0  0
    0.0431   -3.6246   -0.6798 H   0  0  0  0  0  0  0  0  0  0  0  0
   -0.2646   -4.9164    0.3427 H   0  0  0  0  0  0  0  0  0  0  0  0
  1  5  1  0
  5  6  1  0
  5  7  2  0
  1  2  1  0
  1  3  1  0
  1  4  1  0
  8 12  1  0
 12 15  1  0
  8  9  1  0
  8 10  1  0
  8 11  1  0
 12 13  1  0
 12 14  1  0
 15 16  1  0
 15 17  1  0
 15 18  1  0
M  CHG  1   6  -1
M  END
>  <PDB_ID>  (993) 
pdb1uhd

>  <RESIDUE_NAME>  (993) 
ASP   GLU

>  <FRAG_NAME>  (993) 
ACET   PRPA

>  <FRAG_ATOM_NUM>  (993) 
fragi: 7  fragj: 11

>  <atom.prop.CHAIN_ID>  (993) 
A A A A A A A Z Z Z Z Z Z Z Z Z Z Z

>  <atom.prop.IS_HEAVY_ATOM>  (993) 
1 0 0 0 1 1 1 1 0 0 0 1 0 0 1 0 0 0

>  <DIFUSE_FUNC_ATOM>  (993) 
atom 6   atom 7   

>  <FINAL_SINGLE_POINT_ENERGY>  (993) 
0

>  <NONCOV_INTER_ENERGY_QM>  (993) 
0

>  <FF_Energy>  (993) 
19.09

>  <QM_Energy>  (993) 
-3.08

>  <source>  (993) 
ACET_PRPA_10

>  <Index>  (993) 
515

$$$$
ACET-pdb1ufb-A-ASP-6:PRPA-pdb1ufb-A-ARG-3
     RDKit          3D

 18 16  0  0  0  0  0  0  0  0999 V2000
   -0.0245    1.5256    0.0311 C   0  0  0  0  0  0  0  0  0  0  0  0
    0.6675    1.8681   -0.5908 H   0  0  0  0  0  0  0  0  0  0  0  0
    0.1497    1.8290    0.9575 H   0  0  0  0  0  0  0  0  0  0  0  0
   -0.9850    1.9366   -0.2796 H   0  0  0  0  0  0  0  0  0  0  0  0
    0.0000    0.0000    0.0000 C   0  0  0  0  0  0  0  0  0  0  0  0
   -1.0803   -0.6306    0.0000 O   0  0  0  0  0  1  0  0  0  0  0  0
    1.0803   -0.5793   -0.0000 O   0  0  0  0  0  0  0  0  0  0  0  0
    3.5365    1.2899   -2.4444 C   0  0  0  0  0  0  0  0  0  0  0  0
    4.2738    1.7237   -2.9508 H   0  0  0  0  0  0  0  0  0  0  0  0
    3.1661    1.9169   -1.7685 H   0  0  0  0  0  0  0  0  0  0  0  0
    2.7418    1.0456   -3.1493 H   0  0  0  0  0  0  0  0  0  0  0  0
    4.0853    0.0881   -1.7335 C   0  0  0  0  0  0  0  0  0  0  0  0
    3.9435   -0.7286   -2.2764 H   0  0  0  0  0  0  0  0  0  0  0  0
    5.0461    0.2176   -1.5301 H   0  0  0  0  0  0  0  0  0  0  0  0
    3.3523   -0.1074   -0.4004 C   0  0  0  0  0  0  0  0  0  0  0  0
    2.7749    0.6512   -0.2772 H   0  0  0  0  0  0  0  0  0  0  0  0
    2.9240   -0.9681   -0.4334 H   0  0  0  0  0  0  0  0  0  0  0  0
    4.1841   -0.0989    0.3041 H   0  0  0  0  0  0  0  0  0  0  0  0
  1  5  1  0
  5  6  1  0
  5  7  2  0
  1  2  1  0
  1  3  1  0
  1  4  1  0
  8 12  1  0
 12 15  1  0
  8  9  1  0
  8 10  1  0
  8 11  1  0
 12 13  1  0
 12 14  1  0
 15 16  1  0
 15 17  1  0
 15 18  1  0
M  CHG  1   6  -1
M  END
>  <PDB_ID>  (994) 
pdb1ufb

>  <RESIDUE_NAME>  (994) 
ASP   ARG

>  <FRAG_NAME>  (994) 
ACET   PRPA

>  <FRAG_ATOM_NUM>  (994) 
fragi: 7  fragj: 11

>  <atom.prop.CHAIN_ID>  (994) 
A A A A A A A Z Z Z Z Z Z Z Z Z Z Z

>  <atom.prop.IS_HEAVY_ATOM>  (994) 
1 0 0 0 1 1 1 1 0 0 0 1 0 0 1 0 0 0

>  <DIFUSE_FUNC_ATOM>  (994) 
atom 6   atom 7   

>  <FINAL_SINGLE_POINT_ENERGY>  (994) 
0

>  <NONCOV_INTER_ENERGY_QM>  (994) 
0

>  <FF_Energy>  (994) 
36.06

>  <QM_Energy>  (994) 
11.49

>  <source>  (994) 
ACET_PRPA_10

>  <Index>  (994) 
524

$$$$
ACET-pdb1tjl-I-GLU-92:PRPA-pdb1tjl-I-ARG-89
     RDKit          3D

 18 16  0  0  0  0  0  0  0  0999 V2000
    0.0022    1.5242   -0.0211 C   0  0  0  0  0  0  0  0  0  0  0  0
    0.9048    1.8189    0.2270 H   0  0  0  0  0  0  0  0  0  0  0  0
   -0.6809    1.8260    0.6164 H   0  0  0  0  0  0  0  0  0  0  0  0
   -0.2365    1.9290   -1.0046 H   0  0  0  0  0  0  0  0  0  0  0  0
    0.0000    0.0000    0.0000 C   0  0  0  0  0  0  0  0  0  0  0  0
   -1.1002   -0.6053    0.0000 O   0  0  0  0  0  1  0  0  0  0  0  0
    1.1002   -0.5898   -0.0000 O   0  0  0  0  0  0  0  0  0  0  0  0
   -3.8167   -0.2281    0.5768 C   0  0  0  0  0  0  0  0  0  0  0  0
   -2.8910   -0.4305    0.2223 H   0  0  0  0  0  0  0  0  0  0  0  0
   -3.7593   -0.0764    1.6547 H   0  0  0  0  0  0  0  0  0  0  0  0
   -4.1959    0.6543    0.0613 H   0  0  0  0  0  0  0  0  0  0  0  0
   -4.7106   -1.4203    0.2546 C   0  0  0  0  0  0  0  0  0  0  0  0
   -4.5856   -2.1048    0.9584 H   0  0  0  0  0  0  0  0  0  0  0  0
   -5.6490   -1.1089    0.2239 H   0  0  0  0  0  0  0  0  0  0  0  0
   -4.3758   -2.0499   -1.0847 C   0  0  0  0  0  0  0  0  0  0  0  0
   -4.3437   -1.3400   -1.7830 H   0  0  0  0  0  0  0  0  0  0  0  0
   -3.4932   -2.5072   -1.0208 H   0  0  0  0  0  0  0  0  0  0  0  0
   -5.1302   -2.7845   -1.3661 H   0  0  0  0  0  0  0  0  0  0  0  0
  1  5  1  0
  5  6  1  0
  5  7  2  0
  1  2  1  0
  1  3  1  0
  1  4  1  0
  8 12  1  0
 12 15  1  0
  8  9  1  0
  8 10  1  0
  8 11  1  0
 12 13  1  0
 12 14  1  0
 15 16  1  0
 15 17  1  0
 15 18  1  0
M  CHG  1   6  -1
M  END
>  <PDB_ID>  (995) 
pdb1tjl

>  <RESIDUE_NAME>  (995) 
GLU   ARG

>  <FRAG_NAME>  (995) 
ACET   PRPA

>  <FRAG_ATOM_NUM>  (995) 
fragi: 7  fragj: 11

>  <atom.prop.CHAIN_ID>  (995) 
A A A A A A A Z Z Z Z Z Z Z Z Z Z Z

>  <atom.prop.IS_HEAVY_ATOM>  (995) 
1 0 0 0 1 1 1 1 0 0 0 1 0 0 1 0 0 0

>  <DIFUSE_FUNC_ATOM>  (995) 
atom 6   atom 7   

>  <FINAL_SINGLE_POINT_ENERGY>  (995) 
0

>  <NONCOV_INTER_ENERGY_QM>  (995) 
0

>  <FF_Energy>  (995) 
24.86

>  <QM_Energy>  (995) 
-0.11

>  <source>  (995) 
ACET_PRPA_10

>  <Index>  (995) 
616

$$$$
ACET-pdb1u0u-A-ASP-297:PRPA-pdb1u0u-A-LYS-300
     RDKit          3D

 18 16  0  0  0  0  0  0  0  0999 V2000
   -0.0083    1.5321   -0.0079 C   0  0  0  0  0  0  0  0  0  0  0  0
   -0.1930    1.8382   -0.9311 H   0  0  0  0  0  0  0  0  0  0  0  0
    0.8757    1.8509    0.3028 H   0  0  0  0  0  0  0  0  0  0  0  0
   -0.7731    1.9451    0.6498 H   0  0  0  0  0  0  0  0  0  0  0  0
    0.0000    0.0000    0.0000 C   0  0  0  0  0  0  0  0  0  0  0  0
   -1.0954   -0.6053    0.0000 O   0  0  0  0  0  1  0  0  0  0  0  0
    1.0954   -0.5983    0.0000 O   0  0  0  0  0  0  0  0  0  0  0  0
    3.0979    0.7365    1.4588 C   0  0  0  0  0  0  0  0  0  0  0  0
    3.5859   -0.0710    1.1116 H   0  0  0  0  0  0  0  0  0  0  0  0
    2.1123    0.6016    1.3173 H   0  0  0  0  0  0  0  0  0  0  0  0
    3.2951    0.8401    2.5258 H   0  0  0  0  0  0  0  0  0  0  0  0
    3.5426    1.9569    0.6512 C   0  0  0  0  0  0  0  0  0  0  0  0
    4.4963    2.1559    0.8728 H   0  0  0  0  0  0  0  0  0  0  0  0
    3.4616    1.7441   -0.3214 H   0  0  0  0  0  0  0  0  0  0  0  0
    2.7074    3.2002    0.9454 C   0  0  0  0  0  0  0  0  0  0  0  0
    1.7358    2.9804    0.8057 H   0  0  0  0  0  0  0  0  0  0  0  0
    2.8397    3.4617    1.9084 H   0  0  0  0  0  0  0  0  0  0  0  0
    2.9702    4.0481    0.3128 H   0  0  0  0  0  0  0  0  0  0  0  0
  1  5  1  0
  5  6  1  0
  5  7  2  0
  1  2  1  0
  1  3  1  0
  1  4  1  0
  8 12  1  0
 12 15  1  0
  8  9  1  0
  8 10  1  0
  8 11  1  0
 12 13  1  0
 12 14  1  0
 15 16  1  0
 15 17  1  0
 15 18  1  0
M  CHG  1   6  -1
M  END
>  <PDB_ID>  (996) 
pdb1u0u

>  <RESIDUE_NAME>  (996) 
ASP   LYS

>  <FRAG_NAME>  (996) 
ACET   PRPA

>  <FRAG_ATOM_NUM>  (996) 
fragi: 7  fragj: 11

>  <atom.prop.CHAIN_ID>  (996) 
A A A A A A A Z Z Z Z Z Z Z Z Z Z Z

>  <atom.prop.IS_HEAVY_ATOM>  (996) 
1 0 0 0 1 1 1 1 0 0 0 1 0 0 1 0 0 0

>  <DIFUSE_FUNC_ATOM>  (996) 
atom 6   atom 7   

>  <FINAL_SINGLE_POINT_ENERGY>  (996) 
0

>  <NONCOV_INTER_ENERGY_QM>  (996) 
0

>  <FF_Energy>  (996) 
35.08

>  <QM_Energy>  (996) 
5.27

>  <source>  (996) 
ACET_PRPA_10

>  <Index>  (996) 
930

$$$$
ACET-pdb2zqz-D-GLU-213:PRPA-pdb2zqz-E-PRO-305
     RDKit          3D

 18 16  0  0  0  0  0  0  0  0999 V2000
    0.0157    1.5356    0.0208 C   0  0  0  0  0  0  0  0  0  0  0  0
    0.9512    1.8213   -0.1062 H   0  0  0  0  0  0  0  0  0  0  0  0
   -0.3378    1.8198    0.8961 H   0  0  0  0  0  0  0  0  0  0  0  0
   -0.5883    2.0038   -0.7563 H   0  0  0  0  0  0  0  0  0  0  0  0
    0.0000    0.0000    0.0000 C   0  0  0  0  0  0  0  0  0  0  0  0
   -1.0964   -0.6056    0.0000 O   0  0  0  0  0  1  0  0  0  0  0  0
    1.0964   -0.6055    0.0000 O   0  0  0  0  0  0  0  0  0  0  0  0
    1.1950   -1.6457   -3.4911 C   0  0  0  0  0  0  0  0  0  0  0  0
    2.0967   -1.8054   -3.1051 H   0  0  0  0  0  0  0  0  0  0  0  0
    1.1453   -0.7429   -3.9001 H   0  0  0  0  0  0  0  0  0  0  0  0
    0.9359   -2.4192   -4.2140 H   0  0  0  0  0  0  0  0  0  0  0  0
    0.1286   -1.8167   -2.4422 C   0  0  0  0  0  0  0  0  0  0  0  0
    0.3075   -2.6235   -1.8932 H   0  0  0  0  0  0  0  0  0  0  0  0
    0.0711   -1.0081   -1.8710 H   0  0  0  0  0  0  0  0  0  0  0  0
   -1.1201   -1.9879   -3.2708 C   0  0  0  0  0  0  0  0  0  0  0  0
   -1.8260   -2.4740   -2.7674 H   0  0  0  0  0  0  0  0  0  0  0  0
   -1.4663   -1.1118   -3.5924 H   0  0  0  0  0  0  0  0  0  0  0  0
   -0.7564   -2.5891   -4.1042 H   0  0  0  0  0  0  0  0  0  0  0  0
  1  5  1  0
  5  6  1  0
  5  7  2  0
  1  2  1  0
  1  3  1  0
  1  4  1  0
  8 12  1  0
 12 15  1  0
  8  9  1  0
  8 10  1  0
  8 11  1  0
 12 13  1  0
 12 14  1  0
 15 16  1  0
 15 17  1  0
 15 18  1  0
M  CHG  1   6  -1
M  END
>  <PDB_ID>  (997) 
pdb2zqz

>  <RESIDUE_NAME>  (997) 
GLU   PRO

>  <FRAG_NAME>  (997) 
ACET   PRPA

>  <FRAG_ATOM_NUM>  (997) 
fragi: 7  fragj: 11

>  <atom.prop.CHAIN_ID>  (997) 
A A A A A A A Z Z Z Z Z Z Z Z Z Z Z

>  <atom.prop.IS_HEAVY_ATOM>  (997) 
1 0 0 0 1 1 1 1 0 0 0 1 0 0 1 0 0 0

>  <DIFUSE_FUNC_ATOM>  (997) 
atom 6   atom 7   

>  <FINAL_SINGLE_POINT_ENERGY>  (997) 
0

>  <NONCOV_INTER_ENERGY_QM>  (997) 
0

>  <FF_Energy>  (997) 
15.72

>  <QM_Energy>  (997) 
-0.08

>  <source>  (997) 
ACET_PRPA_10

>  <Index>  (997) 
2323

$$$$
ACET-pdb1ukm-B-GLU-24:PRPA-pdb1ukm-B-LYS-20
     RDKit          3D

 18 16  0  0  0  0  0  0  0  0999 V2000
   -0.0155    1.5320    0.0099 C   0  0  0  0  0  0  0  0  0  0  0  0
    0.7659    1.8316   -0.4934 H   0  0  0  0  0  0  0  0  0  0  0  0
   -0.0054    1.8146    0.9453 H   0  0  0  0  0  0  0  0  0  0  0  0
   -0.9125    1.9263   -0.4675 H   0  0  0  0  0  0  0  0  0  0  0  0
    0.0000    0.0000    0.0000 C   0  0  0  0  0  0  0  0  0  0  0  0
   -1.0976   -0.6033   -0.0000 O   0  0  0  0  0  1  0  0  0  0  0  0
    1.0976   -0.6044   -0.0000 O   0  0  0  0  0  0  0  0  0  0  0  0
    1.3489    1.6960    3.0834 C   0  0  0  0  0  0  0  0  0  0  0  0
    1.6888    2.6179    3.2867 H   0  0  0  0  0  0  0  0  0  0  0  0
    0.8787    1.7119    2.1964 H   0  0  0  0  0  0  0  0  0  0  0  0
    2.2067    1.0285    3.0002 H   0  0  0  0  0  0  0  0  0  0  0  0
    0.3305    1.3197    4.1538 C   0  0  0  0  0  0  0  0  0  0  0  0
    0.8123    1.0852    4.9929 H   0  0  0  0  0  0  0  0  0  0  0  0
   -0.2790    2.0907    4.3094 H   0  0  0  0  0  0  0  0  0  0  0  0
   -0.4939    0.1201    3.7050 C   0  0  0  0  0  0  0  0  0  0  0  0
   -0.8524    0.3010    2.7939 H   0  0  0  0  0  0  0  0  0  0  0  0
    0.0915   -0.6841    3.6919 H   0  0  0  0  0  0  0  0  0  0  0  0
   -1.3303   -0.0669    4.3785 H   0  0  0  0  0  0  0  0  0  0  0  0
  1  5  1  0
  5  6  1  0
  5  7  2  0
  1  2  1  0
  1  3  1  0
  1  4  1  0
  8 12  1  0
 12 15  1  0
  8  9  1  0
  8 10  1  0
  8 11  1  0
 12 13  1  0
 12 14  1  0
 15 16  1  0
 15 17  1  0
 15 18  1  0
M  CHG  1   6  -1
M  END
>  <PDB_ID>  (998) 
pdb1ukm

>  <RESIDUE_NAME>  (998) 
GLU   LYS

>  <FRAG_NAME>  (998) 
ACET   PRPA

>  <FRAG_ATOM_NUM>  (998) 
fragi: 7  fragj: 11

>  <atom.prop.CHAIN_ID>  (998) 
A A A A A A A Z Z Z Z Z Z Z Z Z Z Z

>  <atom.prop.IS_HEAVY_ATOM>  (998) 
1 0 0 0 1 1 1 1 0 0 0 1 0 0 1 0 0 0

>  <DIFUSE_FUNC_ATOM>  (998) 
atom 6   atom 7   

>  <FINAL_SINGLE_POINT_ENERGY>  (998) 
0

>  <NONCOV_INTER_ENERGY_QM>  (998) 
0

>  <FF_Energy>  (998) 
20.07

>  <QM_Energy>  (998) 
1.32

>  <source>  (998) 
ACET_PRPA_10

>  <Index>  (998) 
2809

$$$$
ACET-pdb1u2j-B-ASP-449:PRPA-pdb1u2j-B-LYS-522
     RDKit          3D

 18 16  0  0  0  0  0  0  0  0999 V2000
   -0.0390    1.5422    0.0190 C   0  0  0  0  0  0  0  0  0  0  0  0
   -0.7297    1.8253    0.6674 H   0  0  0  0  0  0  0  0  0  0  0  0
   -0.2511    1.8573   -0.8925 H   0  0  0  0  0  0  0  0  0  0  0  0
    0.9146    1.9760    0.3202 H   0  0  0  0  0  0  0  0  0  0  0  0
    0.0000    0.0000    0.0000 C   0  0  0  0  0  0  0  0  0  0  0  0
   -1.0767   -0.6560    0.0000 O   0  0  0  0  0  1  0  0  0  0  0  0
    1.0767   -0.6412    0.0000 O   0  0  0  0  0  0  0  0  0  0  0  0
   -1.9656   -0.3444   -4.0272 C   0  0  0  0  0  0  0  0  0  0  0  0
   -2.4564   -1.1767   -3.6950 H   0  0  0  0  0  0  0  0  0  0  0  0
   -1.4651   -0.5942   -4.9628 H   0  0  0  0  0  0  0  0  0  0  0  0
   -2.6830    0.4738   -4.0917 H   0  0  0  0  0  0  0  0  0  0  0  0
   -0.9448   -0.0262   -2.9280 C   0  0  0  0  0  0  0  0  0  0  0  0
   -0.3767    0.7361   -3.2394 H   0  0  0  0  0  0  0  0  0  0  0  0
   -1.4458    0.2494   -2.1064 H   0  0  0  0  0  0  0  0  0  0  0  0
   -0.0152   -1.1852   -2.5498 C   0  0  0  0  0  0  0  0  0  0  0  0
    0.5317   -1.4354   -3.3541 H   0  0  0  0  0  0  0  0  0  0  0  0
    0.6016   -0.8791   -1.8201 H   0  0  0  0  0  0  0  0  0  0  0  0
   -0.5567   -2.0665   -2.2060 H   0  0  0  0  0  0  0  0  0  0  0  0
  1  5  1  0
  5  6  1  0
  5  7  2  0
  1  2  1  0
  1  3  1  0
  1  4  1  0
  8 12  1  0
 12 15  1  0
  8  9  1  0
  8 10  1  0
  8 11  1  0
 12 13  1  0
 12 14  1  0
 15 16  1  0
 15 17  1  0
 15 18  1  0
M  CHG  1   6  -1
M  END
>  <PDB_ID>  (999) 
pdb1u2j

>  <RESIDUE_NAME>  (999) 
ASP   LYS

>  <FRAG_NAME>  (999) 
ACET   PRPA

>  <FRAG_ATOM_NUM>  (999) 
fragi: 7  fragj: 11

>  <atom.prop.CHAIN_ID>  (999) 
A A A A A A A Z Z Z Z Z Z Z Z Z Z Z

>  <atom.prop.IS_HEAVY_ATOM>  (999) 
1 0 0 0 1 1 1 1 0 0 0 1 0 0 1 0 0 0

>  <DIFUSE_FUNC_ATOM>  (999) 
atom 6   atom 7   

>  <FINAL_SINGLE_POINT_ENERGY>  (999) 
0

>  <NONCOV_INTER_ENERGY_QM>  (999) 
0

>  <FF_Energy>  (999) 
32.94

>  <QM_Energy>  (999) 
2.91

>  <source>  (999) 
ACET_PRPA_10

>  <Index>  (999) 
3063

$$$$
ACET-pdb1u2j-B-ASP-449:PRPA-pdb1u2j-B-LYS-522
     RDKit          3D

 18 16  0  0  0  0  0  0  0  0999 V2000
   -0.0390    1.5422    0.0190 C   0  0  0  0  0  0  0  0  0  0  0  0
   -0.7297    1.8253    0.6674 H   0  0  0  0  0  0  0  0  0  0  0  0
   -0.2511    1.8573   -0.8925 H   0  0  0  0  0  0  0  0  0  0  0  0
    0.9146    1.9760    0.3202 H   0  0  0  0  0  0  0  0  0  0  0  0
    0.0000    0.0000    0.0000 C   0  0  0  0  0  0  0  0  0  0  0  0
   -1.0767   -0.6560    0.0000 O   0  0  0  0  0  1  0  0  0  0  0  0
    1.0767   -0.6412    0.0000 O   0  0  0  0  0  0  0  0  0  0  0  0
   -0.9448   -0.0262   -2.9280 C   0  0  0  0  0  0  0  0  0  0  0  0
   -0.3767    0.7361   -3.2394 H   0  0  0  0  0  0  0  0  0  0  0  0
   -1.4458    0.2494   -2.1064 H   0  0  0  0  0  0  0  0  0  0  0  0
   -1.6704   -0.2523   -3.7093 H   0  0  0  0  0  0  0  0  0  0  0  0
   -0.0152   -1.1852   -2.5498 C   0  0  0  0  0  0  0  0  0  0  0  0
    0.5317   -1.4354   -3.3541 H   0  0  0  0  0  0  0  0  0  0  0  0
    0.6016   -0.8791   -1.8201 H   0  0  0  0  0  0  0  0  0  0  0  0
   -0.7738   -2.4199   -2.0682 C   0  0  0  0  0  0  0  0  0  0  0  0
   -1.5991   -2.1316   -1.6009 H   0  0  0  0  0  0  0  0  0  0  0  0
   -0.9910   -2.9933   -2.8478 H   0  0  0  0  0  0  0  0  0  0  0  0
   -0.1765   -3.0073   -1.3709 H   0  0  0  0  0  0  0  0  0  0  0  0
  1  5  1  0
  5  6  1  0
  5  7  2  0
  1  2  1  0
  1  3  1  0
  1  4  1  0
  8 12  1  0
 12 15  1  0
  8  9  1  0
  8 10  1  0
  8 11  1  0
 12 13  1  0
 12 14  1  0
 15 16  1  0
 15 17  1  0
 15 18  1  0
M  CHG  1   6  -1
M  END
>  <PDB_ID>  (1000) 
pdb1u2j

>  <RESIDUE_NAME>  (1000) 
ASP   LYS

>  <FRAG_NAME>  (1000) 
ACET   PRPA

>  <FRAG_ATOM_NUM>  (1000) 
fragi: 7  fragj: 11

>  <atom.prop.CHAIN_ID>  (1000) 
A A A A A A A Z Z Z Z Z Z Z Z Z Z Z

>  <atom.prop.IS_HEAVY_ATOM>  (1000) 
1 0 0 0 1 1 1 1 0 0 0 1 0 0 1 0 0 0

>  <DIFUSE_FUNC_ATOM>  (1000) 
atom 6   atom 7   

>  <FINAL_SINGLE_POINT_ENERGY>  (1000) 
0

>  <NONCOV_INTER_ENERGY_QM>  (1000) 
0

>  <FF_Energy>  (1000) 
41.78

>  <QM_Energy>  (1000) 
3.0

>  <source>  (1000) 
ACET_PRPA_10

>  <Index>  (1000) 
3068

$$$$
ACET-pdb1u2j-B-ASP-449:PRPA-pdb1u2j-B-LYS-522
     RDKit          3D

 18 16  0  0  0  0  0  0  0  0999 V2000
   -0.0390    1.5422    0.0190 C   0  0  0  0  0  0  0  0  0  0  0  0
   -0.7297    1.8253    0.6674 H   0  0  0  0  0  0  0  0  0  0  0  0
   -0.2511    1.8573   -0.8925 H   0  0  0  0  0  0  0  0  0  0  0  0
    0.9146    1.9760    0.3202 H   0  0  0  0  0  0  0  0  0  0  0  0
    0.0000    0.0000    0.0000 C   0  0  0  0  0  0  0  0  0  0  0  0
   -1.0767   -0.6560    0.0000 O   0  0  0  0  0  1  0  0  0  0  0  0
    1.0767   -0.6412    0.0000 O   0  0  0  0  0  0  0  0  0  0  0  0
   -0.0152   -1.1852   -2.5498 C   0  0  0  0  0  0  0  0  0  0  0  0
    0.5317   -1.4354   -3.3541 H   0  0  0  0  0  0  0  0  0  0  0  0
    0.6016   -0.8791   -1.8201 H   0  0  0  0  0  0  0  0  0  0  0  0
   -0.6761   -0.3612   -2.8187 H   0  0  0  0  0  0  0  0  0  0  0  0
   -0.7738   -2.4199   -2.0682 C   0  0  0  0  0  0  0  0  0  0  0  0
   -1.5991   -2.1316   -1.6009 H   0  0  0  0  0  0  0  0  0  0  0  0
   -0.9910   -2.9933   -2.8478 H   0  0  0  0  0  0  0  0  0  0  0  0
    0.0715   -3.2513   -1.0812 C   0  0  0  0  0  0  0  0  0  0  0  0
    1.0457   -3.0319   -1.2303 H   0  0  0  0  0  0  0  0  0  0  0  0
   -0.1691   -2.9732   -0.1414 H   0  0  0  0  0  0  0  0  0  0  0  0
   -0.0631   -4.3289   -1.1738 H   0  0  0  0  0  0  0  0  0  0  0  0
  1  5  1  0
  5  6  1  0
  5  7  2  0
  1  2  1  0
  1  3  1  0
  1  4  1  0
  8 12  1  0
 12 15  1  0
  8  9  1  0
  8 10  1  0
  8 11  1  0
 12 13  1  0
 12 14  1  0
 15 16  1  0
 15 17  1  0
 15 18  1  0
M  CHG  1   6  -1
M  END
>  <PDB_ID>  (1001) 
pdb1u2j

>  <RESIDUE_NAME>  (1001) 
ASP   LYS

>  <FRAG_NAME>  (1001) 
ACET   PRPA

>  <FRAG_ATOM_NUM>  (1001) 
fragi: 7  fragj: 11

>  <atom.prop.CHAIN_ID>  (1001) 
A A A A A A A Z Z Z Z Z Z Z Z Z Z Z

>  <atom.prop.IS_HEAVY_ATOM>  (1001) 
1 0 0 0 1 1 1 1 0 0 0 1 0 0 1 0 0 0

>  <DIFUSE_FUNC_ATOM>  (1001) 
atom 6   atom 7   

>  <FINAL_SINGLE_POINT_ENERGY>  (1001) 
0

>  <NONCOV_INTER_ENERGY_QM>  (1001) 
0

>  <FF_Energy>  (1001) 
37.86

>  <QM_Energy>  (1001) 
2.11

>  <source>  (1001) 
ACET_PRPA_10

>  <Index>  (1001) 
3076

$$$$
ACET-pdb1u3h-H-GLU-59:PRPA-pdb1u3h-H-LYS-63
     RDKit          3D

 18 16  0  0  0  0  0  0  0  0999 V2000
   -0.0034    1.5383    0.0026 C   0  0  0  0  0  0  0  0  0  0  0  0
    0.9239    1.8329   -0.1026 H   0  0  0  0  0  0  0  0  0  0  0  0
   -0.4026    1.8279    0.8483 H   0  0  0  0  0  0  0  0  0  0  0  0
   -0.5889    1.9611   -0.8138 H   0  0  0  0  0  0  0  0  0  0  0  0
    0.0000    0.0000    0.0000 C   0  0  0  0  0  0  0  0  0  0  0  0
   -1.0975   -0.6033   -0.0000 O   0  0  0  0  0  1  0  0  0  0  0  0
    1.0975   -0.6060    0.0000 O   0  0  0  0  0  0  0  0  0  0  0  0
    3.8632    3.7900    0.8443 C   0  0  0  0  0  0  0  0  0  0  0  0
    3.8428    3.7140    1.8319 H   0  0  0  0  0  0  0  0  0  0  0  0
    2.9724    4.0361    0.4887 H   0  0  0  0  0  0  0  0  0  0  0  0
    4.5976    4.5394    0.5490 H   0  0  0  0  0  0  0  0  0  0  0  0
    4.2577    2.4176    0.2600 C   0  0  0  0  0  0  0  0  0  0  0  0
    4.2624    2.4887   -0.7365 H   0  0  0  0  0  0  0  0  0  0  0  0
    5.1734    2.1864    0.5847 H   0  0  0  0  0  0  0  0  0  0  0  0
    3.3011    1.2829    0.6602 C   0  0  0  0  0  0  0  0  0  0  0  0
    2.3558    1.5739    0.4539 H   0  0  0  0  0  0  0  0  0  0  0  0
    3.5077    0.4747    0.0899 H   0  0  0  0  0  0  0  0  0  0  0  0
    3.3646    1.0015    1.7113 H   0  0  0  0  0  0  0  0  0  0  0  0
  1  5  1  0
  5  6  1  0
  5  7  2  0
  1  2  1  0
  1  3  1  0
  1  4  1  0
  8 12  1  0
 12 15  1  0
  8  9  1  0
  8 10  1  0
  8 11  1  0
 12 13  1  0
 12 14  1  0
 15 16  1  0
 15 17  1  0
 15 18  1  0
M  CHG  1   6  -1
M  END
>  <PDB_ID>  (1002) 
pdb1u3h

>  <RESIDUE_NAME>  (1002) 
GLU   LYS

>  <FRAG_NAME>  (1002) 
ACET   PRPA

>  <FRAG_ATOM_NUM>  (1002) 
fragi: 7  fragj: 11

>  <atom.prop.CHAIN_ID>  (1002) 
A A A A A A A Z Z Z Z Z Z Z Z Z Z Z

>  <atom.prop.IS_HEAVY_ATOM>  (1002) 
1 0 0 0 1 1 1 1 0 0 0 1 0 0 1 0 0 0

>  <DIFUSE_FUNC_ATOM>  (1002) 
atom 6   atom 7   

>  <FINAL_SINGLE_POINT_ENERGY>  (1002) 
0

>  <NONCOV_INTER_ENERGY_QM>  (1002) 
0

>  <FF_Energy>  (1002) 
17.73

>  <QM_Energy>  (1002) 
2.72

>  <source>  (1002) 
ACET_PRPA_10

>  <Index>  (1002) 
3112

$$$$
ACET-pdb1umu-A-ASP-39:PRPA-pdb1umu-A-GLN-42
     RDKit          3D

 18 16  0  0  0  0  0  0  0  0999 V2000
    0.0057    1.5340   -0.0139 C   0  0  0  0  0  0  0  0  0  0  0  0
   -0.1471    1.8364   -0.9459 H   0  0  0  0  0  0  0  0  0  0  0  0
    0.8862    1.8444    0.3179 H   0  0  0  0  0  0  0  0  0  0  0  0
   -0.7726    1.9593    0.6198 H   0  0  0  0  0  0  0  0  0  0  0  0
    0.0000    0.0000    0.0000 C   0  0  0  0  0  0  0  0  0  0  0  0
   -1.1007   -0.5971    0.0000 O   0  0  0  0  0  1  0  0  0  0  0  0
    1.1007   -0.5981    0.0000 O   0  0  0  0  0  0  0  0  0  0  0  0
    2.9881   -0.9837    3.1507 C   0  0  0  0  0  0  0  0  0  0  0  0
    3.5064   -1.8442    3.2112 H   0  0  0  0  0  0  0  0  0  0  0  0
    1.9283   -1.2373    3.1257 H   0  0  0  0  0  0  0  0  0  0  0  0
    3.2384   -0.3827    4.0248 H   0  0  0  0  0  0  0  0  0  0  0  0
    3.3950   -0.2415    1.8798 C   0  0  0  0  0  0  0  0  0  0  0  0
    4.3261    0.1168    2.0015 H   0  0  0  0  0  0  0  0  0  0  0  0
    3.3988   -0.8941    1.1151 H   0  0  0  0  0  0  0  0  0  0  0  0
    2.4889    0.9134    1.5108 C   0  0  0  0  0  0  0  0  0  0  0  0
    1.5575    0.5618    1.3809 H   0  0  0  0  0  0  0  0  0  0  0  0
    2.4843    1.5722    2.2684 H   0  0  0  0  0  0  0  0  0  0  0  0
    2.8001    1.4259    0.6006 H   0  0  0  0  0  0  0  0  0  0  0  0
  1  5  1  0
  5  6  1  0
  5  7  2  0
  1  2  1  0
  1  3  1  0
  1  4  1  0
  8 12  1  0
 12 15  1  0
  8  9  1  0
  8 10  1  0
  8 11  1  0
 12 13  1  0
 12 14  1  0
 15 16  1  0
 15 17  1  0
 15 18  1  0
M  CHG  1   6  -1
M  END
>  <PDB_ID>  (1003) 
pdb1umu

>  <RESIDUE_NAME>  (1003) 
ASP   GLN

>  <FRAG_NAME>  (1003) 
ACET   PRPA

>  <FRAG_ATOM_NUM>  (1003) 
fragi: 7  fragj: 11

>  <atom.prop.CHAIN_ID>  (1003) 
A A A A A A A Z Z Z Z Z Z Z Z Z Z Z

>  <atom.prop.IS_HEAVY_ATOM>  (1003) 
1 0 0 0 1 1 1 1 0 0 0 1 0 0 1 0 0 0

>  <DIFUSE_FUNC_ATOM>  (1003) 
atom 6   atom 7   

>  <FINAL_SINGLE_POINT_ENERGY>  (1003) 
0

>  <NONCOV_INTER_ENERGY_QM>  (1003) 
0

>  <FF_Energy>  (1003) 
48.97

>  <QM_Energy>  (1003) 
10.16

>  <source>  (1003) 
ACET_PRPA_10

>  <Index>  (1003) 
3119

$$$$
ACET-pdb2zqz-F-ASP-265:PRPA-pdb2zqz-F-ARG-295
     RDKit          3D

 18 16  0  0  0  0  0  0  0  0999 V2000
   -0.0002    1.4983   -0.0033 C   0  0  0  0  0  0  0  0  0  0  0  0
   -0.4188    1.8246   -0.8461 H   0  0  0  0  0  0  0  0  0  0  0  0
    0.9361    1.8270    0.0640 H   0  0  0  0  0  0  0  0  0  0  0  0
   -0.5609    1.9219    0.8299 H   0  0  0  0  0  0  0  0  0  0  0  0
    0.0000    0.0000    0.0000 C   0  0  0  0  0  0  0  0  0  0  0  0
   -1.0995   -0.5885    0.0000 O   0  0  0  0  0  1  0  0  0  0  0  0
    1.0995   -0.5860    0.0000 O   0  0  0  0  0  0  0  0  0  0  0  0
   -2.6460    0.3344   -2.0019 C   0  0  0  0  0  0  0  0  0  0  0  0
   -2.2532    1.2581   -2.1015 H   0  0  0  0  0  0  0  0  0  0  0  0
   -2.0146   -0.2149   -1.4393 H   0  0  0  0  0  0  0  0  0  0  0  0
   -3.5812    0.4305   -1.4502 H   0  0  0  0  0  0  0  0  0  0  0  0
   -2.7213   -0.2950   -3.3751 C   0  0  0  0  0  0  0  0  0  0  0  0
   -3.3388   -1.0693   -3.3598 H   0  0  0  0  0  0  0  0  0  0  0  0
   -3.0131    0.3780   -4.0401 H   0  0  0  0  0  0  0  0  0  0  0  0
   -1.3396   -0.8036   -3.7982 C   0  0  0  0  0  0  0  0  0  0  0  0
   -1.4339   -1.2380   -4.6848 H   0  0  0  0  0  0  0  0  0  0  0  0
   -0.7323   -0.0213   -3.8505 H   0  0  0  0  0  0  0  0  0  0  0  0
   -0.9504   -1.5224   -3.0772 H   0  0  0  0  0  0  0  0  0  0  0  0
  1  5  1  0
  5  6  1  0
  5  7  2  0
  1  2  1  0
  1  3  1  0
  1  4  1  0
  8 12  1  0
 12 15  1  0
  8  9  1  0
  8 10  1  0
  8 11  1  0
 12 13  1  0
 12 14  1  0
 15 16  1  0
 15 17  1  0
 15 18  1  0
M  CHG  1   6  -1
M  END
>  <PDB_ID>  (1004) 
pdb2zqz

>  <RESIDUE_NAME>  (1004) 
ASP   ARG

>  <FRAG_NAME>  (1004) 
ACET   PRPA

>  <FRAG_ATOM_NUM>  (1004) 
fragi: 7  fragj: 11

>  <atom.prop.CHAIN_ID>  (1004) 
A A A A A A A Z Z Z Z Z Z Z Z Z Z Z

>  <atom.prop.IS_HEAVY_ATOM>  (1004) 
1 0 0 0 1 1 1 1 0 0 0 1 0 0 1 0 0 0

>  <DIFUSE_FUNC_ATOM>  (1004) 
atom 6   atom 7   

>  <FINAL_SINGLE_POINT_ENERGY>  (1004) 
0

>  <NONCOV_INTER_ENERGY_QM>  (1004) 
0

>  <FF_Energy>  (1004) 
41.37

>  <QM_Energy>  (1004) 
3.36

>  <source>  (1004) 
ACET_PRPA_10

>  <Index>  (1004) 
3554

$$$$
ACET-pdb2zqz-F-ASP-265:PRPA-pdb2zqz-F-ARG-295
     RDKit          3D

 18 16  0  0  0  0  0  0  0  0999 V2000
   -0.0002    1.4983   -0.0033 C   0  0  0  0  0  0  0  0  0  0  0  0
   -0.4188    1.8246   -0.8461 H   0  0  0  0  0  0  0  0  0  0  0  0
    0.9361    1.8270    0.0640 H   0  0  0  0  0  0  0  0  0  0  0  0
   -0.5609    1.9219    0.8299 H   0  0  0  0  0  0  0  0  0  0  0  0
    0.0000    0.0000    0.0000 C   0  0  0  0  0  0  0  0  0  0  0  0
   -1.0995   -0.5885    0.0000 O   0  0  0  0  0  1  0  0  0  0  0  0
    1.0995   -0.5860    0.0000 O   0  0  0  0  0  0  0  0  0  0  0  0
   -3.9644    0.4699   -1.2241 C   0  0  0  0  0  0  0  0  0  0  0  0
   -4.2256    1.4567   -1.3043 H   0  0  0  0  0  0  0  0  0  0  0  0
   -3.7623    0.2494   -0.1759 H   0  0  0  0  0  0  0  0  0  0  0  0
   -4.7552   -0.1264   -1.6792 H   0  0  0  0  0  0  0  0  0  0  0  0
   -2.6460    0.3344   -2.0019 C   0  0  0  0  0  0  0  0  0  0  0  0
   -2.2532    1.2581   -2.1015 H   0  0  0  0  0  0  0  0  0  0  0  0
   -2.0146   -0.2149   -1.4393 H   0  0  0  0  0  0  0  0  0  0  0  0
   -2.7213   -0.2950   -3.3751 C   0  0  0  0  0  0  0  0  0  0  0  0
   -3.3388   -1.0693   -3.3598 H   0  0  0  0  0  0  0  0  0  0  0  0
   -3.0131    0.3780   -4.0401 H   0  0  0  0  0  0  0  0  0  0  0  0
   -1.7382   -0.6568   -3.6762 H   0  0  0  0  0  0  0  0  0  0  0  0
  1  5  1  0
  5  6  1  0
  5  7  2  0
  1  2  1  0
  1  3  1  0
  1  4  1  0
  8 12  1  0
 12 15  1  0
  8  9  1  0
  8 10  1  0
  8 11  1  0
 12 13  1  0
 12 14  1  0
 15 16  1  0
 15 17  1  0
 15 18  1  0
M  CHG  1   6  -1
M  END
>  <PDB_ID>  (1005) 
pdb2zqz

>  <RESIDUE_NAME>  (1005) 
ASP   ARG

>  <FRAG_NAME>  (1005) 
ACET   PRPA

>  <FRAG_ATOM_NUM>  (1005) 
fragi: 7  fragj: 11

>  <atom.prop.CHAIN_ID>  (1005) 
A A A A A A A Z Z Z Z Z Z Z Z Z Z Z

>  <atom.prop.IS_HEAVY_ATOM>  (1005) 
1 0 0 0 1 1 1 1 0 0 0 1 0 0 1 0 0 0

>  <DIFUSE_FUNC_ATOM>  (1005) 
atom 6   atom 7   

>  <FINAL_SINGLE_POINT_ENERGY>  (1005) 
0

>  <NONCOV_INTER_ENERGY_QM>  (1005) 
0

>  <FF_Energy>  (1005) 
48.1

>  <QM_Energy>  (1005) 
1.92

>  <source>  (1005) 
ACET_PRPA_10

>  <Index>  (1005) 
3558

$$$$
ACET-pdb1ukh-A-ASP-151:PRPA-pdb1ukh-A-LEU-172
     RDKit          3D

 18 16  0  0  0  0  0  0  0  0999 V2000
    0.0061    1.5253   -0.0236 C   0  0  0  0  0  0  0  0  0  0  0  0
   -0.1396    1.8269   -0.9585 H   0  0  0  0  0  0  0  0  0  0  0  0
    0.8850    1.8431    0.3113 H   0  0  0  0  0  0  0  0  0  0  0  0
   -0.7736    1.9635    0.5995 H   0  0  0  0  0  0  0  0  0  0  0  0
    0.0000    0.0000    0.0000 C   0  0  0  0  0  0  0  0  0  0  0  0
   -1.1073   -0.5971   -0.0000 O   0  0  0  0  0  1  0  0  0  0  0  0
    1.1073   -0.5976   -0.0000 O   0  0  0  0  0  0  0  0  0  0  0  0
    0.0039    3.3405   -4.4402 C   0  0  0  0  0  0  0  0  0  0  0  0
    0.3069    2.4753   -4.8398 H   0  0  0  0  0  0  0  0  0  0  0  0
   -0.8256    3.1858   -3.9028 H   0  0  0  0  0  0  0  0  0  0  0  0
   -0.1914    3.9937   -5.1721 H   0  0  0  0  0  0  0  0  0  0  0  0
    1.0968    3.8965   -3.5398 C   0  0  0  0  0  0  0  0  0  0  0  0
    0.7958    4.7627   -3.1424 H   0  0  0  0  0  0  0  0  0  0  0  0
    2.0110    4.0729   -4.1064 H   0  0  0  0  0  0  0  0  0  0  0  0
    1.3731    2.9099   -2.4333 C   0  0  0  0  0  0  0  0  0  0  0  0
    2.0775    3.2742   -1.8195 H   0  0  0  0  0  0  0  0  0  0  0  0
    0.5352    2.7428   -1.9071 H   0  0  0  0  0  0  0  0  0  0  0  0
    1.6938    2.0425   -2.8211 H   0  0  0  0  0  0  0  0  0  0  0  0
  1  5  1  0
  5  6  1  0
  5  7  2  0
  1  2  1  0
  1  3  1  0
  1  4  1  0
  8 12  1  0
 12 15  1  0
  8  9  1  0
  8 10  1  0
  8 11  1  0
 12 13  1  0
 12 14  1  0
 15 16  1  0
 15 17  1  0
 15 18  1  0
M  CHG  1   6  -1
M  END
>  <PDB_ID>  (1006) 
pdb1ukh

>  <RESIDUE_NAME>  (1006) 
ASP   LEU

>  <FRAG_NAME>  (1006) 
ACET   PRPA

>  <FRAG_ATOM_NUM>  (1006) 
fragi: 7  fragj: 11

>  <atom.prop.CHAIN_ID>  (1006) 
A A A A A A A Z Z Z Z Z Z Z Z Z Z Z

>  <atom.prop.IS_HEAVY_ATOM>  (1006) 
1 0 0 0 1 1 1 1 0 0 0 1 0 0 1 0 0 0

>  <DIFUSE_FUNC_ATOM>  (1006) 
atom 6   atom 7   

>  <FINAL_SINGLE_POINT_ENERGY>  (1006) 
0

>  <NONCOV_INTER_ENERGY_QM>  (1006) 
0

>  <FF_Energy>  (1006) 
34.02

>  <QM_Energy>  (1006) 
5.78

>  <source>  (1006) 
ACET_PRPA_10

>  <Index>  (1006) 
3671

$$$$
ACET-pdb1uou-A-ASP-53:PRPA-pdb1uou-A-LYS-34
     RDKit          3D

 18 16  0  0  0  0  0  0  0  0999 V2000
   -0.0228    1.5532    0.0244 C   0  0  0  0  0  0  0  0  0  0  0  0
    0.6197    1.8797   -0.6599 H   0  0  0  0  0  0  0  0  0  0  0  0
    0.2529    1.8496    0.9309 H   0  0  0  0  0  0  0  0  0  0  0  0
   -0.9997    1.9850   -0.1932 H   0  0  0  0  0  0  0  0  0  0  0  0
    0.0000    0.0000    0.0000 C   0  0  0  0  0  0  0  0  0  0  0  0
   -1.0882   -0.6473   -0.0000 O   0  0  0  0  0  1  0  0  0  0  0  0
    1.0882   -0.6526   -0.0000 O   0  0  0  0  0  0  0  0  0  0  0  0
   -3.9947   -2.4948    2.2396 C   0  0  0  0  0  0  0  0  0  0  0  0
   -4.5945   -3.0473    1.6717 H   0  0  0  0  0  0  0  0  0  0  0  0
   -3.8464   -1.6039    1.8265 H   0  0  0  0  0  0  0  0  0  0  0  0
   -4.4394   -2.3716    3.2271 H   0  0  0  0  0  0  0  0  0  0  0  0
   -2.6632   -3.2007    2.3782 C   0  0  0  0  0  0  0  0  0  0  0  0
   -2.1366   -2.7576    3.1044 H   0  0  0  0  0  0  0  0  0  0  0  0
   -2.8259   -4.1562    2.6210 H   0  0  0  0  0  0  0  0  0  0  0  0
   -1.8510   -3.1590    1.0995 C   0  0  0  0  0  0  0  0  0  0  0  0
   -1.6836   -2.2073    0.8471 H   0  0  0  0  0  0  0  0  0  0  0  0
   -0.9807   -3.6253    1.2477 H   0  0  0  0  0  0  0  0  0  0  0  0
   -2.3854   -3.6533    0.2881 H   0  0  0  0  0  0  0  0  0  0  0  0
  1  5  1  0
  5  6  1  0
  5  7  2  0
  1  2  1  0
  1  3  1  0
  1  4  1  0
  8 12  1  0
 12 15  1  0
  8  9  1  0
  8 10  1  0
  8 11  1  0
 12 13  1  0
 12 14  1  0
 15 16  1  0
 15 17  1  0
 15 18  1  0
M  CHG  1   6  -1
M  END
>  <PDB_ID>  (1007) 
pdb1uou

>  <RESIDUE_NAME>  (1007) 
ASP   LYS

>  <FRAG_NAME>  (1007) 
ACET   PRPA

>  <FRAG_ATOM_NUM>  (1007) 
fragi: 7  fragj: 11

>  <atom.prop.CHAIN_ID>  (1007) 
A A A A A A A Z Z Z Z Z Z Z Z Z Z Z

>  <atom.prop.IS_HEAVY_ATOM>  (1007) 
1 0 0 0 1 1 1 1 0 0 0 1 0 0 1 0 0 0

>  <DIFUSE_FUNC_ATOM>  (1007) 
atom 6   atom 7   

>  <FINAL_SINGLE_POINT_ENERGY>  (1007) 
0

>  <NONCOV_INTER_ENERGY_QM>  (1007) 
0

>  <FF_Energy>  (1007) 
16.29

>  <QM_Energy>  (1007) 
-1.02

>  <source>  (1007) 
ACET_PRPA_10

>  <Index>  (1007) 
4528

$$$$
ACET-pdb1u2j-C-ASP-449:PRPA-pdb1u2j-C-LYS-522
     RDKit          3D

 18 16  0  0  0  0  0  0  0  0999 V2000
   -0.0782    1.5330   -0.0342 C   0  0  0  0  0  0  0  0  0  0  0  0
   -0.9236    1.8107    0.4073 H   0  0  0  0  0  0  0  0  0  0  0  0
   -0.0670    1.8243   -0.9831 H   0  0  0  0  0  0  0  0  0  0  0  0
    0.7527    2.0135    0.4823 H   0  0  0  0  0  0  0  0  0  0  0  0
    0.0000    0.0000    0.0000 C   0  0  0  0  0  0  0  0  0  0  0  0
   -1.0724   -0.6526    0.0000 O   0  0  0  0  0  1  0  0  0  0  0  0
    1.0724   -0.6429   -0.0000 O   0  0  0  0  0  0  0  0  0  0  0  0
    0.5847   -0.9019   -2.6237 C   0  0  0  0  0  0  0  0  0  0  0  0
    1.3883   -0.5543   -2.1245 H   0  0  0  0  0  0  0  0  0  0  0  0
   -0.1487   -1.0797   -1.9556 H   0  0  0  0  0  0  0  0  0  0  0  0
    0.2471   -0.1369   -3.3229 H   0  0  0  0  0  0  0  0  0  0  0  0
    0.9603   -2.2152   -3.2975 C   0  0  0  0  0  0  0  0  0  0  0  0
    0.1450   -2.6479   -3.6492 H   0  0  0  0  0  0  0  0  0  0  0  0
    1.6171   -2.0411   -4.0128 H   0  0  0  0  0  0  0  0  0  0  0  0
    1.6106   -3.1790   -2.2758 C   0  0  0  0  0  0  0  0  0  0  0  0
    2.5482   -2.8577   -2.0917 H   0  0  0  0  0  0  0  0  0  0  0  0
    1.0868   -3.1281   -1.4169 H   0  0  0  0  0  0  0  0  0  0  0  0
    1.6469   -4.2152   -2.6121 H   0  0  0  0  0  0  0  0  0  0  0  0
  1  5  1  0
  5  6  1  0
  5  7  2  0
  1  2  1  0
  1  3  1  0
  1  4  1  0
  8 12  1  0
 12 15  1  0
  8  9  1  0
  8 10  1  0
  8 11  1  0
 12 13  1  0
 12 14  1  0
 15 16  1  0
 15 17  1  0
 15 18  1  0
M  CHG  1   6  -1
M  END
>  <PDB_ID>  (1008) 
pdb1u2j

>  <RESIDUE_NAME>  (1008) 
ASP   LYS

>  <FRAG_NAME>  (1008) 
ACET   PRPA

>  <FRAG_ATOM_NUM>  (1008) 
fragi: 7  fragj: 11

>  <atom.prop.CHAIN_ID>  (1008) 
A A A A A A A Z Z Z Z Z Z Z Z Z Z Z

>  <atom.prop.IS_HEAVY_ATOM>  (1008) 
1 0 0 0 1 1 1 1 0 0 0 1 0 0 1 0 0 0

>  <DIFUSE_FUNC_ATOM>  (1008) 
atom 6   atom 7   

>  <FINAL_SINGLE_POINT_ENERGY>  (1008) 
0

>  <NONCOV_INTER_ENERGY_QM>  (1008) 
0

>  <FF_Energy>  (1008) 
16.56

>  <QM_Energy>  (1008) 
1.39

>  <source>  (1008) 
ACET_PRPA_10

>  <Index>  (1008) 
4907

$$$$
ACET-pdb1ups-A-GLU-88:PRPA-pdb1ups-A-LYS-58
     RDKit          3D

 18 16  0  0  0  0  0  0  0  0999 V2000
    0.2291    1.5165    0.0162 C   0  0  0  0  0  0  0  0  0  0  0  0
    0.7394    1.7392   -0.8008 H   0  0  0  0  0  0  0  0  0  0  0  0
    0.7507    1.7191    0.8314 H   0  0  0  0  0  0  0  0  0  0  0  0
   -0.6852    2.1098    0.0284 H   0  0  0  0  0  0  0  0  0  0  0  0
    0.0000    0.0000    0.0000 C   0  0  0  0  0  0  0  0  0  0  0  0
   -1.0875   -0.5253    0.0000 O   0  0  0  0  0  1  0  0  0  0  0  0
    1.0875   -0.6179    0.0000 O   0  0  0  0  0  0  0  0  0  0  0  0
    0.4971   -3.5700   -2.0005 C   0  0  0  0  0  0  0  0  0  0  0  0
    0.1163   -2.9122   -2.6471 H   0  0  0  0  0  0  0  0  0  0  0  0
    0.1279   -4.4781   -2.1857 H   0  0  0  0  0  0  0  0  0  0  0  0
    1.5760   -3.6071   -2.1511 H   0  0  0  0  0  0  0  0  0  0  0  0
    0.0792   -3.1579   -0.5947 C   0  0  0  0  0  0  0  0  0  0  0  0
    0.4533   -3.8136    0.0608 H   0  0  0  0  0  0  0  0  0  0  0  0
    0.4415   -2.2468   -0.4008 H   0  0  0  0  0  0  0  0  0  0  0  0
   -1.4348   -3.1274   -0.4523 C   0  0  0  0  0  0  0  0  0  0  0  0
   -1.8051   -2.4735   -1.1117 H   0  0  0  0  0  0  0  0  0  0  0  0
   -1.7937   -4.0402   -0.6487 H   0  0  0  0  0  0  0  0  0  0  0  0
   -1.7535   -2.8342    0.5480 H   0  0  0  0  0  0  0  0  0  0  0  0
  1  5  1  0
  5  6  1  0
  5  7  2  0
  1  2  1  0
  1  3  1  0
  1  4  1  0
  8 12  1  0
 12 15  1  0
  8  9  1  0
  8 10  1  0
  8 11  1  0
 12 13  1  0
 12 14  1  0
 15 16  1  0
 15 17  1  0
 15 18  1  0
M  CHG  1   6  -1
M  END
>  <PDB_ID>  (1009) 
pdb1ups

>  <RESIDUE_NAME>  (1009) 
GLU   LYS

>  <FRAG_NAME>  (1009) 
ACET   PRPA

>  <FRAG_ATOM_NUM>  (1009) 
fragi: 7  fragj: 11

>  <atom.prop.CHAIN_ID>  (1009) 
A A A A A A A Z Z Z Z Z Z Z Z Z Z Z

>  <atom.prop.IS_HEAVY_ATOM>  (1009) 
1 0 0 0 1 1 1 1 0 0 0 1 0 0 1 0 0 0

>  <DIFUSE_FUNC_ATOM>  (1009) 
atom 6   atom 7   

>  <FINAL_SINGLE_POINT_ENERGY>  (1009) 
0

>  <NONCOV_INTER_ENERGY_QM>  (1009) 
0

>  <FF_Energy>  (1009) 
43.14

>  <QM_Energy>  (1009) 
3.97

>  <source>  (1009) 
ACET_PRPA_10

>  <Index>  (1009) 
6152

$$$$
ACET-pdb1ux5-A-ASP-1452:PRPA-pdb1ux5-A-LYS-1447
     RDKit          3D

 18 16  0  0  0  0  0  0  0  0999 V2000
    0.0014    1.5298    0.0061 C   0  0  0  0  0  0  0  0  0  0  0  0
    0.9383    1.8449   -0.0658 H   0  0  0  0  0  0  0  0  0  0  0  0
   -0.4126    1.8431    0.8502 H   0  0  0  0  0  0  0  0  0  0  0  0
   -0.5622    1.9552   -0.8242 H   0  0  0  0  0  0  0  0  0  0  0  0
    0.0000    0.0000    0.0000 C   0  0  0  0  0  0  0  0  0  0  0  0
   -1.0957   -0.6030   -0.0000 O   0  0  0  0  0  1  0  0  0  0  0  0
    1.0957   -0.6016   -0.0000 O   0  0  0  0  0  0  0  0  0  0  0  0
    4.7449   -0.8625    0.1850 C   0  0  0  0  0  0  0  0  0  0  0  0
    4.8228   -1.5466    0.9179 H   0  0  0  0  0  0  0  0  0  0  0  0
    5.6569   -0.7184   -0.2153 H   0  0  0  0  0  0  0  0  0  0  0  0
    4.0976   -1.2711   -0.5910 H   0  0  0  0  0  0  0  0  0  0  0  0
    4.2878    0.4490    0.8090 C   0  0  0  0  0  0  0  0  0  0  0  0
    5.0467    0.8478    1.3208 H   0  0  0  0  0  0  0  0  0  0  0  0
    4.0029    1.0726    0.0852 H   0  0  0  0  0  0  0  0  0  0  0  0
    3.1207    0.2210    1.7531 C   0  0  0  0  0  0  0  0  0  0  0  0
    2.3069    0.0197    1.2157 H   0  0  0  0  0  0  0  0  0  0  0  0
    3.3345   -0.5457    2.3509 H   0  0  0  0  0  0  0  0  0  0  0  0
    2.9243    1.0990    2.3684 H   0  0  0  0  0  0  0  0  0  0  0  0
  1  5  1  0
  5  6  1  0
  5  7  2  0
  1  2  1  0
  1  3  1  0
  1  4  1  0
  8 12  1  0
 12 15  1  0
  8  9  1  0
  8 10  1  0
  8 11  1  0
 12 13  1  0
 12 14  1  0
 15 16  1  0
 15 17  1  0
 15 18  1  0
M  CHG  1   6  -1
M  END
>  <PDB_ID>  (1010) 
pdb1ux5

>  <RESIDUE_NAME>  (1010) 
ASP   LYS

>  <FRAG_NAME>  (1010) 
ACET   PRPA

>  <FRAG_ATOM_NUM>  (1010) 
fragi: 7  fragj: 11

>  <atom.prop.CHAIN_ID>  (1010) 
A A A A A A A Z Z Z Z Z Z Z Z Z Z Z

>  <atom.prop.IS_HEAVY_ATOM>  (1010) 
1 0 0 0 1 1 1 1 0 0 0 1 0 0 1 0 0 0

>  <DIFUSE_FUNC_ATOM>  (1010) 
atom 6   atom 7   

>  <FINAL_SINGLE_POINT_ENERGY>  (1010) 
0

>  <NONCOV_INTER_ENERGY_QM>  (1010) 
0

>  <FF_Energy>  (1010) 
23.58

>  <QM_Energy>  (1010) 
-0.18

>  <source>  (1010) 
ACET_PRPA_10

>  <Index>  (1010) 
6679

$$$$
ACET-pdb1v2b-B-GLU-41:PRPA-pdb1v2b-B-ARG-48
     RDKit          3D

 18 16  0  0  0  0  0  0  0  0999 V2000
    0.1746    1.4834    0.0145 C   0  0  0  0  0  0  0  0  0  0  0  0
    0.6948    1.7395   -0.8029 H   0  0  0  0  0  0  0  0  0  0  0  0
    0.7067    1.7216    0.8294 H   0  0  0  0  0  0  0  0  0  0  0  0
   -0.7351    2.0839    0.0264 H   0  0  0  0  0  0  0  0  0  0  0  0
    0.0000    0.0000    0.0000 C   0  0  0  0  0  0  0  0  0  0  0  0
   -1.0893   -0.5580   -0.0000 O   0  0  0  0  0  1  0  0  0  0  0  0
    1.0893   -0.6082    0.0000 O   0  0  0  0  0  0  0  0  0  0  0  0
    5.3413   -0.3676    0.1889 C   0  0  0  0  0  0  0  0  0  0  0  0
    4.9015    0.3174    0.7741 H   0  0  0  0  0  0  0  0  0  0  0  0
    5.7990    0.0977   -0.5712 H   0  0  0  0  0  0  0  0  0  0  0  0
    6.1017   -0.8778    0.7800 H   0  0  0  0  0  0  0  0  0  0  0  0
    4.2480   -1.2550   -0.3965 C   0  0  0  0  0  0  0  0  0  0  0  0
    4.6570   -1.9098   -1.0283 H   0  0  0  0  0  0  0  0  0  0  0  0
    3.7862   -1.7403    0.3426 H   0  0  0  0  0  0  0  0  0  0  0  0
    3.2100   -0.4455   -1.1546 C   0  0  0  0  0  0  0  0  0  0  0  0
    2.8056    0.2144   -0.5174 H   0  0  0  0  0  0  0  0  0  0  0  0
    3.6817    0.0516   -1.8868 H   0  0  0  0  0  0  0  0  0  0  0  0
    2.4183   -1.0569   -1.5879 H   0  0  0  0  0  0  0  0  0  0  0  0
  1  5  1  0
  5  6  1  0
  5  7  2  0
  1  2  1  0
  1  3  1  0
  1  4  1  0
  8 12  1  0
 12 15  1  0
  8  9  1  0
  8 10  1  0
  8 11  1  0
 12 13  1  0
 12 14  1  0
 15 16  1  0
 15 17  1  0
 15 18  1  0
M  CHG  1   6  -1
M  END
>  <PDB_ID>  (1011) 
pdb1v2b

>  <RESIDUE_NAME>  (1011) 
GLU   ARG

>  <FRAG_NAME>  (1011) 
ACET   PRPA

>  <FRAG_ATOM_NUM>  (1011) 
fragi: 7  fragj: 11

>  <atom.prop.CHAIN_ID>  (1011) 
A A A A A A A Z Z Z Z Z Z Z Z Z Z Z

>  <atom.prop.IS_HEAVY_ATOM>  (1011) 
1 0 0 0 1 1 1 1 0 0 0 1 0 0 1 0 0 0

>  <DIFUSE_FUNC_ATOM>  (1011) 
atom 6   atom 7   

>  <FINAL_SINGLE_POINT_ENERGY>  (1011) 
0

>  <NONCOV_INTER_ENERGY_QM>  (1011) 
0

>  <FF_Energy>  (1011) 
26.47

>  <QM_Energy>  (1011) 
8.16

>  <source>  (1011) 
ACET_PRPA_10

>  <Index>  (1011) 
7499

$$$$
ACET-pdb1v33-A-GLU-91:PRPA-pdb1v33-A-ARG-153
     RDKit          3D

 18 16  0  0  0  0  0  0  0  0999 V2000
    0.0251    1.5106    0.0030 C   0  0  0  0  0  0  0  0  0  0  0  0
   -0.2626    1.8106    0.8887 H   0  0  0  0  0  0  0  0  0  0  0  0
   -0.5631    1.8182   -0.7162 H   0  0  0  0  0  0  0  0  0  0  0  0
    1.0300    1.8898   -0.1824 H   0  0  0  0  0  0  0  0  0  0  0  0
    0.0000    0.0000    0.0000 C   0  0  0  0  0  0  0  0  0  0  0  0
   -1.0938   -0.5998   -0.0000 O   0  0  0  0  0  1  0  0  0  0  0  0
    1.0938   -0.5881    0.0000 O   0  0  0  0  0  0  0  0  0  0  0  0
    3.8683   -1.8669    1.1867 C   0  0  0  0  0  0  0  0  0  0  0  0
    3.7570   -2.4815    1.9756 H   0  0  0  0  0  0  0  0  0  0  0  0
    3.1228   -1.1914    1.2017 H   0  0  0  0  0  0  0  0  0  0  0  0
    4.8077   -1.3288    1.3134 H   0  0  0  0  0  0  0  0  0  0  0  0
    3.7533   -2.6720   -0.0621 C   0  0  0  0  0  0  0  0  0  0  0  0
    4.1607   -2.1965   -0.8113 H   0  0  0  0  0  0  0  0  0  0  0  0
    4.1194   -3.5664    0.0764 H   0  0  0  0  0  0  0  0  0  0  0  0
    2.2785   -2.7934   -0.3150 C   0  0  0  0  0  0  0  0  0  0  0  0
    1.8079   -2.7882    0.5776 H   0  0  0  0  0  0  0  0  0  0  0  0
    1.9837   -1.9748   -0.8275 H   0  0  0  0  0  0  0  0  0  0  0  0
    1.9964   -3.6893   -0.8681 H   0  0  0  0  0  0  0  0  0  0  0  0
  1  5  1  0
  5  6  1  0
  5  7  2  0
  1  2  1  0
  1  3  1  0
  1  4  1  0
  8 12  1  0
 12 15  1  0
  8  9  1  0
  8 10  1  0
  8 11  1  0
 12 13  1  0
 12 14  1  0
 15 16  1  0
 15 17  1  0
 15 18  1  0
M  CHG  1   6  -1
M  END
>  <PDB_ID>  (1012) 
pdb1v33

>  <RESIDUE_NAME>  (1012) 
GLU   ARG

>  <FRAG_NAME>  (1012) 
ACET   PRPA

>  <FRAG_ATOM_NUM>  (1012) 
fragi: 7  fragj: 11

>  <atom.prop.CHAIN_ID>  (1012) 
A A A A A A A Z Z Z Z Z Z Z Z Z Z Z

>  <atom.prop.IS_HEAVY_ATOM>  (1012) 
1 0 0 0 1 1 1 1 0 0 0 1 0 0 1 0 0 0

>  <DIFUSE_FUNC_ATOM>  (1012) 
atom 6   atom 7   

>  <FINAL_SINGLE_POINT_ENERGY>  (1012) 
0

>  <NONCOV_INTER_ENERGY_QM>  (1012) 
0

>  <FF_Energy>  (1012) 
28.25

>  <QM_Energy>  (1012) 
4.58

>  <source>  (1012) 
ACET_PRPA_10

>  <Index>  (1012) 
7999

$$$$
ACET-pdb1u0u-F-GLU-263:PRPA-pdb1u0u-E-PRO-92
     RDKit          3D

 18 16  0  0  0  0  0  0  0  0999 V2000
    0.0083    1.5349    0.0117 C   0  0  0  0  0  0  0  0  0  0  0  0
    0.8944    1.8238    0.3374 H   0  0  0  0  0  0  0  0  0  0  0  0
   -0.7143    1.8295    0.6156 H   0  0  0  0  0  0  0  0  0  0  0  0
   -0.1572    2.0021   -0.9591 H   0  0  0  0  0  0  0  0  0  0  0  0
    0.0000    0.0000    0.0000 C   0  0  0  0  0  0  0  0  0  0  0  0
   -1.0880   -0.6087    0.0000 O   0  0  0  0  0  1  0  0  0  0  0  0
    1.0880   -0.6088    0.0000 O   0  0  0  0  0  0  0  0  0  0  0  0
    3.9085   -1.4599    2.5125 C   0  0  0  0  0  0  0  0  0  0  0  0
    3.9949   -0.7004    3.1724 H   0  0  0  0  0  0  0  0  0  0  0  0
    4.8551   -1.9908    2.4113 H   0  0  0  0  0  0  0  0  0  0  0  0
    3.0977   -2.1289    2.8009 H   0  0  0  0  0  0  0  0  0  0  0  0
    3.7106   -0.8392    1.1296 C   0  0  0  0  0  0  0  0  0  0  0  0
    2.7431   -0.7933    0.8949 H   0  0  0  0  0  0  0  0  0  0  0  0
    4.1169    0.0690    1.0849 H   0  0  0  0  0  0  0  0  0  0  0  0
    4.4355   -1.7940    0.2192 C   0  0  0  0  0  0  0  0  0  0  0  0
    3.9047   -2.6191    0.0860 H   0  0  0  0  0  0  0  0  0  0  0  0
    4.6424   -1.3600   -0.6458 H   0  0  0  0  0  0  0  0  0  0  0  0
    5.3458   -2.0006    0.7819 H   0  0  0  0  0  0  0  0  0  0  0  0
  1  5  1  0
  5  6  1  0
  5  7  2  0
  1  2  1  0
  1  3  1  0
  1  4  1  0
  8 12  1  0
 12 15  1  0
  8  9  1  0
  8 10  1  0
  8 11  1  0
 12 13  1  0
 12 14  1  0
 15 16  1  0
 15 17  1  0
 15 18  1  0
M  CHG  1   6  -1
M  END
>  <PDB_ID>  (1013) 
pdb1u0u

>  <RESIDUE_NAME>  (1013) 
GLU   PRO

>  <FRAG_NAME>  (1013) 
ACET   PRPA

>  <FRAG_ATOM_NUM>  (1013) 
fragi: 7  fragj: 11

>  <atom.prop.CHAIN_ID>  (1013) 
A A A A A A A Z Z Z Z Z Z Z Z Z Z Z

>  <atom.prop.IS_HEAVY_ATOM>  (1013) 
1 0 0 0 1 1 1 1 0 0 0 1 0 0 1 0 0 0

>  <DIFUSE_FUNC_ATOM>  (1013) 
atom 6   atom 7   

>  <FINAL_SINGLE_POINT_ENERGY>  (1013) 
0

>  <NONCOV_INTER_ENERGY_QM>  (1013) 
0

>  <FF_Energy>  (1013) 
16.9

>  <QM_Energy>  (1013) 
-1.94

>  <source>  (1013) 
ACET_PRPA_10

>  <Index>  (1013) 
8108

$$$$
ACET-pdb1u0u-F-GLU-263:PRPA-pdb1u0u-E-PRO-92
     RDKit          3D

 18 16  0  0  0  0  0  0  0  0999 V2000
    0.0083    1.5349    0.0117 C   0  0  0  0  0  0  0  0  0  0  0  0
    0.8944    1.8238    0.3374 H   0  0  0  0  0  0  0  0  0  0  0  0
   -0.7143    1.8295    0.6156 H   0  0  0  0  0  0  0  0  0  0  0  0
   -0.1572    2.0021   -0.9591 H   0  0  0  0  0  0  0  0  0  0  0  0
    0.0000    0.0000    0.0000 C   0  0  0  0  0  0  0  0  0  0  0  0
   -1.0880   -0.6087    0.0000 O   0  0  0  0  0  1  0  0  0  0  0  0
    1.0880   -0.6088    0.0000 O   0  0  0  0  0  0  0  0  0  0  0  0
    3.7106   -0.8392    1.1296 C   0  0  0  0  0  0  0  0  0  0  0  0
    2.7431   -0.7933    0.8949 H   0  0  0  0  0  0  0  0  0  0  0  0
    4.1169    0.0690    1.0849 H   0  0  0  0  0  0  0  0  0  0  0  0
    3.8517   -1.2818    2.1156 H   0  0  0  0  0  0  0  0  0  0  0  0
    4.4355   -1.7940    0.2192 C   0  0  0  0  0  0  0  0  0  0  0  0
    3.9047   -2.6191    0.0860 H   0  0  0  0  0  0  0  0  0  0  0  0
    4.6424   -1.3600   -0.6458 H   0  0  0  0  0  0  0  0  0  0  0  0
    5.6984   -2.0806    0.9999 C   0  0  0  0  0  0  0  0  0  0  0  0
    6.1111   -2.9388    0.7172 H   0  0  0  0  0  0  0  0  0  0  0  0
    6.3515   -1.3358    0.9172 H   0  0  0  0  0  0  0  0  0  0  0  0
    5.3181   -2.1510    2.0189 H   0  0  0  0  0  0  0  0  0  0  0  0
  1  5  1  0
  5  6  1  0
  5  7  2  0
  1  2  1  0
  1  3  1  0
  1  4  1  0
  8 12  1  0
 12 15  1  0
  8  9  1  0
  8 10  1  0
  8 11  1  0
 12 13  1  0
 12 14  1  0
 15 16  1  0
 15 17  1  0
 15 18  1  0
M  CHG  1   6  -1
M  END
>  <PDB_ID>  (1014) 
pdb1u0u

>  <RESIDUE_NAME>  (1014) 
GLU   PRO

>  <FRAG_NAME>  (1014) 
ACET   PRPA

>  <FRAG_ATOM_NUM>  (1014) 
fragi: 7  fragj: 11

>  <atom.prop.CHAIN_ID>  (1014) 
A A A A A A A Z Z Z Z Z Z Z Z Z Z Z

>  <atom.prop.IS_HEAVY_ATOM>  (1014) 
1 0 0 0 1 1 1 1 0 0 0 1 0 0 1 0 0 0

>  <DIFUSE_FUNC_ATOM>  (1014) 
atom 6   atom 7   

>  <FINAL_SINGLE_POINT_ENERGY>  (1014) 
0

>  <NONCOV_INTER_ENERGY_QM>  (1014) 
0

>  <FF_Energy>  (1014) 
14.27

>  <QM_Energy>  (1014) 
-0.98

>  <source>  (1014) 
ACET_PRPA_10

>  <Index>  (1014) 
8117

$$$$
ACET-pdb1u0u-E-GLU-383:PRPA-pdb1u0u-E-GLN-247
     RDKit          3D

 18 16  0  0  0  0  0  0  0  0999 V2000
   -0.0042    1.5175    0.0283 C   0  0  0  0  0  0  0  0  0  0  0  0
    0.8281    1.8242   -0.4030 H   0  0  0  0  0  0  0  0  0  0  0  0
   -0.0474    1.7949    0.9744 H   0  0  0  0  0  0  0  0  0  0  0  0
   -0.8477    1.9622   -0.4998 H   0  0  0  0  0  0  0  0  0  0  0  0
    0.0000    0.0000    0.0000 C   0  0  0  0  0  0  0  0  0  0  0  0
   -1.0868   -0.6080    0.0000 O   0  0  0  0  0  1  0  0  0  0  0  0
    1.0868   -0.6016   -0.0000 O   0  0  0  0  0  0  0  0  0  0  0  0
    1.6737   -1.0002   -3.5474 C   0  0  0  0  0  0  0  0  0  0  0  0
    1.0042   -0.2684   -3.5354 H   0  0  0  0  0  0  0  0  0  0  0  0
    1.1416   -1.9435   -3.6706 H   0  0  0  0  0  0  0  0  0  0  0  0
    2.3008   -0.8693   -4.4292 H   0  0  0  0  0  0  0  0  0  0  0  0
    2.5792   -1.0359   -2.3152 C   0  0  0  0  0  0  0  0  0  0  0  0
    2.0119   -1.1449   -1.5007 H   0  0  0  0  0  0  0  0  0  0  0  0
    3.2031   -1.8127   -2.3959 H   0  0  0  0  0  0  0  0  0  0  0  0
    3.4167    0.2268   -2.1414 C   0  0  0  0  0  0  0  0  0  0  0  0
    3.8871    0.4193   -3.0028 H   0  0  0  0  0  0  0  0  0  0  0  0
    2.8060    0.9870   -1.9176 H   0  0  0  0  0  0  0  0  0  0  0  0
    4.1625    0.1368   -1.3515 H   0  0  0  0  0  0  0  0  0  0  0  0
  1  5  1  0
  5  6  1  0
  5  7  2  0
  1  2  1  0
  1  3  1  0
  1  4  1  0
  8 12  1  0
 12 15  1  0
  8  9  1  0
  8 10  1  0
  8 11  1  0
 12 13  1  0
 12 14  1  0
 15 16  1  0
 15 17  1  0
 15 18  1  0
M  CHG  1   6  -1
M  END
>  <PDB_ID>  (1015) 
pdb1u0u

>  <RESIDUE_NAME>  (1015) 
GLU   GLN

>  <FRAG_NAME>  (1015) 
ACET   PRPA

>  <FRAG_ATOM_NUM>  (1015) 
fragi: 7  fragj: 11

>  <atom.prop.CHAIN_ID>  (1015) 
A A A A A A A Z Z Z Z Z Z Z Z Z Z Z

>  <atom.prop.IS_HEAVY_ATOM>  (1015) 
1 0 0 0 1 1 1 1 0 0 0 1 0 0 1 0 0 0

>  <DIFUSE_FUNC_ATOM>  (1015) 
atom 6   atom 7   

>  <FINAL_SINGLE_POINT_ENERGY>  (1015) 
0

>  <NONCOV_INTER_ENERGY_QM>  (1015) 
0

>  <FF_Energy>  (1015) 
23.88

>  <QM_Energy>  (1015) 
-1.26

>  <source>  (1015) 
ACET_PRPA_10

>  <Index>  (1015) 
8939

$$$$
ACET-pdb1u0u-F-ASP-139:PRPA-pdb1u0u-E-LYS-260
     RDKit          3D

 18 16  0  0  0  0  0  0  0  0999 V2000
   -0.0084    1.5064    0.0311 C   0  0  0  0  0  0  0  0  0  0  0  0
   -0.7181    1.8389   -0.5803 H   0  0  0  0  0  0  0  0  0  0  0  0
    0.8813    1.8413   -0.2576 H   0  0  0  0  0  0  0  0  0  0  0  0
   -0.2105    1.9044    1.0255 H   0  0  0  0  0  0  0  0  0  0  0  0
    0.0000    0.0000    0.0000 C   0  0  0  0  0  0  0  0  0  0  0  0
   -1.0989   -0.5894   -0.0000 O   0  0  0  0  0  1  0  0  0  0  0  0
    1.0989   -0.5928   -0.0000 O   0  0  0  0  0  0  0  0  0  0  0  0
    4.5244    0.6288   -0.0466 C   0  0  0  0  0  0  0  0  0  0  0  0
    5.3981    0.8601   -0.4616 H   0  0  0  0  0  0  0  0  0  0  0  0
    4.6310   -0.1393    0.5772 H   0  0  0  0  0  0  0  0  0  0  0  0
    4.1858    1.4888    0.5310 H   0  0  0  0  0  0  0  0  0  0  0  0
    3.5576    0.2371   -1.1380 C   0  0  0  0  0  0  0  0  0  0  0  0
    2.8300   -0.3386   -0.7415 H   0  0  0  0  0  0  0  0  0  0  0  0
    3.1294    1.0695   -1.5134 H   0  0  0  0  0  0  0  0  0  0  0  0
    4.2188   -0.5217   -2.2651 C   0  0  0  0  0  0  0  0  0  0  0  0
    4.9123    0.0442   -2.6793 H   0  0  0  0  0  0  0  0  0  0  0  0
    4.5931   -1.3655   -1.9191 H   0  0  0  0  0  0  0  0  0  0  0  0
    3.4744   -0.7629   -3.0240 H   0  0  0  0  0  0  0  0  0  0  0  0
  1  5  1  0
  5  6  1  0
  5  7  2  0
  1  2  1  0
  1  3  1  0
  1  4  1  0
  8 12  1  0
 12 15  1  0
  8  9  1  0
  8 10  1  0
  8 11  1  0
 12 13  1  0
 12 14  1  0
 15 16  1  0
 15 17  1  0
 15 18  1  0
M  CHG  1   6  -1
M  END
>  <PDB_ID>  (1016) 
pdb1u0u

>  <RESIDUE_NAME>  (1016) 
ASP   LYS

>  <FRAG_NAME>  (1016) 
ACET   PRPA

>  <FRAG_ATOM_NUM>  (1016) 
fragi: 7  fragj: 11

>  <atom.prop.CHAIN_ID>  (1016) 
A A A A A A A Z Z Z Z Z Z Z Z Z Z Z

>  <atom.prop.IS_HEAVY_ATOM>  (1016) 
1 0 0 0 1 1 1 1 0 0 0 1 0 0 1 0 0 0

>  <DIFUSE_FUNC_ATOM>  (1016) 
atom 6   atom 7   

>  <FINAL_SINGLE_POINT_ENERGY>  (1016) 
0

>  <NONCOV_INTER_ENERGY_QM>  (1016) 
0

>  <FF_Energy>  (1016) 
15.24

>  <QM_Energy>  (1016) 
-0.33

>  <source>  (1016) 
ACET_PRPA_10

>  <Index>  (1016) 
9013

$$$$
ACET-pdb1v5v-A-GLU-28:PRPA-pdb1v5v-A-VAL-5
     RDKit          3D

 18 16  0  0  0  0  0  0  0  0999 V2000
   -0.0024    1.5163   -0.0131 C   0  0  0  0  0  0  0  0  0  0  0  0
   -0.1845    1.8050   -0.9332 H   0  0  0  0  0  0  0  0  0  0  0  0
    0.8744    1.8174    0.3089 H   0  0  0  0  0  0  0  0  0  0  0  0
   -0.7706    1.9364    0.6361 H   0  0  0  0  0  0  0  0  0  0  0  0
    0.0000    0.0000    0.0000 C   0  0  0  0  0  0  0  0  0  0  0  0
   -1.0971   -0.5956   -0.0000 O   0  0  0  0  0  1  0  0  0  0  0  0
    1.0971   -0.5978    0.0000 O   0  0  0  0  0  0  0  0  0  0  0  0
    2.9922    0.9759    1.5041 C   0  0  0  0  0  0  0  0  0  0  0  0
    3.2791    1.7328    0.9172 H   0  0  0  0  0  0  0  0  0  0  0  0
    2.2436    0.4802    1.0651 H   0  0  0  0  0  0  0  0  0  0  0  0
    2.6823    1.3357    2.3838 H   0  0  0  0  0  0  0  0  0  0  0  0
    4.1657    0.0312    1.7255 C   0  0  0  0  0  0  0  0  0  0  0  0
    3.8201   -0.7460    2.2363 H   0  0  0  0  0  0  0  0  0  0  0  0
    4.9211    0.5238    2.3376 H   0  0  0  0  0  0  0  0  0  0  0  0
    4.7696   -0.3852    0.3913 C   0  0  0  0  0  0  0  0  0  0  0  0
    5.6386    0.0920    0.2590 H   0  0  0  0  0  0  0  0  0  0  0  0
    4.9248   -1.3724    0.3930 H   0  0  0  0  0  0  0  0  0  0  0  0
    4.1380   -0.1454   -0.3453 H   0  0  0  0  0  0  0  0  0  0  0  0
  1  5  1  0
  5  6  1  0
  5  7  2  0
  1  2  1  0
  1  3  1  0
  1  4  1  0
  8 12  1  0
 12 15  1  0
  8  9  1  0
  8 10  1  0
  8 11  1  0
 12 13  1  0
 12 14  1  0
 15 16  1  0
 15 17  1  0
 15 18  1  0
M  CHG  1   6  -1
M  END
>  <PDB_ID>  (1017) 
pdb1v5v

>  <RESIDUE_NAME>  (1017) 
GLU   VAL

>  <FRAG_NAME>  (1017) 
ACET   PRPA

>  <FRAG_ATOM_NUM>  (1017) 
fragi: 7  fragj: 11

>  <atom.prop.CHAIN_ID>  (1017) 
A A A A A A A Z Z Z Z Z Z Z Z Z Z Z

>  <atom.prop.IS_HEAVY_ATOM>  (1017) 
1 0 0 0 1 1 1 1 0 0 0 1 0 0 1 0 0 0

>  <DIFUSE_FUNC_ATOM>  (1017) 
atom 6   atom 7   

>  <FINAL_SINGLE_POINT_ENERGY>  (1017) 
0

>  <NONCOV_INTER_ENERGY_QM>  (1017) 
0

>  <FF_Energy>  (1017) 
15.84

>  <QM_Energy>  (1017) 
-0.91

>  <source>  (1017) 
ACET_PRPA_10

>  <Index>  (1017) 
9548

$$$$
ACET-pdb1v8k-A-ASP-130:PRPA-pdb1v8k-A-VAL-97
     RDKit          3D

 18 16  0  0  0  0  0  0  0  0999 V2000
    0.0224    1.5214   -0.0314 C   0  0  0  0  0  0  0  0  0  0  0  0
    0.0781    1.8221   -0.9774 H   0  0  0  0  0  0  0  0  0  0  0  0
    0.8123    1.8422    0.4804 H   0  0  0  0  0  0  0  0  0  0  0  0
   -0.8641    1.9783    0.4084 H   0  0  0  0  0  0  0  0  0  0  0  0
    0.0000    0.0000    0.0000 C   0  0  0  0  0  0  0  0  0  0  0  0
   -1.0988   -0.5962    0.0000 O   0  0  0  0  0  1  0  0  0  0  0  0
    1.0988   -0.5980    0.0000 O   0  0  0  0  0  0  0  0  0  0  0  0
    3.8861    5.0084    0.8222 C   0  0  0  0  0  0  0  0  0  0  0  0
    4.2616    5.7834    1.2860 H   0  0  0  0  0  0  0  0  0  0  0  0
    3.8588    5.2217   -0.2464 H   0  0  0  0  0  0  0  0  0  0  0  0
    4.6028    4.1904    0.8958 H   0  0  0  0  0  0  0  0  0  0  0  0
    2.4625    4.6851    1.3594 C   0  0  0  0  0  0  0  0  0  0  0  0
    2.0948    5.5311    1.7296 H   0  0  0  0  0  0  0  0  0  0  0  0
    2.4999    3.9497    2.1631 H   0  0  0  0  0  0  0  0  0  0  0  0
    1.5811    4.2514    0.2352 C   0  0  0  0  0  0  0  0  0  0  0  0
    2.1089    4.1915   -0.6178 H   0  0  0  0  0  0  0  0  0  0  0  0
    1.1847    3.3489    0.4315 H   0  0  0  0  0  0  0  0  0  0  0  0
    0.8335    4.9099    0.1047 H   0  0  0  0  0  0  0  0  0  0  0  0
  1  5  1  0
  5  6  1  0
  5  7  2  0
  1  2  1  0
  1  3  1  0
  1  4  1  0
  8 12  1  0
 12 15  1  0
  8  9  1  0
  8 10  1  0
  8 11  1  0
 12 13  1  0
 12 14  1  0
 15 16  1  0
 15 17  1  0
 15 18  1  0
M  CHG  1   6  -1
M  END
>  <PDB_ID>  (1018) 
pdb1v8k

>  <RESIDUE_NAME>  (1018) 
ASP   VAL

>  <FRAG_NAME>  (1018) 
ACET   PRPA

>  <FRAG_ATOM_NUM>  (1018) 
fragi: 7  fragj: 11

>  <atom.prop.CHAIN_ID>  (1018) 
A A A A A A A Z Z Z Z Z Z Z Z Z Z Z

>  <atom.prop.IS_HEAVY_ATOM>  (1018) 
1 0 0 0 1 1 1 1 0 0 0 1 0 0 1 0 0 0

>  <DIFUSE_FUNC_ATOM>  (1018) 
atom 6   atom 7   

>  <FINAL_SINGLE_POINT_ENERGY>  (1018) 
0

>  <NONCOV_INTER_ENERGY_QM>  (1018) 
0

>  <FF_Energy>  (1018) 
22.34

>  <QM_Energy>  (1018) 
4.35

>  <source>  (1018) 
ACET_PRPA_10

>  <Index>  (1018) 
10035

$$$$
ACET-pdb1v8k-A-ASP-130:PRPA-pdb1v8k-A-VAL-97
     RDKit          3D

 18 16  0  0  0  0  0  0  0  0999 V2000
    0.0224    1.5214   -0.0314 C   0  0  0  0  0  0  0  0  0  0  0  0
    0.0781    1.8221   -0.9774 H   0  0  0  0  0  0  0  0  0  0  0  0
    0.8123    1.8422    0.4804 H   0  0  0  0  0  0  0  0  0  0  0  0
   -0.8641    1.9783    0.4084 H   0  0  0  0  0  0  0  0  0  0  0  0
    0.0000    0.0000    0.0000 C   0  0  0  0  0  0  0  0  0  0  0  0
   -1.0988   -0.5962    0.0000 O   0  0  0  0  0  1  0  0  0  0  0  0
    1.0988   -0.5980    0.0000 O   0  0  0  0  0  0  0  0  0  0  0  0
    1.5811    4.2514    0.2352 C   0  0  0  0  0  0  0  0  0  0  0  0
    2.1089    4.1915   -0.6178 H   0  0  0  0  0  0  0  0  0  0  0  0
    1.1847    3.3489    0.4315 H   0  0  0  0  0  0  0  0  0  0  0  0
    0.8335    4.9099    0.1047 H   0  0  0  0  0  0  0  0  0  0  0  0
    2.4625    4.6851    1.3594 C   0  0  0  0  0  0  0  0  0  0  0  0
    2.0948    5.5311    1.7296 H   0  0  0  0  0  0  0  0  0  0  0  0
    3.4600    4.9117    0.9829 H   0  0  0  0  0  0  0  0  0  0  0  0
    2.5138    3.6765    2.4617 C   0  0  0  0  0  0  0  0  0  0  0  0
    3.4686    3.4762    2.7005 H   0  0  0  0  0  0  0  0  0  0  0  0
    2.0427    4.0315    3.2744 H   0  0  0  0  0  0  0  0  0  0  0  0
    2.0655    2.8260    2.1704 H   0  0  0  0  0  0  0  0  0  0  0  0
  1  5  1  0
  5  6  1  0
  5  7  2  0
  1  2  1  0
  1  3  1  0
  1  4  1  0
  8 12  1  0
 12 15  1  0
  8  9  1  0
  8 10  1  0
  8 11  1  0
 12 13  1  0
 12 14  1  0
 15 16  1  0
 15 17  1  0
 15 18  1  0
M  CHG  1   6  -1
M  END
>  <PDB_ID>  (1019) 
pdb1v8k

>  <RESIDUE_NAME>  (1019) 
ASP   VAL

>  <FRAG_NAME>  (1019) 
ACET   PRPA

>  <FRAG_ATOM_NUM>  (1019) 
fragi: 7  fragj: 11

>  <atom.prop.CHAIN_ID>  (1019) 
A A A A A A A Z Z Z Z Z Z Z Z Z Z Z

>  <atom.prop.IS_HEAVY_ATOM>  (1019) 
1 0 0 0 1 1 1 1 0 0 0 1 0 0 1 0 0 0

>  <DIFUSE_FUNC_ATOM>  (1019) 
atom 6   atom 7   

>  <FINAL_SINGLE_POINT_ENERGY>  (1019) 
0

>  <NONCOV_INTER_ENERGY_QM>  (1019) 
0

>  <FF_Energy>  (1019) 
22.13

>  <QM_Energy>  (1019) 
4.1

>  <source>  (1019) 
ACET_PRPA_10

>  <Index>  (1019) 
10038

$$$$
ACET-pdb1uwq-B-ASP-99:PRPA-pdb1uwq-B-LYS-102
     RDKit          3D

 18 16  0  0  0  0  0  0  0  0999 V2000
   -0.0453    1.5335    0.0052 C   0  0  0  0  0  0  0  0  0  0  0  0
   -0.1749    1.8494   -0.9254 H   0  0  0  0  0  0  0  0  0  0  0  0
    0.8061    1.8748    0.3785 H   0  0  0  0  0  0  0  0  0  0  0  0
   -0.8583    1.9359    0.6095 H   0  0  0  0  0  0  0  0  0  0  0  0
    0.0000    0.0000    0.0000 C   0  0  0  0  0  0  0  0  0  0  0  0
   -1.0791   -0.6481    0.0000 O   0  0  0  0  0  1  0  0  0  0  0  0
    1.0791   -0.6445    0.0000 O   0  0  0  0  0  0  0  0  0  0  0  0
    3.0145   -0.1355    3.4010 C   0  0  0  0  0  0  0  0  0  0  0  0
    2.4452    0.6131    3.7335 H   0  0  0  0  0  0  0  0  0  0  0  0
    3.9519   -0.0150    3.7225 H   0  0  0  0  0  0  0  0  0  0  0  0
    2.6309   -1.0641    3.8237 H   0  0  0  0  0  0  0  0  0  0  0  0
    3.0191   -0.0981    1.8791 C   0  0  0  0  0  0  0  0  0  0  0  0
    3.5905   -0.8440    1.5369 H   0  0  0  0  0  0  0  0  0  0  0  0
    2.0838   -0.2151    1.5474 H   0  0  0  0  0  0  0  0  0  0  0  0
    3.5660    1.2212    1.3576 C   0  0  0  0  0  0  0  0  0  0  0  0
    2.9944    1.9645    1.7046 H   0  0  0  0  0  0  0  0  0  0  0  0
    4.5007    1.3358    1.6928 H   0  0  0  0  0  0  0  0  0  0  0  0
    3.5767    1.2672    0.2686 H   0  0  0  0  0  0  0  0  0  0  0  0
  1  5  1  0
  5  6  1  0
  5  7  2  0
  1  2  1  0
  1  3  1  0
  1  4  1  0
  8 12  1  0
 12 15  1  0
  8  9  1  0
  8 10  1  0
  8 11  1  0
 12 13  1  0
 12 14  1  0
 15 16  1  0
 15 17  1  0
 15 18  1  0
M  CHG  1   6  -1
M  END
>  <PDB_ID>  (1020) 
pdb1uwq

>  <RESIDUE_NAME>  (1020) 
ASP   LYS

>  <FRAG_NAME>  (1020) 
ACET   PRPA

>  <FRAG_ATOM_NUM>  (1020) 
fragi: 7  fragj: 11

>  <atom.prop.CHAIN_ID>  (1020) 
A A A A A A A Z Z Z Z Z Z Z Z Z Z Z

>  <atom.prop.IS_HEAVY_ATOM>  (1020) 
1 0 0 0 1 1 1 1 0 0 0 1 0 0 1 0 0 0

>  <DIFUSE_FUNC_ATOM>  (1020) 
atom 6   atom 7   

>  <FINAL_SINGLE_POINT_ENERGY>  (1020) 
0

>  <NONCOV_INTER_ENERGY_QM>  (1020) 
0

>  <FF_Energy>  (1020) 
17.46

>  <QM_Energy>  (1020) 
0.7

>  <source>  (1020) 
ACET_PRPA_10

>  <Index>  (1020) 
10690

$$$$
ACET-pdb1uwq-B-ASP-99:PRPA-pdb1uwq-B-LYS-102
     RDKit          3D

 18 16  0  0  0  0  0  0  0  0999 V2000
   -0.0453    1.5335    0.0052 C   0  0  0  0  0  0  0  0  0  0  0  0
   -0.1749    1.8494   -0.9254 H   0  0  0  0  0  0  0  0  0  0  0  0
    0.8061    1.8748    0.3785 H   0  0  0  0  0  0  0  0  0  0  0  0
   -0.8583    1.9359    0.6095 H   0  0  0  0  0  0  0  0  0  0  0  0
    0.0000    0.0000    0.0000 C   0  0  0  0  0  0  0  0  0  0  0  0
   -1.0791   -0.6481    0.0000 O   0  0  0  0  0  1  0  0  0  0  0  0
    1.0791   -0.6445    0.0000 O   0  0  0  0  0  0  0  0  0  0  0  0
    3.0191   -0.0981    1.8791 C   0  0  0  0  0  0  0  0  0  0  0  0
    3.5905   -0.8440    1.5369 H   0  0  0  0  0  0  0  0  0  0  0  0
    2.0838   -0.2151    1.5474 H   0  0  0  0  0  0  0  0  0  0  0  0
    3.0158   -0.1249    2.9688 H   0  0  0  0  0  0  0  0  0  0  0  0
    3.5660    1.2212    1.3576 C   0  0  0  0  0  0  0  0  0  0  0  0
    2.9944    1.9645    1.7046 H   0  0  0  0  0  0  0  0  0  0  0  0
    4.5007    1.3358    1.6928 H   0  0  0  0  0  0  0  0  0  0  0  0
    3.5809    1.2850   -0.1532 C   0  0  0  0  0  0  0  0  0  0  0  0
    4.1546    0.5463   -0.5074 H   0  0  0  0  0  0  0  0  0  0  0  0
    2.6483    1.1750   -0.4956 H   0  0  0  0  0  0  0  0  0  0  0  0
    3.9779    2.2416   -0.4931 H   0  0  0  0  0  0  0  0  0  0  0  0
  1  5  1  0
  5  6  1  0
  5  7  2  0
  1  2  1  0
  1  3  1  0
  1  4  1  0
  8 12  1  0
 12 15  1  0
  8  9  1  0
  8 10  1  0
  8 11  1  0
 12 13  1  0
 12 14  1  0
 15 16  1  0
 15 17  1  0
 15 18  1  0
M  CHG  1   6  -1
M  END
>  <PDB_ID>  (1021) 
pdb1uwq

>  <RESIDUE_NAME>  (1021) 
ASP   LYS

>  <FRAG_NAME>  (1021) 
ACET   PRPA

>  <FRAG_ATOM_NUM>  (1021) 
fragi: 7  fragj: 11

>  <atom.prop.CHAIN_ID>  (1021) 
A A A A A A A Z Z Z Z Z Z Z Z Z Z Z

>  <atom.prop.IS_HEAVY_ATOM>  (1021) 
1 0 0 0 1 1 1 1 0 0 0 1 0 0 1 0 0 0

>  <DIFUSE_FUNC_ATOM>  (1021) 
atom 6   atom 7   

>  <FINAL_SINGLE_POINT_ENERGY>  (1021) 
0

>  <NONCOV_INTER_ENERGY_QM>  (1021) 
0

>  <FF_Energy>  (1021) 
17.1

>  <QM_Energy>  (1021) 
0.19

>  <source>  (1021) 
ACET_PRPA_10

>  <Index>  (1021) 
10694

$$$$
ACET-pdb1um9-C-GLU-334:PRPA-pdb1um9-C-LYS-63
     RDKit          3D

 18 16  0  0  0  0  0  0  0  0999 V2000
    0.0017    1.5052    0.0090 C   0  0  0  0  0  0  0  0  0  0  0  0
    0.9386    1.8023   -0.0632 H   0  0  0  0  0  0  0  0  0  0  0  0
   -0.4126    1.7973    0.8540 H   0  0  0  0  0  0  0  0  0  0  0  0
   -0.5629    1.9287   -0.8217 H   0  0  0  0  0  0  0  0  0  0  0  0
    0.0000    0.0000    0.0000 C   0  0  0  0  0  0  0  0  0  0  0  0
   -1.0972   -0.5961   -0.0000 O   0  0  0  0  0  1  0  0  0  0  0  0
    1.0972   -0.5872   -0.0000 O   0  0  0  0  0  0  0  0  0  0  0  0
    5.8329   -2.4983    0.7294 C   0  0  0  0  0  0  0  0  0  0  0  0
    6.1147   -2.4750   -0.2317 H   0  0  0  0  0  0  0  0  0  0  0  0
    6.1718   -3.3402    1.1513 H   0  0  0  0  0  0  0  0  0  0  0  0
    6.2673   -1.6426    1.2462 H   0  0  0  0  0  0  0  0  0  0  0  0
    4.3219   -2.4834    0.8012 C   0  0  0  0  0  0  0  0  0  0  0  0
    3.9660   -3.2827    0.3327 H   0  0  0  0  0  0  0  0  0  0  0  0
    4.0404   -2.4791    1.7525 H   0  0  0  0  0  0  0  0  0  0  0  0
    3.7627   -1.2402    0.1269 C   0  0  0  0  0  0  0  0  0  0  0  0
    2.7578   -1.2597    0.1900 H   0  0  0  0  0  0  0  0  0  0  0  0
    4.0945   -0.4257    0.6176 H   0  0  0  0  0  0  0  0  0  0  0  0
    4.0516   -1.1646   -0.9215 H   0  0  0  0  0  0  0  0  0  0  0  0
  1  5  1  0
  5  6  1  0
  5  7  2  0
  1  2  1  0
  1  3  1  0
  1  4  1  0
  8 12  1  0
 12 15  1  0
  8  9  1  0
  8 10  1  0
  8 11  1  0
 12 13  1  0
 12 14  1  0
 15 16  1  0
 15 17  1  0
 15 18  1  0
M  CHG  1   6  -1
M  END
>  <PDB_ID>  (1022) 
pdb1um9

>  <RESIDUE_NAME>  (1022) 
GLU   LYS

>  <FRAG_NAME>  (1022) 
ACET   PRPA

>  <FRAG_ATOM_NUM>  (1022) 
fragi: 7  fragj: 11

>  <atom.prop.CHAIN_ID>  (1022) 
A A A A A A A Z Z Z Z Z Z Z Z Z Z Z

>  <atom.prop.IS_HEAVY_ATOM>  (1022) 
1 0 0 0 1 1 1 1 0 0 0 1 0 0 1 0 0 0

>  <DIFUSE_FUNC_ATOM>  (1022) 
atom 6   atom 7   

>  <FINAL_SINGLE_POINT_ENERGY>  (1022) 
0

>  <NONCOV_INTER_ENERGY_QM>  (1022) 
0

>  <FF_Energy>  (1022) 
26.85

>  <QM_Energy>  (1022) 
1.25

>  <source>  (1022) 
ACET_PRPA_10

>  <Index>  (1022) 
10745

$$$$
ACET-pdb1u2j-G-ASP-527:PRPA-pdb1u2j-G-ARG-556
     RDKit          3D

 18 16  0  0  0  0  0  0  0  0999 V2000
   -0.0324    1.4785    0.0383 C   0  0  0  0  0  0  0  0  0  0  0  0
    0.5043    1.8444   -0.7210 H   0  0  0  0  0  0  0  0  0  0  0  0
    0.3498    1.7991    0.9038 H   0  0  0  0  0  0  0  0  0  0  0  0
   -1.0415    1.8818   -0.0466 H   0  0  0  0  0  0  0  0  0  0  0  0
    0.0000    0.0000    0.0000 C   0  0  0  0  0  0  0  0  0  0  0  0
   -1.0850   -0.6347   -0.0000 O   0  0  0  0  0  1  0  0  0  0  0  0
    1.0850   -0.6221   -0.0000 O   0  0  0  0  0  0  0  0  0  0  0  0
   -1.4484   -2.7347   -2.6490 C   0  0  0  0  0  0  0  0  0  0  0  0
   -2.0135   -3.5202   -2.9861 H   0  0  0  0  0  0  0  0  0  0  0  0
   -0.8227   -3.0904   -1.8304 H   0  0  0  0  0  0  0  0  0  0  0  0
   -0.9037   -2.3126   -3.4935 H   0  0  0  0  0  0  0  0  0  0  0  0
   -2.4256   -1.6666   -2.1567 C   0  0  0  0  0  0  0  0  0  0  0  0
   -1.9181   -1.0238   -1.5815 H   0  0  0  0  0  0  0  0  0  0  0  0
   -2.7839   -1.1830   -2.9554 H   0  0  0  0  0  0  0  0  0  0  0  0
   -3.5985   -2.1906   -1.3575 C   0  0  0  0  0  0  0  0  0  0  0  0
   -4.1991   -2.7351   -1.9462 H   0  0  0  0  0  0  0  0  0  0  0  0
   -3.2717   -2.7613   -0.6021 H   0  0  0  0  0  0  0  0  0  0  0  0
   -4.2078   -1.3998   -0.9201 H   0  0  0  0  0  0  0  0  0  0  0  0
  1  5  1  0
  5  6  1  0
  5  7  2  0
  1  2  1  0
  1  3  1  0
  1  4  1  0
  8 12  1  0
 12 15  1  0
  8  9  1  0
  8 10  1  0
  8 11  1  0
 12 13  1  0
 12 14  1  0
 15 16  1  0
 15 17  1  0
 15 18  1  0
M  CHG  1   6  -1
M  END
>  <PDB_ID>  (1023) 
pdb1u2j

>  <RESIDUE_NAME>  (1023) 
ASP   ARG

>  <FRAG_NAME>  (1023) 
ACET   PRPA

>  <FRAG_ATOM_NUM>  (1023) 
fragi: 7  fragj: 11

>  <atom.prop.CHAIN_ID>  (1023) 
A A A A A A A Z Z Z Z Z Z Z Z Z Z Z

>  <atom.prop.IS_HEAVY_ATOM>  (1023) 
1 0 0 0 1 1 1 1 0 0 0 1 0 0 1 0 0 0

>  <DIFUSE_FUNC_ATOM>  (1023) 
atom 6   atom 7   

>  <FINAL_SINGLE_POINT_ENERGY>  (1023) 
0

>  <NONCOV_INTER_ENERGY_QM>  (1023) 
0

>  <FF_Energy>  (1023) 
27.71

>  <QM_Energy>  (1023) 
-0.82

>  <source>  (1023) 
ACET_PRPA_10

>  <Index>  (1023) 
11751

$$$$
ACET-pdb1vi0-A-GLU-121:PRPA-pdb1vi0-A-LYS-124
     RDKit          3D

 18 16  0  0  0  0  0  0  0  0999 V2000
   -0.0317    1.5050   -0.0345 C   0  0  0  0  0  0  0  0  0  0  0  0
    0.1802    1.8175    0.9024 H   0  0  0  0  0  0  0  0  0  0  0  0
   -0.9860    1.7663   -0.2382 H   0  0  0  0  0  0  0  0  0  0  0  0
    0.6338    2.0076   -0.7362 H   0  0  0  0  0  0  0  0  0  0  0  0
    0.0000    0.0000    0.0000 C   0  0  0  0  0  0  0  0  0  0  0  0
   -1.1038   -0.6239    0.0000 O   0  0  0  0  0  1  0  0  0  0  0  0
    1.1038   -0.5743   -0.0000 O   0  0  0  0  0  0  0  0  0  0  0  0
   -0.0848   -1.5944   -4.3138 C   0  0  0  0  0  0  0  0  0  0  0  0
    0.3495   -2.0147   -5.1278 H   0  0  0  0  0  0  0  0  0  0  0  0
    0.2227   -0.6292   -4.2738 H   0  0  0  0  0  0  0  0  0  0  0  0
   -1.1658   -1.6082   -4.4532 H   0  0  0  0  0  0  0  0  0  0  0  0
    0.4014   -2.3141   -3.0750 C   0  0  0  0  0  0  0  0  0  0  0  0
   -0.2893   -2.2247   -2.3567 H   0  0  0  0  0  0  0  0  0  0  0  0
    0.5325   -3.2812   -3.2929 H   0  0  0  0  0  0  0  0  0  0  0  0
    1.7079   -1.7546   -2.5593 C   0  0  0  0  0  0  0  0  0  0  0  0
    1.9976   -0.9889   -3.1669 H   0  0  0  0  0  0  0  0  0  0  0  0
    1.5474   -1.3466   -1.6388 H   0  0  0  0  0  0  0  0  0  0  0  0
    2.5230   -2.4746   -2.4872 H   0  0  0  0  0  0  0  0  0  0  0  0
  1  5  1  0
  5  6  1  0
  5  7  2  0
  1  2  1  0
  1  3  1  0
  1  4  1  0
  8 12  1  0
 12 15  1  0
  8  9  1  0
  8 10  1  0
  8 11  1  0
 12 13  1  0
 12 14  1  0
 15 16  1  0
 15 17  1  0
 15 18  1  0
M  CHG  1   6  -1
M  END
>  <PDB_ID>  (1024) 
pdb1vi0

>  <RESIDUE_NAME>  (1024) 
GLU   LYS

>  <FRAG_NAME>  (1024) 
ACET   PRPA

>  <FRAG_ATOM_NUM>  (1024) 
fragi: 7  fragj: 11

>  <atom.prop.CHAIN_ID>  (1024) 
A A A A A A A Z Z Z Z Z Z Z Z Z Z Z

>  <atom.prop.IS_HEAVY_ATOM>  (1024) 
1 0 0 0 1 1 1 1 0 0 0 1 0 0 1 0 0 0

>  <DIFUSE_FUNC_ATOM>  (1024) 
atom 6   atom 7   

>  <FINAL_SINGLE_POINT_ENERGY>  (1024) 
0

>  <NONCOV_INTER_ENERGY_QM>  (1024) 
0

>  <FF_Energy>  (1024) 
16.65

>  <QM_Energy>  (1024) 
-2.42

>  <source>  (1024) 
ACET_PRPA_10

>  <Index>  (1024) 
14428

$$$$
ACET-pdb1uyp-B-GLU-325:PRPA-pdb1uyp-B-ARG-302
     RDKit          3D

 18 16  0  0  0  0  0  0  0  0999 V2000
   -0.0054    1.5072   -0.0729 C   0  0  0  0  0  0  0  0  0  0  0  0
    0.5331    1.7698   -0.8486 H   0  0  0  0  0  0  0  0  0  0  0  0
    0.3577    1.8470    0.7725 H   0  0  0  0  0  0  0  0  0  0  0  0
   -1.0132    1.9021   -0.2017 H   0  0  0  0  0  0  0  0  0  0  0  0
    0.0000    0.0000    0.0000 C   0  0  0  0  0  0  0  0  0  0  0  0
   -1.1171   -0.6045   -0.0000 O   0  0  0  0  0  1  0  0  0  0  0  0
    1.1171   -0.5790    0.0000 O   0  0  0  0  0  0  0  0  0  0  0  0
   -4.6973   -3.3922   -1.4149 C   0  0  0  0  0  0  0  0  0  0  0  0
   -4.8230   -4.3238   -1.7271 H   0  0  0  0  0  0  0  0  0  0  0  0
   -4.6656   -2.7629   -2.1789 H   0  0  0  0  0  0  0  0  0  0  0  0
   -5.5509   -3.1257   -0.7916 H   0  0  0  0  0  0  0  0  0  0  0  0
   -3.3712   -3.3107   -0.6742 C   0  0  0  0  0  0  0  0  0  0  0  0
   -3.5329   -2.8077    0.2254 H   0  0  0  0  0  0  0  0  0  0  0  0
   -3.1143   -4.2727   -0.3641 H   0  0  0  0  0  0  0  0  0  0  0  0
   -2.1489   -2.7053   -1.3130 C   0  0  0  0  0  0  0  0  0  0  0  0
   -2.4526   -1.9492   -1.8965 H   0  0  0  0  0  0  0  0  0  0  0  0
   -1.5700   -2.3417   -0.5786 H   0  0  0  0  0  0  0  0  0  0  0  0
   -1.5941   -3.4356   -1.9020 H   0  0  0  0  0  0  0  0  0  0  0  0
  1  5  1  0
  5  6  1  0
  5  7  2  0
  1  2  1  0
  1  3  1  0
  1  4  1  0
  8 12  1  0
 12 15  1  0
  8  9  1  0
  8 10  1  0
  8 11  1  0
 12 13  1  0
 12 14  1  0
 15 16  1  0
 15 17  1  0
 15 18  1  0
M  CHG  1   6  -1
M  END
>  <PDB_ID>  (1025) 
pdb1uyp

>  <RESIDUE_NAME>  (1025) 
GLU   ARG

>  <FRAG_NAME>  (1025) 
ACET   PRPA

>  <FRAG_ATOM_NUM>  (1025) 
fragi: 7  fragj: 11

>  <atom.prop.CHAIN_ID>  (1025) 
A A A A A A A Z Z Z Z Z Z Z Z Z Z Z

>  <atom.prop.IS_HEAVY_ATOM>  (1025) 
1 0 0 0 1 1 1 1 0 0 0 1 0 0 1 0 0 0

>  <DIFUSE_FUNC_ATOM>  (1025) 
atom 6   atom 7   

>  <FINAL_SINGLE_POINT_ENERGY>  (1025) 
0

>  <NONCOV_INTER_ENERGY_QM>  (1025) 
0

>  <FF_Energy>  (1025) 
17.23

>  <QM_Energy>  (1025) 
0.61

>  <source>  (1025) 
ACET_PRPA_10

>  <Index>  (1025) 
15556

$$$$
ACET-pdb1uyr-B-ASP-2183:PRPA-pdb1uyr-B-LYS-2187
     RDKit          3D

 18 16  0  0  0  0  0  0  0  0999 V2000
    0.0038    1.5086   -0.0133 C   0  0  0  0  0  0  0  0  0  0  0  0
    0.9331    1.8301    0.1253 H   0  0  0  0  0  0  0  0  0  0  0  0
   -0.5899    1.8390    0.7107 H   0  0  0  0  0  0  0  0  0  0  0  0
   -0.3562    1.9167   -0.9577 H   0  0  0  0  0  0  0  0  0  0  0  0
    0.0000    0.0000    0.0000 C   0  0  0  0  0  0  0  0  0  0  0  0
   -1.1029   -0.5920   -0.0000 O   0  0  0  0  0  1  0  0  0  0  0  0
    1.1029   -0.5917    0.0000 O   0  0  0  0  0  0  0  0  0  0  0  0
   -4.0330   -1.7827   -2.2439 C   0  0  0  0  0  0  0  0  0  0  0  0
   -3.6580   -2.6584   -2.5493 H   0  0  0  0  0  0  0  0  0  0  0  0
   -3.3167   -1.0859   -2.2717 H   0  0  0  0  0  0  0  0  0  0  0  0
   -4.8419   -1.4897   -2.9132 H   0  0  0  0  0  0  0  0  0  0  0  0
   -4.5181   -1.9313   -0.8046 C   0  0  0  0  0  0  0  0  0  0  0  0
   -4.9031   -1.0641   -0.5049 H   0  0  0  0  0  0  0  0  0  0  0  0
   -5.2083   -2.6464   -0.7702 H   0  0  0  0  0  0  0  0  0  0  0  0
   -3.3812   -2.3086    0.1387 C   0  0  0  0  0  0  0  0  0  0  0  0
   -3.0027   -3.1919   -0.1480 H   0  0  0  0  0  0  0  0  0  0  0  0
   -2.6625   -1.6115    0.0754 H   0  0  0  0  0  0  0  0  0  0  0  0
   -3.7170   -2.3822    1.1731 H   0  0  0  0  0  0  0  0  0  0  0  0
  1  5  1  0
  5  6  1  0
  5  7  2  0
  1  2  1  0
  1  3  1  0
  1  4  1  0
  8 12  1  0
 12 15  1  0
  8  9  1  0
  8 10  1  0
  8 11  1  0
 12 13  1  0
 12 14  1  0
 15 16  1  0
 15 17  1  0
 15 18  1  0
M  CHG  1   6  -1
M  END
>  <PDB_ID>  (1026) 
pdb1uyr

>  <RESIDUE_NAME>  (1026) 
ASP   LYS

>  <FRAG_NAME>  (1026) 
ACET   PRPA

>  <FRAG_ATOM_NUM>  (1026) 
fragi: 7  fragj: 11

>  <atom.prop.CHAIN_ID>  (1026) 
A A A A A A A Z Z Z Z Z Z Z Z Z Z Z

>  <atom.prop.IS_HEAVY_ATOM>  (1026) 
1 0 0 0 1 1 1 1 0 0 0 1 0 0 1 0 0 0

>  <DIFUSE_FUNC_ATOM>  (1026) 
atom 6   atom 7   

>  <FINAL_SINGLE_POINT_ENERGY>  (1026) 
0

>  <NONCOV_INTER_ENERGY_QM>  (1026) 
0

>  <FF_Energy>  (1026) 
17.09

>  <QM_Energy>  (1026) 
-1.53

>  <source>  (1026) 
ACET_PRPA_10

>  <Index>  (1026) 
16215

$$$$
ACET-pdb1vdm-B-GLU-69:PRPA-pdb1vdm-B-LYS-62
     RDKit          3D

 18 16  0  0  0  0  0  0  0  0999 V2000
    0.0051    1.5262   -0.0089 C   0  0  0  0  0  0  0  0  0  0  0  0
    0.9409    1.8167    0.0302 H   0  0  0  0  0  0  0  0  0  0  0  0
   -0.5162    1.8251    0.7662 H   0  0  0  0  0  0  0  0  0  0  0  0
   -0.4467    1.9385   -0.9111 H   0  0  0  0  0  0  0  0  0  0  0  0
    0.0000    0.0000    0.0000 C   0  0  0  0  0  0  0  0  0  0  0  0
   -1.0969   -0.6017   -0.0000 O   0  0  0  0  0  1  0  0  0  0  0  0
    1.0969   -0.6005   -0.0000 O   0  0  0  0  0  0  0  0  0  0  0  0
    3.5081    1.8071    1.1452 C   0  0  0  0  0  0  0  0  0  0  0  0
    2.6494    2.2528    0.8331 H   0  0  0  0  0  0  0  0  0  0  0  0
    3.9312    1.2555    0.3057 H   0  0  0  0  0  0  0  0  0  0  0  0
    4.1654    2.5754    1.5522 H   0  0  0  0  0  0  0  0  0  0  0  0
    3.1127    0.8537    2.2914 C   0  0  0  0  0  0  0  0  0  0  0  0
    3.7747    0.9713    3.0304 H   0  0  0  0  0  0  0  0  0  0  0  0
    2.2041    1.1210    2.6129 H   0  0  0  0  0  0  0  0  0  0  0  0
    3.0733   -0.6224    1.9119 C   0  0  0  0  0  0  0  0  0  0  0  0
    2.4290   -0.7509    1.1593 H   0  0  0  0  0  0  0  0  0  0  0  0
    3.9848   -0.9137    1.6284 H   0  0  0  0  0  0  0  0  0  0  0  0
    2.7556   -1.2439    2.7492 H   0  0  0  0  0  0  0  0  0  0  0  0
  1  5  1  0
  5  6  1  0
  5  7  2  0
  1  2  1  0
  1  3  1  0
  1  4  1  0
  8 12  1  0
 12 15  1  0
  8  9  1  0
  8 10  1  0
  8 11  1  0
 12 13  1  0
 12 14  1  0
 15 16  1  0
 15 17  1  0
 15 18  1  0
M  CHG  1   6  -1
M  END
>  <PDB_ID>  (1027) 
pdb1vdm

>  <RESIDUE_NAME>  (1027) 
GLU   LYS

>  <FRAG_NAME>  (1027) 
ACET   PRPA

>  <FRAG_ATOM_NUM>  (1027) 
fragi: 7  fragj: 11

>  <atom.prop.CHAIN_ID>  (1027) 
A A A A A A A Z Z Z Z Z Z Z Z Z Z Z

>  <atom.prop.IS_HEAVY_ATOM>  (1027) 
1 0 0 0 1 1 1 1 0 0 0 1 0 0 1 0 0 0

>  <DIFUSE_FUNC_ATOM>  (1027) 
atom 6   atom 7   

>  <FINAL_SINGLE_POINT_ENERGY>  (1027) 
0

>  <NONCOV_INTER_ENERGY_QM>  (1027) 
0

>  <FF_Energy>  (1027) 
34.61

>  <QM_Energy>  (1027) 
0.54

>  <source>  (1027) 
ACET_PRPA_10

>  <Index>  (1027) 
16310

$$$$
ACET-pdb1vdm-B-GLU-69:PRPA-pdb1vdm-B-LYS-62
     RDKit          3D

 18 16  0  0  0  0  0  0  0  0999 V2000
    0.0051    1.5262   -0.0089 C   0  0  0  0  0  0  0  0  0  0  0  0
    0.9409    1.8167    0.0302 H   0  0  0  0  0  0  0  0  0  0  0  0
   -0.5162    1.8251    0.7662 H   0  0  0  0  0  0  0  0  0  0  0  0
   -0.4467    1.9385   -0.9111 H   0  0  0  0  0  0  0  0  0  0  0  0
    0.0000    0.0000    0.0000 C   0  0  0  0  0  0  0  0  0  0  0  0
   -1.0969   -0.6017   -0.0000 O   0  0  0  0  0  1  0  0  0  0  0  0
    1.0969   -0.6005   -0.0000 O   0  0  0  0  0  0  0  0  0  0  0  0
    3.1127    0.8537    2.2914 C   0  0  0  0  0  0  0  0  0  0  0  0
    3.7747    0.9713    3.0304 H   0  0  0  0  0  0  0  0  0  0  0  0
    2.2041    1.1210    2.6129 H   0  0  0  0  0  0  0  0  0  0  0  0
    3.3921    1.5275    1.4815 H   0  0  0  0  0  0  0  0  0  0  0  0
    3.0733   -0.6224    1.9119 C   0  0  0  0  0  0  0  0  0  0  0  0
    2.4290   -0.7509    1.1593 H   0  0  0  0  0  0  0  0  0  0  0  0
    3.9848   -0.9137    1.6284 H   0  0  0  0  0  0  0  0  0  0  0  0
    2.6258   -1.4979    3.0915 C   0  0  0  0  0  0  0  0  0  0  0  0
    1.7666   -1.9512    2.8452 H   0  0  0  0  0  0  0  0  0  0  0  0
    3.3280   -2.1928    3.2603 H   0  0  0  0  0  0  0  0  0  0  0  0
    2.4653   -0.9466    4.0181 H   0  0  0  0  0  0  0  0  0  0  0  0
  1  5  1  0
  5  6  1  0
  5  7  2  0
  1  2  1  0
  1  3  1  0
  1  4  1  0
  8 12  1  0
 12 15  1  0
  8  9  1  0
  8 10  1  0
  8 11  1  0
 12 13  1  0
 12 14  1  0
 15 16  1  0
 15 17  1  0
 15 18  1  0
M  CHG  1   6  -1
M  END
>  <PDB_ID>  (1028) 
pdb1vdm

>  <RESIDUE_NAME>  (1028) 
GLU   LYS

>  <FRAG_NAME>  (1028) 
ACET   PRPA

>  <FRAG_ATOM_NUM>  (1028) 
fragi: 7  fragj: 11

>  <atom.prop.CHAIN_ID>  (1028) 
A A A A A A A Z Z Z Z Z Z Z Z Z Z Z

>  <atom.prop.IS_HEAVY_ATOM>  (1028) 
1 0 0 0 1 1 1 1 0 0 0 1 0 0 1 0 0 0

>  <DIFUSE_FUNC_ATOM>  (1028) 
atom 6   atom 7   

>  <FINAL_SINGLE_POINT_ENERGY>  (1028) 
0

>  <NONCOV_INTER_ENERGY_QM>  (1028) 
0

>  <FF_Energy>  (1028) 
38.77

>  <QM_Energy>  (1028) 
-0.38

>  <source>  (1028) 
ACET_PRPA_10

>  <Index>  (1028) 
16314

$$$$
ACET-pdb1vly-A-GLU-97:PRPA-pdb1vly-A-LYS-100
     RDKit          3D

 18 16  0  0  0  0  0  0  0  0999 V2000
    0.0374    1.5146    0.0615 C   0  0  0  0  0  0  0  0  0  0  0  0
    0.7960    1.8173   -0.4953 H   0  0  0  0  0  0  0  0  0  0  0  0
    0.1600    1.7711    1.0080 H   0  0  0  0  0  0  0  0  0  0  0  0
   -0.8668    1.9987   -0.3073 H   0  0  0  0  0  0  0  0  0  0  0  0
    0.0000    0.0000    0.0000 C   0  0  0  0  0  0  0  0  0  0  0  0
   -1.1021   -0.5712    0.0000 O   0  0  0  0  0  1  0  0  0  0  0  0
    1.1021   -0.6065   -0.0000 O   0  0  0  0  0  0  0  0  0  0  0  0
   -2.9109   -1.6839   -3.5232 C   0  0  0  0  0  0  0  0  0  0  0  0
   -2.5826   -2.4014   -4.1423 H   0  0  0  0  0  0  0  0  0  0  0  0
   -2.3815   -0.8477   -3.6800 H   0  0  0  0  0  0  0  0  0  0  0  0
   -3.9584   -1.4821   -3.7471 H   0  0  0  0  0  0  0  0  0  0  0  0
   -2.7189   -2.1337   -2.0955 C   0  0  0  0  0  0  0  0  0  0  0  0
   -3.0518   -1.4157   -1.4812 H   0  0  0  0  0  0  0  0  0  0  0  0
   -3.2510   -2.9698   -1.9427 H   0  0  0  0  0  0  0  0  0  0  0  0
   -1.2719   -2.4193   -1.7616 C   0  0  0  0  0  0  0  0  0  0  0  0
   -0.8621   -2.9502   -2.5054 H   0  0  0  0  0  0  0  0  0  0  0  0
   -0.7801   -1.5534   -1.6630 H   0  0  0  0  0  0  0  0  0  0  0  0
   -1.1925   -2.9836   -0.8325 H   0  0  0  0  0  0  0  0  0  0  0  0
  1  5  1  0
  5  6  1  0
  5  7  2  0
  1  2  1  0
  1  3  1  0
  1  4  1  0
  8 12  1  0
 12 15  1  0
  8  9  1  0
  8 10  1  0
  8 11  1  0
 12 13  1  0
 12 14  1  0
 15 16  1  0
 15 17  1  0
 15 18  1  0
M  CHG  1   6  -1
M  END
>  <PDB_ID>  (1029) 
pdb1vly

>  <RESIDUE_NAME>  (1029) 
GLU   LYS

>  <FRAG_NAME>  (1029) 
ACET   PRPA

>  <FRAG_ATOM_NUM>  (1029) 
fragi: 7  fragj: 11

>  <atom.prop.CHAIN_ID>  (1029) 
A A A A A A A Z Z Z Z Z Z Z Z Z Z Z

>  <atom.prop.IS_HEAVY_ATOM>  (1029) 
1 0 0 0 1 1 1 1 0 0 0 1 0 0 1 0 0 0

>  <DIFUSE_FUNC_ATOM>  (1029) 
atom 6   atom 7   

>  <FINAL_SINGLE_POINT_ENERGY>  (1029) 
0

>  <NONCOV_INTER_ENERGY_QM>  (1029) 
0

>  <FF_Energy>  (1029) 
18.58

>  <QM_Energy>  (1029) 
3.01

>  <source>  (1029) 
ACET_PRPA_10

>  <Index>  (1029) 
16971

$$$$
ACET-pdb1uyp-C-GLU-325:PRPA-pdb1uyp-C-ARG-302
     RDKit          3D

 18 16  0  0  0  0  0  0  0  0999 V2000
   -0.0019    1.5101    0.0602 C   0  0  0  0  0  0  0  0  0  0  0  0
    0.5291    1.8412   -0.6927 H   0  0  0  0  0  0  0  0  0  0  0  0
    0.3633    1.7759    0.9295 H   0  0  0  0  0  0  0  0  0  0  0  0
   -1.0082    1.9199   -0.0272 H   0  0  0  0  0  0  0  0  0  0  0  0
    0.0000    0.0000    0.0000 C   0  0  0  0  0  0  0  0  0  0  0  0
   -1.1108   -0.5968    0.0000 O   0  0  0  0  0  1  0  0  0  0  0  0
    1.1108   -0.5852   -0.0000 O   0  0  0  0  0  0  0  0  0  0  0  0
   -5.0258   -3.0287   -1.1996 C   0  0  0  0  0  0  0  0  0  0  0  0
   -5.1817   -3.9524   -1.5064 H   0  0  0  0  0  0  0  0  0  0  0  0
   -4.9941   -2.3940   -1.9528 H   0  0  0  0  0  0  0  0  0  0  0  0
   -5.8585   -2.7438   -0.5565 H   0  0  0  0  0  0  0  0  0  0  0  0
   -3.6883   -2.9810   -0.4706 C   0  0  0  0  0  0  0  0  0  0  0  0
   -3.8178   -2.4557    0.4160 H   0  0  0  0  0  0  0  0  0  0  0  0
   -3.4550   -3.9418   -0.1532 H   0  0  0  0  0  0  0  0  0  0  0  0
   -2.4483   -2.4205   -1.1472 C   0  0  0  0  0  0  0  0  0  0  0  0
   -2.7281   -1.6059   -1.6588 H   0  0  0  0  0  0  0  0  0  0  0  0
   -1.8080   -2.1524   -0.4238 H   0  0  0  0  0  0  0  0  0  0  0  0
   -1.9808   -3.1435   -1.8155 H   0  0  0  0  0  0  0  0  0  0  0  0
  1  5  1  0
  5  6  1  0
  5  7  2  0
  1  2  1  0
  1  3  1  0
  1  4  1  0
  8 12  1  0
 12 15  1  0
  8  9  1  0
  8 10  1  0
  8 11  1  0
 12 13  1  0
 12 14  1  0
 15 16  1  0
 15 17  1  0
 15 18  1  0
M  CHG  1   6  -1
M  END
>  <PDB_ID>  (1030) 
pdb1uyp

>  <RESIDUE_NAME>  (1030) 
GLU   ARG

>  <FRAG_NAME>  (1030) 
ACET   PRPA

>  <FRAG_ATOM_NUM>  (1030) 
fragi: 7  fragj: 11

>  <atom.prop.CHAIN_ID>  (1030) 
A A A A A A A Z Z Z Z Z Z Z Z Z Z Z

>  <atom.prop.IS_HEAVY_ATOM>  (1030) 
1 0 0 0 1 1 1 1 0 0 0 1 0 0 1 0 0 0

>  <DIFUSE_FUNC_ATOM>  (1030) 
atom 6   atom 7   

>  <FINAL_SINGLE_POINT_ENERGY>  (1030) 
0

>  <NONCOV_INTER_ENERGY_QM>  (1030) 
0

>  <FF_Energy>  (1030) 
43.07

>  <QM_Energy>  (1030) 
4.94

>  <source>  (1030) 
ACET_PRPA_10

>  <Index>  (1030) 
17568

$$$$
ACET-pdb1vpb-A-ASP-15:PRPA-pdb1vpb-A-LYS-19
     RDKit          3D

 18 16  0  0  0  0  0  0  0  0999 V2000
   -0.0680    1.4983    0.0100 C   0  0  0  0  0  0  0  0  0  0  0  0
   -0.7714    1.7991   -0.6262 H   0  0  0  0  0  0  0  0  0  0  0  0
    0.8161    1.8685   -0.2528 H   0  0  0  0  0  0  0  0  0  0  0  0
   -0.3167    1.9004    0.9920 H   0  0  0  0  0  0  0  0  0  0  0  0
    0.0000    0.0000    0.0000 C   0  0  0  0  0  0  0  0  0  0  0  0
   -1.0911   -0.6169   -0.0000 O   0  0  0  0  0  1  0  0  0  0  0  0
    1.0911   -0.6138    0.0000 O   0  0  0  0  0  0  0  0  0  0  0  0
   -0.3476   -2.6244    3.3881 C   0  0  0  0  0  0  0  0  0  0  0  0
   -0.9763   -3.3894    3.5128 H   0  0  0  0  0  0  0  0  0  0  0  0
   -0.8621   -1.7873    3.2136 H   0  0  0  0  0  0  0  0  0  0  0  0
    0.2540   -2.4997    4.2885 H   0  0  0  0  0  0  0  0  0  0  0  0
    0.5301   -2.9207    2.1405 C   0  0  0  0  0  0  0  0  0  0  0  0
    1.1585   -2.1542    2.0271 H   0  0  0  0  0  0  0  0  0  0  0  0
    1.0427   -3.7557    2.3248 H   0  0  0  0  0  0  0  0  0  0  0  0
   -0.2871   -3.0933    0.9007 C   0  0  0  0  0  0  0  0  0  0  0  0
   -0.9216   -3.8574    1.0198 H   0  0  0  0  0  0  0  0  0  0  0  0
   -0.8059   -2.2561    0.7206 H   0  0  0  0  0  0  0  0  0  0  0  0
    0.3587   -3.2990    0.0470 H   0  0  0  0  0  0  0  0  0  0  0  0
  1  5  1  0
  5  6  1  0
  5  7  2  0
  1  2  1  0
  1  3  1  0
  1  4  1  0
  8 12  1  0
 12 15  1  0
  8  9  1  0
  8 10  1  0
  8 11  1  0
 12 13  1  0
 12 14  1  0
 15 16  1  0
 15 17  1  0
 15 18  1  0
M  CHG  1   6  -1
M  END
>  <PDB_ID>  (1031) 
pdb1vpb

>  <RESIDUE_NAME>  (1031) 
ASP   LYS

>  <FRAG_NAME>  (1031) 
ACET   PRPA

>  <FRAG_ATOM_NUM>  (1031) 
fragi: 7  fragj: 11

>  <atom.prop.CHAIN_ID>  (1031) 
A A A A A A A Z Z Z Z Z Z Z Z Z Z Z

>  <atom.prop.IS_HEAVY_ATOM>  (1031) 
1 0 0 0 1 1 1 1 0 0 0 1 0 0 1 0 0 0

>  <DIFUSE_FUNC_ATOM>  (1031) 
atom 6   atom 7   

>  <FINAL_SINGLE_POINT_ENERGY>  (1031) 
0

>  <NONCOV_INTER_ENERGY_QM>  (1031) 
0

>  <FF_Energy>  (1031) 
28.26

>  <QM_Energy>  (1031) 
0.55

>  <source>  (1031) 
ACET_PRPA_10

>  <Index>  (1031) 
17641

$$$$
ACET-pdb1vmk-A-GLU-195:PRPA-pdb1vmk-A-ILE-115
     RDKit          3D

 18 16  0  0  0  0  0  0  0  0999 V2000
    0.1926    1.4887    0.0161 C   0  0  0  0  0  0  0  0  0  0  0  0
    0.7090    1.7367   -0.8014 H   0  0  0  0  0  0  0  0  0  0  0  0
    0.7202    1.7178    0.8314 H   0  0  0  0  0  0  0  0  0  0  0  0
   -0.7184    2.0872    0.0286 H   0  0  0  0  0  0  0  0  0  0  0  0
    0.0000    0.0000    0.0000 C   0  0  0  0  0  0  0  0  0  0  0  0
   -1.0888   -0.5508    0.0000 O   0  0  0  0  0  1  0  0  0  0  0  0
    1.0888   -0.6146    0.0000 O   0  0  0  0  0  0  0  0  0  0  0  0
    4.4994    1.4735   -2.5510 C   0  0  0  0  0  0  0  0  0  0  0  0
    4.6139    0.7253   -1.8941 H   0  0  0  0  0  0  0  0  0  0  0  0
    5.4813    1.6803   -2.9766 H   0  0  0  0  0  0  0  0  0  0  0  0
    3.8271    1.0933   -3.3201 H   0  0  0  0  0  0  0  0  0  0  0  0
    3.9283    2.7454   -1.8663 C   0  0  0  0  0  0  0  0  0  0  0  0
    3.8635    3.4557   -2.5613 H   0  0  0  0  0  0  0  0  0  0  0  0
    4.5935    3.0947   -1.0767 H   0  0  0  0  0  0  0  0  0  0  0  0
    2.5479    2.4815   -1.3031 C   0  0  0  0  0  0  0  0  0  0  0  0
    2.1767    3.3233   -0.9119 H   0  0  0  0  0  0  0  0  0  0  0  0
    1.9423    2.1611   -2.0308 H   0  0  0  0  0  0  0  0  0  0  0  0
    2.6025    1.7830   -0.5893 H   0  0  0  0  0  0  0  0  0  0  0  0
  1  5  1  0
  5  6  1  0
  5  7  2  0
  1  2  1  0
  1  3  1  0
  1  4  1  0
  8 12  1  0
 12 15  1  0
  8  9  1  0
  8 10  1  0
  8 11  1  0
 12 13  1  0
 12 14  1  0
 15 16  1  0
 15 17  1  0
 15 18  1  0
M  CHG  1   6  -1
M  END
>  <PDB_ID>  (1032) 
pdb1vmk

>  <RESIDUE_NAME>  (1032) 
GLU   ILE

>  <FRAG_NAME>  (1032) 
ACET   PRPA

>  <FRAG_ATOM_NUM>  (1032) 
fragi: 7  fragj: 11

>  <atom.prop.CHAIN_ID>  (1032) 
A A A A A A A Z Z Z Z Z Z Z Z Z Z Z

>  <atom.prop.IS_HEAVY_ATOM>  (1032) 
1 0 0 0 1 1 1 1 0 0 0 1 0 0 1 0 0 0

>  <DIFUSE_FUNC_ATOM>  (1032) 
atom 6   atom 7   

>  <FINAL_SINGLE_POINT_ENERGY>  (1032) 
0

>  <NONCOV_INTER_ENERGY_QM>  (1032) 
0

>  <FF_Energy>  (1032) 
24.14

>  <QM_Energy>  (1032) 
4.84

>  <source>  (1032) 
ACET_PRPA_10

>  <Index>  (1032) 
18968

$$$$
ACET-pdb1vmk-A-GLU-195:PRPA-pdb1vmk-A-ILE-115
     RDKit          3D

 18 16  0  0  0  0  0  0  0  0999 V2000
    0.1926    1.4887    0.0161 C   0  0  0  0  0  0  0  0  0  0  0  0
    0.7090    1.7367   -0.8014 H   0  0  0  0  0  0  0  0  0  0  0  0
    0.7202    1.7178    0.8314 H   0  0  0  0  0  0  0  0  0  0  0  0
   -0.7184    2.0872    0.0286 H   0  0  0  0  0  0  0  0  0  0  0  0
    0.0000    0.0000    0.0000 C   0  0  0  0  0  0  0  0  0  0  0  0
   -1.0888   -0.5508    0.0000 O   0  0  0  0  0  1  0  0  0  0  0  0
    1.0888   -0.6146    0.0000 O   0  0  0  0  0  0  0  0  0  0  0  0
    4.8573    3.2333   -0.7636 C   0  0  0  0  0  0  0  0  0  0  0  0
    4.8416    2.5838   -0.0177 H   0  0  0  0  0  0  0  0  0  0  0  0
    5.7744    3.3091   -1.1298 H   0  0  0  0  0  0  0  0  0  0  0  0
    4.5554    4.2097   -0.3847 H   0  0  0  0  0  0  0  0  0  0  0  0
    3.9283    2.7454   -1.8663 C   0  0  0  0  0  0  0  0  0  0  0  0
    3.8635    3.4557   -2.5613 H   0  0  0  0  0  0  0  0  0  0  0  0
    4.3291    1.8529   -2.3468 H   0  0  0  0  0  0  0  0  0  0  0  0
    2.5479    2.4815   -1.3031 C   0  0  0  0  0  0  0  0  0  0  0  0
    2.1767    3.3233   -0.9119 H   0  0  0  0  0  0  0  0  0  0  0  0
    1.9423    2.1611   -2.0308 H   0  0  0  0  0  0  0  0  0  0  0  0
    2.6025    1.7830   -0.5893 H   0  0  0  0  0  0  0  0  0  0  0  0
  1  5  1  0
  5  6  1  0
  5  7  2  0
  1  2  1  0
  1  3  1  0
  1  4  1  0
  8 12  1  0
 12 15  1  0
  8  9  1  0
  8 10  1  0
  8 11  1  0
 12 13  1  0
 12 14  1  0
 15 16  1  0
 15 17  1  0
 15 18  1  0
M  CHG  1   6  -1
M  END
>  <PDB_ID>  (1033) 
pdb1vmk

>  <RESIDUE_NAME>  (1033) 
GLU   ILE

>  <FRAG_NAME>  (1033) 
ACET   PRPA

>  <FRAG_ATOM_NUM>  (1033) 
fragi: 7  fragj: 11

>  <atom.prop.CHAIN_ID>  (1033) 
A A A A A A A Z Z Z Z Z Z Z Z Z Z Z

>  <atom.prop.IS_HEAVY_ATOM>  (1033) 
1 0 0 0 1 1 1 1 0 0 0 1 0 0 1 0 0 0

>  <DIFUSE_FUNC_ATOM>  (1033) 
atom 6   atom 7   

>  <FINAL_SINGLE_POINT_ENERGY>  (1033) 
0

>  <NONCOV_INTER_ENERGY_QM>  (1033) 
0

>  <FF_Energy>  (1033) 
24.03

>  <QM_Energy>  (1033) 
5.05

>  <source>  (1033) 
ACET_PRPA_10

>  <Index>  (1033) 
18972

$$$$
ACET-pdb1w0t-A-GLU-387:PRPA-pdb1w0t-A-ARG-415
     RDKit          3D

 18 16  0  0  0  0  0  0  0  0999 V2000
   -0.0050    1.5287    0.0127 C   0  0  0  0  0  0  0  0  0  0  0  0
   -0.7951    1.8221   -0.4861 H   0  0  0  0  0  0  0  0  0  0  0  0
    0.8353    1.8265   -0.3943 H   0  0  0  0  0  0  0  0  0  0  0  0
   -0.0640    1.9323    1.0235 H   0  0  0  0  0  0  0  0  0  0  0  0
    0.0000    0.0000    0.0000 C   0  0  0  0  0  0  0  0  0  0  0  0
   -1.0969   -0.6037   -0.0000 O   0  0  0  0  0  1  0  0  0  0  0  0
    1.0969   -0.5951    0.0000 O   0  0  0  0  0  0  0  0  0  0  0  0
   -4.4458   -3.8655    1.5619 C   0  0  0  0  0  0  0  0  0  0  0  0
   -5.1590   -3.2986    1.9576 H   0  0  0  0  0  0  0  0  0  0  0  0
   -3.9033   -4.2932    2.2750 H   0  0  0  0  0  0  0  0  0  0  0  0
   -4.9224   -4.6535    0.9787 H   0  0  0  0  0  0  0  0  0  0  0  0
   -3.5388   -2.9839    0.7364 C   0  0  0  0  0  0  0  0  0  0  0  0
   -3.3810   -3.4086   -0.1589 H   0  0  0  0  0  0  0  0  0  0  0  0
   -3.9739   -2.0900    0.5996 H   0  0  0  0  0  0  0  0  0  0  0  0
   -2.1929   -2.7545    1.3906 C   0  0  0  0  0  0  0  0  0  0  0  0
   -1.6873   -2.0951    0.8387 H   0  0  0  0  0  0  0  0  0  0  0  0
   -2.3515   -2.3817    2.3030 H   0  0  0  0  0  0  0  0  0  0  0  0
   -1.6159   -3.6757    1.4720 H   0  0  0  0  0  0  0  0  0  0  0  0
  1  5  1  0
  5  6  1  0
  5  7  2  0
  1  2  1  0
  1  3  1  0
  1  4  1  0
  8 12  1  0
 12 15  1  0
  8  9  1  0
  8 10  1  0
  8 11  1  0
 12 13  1  0
 12 14  1  0
 15 16  1  0
 15 17  1  0
 15 18  1  0
M  CHG  1   6  -1
M  END
>  <PDB_ID>  (1034) 
pdb1w0t

>  <RESIDUE_NAME>  (1034) 
GLU   ARG

>  <FRAG_NAME>  (1034) 
ACET   PRPA

>  <FRAG_ATOM_NUM>  (1034) 
fragi: 7  fragj: 11

>  <atom.prop.CHAIN_ID>  (1034) 
A A A A A A A Z Z Z Z Z Z Z Z Z Z Z

>  <atom.prop.IS_HEAVY_ATOM>  (1034) 
1 0 0 0 1 1 1 1 0 0 0 1 0 0 1 0 0 0

>  <DIFUSE_FUNC_ATOM>  (1034) 
atom 6   atom 7   

>  <FINAL_SINGLE_POINT_ENERGY>  (1034) 
0

>  <NONCOV_INTER_ENERGY_QM>  (1034) 
0

>  <FF_Energy>  (1034) 
25.25

>  <QM_Energy>  (1034) 
-0.34

>  <source>  (1034) 
ACET_PRPA_10

>  <Index>  (1034) 
19318

$$$$
ACET-pdb1uyp-D-GLU-325:PRPA-pdb1uyp-D-ARG-302
     RDKit          3D

 18 16  0  0  0  0  0  0  0  0999 V2000
    0.0017    1.5227   -0.0490 C   0  0  0  0  0  0  0  0  0  0  0  0
    0.5766    1.7890   -0.7971 H   0  0  0  0  0  0  0  0  0  0  0  0
    0.3349    1.8402    0.8166 H   0  0  0  0  0  0  0  0  0  0  0  0
   -0.9980    1.9256   -0.2123 H   0  0  0  0  0  0  0  0  0  0  0  0
    0.0000    0.0000    0.0000 C   0  0  0  0  0  0  0  0  0  0  0  0
   -1.0802   -0.6024    0.0000 O   0  0  0  0  0  1  0  0  0  0  0  0
    1.0802   -0.6077   -0.0000 O   0  0  0  0  0  0  0  0  0  0  0  0
   -4.8218   -3.4425   -1.0767 C   0  0  0  0  0  0  0  0  0  0  0  0
   -4.9561   -4.4033   -1.2548 H   0  0  0  0  0  0  0  0  0  0  0  0
   -4.8121   -2.9152   -1.9105 H   0  0  0  0  0  0  0  0  0  0  0  0
   -5.6617   -3.0963   -0.4745 H   0  0  0  0  0  0  0  0  0  0  0  0
   -3.4690   -3.2650   -0.3764 C   0  0  0  0  0  0  0  0  0  0  0  0
   -3.6260   -2.7235    0.5075 H   0  0  0  0  0  0  0  0  0  0  0  0
   -3.1621   -4.1995   -0.0129 H   0  0  0  0  0  0  0  0  0  0  0  0
   -2.2210   -2.6364   -1.0520 C   0  0  0  0  0  0  0  0  0  0  0  0
   -2.5451   -1.8725   -1.5941 H   0  0  0  0  0  0  0  0  0  0  0  0
   -1.6285   -2.3269   -0.3202 H   0  0  0  0  0  0  0  0  0  0  0  0
   -1.7200   -3.3760   -1.6766 H   0  0  0  0  0  0  0  0  0  0  0  0
  1  5  1  0
  5  6  1  0
  5  7  2  0
  1  2  1  0
  1  3  1  0
  1  4  1  0
  8 12  1  0
 12 15  1  0
  8  9  1  0
  8 10  1  0
  8 11  1  0
 12 13  1  0
 12 14  1  0
 15 16  1  0
 15 17  1  0
 15 18  1  0
M  CHG  1   6  -1
M  END
>  <PDB_ID>  (1035) 
pdb1uyp

>  <RESIDUE_NAME>  (1035) 
GLU   ARG

>  <FRAG_NAME>  (1035) 
ACET   PRPA

>  <FRAG_ATOM_NUM>  (1035) 
fragi: 7  fragj: 11

>  <atom.prop.CHAIN_ID>  (1035) 
A A A A A A A Z Z Z Z Z Z Z Z Z Z Z

>  <atom.prop.IS_HEAVY_ATOM>  (1035) 
1 0 0 0 1 1 1 1 0 0 0 1 0 0 1 0 0 0

>  <DIFUSE_FUNC_ATOM>  (1035) 
atom 6   atom 7   

>  <FINAL_SINGLE_POINT_ENERGY>  (1035) 
0

>  <NONCOV_INTER_ENERGY_QM>  (1035) 
0

>  <FF_Energy>  (1035) 
26.75

>  <QM_Energy>  (1035) 
3.47

>  <source>  (1035) 
ACET_PRPA_10

>  <Index>  (1035) 
19694

$$$$
ACET-pdb1vf7-A-GLU-226:PRPA-pdb1vf7-A-ILE-238
     RDKit          3D

 18 16  0  0  0  0  0  0  0  0999 V2000
    0.0110    1.5276    0.0082 C   0  0  0  0  0  0  0  0  0  0  0  0
    0.9051    1.8167   -0.2822 H   0  0  0  0  0  0  0  0  0  0  0  0
   -0.1933    1.8178    0.9258 H   0  0  0  0  0  0  0  0  0  0  0  0
   -0.7253    1.9693   -0.6632 H   0  0  0  0  0  0  0  0  0  0  0  0
    0.0000    0.0000    0.0000 C   0  0  0  0  0  0  0  0  0  0  0  0
   -1.0978   -0.6076   -0.0000 O   0  0  0  0  0  1  0  0  0  0  0  0
    1.0978   -0.6038    0.0000 O   0  0  0  0  0  0  0  0  0  0  0  0
    3.1107    2.1606   -1.1669 C   0  0  0  0  0  0  0  0  0  0  0  0
    2.2762    2.2672   -0.6355 H   0  0  0  0  0  0  0  0  0  0  0  0
    3.5566    3.1527   -1.2387 H   0  0  0  0  0  0  0  0  0  0  0  0
    3.7796    1.5294   -0.5819 H   0  0  0  0  0  0  0  0  0  0  0  0
    2.8580    1.5352   -2.5820 C   0  0  0  0  0  0  0  0  0  0  0  0
    2.6550    0.5707   -2.4445 H   0  0  0  0  0  0  0  0  0  0  0  0
    2.0013    2.0003   -3.0696 H   0  0  0  0  0  0  0  0  0  0  0  0
    4.0968    1.6489   -3.4680 C   0  0  0  0  0  0  0  0  0  0  0  0
    4.3141    2.6203   -3.5724 H   0  0  0  0  0  0  0  0  0  0  0  0
    4.8578    1.2077   -2.9876 H   0  0  0  0  0  0  0  0  0  0  0  0
    3.9733    1.1916   -4.4497 H   0  0  0  0  0  0  0  0  0  0  0  0
  1  5  1  0
  5  6  1  0
  5  7  2  0
  1  2  1  0
  1  3  1  0
  1  4  1  0
  8 12  1  0
 12 15  1  0
  8  9  1  0
  8 10  1  0
  8 11  1  0
 12 13  1  0
 12 14  1  0
 15 16  1  0
 15 17  1  0
 15 18  1  0
M  CHG  1   6  -1
M  END
>  <PDB_ID>  (1036) 
pdb1vf7

>  <RESIDUE_NAME>  (1036) 
GLU   ILE

>  <FRAG_NAME>  (1036) 
ACET   PRPA

>  <FRAG_ATOM_NUM>  (1036) 
fragi: 7  fragj: 11

>  <atom.prop.CHAIN_ID>  (1036) 
A A A A A A A Z Z Z Z Z Z Z Z Z Z Z

>  <atom.prop.IS_HEAVY_ATOM>  (1036) 
1 0 0 0 1 1 1 1 0 0 0 1 0 0 1 0 0 0

>  <DIFUSE_FUNC_ATOM>  (1036) 
atom 6   atom 7   

>  <FINAL_SINGLE_POINT_ENERGY>  (1036) 
0

>  <NONCOV_INTER_ENERGY_QM>  (1036) 
0

>  <FF_Energy>  (1036) 
29.57

>  <QM_Energy>  (1036) 
2.02

>  <source>  (1036) 
ACET_PRPA_10

>  <Index>  (1036) 
19798

$$$$
ACET-pdb3a25-A-GLU-17:PRPA-pdb3a25-A-ARG-51
     RDKit          3D

 18 16  0  0  0  0  0  0  0  0999 V2000
   -0.0009    1.5203   -0.0117 C   0  0  0  0  0  0  0  0  0  0  0  0
   -0.1372    1.8230    0.9141 H   0  0  0  0  0  0  0  0  0  0  0  0
   -0.7279    1.8101   -0.6074 H   0  0  0  0  0  0  0  0  0  0  0  0
    0.9341    1.9453   -0.3768 H   0  0  0  0  0  0  0  0  0  0  0  0
    0.0000    0.0000    0.0000 C   0  0  0  0  0  0  0  0  0  0  0  0
   -1.0992   -0.6068   -0.0000 O   0  0  0  0  0  1  0  0  0  0  0  0
    1.0992   -0.5870    0.0000 O   0  0  0  0  0  0  0  0  0  0  0  0
    4.9402   -3.4577    0.6118 C   0  0  0  0  0  0  0  0  0  0  0  0
    4.6751   -3.4345    1.5661 H   0  0  0  0  0  0  0  0  0  0  0  0
    5.7492   -2.9096    0.4547 H   0  0  0  0  0  0  0  0  0  0  0  0
    5.1657   -4.4896    0.3428 H   0  0  0  0  0  0  0  0  0  0  0  0
    3.8108   -2.8847   -0.2101 C   0  0  0  0  0  0  0  0  0  0  0  0
    4.0590   -1.9574   -0.5206 H   0  0  0  0  0  0  0  0  0  0  0  0
    3.6645   -3.4598   -1.0256 H   0  0  0  0  0  0  0  0  0  0  0  0
    2.4963   -2.7909    0.5342 C   0  0  0  0  0  0  0  0  0  0  0  0
    2.6645   -2.2915    1.3994 H   0  0  0  0  0  0  0  0  0  0  0  0
    1.8641   -2.2277   -0.0234 H   0  0  0  0  0  0  0  0  0  0  0  0
    2.0147   -3.7417    0.7625 H   0  0  0  0  0  0  0  0  0  0  0  0
  1  5  1  0
  5  6  1  0
  5  7  2  0
  1  2  1  0
  1  3  1  0
  1  4  1  0
  8 12  1  0
 12 15  1  0
  8  9  1  0
  8 10  1  0
  8 11  1  0
 12 13  1  0
 12 14  1  0
 15 16  1  0
 15 17  1  0
 15 18  1  0
M  CHG  1   6  -1
M  END
>  <PDB_ID>  (1037) 
pdb3a25

>  <RESIDUE_NAME>  (1037) 
GLU   ARG

>  <FRAG_NAME>  (1037) 
ACET   PRPA

>  <FRAG_ATOM_NUM>  (1037) 
fragi: 7  fragj: 11

>  <atom.prop.CHAIN_ID>  (1037) 
A A A A A A A Z Z Z Z Z Z Z Z Z Z Z

>  <atom.prop.IS_HEAVY_ATOM>  (1037) 
1 0 0 0 1 1 1 1 0 0 0 1 0 0 1 0 0 0

>  <DIFUSE_FUNC_ATOM>  (1037) 
atom 6   atom 7   

>  <FINAL_SINGLE_POINT_ENERGY>  (1037) 
0

>  <NONCOV_INTER_ENERGY_QM>  (1037) 
0

>  <FF_Energy>  (1037) 
27.09

>  <QM_Energy>  (1037) 
2.12

>  <source>  (1037) 
ACET_PRPA_10

>  <Index>  (1037) 
20642

$$$$
ACET-pdb3a04-A-GLU-175:PRPA-pdb3a04-A-LEU-181
     RDKit          3D

 18 16  0  0  0  0  0  0  0  0999 V2000
    0.0649    1.5746   -0.0175 C   0  0  0  0  0  0  0  0  0  0  0  0
    0.3450    1.8269   -0.9404 H   0  0  0  0  0  0  0  0  0  0  0  0
    0.7778    1.8265    0.6332 H   0  0  0  0  0  0  0  0  0  0  0  0
   -0.8422    2.1251    0.2316 H   0  0  0  0  0  0  0  0  0  0  0  0
    0.0000    0.0000    0.0000 C   0  0  0  0  0  0  0  0  0  0  0  0
   -1.1134   -0.5990   -0.0000 O   0  0  0  0  0  1  0  0  0  0  0  0
    1.1134   -0.6390    0.0000 O   0  0  0  0  0  0  0  0  0  0  0  0
    4.8341    2.9487   -0.7663 C   0  0  0  0  0  0  0  0  0  0  0  0
    4.7652    3.9229   -0.4073 H   0  0  0  0  0  0  0  0  0  0  0  0
    4.3104    2.8993   -1.7209 H   0  0  0  0  0  0  0  0  0  0  0  0
    5.8859    2.6646   -0.7328 H   0  0  0  0  0  0  0  0  0  0  0  0
    4.0918    2.0806    0.1837 C   0  0  0  0  0  0  0  0  0  0  0  0
    3.7710    1.2713   -0.3072 H   0  0  0  0  0  0  0  0  0  0  0  0
    4.7113    1.8065    0.9170 H   0  0  0  0  0  0  0  0  0  0  0  0
    2.8911    2.7196    0.8261 C   0  0  0  0  0  0  0  0  0  0  0  0
    2.0920    2.4643    0.3566 H   0  0  0  0  0  0  0  0  0  0  0  0
    2.9230    2.2279    1.7984 H   0  0  0  0  0  0  0  0  0  0  0  0
    2.9537    3.8039    0.9182 H   0  0  0  0  0  0  0  0  0  0  0  0
  1  5  1  0
  5  6  1  0
  5  7  2  0
  1  2  1  0
  1  3  1  0
  1  4  1  0
  8 12  1  0
 12 15  1  0
  8  9  1  0
  8 10  1  0
  8 11  1  0
 12 13  1  0
 12 14  1  0
 15 16  1  0
 15 17  1  0
 15 18  1  0
M  CHG  1   6  -1
M  END
>  <PDB_ID>  (1038) 
pdb3a04

>  <RESIDUE_NAME>  (1038) 
GLU   LEU

>  <FRAG_NAME>  (1038) 
ACET   PRPA

>  <FRAG_ATOM_NUM>  (1038) 
fragi: 7  fragj: 11

>  <atom.prop.CHAIN_ID>  (1038) 
A A A A A A A Z Z Z Z Z Z Z Z Z Z Z

>  <atom.prop.IS_HEAVY_ATOM>  (1038) 
1 0 0 0 1 1 1 1 0 0 0 1 0 0 1 0 0 0

>  <DIFUSE_FUNC_ATOM>  (1038) 
atom 6   atom 7   

>  <FINAL_SINGLE_POINT_ENERGY>  (1038) 
0

>  <NONCOV_INTER_ENERGY_QM>  (1038) 
0

>  <FF_Energy>  (1038) 
34.92

>  <QM_Energy>  (1038) 
4.14

>  <source>  (1038) 
ACET_PRPA_10

>  <Index>  (1038) 
21852

$$$$
ACET-pdb3a04-A-GLU-175:PRPA-pdb3a04-A-LEU-181
     RDKit          3D

 18 16  0  0  0  0  0  0  0  0999 V2000
    0.0649    1.5746   -0.0175 C   0  0  0  0  0  0  0  0  0  0  0  0
    0.3450    1.8269   -0.9404 H   0  0  0  0  0  0  0  0  0  0  0  0
    0.7778    1.8265    0.6332 H   0  0  0  0  0  0  0  0  0  0  0  0
   -0.8422    2.1251    0.2316 H   0  0  0  0  0  0  0  0  0  0  0  0
    0.0000    0.0000    0.0000 C   0  0  0  0  0  0  0  0  0  0  0  0
   -1.1134   -0.5990   -0.0000 O   0  0  0  0  0  1  0  0  0  0  0  0
    1.1134   -0.6390    0.0000 O   0  0  0  0  0  0  0  0  0  0  0  0
    4.0918    2.0806    0.1837 C   0  0  0  0  0  0  0  0  0  0  0  0
    3.7710    1.2713   -0.3072 H   0  0  0  0  0  0  0  0  0  0  0  0
    4.7113    1.8065    0.9170 H   0  0  0  0  0  0  0  0  0  0  0  0
    4.6364    2.7176   -0.5133 H   0  0  0  0  0  0  0  0  0  0  0  0
    2.8911    2.7196    0.8261 C   0  0  0  0  0  0  0  0  0  0  0  0
    2.0920    2.4643    0.3566 H   0  0  0  0  0  0  0  0  0  0  0  0
    2.9537    3.8039    0.9182 H   0  0  0  0  0  0  0  0  0  0  0  0
    2.9352    2.0391    2.1717 C   0  0  0  0  0  0  0  0  0  0  0  0
    3.8028    2.2464    2.6305 H   0  0  0  0  0  0  0  0  0  0  0  0
    2.1776    2.3628    2.7425 H   0  0  0  0  0  0  0  0  0  0  0  0
    2.8555    1.0467    2.0549 H   0  0  0  0  0  0  0  0  0  0  0  0
  1  5  1  0
  5  6  1  0
  5  7  2  0
  1  2  1  0
  1  3  1  0
  1  4  1  0
  8 12  1  0
 12 15  1  0
  8  9  1  0
  8 10  1  0
  8 11  1  0
 12 13  1  0
 12 14  1  0
 15 16  1  0
 15 17  1  0
 15 18  1  0
M  CHG  1   6  -1
M  END
>  <PDB_ID>  (1039) 
pdb3a04

>  <RESIDUE_NAME>  (1039) 
GLU   LEU

>  <FRAG_NAME>  (1039) 
ACET   PRPA

>  <FRAG_ATOM_NUM>  (1039) 
fragi: 7  fragj: 11

>  <atom.prop.CHAIN_ID>  (1039) 
A A A A A A A Z Z Z Z Z Z Z Z Z Z Z

>  <atom.prop.IS_HEAVY_ATOM>  (1039) 
1 0 0 0 1 1 1 1 0 0 0 1 0 0 1 0 0 0

>  <DIFUSE_FUNC_ATOM>  (1039) 
atom 6   atom 7   

>  <FINAL_SINGLE_POINT_ENERGY>  (1039) 
0

>  <NONCOV_INTER_ENERGY_QM>  (1039) 
0

>  <FF_Energy>  (1039) 
40.24

>  <QM_Energy>  (1039) 
2.63

>  <source>  (1039) 
ACET_PRPA_10

>  <Index>  (1039) 
21858

$$$$
ACET-pdb3a04-A-GLU-175:PRPA-pdb3a04-A-LEU-181
     RDKit          3D

 18 16  0  0  0  0  0  0  0  0999 V2000
    0.0649    1.5746   -0.0175 C   0  0  0  0  0  0  0  0  0  0  0  0
    0.3450    1.8269   -0.9404 H   0  0  0  0  0  0  0  0  0  0  0  0
    0.7778    1.8265    0.6332 H   0  0  0  0  0  0  0  0  0  0  0  0
   -0.8422    2.1251    0.2316 H   0  0  0  0  0  0  0  0  0  0  0  0
    0.0000    0.0000    0.0000 C   0  0  0  0  0  0  0  0  0  0  0  0
   -1.1134   -0.5990   -0.0000 O   0  0  0  0  0  1  0  0  0  0  0  0
    1.1134   -0.6390    0.0000 O   0  0  0  0  0  0  0  0  0  0  0  0
    2.9352    2.0391    2.1717 C   0  0  0  0  0  0  0  0  0  0  0  0
    3.8028    2.2464    2.6305 H   0  0  0  0  0  0  0  0  0  0  0  0
    2.1776    2.3628    2.7425 H   0  0  0  0  0  0  0  0  0  0  0  0
    2.8555    1.0467    2.0549 H   0  0  0  0  0  0  0  0  0  0  0  0
    2.8911    2.7196    0.8261 C   0  0  0  0  0  0  0  0  0  0  0  0
    2.0920    2.4643    0.3566 H   0  0  0  0  0  0  0  0  0  0  0  0
    3.7612    2.2566    0.3606 H   0  0  0  0  0  0  0  0  0  0  0  0
    2.9816    4.2869    0.9593 C   0  0  0  0  0  0  0  0  0  0  0  0
    3.0760    4.6680    0.0481 H   0  0  0  0  0  0  0  0  0  0  0  0
    2.1483    4.6078    1.3914 H   0  0  0  0  0  0  0  0  0  0  0  0
    3.7738    4.5032    1.5163 H   0  0  0  0  0  0  0  0  0  0  0  0
  1  5  1  0
  5  6  1  0
  5  7  2  0
  1  2  1  0
  1  3  1  0
  1  4  1  0
  8 12  1  0
 12 15  1  0
  8  9  1  0
  8 10  1  0
  8 11  1  0
 12 13  1  0
 12 14  1  0
 15 16  1  0
 15 17  1  0
 15 18  1  0
M  CHG  1   6  -1
M  END
>  <PDB_ID>  (1040) 
pdb3a04

>  <RESIDUE_NAME>  (1040) 
GLU   LEU

>  <FRAG_NAME>  (1040) 
ACET   PRPA

>  <FRAG_ATOM_NUM>  (1040) 
fragi: 7  fragj: 11

>  <atom.prop.CHAIN_ID>  (1040) 
A A A A A A A Z Z Z Z Z Z Z Z Z Z Z

>  <atom.prop.IS_HEAVY_ATOM>  (1040) 
1 0 0 0 1 1 1 1 0 0 0 1 0 0 1 0 0 0

>  <DIFUSE_FUNC_ATOM>  (1040) 
atom 6   atom 7   

>  <FINAL_SINGLE_POINT_ENERGY>  (1040) 
0

>  <NONCOV_INTER_ENERGY_QM>  (1040) 
0

>  <FF_Energy>  (1040) 
39.93

>  <QM_Energy>  (1040) 
3.79

>  <source>  (1040) 
ACET_PRPA_10

>  <Index>  (1040) 
21869

$$$$
ACET-pdb1vrq-A-GLU-161:PRPA-pdb1vrq-A-ARG-15
     RDKit          3D

 18 16  0  0  0  0  0  0  0  0999 V2000
    0.0241    1.5169   -0.0036 C   0  0  0  0  0  0  0  0  0  0  0  0
   -0.3593    1.8141   -0.8640 H   0  0  0  0  0  0  0  0  0  0  0  0
    0.9672    1.7953    0.0874 H   0  0  0  0  0  0  0  0  0  0  0  0
   -0.5520    1.9629    0.8070 H   0  0  0  0  0  0  0  0  0  0  0  0
    0.0000    0.0000    0.0000 C   0  0  0  0  0  0  0  0  0  0  0  0
   -1.0914   -0.6063    0.0000 O   0  0  0  0  0  1  0  0  0  0  0  0
    1.0914   -0.5968   -0.0000 O   0  0  0  0  0  0  0  0  0  0  0  0
    1.4303   -2.2607   -3.8933 C   0  0  0  0  0  0  0  0  0  0  0  0
    1.7220   -1.7869   -4.7182 H   0  0  0  0  0  0  0  0  0  0  0  0
    0.6823   -1.7689   -3.4601 H   0  0  0  0  0  0  0  0  0  0  0  0
    1.0727   -3.2511   -4.1747 H   0  0  0  0  0  0  0  0  0  0  0  0
    2.5995   -2.2876   -2.9258 C   0  0  0  0  0  0  0  0  0  0  0  0
    3.1878   -3.0630   -3.1371 H   0  0  0  0  0  0  0  0  0  0  0  0
    3.1126   -1.4376   -3.0021 H   0  0  0  0  0  0  0  0  0  0  0  0
    2.1206   -2.4270   -1.4983 C   0  0  0  0  0  0  0  0  0  0  0  0
    2.8793   -2.1804   -0.8903 H   0  0  0  0  0  0  0  0  0  0  0  0
    1.3676   -1.7784   -1.3588 H   0  0  0  0  0  0  0  0  0  0  0  0
    1.7781   -3.4334   -1.2574 H   0  0  0  0  0  0  0  0  0  0  0  0
  1  5  1  0
  5  6  1  0
  5  7  2  0
  1  2  1  0
  1  3  1  0
  1  4  1  0
  8 12  1  0
 12 15  1  0
  8  9  1  0
  8 10  1  0
  8 11  1  0
 12 13  1  0
 12 14  1  0
 15 16  1  0
 15 17  1  0
 15 18  1  0
M  CHG  1   6  -1
M  END
>  <PDB_ID>  (1041) 
pdb1vrq

>  <RESIDUE_NAME>  (1041) 
GLU   ARG

>  <FRAG_NAME>  (1041) 
ACET   PRPA

>  <FRAG_ATOM_NUM>  (1041) 
fragi: 7  fragj: 11

>  <atom.prop.CHAIN_ID>  (1041) 
A A A A A A A Z Z Z Z Z Z Z Z Z Z Z

>  <atom.prop.IS_HEAVY_ATOM>  (1041) 
1 0 0 0 1 1 1 1 0 0 0 1 0 0 1 0 0 0

>  <DIFUSE_FUNC_ATOM>  (1041) 
atom 6   atom 7   

>  <FINAL_SINGLE_POINT_ENERGY>  (1041) 
0

>  <NONCOV_INTER_ENERGY_QM>  (1041) 
0

>  <FF_Energy>  (1041) 
28.52

>  <QM_Energy>  (1041) 
4.3

>  <source>  (1041) 
ACET_PRPA_10

>  <Index>  (1041) 
21905

$$$$
ACET-pdb1vf7-C-GLU-92:PRPA-pdb1vf7-C-ARG-96
     RDKit          3D

 18 16  0  0  0  0  0  0  0  0999 V2000
   -0.0522    1.5359   -0.0220 C   0  0  0  0  0  0  0  0  0  0  0  0
   -0.9349    1.8032    0.3334 H   0  0  0  0  0  0  0  0  0  0  0  0
    0.0582    1.8182   -0.9629 H   0  0  0  0  0  0  0  0  0  0  0  0
    0.7154    2.0306    0.5730 H   0  0  0  0  0  0  0  0  0  0  0  0
    0.0000    0.0000    0.0000 C   0  0  0  0  0  0  0  0  0  0  0  0
   -1.1013   -0.5982    0.0000 O   0  0  0  0  0  1  0  0  0  0  0  0
    1.1013   -0.6649   -0.0000 O   0  0  0  0  0  0  0  0  0  0  0  0
   -2.4101   -2.5201    2.8373 C   0  0  0  0  0  0  0  0  0  0  0  0
   -2.0293   -1.6547    2.4961 H   0  0  0  0  0  0  0  0  0  0  0  0
   -1.6494   -3.1352    3.0681 H   0  0  0  0  0  0  0  0  0  0  0  0
   -2.9785   -2.3154    3.7446 H   0  0  0  0  0  0  0  0  0  0  0  0
   -3.1726   -3.1829    1.6285 C   0  0  0  0  0  0  0  0  0  0  0  0
   -3.2386   -4.1497    1.7738 H   0  0  0  0  0  0  0  0  0  0  0  0
   -4.0466   -2.7538    1.5189 H   0  0  0  0  0  0  0  0  0  0  0  0
   -2.3697   -2.9681    0.2581 C   0  0  0  0  0  0  0  0  0  0  0  0
   -3.0351   -2.9451   -0.4221 H   0  0  0  0  0  0  0  0  0  0  0  0
   -1.8418   -2.1876    0.3965 H   0  0  0  0  0  0  0  0  0  0  0  0
   -1.7761   -3.8821    0.2387 H   0  0  0  0  0  0  0  0  0  0  0  0
  1  5  1  0
  5  6  1  0
  5  7  2  0
  1  2  1  0
  1  3  1  0
  1  4  1  0
  8 12  1  0
 12 15  1  0
  8  9  1  0
  8 10  1  0
  8 11  1  0
 12 13  1  0
 12 14  1  0
 15 16  1  0
 15 17  1  0
 15 18  1  0
M  CHG  1   6  -1
M  END
>  <PDB_ID>  (1042) 
pdb1vf7

>  <RESIDUE_NAME>  (1042) 
GLU   ARG

>  <FRAG_NAME>  (1042) 
ACET   PRPA

>  <FRAG_ATOM_NUM>  (1042) 
fragi: 7  fragj: 11

>  <atom.prop.CHAIN_ID>  (1042) 
A A A A A A A Z Z Z Z Z Z Z Z Z Z Z

>  <atom.prop.IS_HEAVY_ATOM>  (1042) 
1 0 0 0 1 1 1 1 0 0 0 1 0 0 1 0 0 0

>  <DIFUSE_FUNC_ATOM>  (1042) 
atom 6   atom 7   

>  <FINAL_SINGLE_POINT_ENERGY>  (1042) 
0

>  <NONCOV_INTER_ENERGY_QM>  (1042) 
0

>  <FF_Energy>  (1042) 
29.15

>  <QM_Energy>  (1042) 
0.91

>  <source>  (1042) 
ACET_PRPA_10

>  <Index>  (1042) 
22154

$$$$
ACET-pdb3a9u-A-GLU-169:PRPA-pdb3a9u-A-LYS-68
     RDKit          3D

 18 16  0  0  0  0  0  0  0  0999 V2000
   -0.0144    1.5162    0.0120 C   0  0  0  0  0  0  0  0  0  0  0  0
    0.8563    1.8202   -0.3150 H   0  0  0  0  0  0  0  0  0  0  0  0
   -0.1992    1.7999    0.9301 H   0  0  0  0  0  0  0  0  0  0  0  0
   -0.7922    1.9095   -0.6425 H   0  0  0  0  0  0  0  0  0  0  0  0
    0.0000    0.0000    0.0000 C   0  0  0  0  0  0  0  0  0  0  0  0
   -1.1005   -0.5969    0.0000 O   0  0  0  0  0  1  0  0  0  0  0  0
    1.1005   -0.5965    0.0000 O   0  0  0  0  0  0  0  0  0  0  0  0
    1.1759   -2.2761    4.1512 C   0  0  0  0  0  0  0  0  0  0  0  0
    2.0844   -2.4634    3.7794 H   0  0  0  0  0  0  0  0  0  0  0  0
    0.6344   -3.1146    4.1518 H   0  0  0  0  0  0  0  0  0  0  0  0
    1.2702   -1.9024    5.1708 H   0  0  0  0  0  0  0  0  0  0  0  0
    0.4854   -1.2521    3.2512 C   0  0  0  0  0  0  0  0  0  0  0  0
    0.0416   -0.5709    3.8230 H   0  0  0  0  0  0  0  0  0  0  0  0
    1.1669   -0.8257    2.6675 H   0  0  0  0  0  0  0  0  0  0  0  0
   -0.5740   -1.9039    2.3620 C   0  0  0  0  0  0  0  0  0  0  0  0
   -0.8327   -1.2540    1.6390 H   0  0  0  0  0  0  0  0  0  0  0  0
   -0.1750   -2.7205    1.9303 H   0  0  0  0  0  0  0  0  0  0  0  0
   -1.4662   -2.1936    2.9172 H   0  0  0  0  0  0  0  0  0  0  0  0
  1  5  1  0
  5  6  1  0
  5  7  2  0
  1  2  1  0
  1  3  1  0
  1  4  1  0
  8 12  1  0
 12 15  1  0
  8  9  1  0
  8 10  1  0
  8 11  1  0
 12 13  1  0
 12 14  1  0
 15 16  1  0
 15 17  1  0
 15 18  1  0
M  CHG  1   6  -1
M  END
>  <PDB_ID>  (1043) 
pdb3a9u

>  <RESIDUE_NAME>  (1043) 
GLU   LYS

>  <FRAG_NAME>  (1043) 
ACET   PRPA

>  <FRAG_ATOM_NUM>  (1043) 
fragi: 7  fragj: 11

>  <atom.prop.CHAIN_ID>  (1043) 
A A A A A A A Z Z Z Z Z Z Z Z Z Z Z

>  <atom.prop.IS_HEAVY_ATOM>  (1043) 
1 0 0 0 1 1 1 1 0 0 0 1 0 0 1 0 0 0

>  <DIFUSE_FUNC_ATOM>  (1043) 
atom 6   atom 7   

>  <FINAL_SINGLE_POINT_ENERGY>  (1043) 
0

>  <NONCOV_INTER_ENERGY_QM>  (1043) 
0

>  <FF_Energy>  (1043) 
35.94

>  <QM_Energy>  (1043) 
1.39

>  <source>  (1043) 
ACET_PRPA_10

>  <Index>  (1043) 
24451

$$$$
ACET-pdb3aab-A-GLU-32:PRPA-pdb3aab-B-PRO-71
     RDKit          3D

 18 16  0  0  0  0  0  0  0  0999 V2000
    0.0051    1.5150    0.0097 C   0  0  0  0  0  0  0  0  0  0  0  0
   -0.8591    1.8185   -0.3403 H   0  0  0  0  0  0  0  0  0  0  0  0
    0.7604    1.8132   -0.5398 H   0  0  0  0  0  0  0  0  0  0  0  0
    0.1291    1.9204    1.0139 H   0  0  0  0  0  0  0  0  0  0  0  0
    0.0000    0.0000    0.0000 C   0  0  0  0  0  0  0  0  0  0  0  0
   -1.1056   -0.5974    0.0000 O   0  0  0  0  0  1  0  0  0  0  0  0
    1.1056   -0.5911    0.0000 O   0  0  0  0  0  0  0  0  0  0  0  0
    3.1684   -2.1282    2.8173 C   0  0  0  0  0  0  0  0  0  0  0  0
    3.8129   -2.4362    2.0918 H   0  0  0  0  0  0  0  0  0  0  0  0
    3.0194   -2.9186    3.5530 H   0  0  0  0  0  0  0  0  0  0  0  0
    3.5052   -1.1852    3.2480 H   0  0  0  0  0  0  0  0  0  0  0  0
    1.7696   -1.9495    2.2082 C   0  0  0  0  0  0  0  0  0  0  0  0
    1.2980   -1.1696    2.6305 H   0  0  0  0  0  0  0  0  0  0  0  0
    1.8328   -1.7890    1.2188 H   0  0  0  0  0  0  0  0  0  0  0  0
    1.0440   -3.2310    2.4967 C   0  0  0  0  0  0  0  0  0  0  0  0
    0.0555   -3.0695    2.5322 H   0  0  0  0  0  0  0  0  0  0  0  0
    1.2403   -3.9087    1.7845 H   0  0  0  0  0  0  0  0  0  0  0  0
    1.4284   -3.5514    3.4651 H   0  0  0  0  0  0  0  0  0  0  0  0
  1  5  1  0
  5  6  1  0
  5  7  2  0
  1  2  1  0
  1  3  1  0
  1  4  1  0
  8 12  1  0
 12 15  1  0
  8  9  1  0
  8 10  1  0
  8 11  1  0
 12 13  1  0
 12 14  1  0
 15 16  1  0
 15 17  1  0
 15 18  1  0
M  CHG  1   6  -1
M  END
>  <PDB_ID>  (1044) 
pdb3aab

>  <RESIDUE_NAME>  (1044) 
GLU   PRO

>  <FRAG_NAME>  (1044) 
ACET   PRPA

>  <FRAG_ATOM_NUM>  (1044) 
fragi: 7  fragj: 11

>  <atom.prop.CHAIN_ID>  (1044) 
A A A A A A A Z Z Z Z Z Z Z Z Z Z Z

>  <atom.prop.IS_HEAVY_ATOM>  (1044) 
1 0 0 0 1 1 1 1 0 0 0 1 0 0 1 0 0 0

>  <DIFUSE_FUNC_ATOM>  (1044) 
atom 6   atom 7   

>  <FINAL_SINGLE_POINT_ENERGY>  (1044) 
0

>  <NONCOV_INTER_ENERGY_QM>  (1044) 
0

>  <FF_Energy>  (1044) 
22.91

>  <QM_Energy>  (1044) 
0.75

>  <source>  (1044) 
ACET_PRPA_10

>  <Index>  (1044) 
24976

$$$$
ACET-pdb3aab-A-GLU-32:PRPA-pdb3aab-B-PRO-71
     RDKit          3D

 18 16  0  0  0  0  0  0  0  0999 V2000
    0.0051    1.5150    0.0097 C   0  0  0  0  0  0  0  0  0  0  0  0
   -0.8591    1.8185   -0.3403 H   0  0  0  0  0  0  0  0  0  0  0  0
    0.7604    1.8132   -0.5398 H   0  0  0  0  0  0  0  0  0  0  0  0
    0.1291    1.9204    1.0139 H   0  0  0  0  0  0  0  0  0  0  0  0
    0.0000    0.0000    0.0000 C   0  0  0  0  0  0  0  0  0  0  0  0
   -1.1056   -0.5974    0.0000 O   0  0  0  0  0  1  0  0  0  0  0  0
    1.1056   -0.5911    0.0000 O   0  0  0  0  0  0  0  0  0  0  0  0
    1.7696   -1.9495    2.2082 C   0  0  0  0  0  0  0  0  0  0  0  0
    1.2980   -1.1696    2.6305 H   0  0  0  0  0  0  0  0  0  0  0  0
    1.8328   -1.7890    1.2188 H   0  0  0  0  0  0  0  0  0  0  0  0
    2.7622   -2.0763    2.6404 H   0  0  0  0  0  0  0  0  0  0  0  0
    1.0440   -3.2310    2.4967 C   0  0  0  0  0  0  0  0  0  0  0  0
    0.0555   -3.0695    2.5322 H   0  0  0  0  0  0  0  0  0  0  0  0
    1.2403   -3.9087    1.7845 H   0  0  0  0  0  0  0  0  0  0  0  0
    1.5706   -3.6700    3.8236 C   0  0  0  0  0  0  0  0  0  0  0  0
    1.0687   -3.2498    4.5810 H   0  0  0  0  0  0  0  0  0  0  0  0
    1.5454   -4.6668    3.9236 H   0  0  0  0  0  0  0  0  0  0  0  0
    2.6020   -3.3176    3.8122 H   0  0  0  0  0  0  0  0  0  0  0  0
  1  5  1  0
  5  6  1  0
  5  7  2  0
  1  2  1  0
  1  3  1  0
  1  4  1  0
  8 12  1  0
 12 15  1  0
  8  9  1  0
  8 10  1  0
  8 11  1  0
 12 13  1  0
 12 14  1  0
 15 16  1  0
 15 17  1  0
 15 18  1  0
M  CHG  1   6  -1
M  END
>  <PDB_ID>  (1045) 
pdb3aab

>  <RESIDUE_NAME>  (1045) 
GLU   PRO

>  <FRAG_NAME>  (1045) 
ACET   PRPA

>  <FRAG_ATOM_NUM>  (1045) 
fragi: 7  fragj: 11

>  <atom.prop.CHAIN_ID>  (1045) 
A A A A A A A Z Z Z Z Z Z Z Z Z Z Z

>  <atom.prop.IS_HEAVY_ATOM>  (1045) 
1 0 0 0 1 1 1 1 0 0 0 1 0 0 1 0 0 0

>  <DIFUSE_FUNC_ATOM>  (1045) 
atom 6   atom 7   

>  <FINAL_SINGLE_POINT_ENERGY>  (1045) 
0

>  <NONCOV_INTER_ENERGY_QM>  (1045) 
0

>  <FF_Energy>  (1045) 
20.66

>  <QM_Energy>  (1045) 
1.7

>  <source>  (1045) 
ACET_PRPA_10

>  <Index>  (1045) 
24987

$$$$
ACET-pdb1w9c-A-GLU-799:PRPA-pdb1w9c-A-ARG-753
     RDKit          3D

 18 16  0  0  0  0  0  0  0  0999 V2000
    0.0090    1.5274   -0.0282 C   0  0  0  0  0  0  0  0  0  0  0  0
    0.1474    1.8031   -0.9621 H   0  0  0  0  0  0  0  0  0  0  0  0
    0.7399    1.8276    0.5582 H   0  0  0  0  0  0  0  0  0  0  0  0
   -0.9205    1.9734    0.3257 H   0  0  0  0  0  0  0  0  0  0  0  0
    0.0000    0.0000    0.0000 C   0  0  0  0  0  0  0  0  0  0  0  0
   -1.0995   -0.6028    0.0000 O   0  0  0  0  0  1  0  0  0  0  0  0
    1.0995   -0.5998   -0.0000 O   0  0  0  0  0  0  0  0  0  0  0  0
   -0.8866   -0.3057   -3.9396 C   0  0  0  0  0  0  0  0  0  0  0  0
   -1.4065   -1.0956   -3.6092 H   0  0  0  0  0  0  0  0  0  0  0  0
   -0.5489   -0.4965   -4.8627 H   0  0  0  0  0  0  0  0  0  0  0  0
   -1.5664    0.5443   -3.9982 H   0  0  0  0  0  0  0  0  0  0  0  0
    0.3033   -0.1098   -3.0325 C   0  0  0  0  0  0  0  0  0  0  0  0
    0.7450    0.7544   -3.2382 H   0  0  0  0  0  0  0  0  0  0  0  0
    0.0120   -0.1387   -2.0843 H   0  0  0  0  0  0  0  0  0  0  0  0
    1.3125   -1.2224   -3.2501 C   0  0  0  0  0  0  0  0  0  0  0  0
    1.7532   -1.0750   -4.1301 H   0  0  0  0  0  0  0  0  0  0  0  0
    1.9851   -1.1792   -2.5170 H   0  0  0  0  0  0  0  0  0  0  0  0
    0.8378   -2.2036   -3.2456 H   0  0  0  0  0  0  0  0  0  0  0  0
  1  5  1  0
  5  6  1  0
  5  7  2  0
  1  2  1  0
  1  3  1  0
  1  4  1  0
  8 12  1  0
 12 15  1  0
  8  9  1  0
  8 10  1  0
  8 11  1  0
 12 13  1  0
 12 14  1  0
 15 16  1  0
 15 17  1  0
 15 18  1  0
M  CHG  1   6  -1
M  END
>  <PDB_ID>  (1046) 
pdb1w9c

>  <RESIDUE_NAME>  (1046) 
GLU   ARG

>  <FRAG_NAME>  (1046) 
ACET   PRPA

>  <FRAG_ATOM_NUM>  (1046) 
fragi: 7  fragj: 11

>  <atom.prop.CHAIN_ID>  (1046) 
A A A A A A A Z Z Z Z Z Z Z Z Z Z Z

>  <atom.prop.IS_HEAVY_ATOM>  (1046) 
1 0 0 0 1 1 1 1 0 0 0 1 0 0 1 0 0 0

>  <DIFUSE_FUNC_ATOM>  (1046) 
atom 6   atom 7   

>  <FINAL_SINGLE_POINT_ENERGY>  (1046) 
0

>  <NONCOV_INTER_ENERGY_QM>  (1046) 
0

>  <FF_Energy>  (1046) 
14.37

>  <QM_Energy>  (1046) 
-2.2

>  <source>  (1046) 
ACET_PRPA_10

>  <Index>  (1046) 
25363

$$$$
ACET-pdb3a8y-A-ASP-80:PRPA-pdb3a8y-A-VAL-83
     RDKit          3D

 18 16  0  0  0  0  0  0  0  0999 V2000
    0.0067    1.5108    0.0066 C   0  0  0  0  0  0  0  0  0  0  0  0
    0.9467    1.8289   -0.0520 H   0  0  0  0  0  0  0  0  0  0  0  0
   -0.4155    1.8311    0.8472 H   0  0  0  0  0  0  0  0  0  0  0  0
   -0.5445    1.9391   -0.8306 H   0  0  0  0  0  0  0  0  0  0  0  0
    0.0000    0.0000    0.0000 C   0  0  0  0  0  0  0  0  0  0  0  0
   -1.0991   -0.5913    0.0000 O   0  0  0  0  0  1  0  0  0  0  0  0
    1.0991   -0.5946   -0.0000 O   0  0  0  0  0  0  0  0  0  0  0  0
   -3.5993    1.9433    3.5104 C   0  0  0  0  0  0  0  0  0  0  0  0
   -3.4766    1.5788    4.4260 H   0  0  0  0  0  0  0  0  0  0  0  0
   -3.6004    1.1114    2.8061 H   0  0  0  0  0  0  0  0  0  0  0  0
   -4.5817    2.4129    3.4616 H   0  0  0  0  0  0  0  0  0  0  0  0
   -2.5259    2.9947    3.1476 C   0  0  0  0  0  0  0  0  0  0  0  0
   -2.7701    3.3810    2.2659 H   0  0  0  0  0  0  0  0  0  0  0  0
   -2.5382    3.8109    3.8700 H   0  0  0  0  0  0  0  0  0  0  0  0
   -1.1585    2.3454    3.1085 C   0  0  0  0  0  0  0  0  0  0  0  0
   -0.8619    2.2485    2.1571 H   0  0  0  0  0  0  0  0  0  0  0  0
   -0.5032    2.9169    3.6048 H   0  0  0  0  0  0  0  0  0  0  0  0
   -1.2057    1.4420    3.5374 H   0  0  0  0  0  0  0  0  0  0  0  0
  1  5  1  0
  5  6  1  0
  5  7  2  0
  1  2  1  0
  1  3  1  0
  1  4  1  0
  8 12  1  0
 12 15  1  0
  8  9  1  0
  8 10  1  0
  8 11  1  0
 12 13  1  0
 12 14  1  0
 15 16  1  0
 15 17  1  0
 15 18  1  0
M  CHG  1   6  -1
M  END
>  <PDB_ID>  (1047) 
pdb3a8y

>  <RESIDUE_NAME>  (1047) 
ASP   VAL

>  <FRAG_NAME>  (1047) 
ACET   PRPA

>  <FRAG_ATOM_NUM>  (1047) 
fragi: 7  fragj: 11

>  <atom.prop.CHAIN_ID>  (1047) 
A A A A A A A Z Z Z Z Z Z Z Z Z Z Z

>  <atom.prop.IS_HEAVY_ATOM>  (1047) 
1 0 0 0 1 1 1 1 0 0 0 1 0 0 1 0 0 0

>  <DIFUSE_FUNC_ATOM>  (1047) 
atom 6   atom 7   

>  <FINAL_SINGLE_POINT_ENERGY>  (1047) 
0

>  <NONCOV_INTER_ENERGY_QM>  (1047) 
0

>  <FF_Energy>  (1047) 
40.32

>  <QM_Energy>  (1047) 
3.63

>  <source>  (1047) 
ACET_PRPA_10

>  <Index>  (1047) 
25832

$$$$
ACET-pdb1wk9-A-ASP-336:PRPA-pdb1wk9-A-LYS-196
     RDKit          3D

 18 16  0  0  0  0  0  0  0  0999 V2000
    0.0048    1.5144    0.0146 C   0  0  0  0  0  0  0  0  0  0  0  0
   -0.9133    1.8404   -0.1759 H   0  0  0  0  0  0  0  0  0  0  0  0
    0.6414    1.8411   -0.6730 H   0  0  0  0  0  0  0  0  0  0  0  0
    0.3121    1.9232    0.9772 H   0  0  0  0  0  0  0  0  0  0  0  0
    0.0000    0.0000    0.0000 C   0  0  0  0  0  0  0  0  0  0  0  0
   -1.0984   -0.5835    0.0000 O   0  0  0  0  0  1  0  0  0  0  0  0
    1.0984   -0.5992   -0.0000 O   0  0  0  0  0  0  0  0  0  0  0  0
    3.7531   -0.6800    2.5340 C   0  0  0  0  0  0  0  0  0  0  0  0
    3.1662   -0.0686    2.0115 H   0  0  0  0  0  0  0  0  0  0  0  0
    4.6599   -0.7188    2.1268 H   0  0  0  0  0  0  0  0  0  0  0  0
    3.8337   -0.3120    3.5568 H   0  0  0  0  0  0  0  0  0  0  0  0
    3.1497   -2.0640    2.5352 C   0  0  0  0  0  0  0  0  0  0  0  0
    3.7959   -2.7009    2.9421 H   0  0  0  0  0  0  0  0  0  0  0  0
    2.3023   -2.0504    3.0547 H   0  0  0  0  0  0  0  0  0  0  0  0
    2.8426   -2.5256    1.1234 C   0  0  0  0  0  0  0  0  0  0  0  0
    2.4274   -1.7752    0.6186 H   0  0  0  0  0  0  0  0  0  0  0  0
    3.6888   -2.8097    0.6821 H   0  0  0  0  0  0  0  0  0  0  0  0
    2.1509   -3.3674    1.1541 H   0  0  0  0  0  0  0  0  0  0  0  0
  1  5  1  0
  5  6  1  0
  5  7  2  0
  1  2  1  0
  1  3  1  0
  1  4  1  0
  8 12  1  0
 12 15  1  0
  8  9  1  0
  8 10  1  0
  8 11  1  0
 12 13  1  0
 12 14  1  0
 15 16  1  0
 15 17  1  0
 15 18  1  0
M  CHG  1   6  -1
M  END
>  <PDB_ID>  (1048) 
pdb1wk9

>  <RESIDUE_NAME>  (1048) 
ASP   LYS

>  <FRAG_NAME>  (1048) 
ACET   PRPA

>  <FRAG_ATOM_NUM>  (1048) 
fragi: 7  fragj: 11

>  <atom.prop.CHAIN_ID>  (1048) 
A A A A A A A Z Z Z Z Z Z Z Z Z Z Z

>  <atom.prop.IS_HEAVY_ATOM>  (1048) 
1 0 0 0 1 1 1 1 0 0 0 1 0 0 1 0 0 0

>  <DIFUSE_FUNC_ATOM>  (1048) 
atom 6   atom 7   

>  <FINAL_SINGLE_POINT_ENERGY>  (1048) 
0

>  <NONCOV_INTER_ENERGY_QM>  (1048) 
0

>  <FF_Energy>  (1048) 
15.86

>  <QM_Energy>  (1048) 
-1.76

>  <source>  (1048) 
ACET_PRPA_10

>  <Index>  (1048) 
26031

$$$$
ACET-pdb3adf-A-GLU-85:PRPA-pdb3adf-A-LYS-181
     RDKit          3D

 18 16  0  0  0  0  0  0  0  0999 V2000
    0.0282    1.5400   -0.0114 C   0  0  0  0  0  0  0  0  0  0  0  0
    0.8787    1.8100   -0.4128 H   0  0  0  0  0  0  0  0  0  0  0  0
   -0.0696    1.8372    0.9160 H   0  0  0  0  0  0  0  0  0  0  0  0
   -0.7828    1.9683   -0.6003 H   0  0  0  0  0  0  0  0  0  0  0  0
    0.0000    0.0000    0.0000 C   0  0  0  0  0  0  0  0  0  0  0  0
   -1.0951   -0.6201   -0.0000 O   0  0  0  0  0  1  0  0  0  0  0  0
    1.0951   -0.5992    0.0000 O   0  0  0  0  0  0  0  0  0  0  0  0
    3.6100   -0.3713   -3.4853 C   0  0  0  0  0  0  0  0  0  0  0  0
    3.6853   -0.9650   -4.3008 H   0  0  0  0  0  0  0  0  0  0  0  0
    4.3753    0.2892   -3.5146 H   0  0  0  0  0  0  0  0  0  0  0  0
    2.6699    0.1779   -3.5380 H   0  0  0  0  0  0  0  0  0  0  0  0
    3.7790   -1.2509   -2.2312 C   0  0  0  0  0  0  0  0  0  0  0  0
    3.0267   -1.9067   -2.2032 H   0  0  0  0  0  0  0  0  0  0  0  0
    4.6485   -1.7362   -2.3005 H   0  0  0  0  0  0  0  0  0  0  0  0
    3.7724   -0.4447   -0.9310 C   0  0  0  0  0  0  0  0  0  0  0  0
    2.8206   -0.2482   -0.6794 H   0  0  0  0  0  0  0  0  0  0  0  0
    4.1898   -1.0000   -0.2064 H   0  0  0  0  0  0  0  0  0  0  0  0
    4.3199    0.4931   -1.0252 H   0  0  0  0  0  0  0  0  0  0  0  0
  1  5  1  0
  5  6  1  0
  5  7  2  0
  1  2  1  0
  1  3  1  0
  1  4  1  0
  8 12  1  0
 12 15  1  0
  8  9  1  0
  8 10  1  0
  8 11  1  0
 12 13  1  0
 12 14  1  0
 15 16  1  0
 15 17  1  0
 15 18  1  0
M  CHG  1   6  -1
M  END
>  <PDB_ID>  (1049) 
pdb3adf

>  <RESIDUE_NAME>  (1049) 
GLU   LYS

>  <FRAG_NAME>  (1049) 
ACET   PRPA

>  <FRAG_ATOM_NUM>  (1049) 
fragi: 7  fragj: 11

>  <atom.prop.CHAIN_ID>  (1049) 
A A A A A A A Z Z Z Z Z Z Z Z Z Z Z

>  <atom.prop.IS_HEAVY_ATOM>  (1049) 
1 0 0 0 1 1 1 1 0 0 0 1 0 0 1 0 0 0

>  <DIFUSE_FUNC_ATOM>  (1049) 
atom 6   atom 7   

>  <FINAL_SINGLE_POINT_ENERGY>  (1049) 
0

>  <NONCOV_INTER_ENERGY_QM>  (1049) 
0

>  <FF_Energy>  (1049) 
14.96

>  <QM_Energy>  (1049) 
-1.17

>  <source>  (1049) 
ACET_PRPA_10

>  <Index>  (1049) 
27046

$$$$
ACET-pdb1wde-A-ASP-274:PRPA-pdb1wde-A-ARG-210
     RDKit          3D

 18 16  0  0  0  0  0  0  0  0999 V2000
    0.0008    1.5122   -0.0062 C   0  0  0  0  0  0  0  0  0  0  0  0
   -0.8901    1.8376    0.2847 H   0  0  0  0  0  0  0  0  0  0  0  0
    0.2118    1.8329   -0.9201 H   0  0  0  0  0  0  0  0  0  0  0  0
    0.7440    1.9317    0.6719 H   0  0  0  0  0  0  0  0  0  0  0  0
    0.0000    0.0000    0.0000 C   0  0  0  0  0  0  0  0  0  0  0  0
   -1.0970   -0.5875    0.0000 O   0  0  0  0  0  1  0  0  0  0  0  0
    1.0970   -0.6018   -0.0000 O   0  0  0  0  0  0  0  0  0  0  0  0
   -2.8417    0.9020   -3.1595 C   0  0  0  0  0  0  0  0  0  0  0  0
   -2.6057    0.5754   -4.0725 H   0  0  0  0  0  0  0  0  0  0  0  0
   -2.0249    0.9248   -2.5872 H   0  0  0  0  0  0  0  0  0  0  0  0
   -3.2338    1.9155   -3.2443 H   0  0  0  0  0  0  0  0  0  0  0  0
   -3.8128   -0.1025   -2.5432 C   0  0  0  0  0  0  0  0  0  0  0  0
   -4.3731    0.3490   -1.8755 H   0  0  0  0  0  0  0  0  0  0  0  0
   -4.3419   -0.5256   -3.2531 H   0  0  0  0  0  0  0  0  0  0  0  0
   -2.9981   -1.1800   -1.8424 C   0  0  0  0  0  0  0  0  0  0  0  0
   -2.2058   -0.7400   -1.4228 H   0  0  0  0  0  0  0  0  0  0  0  0
   -3.5742   -1.5840   -1.1327 H   0  0  0  0  0  0  0  0  0  0  0  0
   -2.6642   -1.9572   -2.5299 H   0  0  0  0  0  0  0  0  0  0  0  0
  1  5  1  0
  5  6  1  0
  5  7  2  0
  1  2  1  0
  1  3  1  0
  1  4  1  0
  8 12  1  0
 12 15  1  0
  8  9  1  0
  8 10  1  0
  8 11  1  0
 12 13  1  0
 12 14  1  0
 15 16  1  0
 15 17  1  0
 15 18  1  0
M  CHG  1   6  -1
M  END
>  <PDB_ID>  (1050) 
pdb1wde

>  <RESIDUE_NAME>  (1050) 
ASP   ARG

>  <FRAG_NAME>  (1050) 
ACET   PRPA

>  <FRAG_ATOM_NUM>  (1050) 
fragi: 7  fragj: 11

>  <atom.prop.CHAIN_ID>  (1050) 
A A A A A A A Z Z Z Z Z Z Z Z Z Z Z

>  <atom.prop.IS_HEAVY_ATOM>  (1050) 
1 0 0 0 1 1 1 1 0 0 0 1 0 0 1 0 0 0

>  <DIFUSE_FUNC_ATOM>  (1050) 
atom 6   atom 7   

>  <FINAL_SINGLE_POINT_ENERGY>  (1050) 
0

>  <NONCOV_INTER_ENERGY_QM>  (1050) 
0

>  <FF_Energy>  (1050) 
26.1

>  <QM_Energy>  (1050) 
1.12

>  <source>  (1050) 
ACET_PRPA_10

>  <Index>  (1050) 
27491

$$$$
ACET-pdb3aka-A-GLU-58:PRPA-pdb3aka-A-ARG-27
     RDKit          3D

 18 16  0  0  0  0  0  0  0  0999 V2000
    0.0369    1.4878   -0.0152 C   0  0  0  0  0  0  0  0  0  0  0  0
    0.1536    1.7937   -0.9506 H   0  0  0  0  0  0  0  0  0  0  0  0
    0.7888    1.7923    0.5537 H   0  0  0  0  0  0  0  0  0  0  0  0
   -0.8637    1.9702    0.3647 H   0  0  0  0  0  0  0  0  0  0  0  0
    0.0000    0.0000    0.0000 C   0  0  0  0  0  0  0  0  0  0  0  0
   -1.1125   -0.5740    0.0000 O   0  0  0  0  0  1  0  0  0  0  0  0
    1.1125   -0.6030   -0.0000 O   0  0  0  0  0  0  0  0  0  0  0  0
   -3.9853   -4.1666    0.7942 C   0  0  0  0  0  0  0  0  0  0  0  0
   -3.0960   -4.5488    1.0326 H   0  0  0  0  0  0  0  0  0  0  0  0
   -4.4197   -4.7277    0.0941 H   0  0  0  0  0  0  0  0  0  0  0  0
   -4.6128   -4.1947    1.6850 H   0  0  0  0  0  0  0  0  0  0  0  0
   -3.7375   -2.7563    0.1756 C   0  0  0  0  0  0  0  0  0  0  0  0
   -4.5699   -2.4406   -0.2600 H   0  0  0  0  0  0  0  0  0  0  0  0
   -3.4546   -2.1316    0.8919 H   0  0  0  0  0  0  0  0  0  0  0  0
   -2.6108   -2.7710   -0.9109 C   0  0  0  0  0  0  0  0  0  0  0  0
   -2.0236   -1.9518   -0.7352 H   0  0  0  0  0  0  0  0  0  0  0  0
   -2.0243   -3.5857   -0.7115 H   0  0  0  0  0  0  0  0  0  0  0  0
   -2.8811   -2.7860   -1.9667 H   0  0  0  0  0  0  0  0  0  0  0  0
  1  5  1  0
  5  6  1  0
  5  7  2  0
  1  2  1  0
  1  3  1  0
  1  4  1  0
  8 12  1  0
 12 15  1  0
  8  9  1  0
  8 10  1  0
  8 11  1  0
 12 13  1  0
 12 14  1  0
 15 16  1  0
 15 17  1  0
 15 18  1  0
M  CHG  1   6  -1
M  END
>  <PDB_ID>  (1051) 
pdb3aka

>  <RESIDUE_NAME>  (1051) 
GLU   ARG

>  <FRAG_NAME>  (1051) 
ACET   PRPA

>  <FRAG_ATOM_NUM>  (1051) 
fragi: 7  fragj: 11

>  <atom.prop.CHAIN_ID>  (1051) 
A A A A A A A Z Z Z Z Z Z Z Z Z Z Z

>  <atom.prop.IS_HEAVY_ATOM>  (1051) 
1 0 0 0 1 1 1 1 0 0 0 1 0 0 1 0 0 0

>  <DIFUSE_FUNC_ATOM>  (1051) 
atom 6   atom 7   

>  <FINAL_SINGLE_POINT_ENERGY>  (1051) 
0

>  <NONCOV_INTER_ENERGY_QM>  (1051) 
0

>  <FF_Energy>  (1051) 
25.12

>  <QM_Energy>  (1051) 
-1.24

>  <source>  (1051) 
ACET_PRPA_10

>  <Index>  (1051) 
28606

$$$$
ACET-pdb1wap-B-GLU-16:PRPA-pdb1wap-B-GLU-60
     RDKit          3D

 18 16  0  0  0  0  0  0  0  0999 V2000
    0.0521    1.5027   -0.0296 C   0  0  0  0  0  0  0  0  0  0  0  0
    0.6814    1.7716   -0.7779 H   0  0  0  0  0  0  0  0  0  0  0  0
    0.4723    1.8106    0.8405 H   0  0  0  0  0  0  0  0  0  0  0  0
   -0.8626    2.0803   -0.1628 H   0  0  0  0  0  0  0  0  0  0  0  0
    0.0000    0.0000    0.0000 C   0  0  0  0  0  0  0  0  0  0  0  0
   -1.0986   -0.6026   -0.0000 O   0  0  0  0  0  1  0  0  0  0  0  0
    1.0986   -0.6233    0.0000 O   0  0  0  0  0  0  0  0  0  0  0  0
   -0.6312   -1.3141   -3.4997 C   0  0  0  0  0  0  0  0  0  0  0  0
   -0.9410   -2.1724   -3.9157 H   0  0  0  0  0  0  0  0  0  0  0  0
    0.2583   -1.4969   -2.8967 H   0  0  0  0  0  0  0  0  0  0  0  0
   -0.4203   -0.5901   -4.2867 H   0  0  0  0  0  0  0  0  0  0  0  0
   -1.6010   -0.5396   -2.5835 C   0  0  0  0  0  0  0  0  0  0  0  0
   -1.5699   -0.9679   -1.7072 H   0  0  0  0  0  0  0  0  0  0  0  0
   -1.3050    0.3901   -2.5727 H   0  0  0  0  0  0  0  0  0  0  0  0
   -3.0021   -0.5916   -3.0948 C   0  0  0  0  0  0  0  0  0  0  0  0
   -3.4950    0.2017   -2.7631 H   0  0  0  0  0  0  0  0  0  0  0  0
   -2.9838   -0.6095   -4.0852 H   0  0  0  0  0  0  0  0  0  0  0  0
   -3.5587   -1.4710   -2.7709 H   0  0  0  0  0  0  0  0  0  0  0  0
  1  5  1  0
  5  6  1  0
  5  7  2  0
  1  2  1  0
  1  3  1  0
  1  4  1  0
  8 12  1  0
 12 15  1  0
  8  9  1  0
  8 10  1  0
  8 11  1  0
 12 13  1  0
 12 14  1  0
 15 16  1  0
 15 17  1  0
 15 18  1  0
M  CHG  1   6  -1
M  END
>  <PDB_ID>  (1052) 
pdb1wap

>  <RESIDUE_NAME>  (1052) 
GLU   GLU

>  <FRAG_NAME>  (1052) 
ACET   PRPA

>  <FRAG_ATOM_NUM>  (1052) 
fragi: 7  fragj: 11

>  <atom.prop.CHAIN_ID>  (1052) 
A A A A A A A Z Z Z Z Z Z Z Z Z Z Z

>  <atom.prop.IS_HEAVY_ATOM>  (1052) 
1 0 0 0 1 1 1 1 0 0 0 1 0 0 1 0 0 0

>  <DIFUSE_FUNC_ATOM>  (1052) 
atom 6   atom 7   

>  <FINAL_SINGLE_POINT_ENERGY>  (1052) 
0

>  <NONCOV_INTER_ENERGY_QM>  (1052) 
0

>  <FF_Energy>  (1052) 
33.42

>  <QM_Energy>  (1052) 
2.75

>  <source>  (1052) 
ACET_PRPA_10

>  <Index>  (1052) 
28684

$$$$
ACET-pdb1wap-B-GLU-16:PRPA-pdb1wap-B-LYS-74
     RDKit          3D

 18 16  0  0  0  0  0  0  0  0999 V2000
    0.0521    1.5027   -0.0296 C   0  0  0  0  0  0  0  0  0  0  0  0
    0.6814    1.7716   -0.7779 H   0  0  0  0  0  0  0  0  0  0  0  0
    0.4723    1.8106    0.8405 H   0  0  0  0  0  0  0  0  0  0  0  0
   -0.8626    2.0803   -0.1628 H   0  0  0  0  0  0  0  0  0  0  0  0
    0.0000    0.0000    0.0000 C   0  0  0  0  0  0  0  0  0  0  0  0
   -1.0986   -0.6026   -0.0000 O   0  0  0  0  0  1  0  0  0  0  0  0
    1.0986   -0.6233    0.0000 O   0  0  0  0  0  0  0  0  0  0  0  0
   -0.4164   -3.2389    0.4881 C   0  0  0  0  0  0  0  0  0  0  0  0
   -0.3287   -2.4840   -0.1335 H   0  0  0  0  0  0  0  0  0  0  0  0
   -1.2700   -3.2249    0.9750 H   0  0  0  0  0  0  0  0  0  0  0  0
   -0.3411   -4.1715   -0.0710 H   0  0  0  0  0  0  0  0  0  0  0  0
    0.7206   -3.1389    1.5185 C   0  0  0  0  0  0  0  0  0  0  0  0
    0.5826   -2.3028    2.0656 H   0  0  0  0  0  0  0  0  0  0  0  0
    0.6609   -3.9325    2.1381 H   0  0  0  0  0  0  0  0  0  0  0  0
    2.1115   -3.0994    0.9011 C   0  0  0  0  0  0  0  0  0  0  0  0
    2.2518   -3.9357    0.3711 H   0  0  0  0  0  0  0  0  0  0  0  0
    2.1731   -2.3055    0.2958 H   0  0  0  0  0  0  0  0  0  0  0  0
    2.9034   -3.0269    1.6466 H   0  0  0  0  0  0  0  0  0  0  0  0
  1  5  1  0
  5  6  1  0
  5  7  2  0
  1  2  1  0
  1  3  1  0
  1  4  1  0
  8 12  1  0
 12 15  1  0
  8  9  1  0
  8 10  1  0
  8 11  1  0
 12 13  1  0
 12 14  1  0
 15 16  1  0
 15 17  1  0
 15 18  1  0
M  CHG  1   6  -1
M  END
>  <PDB_ID>  (1053) 
pdb1wap

>  <RESIDUE_NAME>  (1053) 
GLU   LYS

>  <FRAG_NAME>  (1053) 
ACET   PRPA

>  <FRAG_ATOM_NUM>  (1053) 
fragi: 7  fragj: 11

>  <atom.prop.CHAIN_ID>  (1053) 
A A A A A A A Z Z Z Z Z Z Z Z Z Z Z

>  <atom.prop.IS_HEAVY_ATOM>  (1053) 
1 0 0 0 1 1 1 1 0 0 0 1 0 0 1 0 0 0

>  <DIFUSE_FUNC_ATOM>  (1053) 
atom 6   atom 7   

>  <FINAL_SINGLE_POINT_ENERGY>  (1053) 
0

>  <NONCOV_INTER_ENERGY_QM>  (1053) 
0

>  <FF_Energy>  (1053) 
19.05

>  <QM_Energy>  (1053) 
0.31

>  <source>  (1053) 
ACET_PRPA_10

>  <Index>  (1053) 
28884

$$$$
ACET-pdb1wmi-A-GLU-49:PRPA-pdb1wmi-B-LEU-45
     RDKit          3D

 18 16  0  0  0  0  0  0  0  0999 V2000
    0.0025    1.5129   -0.0033 C   0  0  0  0  0  0  0  0  0  0  0  0
    0.9385    1.8116    0.0468 H   0  0  0  0  0  0  0  0  0  0  0  0
   -0.5249    1.8152    0.7698 H   0  0  0  0  0  0  0  0  0  0  0  0
   -0.4406    1.9383   -0.9037 H   0  0  0  0  0  0  0  0  0  0  0  0
    0.0000    0.0000    0.0000 C   0  0  0  0  0  0  0  0  0  0  0  0
   -1.0992   -0.5954   -0.0000 O   0  0  0  0  0  1  0  0  0  0  0  0
    1.0992   -0.5935    0.0000 O   0  0  0  0  0  0  0  0  0  0  0  0
    2.4494    4.4570    1.1932 C   0  0  0  0  0  0  0  0  0  0  0  0
    2.4210    5.1661    0.4876 H   0  0  0  0  0  0  0  0  0  0  0  0
    1.5629    3.9949    1.2350 H   0  0  0  0  0  0  0  0  0  0  0  0
    2.6458    4.8791    2.0795 H   0  0  0  0  0  0  0  0  0  0  0  0
    3.5344    3.4475    0.8580 C   0  0  0  0  0  0  0  0  0  0  0  0
    3.5710    2.7497    1.5650 H   0  0  0  0  0  0  0  0  0  0  0  0
    4.4970    3.9572    0.8138 H   0  0  0  0  0  0  0  0  0  0  0  0
    3.2256    2.7617   -0.4612 C   0  0  0  0  0  0  0  0  0  0  0  0
    3.9368    2.0871   -0.6640 H   0  0  0  0  0  0  0  0  0  0  0  0
    2.3388    2.2996   -0.4005 H   0  0  0  0  0  0  0  0  0  0  0  0
    3.1954    3.4424   -1.1944 H   0  0  0  0  0  0  0  0  0  0  0  0
  1  5  1  0
  5  6  1  0
  5  7  2  0
  1  2  1  0
  1  3  1  0
  1  4  1  0
  8 12  1  0
 12 15  1  0
  8  9  1  0
  8 10  1  0
  8 11  1  0
 12 13  1  0
 12 14  1  0
 15 16  1  0
 15 17  1  0
 15 18  1  0
M  CHG  1   6  -1
M  END
>  <PDB_ID>  (1054) 
pdb1wmi

>  <RESIDUE_NAME>  (1054) 
GLU   LEU

>  <FRAG_NAME>  (1054) 
ACET   PRPA

>  <FRAG_ATOM_NUM>  (1054) 
fragi: 7  fragj: 11

>  <atom.prop.CHAIN_ID>  (1054) 
A A A A A A A Z Z Z Z Z Z Z Z Z Z Z

>  <atom.prop.IS_HEAVY_ATOM>  (1054) 
1 0 0 0 1 1 1 1 0 0 0 1 0 0 1 0 0 0

>  <DIFUSE_FUNC_ATOM>  (1054) 
atom 6   atom 7   

>  <FINAL_SINGLE_POINT_ENERGY>  (1054) 
0

>  <NONCOV_INTER_ENERGY_QM>  (1054) 
0

>  <FF_Energy>  (1054) 
17.1

>  <QM_Energy>  (1054) 
1.46

>  <source>  (1054) 
ACET_PRPA_10

>  <Index>  (1054) 
31435

$$$$
ACET-pdb1wrb-A-GLU-184:PRPA-pdb1wrb-A-LEU-189
     RDKit          3D

 18 16  0  0  0  0  0  0  0  0999 V2000
   -0.0075    1.5100   -0.0066 C   0  0  0  0  0  0  0  0  0  0  0  0
    0.9192    1.8121    0.1114 H   0  0  0  0  0  0  0  0  0  0  0  0
   -0.5945    1.8063    0.7224 H   0  0  0  0  0  0  0  0  0  0  0  0
   -0.3868    1.9114   -0.9464 H   0  0  0  0  0  0  0  0  0  0  0  0
    0.0000    0.0000    0.0000 C   0  0  0  0  0  0  0  0  0  0  0  0
   -1.0998   -0.5909   -0.0000 O   0  0  0  0  0  1  0  0  0  0  0  0
    1.0998   -0.5973   -0.0000 O   0  0  0  0  0  0  0  0  0  0  0  0
   -4.6463   -1.7372   -0.6185 C   0  0  0  0  0  0  0  0  0  0  0  0
   -4.8090   -2.6734   -0.9047 H   0  0  0  0  0  0  0  0  0  0  0  0
   -5.5571   -1.1580   -0.7706 H   0  0  0  0  0  0  0  0  0  0  0  0
   -4.4271   -1.7386    0.4492 H   0  0  0  0  0  0  0  0  0  0  0  0
   -3.4618   -1.1093   -1.3885 C   0  0  0  0  0  0  0  0  0  0  0  0
   -3.6975   -0.1222   -1.5467 H   0  0  0  0  0  0  0  0  0  0  0  0
   -2.6600   -1.0989   -0.7481 H   0  0  0  0  0  0  0  0  0  0  0  0
   -2.9335   -1.6510   -2.7401 C   0  0  0  0  0  0  0  0  0  0  0  0
   -3.4866   -2.4450   -2.9973 H   0  0  0  0  0  0  0  0  0  0  0  0
   -2.9925   -0.8889   -3.5172 H   0  0  0  0  0  0  0  0  0  0  0  0
   -1.8937   -1.9613   -2.6368 H   0  0  0  0  0  0  0  0  0  0  0  0
  1  5  1  0
  5  6  1  0
  5  7  2  0
  1  2  1  0
  1  3  1  0
  1  4  1  0
  8 12  1  0
 12 15  1  0
  8  9  1  0
  8 10  1  0
  8 11  1  0
 12 13  1  0
 12 14  1  0
 15 16  1  0
 15 17  1  0
 15 18  1  0
M  CHG  1   6  -1
M  END
>  <PDB_ID>  (1055) 
pdb1wrb

>  <RESIDUE_NAME>  (1055) 
GLU   LEU

>  <FRAG_NAME>  (1055) 
ACET   PRPA

>  <FRAG_ATOM_NUM>  (1055) 
fragi: 7  fragj: 11

>  <atom.prop.CHAIN_ID>  (1055) 
A A A A A A A Z Z Z Z Z Z Z Z Z Z Z

>  <atom.prop.IS_HEAVY_ATOM>  (1055) 
1 0 0 0 1 1 1 1 0 0 0 1 0 0 1 0 0 0

>  <DIFUSE_FUNC_ATOM>  (1055) 
atom 6   atom 7   

>  <FINAL_SINGLE_POINT_ENERGY>  (1055) 
0

>  <NONCOV_INTER_ENERGY_QM>  (1055) 
0

>  <FF_Energy>  (1055) 
30.36

>  <QM_Energy>  (1055) 
-0.64

>  <source>  (1055) 
ACET_PRPA_10

>  <Index>  (1055) 
33492

$$$$
ACET-pdb1wrb-A-GLU-184:PRPA-pdb1wrb-A-LEU-189
     RDKit          3D

 18 16  0  0  0  0  0  0  0  0999 V2000
   -0.0075    1.5100   -0.0066 C   0  0  0  0  0  0  0  0  0  0  0  0
    0.9192    1.8121    0.1114 H   0  0  0  0  0  0  0  0  0  0  0  0
   -0.5945    1.8063    0.7224 H   0  0  0  0  0  0  0  0  0  0  0  0
   -0.3868    1.9114   -0.9464 H   0  0  0  0  0  0  0  0  0  0  0  0
    0.0000    0.0000    0.0000 C   0  0  0  0  0  0  0  0  0  0  0  0
   -1.0998   -0.5909   -0.0000 O   0  0  0  0  0  1  0  0  0  0  0  0
    1.0998   -0.5973   -0.0000 O   0  0  0  0  0  0  0  0  0  0  0  0
   -3.4618   -1.1093   -1.3885 C   0  0  0  0  0  0  0  0  0  0  0  0
   -3.6975   -0.1222   -1.5467 H   0  0  0  0  0  0  0  0  0  0  0  0
   -2.6600   -1.0989   -0.7481 H   0  0  0  0  0  0  0  0  0  0  0  0
   -4.2969   -1.5520   -0.8456 H   0  0  0  0  0  0  0  0  0  0  0  0
   -2.9335   -1.6510   -2.7401 C   0  0  0  0  0  0  0  0  0  0  0  0
   -3.4866   -2.4450   -2.9973 H   0  0  0  0  0  0  0  0  0  0  0  0
   -2.9925   -0.8889   -3.5172 H   0  0  0  0  0  0  0  0  0  0  0  0
   -1.4830   -2.0838   -2.5961 C   0  0  0  0  0  0  0  0  0  0  0  0
   -1.4152   -2.8041   -1.9041 H   0  0  0  0  0  0  0  0  0  0  0  0
   -1.1487   -2.4321   -3.4724 H   0  0  0  0  0  0  0  0  0  0  0  0
   -0.9257   -1.3011   -2.3156 H   0  0  0  0  0  0  0  0  0  0  0  0
  1  5  1  0
  5  6  1  0
  5  7  2  0
  1  2  1  0
  1  3  1  0
  1  4  1  0
  8 12  1  0
 12 15  1  0
  8  9  1  0
  8 10  1  0
  8 11  1  0
 12 13  1  0
 12 14  1  0
 15 16  1  0
 15 17  1  0
 15 18  1  0
M  CHG  1   6  -1
M  END
>  <PDB_ID>  (1056) 
pdb1wrb

>  <RESIDUE_NAME>  (1056) 
GLU   LEU

>  <FRAG_NAME>  (1056) 
ACET   PRPA

>  <FRAG_ATOM_NUM>  (1056) 
fragi: 7  fragj: 11

>  <atom.prop.CHAIN_ID>  (1056) 
A A A A A A A Z Z Z Z Z Z Z Z Z Z Z

>  <atom.prop.IS_HEAVY_ATOM>  (1056) 
1 0 0 0 1 1 1 1 0 0 0 1 0 0 1 0 0 0

>  <DIFUSE_FUNC_ATOM>  (1056) 
atom 6   atom 7   

>  <FINAL_SINGLE_POINT_ENERGY>  (1056) 
0

>  <NONCOV_INTER_ENERGY_QM>  (1056) 
0

>  <FF_Energy>  (1056) 
27.46

>  <QM_Energy>  (1056) 
-0.11

>  <source>  (1056) 
ACET_PRPA_10

>  <Index>  (1056) 
33507

$$$$
ACET-pdb1wrb-A-GLU-184:PRPA-pdb1wrb-A-LEU-189
     RDKit          3D

 18 16  0  0  0  0  0  0  0  0999 V2000
   -0.0075    1.5100   -0.0066 C   0  0  0  0  0  0  0  0  0  0  0  0
    0.9192    1.8121    0.1114 H   0  0  0  0  0  0  0  0  0  0  0  0
   -0.5945    1.8063    0.7224 H   0  0  0  0  0  0  0  0  0  0  0  0
   -0.3868    1.9114   -0.9464 H   0  0  0  0  0  0  0  0  0  0  0  0
    0.0000    0.0000    0.0000 C   0  0  0  0  0  0  0  0  0  0  0  0
   -1.0998   -0.5909   -0.0000 O   0  0  0  0  0  1  0  0  0  0  0  0
    1.0998   -0.5973   -0.0000 O   0  0  0  0  0  0  0  0  0  0  0  0
   -3.4618   -1.1093   -1.3885 C   0  0  0  0  0  0  0  0  0  0  0  0
   -3.6975   -0.1222   -1.5467 H   0  0  0  0  0  0  0  0  0  0  0  0
   -2.6600   -1.0989   -0.7481 H   0  0  0  0  0  0  0  0  0  0  0  0
   -4.2969   -1.5520   -0.8456 H   0  0  0  0  0  0  0  0  0  0  0  0
   -2.9335   -1.6510   -2.7401 C   0  0  0  0  0  0  0  0  0  0  0  0
   -3.4866   -2.4450   -2.9973 H   0  0  0  0  0  0  0  0  0  0  0  0
   -1.8937   -1.9613   -2.6368 H   0  0  0  0  0  0  0  0  0  0  0  0
   -3.0153   -0.5941   -3.8180 C   0  0  0  0  0  0  0  0  0  0  0  0
   -2.4635    0.2002   -3.5566 H   0  0  0  0  0  0  0  0  0  0  0  0
   -2.6693   -0.9641   -4.6825 H   0  0  0  0  0  0  0  0  0  0  0  0
   -3.9680   -0.3074   -3.9408 H   0  0  0  0  0  0  0  0  0  0  0  0
  1  5  1  0
  5  6  1  0
  5  7  2  0
  1  2  1  0
  1  3  1  0
  1  4  1  0
  8 12  1  0
 12 15  1  0
  8  9  1  0
  8 10  1  0
  8 11  1  0
 12 13  1  0
 12 14  1  0
 15 16  1  0
 15 17  1  0
 15 18  1  0
M  CHG  1   6  -1
M  END
>  <PDB_ID>  (1057) 
pdb1wrb

>  <RESIDUE_NAME>  (1057) 
GLU   LEU

>  <FRAG_NAME>  (1057) 
ACET   PRPA

>  <FRAG_ATOM_NUM>  (1057) 
fragi: 7  fragj: 11

>  <atom.prop.CHAIN_ID>  (1057) 
A A A A A A A Z Z Z Z Z Z Z Z Z Z Z

>  <atom.prop.IS_HEAVY_ATOM>  (1057) 
1 0 0 0 1 1 1 1 0 0 0 1 0 0 1 0 0 0

>  <DIFUSE_FUNC_ATOM>  (1057) 
atom 6   atom 7   

>  <FINAL_SINGLE_POINT_ENERGY>  (1057) 
0

>  <NONCOV_INTER_ENERGY_QM>  (1057) 
0

>  <FF_Energy>  (1057) 
26.05

>  <QM_Energy>  (1057) 
-0.45

>  <source>  (1057) 
ACET_PRPA_10

>  <Index>  (1057) 
33521

$$$$
ACET-pdb3aos-A-GLU-183:PRPA-pdb3aos-A-ILE-58
     RDKit          3D

 18 16  0  0  0  0  0  0  0  0999 V2000
    0.0144    1.5093   -0.0623 C   0  0  0  0  0  0  0  0  0  0  0  0
   -0.3960    1.7757   -0.9247 H   0  0  0  0  0  0  0  0  0  0  0  0
    0.9618    1.7995   -0.0185 H   0  0  0  0  0  0  0  0  0  0  0  0
   -0.5325    2.0006    0.7426 H   0  0  0  0  0  0  0  0  0  0  0  0
    0.0000    0.0000    0.0000 C   0  0  0  0  0  0  0  0  0  0  0  0
   -1.1020   -0.5802    0.0000 O   0  0  0  0  0  1  0  0  0  0  0  0
    1.1020   -0.5993    0.0000 O   0  0  0  0  0  0  0  0  0  0  0  0
    1.6804    2.5098   -4.2565 C   0  0  0  0  0  0  0  0  0  0  0  0
    1.2884    1.6077   -4.3036 H   0  0  0  0  0  0  0  0  0  0  0  0
    1.8993    2.8420   -5.2713 H   0  0  0  0  0  0  0  0  0  0  0  0
    2.5826    2.4504   -3.6476 H   0  0  0  0  0  0  0  0  0  0  0  0
    0.6250    3.4553   -3.6726 C   0  0  0  0  0  0  0  0  0  0  0  0
    1.0600    4.3670   -3.6037 H   0  0  0  0  0  0  0  0  0  0  0  0
   -0.1037    3.5381   -4.3722 H   0  0  0  0  0  0  0  0  0  0  0  0
    0.0914    3.0414   -2.4265 C   0  0  0  0  0  0  0  0  0  0  0  0
    0.8104    2.9634   -1.7137 H   0  0  0  0  0  0  0  0  0  0  0  0
   -0.6027    3.6946   -2.0760 H   0  0  0  0  0  0  0  0  0  0  0  0
   -0.3615    2.1345   -2.4902 H   0  0  0  0  0  0  0  0  0  0  0  0
  1  5  1  0
  5  6  1  0
  5  7  2  0
  1  2  1  0
  1  3  1  0
  1  4  1  0
  8 12  1  0
 12 15  1  0
  8  9  1  0
  8 10  1  0
  8 11  1  0
 12 13  1  0
 12 14  1  0
 15 16  1  0
 15 17  1  0
 15 18  1  0
M  CHG  1   6  -1
M  END
>  <PDB_ID>  (1058) 
pdb3aos

>  <RESIDUE_NAME>  (1058) 
GLU   ILE

>  <FRAG_NAME>  (1058) 
ACET   PRPA

>  <FRAG_ATOM_NUM>  (1058) 
fragi: 7  fragj: 11

>  <atom.prop.CHAIN_ID>  (1058) 
A A A A A A A Z Z Z Z Z Z Z Z Z Z Z

>  <atom.prop.IS_HEAVY_ATOM>  (1058) 
1 0 0 0 1 1 1 1 0 0 0 1 0 0 1 0 0 0

>  <DIFUSE_FUNC_ATOM>  (1058) 
atom 6   atom 7   

>  <FINAL_SINGLE_POINT_ENERGY>  (1058) 
0

>  <NONCOV_INTER_ENERGY_QM>  (1058) 
0

>  <FF_Energy>  (1058) 
38.64

>  <QM_Energy>  (1058) 
9.66

>  <source>  (1058) 
ACET_PRPA_10

>  <Index>  (1058) 
33823

$$$$
ACET-pdb3al5-A-GLU-103:PRPA-pdb3al5-A-VAL-62
     RDKit          3D

 18 16  0  0  0  0  0  0  0  0999 V2000
    0.1816    1.4865    0.0135 C   0  0  0  0  0  0  0  0  0  0  0  0
    0.6981    1.7389   -0.8038 H   0  0  0  0  0  0  0  0  0  0  0  0
    0.7106    1.7214    0.8285 H   0  0  0  0  0  0  0  0  0  0  0  0
   -0.7292    2.0851    0.0257 H   0  0  0  0  0  0  0  0  0  0  0  0
    0.0000    0.0000    0.0000 C   0  0  0  0  0  0  0  0  0  0  0  0
   -1.0888   -0.5550    0.0000 O   0  0  0  0  0  1  0  0  0  0  0  0
    1.0888   -0.6099    0.0000 O   0  0  0  0  0  0  0  0  0  0  0  0
    3.2187   -0.3602    1.4985 C   0  0  0  0  0  0  0  0  0  0  0  0
    2.2318   -0.4403    1.3568 H   0  0  0  0  0  0  0  0  0  0  0  0
    3.6271    0.1256    0.7267 H   0  0  0  0  0  0  0  0  0  0  0  0
    3.6196   -1.2735    1.5686 H   0  0  0  0  0  0  0  0  0  0  0  0
    3.4861    0.4122    2.7838 C   0  0  0  0  0  0  0  0  0  0  0  0
    2.7119    1.0136    2.9312 H   0  0  0  0  0  0  0  0  0  0  0  0
    4.3690    1.0398    2.6622 H   0  0  0  0  0  0  0  0  0  0  0  0
    3.6561   -0.5406    3.9552 C   0  0  0  0  0  0  0  0  0  0  0  0
    2.7663   -0.7027    4.3819 H   0  0  0  0  0  0  0  0  0  0  0  0
    4.0334   -1.4058    3.6267 H   0  0  0  0  0  0  0  0  0  0  0  0
    4.2804   -0.1346    4.6245 H   0  0  0  0  0  0  0  0  0  0  0  0
  1  5  1  0
  5  6  1  0
  5  7  2  0
  1  2  1  0
  1  3  1  0
  1  4  1  0
  8 12  1  0
 12 15  1  0
  8  9  1  0
  8 10  1  0
  8 11  1  0
 12 13  1  0
 12 14  1  0
 15 16  1  0
 15 17  1  0
 15 18  1  0
M  CHG  1   6  -1
M  END
>  <PDB_ID>  (1059) 
pdb3al5

>  <RESIDUE_NAME>  (1059) 
GLU   VAL

>  <FRAG_NAME>  (1059) 
ACET   PRPA

>  <FRAG_ATOM_NUM>  (1059) 
fragi: 7  fragj: 11

>  <atom.prop.CHAIN_ID>  (1059) 
A A A A A A A Z Z Z Z Z Z Z Z Z Z Z

>  <atom.prop.IS_HEAVY_ATOM>  (1059) 
1 0 0 0 1 1 1 1 0 0 0 1 0 0 1 0 0 0

>  <DIFUSE_FUNC_ATOM>  (1059) 
atom 6   atom 7   

>  <FINAL_SINGLE_POINT_ENERGY>  (1059) 
0

>  <NONCOV_INTER_ENERGY_QM>  (1059) 
0

>  <FF_Energy>  (1059) 
33.87

>  <QM_Energy>  (1059) 
4.37

>  <source>  (1059) 
ACET_PRPA_10

>  <Index>  (1059) 
34716

$$$$
ACET-pdb1wra-A-ASP-311:PRPA-pdb1wra-A-ARG-93
     RDKit          3D

 18 16  0  0  0  0  0  0  0  0999 V2000
   -0.0521    1.4982   -0.0568 C   0  0  0  0  0  0  0  0  0  0  0  0
    0.8456    1.8443   -0.3043 H   0  0  0  0  0  0  0  0  0  0  0  0
   -0.3278    1.8465    0.8311 H   0  0  0  0  0  0  0  0  0  0  0  0
   -0.7687    1.8512   -0.7983 H   0  0  0  0  0  0  0  0  0  0  0  0
    0.0000    0.0000    0.0000 C   0  0  0  0  0  0  0  0  0  0  0  0
   -1.0867   -0.6381    0.0000 O   0  0  0  0  0  1  0  0  0  0  0  0
    1.0867   -0.6128   -0.0000 O   0  0  0  0  0  0  0  0  0  0  0  0
    1.7665   -2.5076    3.4145 C   0  0  0  0  0  0  0  0  0  0  0  0
    1.3483   -3.3851    3.6560 H   0  0  0  0  0  0  0  0  0  0  0  0
    1.0601   -1.8962    3.0529 H   0  0  0  0  0  0  0  0  0  0  0  0
    2.1952   -2.0615    4.3119 H   0  0  0  0  0  0  0  0  0  0  0  0
    2.7608   -2.7704    2.2893 C   0  0  0  0  0  0  0  0  0  0  0  0
    3.4114   -2.0271    2.2457 H   0  0  0  0  0  0  0  0  0  0  0  0
    3.2125   -3.6353    2.4466 H   0  0  0  0  0  0  0  0  0  0  0  0
    2.0225   -2.8439    0.9725 C   0  0  0  0  0  0  0  0  0  0  0  0
    1.4405   -2.0611    0.9078 H   0  0  0  0  0  0  0  0  0  0  0  0
    2.6863   -2.8930    0.2560 H   0  0  0  0  0  0  0  0  0  0  0  0
    1.4331   -3.7599    1.0136 H   0  0  0  0  0  0  0  0  0  0  0  0
  1  5  1  0
  5  6  1  0
  5  7  2  0
  1  2  1  0
  1  3  1  0
  1  4  1  0
  8 12  1  0
 12 15  1  0
  8  9  1  0
  8 10  1  0
  8 11  1  0
 12 13  1  0
 12 14  1  0
 15 16  1  0
 15 17  1  0
 15 18  1  0
M  CHG  1   6  -1
M  END
>  <PDB_ID>  (1060) 
pdb1wra

>  <RESIDUE_NAME>  (1060) 
ASP   ARG

>  <FRAG_NAME>  (1060) 
ACET   PRPA

>  <FRAG_ATOM_NUM>  (1060) 
fragi: 7  fragj: 11

>  <atom.prop.CHAIN_ID>  (1060) 
A A A A A A A Z Z Z Z Z Z Z Z Z Z Z

>  <atom.prop.IS_HEAVY_ATOM>  (1060) 
1 0 0 0 1 1 1 1 0 0 0 1 0 0 1 0 0 0

>  <DIFUSE_FUNC_ATOM>  (1060) 
atom 6   atom 7   

>  <FINAL_SINGLE_POINT_ENERGY>  (1060) 
0

>  <NONCOV_INTER_ENERGY_QM>  (1060) 
0

>  <FF_Energy>  (1060) 
43.66

>  <QM_Energy>  (1060) 
3.51

>  <source>  (1060) 
ACET_PRPA_10

>  <Index>  (1060) 
34910

$$$$
ACET-pdb3al5-A-GLU-91:PRPA-pdb3al5-A-ARG-88
     RDKit          3D

 18 16  0  0  0  0  0  0  0  0999 V2000
    0.1756    1.4868    0.0148 C   0  0  0  0  0  0  0  0  0  0  0  0
    0.6948    1.7406   -0.8024 H   0  0  0  0  0  0  0  0  0  0  0  0
    0.7060    1.7226    0.8299 H   0  0  0  0  0  0  0  0  0  0  0  0
   -0.7358    2.0846    0.0266 H   0  0  0  0  0  0  0  0  0  0  0  0
    0.0000    0.0000    0.0000 C   0  0  0  0  0  0  0  0  0  0  0  0
   -1.0895   -0.5571    0.0000 O   0  0  0  0  0  1  0  0  0  0  0  0
    1.0895   -0.6074   -0.0000 O   0  0  0  0  0  0  0  0  0  0  0  0
    2.8667    1.7961   -0.9656 C   0  0  0  0  0  0  0  0  0  0  0  0
    2.1722    1.4503   -0.3310 H   0  0  0  0  0  0  0  0  0  0  0  0
    3.3006    0.9564   -1.5084 H   0  0  0  0  0  0  0  0  0  0  0  0
    2.3874    2.4823   -1.6637 H   0  0  0  0  0  0  0  0  0  0  0  0
    3.9281    2.5246   -0.1291 C   0  0  0  0  0  0  0  0  0  0  0  0
    4.6276    2.8738   -0.7531 H   0  0  0  0  0  0  0  0  0  0  0  0
    3.4845    3.2910    0.3353 H   0  0  0  0  0  0  0  0  0  0  0  0
    4.6211    1.6723    0.9257 C   0  0  0  0  0  0  0  0  0  0  0  0
    3.9332    1.3220    1.5617 H   0  0  0  0  0  0  0  0  0  0  0  0
    5.0772    0.9055    0.4743 H   0  0  0  0  0  0  0  0  0  0  0  0
    5.3610    2.2456    1.4840 H   0  0  0  0  0  0  0  0  0  0  0  0
  1  5  1  0
  5  6  1  0
  5  7  2  0
  1  2  1  0
  1  3  1  0
  1  4  1  0
  8 12  1  0
 12 15  1  0
  8  9  1  0
  8 10  1  0
  8 11  1  0
 12 13  1  0
 12 14  1  0
 15 16  1  0
 15 17  1  0
 15 18  1  0
M  CHG  1   6  -1
M  END
>  <PDB_ID>  (1061) 
pdb3al5

>  <RESIDUE_NAME>  (1061) 
GLU   ARG

>  <FRAG_NAME>  (1061) 
ACET   PRPA

>  <FRAG_ATOM_NUM>  (1061) 
fragi: 7  fragj: 11

>  <atom.prop.CHAIN_ID>  (1061) 
A A A A A A A Z Z Z Z Z Z Z Z Z Z Z

>  <atom.prop.IS_HEAVY_ATOM>  (1061) 
1 0 0 0 1 1 1 1 0 0 0 1 0 0 1 0 0 0

>  <DIFUSE_FUNC_ATOM>  (1061) 
atom 6   atom 7   

>  <FINAL_SINGLE_POINT_ENERGY>  (1061) 
0

>  <NONCOV_INTER_ENERGY_QM>  (1061) 
0

>  <FF_Energy>  (1061) 
44.11

>  <QM_Energy>  (1061) 
9.36

>  <source>  (1061) 
ACET_PRPA_10

>  <Index>  (1061) 
34917

$$$$
ACET-pdb3al5-A-ASP-102:PRPA-pdb3al5-A-LYS-93
     RDKit          3D

 18 16  0  0  0  0  0  0  0  0999 V2000
    0.0381    1.5157   -0.0184 C   0  0  0  0  0  0  0  0  0  0  0  0
    0.5312    1.8126   -0.8351 H   0  0  0  0  0  0  0  0  0  0  0  0
    0.5204    1.8338    0.7968 H   0  0  0  0  0  0  0  0  0  0  0  0
   -0.9455    1.9855   -0.0311 H   0  0  0  0  0  0  0  0  0  0  0  0
    0.0000    0.0000    0.0000 C   0  0  0  0  0  0  0  0  0  0  0  0
   -1.0951   -0.5998    0.0000 O   0  0  0  0  0  1  0  0  0  0  0  0
    1.0951   -0.5859    0.0000 O   0  0  0  0  0  0  0  0  0  0  0  0
   -3.8150   -0.0496    2.9730 C   0  0  0  0  0  0  0  0  0  0  0  0
   -3.4301    0.5580    2.2646 H   0  0  0  0  0  0  0  0  0  0  0  0
   -3.3151    0.1519    3.9204 H   0  0  0  0  0  0  0  0  0  0  0  0
   -4.8880    0.1309    3.0389 H   0  0  0  0  0  0  0  0  0  0  0  0
   -3.5458   -1.4851    2.5139 C   0  0  0  0  0  0  0  0  0  0  0  0
   -3.9021   -2.1073    3.2111 H   0  0  0  0  0  0  0  0  0  0  0  0
   -4.0366   -1.6346    1.6543 H   0  0  0  0  0  0  0  0  0  0  0  0
   -2.0761   -1.8138    2.2885 C   0  0  0  0  0  0  0  0  0  0  0  0
   -1.7094   -1.2001    1.5871 H   0  0  0  0  0  0  0  0  0  0  0  0
   -1.5759   -1.6748    3.1445 H   0  0  0  0  0  0  0  0  0  0  0  0
   -1.9395   -2.8449    1.9622 H   0  0  0  0  0  0  0  0  0  0  0  0
  1  5  1  0
  5  6  1  0
  5  7  2  0
  1  2  1  0
  1  3  1  0
  1  4  1  0
  8 12  1  0
 12 15  1  0
  8  9  1  0
  8 10  1  0
  8 11  1  0
 12 13  1  0
 12 14  1  0
 15 16  1  0
 15 17  1  0
 15 18  1  0
M  CHG  1   6  -1
M  END
>  <PDB_ID>  (1062) 
pdb3al5

>  <RESIDUE_NAME>  (1062) 
ASP   LYS

>  <FRAG_NAME>  (1062) 
ACET   PRPA

>  <FRAG_ATOM_NUM>  (1062) 
fragi: 7  fragj: 11

>  <atom.prop.CHAIN_ID>  (1062) 
A A A A A A A Z Z Z Z Z Z Z Z Z Z Z

>  <atom.prop.IS_HEAVY_ATOM>  (1062) 
1 0 0 0 1 1 1 1 0 0 0 1 0 0 1 0 0 0

>  <DIFUSE_FUNC_ATOM>  (1062) 
atom 6   atom 7   

>  <FINAL_SINGLE_POINT_ENERGY>  (1062) 
0

>  <NONCOV_INTER_ENERGY_QM>  (1062) 
0

>  <FF_Energy>  (1062) 
26.99

>  <QM_Energy>  (1062) 
0.36

>  <source>  (1062) 
ACET_PRPA_10

>  <Index>  (1062) 
34956

$$$$
ACET-pdb1wap-J-GLU-16:PRPA-pdb1wap-J-LYS-74
     RDKit          3D

 18 16  0  0  0  0  0  0  0  0999 V2000
    0.1172    1.4875   -0.0631 C   0  0  0  0  0  0  0  0  0  0  0  0
   -0.0999    1.7677   -1.0321 H   0  0  0  0  0  0  0  0  0  0  0  0
    1.1166    1.7174    0.0542 H   0  0  0  0  0  0  0  0  0  0  0  0
   -0.4368    2.1643    0.5875 H   0  0  0  0  0  0  0  0  0  0  0  0
    0.0000    0.0000    0.0000 C   0  0  0  0  0  0  0  0  0  0  0  0
   -1.0795   -0.6149    0.0000 O   0  0  0  0  0  1  0  0  0  0  0  0
    1.0795   -0.6631   -0.0000 O   0  0  0  0  0  0  0  0  0  0  0  0
   -2.8241   -2.9080   -1.3229 C   0  0  0  0  0  0  0  0  0  0  0  0
   -2.1636   -2.1319   -1.2431 H   0  0  0  0  0  0  0  0  0  0  0  0
   -3.4897   -2.7041   -2.1617 H   0  0  0  0  0  0  0  0  0  0  0  0
   -2.2612   -3.8377   -1.4051 H   0  0  0  0  0  0  0  0  0  0  0  0
   -3.5129   -2.7438    0.0486 C   0  0  0  0  0  0  0  0  0  0  0  0
   -4.0005   -1.8933    0.0454 H   0  0  0  0  0  0  0  0  0  0  0  0
   -4.1009   -3.5161    0.1891 H   0  0  0  0  0  0  0  0  0  0  0  0
   -2.4724   -2.7091    1.1596 C   0  0  0  0  0  0  0  0  0  0  0  0
   -1.8754   -3.5362    1.0662 H   0  0  0  0  0  0  0  0  0  0  0  0
   -1.8603   -1.9040    1.0025 H   0  0  0  0  0  0  0  0  0  0  0  0
   -2.8482   -2.6657    2.1818 H   0  0  0  0  0  0  0  0  0  0  0  0
  1  5  1  0
  5  6  1  0
  5  7  2  0
  1  2  1  0
  1  3  1  0
  1  4  1  0
  8 12  1  0
 12 15  1  0
  8  9  1  0
  8 10  1  0
  8 11  1  0
 12 13  1  0
 12 14  1  0
 15 16  1  0
 15 17  1  0
 15 18  1  0
M  CHG  1   6  -1
M  END
>  <PDB_ID>  (1063) 
pdb1wap

>  <RESIDUE_NAME>  (1063) 
GLU   LYS

>  <FRAG_NAME>  (1063) 
ACET   PRPA

>  <FRAG_ATOM_NUM>  (1063) 
fragi: 7  fragj: 11

>  <atom.prop.CHAIN_ID>  (1063) 
A A A A A A A Z Z Z Z Z Z Z Z Z Z Z

>  <atom.prop.IS_HEAVY_ATOM>  (1063) 
1 0 0 0 1 1 1 1 0 0 0 1 0 0 1 0 0 0

>  <DIFUSE_FUNC_ATOM>  (1063) 
atom 6   atom 7   

>  <FINAL_SINGLE_POINT_ENERGY>  (1063) 
0

>  <NONCOV_INTER_ENERGY_QM>  (1063) 
0

>  <FF_Energy>  (1063) 
27.1

>  <QM_Energy>  (1063) 
-1.76

>  <source>  (1063) 
ACET_PRPA_10

>  <Index>  (1063) 
35053

$$$$
ACET-pdb1wap-J-GLU-16:PRPA-pdb1wap-J-LYS-74
     RDKit          3D

 18 16  0  0  0  0  0  0  0  0999 V2000
    0.1172    1.4875   -0.0631 C   0  0  0  0  0  0  0  0  0  0  0  0
   -0.0999    1.7677   -1.0321 H   0  0  0  0  0  0  0  0  0  0  0  0
    1.1166    1.7174    0.0542 H   0  0  0  0  0  0  0  0  0  0  0  0
   -0.4368    2.1643    0.5875 H   0  0  0  0  0  0  0  0  0  0  0  0
    0.0000    0.0000    0.0000 C   0  0  0  0  0  0  0  0  0  0  0  0
   -1.0795   -0.6149    0.0000 O   0  0  0  0  0  1  0  0  0  0  0  0
    1.0795   -0.6631   -0.0000 O   0  0  0  0  0  0  0  0  0  0  0  0
   -3.5129   -2.7438    0.0486 C   0  0  0  0  0  0  0  0  0  0  0  0
   -4.0005   -1.8933    0.0454 H   0  0  0  0  0  0  0  0  0  0  0  0
   -4.1009   -3.5161    0.1891 H   0  0  0  0  0  0  0  0  0  0  0  0
   -3.0265   -2.8597   -0.9199 H   0  0  0  0  0  0  0  0  0  0  0  0
   -2.4724   -2.7091    1.1596 C   0  0  0  0  0  0  0  0  0  0  0  0
   -1.8754   -3.5362    1.0662 H   0  0  0  0  0  0  0  0  0  0  0  0
   -1.8603   -1.9040    1.0025 H   0  0  0  0  0  0  0  0  0  0  0  0
   -2.9931   -2.6489    2.5760 C   0  0  0  0  0  0  0  0  0  0  0  0
   -3.3067   -1.7341    2.7736 H   0  0  0  0  0  0  0  0  0  0  0  0
   -3.7134   -3.3144    2.6929 H   0  0  0  0  0  0  0  0  0  0  0  0
   -2.1920   -2.8909    3.2744 H   0  0  0  0  0  0  0  0  0  0  0  0
  1  5  1  0
  5  6  1  0
  5  7  2  0
  1  2  1  0
  1  3  1  0
  1  4  1  0
  8 12  1  0
 12 15  1  0
  8  9  1  0
  8 10  1  0
  8 11  1  0
 12 13  1  0
 12 14  1  0
 15 16  1  0
 15 17  1  0
 15 18  1  0
M  CHG  1   6  -1
M  END
>  <PDB_ID>  (1064) 
pdb1wap

>  <RESIDUE_NAME>  (1064) 
GLU   LYS

>  <FRAG_NAME>  (1064) 
ACET   PRPA

>  <FRAG_ATOM_NUM>  (1064) 
fragi: 7  fragj: 11

>  <atom.prop.CHAIN_ID>  (1064) 
A A A A A A A Z Z Z Z Z Z Z Z Z Z Z

>  <atom.prop.IS_HEAVY_ATOM>  (1064) 
1 0 0 0 1 1 1 1 0 0 0 1 0 0 1 0 0 0

>  <DIFUSE_FUNC_ATOM>  (1064) 
atom 6   atom 7   

>  <FINAL_SINGLE_POINT_ENERGY>  (1064) 
0

>  <NONCOV_INTER_ENERGY_QM>  (1064) 
0

>  <FF_Energy>  (1064) 
29.76

>  <QM_Energy>  (1064) 
-0.13

>  <source>  (1064) 
ACET_PRPA_10

>  <Index>  (1064) 
35070

$$$$
ACET-pdb1wap-J-GLU-16:PRPA-pdb1wap-J-LYS-74
     RDKit          3D

 18 16  0  0  0  0  0  0  0  0999 V2000
    0.1172    1.4875   -0.0631 C   0  0  0  0  0  0  0  0  0  0  0  0
   -0.0999    1.7677   -1.0321 H   0  0  0  0  0  0  0  0  0  0  0  0
    1.1166    1.7174    0.0542 H   0  0  0  0  0  0  0  0  0  0  0  0
   -0.4368    2.1643    0.5875 H   0  0  0  0  0  0  0  0  0  0  0  0
    0.0000    0.0000    0.0000 C   0  0  0  0  0  0  0  0  0  0  0  0
   -1.0795   -0.6149    0.0000 O   0  0  0  0  0  1  0  0  0  0  0  0
    1.0795   -0.6631   -0.0000 O   0  0  0  0  0  0  0  0  0  0  0  0
   -2.4724   -2.7091    1.1596 C   0  0  0  0  0  0  0  0  0  0  0  0
   -1.8754   -3.5362    1.0662 H   0  0  0  0  0  0  0  0  0  0  0  0
   -1.8603   -1.9040    1.0025 H   0  0  0  0  0  0  0  0  0  0  0  0
   -3.2173   -2.7339    0.3642 H   0  0  0  0  0  0  0  0  0  0  0  0
   -2.9931   -2.6489    2.5760 C   0  0  0  0  0  0  0  0  0  0  0  0
   -3.3067   -1.7341    2.7736 H   0  0  0  0  0  0  0  0  0  0  0  0
   -3.7134   -3.3144    2.6929 H   0  0  0  0  0  0  0  0  0  0  0  0
   -1.8634   -2.9902    3.5608 C   0  0  0  0  0  0  0  0  0  0  0  0
   -1.5994   -3.9432    3.4260 H   0  0  0  0  0  0  0  0  0  0  0  0
   -1.0842   -2.3957    3.3719 H   0  0  0  0  0  0  0  0  0  0  0  0
   -2.1849   -2.8470    4.5924 H   0  0  0  0  0  0  0  0  0  0  0  0
  1  5  1  0
  5  6  1  0
  5  7  2  0
  1  2  1  0
  1  3  1  0
  1  4  1  0
  8 12  1  0
 12 15  1  0
  8  9  1  0
  8 10  1  0
  8 11  1  0
 12 13  1  0
 12 14  1  0
 15 16  1  0
 15 17  1  0
 15 18  1  0
M  CHG  1   6  -1
M  END
>  <PDB_ID>  (1065) 
pdb1wap

>  <RESIDUE_NAME>  (1065) 
GLU   LYS

>  <FRAG_NAME>  (1065) 
ACET   PRPA

>  <FRAG_ATOM_NUM>  (1065) 
fragi: 7  fragj: 11

>  <atom.prop.CHAIN_ID>  (1065) 
A A A A A A A Z Z Z Z Z Z Z Z Z Z Z

>  <atom.prop.IS_HEAVY_ATOM>  (1065) 
1 0 0 0 1 1 1 1 0 0 0 1 0 0 1 0 0 0

>  <DIFUSE_FUNC_ATOM>  (1065) 
atom 6   atom 7   

>  <FINAL_SINGLE_POINT_ENERGY>  (1065) 
0

>  <NONCOV_INTER_ENERGY_QM>  (1065) 
0

>  <FF_Energy>  (1065) 
25.34

>  <QM_Energy>  (1065) 
0.49

>  <source>  (1065) 
ACET_PRPA_10

>  <Index>  (1065) 
35081

$$$$
ACET-pdb1wvr-A-GLU-7:PRPA-pdb1wvr-A-LYS-85
     RDKit          3D

 18 16  0  0  0  0  0  0  0  0999 V2000
   -0.0031    1.5029    0.0001 C   0  0  0  0  0  0  0  0  0  0  0  0
    0.9130    1.8038   -0.1799 H   0  0  0  0  0  0  0  0  0  0  0  0
   -0.3323    1.8006    0.8755 H   0  0  0  0  0  0  0  0  0  0  0  0
   -0.6585    1.9018   -0.7741 H   0  0  0  0  0  0  0  0  0  0  0  0
    0.0000    0.0000    0.0000 C   0  0  0  0  0  0  0  0  0  0  0  0
   -1.0924   -0.5990    0.0000 O   0  0  0  0  0  1  0  0  0  0  0  0
    1.0924   -0.5905   -0.0000 O   0  0  0  0  0  0  0  0  0  0  0  0
    3.6456    1.8851    0.6085 C   0  0  0  0  0  0  0  0  0  0  0  0
    2.7094    1.7966    0.2843 H   0  0  0  0  0  0  0  0  0  0  0  0
    4.1839    2.5733   -0.0432 H   0  0  0  0  0  0  0  0  0  0  0  0
    3.6342    2.3154    1.6099 H   0  0  0  0  0  0  0  0  0  0  0  0
    4.3449    0.5269    0.6647 C   0  0  0  0  0  0  0  0  0  0  0  0
    5.3220    0.6727    0.4880 H   0  0  0  0  0  0  0  0  0  0  0  0
    4.2351    0.1588    1.5926 H   0  0  0  0  0  0  0  0  0  0  0  0
    3.8319   -0.5056   -0.3212 C   0  0  0  0  0  0  0  0  0  0  0  0
    4.4035   -1.3301   -0.2574 H   0  0  0  0  0  0  0  0  0  0  0  0
    2.8882   -0.7507   -0.0778 H   0  0  0  0  0  0  0  0  0  0  0  0
    3.8483   -0.1444   -1.3494 H   0  0  0  0  0  0  0  0  0  0  0  0
  1  5  1  0
  5  6  1  0
  5  7  2  0
  1  2  1  0
  1  3  1  0
  1  4  1  0
  8 12  1  0
 12 15  1  0
  8  9  1  0
  8 10  1  0
  8 11  1  0
 12 13  1  0
 12 14  1  0
 15 16  1  0
 15 17  1  0
 15 18  1  0
M  CHG  1   6  -1
M  END
>  <PDB_ID>  (1066) 
pdb1wvr

>  <RESIDUE_NAME>  (1066) 
GLU   LYS

>  <FRAG_NAME>  (1066) 
ACET   PRPA

>  <FRAG_ATOM_NUM>  (1066) 
fragi: 7  fragj: 11

>  <atom.prop.CHAIN_ID>  (1066) 
A A A A A A A Z Z Z Z Z Z Z Z Z Z Z

>  <atom.prop.IS_HEAVY_ATOM>  (1066) 
1 0 0 0 1 1 1 1 0 0 0 1 0 0 1 0 0 0

>  <DIFUSE_FUNC_ATOM>  (1066) 
atom 6   atom 7   

>  <FINAL_SINGLE_POINT_ENERGY>  (1066) 
0

>  <NONCOV_INTER_ENERGY_QM>  (1066) 
0

>  <FF_Energy>  (1066) 
28.73

>  <QM_Energy>  (1066) 
1.07

>  <source>  (1066) 
ACET_PRPA_10

>  <Index>  (1066) 
35755

$$$$
ACET-pdb1wvr-A-GLU-7:PRPA-pdb1wvr-A-LYS-85
     RDKit          3D

 18 16  0  0  0  0  0  0  0  0999 V2000
   -0.0031    1.5029    0.0001 C   0  0  0  0  0  0  0  0  0  0  0  0
    0.9130    1.8038   -0.1799 H   0  0  0  0  0  0  0  0  0  0  0  0
   -0.3323    1.8006    0.8755 H   0  0  0  0  0  0  0  0  0  0  0  0
   -0.6585    1.9018   -0.7741 H   0  0  0  0  0  0  0  0  0  0  0  0
    0.0000    0.0000    0.0000 C   0  0  0  0  0  0  0  0  0  0  0  0
   -1.0924   -0.5990    0.0000 O   0  0  0  0  0  1  0  0  0  0  0  0
    1.0924   -0.5905   -0.0000 O   0  0  0  0  0  0  0  0  0  0  0  0
    3.8319   -0.5056   -0.3212 C   0  0  0  0  0  0  0  0  0  0  0  0
    4.4035   -1.3301   -0.2574 H   0  0  0  0  0  0  0  0  0  0  0  0
    2.8882   -0.7507   -0.0778 H   0  0  0  0  0  0  0  0  0  0  0  0
    4.2005    0.2363    0.3871 H   0  0  0  0  0  0  0  0  0  0  0  0
    3.8546   -0.0036   -1.7504 C   0  0  0  0  0  0  0  0  0  0  0  0
    3.1489    0.6879   -1.8632 H   0  0  0  0  0  0  0  0  0  0  0  0
    4.7504    0.3782   -1.9481 H   0  0  0  0  0  0  0  0  0  0  0  0
    3.5845   -1.1331   -2.7372 C   0  0  0  0  0  0  0  0  0  0  0  0
    2.7330   -1.5901   -2.4824 H   0  0  0  0  0  0  0  0  0  0  0  0
    3.4946   -0.7473   -3.6553 H   0  0  0  0  0  0  0  0  0  0  0  0
    4.3968   -1.8599   -2.7317 H   0  0  0  0  0  0  0  0  0  0  0  0
  1  5  1  0
  5  6  1  0
  5  7  2  0
  1  2  1  0
  1  3  1  0
  1  4  1  0
  8 12  1  0
 12 15  1  0
  8  9  1  0
  8 10  1  0
  8 11  1  0
 12 13  1  0
 12 14  1  0
 15 16  1  0
 15 17  1  0
 15 18  1  0
M  CHG  1   6  -1
M  END
>  <PDB_ID>  (1067) 
pdb1wvr

>  <RESIDUE_NAME>  (1067) 
GLU   LYS

>  <FRAG_NAME>  (1067) 
ACET   PRPA

>  <FRAG_ATOM_NUM>  (1067) 
fragi: 7  fragj: 11

>  <atom.prop.CHAIN_ID>  (1067) 
A A A A A A A Z Z Z Z Z Z Z Z Z Z Z

>  <atom.prop.IS_HEAVY_ATOM>  (1067) 
1 0 0 0 1 1 1 1 0 0 0 1 0 0 1 0 0 0

>  <DIFUSE_FUNC_ATOM>  (1067) 
atom 6   atom 7   

>  <FINAL_SINGLE_POINT_ENERGY>  (1067) 
0

>  <NONCOV_INTER_ENERGY_QM>  (1067) 
0

>  <FF_Energy>  (1067) 
26.84

>  <QM_Energy>  (1067) 
-0.65

>  <source>  (1067) 
ACET_PRPA_10

>  <Index>  (1067) 
35766

$$$$
ACET-pdb1wsc-A-GLU-142:PRPA-pdb1wsc-A-LYS-139
     RDKit          3D

 18 16  0  0  0  0  0  0  0  0999 V2000
    0.0192    1.5241    0.0051 C   0  0  0  0  0  0  0  0  0  0  0  0
    0.9575    1.8058   -0.0968 H   0  0  0  0  0  0  0  0  0  0  0  0
   -0.3621    1.8185    0.8642 H   0  0  0  0  0  0  0  0  0  0  0  0
   -0.5633    1.9666   -0.8029 H   0  0  0  0  0  0  0  0  0  0  0  0
    0.0000    0.0000    0.0000 C   0  0  0  0  0  0  0  0  0  0  0  0
   -1.1024   -0.5981    0.0000 O   0  0  0  0  0  1  0  0  0  0  0  0
    1.1024   -0.5972   -0.0000 O   0  0  0  0  0  0  0  0  0  0  0  0
   -2.7011    0.8507    2.9358 C   0  0  0  0  0  0  0  0  0  0  0  0
   -2.0620    1.6157    2.8311 H   0  0  0  0  0  0  0  0  0  0  0  0
   -3.1043    0.8807    3.8514 H   0  0  0  0  0  0  0  0  0  0  0  0
   -3.4945    0.9466    2.1945 H   0  0  0  0  0  0  0  0  0  0  0  0
   -1.9379   -0.4515    2.7758 C   0  0  0  0  0  0  0  0  0  0  0  0
   -2.5617   -1.2106    2.9063 H   0  0  0  0  0  0  0  0  0  0  0  0
   -1.5300   -0.4805    1.8723 H   0  0  0  0  0  0  0  0  0  0  0  0
   -0.8255   -0.5556    3.8121 C   0  0  0  0  0  0  0  0  0  0  0  0
   -1.2339   -0.5557    4.7266 H   0  0  0  0  0  0  0  0  0  0  0  0
   -0.3311   -1.4146    3.6716 H   0  0  0  0  0  0  0  0  0  0  0  0
   -0.1265    0.2770    3.7317 H   0  0  0  0  0  0  0  0  0  0  0  0
  1  5  1  0
  5  6  1  0
  5  7  2  0
  1  2  1  0
  1  3  1  0
  1  4  1  0
  8 12  1  0
 12 15  1  0
  8  9  1  0
  8 10  1  0
  8 11  1  0
 12 13  1  0
 12 14  1  0
 15 16  1  0
 15 17  1  0
 15 18  1  0
M  CHG  1   6  -1
M  END
>  <PDB_ID>  (1068) 
pdb1wsc

>  <RESIDUE_NAME>  (1068) 
GLU   LYS

>  <FRAG_NAME>  (1068) 
ACET   PRPA

>  <FRAG_ATOM_NUM>  (1068) 
fragi: 7  fragj: 11

>  <atom.prop.CHAIN_ID>  (1068) 
A A A A A A A Z Z Z Z Z Z Z Z Z Z Z

>  <atom.prop.IS_HEAVY_ATOM>  (1068) 
1 0 0 0 1 1 1 1 0 0 0 1 0 0 1 0 0 0

>  <DIFUSE_FUNC_ATOM>  (1068) 
atom 6   atom 7   

>  <FINAL_SINGLE_POINT_ENERGY>  (1068) 
0

>  <NONCOV_INTER_ENERGY_QM>  (1068) 
0

>  <FF_Energy>  (1068) 
15.52

>  <QM_Energy>  (1068) 
-1.47

>  <source>  (1068) 
ACET_PRPA_10

>  <Index>  (1068) 
36116

$$$$
ACET-pdb1wap-Z-GLU-60:PRPA-pdb1wap-Z-GLU-16
     RDKit          3D

 18 16  0  0  0  0  0  0  0  0999 V2000
    0.0594    1.5076   -0.0153 C   0  0  0  0  0  0  0  0  0  0  0  0
    0.1014    1.7938   -0.9810 H   0  0  0  0  0  0  0  0  0  0  0  0
    0.9242    1.7751    0.4284 H   0  0  0  0  0  0  0  0  0  0  0  0
   -0.7477    2.0631    0.4624 H   0  0  0  0  0  0  0  0  0  0  0  0
    0.0000    0.0000    0.0000 C   0  0  0  0  0  0  0  0  0  0  0  0
   -1.0916   -0.6253    0.0000 O   0  0  0  0  0  1  0  0  0  0  0  0
    1.0916   -0.6366    0.0000 O   0  0  0  0  0  0  0  0  0  0  0  0
    2.4378    4.9499   -1.4798 C   0  0  0  0  0  0  0  0  0  0  0  0
    2.9421    4.9425   -2.3402 H   0  0  0  0  0  0  0  0  0  0  0  0
    2.7201    4.0874   -0.8761 H   0  0  0  0  0  0  0  0  0  0  0  0
    2.6789    5.8531   -0.9192 H   0  0  0  0  0  0  0  0  0  0  0  0
    0.9416    4.9084   -1.7881 C   0  0  0  0  0  0  0  0  0  0  0  0
    0.4599    4.9448   -0.9280 H   0  0  0  0  0  0  0  0  0  0  0  0
    0.7327    5.6857   -2.3572 H   0  0  0  0  0  0  0  0  0  0  0  0
    0.4936    3.6657   -2.5180 C   0  0  0  0  0  0  0  0  0  0  0  0
    0.6844    2.8689   -1.9112 H   0  0  0  0  0  0  0  0  0  0  0  0
   -0.5197    3.7159   -2.6161 H   0  0  0  0  0  0  0  0  0  0  0  0
    0.8989    3.4244   -3.5007 H   0  0  0  0  0  0  0  0  0  0  0  0
  1  5  1  0
  5  6  1  0
  5  7  2  0
  1  2  1  0
  1  3  1  0
  1  4  1  0
  8 12  1  0
 12 15  1  0
  8  9  1  0
  8 10  1  0
  8 11  1  0
 12 13  1  0
 12 14  1  0
 15 16  1  0
 15 17  1  0
 15 18  1  0
M  CHG  1   6  -1
M  END
>  <PDB_ID>  (1069) 
pdb1wap

>  <RESIDUE_NAME>  (1069) 
GLU   GLU

>  <FRAG_NAME>  (1069) 
ACET   PRPA

>  <FRAG_ATOM_NUM>  (1069) 
fragi: 7  fragj: 11

>  <atom.prop.CHAIN_ID>  (1069) 
A A A A A A A Z Z Z Z Z Z Z Z Z Z Z

>  <atom.prop.IS_HEAVY_ATOM>  (1069) 
1 0 0 0 1 1 1 1 0 0 0 1 0 0 1 0 0 0

>  <DIFUSE_FUNC_ATOM>  (1069) 
atom 6   atom 7   

>  <FINAL_SINGLE_POINT_ENERGY>  (1069) 
0

>  <NONCOV_INTER_ENERGY_QM>  (1069) 
0

>  <FF_Energy>  (1069) 
20.18

>  <QM_Energy>  (1069) 
3.16

>  <source>  (1069) 
ACET_PRPA_10

>  <Index>  (1069) 
36419

$$$$
ACET-pdb3azc-A-ASP-134:PRPA-pdb3azc-A-LYS-138
     RDKit          3D

 18 16  0  0  0  0  0  0  0  0999 V2000
    0.0089    1.5292   -0.0117 C   0  0  0  0  0  0  0  0  0  0  0  0
   -0.2854    1.8387   -0.9063 H   0  0  0  0  0  0  0  0  0  0  0  0
    0.9286    1.8404    0.1842 H   0  0  0  0  0  0  0  0  0  0  0  0
   -0.6612    1.9594    0.7327 H   0  0  0  0  0  0  0  0  0  0  0  0
    0.0000    0.0000    0.0000 C   0  0  0  0  0  0  0  0  0  0  0  0
   -1.0931   -0.6047   -0.0000 O   0  0  0  0  0  1  0  0  0  0  0  0
    1.0931   -0.5998   -0.0000 O   0  0  0  0  0  0  0  0  0  0  0  0
    0.6201   -2.4971    3.1767 C   0  0  0  0  0  0  0  0  0  0  0  0
    0.6346   -3.3119    3.7398 H   0  0  0  0  0  0  0  0  0  0  0  0
   -0.4136   -2.2313    2.9556 H   0  0  0  0  0  0  0  0  0  0  0  0
    1.0441   -1.6686    3.7442 H   0  0  0  0  0  0  0  0  0  0  0  0
    1.4180   -2.6973    1.8879 C   0  0  0  0  0  0  0  0  0  0  0  0
    0.9904   -3.4278    1.3613 H   0  0  0  0  0  0  0  0  0  0  0  0
    1.3957   -1.8467    1.3667 H   0  0  0  0  0  0  0  0  0  0  0  0
    2.8914   -3.0768    2.1106 C   0  0  0  0  0  0  0  0  0  0  0  0
    3.2439   -2.5513    2.8836 H   0  0  0  0  0  0  0  0  0  0  0  0
    2.9439   -4.0520    2.3163 H   0  0  0  0  0  0  0  0  0  0  0  0
    3.4993   -2.8656    1.2309 H   0  0  0  0  0  0  0  0  0  0  0  0
  1  5  1  0
  5  6  1  0
  5  7  2  0
  1  2  1  0
  1  3  1  0
  1  4  1  0
  8 12  1  0
 12 15  1  0
  8  9  1  0
  8 10  1  0
  8 11  1  0
 12 13  1  0
 12 14  1  0
 15 16  1  0
 15 17  1  0
 15 18  1  0
M  CHG  1   6  -1
M  END
>  <PDB_ID>  (1070) 
pdb3azc

>  <RESIDUE_NAME>  (1070) 
ASP   LYS

>  <FRAG_NAME>  (1070) 
ACET   PRPA

>  <FRAG_ATOM_NUM>  (1070) 
fragi: 7  fragj: 11

>  <atom.prop.CHAIN_ID>  (1070) 
A A A A A A A Z Z Z Z Z Z Z Z Z Z Z

>  <atom.prop.IS_HEAVY_ATOM>  (1070) 
1 0 0 0 1 1 1 1 0 0 0 1 0 0 1 0 0 0

>  <DIFUSE_FUNC_ATOM>  (1070) 
atom 6   atom 7   

>  <FINAL_SINGLE_POINT_ENERGY>  (1070) 
0

>  <NONCOV_INTER_ENERGY_QM>  (1070) 
0

>  <FF_Energy>  (1070) 
18.54

>  <QM_Energy>  (1070) 
-1.06

>  <source>  (1070) 
ACET_PRPA_10

>  <Index>  (1070) 
36588

$$$$
ACET-pdb3azc-A-ASP-134:PRPA-pdb3azc-A-LYS-138
     RDKit          3D

 18 16  0  0  0  0  0  0  0  0999 V2000
    0.0089    1.5292   -0.0117 C   0  0  0  0  0  0  0  0  0  0  0  0
   -0.2854    1.8387   -0.9063 H   0  0  0  0  0  0  0  0  0  0  0  0
    0.9286    1.8404    0.1842 H   0  0  0  0  0  0  0  0  0  0  0  0
   -0.6612    1.9594    0.7327 H   0  0  0  0  0  0  0  0  0  0  0  0
    0.0000    0.0000    0.0000 C   0  0  0  0  0  0  0  0  0  0  0  0
   -1.0931   -0.6047   -0.0000 O   0  0  0  0  0  1  0  0  0  0  0  0
    1.0931   -0.5998   -0.0000 O   0  0  0  0  0  0  0  0  0  0  0  0
    1.4180   -2.6973    1.8879 C   0  0  0  0  0  0  0  0  0  0  0  0
    0.9904   -3.4278    1.3613 H   0  0  0  0  0  0  0  0  0  0  0  0
    1.3957   -1.8467    1.3667 H   0  0  0  0  0  0  0  0  0  0  0  0
    0.8492   -2.5546    2.8066 H   0  0  0  0  0  0  0  0  0  0  0  0
    2.8914   -3.0768    2.1106 C   0  0  0  0  0  0  0  0  0  0  0  0
    3.2439   -2.5513    2.8836 H   0  0  0  0  0  0  0  0  0  0  0  0
    2.9439   -4.0520    2.3163 H   0  0  0  0  0  0  0  0  0  0  0  0
    3.7418   -2.7814    0.8800 C   0  0  0  0  0  0  0  0  0  0  0  0
    3.7345   -1.7996    0.7135 H   0  0  0  0  0  0  0  0  0  0  0  0
    4.6713   -3.0956    1.0482 H   0  0  0  0  0  0  0  0  0  0  0  0
    3.3605   -3.2867   -0.0073 H   0  0  0  0  0  0  0  0  0  0  0  0
  1  5  1  0
  5  6  1  0
  5  7  2  0
  1  2  1  0
  1  3  1  0
  1  4  1  0
  8 12  1  0
 12 15  1  0
  8  9  1  0
  8 10  1  0
  8 11  1  0
 12 13  1  0
 12 14  1  0
 15 16  1  0
 15 17  1  0
 15 18  1  0
M  CHG  1   6  -1
M  END
>  <PDB_ID>  (1071) 
pdb3azc

>  <RESIDUE_NAME>  (1071) 
ASP   LYS

>  <FRAG_NAME>  (1071) 
ACET   PRPA

>  <FRAG_ATOM_NUM>  (1071) 
fragi: 7  fragj: 11

>  <atom.prop.CHAIN_ID>  (1071) 
A A A A A A A Z Z Z Z Z Z Z Z Z Z Z

>  <atom.prop.IS_HEAVY_ATOM>  (1071) 
1 0 0 0 1 1 1 1 0 0 0 1 0 0 1 0 0 0

>  <DIFUSE_FUNC_ATOM>  (1071) 
atom 6   atom 7   

>  <FINAL_SINGLE_POINT_ENERGY>  (1071) 
0

>  <NONCOV_INTER_ENERGY_QM>  (1071) 
0

>  <FF_Energy>  (1071) 
16.46

>  <QM_Energy>  (1071) 
-0.59

>  <source>  (1071) 
ACET_PRPA_10

>  <Index>  (1071) 
36593

$$$$
ACET-pdb1wrv-A-GLU-43:PRPA-pdb1wrv-A-ARG-92
     RDKit          3D

 18 16  0  0  0  0  0  0  0  0999 V2000
    0.0262    1.5239    0.0046 C   0  0  0  0  0  0  0  0  0  0  0  0
    0.9687    1.8039   -0.0573 H   0  0  0  0  0  0  0  0  0  0  0  0
   -0.3912    1.8240    0.8453 H   0  0  0  0  0  0  0  0  0  0  0  0
   -0.5174    1.9740   -0.8261 H   0  0  0  0  0  0  0  0  0  0  0  0
    0.0000    0.0000    0.0000 C   0  0  0  0  0  0  0  0  0  0  0  0
   -1.0935   -0.6043    0.0000 O   0  0  0  0  0  1  0  0  0  0  0  0
    1.0935   -0.6041    0.0000 O   0  0  0  0  0  0  0  0  0  0  0  0
   -0.8813   -1.5514   -4.6007 C   0  0  0  0  0  0  0  0  0  0  0  0
   -1.5248   -2.1189   -4.1141 H   0  0  0  0  0  0  0  0  0  0  0  0
   -0.5228   -2.0839   -5.4817 H   0  0  0  0  0  0  0  0  0  0  0  0
   -1.4068   -0.6742   -4.9782 H   0  0  0  0  0  0  0  0  0  0  0  0
    0.2514   -1.1460   -3.6411 C   0  0  0  0  0  0  0  0  0  0  0  0
    1.1275   -1.3614   -4.0949 H   0  0  0  0  0  0  0  0  0  0  0  0
    0.2035   -0.1457   -3.5188 H   0  0  0  0  0  0  0  0  0  0  0  0
    0.2616   -1.7861   -2.2708 C   0  0  0  0  0  0  0  0  0  0  0  0
    0.9540   -1.3444   -1.7007 H   0  0  0  0  0  0  0  0  0  0  0  0
   -0.6371   -1.6795   -1.8449 H   0  0  0  0  0  0  0  0  0  0  0  0
    0.4891   -2.8511   -2.3187 H   0  0  0  0  0  0  0  0  0  0  0  0
  1  5  1  0
  5  6  1  0
  5  7  2  0
  1  2  1  0
  1  3  1  0
  1  4  1  0
  8 12  1  0
 12 15  1  0
  8  9  1  0
  8 10  1  0
  8 11  1  0
 12 13  1  0
 12 14  1  0
 15 16  1  0
 15 17  1  0
 15 18  1  0
M  CHG  1   6  -1
M  END
>  <PDB_ID>  (1072) 
pdb1wrv

>  <RESIDUE_NAME>  (1072) 
GLU   ARG

>  <FRAG_NAME>  (1072) 
ACET   PRPA

>  <FRAG_ATOM_NUM>  (1072) 
fragi: 7  fragj: 11

>  <atom.prop.CHAIN_ID>  (1072) 
A A A A A A A Z Z Z Z Z Z Z Z Z Z Z

>  <atom.prop.IS_HEAVY_ATOM>  (1072) 
1 0 0 0 1 1 1 1 0 0 0 1 0 0 1 0 0 0

>  <DIFUSE_FUNC_ATOM>  (1072) 
atom 6   atom 7   

>  <FINAL_SINGLE_POINT_ENERGY>  (1072) 
0

>  <NONCOV_INTER_ENERGY_QM>  (1072) 
0

>  <FF_Energy>  (1072) 
27.78

>  <QM_Energy>  (1072) 
3.33

>  <source>  (1072) 
ACET_PRPA_10

>  <Index>  (1072) 
36621

$$$$
ACET-pdb1wrv-A-GLU-43:PRPA-pdb1wrv-A-ARG-92
     RDKit          3D

 18 16  0  0  0  0  0  0  0  0999 V2000
    0.0262    1.5239    0.0046 C   0  0  0  0  0  0  0  0  0  0  0  0
    0.9687    1.8039   -0.0573 H   0  0  0  0  0  0  0  0  0  0  0  0
   -0.3912    1.8240    0.8453 H   0  0  0  0  0  0  0  0  0  0  0  0
   -0.5174    1.9740   -0.8261 H   0  0  0  0  0  0  0  0  0  0  0  0
    0.0000    0.0000    0.0000 C   0  0  0  0  0  0  0  0  0  0  0  0
   -1.0935   -0.6043    0.0000 O   0  0  0  0  0  1  0  0  0  0  0  0
    1.0935   -0.6041    0.0000 O   0  0  0  0  0  0  0  0  0  0  0  0
    0.2514   -1.1460   -3.6411 C   0  0  0  0  0  0  0  0  0  0  0  0
    1.1275   -1.3614   -4.0949 H   0  0  0  0  0  0  0  0  0  0  0  0
    0.2035   -0.1457   -3.5188 H   0  0  0  0  0  0  0  0  0  0  0  0
   -0.5509   -1.4332   -4.3208 H   0  0  0  0  0  0  0  0  0  0  0  0
    0.2616   -1.7861   -2.2708 C   0  0  0  0  0  0  0  0  0  0  0  0
    0.9540   -1.3444   -1.7007 H   0  0  0  0  0  0  0  0  0  0  0  0
   -0.6371   -1.6795   -1.8449 H   0  0  0  0  0  0  0  0  0  0  0  0
    0.5776   -3.2651   -2.3372 C   0  0  0  0  0  0  0  0  0  0  0  0
    1.2856   -3.4018   -3.0212 H   0  0  0  0  0  0  0  0  0  0  0  0
    0.8974   -3.5550   -1.4418 H   0  0  0  0  0  0  0  0  0  0  0  0
   -0.3052   -3.8429   -2.6110 H   0  0  0  0  0  0  0  0  0  0  0  0
  1  5  1  0
  5  6  1  0
  5  7  2  0
  1  2  1  0
  1  3  1  0
  1  4  1  0
  8 12  1  0
 12 15  1  0
  8  9  1  0
  8 10  1  0
  8 11  1  0
 12 13  1  0
 12 14  1  0
 15 16  1  0
 15 17  1  0
 15 18  1  0
M  CHG  1   6  -1
M  END
>  <PDB_ID>  (1073) 
pdb1wrv

>  <RESIDUE_NAME>  (1073) 
GLU   ARG

>  <FRAG_NAME>  (1073) 
ACET   PRPA

>  <FRAG_ATOM_NUM>  (1073) 
fragi: 7  fragj: 11

>  <atom.prop.CHAIN_ID>  (1073) 
A A A A A A A Z Z Z Z Z Z Z Z Z Z Z

>  <atom.prop.IS_HEAVY_ATOM>  (1073) 
1 0 0 0 1 1 1 1 0 0 0 1 0 0 1 0 0 0

>  <DIFUSE_FUNC_ATOM>  (1073) 
atom 6   atom 7   

>  <FINAL_SINGLE_POINT_ENERGY>  (1073) 
0

>  <NONCOV_INTER_ENERGY_QM>  (1073) 
0

>  <FF_Energy>  (1073) 
29.88

>  <QM_Energy>  (1073) 
2.51

>  <source>  (1073) 
ACET_PRPA_10

>  <Index>  (1073) 
36634

$$$$
ACET-pdb1wap-N-GLU-42:PRPA-pdb1wap-Z-ARG-58
     RDKit          3D

 18 16  0  0  0  0  0  0  0  0999 V2000
    0.1843    1.5051    0.0479 C   0  0  0  0  0  0  0  0  0  0  0  0
    1.0687    1.7070   -0.3453 H   0  0  0  0  0  0  0  0  0  0  0  0
    0.1431    1.7776    0.9973 H   0  0  0  0  0  0  0  0  0  0  0  0
   -0.5727    2.0623   -0.5039 H   0  0  0  0  0  0  0  0  0  0  0  0
    0.0000    0.0000    0.0000 C   0  0  0  0  0  0  0  0  0  0  0  0
   -1.0833   -0.6268   -0.0000 O   0  0  0  0  0  1  0  0  0  0  0  0
    1.0833   -0.6384    0.0000 O   0  0  0  0  0  0  0  0  0  0  0  0
    3.6971    1.9761   -2.8190 C   0  0  0  0  0  0  0  0  0  0  0  0
    3.0404    2.4929   -2.3100 H   0  0  0  0  0  0  0  0  0  0  0  0
    3.4493    2.0530   -3.8777 H   0  0  0  0  0  0  0  0  0  0  0  0
    4.6756    2.4484   -2.7323 H   0  0  0  0  0  0  0  0  0  0  0  0
    3.7476    0.5119   -2.4916 C   0  0  0  0  0  0  0  0  0  0  0  0
    3.2634    0.0010   -3.2345 H   0  0  0  0  0  0  0  0  0  0  0  0
    4.7237    0.2077   -2.5373 H   0  0  0  0  0  0  0  0  0  0  0  0
    3.1884    0.0226   -1.1747 C   0  0  0  0  0  0  0  0  0  0  0  0
    3.4355    0.6417   -0.4556 H   0  0  0  0  0  0  0  0  0  0  0  0
    2.2183   -0.1024   -1.2502 H   0  0  0  0  0  0  0  0  0  0  0  0
    3.6439   -0.9459   -0.9681 H   0  0  0  0  0  0  0  0  0  0  0  0
  1  5  1  0
  5  6  1  0
  5  7  2  0
  1  2  1  0
  1  3  1  0
  1  4  1  0
  8 12  1  0
 12 15  1  0
  8  9  1  0
  8 10  1  0
  8 11  1  0
 12 13  1  0
 12 14  1  0
 15 16  1  0
 15 17  1  0
 15 18  1  0
M  CHG  1   6  -1
M  END
>  <PDB_ID>  (1074) 
pdb1wap

>  <RESIDUE_NAME>  (1074) 
GLU   ARG

>  <FRAG_NAME>  (1074) 
ACET   PRPA

>  <FRAG_ATOM_NUM>  (1074) 
fragi: 7  fragj: 11

>  <atom.prop.CHAIN_ID>  (1074) 
A A A A A A A Z Z Z Z Z Z Z Z Z Z Z

>  <atom.prop.IS_HEAVY_ATOM>  (1074) 
1 0 0 0 1 1 1 1 0 0 0 1 0 0 1 0 0 0

>  <DIFUSE_FUNC_ATOM>  (1074) 
atom 6   atom 7   

>  <FINAL_SINGLE_POINT_ENERGY>  (1074) 
0

>  <NONCOV_INTER_ENERGY_QM>  (1074) 
0

>  <FF_Energy>  (1074) 
42.27

>  <QM_Energy>  (1074) 
7.84

>  <source>  (1074) 
ACET_PRPA_10

>  <Index>  (1074) 
36731

$$$$
ACET-pdb1wap-N-GLU-42:PRPA-pdb1wap-Z-ARG-58
     RDKit          3D

 18 16  0  0  0  0  0  0  0  0999 V2000
    0.1843    1.5051    0.0479 C   0  0  0  0  0  0  0  0  0  0  0  0
    1.0687    1.7070   -0.3453 H   0  0  0  0  0  0  0  0  0  0  0  0
    0.1431    1.7776    0.9973 H   0  0  0  0  0  0  0  0  0  0  0  0
   -0.5727    2.0623   -0.5039 H   0  0  0  0  0  0  0  0  0  0  0  0
    0.0000    0.0000    0.0000 C   0  0  0  0  0  0  0  0  0  0  0  0
   -1.0833   -0.6268   -0.0000 O   0  0  0  0  0  1  0  0  0  0  0  0
    1.0833   -0.6384    0.0000 O   0  0  0  0  0  0  0  0  0  0  0  0
    3.7476    0.5119   -2.4916 C   0  0  0  0  0  0  0  0  0  0  0  0
    3.2634    0.0010   -3.2345 H   0  0  0  0  0  0  0  0  0  0  0  0
    4.7237    0.2077   -2.5373 H   0  0  0  0  0  0  0  0  0  0  0  0
    3.7109    1.5750   -2.7293 H   0  0  0  0  0  0  0  0  0  0  0  0
    3.1884    0.0226   -1.1747 C   0  0  0  0  0  0  0  0  0  0  0  0
    3.4355    0.6417   -0.4556 H   0  0  0  0  0  0  0  0  0  0  0  0
    2.2183   -0.1024   -1.2502 H   0  0  0  0  0  0  0  0  0  0  0  0
    3.8223   -1.3252   -0.8871 C   0  0  0  0  0  0  0  0  0  0  0  0
    4.8386   -1.2213   -1.0263 H   0  0  0  0  0  0  0  0  0  0  0  0
    3.7122   -1.5051    0.1221 H   0  0  0  0  0  0  0  0  0  0  0  0
    3.4871   -2.2068   -1.4335 H   0  0  0  0  0  0  0  0  0  0  0  0
  1  5  1  0
  5  6  1  0
  5  7  2  0
  1  2  1  0
  1  3  1  0
  1  4  1  0
  8 12  1  0
 12 15  1  0
  8  9  1  0
  8 10  1  0
  8 11  1  0
 12 13  1  0
 12 14  1  0
 15 16  1  0
 15 17  1  0
 15 18  1  0
M  CHG  1   6  -1
M  END
>  <PDB_ID>  (1075) 
pdb1wap

>  <RESIDUE_NAME>  (1075) 
GLU   ARG

>  <FRAG_NAME>  (1075) 
ACET   PRPA

>  <FRAG_ATOM_NUM>  (1075) 
fragi: 7  fragj: 11

>  <atom.prop.CHAIN_ID>  (1075) 
A A A A A A A Z Z Z Z Z Z Z Z Z Z Z

>  <atom.prop.IS_HEAVY_ATOM>  (1075) 
1 0 0 0 1 1 1 1 0 0 0 1 0 0 1 0 0 0

>  <DIFUSE_FUNC_ATOM>  (1075) 
atom 6   atom 7   

>  <FINAL_SINGLE_POINT_ENERGY>  (1075) 
0

>  <NONCOV_INTER_ENERGY_QM>  (1075) 
0

>  <FF_Energy>  (1075) 
47.74

>  <QM_Energy>  (1075) 
6.17

>  <source>  (1075) 
ACET_PRPA_10

>  <Index>  (1075) 
36740

$$$$
ACET-pdb1wap-Z-GLU-16:PRPA-pdb1wap-Z-GLU-60
     RDKit          3D

 18 16  0  0  0  0  0  0  0  0999 V2000
    0.1234    1.4917    0.0387 C   0  0  0  0  0  0  0  0  0  0  0  0
    0.9242    1.7414   -0.5407 H   0  0  0  0  0  0  0  0  0  0  0  0
    0.3693    1.7472    0.9943 H   0  0  0  0  0  0  0  0  0  0  0  0
   -0.7105    2.1242   -0.2658 H   0  0  0  0  0  0  0  0  0  0  0  0
    0.0000    0.0000    0.0000 C   0  0  0  0  0  0  0  0  0  0  0  0
   -1.0780   -0.6309   -0.0000 O   0  0  0  0  0  1  0  0  0  0  0  0
    1.0780   -0.6737   -0.0000 O   0  0  0  0  0  0  0  0  0  0  0  0
    2.7516    5.8129   -0.7389 C   0  0  0  0  0  0  0  0  0  0  0  0
    3.6501    6.1413   -0.4674 H   0  0  0  0  0  0  0  0  0  0  0  0
    1.9839    6.5221   -0.4294 H   0  0  0  0  0  0  0  0  0  0  0  0
    2.7129    5.7231   -1.8245 H   0  0  0  0  0  0  0  0  0  0  0  0
    2.5055    4.4360   -0.1107 C   0  0  0  0  0  0  0  0  0  0  0  0
    3.1145    4.3521    0.6669 H   0  0  0  0  0  0  0  0  0  0  0  0
    1.5577    4.4057    0.1766 H   0  0  0  0  0  0  0  0  0  0  0  0
    2.7511    3.2491   -1.0177 C   0  0  0  0  0  0  0  0  0  0  0  0
    2.2850    2.4513   -0.6147 H   0  0  0  0  0  0  0  0  0  0  0  0
    2.3215    3.4459   -1.9082 H   0  0  0  0  0  0  0  0  0  0  0  0
    3.7811    2.9532   -1.2167 H   0  0  0  0  0  0  0  0  0  0  0  0
  1  5  1  0
  5  6  1  0
  5  7  2  0
  1  2  1  0
  1  3  1  0
  1  4  1  0
  8 12  1  0
 12 15  1  0
  8  9  1  0
  8 10  1  0
  8 11  1  0
 12 13  1  0
 12 14  1  0
 15 16  1  0
 15 17  1  0
 15 18  1  0
M  CHG  1   6  -1
M  END
>  <PDB_ID>  (1076) 
pdb1wap

>  <RESIDUE_NAME>  (1076) 
GLU   GLU

>  <FRAG_NAME>  (1076) 
ACET   PRPA

>  <FRAG_ATOM_NUM>  (1076) 
fragi: 7  fragj: 11

>  <atom.prop.CHAIN_ID>  (1076) 
A A A A A A A Z Z Z Z Z Z Z Z Z Z Z

>  <atom.prop.IS_HEAVY_ATOM>  (1076) 
1 0 0 0 1 1 1 1 0 0 0 1 0 0 1 0 0 0

>  <DIFUSE_FUNC_ATOM>  (1076) 
atom 6   atom 7   

>  <FINAL_SINGLE_POINT_ENERGY>  (1076) 
0

>  <NONCOV_INTER_ENERGY_QM>  (1076) 
0

>  <FF_Energy>  (1076) 
20.03

>  <QM_Energy>  (1076) 
2.64

>  <source>  (1076) 
ACET_PRPA_10

>  <Index>  (1076) 
36748

$$$$
ACET-pdb1wog-A-ASP-39:PRPA-pdb1wog-A-ARG-49
     RDKit          3D

 18 16  0  0  0  0  0  0  0  0999 V2000
    0.0296    1.5284   -0.0180 C   0  0  0  0  0  0  0  0  0  0  0  0
    0.3535    1.8279   -0.9092 H   0  0  0  0  0  0  0  0  0  0  0  0
    0.6436    1.8421    0.6981 H   0  0  0  0  0  0  0  0  0  0  0  0
   -0.9458    1.9835    0.1539 H   0  0  0  0  0  0  0  0  0  0  0  0
    0.0000    0.0000    0.0000 C   0  0  0  0  0  0  0  0  0  0  0  0
   -1.0993   -0.5977   -0.0000 O   0  0  0  0  0  1  0  0  0  0  0  0
    1.0993   -0.6127    0.0000 O   0  0  0  0  0  0  0  0  0  0  0  0
    1.2118   -0.9991    3.2631 C   0  0  0  0  0  0  0  0  0  0  0  0
    0.9221   -1.2933    4.1691 H   0  0  0  0  0  0  0  0  0  0  0  0
    0.4369   -0.6320    2.7579 H   0  0  0  0  0  0  0  0  0  0  0  0
    1.9457   -0.2024    3.3843 H   0  0  0  0  0  0  0  0  0  0  0  0
    1.7353   -2.2084    2.5154 C   0  0  0  0  0  0  0  0  0  0  0  0
    2.5288   -1.9576    1.9830 H   0  0  0  0  0  0  0  0  0  0  0  0
    1.9419   -2.9339    3.1532 H   0  0  0  0  0  0  0  0  0  0  0  0
    0.6609   -2.7165    1.5548 C   0  0  0  0  0  0  0  0  0  0  0  0
    0.1327   -1.9260    1.2447 H   0  0  0  0  0  0  0  0  0  0  0  0
    1.1264   -3.1334    0.7737 H   0  0  0  0  0  0  0  0  0  0  0  0
   -0.0072   -3.4454    2.0137 H   0  0  0  0  0  0  0  0  0  0  0  0
  1  5  1  0
  5  6  1  0
  5  7  2  0
  1  2  1  0
  1  3  1  0
  1  4  1  0
  8 12  1  0
 12 15  1  0
  8  9  1  0
  8 10  1  0
  8 11  1  0
 12 13  1  0
 12 14  1  0
 15 16  1  0
 15 17  1  0
 15 18  1  0
M  CHG  1   6  -1
M  END
>  <PDB_ID>  (1077) 
pdb1wog

>  <RESIDUE_NAME>  (1077) 
ASP   ARG

>  <FRAG_NAME>  (1077) 
ACET   PRPA

>  <FRAG_ATOM_NUM>  (1077) 
fragi: 7  fragj: 11

>  <atom.prop.CHAIN_ID>  (1077) 
A A A A A A A Z Z Z Z Z Z Z Z Z Z Z

>  <atom.prop.IS_HEAVY_ATOM>  (1077) 
1 0 0 0 1 1 1 1 0 0 0 1 0 0 1 0 0 0

>  <DIFUSE_FUNC_ATOM>  (1077) 
atom 6   atom 7   

>  <FINAL_SINGLE_POINT_ENERGY>  (1077) 
0

>  <NONCOV_INTER_ENERGY_QM>  (1077) 
0

>  <FF_Energy>  (1077) 
15.47

>  <QM_Energy>  (1077) 
-0.54

>  <source>  (1077) 
ACET_PRPA_10

>  <Index>  (1077) 
37261

$$$$
ACET-pdb1wuu-A-GLU-11:PRPA-pdb1wuu-A-GLN-8
     RDKit          3D

 18 16  0  0  0  0  0  0  0  0999 V2000
    0.2256    1.4969   -0.0339 C   0  0  0  0  0  0  0  0  0  0  0  0
    1.1369    1.6750    0.2842 H   0  0  0  0  0  0  0  0  0  0  0  0
   -0.4590    1.9204    0.5283 H   0  0  0  0  0  0  0  0  0  0  0  0
    0.1383    1.9183   -1.0353 H   0  0  0  0  0  0  0  0  0  0  0  0
    0.0000    0.0000    0.0000 C   0  0  0  0  0  0  0  0  0  0  0  0
   -1.1194   -0.5034   -0.0000 O   0  0  0  0  0  1  0  0  0  0  0  0
    1.1194   -0.7069   -0.0000 O   0  0  0  0  0  0  0  0  0  0  0  0
   -3.9911    0.8096   -1.2334 C   0  0  0  0  0  0  0  0  0  0  0  0
   -5.0053    0.8342   -1.1790 H   0  0  0  0  0  0  0  0  0  0  0  0
   -3.6838   -0.1775   -1.5787 H   0  0  0  0  0  0  0  0  0  0  0  0
   -3.6855    1.5998   -1.9192 H   0  0  0  0  0  0  0  0  0  0  0  0
   -3.4329    1.0959    0.1808 C   0  0  0  0  0  0  0  0  0  0  0  0
   -2.5334    0.6769    0.2594 H   0  0  0  0  0  0  0  0  0  0  0  0
   -3.3620    2.0833    0.3021 H   0  0  0  0  0  0  0  0  0  0  0  0
   -4.3150    0.5415    1.3179 C   0  0  0  0  0  0  0  0  0  0  0  0
   -4.0032   -0.3882    1.5298 H   0  0  0  0  0  0  0  0  0  0  0  0
   -4.1833    1.1221    2.1259 H   0  0  0  0  0  0  0  0  0  0  0  0
   -5.3783    0.5078    1.0802 H   0  0  0  0  0  0  0  0  0  0  0  0
  1  5  1  0
  5  6  1  0
  5  7  2  0
  1  2  1  0
  1  3  1  0
  1  4  1  0
  8 12  1  0
 12 15  1  0
  8  9  1  0
  8 10  1  0
  8 11  1  0
 12 13  1  0
 12 14  1  0
 15 16  1  0
 15 17  1  0
 15 18  1  0
M  CHG  1   6  -1
M  END
>  <PDB_ID>  (1078) 
pdb1wuu

>  <RESIDUE_NAME>  (1078) 
GLU   GLN

>  <FRAG_NAME>  (1078) 
ACET   PRPA

>  <FRAG_ATOM_NUM>  (1078) 
fragi: 7  fragj: 11

>  <atom.prop.CHAIN_ID>  (1078) 
A A A A A A A Z Z Z Z Z Z Z Z Z Z Z

>  <atom.prop.IS_HEAVY_ATOM>  (1078) 
1 0 0 0 1 1 1 1 0 0 0 1 0 0 1 0 0 0

>  <DIFUSE_FUNC_ATOM>  (1078) 
atom 6   atom 7   

>  <FINAL_SINGLE_POINT_ENERGY>  (1078) 
0

>  <NONCOV_INTER_ENERGY_QM>  (1078) 
0

>  <FF_Energy>  (1078) 
21.55

>  <QM_Energy>  (1078) 
-1.07

>  <source>  (1078) 
ACET_PRPA_10

>  <Index>  (1078) 
37265

$$$$
ACET-pdb3a9r-B-GLU-433:PRPA-pdb3a9r-B-LYS-429
     RDKit          3D

 18 16  0  0  0  0  0  0  0  0999 V2000
   -0.0118    1.5197   -0.0065 C   0  0  0  0  0  0  0  0  0  0  0  0
   -0.6304    1.8146    0.7007 H   0  0  0  0  0  0  0  0  0  0  0  0
   -0.3074    1.8094   -0.8996 H   0  0  0  0  0  0  0  0  0  0  0  0
    0.9663    1.9587    0.1906 H   0  0  0  0  0  0  0  0  0  0  0  0
    0.0000    0.0000    0.0000 C   0  0  0  0  0  0  0  0  0  0  0  0
   -1.0976   -0.5947    0.0000 O   0  0  0  0  0  1  0  0  0  0  0  0
    1.0976   -0.5987   -0.0000 O   0  0  0  0  0  0  0  0  0  0  0  0
   -1.7789   -0.0140   -3.6113 C   0  0  0  0  0  0  0  0  0  0  0  0
   -1.7766    0.8326   -3.0686 H   0  0  0  0  0  0  0  0  0  0  0  0
   -2.7319   -0.2628   -3.8120 H   0  0  0  0  0  0  0  0  0  0  0  0
   -1.2544    0.1656   -4.5497 H   0  0  0  0  0  0  0  0  0  0  0  0
   -1.1445   -1.1215   -2.7934 C   0  0  0  0  0  0  0  0  0  0  0  0
   -0.1509   -1.0523   -2.8710 H   0  0  0  0  0  0  0  0  0  0  0  0
   -1.4167   -1.0162   -1.8384 H   0  0  0  0  0  0  0  0  0  0  0  0
   -1.5713   -2.4976   -3.2677 C   0  0  0  0  0  0  0  0  0  0  0  0
   -2.5636   -2.5124   -3.3780 H   0  0  0  0  0  0  0  0  0  0  0  0
   -1.1338   -2.6922   -4.1455 H   0  0  0  0  0  0  0  0  0  0  0  0
   -1.2807   -3.2620   -2.5471 H   0  0  0  0  0  0  0  0  0  0  0  0
  1  5  1  0
  5  6  1  0
  5  7  2  0
  1  2  1  0
  1  3  1  0
  1  4  1  0
  8 12  1  0
 12 15  1  0
  8  9  1  0
  8 10  1  0
  8 11  1  0
 12 13  1  0
 12 14  1  0
 15 16  1  0
 15 17  1  0
 15 18  1  0
M  CHG  1   6  -1
M  END
>  <PDB_ID>  (1079) 
pdb3a9r

>  <RESIDUE_NAME>  (1079) 
GLU   LYS

>  <FRAG_NAME>  (1079) 
ACET   PRPA

>  <FRAG_ATOM_NUM>  (1079) 
fragi: 7  fragj: 11

>  <atom.prop.CHAIN_ID>  (1079) 
A A A A A A A Z Z Z Z Z Z Z Z Z Z Z

>  <atom.prop.IS_HEAVY_ATOM>  (1079) 
1 0 0 0 1 1 1 1 0 0 0 1 0 0 1 0 0 0

>  <DIFUSE_FUNC_ATOM>  (1079) 
atom 6   atom 7   

>  <FINAL_SINGLE_POINT_ENERGY>  (1079) 
0

>  <NONCOV_INTER_ENERGY_QM>  (1079) 
0

>  <FF_Energy>  (1079) 
14.98

>  <QM_Energy>  (1079) 
-1.32

>  <source>  (1079) 
ACET_PRPA_10

>  <Index>  (1079) 
37780

$$$$
ACET-pdb3afg-B-ASP-307:PRPA-pdb3afg-B-ARG-409
     RDKit          3D

 18 16  0  0  0  0  0  0  0  0999 V2000
   -0.0066    1.5284    0.0685 C   0  0  0  0  0  0  0  0  0  0  0  0
    0.8018    1.8690   -0.3904 H   0  0  0  0  0  0  0  0  0  0  0  0
   -0.0184    1.8036    1.0190 H   0  0  0  0  0  0  0  0  0  0  0  0
   -0.8782    1.9658   -0.4183 H   0  0  0  0  0  0  0  0  0  0  0  0
    0.0000    0.0000    0.0000 C   0  0  0  0  0  0  0  0  0  0  0  0
   -1.0954   -0.6018   -0.0000 O   0  0  0  0  0  1  0  0  0  0  0  0
    1.0954   -0.6127    0.0000 O   0  0  0  0  0  0  0  0  0  0  0  0
   -1.9479   -1.8048    3.9619 C   0  0  0  0  0  0  0  0  0  0  0  0
   -1.8343   -0.8178    4.0711 H   0  0  0  0  0  0  0  0  0  0  0  0
   -1.0494   -2.2376    3.8877 H   0  0  0  0  0  0  0  0  0  0  0  0
   -2.4383   -2.1911    4.8555 H   0  0  0  0  0  0  0  0  0  0  0  0
   -2.6955   -2.0505    2.6628 C   0  0  0  0  0  0  0  0  0  0  0  0
   -3.3097   -2.8223    2.7720 H   0  0  0  0  0  0  0  0  0  0  0  0
   -3.1992   -1.2345    2.4086 H   0  0  0  0  0  0  0  0  0  0  0  0
   -1.7200   -2.3737    1.5410 C   0  0  0  0  0  0  0  0  0  0  0  0
   -2.2387   -2.5286    0.7256 H   0  0  0  0  0  0  0  0  0  0  0  0
   -1.0941   -1.6251    1.4617 H   0  0  0  0  0  0  0  0  0  0  0  0
   -1.1929   -3.2812    1.8356 H   0  0  0  0  0  0  0  0  0  0  0  0
  1  5  1  0
  5  6  1  0
  5  7  2  0
  1  2  1  0
  1  3  1  0
  1  4  1  0
  8 12  1  0
 12 15  1  0
  8  9  1  0
  8 10  1  0
  8 11  1  0
 12 13  1  0
 12 14  1  0
 15 16  1  0
 15 17  1  0
 15 18  1  0
M  CHG  1   6  -1
M  END
>  <PDB_ID>  (1080) 
pdb3afg

>  <RESIDUE_NAME>  (1080) 
ASP   ARG

>  <FRAG_NAME>  (1080) 
ACET   PRPA

>  <FRAG_ATOM_NUM>  (1080) 
fragi: 7  fragj: 11

>  <atom.prop.CHAIN_ID>  (1080) 
A A A A A A A Z Z Z Z Z Z Z Z Z Z Z

>  <atom.prop.IS_HEAVY_ATOM>  (1080) 
1 0 0 0 1 1 1 1 0 0 0 1 0 0 1 0 0 0

>  <DIFUSE_FUNC_ATOM>  (1080) 
atom 6   atom 7   

>  <FINAL_SINGLE_POINT_ENERGY>  (1080) 
0

>  <NONCOV_INTER_ENERGY_QM>  (1080) 
0

>  <FF_Energy>  (1080) 
45.6

>  <QM_Energy>  (1080) 
8.67

>  <source>  (1080) 
ACET_PRPA_10

>  <Index>  (1080) 
37854

$$$$
ACET-pdb3a4y-C-GLU-230:PRPA-pdb3a4y-C-LYS-168
     RDKit          3D

 18 16  0  0  0  0  0  0  0  0999 V2000
   -0.0068    1.5062   -0.0030 C   0  0  0  0  0  0  0  0  0  0  0  0
   -0.4735    1.8041    0.8094 H   0  0  0  0  0  0  0  0  0  0  0  0
   -0.4626    1.8003   -0.8231 H   0  0  0  0  0  0  0  0  0  0  0  0
    0.9996    1.9251    0.0038 H   0  0  0  0  0  0  0  0  0  0  0  0
    0.0000    0.0000    0.0000 C   0  0  0  0  0  0  0  0  0  0  0  0
   -1.0982   -0.5853   -0.0000 O   0  0  0  0  0  1  0  0  0  0  0  0
    1.0982   -0.5956    0.0000 O   0  0  0  0  0  0  0  0  0  0  0  0
   -2.9855   -4.3192   -1.2683 C   0  0  0  0  0  0  0  0  0  0  0  0
   -3.4804   -4.1121   -0.4196 H   0  0  0  0  0  0  0  0  0  0  0  0
   -3.2817   -5.2157   -1.6060 H   0  0  0  0  0  0  0  0  0  0  0  0
   -3.2363   -3.5637   -2.0127 H   0  0  0  0  0  0  0  0  0  0  0  0
   -1.4943   -4.3723   -0.9688 C   0  0  0  0  0  0  0  0  0  0  0  0
   -1.2943   -5.2219   -0.4924 H   0  0  0  0  0  0  0  0  0  0  0  0
   -0.9945   -4.3279   -1.8262 H   0  0  0  0  0  0  0  0  0  0  0  0
   -1.0749   -3.2118   -0.0970 C   0  0  0  0  0  0  0  0  0  0  0  0
   -1.3646   -2.3515   -0.5351 H   0  0  0  0  0  0  0  0  0  0  0  0
   -1.5428   -3.2837    0.7928 H   0  0  0  0  0  0  0  0  0  0  0  0
    0.0022   -3.1822    0.0684 H   0  0  0  0  0  0  0  0  0  0  0  0
  1  5  1  0
  5  6  1  0
  5  7  2  0
  1  2  1  0
  1  3  1  0
  1  4  1  0
  8 12  1  0
 12 15  1  0
  8  9  1  0
  8 10  1  0
  8 11  1  0
 12 13  1  0
 12 14  1  0
 15 16  1  0
 15 17  1  0
 15 18  1  0
M  CHG  1   6  -1
M  END
>  <PDB_ID>  (1081) 
pdb3a4y

>  <RESIDUE_NAME>  (1081) 
GLU   LYS

>  <FRAG_NAME>  (1081) 
ACET   PRPA

>  <FRAG_ATOM_NUM>  (1081) 
fragi: 7  fragj: 11

>  <atom.prop.CHAIN_ID>  (1081) 
A A A A A A A Z Z Z Z Z Z Z Z Z Z Z

>  <atom.prop.IS_HEAVY_ATOM>  (1081) 
1 0 0 0 1 1 1 1 0 0 0 1 0 0 1 0 0 0

>  <DIFUSE_FUNC_ATOM>  (1081) 
atom 6   atom 7   

>  <FINAL_SINGLE_POINT_ENERGY>  (1081) 
0

>  <NONCOV_INTER_ENERGY_QM>  (1081) 
0

>  <FF_Energy>  (1081) 
26.64

>  <QM_Energy>  (1081) 
4.02

>  <source>  (1081) 
ACET_PRPA_10

>  <Index>  (1081) 
39399

$$$$
ACET-pdb1wog-B-ASP-39:PRPA-pdb1wog-B-ARG-49
     RDKit          3D

 18 16  0  0  0  0  0  0  0  0999 V2000
    0.0310    1.5237   -0.0041 C   0  0  0  0  0  0  0  0  0  0  0  0
    0.4052    1.8327   -0.8723 H   0  0  0  0  0  0  0  0  0  0  0  0
    0.6017    1.8335    0.7483 H   0  0  0  0  0  0  0  0  0  0  0  0
   -0.9539    1.9752    0.1147 H   0  0  0  0  0  0  0  0  0  0  0  0
    0.0000    0.0000    0.0000 C   0  0  0  0  0  0  0  0  0  0  0  0
   -1.0986   -0.5991   -0.0000 O   0  0  0  0  0  1  0  0  0  0  0  0
    1.0986   -0.6043   -0.0000 O   0  0  0  0  0  0  0  0  0  0  0  0
    1.0822   -1.0528    3.2589 C   0  0  0  0  0  0  0  0  0  0  0  0
    0.6769   -1.3253    4.1250 H   0  0  0  0  0  0  0  0  0  0  0  0
    0.3795   -0.7258    2.6367 H   0  0  0  0  0  0  0  0  0  0  0  0
    1.7742   -0.2329    3.4513 H   0  0  0  0  0  0  0  0  0  0  0  0
    1.7379   -2.2706    2.6368 C   0  0  0  0  0  0  0  0  0  0  0  0
    2.6045   -2.0104    2.2311 H   0  0  0  0  0  0  0  0  0  0  0  0
    1.8667   -2.9683    3.3292 H   0  0  0  0  0  0  0  0  0  0  0  0
    0.8504   -2.8343    1.5499 C   0  0  0  0  0  0  0  0  0  0  0  0
    0.4270   -2.0669    1.0650 H   0  0  0  0  0  0  0  0  0  0  0  0
    1.4287   -3.3487    0.9129 H   0  0  0  0  0  0  0  0  0  0  0  0
    0.0705   -3.4899    1.9373 H   0  0  0  0  0  0  0  0  0  0  0  0
  1  5  1  0
  5  6  1  0
  5  7  2  0
  1  2  1  0
  1  3  1  0
  1  4  1  0
  8 12  1  0
 12 15  1  0
  8  9  1  0
  8 10  1  0
  8 11  1  0
 12 13  1  0
 12 14  1  0
 15 16  1  0
 15 17  1  0
 15 18  1  0
M  CHG  1   6  -1
M  END
>  <PDB_ID>  (1082) 
pdb1wog

>  <RESIDUE_NAME>  (1082) 
ASP   ARG

>  <FRAG_NAME>  (1082) 
ACET   PRPA

>  <FRAG_ATOM_NUM>  (1082) 
fragi: 7  fragj: 11

>  <atom.prop.CHAIN_ID>  (1082) 
A A A A A A A Z Z Z Z Z Z Z Z Z Z Z

>  <atom.prop.IS_HEAVY_ATOM>  (1082) 
1 0 0 0 1 1 1 1 0 0 0 1 0 0 1 0 0 0

>  <DIFUSE_FUNC_ATOM>  (1082) 
atom 6   atom 7   

>  <FINAL_SINGLE_POINT_ENERGY>  (1082) 
0

>  <NONCOV_INTER_ENERGY_QM>  (1082) 
0

>  <FF_Energy>  (1082) 
16.51

>  <QM_Energy>  (1082) 
-1.11

>  <source>  (1082) 
ACET_PRPA_10

>  <Index>  (1082) 
39807

$$$$
ACET-pdb3avx-A-GLU-260:PRPA-pdb3avx-A-ILE-152
     RDKit          3D

 18 16  0  0  0  0  0  0  0  0999 V2000
   -0.0246    1.5219   -0.0145 C   0  0  0  0  0  0  0  0  0  0  0  0
   -0.7689    1.8117    0.5641 H   0  0  0  0  0  0  0  0  0  0  0  0
   -0.1571    1.8059   -0.9495 H   0  0  0  0  0  0  0  0  0  0  0  0
    0.8925    1.9805    0.3555 H   0  0  0  0  0  0  0  0  0  0  0  0
    0.0000    0.0000    0.0000 C   0  0  0  0  0  0  0  0  0  0  0  0
   -1.1021   -0.5907   -0.0000 O   0  0  0  0  0  1  0  0  0  0  0  0
    1.1021   -0.5999    0.0000 O   0  0  0  0  0  0  0  0  0  0  0  0
   -0.0780    3.9911   -3.8426 C   0  0  0  0  0  0  0  0  0  0  0  0
    0.3211    4.2553   -2.9558 H   0  0  0  0  0  0  0  0  0  0  0  0
   -1.1564    4.1091   -3.7374 H   0  0  0  0  0  0  0  0  0  0  0  0
    0.3340    4.6723   -4.5872 H   0  0  0  0  0  0  0  0  0  0  0  0
    0.3244    2.5542   -4.2360 C   0  0  0  0  0  0  0  0  0  0  0  0
    0.0173    2.3969   -5.1714 H   0  0  0  0  0  0  0  0  0  0  0  0
    1.4066    2.4354   -4.1838 H   0  0  0  0  0  0  0  0  0  0  0  0
   -0.3516    1.5241   -3.3334 C   0  0  0  0  0  0  0  0  0  0  0  0
   -0.0273    1.6568   -2.4019 H   0  0  0  0  0  0  0  0  0  0  0  0
   -1.3355    1.6794   -3.3624 H   0  0  0  0  0  0  0  0  0  0  0  0
   -0.1517    0.4959   -3.6350 H   0  0  0  0  0  0  0  0  0  0  0  0
  1  5  1  0
  5  6  1  0
  5  7  2  0
  1  2  1  0
  1  3  1  0
  1  4  1  0
  8 12  1  0
 12 15  1  0
  8  9  1  0
  8 10  1  0
  8 11  1  0
 12 13  1  0
 12 14  1  0
 15 16  1  0
 15 17  1  0
 15 18  1  0
M  CHG  1   6  -1
M  END
>  <PDB_ID>  (1083) 
pdb3avx

>  <RESIDUE_NAME>  (1083) 
GLU   ILE

>  <FRAG_NAME>  (1083) 
ACET   PRPA

>  <FRAG_ATOM_NUM>  (1083) 
fragi: 7  fragj: 11

>  <atom.prop.CHAIN_ID>  (1083) 
A A A A A A A Z Z Z Z Z Z Z Z Z Z Z

>  <atom.prop.IS_HEAVY_ATOM>  (1083) 
1 0 0 0 1 1 1 1 0 0 0 1 0 0 1 0 0 0

>  <DIFUSE_FUNC_ATOM>  (1083) 
atom 6   atom 7   

>  <FINAL_SINGLE_POINT_ENERGY>  (1083) 
0

>  <NONCOV_INTER_ENERGY_QM>  (1083) 
0

>  <FF_Energy>  (1083) 
35.11

>  <QM_Energy>  (1083) 
3.77

>  <source>  (1083) 
ACET_PRPA_11

>  <Index>  (1083) 
297

$$$$
ACET-pdb3b1j-A-ASP-146:PRPA-pdb3b1j-A-ARG-143
     RDKit          3D

 18 16  0  0  0  0  0  0  0  0999 V2000
   -0.0085    1.5137    0.0018 C   0  0  0  0  0  0  0  0  0  0  0  0
   -0.5068    1.8298    0.8023 H   0  0  0  0  0  0  0  0  0  0  0  0
   -0.4505    1.8333   -0.8295 H   0  0  0  0  0  0  0  0  0  0  0  0
    0.9937    1.9408    0.0374 H   0  0  0  0  0  0  0  0  0  0  0  0
    0.0000    0.0000    0.0000 C   0  0  0  0  0  0  0  0  0  0  0  0
   -1.1014   -0.5948    0.0000 O   0  0  0  0  0  1  0  0  0  0  0  0
    1.1014   -0.5942    0.0000 O   0  0  0  0  0  0  0  0  0  0  0  0
   -0.9299   -0.7668    3.8522 C   0  0  0  0  0  0  0  0  0  0  0  0
   -0.8558   -1.3175    4.6744 H   0  0  0  0  0  0  0  0  0  0  0  0
   -1.9829   -0.5792    3.6420 H   0  0  0  0  0  0  0  0  0  0  0  0
   -0.4553    0.1976    4.0335 H   0  0  0  0  0  0  0  0  0  0  0  0
   -0.2387   -1.4444    2.6620 C   0  0  0  0  0  0  0  0  0  0  0  0
   -0.4246   -0.8944    1.8421 H   0  0  0  0  0  0  0  0  0  0  0  0
    0.7511   -1.4402    2.8352 H   0  0  0  0  0  0  0  0  0  0  0  0
   -0.6553   -2.8776    2.3678 C   0  0  0  0  0  0  0  0  0  0  0  0
   -0.4976   -3.4408    3.1646 H   0  0  0  0  0  0  0  0  0  0  0  0
   -1.6045   -2.8990    2.0934 H   0  0  0  0  0  0  0  0  0  0  0  0
   -0.0574   -3.2740    1.5472 H   0  0  0  0  0  0  0  0  0  0  0  0
  1  5  1  0
  5  6  1  0
  5  7  2  0
  1  2  1  0
  1  3  1  0
  1  4  1  0
  8 12  1  0
 12 15  1  0
  8  9  1  0
  8 10  1  0
  8 11  1  0
 12 13  1  0
 12 14  1  0
 15 16  1  0
 15 17  1  0
 15 18  1  0
M  CHG  1   6  -1
M  END
>  <PDB_ID>  (1084) 
pdb3b1j

>  <RESIDUE_NAME>  (1084) 
ASP   ARG

>  <FRAG_NAME>  (1084) 
ACET   PRPA

>  <FRAG_ATOM_NUM>  (1084) 
fragi: 7  fragj: 11

>  <atom.prop.CHAIN_ID>  (1084) 
A A A A A A A Z Z Z Z Z Z Z Z Z Z Z

>  <atom.prop.IS_HEAVY_ATOM>  (1084) 
1 0 0 0 1 1 1 1 0 0 0 1 0 0 1 0 0 0

>  <DIFUSE_FUNC_ATOM>  (1084) 
atom 6   atom 7   

>  <FINAL_SINGLE_POINT_ENERGY>  (1084) 
0

>  <NONCOV_INTER_ENERGY_QM>  (1084) 
0

>  <FF_Energy>  (1084) 
22.23

>  <QM_Energy>  (1084) 
-0.26

>  <source>  (1084) 
ACET_PRPA_11

>  <Index>  (1084) 
1141

$$$$
ACET-pdb3b1j-A-ASP-146:PRPA-pdb3b1j-A-ARG-143
     RDKit          3D

 18 16  0  0  0  0  0  0  0  0999 V2000
   -0.0085    1.5137    0.0018 C   0  0  0  0  0  0  0  0  0  0  0  0
   -0.5068    1.8298    0.8023 H   0  0  0  0  0  0  0  0  0  0  0  0
   -0.4505    1.8333   -0.8295 H   0  0  0  0  0  0  0  0  0  0  0  0
    0.9937    1.9408    0.0374 H   0  0  0  0  0  0  0  0  0  0  0  0
    0.0000    0.0000    0.0000 C   0  0  0  0  0  0  0  0  0  0  0  0
   -1.1014   -0.5948    0.0000 O   0  0  0  0  0  1  0  0  0  0  0  0
    1.1014   -0.5942    0.0000 O   0  0  0  0  0  0  0  0  0  0  0  0
   -0.2387   -1.4444    2.6620 C   0  0  0  0  0  0  0  0  0  0  0  0
   -0.4246   -0.8944    1.8421 H   0  0  0  0  0  0  0  0  0  0  0  0
    0.7511   -1.4402    2.8352 H   0  0  0  0  0  0  0  0  0  0  0  0
   -0.7299   -0.9630    3.5076 H   0  0  0  0  0  0  0  0  0  0  0  0
   -0.6553   -2.8776    2.3678 C   0  0  0  0  0  0  0  0  0  0  0  0
   -0.4976   -3.4408    3.1646 H   0  0  0  0  0  0  0  0  0  0  0  0
   -1.6045   -2.8990    2.0934 H   0  0  0  0  0  0  0  0  0  0  0  0
    0.1826   -3.4332    1.2177 C   0  0  0  0  0  0  0  0  0  0  0  0
   -0.0403   -4.3950    1.1119 H   0  0  0  0  0  0  0  0  0  0  0  0
   -0.0512   -2.9266    0.3956 H   0  0  0  0  0  0  0  0  0  0  0  0
    1.2492   -3.3281    1.4160 H   0  0  0  0  0  0  0  0  0  0  0  0
  1  5  1  0
  5  6  1  0
  5  7  2  0
  1  2  1  0
  1  3  1  0
  1  4  1  0
  8 12  1  0
 12 15  1  0
  8  9  1  0
  8 10  1  0
  8 11  1  0
 12 13  1  0
 12 14  1  0
 15 16  1  0
 15 17  1  0
 15 18  1  0
M  CHG  1   6  -1
M  END
>  <PDB_ID>  (1085) 
pdb3b1j

>  <RESIDUE_NAME>  (1085) 
ASP   ARG

>  <FRAG_NAME>  (1085) 
ACET   PRPA

>  <FRAG_ATOM_NUM>  (1085) 
fragi: 7  fragj: 11

>  <atom.prop.CHAIN_ID>  (1085) 
A A A A A A A Z Z Z Z Z Z Z Z Z Z Z

>  <atom.prop.IS_HEAVY_ATOM>  (1085) 
1 0 0 0 1 1 1 1 0 0 0 1 0 0 1 0 0 0

>  <DIFUSE_FUNC_ATOM>  (1085) 
atom 6   atom 7   

>  <FINAL_SINGLE_POINT_ENERGY>  (1085) 
0

>  <NONCOV_INTER_ENERGY_QM>  (1085) 
0

>  <FF_Energy>  (1085) 
20.82

>  <QM_Energy>  (1085) 
-0.74

>  <source>  (1085) 
ACET_PRPA_11

>  <Index>  (1085) 
1149

$$$$
ACET-pdb1wap-T-GLU-42:PRPA-pdb1wap-b-ARG-58
     RDKit          3D

 18 16  0  0  0  0  0  0  0  0999 V2000
    0.1377    1.5055    0.0080 C   0  0  0  0  0  0  0  0  0  0  0  0
    1.0068    1.7269   -0.3738 H   0  0  0  0  0  0  0  0  0  0  0  0
    0.0229    1.8091    0.9263 H   0  0  0  0  0  0  0  0  0  0  0  0
   -0.6378    1.9593   -0.6090 H   0  0  0  0  0  0  0  0  0  0  0  0
    0.0000    0.0000    0.0000 C   0  0  0  0  0  0  0  0  0  0  0  0
   -1.0944   -0.5734   -0.0000 O   0  0  0  0  0  1  0  0  0  0  0  0
    1.0944   -0.6049    0.0000 O   0  0  0  0  0  0  0  0  0  0  0  0
    4.1780    1.2444   -1.4112 C   0  0  0  0  0  0  0  0  0  0  0  0
    3.3769    0.7388   -1.6272 H   0  0  0  0  0  0  0  0  0  0  0  0
    4.9920    0.8935   -1.8090 H   0  0  0  0  0  0  0  0  0  0  0  0
    4.0430    2.2770   -1.7330 H   0  0  0  0  0  0  0  0  0  0  0  0
    4.3531    1.2202    0.1238 C   0  0  0  0  0  0  0  0  0  0  0  0
    5.3284    1.1030    0.3280 H   0  0  0  0  0  0  0  0  0  0  0  0
    4.0500    2.1045    0.4892 H   0  0  0  0  0  0  0  0  0  0  0  0
    3.5800    0.1269    0.7874 C   0  0  0  0  0  0  0  0  0  0  0  0
    2.7675   -0.0873    0.1855 H   0  0  0  0  0  0  0  0  0  0  0  0
    4.1601   -0.7289    0.7477 H   0  0  0  0  0  0  0  0  0  0  0  0
    3.2299    0.2653    1.8104 H   0  0  0  0  0  0  0  0  0  0  0  0
  1  5  1  0
  5  6  1  0
  5  7  2  0
  1  2  1  0
  1  3  1  0
  1  4  1  0
  8 12  1  0
 12 15  1  0
  8  9  1  0
  8 10  1  0
  8 11  1  0
 12 13  1  0
 12 14  1  0
 15 16  1  0
 15 17  1  0
 15 18  1  0
M  CHG  1   6  -1
M  END
>  <PDB_ID>  (1086) 
pdb1wap

>  <RESIDUE_NAME>  (1086) 
GLU   ARG

>  <FRAG_NAME>  (1086) 
ACET   PRPA

>  <FRAG_ATOM_NUM>  (1086) 
fragi: 7  fragj: 11

>  <atom.prop.CHAIN_ID>  (1086) 
A A A A A A A Z Z Z Z Z Z Z Z Z Z Z

>  <atom.prop.IS_HEAVY_ATOM>  (1086) 
1 0 0 0 1 1 1 1 0 0 0 1 0 0 1 0 0 0

>  <DIFUSE_FUNC_ATOM>  (1086) 
atom 6   atom 7   

>  <FINAL_SINGLE_POINT_ENERGY>  (1086) 
0

>  <NONCOV_INTER_ENERGY_QM>  (1086) 
0

>  <FF_Energy>  (1086) 
35.69

>  <QM_Energy>  (1086) 
2.32

>  <source>  (1086) 
ACET_PRPA_11

>  <Index>  (1086) 
1328

$$$$
ACET-pdb1wy7-B-GLU-7:PRPA-pdb1wy7-A-ARG-187
     RDKit          3D

 18 16  0  0  0  0  0  0  0  0999 V2000
    0.0098    1.5229   -0.0211 C   0  0  0  0  0  0  0  0  0  0  0  0
    0.8368    1.8196    0.4144 H   0  0  0  0  0  0  0  0  0  0  0  0
   -0.7952    1.8295    0.4498 H   0  0  0  0  0  0  0  0  0  0  0  0
   -0.0082    1.9284   -1.0327 H   0  0  0  0  0  0  0  0  0  0  0  0
    0.0000    0.0000    0.0000 C   0  0  0  0  0  0  0  0  0  0  0  0
   -1.1012   -0.6005   -0.0000 O   0  0  0  0  0  1  0  0  0  0  0  0
    1.1012   -0.5961   -0.0000 O   0  0  0  0  0  0  0  0  0  0  0  0
    2.0480   -2.9642    2.7455 C   0  0  0  0  0  0  0  0  0  0  0  0
    2.9172   -2.4451    2.6202 H   0  0  0  0  0  0  0  0  0  0  0  0
    2.1655   -3.9594    2.3167 H   0  0  0  0  0  0  0  0  0  0  0  0
    1.8079   -2.9944    3.8083 H   0  0  0  0  0  0  0  0  0  0  0  0
    0.8395   -2.4019    2.0808 C   0  0  0  0  0  0  0  0  0  0  0  0
    0.9944   -2.3165    1.1271 H   0  0  0  0  0  0  0  0  0  0  0  0
    0.0570   -2.9241    2.3174 H   0  0  0  0  0  0  0  0  0  0  0  0
    0.6355   -0.9855    2.6421 C   0  0  0  0  0  0  0  0  0  0  0  0
    1.0350   -0.3212    2.0294 H   0  0  0  0  0  0  0  0  0  0  0  0
   -0.3296   -0.8155    2.7768 H   0  0  0  0  0  0  0  0  0  0  0  0
    1.1247   -0.8745    3.6098 H   0  0  0  0  0  0  0  0  0  0  0  0
  1  5  1  0
  5  6  1  0
  5  7  2  0
  1  2  1  0
  1  3  1  0
  1  4  1  0
  8 12  1  0
 12 15  1  0
  8  9  1  0
  8 10  1  0
  8 11  1  0
 12 13  1  0
 12 14  1  0
 15 16  1  0
 15 17  1  0
 15 18  1  0
M  CHG  1   6  -1
M  END
>  <PDB_ID>  (1087) 
pdb1wy7

>  <RESIDUE_NAME>  (1087) 
GLU   ARG

>  <FRAG_NAME>  (1087) 
ACET   PRPA

>  <FRAG_ATOM_NUM>  (1087) 
fragi: 7  fragj: 11

>  <atom.prop.CHAIN_ID>  (1087) 
A A A A A A A Z Z Z Z Z Z Z Z Z Z Z

>  <atom.prop.IS_HEAVY_ATOM>  (1087) 
1 0 0 0 1 1 1 1 0 0 0 1 0 0 1 0 0 0

>  <DIFUSE_FUNC_ATOM>  (1087) 
atom 6   atom 7   

>  <FINAL_SINGLE_POINT_ENERGY>  (1087) 
0

>  <NONCOV_INTER_ENERGY_QM>  (1087) 
0

>  <FF_Energy>  (1087) 
22.2

>  <QM_Energy>  (1087) 
1.07

>  <source>  (1087) 
ACET_PRPA_11

>  <Index>  (1087) 
2707

$$$$
ACET-pdb1wy7-B-GLU-7:PRPA-pdb1wy7-A-ARG-187
     RDKit          3D

 18 16  0  0  0  0  0  0  0  0999 V2000
    0.0098    1.5229   -0.0211 C   0  0  0  0  0  0  0  0  0  0  0  0
    0.8368    1.8196    0.4144 H   0  0  0  0  0  0  0  0  0  0  0  0
   -0.7952    1.8295    0.4498 H   0  0  0  0  0  0  0  0  0  0  0  0
   -0.0082    1.9284   -1.0327 H   0  0  0  0  0  0  0  0  0  0  0  0
    0.0000    0.0000    0.0000 C   0  0  0  0  0  0  0  0  0  0  0  0
   -1.1012   -0.6005   -0.0000 O   0  0  0  0  0  1  0  0  0  0  0  0
    1.1012   -0.5961   -0.0000 O   0  0  0  0  0  0  0  0  0  0  0  0
    0.8395   -2.4019    2.0808 C   0  0  0  0  0  0  0  0  0  0  0  0
    0.9944   -2.3165    1.1271 H   0  0  0  0  0  0  0  0  0  0  0  0
    0.0570   -2.9241    2.3174 H   0  0  0  0  0  0  0  0  0  0  0  0
    1.7239   -2.8134    2.5672 H   0  0  0  0  0  0  0  0  0  0  0  0
    0.6355   -0.9855    2.6421 C   0  0  0  0  0  0  0  0  0  0  0  0
    1.0350   -0.3212    2.0294 H   0  0  0  0  0  0  0  0  0  0  0  0
   -0.3296   -0.8155    2.7768 H   0  0  0  0  0  0  0  0  0  0  0  0
    1.3357   -0.8266    4.0272 C   0  0  0  0  0  0  0  0  0  0  0  0
    0.6560   -1.0588    4.7298 H   0  0  0  0  0  0  0  0  0  0  0  0
    2.0785   -1.5040    4.0609 H   0  0  0  0  0  0  0  0  0  0  0  0
    1.7424    0.1637    4.2323 H   0  0  0  0  0  0  0  0  0  0  0  0
  1  5  1  0
  5  6  1  0
  5  7  2  0
  1  2  1  0
  1  3  1  0
  1  4  1  0
  8 12  1  0
 12 15  1  0
  8  9  1  0
  8 10  1  0
  8 11  1  0
 12 13  1  0
 12 14  1  0
 15 16  1  0
 15 17  1  0
 15 18  1  0
M  CHG  1   6  -1
M  END
>  <PDB_ID>  (1088) 
pdb1wy7

>  <RESIDUE_NAME>  (1088) 
GLU   ARG

>  <FRAG_NAME>  (1088) 
ACET   PRPA

>  <FRAG_ATOM_NUM>  (1088) 
fragi: 7  fragj: 11

>  <atom.prop.CHAIN_ID>  (1088) 
A A A A A A A Z Z Z Z Z Z Z Z Z Z Z

>  <atom.prop.IS_HEAVY_ATOM>  (1088) 
1 0 0 0 1 1 1 1 0 0 0 1 0 0 1 0 0 0

>  <DIFUSE_FUNC_ATOM>  (1088) 
atom 6   atom 7   

>  <FINAL_SINGLE_POINT_ENERGY>  (1088) 
0

>  <NONCOV_INTER_ENERGY_QM>  (1088) 
0

>  <FF_Energy>  (1088) 
21.42

>  <QM_Energy>  (1088) 
1.33

>  <source>  (1088) 
ACET_PRPA_11

>  <Index>  (1088) 
2717

$$$$
ACET-pdb1wog-C-ASP-39:PRPA-pdb1wog-C-ARG-49
     RDKit          3D

 18 16  0  0  0  0  0  0  0  0999 V2000
    0.0327    1.5240   -0.0075 C   0  0  0  0  0  0  0  0  0  0  0  0
    0.4345    1.8295   -0.8636 H   0  0  0  0  0  0  0  0  0  0  0  0
    0.5790    1.8350    0.7620 H   0  0  0  0  0  0  0  0  0  0  0  0
   -0.9551    1.9768    0.0784 H   0  0  0  0  0  0  0  0  0  0  0  0
    0.0000    0.0000    0.0000 C   0  0  0  0  0  0  0  0  0  0  0  0
   -1.0975   -0.6013    0.0000 O   0  0  0  0  0  1  0  0  0  0  0  0
    1.0975   -0.6037    0.0000 O   0  0  0  0  0  0  0  0  0  0  0  0
    0.9773   -0.9579    3.2720 C   0  0  0  0  0  0  0  0  0  0  0  0
    0.5967   -1.2168    4.1552 H   0  0  0  0  0  0  0  0  0  0  0  0
    0.2537   -0.6241    2.6738 H   0  0  0  0  0  0  0  0  0  0  0  0
    1.6864   -0.1459    3.4330 H   0  0  0  0  0  0  0  0  0  0  0  0
    1.5819   -2.1984    2.6355 C   0  0  0  0  0  0  0  0  0  0  0  0
    2.4276   -1.9622    2.1829 H   0  0  0  0  0  0  0  0  0  0  0  0
    1.7219   -2.8911    3.3250 H   0  0  0  0  0  0  0  0  0  0  0  0
    0.6206   -2.7517    1.5931 C   0  0  0  0  0  0  0  0  0  0  0  0
    0.1567   -1.9758    1.1607 H   0  0  0  0  0  0  0  0  0  0  0  0
    1.1642   -3.2345    0.9018 H   0  0  0  0  0  0  0  0  0  0  0  0
   -0.1225   -3.4313    2.0105 H   0  0  0  0  0  0  0  0  0  0  0  0
  1  5  1  0
  5  6  1  0
  5  7  2  0
  1  2  1  0
  1  3  1  0
  1  4  1  0
  8 12  1  0
 12 15  1  0
  8  9  1  0
  8 10  1  0
  8 11  1  0
 12 13  1  0
 12 14  1  0
 15 16  1  0
 15 17  1  0
 15 18  1  0
M  CHG  1   6  -1
M  END
>  <PDB_ID>  (1089) 
pdb1wog

>  <RESIDUE_NAME>  (1089) 
ASP   ARG

>  <FRAG_NAME>  (1089) 
ACET   PRPA

>  <FRAG_ATOM_NUM>  (1089) 
fragi: 7  fragj: 11

>  <atom.prop.CHAIN_ID>  (1089) 
A A A A A A A Z Z Z Z Z Z Z Z Z Z Z

>  <atom.prop.IS_HEAVY_ATOM>  (1089) 
1 0 0 0 1 1 1 1 0 0 0 1 0 0 1 0 0 0

>  <DIFUSE_FUNC_ATOM>  (1089) 
atom 6   atom 7   

>  <FINAL_SINGLE_POINT_ENERGY>  (1089) 
0

>  <NONCOV_INTER_ENERGY_QM>  (1089) 
0

>  <FF_Energy>  (1089) 
14.46

>  <QM_Energy>  (1089) 
-1.28

>  <source>  (1089) 
ACET_PRPA_11

>  <Index>  (1089) 
2969

$$$$
ACET-pdb3b3d-A-GLU-160:PRPA-pdb3b3d-A-LYS-135
     RDKit          3D

 18 16  0  0  0  0  0  0  0  0999 V2000
    0.0052    1.5178    0.0365 C   0  0  0  0  0  0  0  0  0  0  0  0
   -0.7108    1.8324   -0.5440 H   0  0  0  0  0  0  0  0  0  0  0  0
    0.8918    1.8196   -0.2338 H   0  0  0  0  0  0  0  0  0  0  0  0
   -0.1881    1.8832    1.0451 H   0  0  0  0  0  0  0  0  0  0  0  0
    0.0000    0.0000    0.0000 C   0  0  0  0  0  0  0  0  0  0  0  0
   -1.0945   -0.6137   -0.0000 O   0  0  0  0  0  1  0  0  0  0  0  0
    1.0945   -0.5936    0.0000 O   0  0  0  0  0  0  0  0  0  0  0  0
   -1.8555   -1.8692   -4.3190 C   0  0  0  0  0  0  0  0  0  0  0  0
   -0.8891   -2.1195   -4.4146 H   0  0  0  0  0  0  0  0  0  0  0  0
   -2.0226   -1.0119   -4.8117 H   0  0  0  0  0  0  0  0  0  0  0  0
   -2.4653   -2.6547   -4.7655 H   0  0  0  0  0  0  0  0  0  0  0  0
   -2.1597   -1.6466   -2.8283 C   0  0  0  0  0  0  0  0  0  0  0  0
   -2.0361   -0.6714   -2.6189 H   0  0  0  0  0  0  0  0  0  0  0  0
   -3.1187   -1.8934   -2.6565 H   0  0  0  0  0  0  0  0  0  0  0  0
   -1.2777   -2.4587   -1.8570 C   0  0  0  0  0  0  0  0  0  0  0  0
   -0.2942   -2.2128   -2.0514 H   0  0  0  0  0  0  0  0  0  0  0  0
   -1.4513   -2.0996   -0.9050 H   0  0  0  0  0  0  0  0  0  0  0  0
   -1.3743   -3.5444   -1.8472 H   0  0  0  0  0  0  0  0  0  0  0  0
  1  5  1  0
  5  6  1  0
  5  7  2  0
  1  2  1  0
  1  3  1  0
  1  4  1  0
  8 12  1  0
 12 15  1  0
  8  9  1  0
  8 10  1  0
  8 11  1  0
 12 13  1  0
 12 14  1  0
 15 16  1  0
 15 17  1  0
 15 18  1  0
M  CHG  1   6  -1
M  END
>  <PDB_ID>  (1090) 
pdb3b3d

>  <RESIDUE_NAME>  (1090) 
GLU   LYS

>  <FRAG_NAME>  (1090) 
ACET   PRPA

>  <FRAG_ATOM_NUM>  (1090) 
fragi: 7  fragj: 11

>  <atom.prop.CHAIN_ID>  (1090) 
A A A A A A A Z Z Z Z Z Z Z Z Z Z Z

>  <atom.prop.IS_HEAVY_ATOM>  (1090) 
1 0 0 0 1 1 1 1 0 0 0 1 0 0 1 0 0 0

>  <DIFUSE_FUNC_ATOM>  (1090) 
atom 6   atom 7   

>  <FINAL_SINGLE_POINT_ENERGY>  (1090) 
0

>  <NONCOV_INTER_ENERGY_QM>  (1090) 
0

>  <FF_Energy>  (1090) 
35.14

>  <QM_Energy>  (1090) 
2.01

>  <source>  (1090) 
ACET_PRPA_11

>  <Index>  (1090) 
3607

$$$$
ACET-pdb1x8d-A-GLU-28:PRPA-pdb1x8d-A-VAL-72
     RDKit          3D

 18 16  0  0  0  0  0  0  0  0999 V2000
    0.0059    1.5335   -0.0131 C   0  0  0  0  0  0  0  0  0  0  0  0
   -0.7433    1.8282    0.5443 H   0  0  0  0  0  0  0  0  0  0  0  0
   -0.0809    1.8115   -0.9475 H   0  0  0  0  0  0  0  0  0  0  0  0
    0.9315    1.9401    0.3945 H   0  0  0  0  0  0  0  0  0  0  0  0
    0.0000    0.0000    0.0000 C   0  0  0  0  0  0  0  0  0  0  0  0
   -1.1048   -0.5920   -0.0000 O   0  0  0  0  0  1  0  0  0  0  0  0
    1.1048   -0.6096    0.0000 O   0  0  0  0  0  0  0  0  0  0  0  0
   -0.1846   -0.9115   -4.8499 C   0  0  0  0  0  0  0  0  0  0  0  0
   -0.8976   -1.3419   -4.2727 H   0  0  0  0  0  0  0  0  0  0  0  0
    0.4745   -1.6980   -5.2176 H   0  0  0  0  0  0  0  0  0  0  0  0
   -0.6904   -0.3711   -5.6500 H   0  0  0  0  0  0  0  0  0  0  0  0
    0.5635    0.0926   -3.9166 C   0  0  0  0  0  0  0  0  0  0  0  0
    1.0617   -0.4492   -3.2483 H   0  0  0  0  0  0  0  0  0  0  0  0
    1.2920    0.6712   -4.4845 H   0  0  0  0  0  0  0  0  0  0  0  0
   -0.4433    1.0137   -3.2217 C   0  0  0  0  0  0  0  0  0  0  0  0
   -0.4831    1.8818   -3.7125 H   0  0  0  0  0  0  0  0  0  0  0  0
   -1.3417    0.5783   -3.2284 H   0  0  0  0  0  0  0  0  0  0  0  0
   -0.1480    1.1680   -2.2808 H   0  0  0  0  0  0  0  0  0  0  0  0
  1  5  1  0
  5  6  1  0
  5  7  2  0
  1  2  1  0
  1  3  1  0
  1  4  1  0
  8 12  1  0
 12 15  1  0
  8  9  1  0
  8 10  1  0
  8 11  1  0
 12 13  1  0
 12 14  1  0
 15 16  1  0
 15 17  1  0
 15 18  1  0
M  CHG  1   6  -1
M  END
>  <PDB_ID>  (1091) 
pdb1x8d

>  <RESIDUE_NAME>  (1091) 
GLU   VAL

>  <FRAG_NAME>  (1091) 
ACET   PRPA

>  <FRAG_ATOM_NUM>  (1091) 
fragi: 7  fragj: 11

>  <atom.prop.CHAIN_ID>  (1091) 
A A A A A A A Z Z Z Z Z Z Z Z Z Z Z

>  <atom.prop.IS_HEAVY_ATOM>  (1091) 
1 0 0 0 1 1 1 1 0 0 0 1 0 0 1 0 0 0

>  <DIFUSE_FUNC_ATOM>  (1091) 
atom 6   atom 7   

>  <FINAL_SINGLE_POINT_ENERGY>  (1091) 
0

>  <NONCOV_INTER_ENERGY_QM>  (1091) 
0

>  <FF_Energy>  (1091) 
33.02

>  <QM_Energy>  (1091) 
1.95

>  <source>  (1091) 
ACET_PRPA_11

>  <Index>  (1091) 
3813

$$$$
ACET-pdb3ba3-A-GLU-37:PRPA-pdb3ba3-A-LYS-7
     RDKit          3D

 18 16  0  0  0  0  0  0  0  0999 V2000
    0.0065    1.5269   -0.0273 C   0  0  0  0  0  0  0  0  0  0  0  0
   -0.6610    1.8018   -0.6873 H   0  0  0  0  0  0  0  0  0  0  0  0
    0.9151    1.8018   -0.2635 H   0  0  0  0  0  0  0  0  0  0  0  0
   -0.2577    1.9341    0.9486 H   0  0  0  0  0  0  0  0  0  0  0  0
    0.0000    0.0000    0.0000 C   0  0  0  0  0  0  0  0  0  0  0  0
   -1.0997   -0.6101    0.0000 O   0  0  0  0  0  1  0  0  0  0  0  0
    1.0997   -0.5828    0.0000 O   0  0  0  0  0  0  0  0  0  0  0  0
   -1.3858    1.3637   -4.1080 C   0  0  0  0  0  0  0  0  0  0  0  0
   -1.1645    2.0548   -3.4177 H   0  0  0  0  0  0  0  0  0  0  0  0
   -2.3213    1.5118   -4.4342 H   0  0  0  0  0  0  0  0  0  0  0  0
   -0.6999    1.4760   -4.9477 H   0  0  0  0  0  0  0  0  0  0  0  0
   -1.2902   -0.0108   -3.4827 C   0  0  0  0  0  0  0  0  0  0  0  0
   -1.5085   -0.6983   -4.1785 H   0  0  0  0  0  0  0  0  0  0  0  0
   -0.3530   -0.1552   -3.1602 H   0  0  0  0  0  0  0  0  0  0  0  0
   -2.2335   -0.1885   -2.3163 C   0  0  0  0  0  0  0  0  0  0  0  0
   -3.1061   -0.5464   -2.6508 H   0  0  0  0  0  0  0  0  0  0  0  0
   -1.8355   -0.8392   -1.6673 H   0  0  0  0  0  0  0  0  0  0  0  0
   -2.4063    0.7609   -1.8093 H   0  0  0  0  0  0  0  0  0  0  0  0
  1  5  1  0
  5  6  1  0
  5  7  2  0
  1  2  1  0
  1  3  1  0
  1  4  1  0
  8 12  1  0
 12 15  1  0
  8  9  1  0
  8 10  1  0
  8 11  1  0
 12 13  1  0
 12 14  1  0
 15 16  1  0
 15 17  1  0
 15 18  1  0
M  CHG  1   6  -1
M  END
>  <PDB_ID>  (1092) 
pdb3ba3

>  <RESIDUE_NAME>  (1092) 
GLU   LYS

>  <FRAG_NAME>  (1092) 
ACET   PRPA

>  <FRAG_ATOM_NUM>  (1092) 
fragi: 7  fragj: 11

>  <atom.prop.CHAIN_ID>  (1092) 
A A A A A A A Z Z Z Z Z Z Z Z Z Z Z

>  <atom.prop.IS_HEAVY_ATOM>  (1092) 
1 0 0 0 1 1 1 1 0 0 0 1 0 0 1 0 0 0

>  <DIFUSE_FUNC_ATOM>  (1092) 
atom 6   atom 7   

>  <FINAL_SINGLE_POINT_ENERGY>  (1092) 
0

>  <NONCOV_INTER_ENERGY_QM>  (1092) 
0

>  <FF_Energy>  (1092) 
25.31

>  <QM_Energy>  (1092) 
3.24

>  <source>  (1092) 
ACET_PRPA_11

>  <Index>  (1092) 
4177

$$$$
ACET-pdb1wap-V-GLU-16:PRPA-pdb1wap-V-LYS-74
     RDKit          3D

 18 16  0  0  0  0  0  0  0  0999 V2000
    0.0623    1.5115   -0.0217 C   0  0  0  0  0  0  0  0  0  0  0  0
    0.2449    1.7854   -0.9666 H   0  0  0  0  0  0  0  0  0  0  0  0
    0.8340    1.7821    0.5557 H   0  0  0  0  0  0  0  0  0  0  0  0
   -0.8260    2.0415    0.3222 H   0  0  0  0  0  0  0  0  0  0  0  0
    0.0000    0.0000    0.0000 C   0  0  0  0  0  0  0  0  0  0  0  0
   -1.0991   -0.5957    0.0000 O   0  0  0  0  0  1  0  0  0  0  0  0
    1.0991   -0.6216    0.0000 O   0  0  0  0  0  0  0  0  0  0  0  0
   -0.4813   -2.7917    3.3850 C   0  0  0  0  0  0  0  0  0  0  0  0
    0.2921   -2.1853    3.2142 H   0  0  0  0  0  0  0  0  0  0  0  0
   -0.1531   -3.7036    3.6186 H   0  0  0  0  0  0  0  0  0  0  0  0
   -1.0631   -2.3983    4.2186 H   0  0  0  0  0  0  0  0  0  0  0  0
   -1.3280   -2.8796    2.1205 C   0  0  0  0  0  0  0  0  0  0  0  0
   -1.9656   -3.6309    2.2100 H   0  0  0  0  0  0  0  0  0  0  0  0
   -1.8015   -2.0211    1.9871 H   0  0  0  0  0  0  0  0  0  0  0  0
   -0.4430   -3.1397    0.8964 C   0  0  0  0  0  0  0  0  0  0  0  0
   -0.9812   -3.6287    0.2109 H   0  0  0  0  0  0  0  0  0  0  0  0
   -0.1466   -2.2608    0.5237 H   0  0  0  0  0  0  0  0  0  0  0  0
    0.4310   -3.7338    1.1631 H   0  0  0  0  0  0  0  0  0  0  0  0
  1  5  1  0
  5  6  1  0
  5  7  2  0
  1  2  1  0
  1  3  1  0
  1  4  1  0
  8 12  1  0
 12 15  1  0
  8  9  1  0
  8 10  1  0
  8 11  1  0
 12 13  1  0
 12 14  1  0
 15 16  1  0
 15 17  1  0
 15 18  1  0
M  CHG  1   6  -1
M  END
>  <PDB_ID>  (1093) 
pdb1wap

>  <RESIDUE_NAME>  (1093) 
GLU   LYS

>  <FRAG_NAME>  (1093) 
ACET   PRPA

>  <FRAG_ATOM_NUM>  (1093) 
fragi: 7  fragj: 11

>  <atom.prop.CHAIN_ID>  (1093) 
A A A A A A A Z Z Z Z Z Z Z Z Z Z Z

>  <atom.prop.IS_HEAVY_ATOM>  (1093) 
1 0 0 0 1 1 1 1 0 0 0 1 0 0 1 0 0 0

>  <DIFUSE_FUNC_ATOM>  (1093) 
atom 6   atom 7   

>  <FINAL_SINGLE_POINT_ENERGY>  (1093) 
0

>  <NONCOV_INTER_ENERGY_QM>  (1093) 
0

>  <FF_Energy>  (1093) 
15.35

>  <QM_Energy>  (1093) 
-0.74

>  <source>  (1093) 
ACET_PRPA_11

>  <Index>  (1093) 
4247

$$$$
ACET-pdb1xb0-A-GLU-314:PRPA-pdb1xb0-A-LYS-311
     RDKit          3D

 18 16  0  0  0  0  0  0  0  0999 V2000
    0.0048    1.5223    0.0057 C   0  0  0  0  0  0  0  0  0  0  0  0
    0.9392    1.8152   -0.0687 H   0  0  0  0  0  0  0  0  0  0  0  0
   -0.4126    1.8152    0.8455 H   0  0  0  0  0  0  0  0  0  0  0  0
   -0.5553    1.9528   -0.8245 H   0  0  0  0  0  0  0  0  0  0  0  0
    0.0000    0.0000    0.0000 C   0  0  0  0  0  0  0  0  0  0  0  0
   -1.0989   -0.5972    0.0000 O   0  0  0  0  0  1  0  0  0  0  0  0
    1.0989   -0.5990   -0.0000 O   0  0  0  0  0  0  0  0  0  0  0  0
   -1.4726    1.4239    3.0465 C   0  0  0  0  0  0  0  0  0  0  0  0
   -1.1271    1.5928    2.1305 H   0  0  0  0  0  0  0  0  0  0  0  0
   -1.2963    2.2052    3.6351 H   0  0  0  0  0  0  0  0  0  0  0  0
   -2.5508    1.2756    2.9858 H   0  0  0  0  0  0  0  0  0  0  0  0
   -0.7524    0.2209    3.6167 C   0  0  0  0  0  0  0  0  0  0  0  0
   -1.0108    0.1118    4.5790 H   0  0  0  0  0  0  0  0  0  0  0  0
   -1.0277   -0.5976    3.1078 H   0  0  0  0  0  0  0  0  0  0  0  0
    0.7456    0.3780    3.5241 C   0  0  0  0  0  0  0  0  0  0  0  0
    1.0026    0.5051    2.5728 H   0  0  0  0  0  0  0  0  0  0  0  0
    1.0275    1.1575    4.0700 H   0  0  0  0  0  0  0  0  0  0  0  0
    1.2502   -0.5107    3.9032 H   0  0  0  0  0  0  0  0  0  0  0  0
  1  5  1  0
  5  6  1  0
  5  7  2  0
  1  2  1  0
  1  3  1  0
  1  4  1  0
  8 12  1  0
 12 15  1  0
  8  9  1  0
  8 10  1  0
  8 11  1  0
 12 13  1  0
 12 14  1  0
 15 16  1  0
 15 17  1  0
 15 18  1  0
M  CHG  1   6  -1
M  END
>  <PDB_ID>  (1094) 
pdb1xb0

>  <RESIDUE_NAME>  (1094) 
GLU   LYS

>  <FRAG_NAME>  (1094) 
ACET   PRPA

>  <FRAG_ATOM_NUM>  (1094) 
fragi: 7  fragj: 11

>  <atom.prop.CHAIN_ID>  (1094) 
A A A A A A A Z Z Z Z Z Z Z Z Z Z Z

>  <atom.prop.IS_HEAVY_ATOM>  (1094) 
1 0 0 0 1 1 1 1 0 0 0 1 0 0 1 0 0 0

>  <DIFUSE_FUNC_ATOM>  (1094) 
atom 6   atom 7   

>  <FINAL_SINGLE_POINT_ENERGY>  (1094) 
0

>  <NONCOV_INTER_ENERGY_QM>  (1094) 
0

>  <FF_Energy>  (1094) 
29.2

>  <QM_Energy>  (1094) 
0.47

>  <source>  (1094) 
ACET_PRPA_11

>  <Index>  (1094) 
5291

$$$$
ACET-pdb1wog-E-ASP-39:PRPA-pdb1wog-E-ARG-49
     RDKit          3D

 18 16  0  0  0  0  0  0  0  0999 V2000
    0.0367    1.5277   -0.0194 C   0  0  0  0  0  0  0  0  0  0  0  0
    0.4091    1.8256   -0.8913 H   0  0  0  0  0  0  0  0  0  0  0  0
    0.6105    1.8420    0.7284 H   0  0  0  0  0  0  0  0  0  0  0  0
   -0.9446    1.9877    0.0975 H   0  0  0  0  0  0  0  0  0  0  0  0
    0.0000    0.0000    0.0000 C   0  0  0  0  0  0  0  0  0  0  0  0
   -1.0952   -0.6021   -0.0000 O   0  0  0  0  0  1  0  0  0  0  0  0
    1.0952   -0.6071    0.0000 O   0  0  0  0  0  0  0  0  0  0  0  0
    0.9702   -0.9149    3.3071 C   0  0  0  0  0  0  0  0  0  0  0  0
    0.6390   -1.2090    4.1991 H   0  0  0  0  0  0  0  0  0  0  0  0
    0.2166   -0.5585    2.7625 H   0  0  0  0  0  0  0  0  0  0  0  0
    1.6879   -0.1091    3.4609 H   0  0  0  0  0  0  0  0  0  0  0  0
    1.5431   -2.1200    2.5927 C   0  0  0  0  0  0  0  0  0  0  0  0
    2.3421   -1.8530    2.0731 H   0  0  0  0  0  0  0  0  0  0  0  0
    1.7660   -2.8253    3.2505 H   0  0  0  0  0  0  0  0  0  0  0  0
    0.5131   -2.6833    1.6252 C   0  0  0  0  0  0  0  0  0  0  0  0
    0.0364   -1.9131    1.2014 H   0  0  0  0  0  0  0  0  0  0  0  0
    1.0038   -3.1986    0.9217 H   0  0  0  0  0  0  0  0  0  0  0  0
   -0.2110   -3.3344    2.1148 H   0  0  0  0  0  0  0  0  0  0  0  0
  1  5  1  0
  5  6  1  0
  5  7  2  0
  1  2  1  0
  1  3  1  0
  1  4  1  0
  8 12  1  0
 12 15  1  0
  8  9  1  0
  8 10  1  0
  8 11  1  0
 12 13  1  0
 12 14  1  0
 15 16  1  0
 15 17  1  0
 15 18  1  0
M  CHG  1   6  -1
M  END
>  <PDB_ID>  (1095) 
pdb1wog

>  <RESIDUE_NAME>  (1095) 
ASP   ARG

>  <FRAG_NAME>  (1095) 
ACET   PRPA

>  <FRAG_ATOM_NUM>  (1095) 
fragi: 7  fragj: 11

>  <atom.prop.CHAIN_ID>  (1095) 
A A A A A A A Z Z Z Z Z Z Z Z Z Z Z

>  <atom.prop.IS_HEAVY_ATOM>  (1095) 
1 0 0 0 1 1 1 1 0 0 0 1 0 0 1 0 0 0

>  <DIFUSE_FUNC_ATOM>  (1095) 
atom 6   atom 7   

>  <FINAL_SINGLE_POINT_ENERGY>  (1095) 
0

>  <NONCOV_INTER_ENERGY_QM>  (1095) 
0

>  <FF_Energy>  (1095) 
16.31

>  <QM_Energy>  (1095) 
-1.01

>  <source>  (1095) 
ACET_PRPA_11

>  <Index>  (1095) 
8684

$$$$
ACET-pdb3bf5-A-ASP-19:PRPA-pdb3bf5-A-LYS-30
     RDKit          3D

 18 16  0  0  0  0  0  0  0  0999 V2000
    0.0565    1.5349    0.0370 C   0  0  0  0  0  0  0  0  0  0  0  0
    0.6998    1.8430   -0.6553 H   0  0  0  0  0  0  0  0  0  0  0  0
    0.3569    1.8172    0.9401 H   0  0  0  0  0  0  0  0  0  0  0  0
   -0.9029    2.0125   -0.1621 H   0  0  0  0  0  0  0  0  0  0  0  0
    0.0000    0.0000    0.0000 C   0  0  0  0  0  0  0  0  0  0  0  0
   -1.0983   -0.6056    0.0000 O   0  0  0  0  0  1  0  0  0  0  0  0
    1.0983   -0.6035   -0.0000 O   0  0  0  0  0  0  0  0  0  0  0  0
   -1.8454   -1.6497   -3.6630 C   0  0  0  0  0  0  0  0  0  0  0  0
   -1.1014   -2.3092   -3.7775 H   0  0  0  0  0  0  0  0  0  0  0  0
   -1.5460   -0.7512   -3.9845 H   0  0  0  0  0  0  0  0  0  0  0  0
   -2.6950   -1.9728   -4.2645 H   0  0  0  0  0  0  0  0  0  0  0  0
   -2.2068   -1.5577   -2.1953 C   0  0  0  0  0  0  0  0  0  0  0  0
   -2.9142   -2.2373   -1.9939 H   0  0  0  0  0  0  0  0  0  0  0  0
   -1.3918   -1.7554   -1.6484 H   0  0  0  0  0  0  0  0  0  0  0  0
   -2.7261   -0.1907   -1.8098 C   0  0  0  0  0  0  0  0  0  0  0  0
   -2.0224    0.4936   -2.0025 H   0  0  0  0  0  0  0  0  0  0  0  0
   -3.5445    0.0127   -2.3478 H   0  0  0  0  0  0  0  0  0  0  0  0
   -2.9766   -0.1584   -0.7495 H   0  0  0  0  0  0  0  0  0  0  0  0
  1  5  1  0
  5  6  1  0
  5  7  2  0
  1  2  1  0
  1  3  1  0
  1  4  1  0
  8 12  1  0
 12 15  1  0
  8  9  1  0
  8 10  1  0
  8 11  1  0
 12 13  1  0
 12 14  1  0
 15 16  1  0
 15 17  1  0
 15 18  1  0
M  CHG  1   6  -1
M  END
>  <PDB_ID>  (1096) 
pdb3bf5

>  <RESIDUE_NAME>  (1096) 
ASP   LYS

>  <FRAG_NAME>  (1096) 
ACET   PRPA

>  <FRAG_ATOM_NUM>  (1096) 
fragi: 7  fragj: 11

>  <atom.prop.CHAIN_ID>  (1096) 
A A A A A A A Z Z Z Z Z Z Z Z Z Z Z

>  <atom.prop.IS_HEAVY_ATOM>  (1096) 
1 0 0 0 1 1 1 1 0 0 0 1 0 0 1 0 0 0

>  <DIFUSE_FUNC_ATOM>  (1096) 
atom 6   atom 7   

>  <FINAL_SINGLE_POINT_ENERGY>  (1096) 
0

>  <NONCOV_INTER_ENERGY_QM>  (1096) 
0

>  <FF_Energy>  (1096) 
27.26

>  <QM_Energy>  (1096) 
6.24

>  <source>  (1096) 
ACET_PRPA_11

>  <Index>  (1096) 
8989

$$$$
ACET-pdb3b8i-A-ASP-131:PRPA-pdb3b8i-A-LYS-128
     RDKit          3D

 18 16  0  0  0  0  0  0  0  0999 V2000
    0.0055    1.5500   -0.0336 C   0  0  0  0  0  0  0  0  0  0  0  0
    0.7943    1.8436   -0.5535 H   0  0  0  0  0  0  0  0  0  0  0  0
    0.0475    1.8787    0.8976 H   0  0  0  0  0  0  0  0  0  0  0  0
   -0.8861    1.9663   -0.5025 H   0  0  0  0  0  0  0  0  0  0  0  0
    0.0000    0.0000    0.0000 C   0  0  0  0  0  0  0  0  0  0  0  0
   -1.0846   -0.6127   -0.0000 O   0  0  0  0  0  1  0  0  0  0  0  0
    1.0846   -0.6131    0.0000 O   0  0  0  0  0  0  0  0  0  0  0  0
    1.7553   -1.8002   -3.5685 C   0  0  0  0  0  0  0  0  0  0  0  0
    1.5284   -2.4048   -4.3408 H   0  0  0  0  0  0  0  0  0  0  0  0
    2.7949   -1.9719   -3.2897 H   0  0  0  0  0  0  0  0  0  0  0  0
    1.5783   -0.7686   -3.8728 H   0  0  0  0  0  0  0  0  0  0  0  0
    0.8143   -2.1437   -2.4044 C   0  0  0  0  0  0  0  0  0  0  0  0
    1.0632   -3.0482   -2.0618 H   0  0  0  0  0  0  0  0  0  0  0  0
    0.9513   -1.4642   -1.6854 H   0  0  0  0  0  0  0  0  0  0  0  0
   -0.6614   -2.1613   -2.7748 C   0  0  0  0  0  0  0  0  0  0  0  0
   -0.9225   -1.2577   -3.1154 H   0  0  0  0  0  0  0  0  0  0  0  0
   -0.8111   -2.8426   -3.4917 H   0  0  0  0  0  0  0  0  0  0  0  0
   -1.2866   -2.4088   -1.9170 H   0  0  0  0  0  0  0  0  0  0  0  0
  1  5  1  0
  5  6  1  0
  5  7  2  0
  1  2  1  0
  1  3  1  0
  1  4  1  0
  8 12  1  0
 12 15  1  0
  8  9  1  0
  8 10  1  0
  8 11  1  0
 12 13  1  0
 12 14  1  0
 15 16  1  0
 15 17  1  0
 15 18  1  0
M  CHG  1   6  -1
M  END
>  <PDB_ID>  (1097) 
pdb3b8i

>  <RESIDUE_NAME>  (1097) 
ASP   LYS

>  <FRAG_NAME>  (1097) 
ACET   PRPA

>  <FRAG_ATOM_NUM>  (1097) 
fragi: 7  fragj: 11

>  <atom.prop.CHAIN_ID>  (1097) 
A A A A A A A Z Z Z Z Z Z Z Z Z Z Z

>  <atom.prop.IS_HEAVY_ATOM>  (1097) 
1 0 0 0 1 1 1 1 0 0 0 1 0 0 1 0 0 0

>  <DIFUSE_FUNC_ATOM>  (1097) 
atom 6   atom 7   

>  <FINAL_SINGLE_POINT_ENERGY>  (1097) 
0

>  <NONCOV_INTER_ENERGY_QM>  (1097) 
0

>  <FF_Energy>  (1097) 
18.25

>  <QM_Energy>  (1097) 
-1.05

>  <source>  (1097) 
ACET_PRPA_11

>  <Index>  (1097) 
9429

$$$$
ACET-pdb3b0h-B-ASP-190:PRPA-pdb3b0h-B-GLU-193
     RDKit          3D

 18 16  0  0  0  0  0  0  0  0999 V2000
   -0.0611    1.5289   -0.0266 C   0  0  0  0  0  0  0  0  0  0  0  0
   -0.7855    1.8263    0.5918 H   0  0  0  0  0  0  0  0  0  0  0  0
   -0.2690    1.8199   -0.9573 H   0  0  0  0  0  0  0  0  0  0  0  0
    0.8637    2.0175    0.2803 H   0  0  0  0  0  0  0  0  0  0  0  0
    0.0000    0.0000    0.0000 C   0  0  0  0  0  0  0  0  0  0  0  0
   -1.1117   -0.6250   -0.0000 O   0  0  0  0  0  1  0  0  0  0  0  0
    1.1117   -0.5830   -0.0000 O   0  0  0  0  0  0  0  0  0  0  0  0
   -1.1074    0.2554   -3.6749 C   0  0  0  0  0  0  0  0  0  0  0  0
   -1.6305   -0.4397   -3.1767 H   0  0  0  0  0  0  0  0  0  0  0  0
   -0.0436    0.0843   -3.5101 H   0  0  0  0  0  0  0  0  0  0  0  0
   -1.3356    0.2048   -4.7395 H   0  0  0  0  0  0  0  0  0  0  0  0
   -1.6459    1.5585   -3.0410 C   0  0  0  0  0  0  0  0  0  0  0  0
   -2.6289    1.4455   -2.9235 H   0  0  0  0  0  0  0  0  0  0  0  0
   -1.2059    1.6598   -2.1528 H   0  0  0  0  0  0  0  0  0  0  0  0
   -1.4269    2.8675   -3.8097 C   0  0  0  0  0  0  0  0  0  0  0  0
   -0.4816    2.9353   -4.0460 H   0  0  0  0  0  0  0  0  0  0  0  0
   -2.0215    2.8780   -4.5855 H   0  0  0  0  0  0  0  0  0  0  0  0
   -1.6686    3.7476   -3.2140 H   0  0  0  0  0  0  0  0  0  0  0  0
  1  5  1  0
  5  6  1  0
  5  7  2  0
  1  2  1  0
  1  3  1  0
  1  4  1  0
  8 12  1  0
 12 15  1  0
  8  9  1  0
  8 10  1  0
  8 11  1  0
 12 13  1  0
 12 14  1  0
 15 16  1  0
 15 17  1  0
 15 18  1  0
M  CHG  1   6  -1
M  END
>  <PDB_ID>  (1098) 
pdb3b0h

>  <RESIDUE_NAME>  (1098) 
ASP   GLU

>  <FRAG_NAME>  (1098) 
ACET   PRPA

>  <FRAG_ATOM_NUM>  (1098) 
fragi: 7  fragj: 11

>  <atom.prop.CHAIN_ID>  (1098) 
A A A A A A A Z Z Z Z Z Z Z Z Z Z Z

>  <atom.prop.IS_HEAVY_ATOM>  (1098) 
1 0 0 0 1 1 1 1 0 0 0 1 0 0 1 0 0 0

>  <DIFUSE_FUNC_ATOM>  (1098) 
atom 6   atom 7   

>  <FINAL_SINGLE_POINT_ENERGY>  (1098) 
0

>  <NONCOV_INTER_ENERGY_QM>  (1098) 
0

>  <FF_Energy>  (1098) 
24.21

>  <QM_Energy>  (1098) 
0.68

>  <source>  (1098) 
ACET_PRPA_11

>  <Index>  (1098) 
10278

$$$$
ACET-pdb1xf1-A-GLU-216:PRPA-pdb1xf1-A-LEU-224
     RDKit          3D

 18 16  0  0  0  0  0  0  0  0999 V2000
   -0.0048    1.5132    0.0095 C   0  0  0  0  0  0  0  0  0  0  0  0
   -0.5681    1.8138   -0.7350 H   0  0  0  0  0  0  0  0  0  0  0  0
    0.9250    1.8140   -0.0761 H   0  0  0  0  0  0  0  0  0  0  0  0
   -0.4144    1.9179    0.9350 H   0  0  0  0  0  0  0  0  0  0  0  0
    0.0000    0.0000    0.0000 C   0  0  0  0  0  0  0  0  0  0  0  0
   -1.1008   -0.5904   -0.0000 O   0  0  0  0  0  1  0  0  0  0  0  0
    1.1008   -0.5941   -0.0000 O   0  0  0  0  0  0  0  0  0  0  0  0
    1.7987    1.4048   -3.7281 C   0  0  0  0  0  0  0  0  0  0  0  0
    2.2902    2.2678   -3.8447 H   0  0  0  0  0  0  0  0  0  0  0  0
    1.9238    1.0749   -2.7923 H   0  0  0  0  0  0  0  0  0  0  0  0
    2.1575    0.7273   -4.3707 H   0  0  0  0  0  0  0  0  0  0  0  0
    0.3158    1.6239   -3.9960 C   0  0  0  0  0  0  0  0  0  0  0  0
   -0.1725    0.7620   -3.8812 H   0  0  0  0  0  0  0  0  0  0  0  0
    0.1665    1.9842   -5.0139 H   0  0  0  0  0  0  0  0  0  0  0  0
   -0.2661    2.6393   -3.0262 C   0  0  0  0  0  0  0  0  0  0  0  0
   -1.2450    2.7514   -3.2053 H   0  0  0  0  0  0  0  0  0  0  0  0
   -0.1348    2.3198   -2.0870 H   0  0  0  0  0  0  0  0  0  0  0  0
    0.1957    3.5193   -3.1444 H   0  0  0  0  0  0  0  0  0  0  0  0
  1  5  1  0
  5  6  1  0
  5  7  2  0
  1  2  1  0
  1  3  1  0
  1  4  1  0
  8 12  1  0
 12 15  1  0
  8  9  1  0
  8 10  1  0
  8 11  1  0
 12 13  1  0
 12 14  1  0
 15 16  1  0
 15 17  1  0
 15 18  1  0
M  CHG  1   6  -1
M  END
>  <PDB_ID>  (1099) 
pdb1xf1

>  <RESIDUE_NAME>  (1099) 
GLU   LEU

>  <FRAG_NAME>  (1099) 
ACET   PRPA

>  <FRAG_ATOM_NUM>  (1099) 
fragi: 7  fragj: 11

>  <atom.prop.CHAIN_ID>  (1099) 
A A A A A A A Z Z Z Z Z Z Z Z Z Z Z

>  <atom.prop.IS_HEAVY_ATOM>  (1099) 
1 0 0 0 1 1 1 1 0 0 0 1 0 0 1 0 0 0

>  <DIFUSE_FUNC_ATOM>  (1099) 
atom 6   atom 7   

>  <FINAL_SINGLE_POINT_ENERGY>  (1099) 
0

>  <NONCOV_INTER_ENERGY_QM>  (1099) 
0

>  <FF_Energy>  (1099) 
28.12

>  <QM_Energy>  (1099) 
2.86

>  <source>  (1099) 
ACET_PRPA_11

>  <Index>  (1099) 
10498

$$$$
ACET-pdb1xi8-A-GLU-344:PRPA-pdb1xi8-A-ARG-282
     RDKit          3D

 18 16  0  0  0  0  0  0  0  0999 V2000
    0.0034    1.5084    0.0062 C   0  0  0  0  0  0  0  0  0  0  0  0
    0.9420    1.8057   -0.0228 H   0  0  0  0  0  0  0  0  0  0  0  0
   -0.4512    1.8046    0.8279 H   0  0  0  0  0  0  0  0  0  0  0  0
   -0.5184    1.9363   -0.8498 H   0  0  0  0  0  0  0  0  0  0  0  0
    0.0000    0.0000    0.0000 C   0  0  0  0  0  0  0  0  0  0  0  0
   -1.0990   -0.5956    0.0000 O   0  0  0  0  0  1  0  0  0  0  0  0
    1.0990   -0.5932   -0.0000 O   0  0  0  0  0  0  0  0  0  0  0  0
    3.5109    3.0800    1.7298 C   0  0  0  0  0  0  0  0  0  0  0  0
    3.7501    2.1257    1.5628 H   0  0  0  0  0  0  0  0  0  0  0  0
    3.8574    3.3656    2.6208 H   0  0  0  0  0  0  0  0  0  0  0  0
    4.0007    3.6870    0.9684 H   0  0  0  0  0  0  0  0  0  0  0  0
    1.9921    3.1896    1.7554 C   0  0  0  0  0  0  0  0  0  0  0  0
    1.7383    4.1411    1.9269 H   0  0  0  0  0  0  0  0  0  0  0  0
    1.6313    2.9014    0.8699 H   0  0  0  0  0  0  0  0  0  0  0  0
    1.4019    2.3308    2.8225 C   0  0  0  0  0  0  0  0  0  0  0  0
    1.6575    1.3812    2.6489 H   0  0  0  0  0  0  0  0  0  0  0  0
    1.7661    2.6207    3.7066 H   0  0  0  0  0  0  0  0  0  0  0  0
    0.3146    2.4048    2.8467 H   0  0  0  0  0  0  0  0  0  0  0  0
  1  5  1  0
  5  6  1  0
  5  7  2  0
  1  2  1  0
  1  3  1  0
  1  4  1  0
  8 12  1  0
 12 15  1  0
  8  9  1  0
  8 10  1  0
  8 11  1  0
 12 13  1  0
 12 14  1  0
 15 16  1  0
 15 17  1  0
 15 18  1  0
M  CHG  1   6  -1
M  END
>  <PDB_ID>  (1100) 
pdb1xi8

>  <RESIDUE_NAME>  (1100) 
GLU   ARG

>  <FRAG_NAME>  (1100) 
ACET   PRPA

>  <FRAG_ATOM_NUM>  (1100) 
fragi: 7  fragj: 11

>  <atom.prop.CHAIN_ID>  (1100) 
A A A A A A A Z Z Z Z Z Z Z Z Z Z Z

>  <atom.prop.IS_HEAVY_ATOM>  (1100) 
1 0 0 0 1 1 1 1 0 0 0 1 0 0 1 0 0 0

>  <DIFUSE_FUNC_ATOM>  (1100) 
atom 6   atom 7   

>  <FINAL_SINGLE_POINT_ENERGY>  (1100) 
0

>  <NONCOV_INTER_ENERGY_QM>  (1100) 
0

>  <FF_Energy>  (1100) 
21.44

>  <QM_Energy>  (1100) 
2.51

>  <source>  (1100) 
ACET_PRPA_11

>  <Index>  (1100) 
11002

$$$$
ACET-pdb3bhw-A-GLU-41:PRPA-pdb3bhw-A-LYS-55
     RDKit          3D

 18 16  0  0  0  0  0  0  0  0999 V2000
   -0.0256    1.5096   -0.0442 C   0  0  0  0  0  0  0  0  0  0  0  0
   -0.9436    1.7983    0.1575 H   0  0  0  0  0  0  0  0  0  0  0  0
    0.2610    1.7855   -0.9442 H   0  0  0  0  0  0  0  0  0  0  0  0
    0.6455    1.9614    0.6863 H   0  0  0  0  0  0  0  0  0  0  0  0
    0.0000    0.0000    0.0000 C   0  0  0  0  0  0  0  0  0  0  0  0
   -1.0905   -0.5925    0.0000 O   0  0  0  0  0  1  0  0  0  0  0  0
    1.0905   -0.6106    0.0000 O   0  0  0  0  0  0  0  0  0  0  0  0
   -4.7629    0.6081   -1.2849 C   0  0  0  0  0  0  0  0  0  0  0  0
   -5.6164    0.1470   -1.0472 H   0  0  0  0  0  0  0  0  0  0  0  0
   -4.2539    0.0535   -1.9419 H   0  0  0  0  0  0  0  0  0  0  0  0
   -5.0077    1.5588   -1.7587 H   0  0  0  0  0  0  0  0  0  0  0  0
   -3.9227    0.7353   -0.0164 C   0  0  0  0  0  0  0  0  0  0  0  0
   -3.0670    1.2058   -0.2426 H   0  0  0  0  0  0  0  0  0  0  0  0
   -4.4301    1.2817    0.6540 H   0  0  0  0  0  0  0  0  0  0  0  0
   -3.5990   -0.6148    0.5885 C   0  0  0  0  0  0  0  0  0  0  0  0
   -4.4046   -1.1981    0.5392 H   0  0  0  0  0  0  0  0  0  0  0  0
   -2.8449   -1.0277    0.0873 H   0  0  0  0  0  0  0  0  0  0  0  0
   -3.3043   -0.5309    1.6345 H   0  0  0  0  0  0  0  0  0  0  0  0
  1  5  1  0
  5  6  1  0
  5  7  2  0
  1  2  1  0
  1  3  1  0
  1  4  1  0
  8 12  1  0
 12 15  1  0
  8  9  1  0
  8 10  1  0
  8 11  1  0
 12 13  1  0
 12 14  1  0
 15 16  1  0
 15 17  1  0
 15 18  1  0
M  CHG  1   6  -1
M  END
>  <PDB_ID>  (1101) 
pdb3bhw

>  <RESIDUE_NAME>  (1101) 
GLU   LYS

>  <FRAG_NAME>  (1101) 
ACET   PRPA

>  <FRAG_ATOM_NUM>  (1101) 
fragi: 7  fragj: 11

>  <atom.prop.CHAIN_ID>  (1101) 
A A A A A A A Z Z Z Z Z Z Z Z Z Z Z

>  <atom.prop.IS_HEAVY_ATOM>  (1101) 
1 0 0 0 1 1 1 1 0 0 0 1 0 0 1 0 0 0

>  <DIFUSE_FUNC_ATOM>  (1101) 
atom 6   atom 7   

>  <FINAL_SINGLE_POINT_ENERGY>  (1101) 
0

>  <NONCOV_INTER_ENERGY_QM>  (1101) 
0

>  <FF_Energy>  (1101) 
30.87

>  <QM_Energy>  (1101) 
2.52

>  <source>  (1101) 
ACET_PRPA_11

>  <Index>  (1101) 
11548

$$$$
ACET-pdb3bhw-A-GLU-41:PRPA-pdb3bhw-A-LYS-55
     RDKit          3D

 18 16  0  0  0  0  0  0  0  0999 V2000
   -0.0256    1.5096   -0.0442 C   0  0  0  0  0  0  0  0  0  0  0  0
   -0.9436    1.7983    0.1575 H   0  0  0  0  0  0  0  0  0  0  0  0
    0.2610    1.7855   -0.9442 H   0  0  0  0  0  0  0  0  0  0  0  0
    0.6455    1.9614    0.6863 H   0  0  0  0  0  0  0  0  0  0  0  0
    0.0000    0.0000    0.0000 C   0  0  0  0  0  0  0  0  0  0  0  0
   -1.0905   -0.5925    0.0000 O   0  0  0  0  0  1  0  0  0  0  0  0
    1.0905   -0.6106    0.0000 O   0  0  0  0  0  0  0  0  0  0  0  0
   -3.9227    0.7353   -0.0164 C   0  0  0  0  0  0  0  0  0  0  0  0
   -3.0670    1.2058   -0.2426 H   0  0  0  0  0  0  0  0  0  0  0  0
   -4.4301    1.2817    0.6540 H   0  0  0  0  0  0  0  0  0  0  0  0
   -4.5225    0.6446   -0.9220 H   0  0  0  0  0  0  0  0  0  0  0  0
   -3.5990   -0.6148    0.5885 C   0  0  0  0  0  0  0  0  0  0  0  0
   -4.4046   -1.1981    0.5392 H   0  0  0  0  0  0  0  0  0  0  0  0
   -2.8449   -1.0277    0.0873 H   0  0  0  0  0  0  0  0  0  0  0  0
   -3.1843   -0.4966    2.0606 C   0  0  0  0  0  0  0  0  0  0  0  0
   -2.8664    0.4217    2.2298 H   0  0  0  0  0  0  0  0  0  0  0  0
   -3.9568   -0.7267    2.6290 H   0  0  0  0  0  0  0  0  0  0  0  0
   -2.3744   -1.2040    2.2392 H   0  0  0  0  0  0  0  0  0  0  0  0
  1  5  1  0
  5  6  1  0
  5  7  2  0
  1  2  1  0
  1  3  1  0
  1  4  1  0
  8 12  1  0
 12 15  1  0
  8  9  1  0
  8 10  1  0
  8 11  1  0
 12 13  1  0
 12 14  1  0
 15 16  1  0
 15 17  1  0
 15 18  1  0
M  CHG  1   6  -1
M  END
>  <PDB_ID>  (1102) 
pdb3bhw

>  <RESIDUE_NAME>  (1102) 
GLU   LYS

>  <FRAG_NAME>  (1102) 
ACET   PRPA

>  <FRAG_ATOM_NUM>  (1102) 
fragi: 7  fragj: 11

>  <atom.prop.CHAIN_ID>  (1102) 
A A A A A A A Z Z Z Z Z Z Z Z Z Z Z

>  <atom.prop.IS_HEAVY_ATOM>  (1102) 
1 0 0 0 1 1 1 1 0 0 0 1 0 0 1 0 0 0

>  <DIFUSE_FUNC_ATOM>  (1102) 
atom 6   atom 7   

>  <FINAL_SINGLE_POINT_ENERGY>  (1102) 
0

>  <NONCOV_INTER_ENERGY_QM>  (1102) 
0

>  <FF_Energy>  (1102) 
35.44

>  <QM_Energy>  (1102) 
1.01

>  <source>  (1102) 
ACET_PRPA_11

>  <Index>  (1102) 
11560

$$$$
ACET-pdb3ble-A-GLU-48:PRPA-pdb3ble-A-ARG-16
     RDKit          3D

 18 16  0  0  0  0  0  0  0  0999 V2000
    0.0042    1.5122    0.0324 C   0  0  0  0  0  0  0  0  0  0  0  0
   -0.7372    1.8222   -0.5282 H   0  0  0  0  0  0  0  0  0  0  0  0
    0.8783    1.8120   -0.2949 H   0  0  0  0  0  0  0  0  0  0  0  0
   -0.1406    1.8933    1.0433 H   0  0  0  0  0  0  0  0  0  0  0  0
    0.0000    0.0000    0.0000 C   0  0  0  0  0  0  0  0  0  0  0  0
   -1.0957   -0.5859    0.0000 O   0  0  0  0  0  1  0  0  0  0  0  0
    1.0957   -0.5954   -0.0000 O   0  0  0  0  0  0  0  0  0  0  0  0
   -3.9192    1.8545   -0.9517 C   0  0  0  0  0  0  0  0  0  0  0  0
   -3.2848    2.6198   -0.8658 H   0  0  0  0  0  0  0  0  0  0  0  0
   -3.8061    1.2346   -0.1779 H   0  0  0  0  0  0  0  0  0  0  0  0
   -4.9347    2.2497   -0.9256 H   0  0  0  0  0  0  0  0  0  0  0  0
   -3.5756    1.0968   -2.2175 C   0  0  0  0  0  0  0  0  0  0  0  0
   -4.4024    0.9008   -2.7201 H   0  0  0  0  0  0  0  0  0  0  0  0
   -2.9405    1.6268   -2.7575 H   0  0  0  0  0  0  0  0  0  0  0  0
   -2.9199   -0.2016   -1.8402 C   0  0  0  0  0  0  0  0  0  0  0  0
   -2.1359   -0.3443   -2.4422 H   0  0  0  0  0  0  0  0  0  0  0  0
   -2.6097   -0.1322   -0.8931 H   0  0  0  0  0  0  0  0  0  0  0  0
   -3.6081   -1.0415   -1.9360 H   0  0  0  0  0  0  0  0  0  0  0  0
  1  5  1  0
  5  6  1  0
  5  7  2  0
  1  2  1  0
  1  3  1  0
  1  4  1  0
  8 12  1  0
 12 15  1  0
  8  9  1  0
  8 10  1  0
  8 11  1  0
 12 13  1  0
 12 14  1  0
 15 16  1  0
 15 17  1  0
 15 18  1  0
M  CHG  1   6  -1
M  END
>  <PDB_ID>  (1103) 
pdb3ble

>  <RESIDUE_NAME>  (1103) 
GLU   ARG

>  <FRAG_NAME>  (1103) 
ACET   PRPA

>  <FRAG_ATOM_NUM>  (1103) 
fragi: 7  fragj: 11

>  <atom.prop.CHAIN_ID>  (1103) 
A A A A A A A Z Z Z Z Z Z Z Z Z Z Z

>  <atom.prop.IS_HEAVY_ATOM>  (1103) 
1 0 0 0 1 1 1 1 0 0 0 1 0 0 1 0 0 0

>  <DIFUSE_FUNC_ATOM>  (1103) 
atom 6   atom 7   

>  <FINAL_SINGLE_POINT_ENERGY>  (1103) 
0

>  <NONCOV_INTER_ENERGY_QM>  (1103) 
0

>  <FF_Energy>  (1103) 
27.52

>  <QM_Energy>  (1103) 
3.29

>  <source>  (1103) 
ACET_PRPA_11

>  <Index>  (1103) 
13421

$$$$
ACET-pdb3ble-A-GLU-58:PRPA-pdb3ble-A-VAL-54
     RDKit          3D

 18 16  0  0  0  0  0  0  0  0999 V2000
    0.0068    1.5214    0.0003 C   0  0  0  0  0  0  0  0  0  0  0  0
    0.9457    1.8133   -0.0080 H   0  0  0  0  0  0  0  0  0  0  0  0
   -0.4683    1.8186    0.8087 H   0  0  0  0  0  0  0  0  0  0  0  0
   -0.4922    1.9510   -0.8684 H   0  0  0  0  0  0  0  0  0  0  0  0
    0.0000    0.0000    0.0000 C   0  0  0  0  0  0  0  0  0  0  0  0
   -1.0957   -0.5986    0.0000 O   0  0  0  0  0  1  0  0  0  0  0  0
    1.0957   -0.5985    0.0000 O   0  0  0  0  0  0  0  0  0  0  0  0
    3.9989    4.7634   -1.8810 C   0  0  0  0  0  0  0  0  0  0  0  0
    4.9626    4.8645   -2.1581 H   0  0  0  0  0  0  0  0  0  0  0  0
    3.8064    5.4579   -1.0633 H   0  0  0  0  0  0  0  0  0  0  0  0
    3.3750    4.9904   -2.7455 H   0  0  0  0  0  0  0  0  0  0  0  0
    3.7625    3.3055   -1.4506 C   0  0  0  0  0  0  0  0  0  0  0  0
    3.7942    2.7394   -2.2668 H   0  0  0  0  0  0  0  0  0  0  0  0
    4.5709    2.9733   -0.7992 H   0  0  0  0  0  0  0  0  0  0  0  0
    2.4438    3.1977   -0.7258 C   0  0  0  0  0  0  0  0  0  0  0  0
    2.0369    2.2978   -0.8979 H   0  0  0  0  0  0  0  0  0  0  0  0
    2.5903    3.3114    0.2591 H   0  0  0  0  0  0  0  0  0  0  0  0
    1.8200    3.9111   -1.0527 H   0  0  0  0  0  0  0  0  0  0  0  0
  1  5  1  0
  5  6  1  0
  5  7  2  0
  1  2  1  0
  1  3  1  0
  1  4  1  0
  8 12  1  0
 12 15  1  0
  8  9  1  0
  8 10  1  0
  8 11  1  0
 12 13  1  0
 12 14  1  0
 15 16  1  0
 15 17  1  0
 15 18  1  0
M  CHG  1   6  -1
M  END
>  <PDB_ID>  (1104) 
pdb3ble

>  <RESIDUE_NAME>  (1104) 
GLU   VAL

>  <FRAG_NAME>  (1104) 
ACET   PRPA

>  <FRAG_ATOM_NUM>  (1104) 
fragi: 7  fragj: 11

>  <atom.prop.CHAIN_ID>  (1104) 
A A A A A A A Z Z Z Z Z Z Z Z Z Z Z

>  <atom.prop.IS_HEAVY_ATOM>  (1104) 
1 0 0 0 1 1 1 1 0 0 0 1 0 0 1 0 0 0

>  <DIFUSE_FUNC_ATOM>  (1104) 
atom 6   atom 7   

>  <FINAL_SINGLE_POINT_ENERGY>  (1104) 
0

>  <NONCOV_INTER_ENERGY_QM>  (1104) 
0

>  <FF_Energy>  (1104) 
37.41

>  <QM_Energy>  (1104) 
6.52

>  <source>  (1104) 
ACET_PRPA_11

>  <Index>  (1104) 
14132

$$$$
ACET-pdb3ble-A-GLU-58:PRPA-pdb3ble-A-VAL-54
     RDKit          3D

 18 16  0  0  0  0  0  0  0  0999 V2000
    0.0068    1.5214    0.0003 C   0  0  0  0  0  0  0  0  0  0  0  0
    0.9457    1.8133   -0.0080 H   0  0  0  0  0  0  0  0  0  0  0  0
   -0.4683    1.8186    0.8087 H   0  0  0  0  0  0  0  0  0  0  0  0
   -0.4922    1.9510   -0.8684 H   0  0  0  0  0  0  0  0  0  0  0  0
    0.0000    0.0000    0.0000 C   0  0  0  0  0  0  0  0  0  0  0  0
   -1.0957   -0.5986    0.0000 O   0  0  0  0  0  1  0  0  0  0  0  0
    1.0957   -0.5985    0.0000 O   0  0  0  0  0  0  0  0  0  0  0  0
    4.8894    2.8423   -0.5426 C   0  0  0  0  0  0  0  0  0  0  0  0
    4.5384    2.1718    0.1114 H   0  0  0  0  0  0  0  0  0  0  0  0
    5.6117    2.4229   -1.0923 H   0  0  0  0  0  0  0  0  0  0  0  0
    5.2632    3.6257   -0.0460 H   0  0  0  0  0  0  0  0  0  0  0  0
    3.7625    3.3055   -1.4506 C   0  0  0  0  0  0  0  0  0  0  0  0
    3.7942    2.7394   -2.2668 H   0  0  0  0  0  0  0  0  0  0  0  0
    3.9300    4.3385   -1.7556 H   0  0  0  0  0  0  0  0  0  0  0  0
    2.4438    3.1977   -0.7258 C   0  0  0  0  0  0  0  0  0  0  0  0
    2.0369    2.2978   -0.8979 H   0  0  0  0  0  0  0  0  0  0  0  0
    2.5903    3.3114    0.2591 H   0  0  0  0  0  0  0  0  0  0  0  0
    1.8200    3.9111   -1.0527 H   0  0  0  0  0  0  0  0  0  0  0  0
  1  5  1  0
  5  6  1  0
  5  7  2  0
  1  2  1  0
  1  3  1  0
  1  4  1  0
  8 12  1  0
 12 15  1  0
  8  9  1  0
  8 10  1  0
  8 11  1  0
 12 13  1  0
 12 14  1  0
 15 16  1  0
 15 17  1  0
 15 18  1  0
M  CHG  1   6  -1
M  END
>  <PDB_ID>  (1105) 
pdb3ble

>  <RESIDUE_NAME>  (1105) 
GLU   VAL

>  <FRAG_NAME>  (1105) 
ACET   PRPA

>  <FRAG_ATOM_NUM>  (1105) 
fragi: 7  fragj: 11

>  <atom.prop.CHAIN_ID>  (1105) 
A A A A A A A Z Z Z Z Z Z Z Z Z Z Z

>  <atom.prop.IS_HEAVY_ATOM>  (1105) 
1 0 0 0 1 1 1 1 0 0 0 1 0 0 1 0 0 0

>  <DIFUSE_FUNC_ATOM>  (1105) 
atom 6   atom 7   

>  <FINAL_SINGLE_POINT_ENERGY>  (1105) 
0

>  <NONCOV_INTER_ENERGY_QM>  (1105) 
0

>  <FF_Energy>  (1105) 
37.51

>  <QM_Energy>  (1105) 
6.16

>  <source>  (1105) 
ACET_PRPA_11

>  <Index>  (1105) 
14141

$$$$
ACET-pdb1xta-A-GLU-7:PRPA-pdb1xta-A-LYS-14
     RDKit          3D

 18 16  0  0  0  0  0  0  0  0999 V2000
   -0.0039    1.5196   -0.0088 C   0  0  0  0  0  0  0  0  0  0  0  0
   -0.9082    1.8154    0.2322 H   0  0  0  0  0  0  0  0  0  0  0  0
    0.2583    1.8106   -0.9087 H   0  0  0  0  0  0  0  0  0  0  0  0
    0.6980    1.9442    0.7090 H   0  0  0  0  0  0  0  0  0  0  0  0
    0.0000    0.0000    0.0000 C   0  0  0  0  0  0  0  0  0  0  0  0
   -1.0945   -0.6014    0.0000 O   0  0  0  0  0  1  0  0  0  0  0  0
    1.0945   -0.5991   -0.0000 O   0  0  0  0  0  0  0  0  0  0  0  0
    3.1894   -1.7430    3.8056 C   0  0  0  0  0  0  0  0  0  0  0  0
    3.0025   -0.7685    3.7951 H   0  0  0  0  0  0  0  0  0  0  0  0
    3.9487   -1.9622    3.2066 H   0  0  0  0  0  0  0  0  0  0  0  0
    3.4229   -2.0588    4.8223 H   0  0  0  0  0  0  0  0  0  0  0  0
    1.9494   -2.4849    3.3186 C   0  0  0  0  0  0  0  0  0  0  0  0
    2.0134   -3.4356    3.6143 H   0  0  0  0  0  0  0  0  0  0  0  0
    1.1442   -2.0572    3.7222 H   0  0  0  0  0  0  0  0  0  0  0  0
    1.8253   -2.4451    1.8178 C   0  0  0  0  0  0  0  0  0  0  0  0
    1.7816   -1.4894    1.5149 H   0  0  0  0  0  0  0  0  0  0  0  0
    2.6330   -2.8774    1.4066 H   0  0  0  0  0  0  0  0  0  0  0  0
    0.9313   -2.9669    1.4760 H   0  0  0  0  0  0  0  0  0  0  0  0
  1  5  1  0
  5  6  1  0
  5  7  2  0
  1  2  1  0
  1  3  1  0
  1  4  1  0
  8 12  1  0
 12 15  1  0
  8  9  1  0
  8 10  1  0
  8 11  1  0
 12 13  1  0
 12 14  1  0
 15 16  1  0
 15 17  1  0
 15 18  1  0
M  CHG  1   6  -1
M  END
>  <PDB_ID>  (1106) 
pdb1xta

>  <RESIDUE_NAME>  (1106) 
GLU   LYS

>  <FRAG_NAME>  (1106) 
ACET   PRPA

>  <FRAG_ATOM_NUM>  (1106) 
fragi: 7  fragj: 11

>  <atom.prop.CHAIN_ID>  (1106) 
A A A A A A A Z Z Z Z Z Z Z Z Z Z Z

>  <atom.prop.IS_HEAVY_ATOM>  (1106) 
1 0 0 0 1 1 1 1 0 0 0 1 0 0 1 0 0 0

>  <DIFUSE_FUNC_ATOM>  (1106) 
atom 6   atom 7   

>  <FINAL_SINGLE_POINT_ENERGY>  (1106) 
0

>  <NONCOV_INTER_ENERGY_QM>  (1106) 
0

>  <FF_Energy>  (1106) 
17.01

>  <QM_Energy>  (1106) 
1.91

>  <source>  (1106) 
ACET_PRPA_11

>  <Index>  (1106) 
15323

$$$$
ACET-pdb3bjq-D-ASP-234:PRPA-pdb3bjq-A-LYS-51
     RDKit          3D

 18 16  0  0  0  0  0  0  0  0999 V2000
    0.0297    1.5341    0.0129 C   0  0  0  0  0  0  0  0  0  0  0  0
    0.3827    1.8486   -0.8589 H   0  0  0  0  0  0  0  0  0  0  0  0
    0.6148    1.8310    0.7569 H   0  0  0  0  0  0  0  0  0  0  0  0
   -0.9540    1.9803    0.1585 H   0  0  0  0  0  0  0  0  0  0  0  0
    0.0000    0.0000    0.0000 C   0  0  0  0  0  0  0  0  0  0  0  0
   -1.1016   -0.6052   -0.0000 O   0  0  0  0  0  1  0  0  0  0  0  0
    1.1016   -0.6010   -0.0000 O   0  0  0  0  0  0  0  0  0  0  0  0
   -0.4332   -2.8303    4.1559 C   0  0  0  0  0  0  0  0  0  0  0  0
   -1.3905   -3.0620    3.9826 H   0  0  0  0  0  0  0  0  0  0  0  0
   -0.3711   -1.8836    4.4716 H   0  0  0  0  0  0  0  0  0  0  0  0
   -0.0367   -3.4933    4.9249 H   0  0  0  0  0  0  0  0  0  0  0  0
    0.3430   -2.9498    2.8259 C   0  0  0  0  0  0  0  0  0  0  0  0
    1.2984   -2.7203    3.0084 H   0  0  0  0  0  0  0  0  0  0  0  0
    0.2783   -3.8985    2.5182 H   0  0  0  0  0  0  0  0  0  0  0  0
   -0.1949   -2.0431    1.7651 C   0  0  0  0  0  0  0  0  0  0  0  0
   -1.1948   -2.0951    1.7538 H   0  0  0  0  0  0  0  0  0  0  0  0
    0.0831   -1.1000    1.9565 H   0  0  0  0  0  0  0  0  0  0  0  0
    0.1862   -2.3316    0.7854 H   0  0  0  0  0  0  0  0  0  0  0  0
  1  5  1  0
  5  6  1  0
  5  7  2  0
  1  2  1  0
  1  3  1  0
  1  4  1  0
  8 12  1  0
 12 15  1  0
  8  9  1  0
  8 10  1  0
  8 11  1  0
 12 13  1  0
 12 14  1  0
 15 16  1  0
 15 17  1  0
 15 18  1  0
M  CHG  1   6  -1
M  END
>  <PDB_ID>  (1107) 
pdb3bjq

>  <RESIDUE_NAME>  (1107) 
ASP   LYS

>  <FRAG_NAME>  (1107) 
ACET   PRPA

>  <FRAG_ATOM_NUM>  (1107) 
fragi: 7  fragj: 11

>  <atom.prop.CHAIN_ID>  (1107) 
A A A A A A A Z Z Z Z Z Z Z Z Z Z Z

>  <atom.prop.IS_HEAVY_ATOM>  (1107) 
1 0 0 0 1 1 1 1 0 0 0 1 0 0 1 0 0 0

>  <DIFUSE_FUNC_ATOM>  (1107) 
atom 6   atom 7   

>  <FINAL_SINGLE_POINT_ENERGY>  (1107) 
0

>  <NONCOV_INTER_ENERGY_QM>  (1107) 
0

>  <FF_Energy>  (1107) 
36.95

>  <QM_Energy>  (1107) 
11.56

>  <source>  (1107) 
ACET_PRPA_11

>  <Index>  (1107) 
15520

$$$$
ACET-pdb1x0u-B-ASP-29:PRPA-pdb1x0u-B-LYS-25
     RDKit          3D

 18 16  0  0  0  0  0  0  0  0999 V2000
   -0.0022    1.5164    0.0055 C   0  0  0  0  0  0  0  0  0  0  0  0
    0.9328    1.8379   -0.0800 H   0  0  0  0  0  0  0  0  0  0  0  0
   -0.4059    1.8323    0.8547 H   0  0  0  0  0  0  0  0  0  0  0  0
   -0.5793    1.9343   -0.8193 H   0  0  0  0  0  0  0  0  0  0  0  0
    0.0000    0.0000    0.0000 C   0  0  0  0  0  0  0  0  0  0  0  0
   -1.0957   -0.6031    0.0000 O   0  0  0  0  0  1  0  0  0  0  0  0
    1.0957   -0.5943   -0.0000 O   0  0  0  0  0  0  0  0  0  0  0  0
   -0.1695   -2.7606   -3.1510 C   0  0  0  0  0  0  0  0  0  0  0  0
   -0.6338   -2.2041   -2.4632 H   0  0  0  0  0  0  0  0  0  0  0  0
   -0.5423   -3.6877   -3.1403 H   0  0  0  0  0  0  0  0  0  0  0  0
   -0.3390   -2.3214   -4.1341 H   0  0  0  0  0  0  0  0  0  0  0  0
    1.3149   -2.8210   -2.8170 C   0  0  0  0  0  0  0  0  0  0  0  0
    1.7364   -3.5514   -3.3432 H   0  0  0  0  0  0  0  0  0  0  0  0
    1.7337   -1.9473   -3.0383 H   0  0  0  0  0  0  0  0  0  0  0  0
    1.5496   -3.1041   -1.3287 C   0  0  0  0  0  0  0  0  0  0  0  0
    2.5059   -3.3948   -1.2060 H   0  0  0  0  0  0  0  0  0  0  0  0
    1.4121   -2.2489   -0.8156 H   0  0  0  0  0  0  0  0  0  0  0  0
    0.8862   -3.8724   -0.9315 H   0  0  0  0  0  0  0  0  0  0  0  0
  1  5  1  0
  5  6  1  0
  5  7  2  0
  1  2  1  0
  1  3  1  0
  1  4  1  0
  8 12  1  0
 12 15  1  0
  8  9  1  0
  8 10  1  0
  8 11  1  0
 12 13  1  0
 12 14  1  0
 15 16  1  0
 15 17  1  0
 15 18  1  0
M  CHG  1   6  -1
M  END
>  <PDB_ID>  (1108) 
pdb1x0u

>  <RESIDUE_NAME>  (1108) 
ASP   LYS

>  <FRAG_NAME>  (1108) 
ACET   PRPA

>  <FRAG_ATOM_NUM>  (1108) 
fragi: 7  fragj: 11

>  <atom.prop.CHAIN_ID>  (1108) 
A A A A A A A Z Z Z Z Z Z Z Z Z Z Z

>  <atom.prop.IS_HEAVY_ATOM>  (1108) 
1 0 0 0 1 1 1 1 0 0 0 1 0 0 1 0 0 0

>  <DIFUSE_FUNC_ATOM>  (1108) 
atom 6   atom 7   

>  <FINAL_SINGLE_POINT_ENERGY>  (1108) 
0

>  <NONCOV_INTER_ENERGY_QM>  (1108) 
0

>  <FF_Energy>  (1108) 
15.98

>  <QM_Energy>  (1108) 
-2.52

>  <source>  (1108) 
ACET_PRPA_11

>  <Index>  (1108) 
17906

$$$$
ACET-pdb3bhh-B-ASP-19:PRPA-pdb3bhh-B-LYS-22
     RDKit          3D

 18 16  0  0  0  0  0  0  0  0999 V2000
    0.0370    1.5120   -0.0181 C   0  0  0  0  0  0  0  0  0  0  0  0
   -0.1257    1.8536    0.9059 H   0  0  0  0  0  0  0  0  0  0  0  0
   -0.6736    1.8483   -0.6321 H   0  0  0  0  0  0  0  0  0  0  0  0
    0.9854    1.9290   -0.3569 H   0  0  0  0  0  0  0  0  0  0  0  0
    0.0000    0.0000    0.0000 C   0  0  0  0  0  0  0  0  0  0  0  0
   -1.0954   -0.6024   -0.0000 O   0  0  0  0  0  1  0  0  0  0  0  0
    1.0954   -0.5867    0.0000 O   0  0  0  0  0  0  0  0  0  0  0  0
   -4.3364    3.3233    0.0757 C   0  0  0  0  0  0  0  0  0  0  0  0
   -4.2380    3.1877   -0.9225 H   0  0  0  0  0  0  0  0  0  0  0  0
   -3.7614    4.2052    0.3583 H   0  0  0  0  0  0  0  0  0  0  0  0
   -5.3962    3.4145    0.3132 H   0  0  0  0  0  0  0  0  0  0  0  0
   -3.7731    2.0568    0.7407 C   0  0  0  0  0  0  0  0  0  0  0  0
   -4.3934    1.7922    1.4759 H   0  0  0  0  0  0  0  0  0  0  0  0
   -3.7398    1.3353    0.0516 H   0  0  0  0  0  0  0  0  0  0  0  0
   -2.3780    2.2280    1.3260 C   0  0  0  0  0  0  0  0  0  0  0  0
   -1.7482    2.4905    0.5957 H   0  0  0  0  0  0  0  0  0  0  0  0
   -2.4020    2.9465    2.0210 H   0  0  0  0  0  0  0  0  0  0  0  0
   -2.0226    1.3051    1.7842 H   0  0  0  0  0  0  0  0  0  0  0  0
  1  5  1  0
  5  6  1  0
  5  7  2  0
  1  2  1  0
  1  3  1  0
  1  4  1  0
  8 12  1  0
 12 15  1  0
  8  9  1  0
  8 10  1  0
  8 11  1  0
 12 13  1  0
 12 14  1  0
 15 16  1  0
 15 17  1  0
 15 18  1  0
M  CHG  1   6  -1
M  END
>  <PDB_ID>  (1109) 
pdb3bhh

>  <RESIDUE_NAME>  (1109) 
ASP   LYS

>  <FRAG_NAME>  (1109) 
ACET   PRPA

>  <FRAG_ATOM_NUM>  (1109) 
fragi: 7  fragj: 11

>  <atom.prop.CHAIN_ID>  (1109) 
A A A A A A A Z Z Z Z Z Z Z Z Z Z Z

>  <atom.prop.IS_HEAVY_ATOM>  (1109) 
1 0 0 0 1 1 1 1 0 0 0 1 0 0 1 0 0 0

>  <DIFUSE_FUNC_ATOM>  (1109) 
atom 6   atom 7   

>  <FINAL_SINGLE_POINT_ENERGY>  (1109) 
0

>  <NONCOV_INTER_ENERGY_QM>  (1109) 
0

>  <FF_Energy>  (1109) 
23.4

>  <QM_Energy>  (1109) 
6.39

>  <source>  (1109) 
ACET_PRPA_11

>  <Index>  (1109) 
18750

$$$$
ACET-pdb1xxg-A-ASP-220:PRPA-pdb1xxg-A-LYS-186
     RDKit          3D

 18 16  0  0  0  0  0  0  0  0999 V2000
    0.0276    1.5210   -0.0218 C   0  0  0  0  0  0  0  0  0  0  0  0
    0.0186    1.8271   -0.9670 H   0  0  0  0  0  0  0  0  0  0  0  0
    0.8518    1.8326    0.4360 H   0  0  0  0  0  0  0  0  0  0  0  0
   -0.8272    1.9704    0.4835 H   0  0  0  0  0  0  0  0  0  0  0  0
    0.0000    0.0000    0.0000 C   0  0  0  0  0  0  0  0  0  0  0  0
   -1.1005   -0.6029   -0.0000 O   0  0  0  0  0  1  0  0  0  0  0  0
    1.1005   -0.5937   -0.0000 O   0  0  0  0  0  0  0  0  0  0  0  0
    5.0097    1.1704    1.2459 C   0  0  0  0  0  0  0  0  0  0  0  0
    5.0976    0.5487    2.0286 H   0  0  0  0  0  0  0  0  0  0  0  0
    4.3576    1.8952    1.4758 H   0  0  0  0  0  0  0  0  0  0  0  0
    5.9815    1.6205    1.0434 H   0  0  0  0  0  0  0  0  0  0  0  0
    4.4863    0.3924    0.0555 C   0  0  0  0  0  0  0  0  0  0  0  0
    5.1194    0.5140   -0.7116 H   0  0  0  0  0  0  0  0  0  0  0  0
    4.4445   -0.5786    0.2971 H   0  0  0  0  0  0  0  0  0  0  0  0
    3.1115    0.8421   -0.3782 C   0  0  0  0  0  0  0  0  0  0  0  0
    2.4707    0.7190    0.3812 H   0  0  0  0  0  0  0  0  0  0  0  0
    3.1454    1.8106   -0.6272 H   0  0  0  0  0  0  0  0  0  0  0  0
    2.7667    0.2632   -1.2350 H   0  0  0  0  0  0  0  0  0  0  0  0
  1  5  1  0
  5  6  1  0
  5  7  2  0
  1  2  1  0
  1  3  1  0
  1  4  1  0
  8 12  1  0
 12 15  1  0
  8  9  1  0
  8 10  1  0
  8 11  1  0
 12 13  1  0
 12 14  1  0
 15 16  1  0
 15 17  1  0
 15 18  1  0
M  CHG  1   6  -1
M  END
>  <PDB_ID>  (1110) 
pdb1xxg

>  <RESIDUE_NAME>  (1110) 
ASP   LYS

>  <FRAG_NAME>  (1110) 
ACET   PRPA

>  <FRAG_ATOM_NUM>  (1110) 
fragi: 7  fragj: 11

>  <atom.prop.CHAIN_ID>  (1110) 
A A A A A A A Z Z Z Z Z Z Z Z Z Z Z

>  <atom.prop.IS_HEAVY_ATOM>  (1110) 
1 0 0 0 1 1 1 1 0 0 0 1 0 0 1 0 0 0

>  <DIFUSE_FUNC_ATOM>  (1110) 
atom 6   atom 7   

>  <FINAL_SINGLE_POINT_ENERGY>  (1110) 
0

>  <NONCOV_INTER_ENERGY_QM>  (1110) 
0

>  <FF_Energy>  (1110) 
24.7

>  <QM_Energy>  (1110) 
9.46

>  <source>  (1110) 
ACET_PRPA_11

>  <Index>  (1110) 
19189

$$$$
ACET-pdb1xv5-A-ASP-1163:PRPA-pdb1xv5-A-VAL-1159
     RDKit          3D

 18 16  0  0  0  0  0  0  0  0999 V2000
    0.0002    1.5136    0.0017 C   0  0  0  0  0  0  0  0  0  0  0  0
    0.9333    1.8335   -0.1107 H   0  0  0  0  0  0  0  0  0  0  0  0
   -0.3784    1.8337    0.8614 H   0  0  0  0  0  0  0  0  0  0  0  0
   -0.5993    1.9311   -0.8073 H   0  0  0  0  0  0  0  0  0  0  0  0
    0.0000    0.0000    0.0000 C   0  0  0  0  0  0  0  0  0  0  0  0
   -1.0991   -0.5953   -0.0000 O   0  0  0  0  0  1  0  0  0  0  0  0
    1.0991   -0.5920    0.0000 O   0  0  0  0  0  0  0  0  0  0  0  0
    1.2822   -4.0840    0.2991 C   0  0  0  0  0  0  0  0  0  0  0  0
    1.8969   -3.6073    0.9550 H   0  0  0  0  0  0  0  0  0  0  0  0
    1.6789   -5.0858    0.1342 H   0  0  0  0  0  0  0  0  0  0  0  0
    0.2769   -4.0752    0.7202 H   0  0  0  0  0  0  0  0  0  0  0  0
    1.2688   -3.2775   -1.0141 C   0  0  0  0  0  0  0  0  0  0  0  0
    0.9432   -2.3638   -0.8036 H   0  0  0  0  0  0  0  0  0  0  0  0
    0.6303   -3.7688   -1.7482 H   0  0  0  0  0  0  0  0  0  0  0  0
    2.6847   -3.1362   -1.5467 C   0  0  0  0  0  0  0  0  0  0  0  0
    2.7897   -3.6917   -2.3718 H   0  0  0  0  0  0  0  0  0  0  0  0
    2.8665   -2.1777   -1.7676 H   0  0  0  0  0  0  0  0  0  0  0  0
    3.3359   -3.4452   -0.8534 H   0  0  0  0  0  0  0  0  0  0  0  0
  1  5  1  0
  5  6  1  0
  5  7  2  0
  1  2  1  0
  1  3  1  0
  1  4  1  0
  8 12  1  0
 12 15  1  0
  8  9  1  0
  8 10  1  0
  8 11  1  0
 12 13  1  0
 12 14  1  0
 15 16  1  0
 15 17  1  0
 15 18  1  0
M  CHG  1   6  -1
M  END
>  <PDB_ID>  (1111) 
pdb1xv5

>  <RESIDUE_NAME>  (1111) 
ASP   VAL

>  <FRAG_NAME>  (1111) 
ACET   PRPA

>  <FRAG_ATOM_NUM>  (1111) 
fragi: 7  fragj: 11

>  <atom.prop.CHAIN_ID>  (1111) 
A A A A A A A Z Z Z Z Z Z Z Z Z Z Z

>  <atom.prop.IS_HEAVY_ATOM>  (1111) 
1 0 0 0 1 1 1 1 0 0 0 1 0 0 1 0 0 0

>  <DIFUSE_FUNC_ATOM>  (1111) 
atom 6   atom 7   

>  <FINAL_SINGLE_POINT_ENERGY>  (1111) 
0

>  <NONCOV_INTER_ENERGY_QM>  (1111) 
0

>  <FF_Energy>  (1111) 
11.7

>  <QM_Energy>  (1111) 
-3.76

>  <source>  (1111) 
ACET_PRPA_11

>  <Index>  (1111) 
19398

$$$$
ACET-pdb1xx4-A-GLU-203:PRPA-pdb1xx4-A-PRO-200
     RDKit          3D

 18 16  0  0  0  0  0  0  0  0999 V2000
   -0.0066    1.5311    0.0097 C   0  0  0  0  0  0  0  0  0  0  0  0
   -0.3410    1.8148    0.8891 H   0  0  0  0  0  0  0  0  0  0  0  0
   -0.5917    1.8241   -0.7245 H   0  0  0  0  0  0  0  0  0  0  0  0
    0.9821    1.9649   -0.1400 H   0  0  0  0  0  0  0  0  0  0  0  0
    0.0000    0.0000    0.0000 C   0  0  0  0  0  0  0  0  0  0  0  0
   -1.0962   -0.6032   -0.0000 O   0  0  0  0  0  1  0  0  0  0  0  0
    1.0962   -0.6010   -0.0000 O   0  0  0  0  0  0  0  0  0  0  0  0
    2.4907   -1.6797    2.9355 C   0  0  0  0  0  0  0  0  0  0  0  0
    2.3885   -2.3830    2.2305 H   0  0  0  0  0  0  0  0  0  0  0  0
    2.4689   -2.1087    3.8380 H   0  0  0  0  0  0  0  0  0  0  0  0
    3.4174   -1.1234    2.7937 H   0  0  0  0  0  0  0  0  0  0  0  0
    1.3961   -0.6404    2.8133 C   0  0  0  0  0  0  0  0  0  0  0  0
    1.1744   -0.4882    1.8565 H   0  0  0  0  0  0  0  0  0  0  0  0
    0.5886   -0.9342    3.3132 H   0  0  0  0  0  0  0  0  0  0  0  0
    2.0123    0.5797    3.4348 C   0  0  0  0  0  0  0  0  0  0  0  0
    1.5759    1.4142    3.1161 H   0  0  0  0  0  0  0  0  0  0  0  0
    1.9883    0.5375    4.4293 H   0  0  0  0  0  0  0  0  0  0  0  0
    3.0387    0.5212    3.0727 H   0  0  0  0  0  0  0  0  0  0  0  0
  1  5  1  0
  5  6  1  0
  5  7  2  0
  1  2  1  0
  1  3  1  0
  1  4  1  0
  8 12  1  0
 12 15  1  0
  8  9  1  0
  8 10  1  0
  8 11  1  0
 12 13  1  0
 12 14  1  0
 15 16  1  0
 15 17  1  0
 15 18  1  0
M  CHG  1   6  -1
M  END
>  <PDB_ID>  (1112) 
pdb1xx4

>  <RESIDUE_NAME>  (1112) 
GLU   PRO

>  <FRAG_NAME>  (1112) 
ACET   PRPA

>  <FRAG_ATOM_NUM>  (1112) 
fragi: 7  fragj: 11

>  <atom.prop.CHAIN_ID>  (1112) 
A A A A A A A Z Z Z Z Z Z Z Z Z Z Z

>  <atom.prop.IS_HEAVY_ATOM>  (1112) 
1 0 0 0 1 1 1 1 0 0 0 1 0 0 1 0 0 0

>  <DIFUSE_FUNC_ATOM>  (1112) 
atom 6   atom 7   

>  <FINAL_SINGLE_POINT_ENERGY>  (1112) 
0

>  <NONCOV_INTER_ENERGY_QM>  (1112) 
0

>  <FF_Energy>  (1112) 
25.12

>  <QM_Energy>  (1112) 
-0.45

>  <source>  (1112) 
ACET_PRPA_11

>  <Index>  (1112) 
19668

$$$$
ACET-pdb3bwd-D-ASP-79:PRPA-pdb3bwd-D-ILE-7
     RDKit          3D

 18 16  0  0  0  0  0  0  0  0999 V2000
   -0.0041    1.5238   -0.0214 C   0  0  0  0  0  0  0  0  0  0  0  0
    0.5125    1.8177   -0.8384 H   0  0  0  0  0  0  0  0  0  0  0  0
    0.5013    1.8400    0.7937 H   0  0  0  0  0  0  0  0  0  0  0  0
   -0.9876    1.9936   -0.0349 H   0  0  0  0  0  0  0  0  0  0  0  0
    0.0000    0.0000    0.0000 C   0  0  0  0  0  0  0  0  0  0  0  0
   -1.0963   -0.6058    0.0000 O   0  0  0  0  0  1  0  0  0  0  0  0
    1.0963   -0.5588    0.0000 O   0  0  0  0  0  0  0  0  0  0  0  0
    3.0039   -1.3338    1.4238 C   0  0  0  0  0  0  0  0  0  0  0  0
    2.7512   -0.4133    1.1525 H   0  0  0  0  0  0  0  0  0  0  0  0
    3.9703   -1.2792    1.9252 H   0  0  0  0  0  0  0  0  0  0  0  0
    2.2817   -1.6283    2.1852 H   0  0  0  0  0  0  0  0  0  0  0  0
    2.9941   -2.3891    0.3028 C   0  0  0  0  0  0  0  0  0  0  0  0
    2.3757   -3.1174    0.5787 H   0  0  0  0  0  0  0  0  0  0  0  0
    2.8152   -1.9305   -0.6697 H   0  0  0  0  0  0  0  0  0  0  0  0
    4.3779   -2.9747    0.1249 C   0  0  0  0  0  0  0  0  0  0  0  0
    4.9785   -2.2500   -0.2043 H   0  0  0  0  0  0  0  0  0  0  0  0
    4.6974   -3.2752    1.0220 H   0  0  0  0  0  0  0  0  0  0  0  0
    4.3691   -3.8117   -0.5733 H   0  0  0  0  0  0  0  0  0  0  0  0
  1  5  1  0
  5  6  1  0
  5  7  2  0
  1  2  1  0
  1  3  1  0
  1  4  1  0
  8 12  1  0
 12 15  1  0
  8  9  1  0
  8 10  1  0
  8 11  1  0
 12 13  1  0
 12 14  1  0
 15 16  1  0
 15 17  1  0
 15 18  1  0
M  CHG  1   6  -1
M  END
>  <PDB_ID>  (1113) 
pdb3bwd

>  <RESIDUE_NAME>  (1113) 
ASP   ILE

>  <FRAG_NAME>  (1113) 
ACET   PRPA

>  <FRAG_ATOM_NUM>  (1113) 
fragi: 7  fragj: 11

>  <atom.prop.CHAIN_ID>  (1113) 
A A A A A A A Z Z Z Z Z Z Z Z Z Z Z

>  <atom.prop.IS_HEAVY_ATOM>  (1113) 
1 0 0 0 1 1 1 1 0 0 0 1 0 0 1 0 0 0

>  <DIFUSE_FUNC_ATOM>  (1113) 
atom 6   atom 7   

>  <FINAL_SINGLE_POINT_ENERGY>  (1113) 
0

>  <NONCOV_INTER_ENERGY_QM>  (1113) 
0

>  <FF_Energy>  (1113) 
21.39

>  <QM_Energy>  (1113) 
4.06

>  <source>  (1113) 
ACET_PRPA_11

>  <Index>  (1113) 
19786

$$$$
ACET-pdb3brs-A-ASP-75:PRPA-pdb3brs-A-LYS-78
     RDKit          3D

 18 16  0  0  0  0  0  0  0  0999 V2000
   -0.0214    1.4703   -0.2398 C   0  0  0  0  0  0  0  0  0  0  0  0
    0.8089    1.8820    0.0870 H   0  0  0  0  0  0  0  0  0  0  0  0
   -0.8214    1.8717    0.1635 H   0  0  0  0  0  0  0  0  0  0  0  0
   -0.0727    1.6790   -1.3084 H   0  0  0  0  0  0  0  0  0  0  0  0
    0.0000    0.0000    0.0000 C   0  0  0  0  0  0  0  0  0  0  0  0
   -1.0713   -0.5634    0.0000 O   0  0  0  0  0  1  0  0  0  0  0  0
    1.0713   -0.6272    0.0000 O   0  0  0  0  0  0  0  0  0  0  0  0
   -3.3149    1.2121    2.4755 C   0  0  0  0  0  0  0  0  0  0  0  0
   -4.0403    0.8356    3.1009 H   0  0  0  0  0  0  0  0  0  0  0  0
   -3.4534    0.7368    1.5044 H   0  0  0  0  0  0  0  0  0  0  0  0
   -3.3533    2.3014    2.4823 H   0  0  0  0  0  0  0  0  0  0  0  0
   -2.0191    0.7445    3.1408 C   0  0  0  0  0  0  0  0  0  0  0  0
   -1.2869    1.3341    2.8811 H   0  0  0  0  0  0  0  0  0  0  0  0
   -2.1499    0.6883    4.1066 H   0  0  0  0  0  0  0  0  0  0  0  0
   -1.6402   -0.7106    2.6400 C   0  0  0  0  0  0  0  0  0  0  0  0
   -2.4803   -1.0826    2.2226 H   0  0  0  0  0  0  0  0  0  0  0  0
   -0.9602   -0.5795    1.9065 H   0  0  0  0  0  0  0  0  0  0  0  0
   -1.2640   -1.3409    3.4458 H   0  0  0  0  0  0  0  0  0  0  0  0
  1  5  1  0
  5  6  1  0
  5  7  2  0
  1  2  1  0
  1  3  1  0
  1  4  1  0
  8 12  1  0
 12 15  1  0
  8  9  1  0
  8 10  1  0
  8 11  1  0
 12 13  1  0
 12 14  1  0
 15 16  1  0
 15 17  1  0
 15 18  1  0
M  CHG  1   6  -1
M  END
>  <PDB_ID>  (1114) 
pdb3brs

>  <RESIDUE_NAME>  (1114) 
ASP   LYS

>  <FRAG_NAME>  (1114) 
ACET   PRPA

>  <FRAG_ATOM_NUM>  (1114) 
fragi: 7  fragj: 11

>  <atom.prop.CHAIN_ID>  (1114) 
A A A A A A A Z Z Z Z Z Z Z Z Z Z Z

>  <atom.prop.IS_HEAVY_ATOM>  (1114) 
1 0 0 0 1 1 1 1 0 0 0 1 0 0 1 0 0 0

>  <DIFUSE_FUNC_ATOM>  (1114) 
atom 6   atom 7   

>  <FINAL_SINGLE_POINT_ENERGY>  (1114) 
0

>  <NONCOV_INTER_ENERGY_QM>  (1114) 
0

>  <FF_Energy>  (1114) 
25.2

>  <QM_Energy>  (1114) 
1.72

>  <source>  (1114) 
ACET_PRPA_11

>  <Index>  (1114) 
19874

$$$$
ACET-pdb3brs-A-ASP-75:PRPA-pdb3brs-A-LYS-78
     RDKit          3D

 18 16  0  0  0  0  0  0  0  0999 V2000
   -0.0214    1.4703   -0.2398 C   0  0  0  0  0  0  0  0  0  0  0  0
    0.8089    1.8820    0.0870 H   0  0  0  0  0  0  0  0  0  0  0  0
   -0.8214    1.8717    0.1635 H   0  0  0  0  0  0  0  0  0  0  0  0
   -0.0727    1.6790   -1.3084 H   0  0  0  0  0  0  0  0  0  0  0  0
    0.0000    0.0000    0.0000 C   0  0  0  0  0  0  0  0  0  0  0  0
   -1.0713   -0.5634    0.0000 O   0  0  0  0  0  1  0  0  0  0  0  0
    1.0713   -0.6272    0.0000 O   0  0  0  0  0  0  0  0  0  0  0  0
   -2.0191    0.7445    3.1408 C   0  0  0  0  0  0  0  0  0  0  0  0
   -1.2869    1.3341    2.8811 H   0  0  0  0  0  0  0  0  0  0  0  0
   -2.1499    0.6883    4.1066 H   0  0  0  0  0  0  0  0  0  0  0  0
   -2.9424    1.0776    2.6668 H   0  0  0  0  0  0  0  0  0  0  0  0
   -1.6402   -0.7106    2.6400 C   0  0  0  0  0  0  0  0  0  0  0  0
   -2.4803   -1.0826    2.2226 H   0  0  0  0  0  0  0  0  0  0  0  0
   -0.9602   -0.5795    1.9065 H   0  0  0  0  0  0  0  0  0  0  0  0
   -1.1490   -1.5334    3.6921 C   0  0  0  0  0  0  0  0  0  0  0  0
   -0.6199   -2.2872    3.3374 H   0  0  0  0  0  0  0  0  0  0  0  0
   -0.6360   -1.0053    4.3486 H   0  0  0  0  0  0  0  0  0  0  0  0
   -2.0347   -1.9334    4.1855 H   0  0  0  0  0  0  0  0  0  0  0  0
  1  5  1  0
  5  6  1  0
  5  7  2  0
  1  2  1  0
  1  3  1  0
  1  4  1  0
  8 12  1  0
 12 15  1  0
  8  9  1  0
  8 10  1  0
  8 11  1  0
 12 13  1  0
 12 14  1  0
 15 16  1  0
 15 17  1  0
 15 18  1  0
M  CHG  1   6  -1
M  END
>  <PDB_ID>  (1115) 
pdb3brs

>  <RESIDUE_NAME>  (1115) 
ASP   LYS

>  <FRAG_NAME>  (1115) 
ACET   PRPA

>  <FRAG_ATOM_NUM>  (1115) 
fragi: 7  fragj: 11

>  <atom.prop.CHAIN_ID>  (1115) 
A A A A A A A Z Z Z Z Z Z Z Z Z Z Z

>  <atom.prop.IS_HEAVY_ATOM>  (1115) 
1 0 0 0 1 1 1 1 0 0 0 1 0 0 1 0 0 0

>  <DIFUSE_FUNC_ATOM>  (1115) 
atom 6   atom 7   

>  <FINAL_SINGLE_POINT_ENERGY>  (1115) 
0

>  <NONCOV_INTER_ENERGY_QM>  (1115) 
0

>  <FF_Energy>  (1115) 
21.79

>  <QM_Energy>  (1115) 
2.38

>  <source>  (1115) 
ACET_PRPA_11

>  <Index>  (1115) 
19884

$$$$
ACET-pdb3brs-A-ASP-75:PRPA-pdb3brs-A-LYS-78
     RDKit          3D

 18 16  0  0  0  0  0  0  0  0999 V2000
   -0.0214    1.4703   -0.2398 C   0  0  0  0  0  0  0  0  0  0  0  0
    0.8089    1.8820    0.0870 H   0  0  0  0  0  0  0  0  0  0  0  0
   -0.8214    1.8717    0.1635 H   0  0  0  0  0  0  0  0  0  0  0  0
   -0.0727    1.6790   -1.3084 H   0  0  0  0  0  0  0  0  0  0  0  0
    0.0000    0.0000    0.0000 C   0  0  0  0  0  0  0  0  0  0  0  0
   -1.0713   -0.5634    0.0000 O   0  0  0  0  0  1  0  0  0  0  0  0
    1.0713   -0.6272    0.0000 O   0  0  0  0  0  0  0  0  0  0  0  0
   -1.6402   -0.7106    2.6400 C   0  0  0  0  0  0  0  0  0  0  0  0
   -2.4803   -1.0826    2.2226 H   0  0  0  0  0  0  0  0  0  0  0  0
   -0.9602   -0.5795    1.9065 H   0  0  0  0  0  0  0  0  0  0  0  0
   -1.9008    0.2902    2.9845 H   0  0  0  0  0  0  0  0  0  0  0  0
   -1.1490   -1.5334    3.6921 C   0  0  0  0  0  0  0  0  0  0  0  0
   -0.6199   -2.2872    3.3374 H   0  0  0  0  0  0  0  0  0  0  0  0
   -0.6360   -1.0053    4.3486 H   0  0  0  0  0  0  0  0  0  0  0  0
   -2.3496   -2.0755    4.3609 C   0  0  0  0  0  0  0  0  0  0  0  0
   -2.5265   -1.6030    5.2031 H   0  0  0  0  0  0  0  0  0  0  0  0
   -3.1227   -2.0681    3.7565 H   0  0  0  0  0  0  0  0  0  0  0  0
   -2.1195   -3.1139    4.5996 H   0  0  0  0  0  0  0  0  0  0  0  0
  1  5  1  0
  5  6  1  0
  5  7  2  0
  1  2  1  0
  1  3  1  0
  1  4  1  0
  8 12  1  0
 12 15  1  0
  8  9  1  0
  8 10  1  0
  8 11  1  0
 12 13  1  0
 12 14  1  0
 15 16  1  0
 15 17  1  0
 15 18  1  0
M  CHG  1   6  -1
M  END
>  <PDB_ID>  (1116) 
pdb3brs

>  <RESIDUE_NAME>  (1116) 
ASP   LYS

>  <FRAG_NAME>  (1116) 
ACET   PRPA

>  <FRAG_ATOM_NUM>  (1116) 
fragi: 7  fragj: 11

>  <atom.prop.CHAIN_ID>  (1116) 
A A A A A A A Z Z Z Z Z Z Z Z Z Z Z

>  <atom.prop.IS_HEAVY_ATOM>  (1116) 
1 0 0 0 1 1 1 1 0 0 0 1 0 0 1 0 0 0

>  <DIFUSE_FUNC_ATOM>  (1116) 
atom 6   atom 7   

>  <FINAL_SINGLE_POINT_ENERGY>  (1116) 
0

>  <NONCOV_INTER_ENERGY_QM>  (1116) 
0

>  <FF_Energy>  (1116) 
19.86

>  <QM_Energy>  (1116) 
3.46

>  <source>  (1116) 
ACET_PRPA_11

>  <Index>  (1116) 
19895

$$$$
ACET-pdb1y2q-A-GLU-46:PRPA-pdb1y2q-A-ARG-2
     RDKit          3D

 18 16  0  0  0  0  0  0  0  0999 V2000
    0.0031    1.5353    0.0179 C   0  0  0  0  0  0  0  0  0  0  0  0
    0.9373    1.8265   -0.0565 H   0  0  0  0  0  0  0  0  0  0  0  0
   -0.4150    1.8182    0.8595 H   0  0  0  0  0  0  0  0  0  0  0  0
   -0.5580    1.9728   -0.8078 H   0  0  0  0  0  0  0  0  0  0  0  0
    0.0000    0.0000    0.0000 C   0  0  0  0  0  0  0  0  0  0  0  0
   -1.0988   -0.6012   -0.0000 O   0  0  0  0  0  1  0  0  0  0  0  0
    1.0988   -0.6110   -0.0000 O   0  0  0  0  0  0  0  0  0  0  0  0
    0.1929   -0.8206    4.6540 C   0  0  0  0  0  0  0  0  0  0  0  0
    0.6990   -0.1592    5.2075 H   0  0  0  0  0  0  0  0  0  0  0  0
    0.4035   -1.7462    4.9657 H   0  0  0  0  0  0  0  0  0  0  0  0
   -0.8717   -0.6458    4.8092 H   0  0  0  0  0  0  0  0  0  0  0  0
    0.6745   -0.6909    3.2092 C   0  0  0  0  0  0  0  0  0  0  0  0
    0.2680    0.1183    2.7946 H   0  0  0  0  0  0  0  0  0  0  0  0
    1.6677   -0.6225    3.1952 H   0  0  0  0  0  0  0  0  0  0  0  0
    0.2732   -1.9064    2.3651 C   0  0  0  0  0  0  0  0  0  0  0  0
   -0.7109   -2.0567    2.4920 H   0  0  0  0  0  0  0  0  0  0  0  0
    0.4461   -1.6802    1.4016 H   0  0  0  0  0  0  0  0  0  0  0  0
    0.8074   -2.8232    2.6149 H   0  0  0  0  0  0  0  0  0  0  0  0
  1  5  1  0
  5  6  1  0
  5  7  2  0
  1  2  1  0
  1  3  1  0
  1  4  1  0
  8 12  1  0
 12 15  1  0
  8  9  1  0
  8 10  1  0
  8 11  1  0
 12 13  1  0
 12 14  1  0
 15 16  1  0
 15 17  1  0
 15 18  1  0
M  CHG  1   6  -1
M  END
>  <PDB_ID>  (1117) 
pdb1y2q

>  <RESIDUE_NAME>  (1117) 
GLU   ARG

>  <FRAG_NAME>  (1117) 
ACET   PRPA

>  <FRAG_ATOM_NUM>  (1117) 
fragi: 7  fragj: 11

>  <atom.prop.CHAIN_ID>  (1117) 
A A A A A A A Z Z Z Z Z Z Z Z Z Z Z

>  <atom.prop.IS_HEAVY_ATOM>  (1117) 
1 0 0 0 1 1 1 1 0 0 0 1 0 0 1 0 0 0

>  <DIFUSE_FUNC_ATOM>  (1117) 
atom 6   atom 7   

>  <FINAL_SINGLE_POINT_ENERGY>  (1117) 
0

>  <NONCOV_INTER_ENERGY_QM>  (1117) 
0

>  <FF_Energy>  (1117) 
22.61

>  <QM_Energy>  (1117) 
-0.38

>  <source>  (1117) 
ACET_PRPA_11

>  <Index>  (1117) 
20039

$$$$
ACET-pdb3bun-B-ASP-275:PRPA-pdb3bun-B-LYS-78
     RDKit          3D

 18 16  0  0  0  0  0  0  0  0999 V2000
   -0.0157    1.5273    0.0054 C   0  0  0  0  0  0  0  0  0  0  0  0
    0.5889    1.8497   -0.7082 H   0  0  0  0  0  0  0  0  0  0  0  0
    0.2813    1.8411    0.8950 H   0  0  0  0  0  0  0  0  0  0  0  0
   -1.0130    1.9240   -0.1842 H   0  0  0  0  0  0  0  0  0  0  0  0
    0.0000    0.0000    0.0000 C   0  0  0  0  0  0  0  0  0  0  0  0
   -1.0960   -0.6034    0.0000 O   0  0  0  0  0  1  0  0  0  0  0  0
    1.0960   -0.6035    0.0000 O   0  0  0  0  0  0  0  0  0  0  0  0
    4.1926   -2.7725    1.4333 C   0  0  0  0  0  0  0  0  0  0  0  0
    3.5522   -3.1802    0.7785 H   0  0  0  0  0  0  0  0  0  0  0  0
    3.9860   -3.1186    2.3516 H   0  0  0  0  0  0  0  0  0  0  0  0
    5.1976   -3.1018    1.1694 H   0  0  0  0  0  0  0  0  0  0  0  0
    3.9774   -1.2608    1.4333 C   0  0  0  0  0  0  0  0  0  0  0  0
    3.1502   -1.0485    1.9633 H   0  0  0  0  0  0  0  0  0  0  0  0
    4.7643   -0.8179    1.8742 H   0  0  0  0  0  0  0  0  0  0  0  0
    3.8153   -0.6769    0.0249 C   0  0  0  0  0  0  0  0  0  0  0  0
    4.4232   -1.1613   -0.5900 H   0  0  0  0  0  0  0  0  0  0  0  0
    2.8708   -0.7804   -0.2539 H   0  0  0  0  0  0  0  0  0  0  0  0
    4.0726    0.3822    0.0136 H   0  0  0  0  0  0  0  0  0  0  0  0
  1  5  1  0
  5  6  1  0
  5  7  2  0
  1  2  1  0
  1  3  1  0
  1  4  1  0
  8 12  1  0
 12 15  1  0
  8  9  1  0
  8 10  1  0
  8 11  1  0
 12 13  1  0
 12 14  1  0
 15 16  1  0
 15 17  1  0
 15 18  1  0
M  CHG  1   6  -1
M  END
>  <PDB_ID>  (1118) 
pdb3bun

>  <RESIDUE_NAME>  (1118) 
ASP   LYS

>  <FRAG_NAME>  (1118) 
ACET   PRPA

>  <FRAG_ATOM_NUM>  (1118) 
fragi: 7  fragj: 11

>  <atom.prop.CHAIN_ID>  (1118) 
A A A A A A A Z Z Z Z Z Z Z Z Z Z Z

>  <atom.prop.IS_HEAVY_ATOM>  (1118) 
1 0 0 0 1 1 1 1 0 0 0 1 0 0 1 0 0 0

>  <DIFUSE_FUNC_ATOM>  (1118) 
atom 6   atom 7   

>  <FINAL_SINGLE_POINT_ENERGY>  (1118) 
0

>  <NONCOV_INTER_ENERGY_QM>  (1118) 
0

>  <FF_Energy>  (1118) 
28.31

>  <QM_Energy>  (1118) 
-0.04

>  <source>  (1118) 
ACET_PRPA_11

>  <Index>  (1118) 
20089

$$$$
ACET-pdb3bun-B-ASP-275:PRPA-pdb3bun-B-LYS-78
     RDKit          3D

 18 16  0  0  0  0  0  0  0  0999 V2000
   -0.0157    1.5273    0.0054 C   0  0  0  0  0  0  0  0  0  0  0  0
    0.5889    1.8497   -0.7082 H   0  0  0  0  0  0  0  0  0  0  0  0
    0.2813    1.8411    0.8950 H   0  0  0  0  0  0  0  0  0  0  0  0
   -1.0130    1.9240   -0.1842 H   0  0  0  0  0  0  0  0  0  0  0  0
    0.0000    0.0000    0.0000 C   0  0  0  0  0  0  0  0  0  0  0  0
   -1.0960   -0.6034    0.0000 O   0  0  0  0  0  1  0  0  0  0  0  0
    1.0960   -0.6035    0.0000 O   0  0  0  0  0  0  0  0  0  0  0  0
    3.9774   -1.2608    1.4333 C   0  0  0  0  0  0  0  0  0  0  0  0
    3.1502   -1.0485    1.9633 H   0  0  0  0  0  0  0  0  0  0  0  0
    4.7643   -0.8179    1.8742 H   0  0  0  0  0  0  0  0  0  0  0  0
    4.1310   -2.3399    1.4333 H   0  0  0  0  0  0  0  0  0  0  0  0
    3.8153   -0.6769    0.0249 C   0  0  0  0  0  0  0  0  0  0  0  0
    4.4232   -1.1613   -0.5900 H   0  0  0  0  0  0  0  0  0  0  0  0
    2.8708   -0.7804   -0.2539 H   0  0  0  0  0  0  0  0  0  0  0  0
    4.1741    0.8000    0.0092 C   0  0  0  0  0  0  0  0  0  0  0  0
    4.0366    1.1604   -0.8961 H   0  0  0  0  0  0  0  0  0  0  0  0
    3.6356    1.2752    0.6824 H   0  0  0  0  0  0  0  0  0  0  0  0
    5.2291    0.8803    0.2713 H   0  0  0  0  0  0  0  0  0  0  0  0
  1  5  1  0
  5  6  1  0
  5  7  2  0
  1  2  1  0
  1  3  1  0
  1  4  1  0
  8 12  1  0
 12 15  1  0
  8  9  1  0
  8 10  1  0
  8 11  1  0
 12 13  1  0
 12 14  1  0
 15 16  1  0
 15 17  1  0
 15 18  1  0
M  CHG  1   6  -1
M  END
>  <PDB_ID>  (1119) 
pdb3bun

>  <RESIDUE_NAME>  (1119) 
ASP   LYS

>  <FRAG_NAME>  (1119) 
ACET   PRPA

>  <FRAG_ATOM_NUM>  (1119) 
fragi: 7  fragj: 11

>  <atom.prop.CHAIN_ID>  (1119) 
A A A A A A A Z Z Z Z Z Z Z Z Z Z Z

>  <atom.prop.IS_HEAVY_ATOM>  (1119) 
1 0 0 0 1 1 1 1 0 0 0 1 0 0 1 0 0 0

>  <DIFUSE_FUNC_ATOM>  (1119) 
atom 6   atom 7   

>  <FINAL_SINGLE_POINT_ENERGY>  (1119) 
0

>  <NONCOV_INTER_ENERGY_QM>  (1119) 
0

>  <FF_Energy>  (1119) 
32.58

>  <QM_Energy>  (1119) 
-0.86

>  <source>  (1119) 
ACET_PRPA_11

>  <Index>  (1119) 
20095

$$$$
ACET-pdb3btx-A-GLU-170:PRPA-pdb3btx-A-ARG-198
     RDKit          3D

 18 16  0  0  0  0  0  0  0  0999 V2000
   -0.0121    1.5003    0.0643 C   0  0  0  0  0  0  0  0  0  0  0  0
   -0.9361    1.7957   -0.0712 H   0  0  0  0  0  0  0  0  0  0  0  0
    0.5984    1.8317   -0.6265 H   0  0  0  0  0  0  0  0  0  0  0  0
    0.3312    1.8494    1.0381 H   0  0  0  0  0  0  0  0  0  0  0  0
    0.0000    0.0000    0.0000 C   0  0  0  0  0  0  0  0  0  0  0  0
   -1.0971   -0.5851   -0.0000 O   0  0  0  0  0  1  0  0  0  0  0  0
    1.0971   -0.5921    0.0000 O   0  0  0  0  0  0  0  0  0  0  0  0
   -3.1880   -3.1047   -0.0931 C   0  0  0  0  0  0  0  0  0  0  0  0
   -2.8495   -2.2921    0.3793 H   0  0  0  0  0  0  0  0  0  0  0  0
   -2.5870   -3.8788    0.1014 H   0  0  0  0  0  0  0  0  0  0  0  0
   -4.1801   -3.3366    0.2943 H   0  0  0  0  0  0  0  0  0  0  0  0
   -3.1248   -2.8308   -1.5974 C   0  0  0  0  0  0  0  0  0  0  0  0
   -3.4130   -3.6417   -2.0944 H   0  0  0  0  0  0  0  0  0  0  0  0
   -3.7109   -2.0599   -1.8191 H   0  0  0  0  0  0  0  0  0  0  0  0
   -1.6976   -2.4825   -2.0472 C   0  0  0  0  0  0  0  0  0  0  0  0
   -1.7522   -2.1324   -2.9803 H   0  0  0  0  0  0  0  0  0  0  0  0
   -1.3559   -1.7687   -1.4386 H   0  0  0  0  0  0  0  0  0  0  0  0
   -1.0236   -3.3386   -2.0187 H   0  0  0  0  0  0  0  0  0  0  0  0
  1  5  1  0
  5  6  1  0
  5  7  2  0
  1  2  1  0
  1  3  1  0
  1  4  1  0
  8 12  1  0
 12 15  1  0
  8  9  1  0
  8 10  1  0
  8 11  1  0
 12 13  1  0
 12 14  1  0
 15 16  1  0
 15 17  1  0
 15 18  1  0
M  CHG  1   6  -1
M  END
>  <PDB_ID>  (1120) 
pdb3btx

>  <RESIDUE_NAME>  (1120) 
GLU   ARG

>  <FRAG_NAME>  (1120) 
ACET   PRPA

>  <FRAG_ATOM_NUM>  (1120) 
fragi: 7  fragj: 11

>  <atom.prop.CHAIN_ID>  (1120) 
A A A A A A A Z Z Z Z Z Z Z Z Z Z Z

>  <atom.prop.IS_HEAVY_ATOM>  (1120) 
1 0 0 0 1 1 1 1 0 0 0 1 0 0 1 0 0 0

>  <DIFUSE_FUNC_ATOM>  (1120) 
atom 6   atom 7   

>  <FINAL_SINGLE_POINT_ENERGY>  (1120) 
0

>  <NONCOV_INTER_ENERGY_QM>  (1120) 
0

>  <FF_Energy>  (1120) 
16.29

>  <QM_Energy>  (1120) 
-2.22

>  <source>  (1120) 
ACET_PRPA_11

>  <Index>  (1120) 
20112

$$$$
ACET-pdb1y2a-C-GLU-139:PRPA-pdb1y2a-C-ARG-101
     RDKit          3D

 18 16  0  0  0  0  0  0  0  0999 V2000
   -0.0107    1.5151    0.0182 C   0  0  0  0  0  0  0  0  0  0  0  0
    0.8146    1.8246   -0.4166 H   0  0  0  0  0  0  0  0  0  0  0  0
   -0.0692    1.8007    0.9565 H   0  0  0  0  0  0  0  0  0  0  0  0
   -0.8592    1.9355   -0.5218 H   0  0  0  0  0  0  0  0  0  0  0  0
    0.0000    0.0000    0.0000 C   0  0  0  0  0  0  0  0  0  0  0  0
   -1.0956   -0.5915   -0.0000 O   0  0  0  0  0  1  0  0  0  0  0  0
    1.0956   -0.5997    0.0000 O   0  0  0  0  0  0  0  0  0  0  0  0
   -3.6992   -2.3339   -0.7925 C   0  0  0  0  0  0  0  0  0  0  0  0
   -3.8421   -1.4509   -1.2352 H   0  0  0  0  0  0  0  0  0  0  0  0
   -3.2158   -2.2045    0.0709 H   0  0  0  0  0  0  0  0  0  0  0  0
   -4.6754   -2.7664   -0.5736 H   0  0  0  0  0  0  0  0  0  0  0  0
   -2.8425   -3.1822   -1.6923 C   0  0  0  0  0  0  0  0  0  0  0  0
   -3.0990   -4.1354   -1.5955 H   0  0  0  0  0  0  0  0  0  0  0  0
   -2.9499   -2.8835   -2.6332 H   0  0  0  0  0  0  0  0  0  0  0  0
   -1.4074   -3.0288   -1.3021 C   0  0  0  0  0  0  0  0  0  0  0  0
   -0.8946   -2.7024   -2.0957 H   0  0  0  0  0  0  0  0  0  0  0  0
   -1.3485   -2.3558   -0.5655 H   0  0  0  0  0  0  0  0  0  0  0  0
   -0.9771   -3.9704   -0.9612 H   0  0  0  0  0  0  0  0  0  0  0  0
  1  5  1  0
  5  6  1  0
  5  7  2  0
  1  2  1  0
  1  3  1  0
  1  4  1  0
  8 12  1  0
 12 15  1  0
  8  9  1  0
  8 10  1  0
  8 11  1  0
 12 13  1  0
 12 14  1  0
 15 16  1  0
 15 17  1  0
 15 18  1  0
M  CHG  1   6  -1
M  END
>  <PDB_ID>  (1121) 
pdb1y2a

>  <RESIDUE_NAME>  (1121) 
GLU   ARG

>  <FRAG_NAME>  (1121) 
ACET   PRPA

>  <FRAG_ATOM_NUM>  (1121) 
fragi: 7  fragj: 11

>  <atom.prop.CHAIN_ID>  (1121) 
A A A A A A A Z Z Z Z Z Z Z Z Z Z Z

>  <atom.prop.IS_HEAVY_ATOM>  (1121) 
1 0 0 0 1 1 1 1 0 0 0 1 0 0 1 0 0 0

>  <DIFUSE_FUNC_ATOM>  (1121) 
atom 6   atom 7   

>  <FINAL_SINGLE_POINT_ENERGY>  (1121) 
0

>  <NONCOV_INTER_ENERGY_QM>  (1121) 
0

>  <FF_Energy>  (1121) 
17.88

>  <QM_Energy>  (1121) 
-0.53

>  <source>  (1121) 
ACET_PRPA_11

>  <Index>  (1121) 
21760

$$$$
ACET-pdb3btn-A-ASP-411:PRPA-pdb3btn-A-LYS-50
     RDKit          3D

 18 16  0  0  0  0  0  0  0  0999 V2000
   -0.0174    1.5641   -0.1179 C   0  0  0  0  0  0  0  0  0  0  0  0
    0.6359    1.8210   -0.8111 H   0  0  0  0  0  0  0  0  0  0  0  0
    0.2202    1.9348    0.7634 H   0  0  0  0  0  0  0  0  0  0  0  0
   -0.9941    1.9541   -0.4044 H   0  0  0  0  0  0  0  0  0  0  0  0
    0.0000    0.0000    0.0000 C   0  0  0  0  0  0  0  0  0  0  0  0
   -1.0708   -0.5814    0.0000 O   0  0  0  0  0  1  0  0  0  0  0  0
    1.0708   -0.6174    0.0000 O   0  0  0  0  0  0  0  0  0  0  0  0
   -0.2567   -2.4031    3.5266 C   0  0  0  0  0  0  0  0  0  0  0  0
   -1.2194   -2.2332    3.5794 H   0  0  0  0  0  0  0  0  0  0  0  0
    0.2562   -1.6192    3.2440 H   0  0  0  0  0  0  0  0  0  0  0  0
    0.1034   -2.7386    4.4991 H   0  0  0  0  0  0  0  0  0  0  0  0
   -0.0282   -3.5559    2.4249 C   0  0  0  0  0  0  0  0  0  0  0  0
    0.7070   -4.1373    2.7427 H   0  0  0  0  0  0  0  0  0  0  0  0
   -0.8733   -4.0633    2.3371 H   0  0  0  0  0  0  0  0  0  0  0  0
    0.3716   -3.0160    0.9667 C   0  0  0  0  0  0  0  0  0  0  0  0
   -0.1530   -3.5163    0.3255 H   0  0  0  0  0  0  0  0  0  0  0  0
    0.2169   -2.0606    0.9659 H   0  0  0  0  0  0  0  0  0  0  0  0
    1.4334   -3.2408    0.8648 H   0  0  0  0  0  0  0  0  0  0  0  0
  1  5  1  0
  5  6  1  0
  5  7  2  0
  1  2  1  0
  1  3  1  0
  1  4  1  0
  8 12  1  0
 12 15  1  0
  8  9  1  0
  8 10  1  0
  8 11  1  0
 12 13  1  0
 12 14  1  0
 15 16  1  0
 15 17  1  0
 15 18  1  0
M  CHG  1   6  -1
M  END
>  <PDB_ID>  (1122) 
pdb3btn

>  <RESIDUE_NAME>  (1122) 
ASP   LYS

>  <FRAG_NAME>  (1122) 
ACET   PRPA

>  <FRAG_ATOM_NUM>  (1122) 
fragi: 7  fragj: 11

>  <atom.prop.CHAIN_ID>  (1122) 
A A A A A A A Z Z Z Z Z Z Z Z Z Z Z

>  <atom.prop.IS_HEAVY_ATOM>  (1122) 
1 0 0 0 1 1 1 1 0 0 0 1 0 0 1 0 0 0

>  <DIFUSE_FUNC_ATOM>  (1122) 
atom 6   atom 7   

>  <FINAL_SINGLE_POINT_ENERGY>  (1122) 
0

>  <NONCOV_INTER_ENERGY_QM>  (1122) 
0

>  <FF_Energy>  (1122) 
20.36

>  <QM_Energy>  (1122) 
3.35

>  <source>  (1122) 
ACET_PRPA_11

>  <Index>  (1122) 
22080

$$$$
ACET-pdb1y6z-A-ASP-82:PRPA-pdb1y6z-A-ARG-69
     RDKit          3D

 18 16  0  0  0  0  0  0  0  0999 V2000
    0.0278    1.5421    0.0093 C   0  0  0  0  0  0  0  0  0  0  0  0
    0.3643    1.8468   -0.8729 H   0  0  0  0  0  0  0  0  0  0  0  0
    0.6366    1.8333    0.7356 H   0  0  0  0  0  0  0  0  0  0  0  0
   -0.9545    1.9827    0.1795 H   0  0  0  0  0  0  0  0  0  0  0  0
    0.0000    0.0000    0.0000 C   0  0  0  0  0  0  0  0  0  0  0  0
   -1.1018   -0.6171    0.0000 O   0  0  0  0  0  1  0  0  0  0  0  0
    1.1018   -0.5793    0.0000 O   0  0  0  0  0  0  0  0  0  0  0  0
   -0.7167    0.2617   -4.6432 C   0  0  0  0  0  0  0  0  0  0  0  0
   -1.2854   -0.1310   -3.9110 H   0  0  0  0  0  0  0  0  0  0  0  0
   -0.7028   -0.4326   -5.4834 H   0  0  0  0  0  0  0  0  0  0  0  0
   -1.1370    1.2262   -4.9282 H   0  0  0  0  0  0  0  0  0  0  0  0
    0.7118    0.4543   -4.1061 C   0  0  0  0  0  0  0  0  0  0  0  0
    1.0282   -0.4117   -3.7313 H   0  0  0  0  0  0  0  0  0  0  0  0
    1.2973    0.7370   -4.8597 H   0  0  0  0  0  0  0  0  0  0  0  0
    0.8520    1.5211   -2.9860 C   0  0  0  0  0  0  0  0  0  0  0  0
    0.0905    2.1685   -3.0624 H   0  0  0  0  0  0  0  0  0  0  0  0
    0.8032    1.0610   -2.0972 H   0  0  0  0  0  0  0  0  0  0  0  0
    1.7840    2.0850   -3.0256 H   0  0  0  0  0  0  0  0  0  0  0  0
  1  5  1  0
  5  6  1  0
  5  7  2  0
  1  2  1  0
  1  3  1  0
  1  4  1  0
  8 12  1  0
 12 15  1  0
  8  9  1  0
  8 10  1  0
  8 11  1  0
 12 13  1  0
 12 14  1  0
 15 16  1  0
 15 17  1  0
 15 18  1  0
M  CHG  1   6  -1
M  END
>  <PDB_ID>  (1123) 
pdb1y6z

>  <RESIDUE_NAME>  (1123) 
ASP   ARG

>  <FRAG_NAME>  (1123) 
ACET   PRPA

>  <FRAG_ATOM_NUM>  (1123) 
fragi: 7  fragj: 11

>  <atom.prop.CHAIN_ID>  (1123) 
A A A A A A A Z Z Z Z Z Z Z Z Z Z Z

>  <atom.prop.IS_HEAVY_ATOM>  (1123) 
1 0 0 0 1 1 1 1 0 0 0 1 0 0 1 0 0 0

>  <DIFUSE_FUNC_ATOM>  (1123) 
atom 6   atom 7   

>  <FINAL_SINGLE_POINT_ENERGY>  (1123) 
0

>  <NONCOV_INTER_ENERGY_QM>  (1123) 
0

>  <FF_Energy>  (1123) 
31.95

>  <QM_Energy>  (1123) 
3.62

>  <source>  (1123) 
ACET_PRPA_11

>  <Index>  (1123) 
23523

$$$$
ACET-pdb1y6z-A-ASP-82:PRPA-pdb1y6z-A-ARG-69
     RDKit          3D

 18 16  0  0  0  0  0  0  0  0999 V2000
    0.0278    1.5421    0.0093 C   0  0  0  0  0  0  0  0  0  0  0  0
    0.3643    1.8468   -0.8729 H   0  0  0  0  0  0  0  0  0  0  0  0
    0.6366    1.8333    0.7356 H   0  0  0  0  0  0  0  0  0  0  0  0
   -0.9545    1.9827    0.1795 H   0  0  0  0  0  0  0  0  0  0  0  0
    0.0000    0.0000    0.0000 C   0  0  0  0  0  0  0  0  0  0  0  0
   -1.1018   -0.6171    0.0000 O   0  0  0  0  0  1  0  0  0  0  0  0
    1.1018   -0.5793    0.0000 O   0  0  0  0  0  0  0  0  0  0  0  0
    0.7118    0.4543   -4.1061 C   0  0  0  0  0  0  0  0  0  0  0  0
    1.0282   -0.4117   -3.7313 H   0  0  0  0  0  0  0  0  0  0  0  0
    1.2973    0.7370   -4.8597 H   0  0  0  0  0  0  0  0  0  0  0  0
   -0.3004    0.3178   -4.4867 H   0  0  0  0  0  0  0  0  0  0  0  0
    0.8520    1.5211   -2.9860 C   0  0  0  0  0  0  0  0  0  0  0  0
    0.0905    2.1685   -3.0624 H   0  0  0  0  0  0  0  0  0  0  0  0
    0.8032    1.0610   -2.0972 H   0  0  0  0  0  0  0  0  0  0  0  0
    2.1616    2.3134   -3.0416 C   0  0  0  0  0  0  0  0  0  0  0  0
    2.3844    2.4710   -4.0106 H   0  0  0  0  0  0  0  0  0  0  0  0
    1.9978    3.2067   -2.6053 H   0  0  0  0  0  0  0  0  0  0  0  0
    3.0131    1.8353   -2.5576 H   0  0  0  0  0  0  0  0  0  0  0  0
  1  5  1  0
  5  6  1  0
  5  7  2  0
  1  2  1  0
  1  3  1  0
  1  4  1  0
  8 12  1  0
 12 15  1  0
  8  9  1  0
  8 10  1  0
  8 11  1  0
 12 13  1  0
 12 14  1  0
 15 16  1  0
 15 17  1  0
 15 18  1  0
M  CHG  1   6  -1
M  END
>  <PDB_ID>  (1124) 
pdb1y6z

>  <RESIDUE_NAME>  (1124) 
ASP   ARG

>  <FRAG_NAME>  (1124) 
ACET   PRPA

>  <FRAG_ATOM_NUM>  (1124) 
fragi: 7  fragj: 11

>  <atom.prop.CHAIN_ID>  (1124) 
A A A A A A A Z Z Z Z Z Z Z Z Z Z Z

>  <atom.prop.IS_HEAVY_ATOM>  (1124) 
1 0 0 0 1 1 1 1 0 0 0 1 0 0 1 0 0 0

>  <DIFUSE_FUNC_ATOM>  (1124) 
atom 6   atom 7   

>  <FINAL_SINGLE_POINT_ENERGY>  (1124) 
0

>  <NONCOV_INTER_ENERGY_QM>  (1124) 
0

>  <FF_Energy>  (1124) 
34.7

>  <QM_Energy>  (1124) 
3.59

>  <source>  (1124) 
ACET_PRPA_11

>  <Index>  (1124) 
23526

$$$$
ACET-pdb3bur-A-GLU-152:PRPA-pdb3bur-A-LYS-182
     RDKit          3D

 18 16  0  0  0  0  0  0  0  0999 V2000
   -0.0325    1.5130    0.0025 C   0  0  0  0  0  0  0  0  0  0  0  0
   -0.4613    1.8032    0.8448 H   0  0  0  0  0  0  0  0  0  0  0  0
   -0.5565    1.8036   -0.7844 H   0  0  0  0  0  0  0  0  0  0  0  0
    0.9486    1.9846   -0.0535 H   0  0  0  0  0  0  0  0  0  0  0  0
    0.0000    0.0000    0.0000 C   0  0  0  0  0  0  0  0  0  0  0  0
   -1.1020   -0.6022    0.0000 O   0  0  0  0  0  1  0  0  0  0  0  0
    1.1020   -0.5870    0.0000 O   0  0  0  0  0  0  0  0  0  0  0  0
   -5.3956    0.9892   -0.3646 C   0  0  0  0  0  0  0  0  0  0  0  0
   -5.4225    0.0002   -0.2230 H   0  0  0  0  0  0  0  0  0  0  0  0
   -5.3844    1.1880   -1.3435 H   0  0  0  0  0  0  0  0  0  0  0  0
   -6.2813    1.4392    0.0837 H   0  0  0  0  0  0  0  0  0  0  0  0
   -4.1153    1.5378    0.2604 C   0  0  0  0  0  0  0  0  0  0  0  0
   -3.4984    1.8095   -0.4614 H   0  0  0  0  0  0  0  0  0  0  0  0
   -4.3451    2.3001    0.8460 H   0  0  0  0  0  0  0  0  0  0  0  0
   -3.4402    0.4618    1.1018 C   0  0  0  0  0  0  0  0  0  0  0  0
   -4.1038   -0.2661    1.2940 H   0  0  0  0  0  0  0  0  0  0  0  0
   -2.6741    0.0733    0.5820 H   0  0  0  0  0  0  0  0  0  0  0  0
   -3.0628    0.8540    2.0461 H   0  0  0  0  0  0  0  0  0  0  0  0
  1  5  1  0
  5  6  1  0
  5  7  2  0
  1  2  1  0
  1  3  1  0
  1  4  1  0
  8 12  1  0
 12 15  1  0
  8  9  1  0
  8 10  1  0
  8 11  1  0
 12 13  1  0
 12 14  1  0
 15 16  1  0
 15 17  1  0
 15 18  1  0
M  CHG  1   6  -1
M  END
>  <PDB_ID>  (1125) 
pdb3bur

>  <RESIDUE_NAME>  (1125) 
GLU   LYS

>  <FRAG_NAME>  (1125) 
ACET   PRPA

>  <FRAG_ATOM_NUM>  (1125) 
fragi: 7  fragj: 11

>  <atom.prop.CHAIN_ID>  (1125) 
A A A A A A A Z Z Z Z Z Z Z Z Z Z Z

>  <atom.prop.IS_HEAVY_ATOM>  (1125) 
1 0 0 0 1 1 1 1 0 0 0 1 0 0 1 0 0 0

>  <DIFUSE_FUNC_ATOM>  (1125) 
atom 6   atom 7   

>  <FINAL_SINGLE_POINT_ENERGY>  (1125) 
0

>  <NONCOV_INTER_ENERGY_QM>  (1125) 
0

>  <FF_Energy>  (1125) 
25.44

>  <QM_Energy>  (1125) 
0.08

>  <source>  (1125) 
ACET_PRPA_11

>  <Index>  (1125) 
24558

$$$$
ACET-pdb3bhh-C-GLU-100:PRPA-pdb3bhh-C-LYS-299
     RDKit          3D

 18 16  0  0  0  0  0  0  0  0999 V2000
    0.0562    1.5440    0.0046 C   0  0  0  0  0  0  0  0  0  0  0  0
    0.5806    1.8232   -0.7935 H   0  0  0  0  0  0  0  0  0  0  0  0
    0.5243    1.8195    0.8383 H   0  0  0  0  0  0  0  0  0  0  0  0
   -0.8926    2.0795   -0.0277 H   0  0  0  0  0  0  0  0  0  0  0  0
    0.0000    0.0000    0.0000 C   0  0  0  0  0  0  0  0  0  0  0  0
   -1.1151   -0.6072    0.0000 O   0  0  0  0  0  1  0  0  0  0  0  0
    1.1151   -0.6036    0.0000 O   0  0  0  0  0  0  0  0  0  0  0  0
    5.2422   -1.4713    0.8970 C   0  0  0  0  0  0  0  0  0  0  0  0
    5.7787   -0.6728    1.1779 H   0  0  0  0  0  0  0  0  0  0  0  0
    5.0804   -1.4262   -0.0908 H   0  0  0  0  0  0  0  0  0  0  0  0
    5.8097   -2.3744    1.1219 H   0  0  0  0  0  0  0  0  0  0  0  0
    3.9091   -1.4472    1.6174 C   0  0  0  0  0  0  0  0  0  0  0  0
    3.3770   -2.2479    1.3357 H   0  0  0  0  0  0  0  0  0  0  0  0
    4.0751   -1.4928    2.6047 H   0  0  0  0  0  0  0  0  0  0  0  0
    3.1057   -0.2040    1.3193 C   0  0  0  0  0  0  0  0  0  0  0  0
    3.6282    0.6015    1.6041 H   0  0  0  0  0  0  0  0  0  0  0  0
    2.9301   -0.1536    0.3350 H   0  0  0  0  0  0  0  0  0  0  0  0
    2.1551   -0.2202    1.8525 H   0  0  0  0  0  0  0  0  0  0  0  0
  1  5  1  0
  5  6  1  0
  5  7  2  0
  1  2  1  0
  1  3  1  0
  1  4  1  0
  8 12  1  0
 12 15  1  0
  8  9  1  0
  8 10  1  0
  8 11  1  0
 12 13  1  0
 12 14  1  0
 15 16  1  0
 15 17  1  0
 15 18  1  0
M  CHG  1   6  -1
M  END
>  <PDB_ID>  (1126) 
pdb3bhh

>  <RESIDUE_NAME>  (1126) 
GLU   LYS

>  <FRAG_NAME>  (1126) 
ACET   PRPA

>  <FRAG_ATOM_NUM>  (1126) 
fragi: 7  fragj: 11

>  <atom.prop.CHAIN_ID>  (1126) 
A A A A A A A Z Z Z Z Z Z Z Z Z Z Z

>  <atom.prop.IS_HEAVY_ATOM>  (1126) 
1 0 0 0 1 1 1 1 0 0 0 1 0 0 1 0 0 0

>  <DIFUSE_FUNC_ATOM>  (1126) 
atom 6   atom 7   

>  <FINAL_SINGLE_POINT_ENERGY>  (1126) 
0

>  <NONCOV_INTER_ENERGY_QM>  (1126) 
0

>  <FF_Energy>  (1126) 
30.64

>  <QM_Energy>  (1126) 
9.66

>  <source>  (1126) 
ACET_PRPA_11

>  <Index>  (1126) 
24785

$$$$
ACET-pdb1x0u-C-ASP-369:PRPA-pdb1x0u-C-ARG-408
     RDKit          3D

 18 16  0  0  0  0  0  0  0  0999 V2000
   -0.0253    1.5355   -0.0209 C   0  0  0  0  0  0  0  0  0  0  0  0
    0.1440    1.8379   -0.9475 H   0  0  0  0  0  0  0  0  0  0  0  0
    0.6696    1.8682    0.5977 H   0  0  0  0  0  0  0  0  0  0  0  0
   -0.9874    1.9363    0.2985 H   0  0  0  0  0  0  0  0  0  0  0  0
    0.0000    0.0000    0.0000 C   0  0  0  0  0  0  0  0  0  0  0  0
   -1.1003   -0.6035   -0.0000 O   0  0  0  0  0  1  0  0  0  0  0  0
    1.1003   -0.6045    0.0000 O   0  0  0  0  0  0  0  0  0  0  0  0
   -1.0404   -0.8115   -2.8971 C   0  0  0  0  0  0  0  0  0  0  0  0
   -0.1871   -0.4793   -3.3056 H   0  0  0  0  0  0  0  0  0  0  0  0
   -1.0835   -0.5086   -1.9422 H   0  0  0  0  0  0  0  0  0  0  0  0
   -1.8697   -0.3494   -3.4327 H   0  0  0  0  0  0  0  0  0  0  0  0
   -1.0210   -2.3153   -2.9161 C   0  0  0  0  0  0  0  0  0  0  0  0
   -1.9267   -2.6667   -2.7330 H   0  0  0  0  0  0  0  0  0  0  0  0
   -0.6797   -2.6371   -3.7869 H   0  0  0  0  0  0  0  0  0  0  0  0
   -0.0910   -2.8064   -1.8315 C   0  0  0  0  0  0  0  0  0  0  0  0
    0.5673   -2.0814   -1.6331 H   0  0  0  0  0  0  0  0  0  0  0  0
   -0.6370   -2.9975   -1.0169 H   0  0  0  0  0  0  0  0  0  0  0  0
    0.4440   -3.7087   -2.1276 H   0  0  0  0  0  0  0  0  0  0  0  0
  1  5  1  0
  5  6  1  0
  5  7  2  0
  1  2  1  0
  1  3  1  0
  1  4  1  0
  8 12  1  0
 12 15  1  0
  8  9  1  0
  8 10  1  0
  8 11  1  0
 12 13  1  0
 12 14  1  0
 15 16  1  0
 15 17  1  0
 15 18  1  0
M  CHG  1   6  -1
M  END
>  <PDB_ID>  (1127) 
pdb1x0u

>  <RESIDUE_NAME>  (1127) 
ASP   ARG

>  <FRAG_NAME>  (1127) 
ACET   PRPA

>  <FRAG_ATOM_NUM>  (1127) 
fragi: 7  fragj: 11

>  <atom.prop.CHAIN_ID>  (1127) 
A A A A A A A Z Z Z Z Z Z Z Z Z Z Z

>  <atom.prop.IS_HEAVY_ATOM>  (1127) 
1 0 0 0 1 1 1 1 0 0 0 1 0 0 1 0 0 0

>  <DIFUSE_FUNC_ATOM>  (1127) 
atom 6   atom 7   

>  <FINAL_SINGLE_POINT_ENERGY>  (1127) 
0

>  <NONCOV_INTER_ENERGY_QM>  (1127) 
0

>  <FF_Energy>  (1127) 
16.58

>  <QM_Energy>  (1127) 
-1.06

>  <source>  (1127) 
ACET_PRPA_11

>  <Index>  (1127) 
26198

$$$$
ACET-pdb1x0u-C-ASP-494:PRPA-pdb1x0u-C-ILE-490
     RDKit          3D

 18 16  0  0  0  0  0  0  0  0999 V2000
   -0.0208    1.5225   -0.0308 C   0  0  0  0  0  0  0  0  0  0  0  0
   -0.7715    1.8424    0.5391 H   0  0  0  0  0  0  0  0  0  0  0  0
   -0.1494    1.8211   -0.9705 H   0  0  0  0  0  0  0  0  0  0  0  0
    0.8979    1.9756    0.3417 H   0  0  0  0  0  0  0  0  0  0  0  0
    0.0000    0.0000    0.0000 C   0  0  0  0  0  0  0  0  0  0  0  0
   -1.0872   -0.6145    0.0000 O   0  0  0  0  0  1  0  0  0  0  0  0
    1.0872   -0.5940    0.0000 O   0  0  0  0  0  0  0  0  0  0  0  0
   -4.4681    2.9262    0.0501 C   0  0  0  0  0  0  0  0  0  0  0  0
   -4.9402    2.9672   -0.8216 H   0  0  0  0  0  0  0  0  0  0  0  0
   -5.1365    2.4543    0.7703 H   0  0  0  0  0  0  0  0  0  0  0  0
   -4.2018    3.9240    0.3989 H   0  0  0  0  0  0  0  0  0  0  0  0
   -3.1985    2.0798   -0.1347 C   0  0  0  0  0  0  0  0  0  0  0  0
   -2.6587    2.4685   -0.8809 H   0  0  0  0  0  0  0  0  0  0  0  0
   -2.6586    2.1278    0.7062 H   0  0  0  0  0  0  0  0  0  0  0  0
   -3.4472    0.5814   -0.4519 C   0  0  0  0  0  0  0  0  0  0  0  0
   -3.9656    0.5232   -1.2970 H   0  0  0  0  0  0  0  0  0  0  0  0
   -2.5673    0.1332   -0.5502 H   0  0  0  0  0  0  0  0  0  0  0  0
   -3.9593    0.1846    0.3005 H   0  0  0  0  0  0  0  0  0  0  0  0
  1  5  1  0
  5  6  1  0
  5  7  2  0
  1  2  1  0
  1  3  1  0
  1  4  1  0
  8 12  1  0
 12 15  1  0
  8  9  1  0
  8 10  1  0
  8 11  1  0
 12 13  1  0
 12 14  1  0
 15 16  1  0
 15 17  1  0
 15 18  1  0
M  CHG  1   6  -1
M  END
>  <PDB_ID>  (1128) 
pdb1x0u

>  <RESIDUE_NAME>  (1128) 
ASP   ILE

>  <FRAG_NAME>  (1128) 
ACET   PRPA

>  <FRAG_ATOM_NUM>  (1128) 
fragi: 7  fragj: 11

>  <atom.prop.CHAIN_ID>  (1128) 
A A A A A A A Z Z Z Z Z Z Z Z Z Z Z

>  <atom.prop.IS_HEAVY_ATOM>  (1128) 
1 0 0 0 1 1 1 1 0 0 0 1 0 0 1 0 0 0

>  <DIFUSE_FUNC_ATOM>  (1128) 
atom 6   atom 7   

>  <FINAL_SINGLE_POINT_ENERGY>  (1128) 
0

>  <NONCOV_INTER_ENERGY_QM>  (1128) 
0

>  <FF_Energy>  (1128) 
43.18

>  <QM_Energy>  (1128) 
4.21

>  <source>  (1128) 
ACET_PRPA_11

>  <Index>  (1128) 
26970

$$$$
ACET-pdb3c3v-A-GLU-152:PRPA-pdb3c3v-A-GLN-96
     RDKit          3D

 18 16  0  0  0  0  0  0  0  0999 V2000
   -0.0304    1.5435    0.1049 C   0  0  0  0  0  0  0  0  0  0  0  0
   -0.3353    1.8631   -0.7740 H   0  0  0  0  0  0  0  0  0  0  0  0
    0.8958    1.8141    0.2981 H   0  0  0  0  0  0  0  0  0  0  0  0
   -0.7047    1.8785    0.8931 H   0  0  0  0  0  0  0  0  0  0  0  0
    0.0000    0.0000    0.0000 C   0  0  0  0  0  0  0  0  0  0  0  0
   -1.1304   -0.5224   -0.0000 O   0  0  0  0  0  1  0  0  0  0  0  0
    1.1304   -0.6372    0.0000 O   0  0  0  0  0  0  0  0  0  0  0  0
    1.8227    1.8090   -2.2894 C   0  0  0  0  0  0  0  0  0  0  0  0
    1.0735    1.4870   -1.6947 H   0  0  0  0  0  0  0  0  0  0  0  0
    1.4380    2.6754   -2.8275 H   0  0  0  0  0  0  0  0  0  0  0  0
    2.6840    2.0742   -1.6764 H   0  0  0  0  0  0  0  0  0  0  0  0
    2.0995    0.5966   -3.2031 C   0  0  0  0  0  0  0  0  0  0  0  0
    2.2833   -0.2061   -2.5893 H   0  0  0  0  0  0  0  0  0  0  0  0
    1.2171    0.3742   -3.6822 H   0  0  0  0  0  0  0  0  0  0  0  0
    3.1747    0.6933   -4.2002 C   0  0  0  0  0  0  0  0  0  0  0  0
    2.8630    1.1478   -5.0293 H   0  0  0  0  0  0  0  0  0  0  0  0
    3.9732    1.1589   -3.8314 H   0  0  0  0  0  0  0  0  0  0  0  0
    3.5269   -0.2879   -4.5187 H   0  0  0  0  0  0  0  0  0  0  0  0
  1  5  1  0
  5  6  1  0
  5  7  2  0
  1  2  1  0
  1  3  1  0
  1  4  1  0
  8 12  1  0
 12 15  1  0
  8  9  1  0
  8 10  1  0
  8 11  1  0
 12 13  1  0
 12 14  1  0
 15 16  1  0
 15 17  1  0
 15 18  1  0
M  CHG  1   6  -1
M  END
>  <PDB_ID>  (1129) 
pdb3c3v

>  <RESIDUE_NAME>  (1129) 
GLU   GLN

>  <FRAG_NAME>  (1129) 
ACET   PRPA

>  <FRAG_ATOM_NUM>  (1129) 
fragi: 7  fragj: 11

>  <atom.prop.CHAIN_ID>  (1129) 
A A A A A A A Z Z Z Z Z Z Z Z Z Z Z

>  <atom.prop.IS_HEAVY_ATOM>  (1129) 
1 0 0 0 1 1 1 1 0 0 0 1 0 0 1 0 0 0

>  <DIFUSE_FUNC_ATOM>  (1129) 
atom 6   atom 7   

>  <FINAL_SINGLE_POINT_ENERGY>  (1129) 
0

>  <NONCOV_INTER_ENERGY_QM>  (1129) 
0

>  <FF_Energy>  (1129) 
17.42

>  <QM_Energy>  (1129) 
1.77

>  <source>  (1129) 
ACET_PRPA_11

>  <Index>  (1129) 
27468

$$$$
ACET-pdb3c2g-A-ASP-198:PRPA-pdb3c2g-A-GLN-201
     RDKit          3D

 18 16  0  0  0  0  0  0  0  0999 V2000
    0.0045    1.5241    0.0150 C   0  0  0  0  0  0  0  0  0  0  0  0
   -0.6575    1.8503   -0.6472 H   0  0  0  0  0  0  0  0  0  0  0  0
    0.9160    1.8416   -0.2103 H   0  0  0  0  0  0  0  0  0  0  0  0
   -0.2642    1.9329    0.9891 H   0  0  0  0  0  0  0  0  0  0  0  0
    0.0000    0.0000    0.0000 C   0  0  0  0  0  0  0  0  0  0  0  0
   -1.0973   -0.6034   -0.0000 O   0  0  0  0  0  1  0  0  0  0  0  0
    1.0973   -0.5963    0.0000 O   0  0  0  0  0  0  0  0  0  0  0  0
    4.5547   -0.3592    1.1859 C   0  0  0  0  0  0  0  0  0  0  0  0
    5.2079   -1.0234    0.8109 H   0  0  0  0  0  0  0  0  0  0  0  0
    3.6778   -0.9041    1.5353 H   0  0  0  0  0  0  0  0  0  0  0  0
    5.0449    0.1519    2.0145 H   0  0  0  0  0  0  0  0  0  0  0  0
    4.1875    0.6194    0.0631 C   0  0  0  0  0  0  0  0  0  0  0  0
    3.5184    1.2759    0.4198 H   0  0  0  0  0  0  0  0  0  0  0  0
    5.0169    1.1144   -0.2104 H   0  0  0  0  0  0  0  0  0  0  0  0
    3.5989   -0.0407   -1.1650 C   0  0  0  0  0  0  0  0  0  0  0  0
    4.2662   -0.6940   -1.5289 H   0  0  0  0  0  0  0  0  0  0  0  0
    2.7685   -0.5334   -0.8981 H   0  0  0  0  0  0  0  0  0  0  0  0
    3.3470    0.6736   -1.9490 H   0  0  0  0  0  0  0  0  0  0  0  0
  1  5  1  0
  5  6  1  0
  5  7  2  0
  1  2  1  0
  1  3  1  0
  1  4  1  0
  8 12  1  0
 12 15  1  0
  8  9  1  0
  8 10  1  0
  8 11  1  0
 12 13  1  0
 12 14  1  0
 15 16  1  0
 15 17  1  0
 15 18  1  0
M  CHG  1   6  -1
M  END
>  <PDB_ID>  (1130) 
pdb3c2g

>  <RESIDUE_NAME>  (1130) 
ASP   GLN

>  <FRAG_NAME>  (1130) 
ACET   PRPA

>  <FRAG_ATOM_NUM>  (1130) 
fragi: 7  fragj: 11

>  <atom.prop.CHAIN_ID>  (1130) 
A A A A A A A Z Z Z Z Z Z Z Z Z Z Z

>  <atom.prop.IS_HEAVY_ATOM>  (1130) 
1 0 0 0 1 1 1 1 0 0 0 1 0 0 1 0 0 0

>  <DIFUSE_FUNC_ATOM>  (1130) 
atom 6   atom 7   

>  <FINAL_SINGLE_POINT_ENERGY>  (1130) 
0

>  <NONCOV_INTER_ENERGY_QM>  (1130) 
0

>  <FF_Energy>  (1130) 
14.39

>  <QM_Energy>  (1130) 
-1.7

>  <source>  (1130) 
ACET_PRPA_11

>  <Index>  (1130) 
27678

$$$$
ACET-pdb3c8f-A-ASP-89:PRPA-pdb3c8f-A-VAL-2
     RDKit          3D

 18 16  0  0  0  0  0  0  0  0999 V2000
   -0.0091    1.5365   -0.0091 C   0  0  0  0  0  0  0  0  0  0  0  0
   -0.5828    1.8495    0.7353 H   0  0  0  0  0  0  0  0  0  0  0  0
   -0.3612    1.8414   -0.8825 H   0  0  0  0  0  0  0  0  0  0  0  0
    0.9858    1.9611    0.1253 H   0  0  0  0  0  0  0  0  0  0  0  0
    0.0000    0.0000    0.0000 C   0  0  0  0  0  0  0  0  0  0  0  0
   -1.0912   -0.6009    0.0000 O   0  0  0  0  0  1  0  0  0  0  0  0
    1.0912   -0.6138    0.0000 O   0  0  0  0  0  0  0  0  0  0  0  0
   -5.8932   -1.3421    1.2047 C   0  0  0  0  0  0  0  0  0  0  0  0
   -6.3330   -1.9861    1.8651 H   0  0  0  0  0  0  0  0  0  0  0  0
   -5.9866   -1.7699    0.2065 H   0  0  0  0  0  0  0  0  0  0  0  0
   -6.3658   -0.3683    1.3326 H   0  0  0  0  0  0  0  0  0  0  0  0
   -4.4059   -1.2238    1.6094 C   0  0  0  0  0  0  0  0  0  0  0  0
   -3.9866   -2.1120    1.4688 H   0  0  0  0  0  0  0  0  0  0  0  0
   -4.3216   -0.9129    2.6507 H   0  0  0  0  0  0  0  0  0  0  0  0
   -3.6992   -0.2416    0.6912 C   0  0  0  0  0  0  0  0  0  0  0  0
   -3.4908    0.5977    1.1949 H   0  0  0  0  0  0  0  0  0  0  0  0
   -2.8484   -0.6480    0.3563 H   0  0  0  0  0  0  0  0  0  0  0  0
   -4.2900   -0.0236   -0.0859 H   0  0  0  0  0  0  0  0  0  0  0  0
  1  5  1  0
  5  6  1  0
  5  7  2  0
  1  2  1  0
  1  3  1  0
  1  4  1  0
  8 12  1  0
 12 15  1  0
  8  9  1  0
  8 10  1  0
  8 11  1  0
 12 13  1  0
 12 14  1  0
 15 16  1  0
 15 17  1  0
 15 18  1  0
M  CHG  1   6  -1
M  END
>  <PDB_ID>  (1131) 
pdb3c8f

>  <RESIDUE_NAME>  (1131) 
ASP   VAL

>  <FRAG_NAME>  (1131) 
ACET   PRPA

>  <FRAG_ATOM_NUM>  (1131) 
fragi: 7  fragj: 11

>  <atom.prop.CHAIN_ID>  (1131) 
A A A A A A A Z Z Z Z Z Z Z Z Z Z Z

>  <atom.prop.IS_HEAVY_ATOM>  (1131) 
1 0 0 0 1 1 1 1 0 0 0 1 0 0 1 0 0 0

>  <DIFUSE_FUNC_ATOM>  (1131) 
atom 6   atom 7   

>  <FINAL_SINGLE_POINT_ENERGY>  (1131) 
0

>  <NONCOV_INTER_ENERGY_QM>  (1131) 
0

>  <FF_Energy>  (1131) 
28.99

>  <QM_Energy>  (1131) 
2.23

>  <source>  (1131) 
ACET_PRPA_11

>  <Index>  (1131) 
28522

$$$$
ACET-pdb3c8f-A-ASP-89:PRPA-pdb3c8f-A-VAL-2
     RDKit          3D

 18 16  0  0  0  0  0  0  0  0999 V2000
   -0.0091    1.5365   -0.0091 C   0  0  0  0  0  0  0  0  0  0  0  0
   -0.5828    1.8495    0.7353 H   0  0  0  0  0  0  0  0  0  0  0  0
   -0.3612    1.8414   -0.8825 H   0  0  0  0  0  0  0  0  0  0  0  0
    0.9858    1.9611    0.1253 H   0  0  0  0  0  0  0  0  0  0  0  0
    0.0000    0.0000    0.0000 C   0  0  0  0  0  0  0  0  0  0  0  0
   -1.0912   -0.6009    0.0000 O   0  0  0  0  0  1  0  0  0  0  0  0
    1.0912   -0.6138    0.0000 O   0  0  0  0  0  0  0  0  0  0  0  0
   -3.6992   -0.2416    0.6912 C   0  0  0  0  0  0  0  0  0  0  0  0
   -3.4908    0.5977    1.1949 H   0  0  0  0  0  0  0  0  0  0  0  0
   -2.8484   -0.6480    0.3563 H   0  0  0  0  0  0  0  0  0  0  0  0
   -4.2900   -0.0236   -0.0859 H   0  0  0  0  0  0  0  0  0  0  0  0
   -4.4059   -1.2238    1.6094 C   0  0  0  0  0  0  0  0  0  0  0  0
   -3.9866   -2.1120    1.4688 H   0  0  0  0  0  0  0  0  0  0  0  0
   -5.4546   -1.3072    1.3241 H   0  0  0  0  0  0  0  0  0  0  0  0
   -4.2878   -0.7881    3.0684 C   0  0  0  0  0  0  0  0  0  0  0  0
   -3.6313   -1.3794    3.5344 H   0  0  0  0  0  0  0  0  0  0  0  0
   -3.9744    0.1598    3.1027 H   0  0  0  0  0  0  0  0  0  0  0  0
   -5.1821   -0.8650    3.5066 H   0  0  0  0  0  0  0  0  0  0  0  0
  1  5  1  0
  5  6  1  0
  5  7  2  0
  1  2  1  0
  1  3  1  0
  1  4  1  0
  8 12  1  0
 12 15  1  0
  8  9  1  0
  8 10  1  0
  8 11  1  0
 12 13  1  0
 12 14  1  0
 15 16  1  0
 15 17  1  0
 15 18  1  0
M  CHG  1   6  -1
M  END
>  <PDB_ID>  (1132) 
pdb3c8f

>  <RESIDUE_NAME>  (1132) 
ASP   VAL

>  <FRAG_NAME>  (1132) 
ACET   PRPA

>  <FRAG_ATOM_NUM>  (1132) 
fragi: 7  fragj: 11

>  <atom.prop.CHAIN_ID>  (1132) 
A A A A A A A Z Z Z Z Z Z Z Z Z Z Z

>  <atom.prop.IS_HEAVY_ATOM>  (1132) 
1 0 0 0 1 1 1 1 0 0 0 1 0 0 1 0 0 0

>  <DIFUSE_FUNC_ATOM>  (1132) 
atom 6   atom 7   

>  <FINAL_SINGLE_POINT_ENERGY>  (1132) 
0

>  <NONCOV_INTER_ENERGY_QM>  (1132) 
0

>  <FF_Energy>  (1132) 
29.17

>  <QM_Energy>  (1132) 
2.08

>  <source>  (1132) 
ACET_PRPA_11

>  <Index>  (1132) 
28525

$$$$
ACET-pdb1y10-B-GLU-160:PRPA-pdb1y10-B-LEU-31
     RDKit          3D

 18 16  0  0  0  0  0  0  0  0999 V2000
   -0.0398    1.5128    0.0524 C   0  0  0  0  0  0  0  0  0  0  0  0
   -0.4981    1.8259   -0.7582 H   0  0  0  0  0  0  0  0  0  0  0  0
    0.8881    1.8318    0.1047 H   0  0  0  0  0  0  0  0  0  0  0  0
   -0.5837    1.8831    0.9214 H   0  0  0  0  0  0  0  0  0  0  0  0
    0.0000    0.0000    0.0000 C   0  0  0  0  0  0  0  0  0  0  0  0
   -1.0959   -0.5882    0.0000 O   0  0  0  0  0  1  0  0  0  0  0  0
    1.0959   -0.6155   -0.0000 O   0  0  0  0  0  0  0  0  0  0  0  0
   -2.7102   -3.1571   -2.0376 C   0  0  0  0  0  0  0  0  0  0  0  0
   -2.8986   -3.4599   -1.0913 H   0  0  0  0  0  0  0  0  0  0  0  0
   -1.7269   -3.5276   -2.3275 H   0  0  0  0  0  0  0  0  0  0  0  0
   -3.4957   -3.5419   -2.6880 H   0  0  0  0  0  0  0  0  0  0  0  0
   -2.7503   -1.6208   -2.0599 C   0  0  0  0  0  0  0  0  0  0  0  0
   -2.0321   -1.2885   -1.4426 H   0  0  0  0  0  0  0  0  0  0  0  0
   -2.5396   -1.3230   -2.9946 H   0  0  0  0  0  0  0  0  0  0  0  0
   -4.0593   -0.9167   -1.6465 C   0  0  0  0  0  0  0  0  0  0  0  0
   -4.7754   -1.1595   -2.3090 H   0  0  0  0  0  0  0  0  0  0  0  0
   -4.3814   -1.1992   -0.6443 H   0  0  0  0  0  0  0  0  0  0  0  0
   -3.9620    0.1664   -1.7200 H   0  0  0  0  0  0  0  0  0  0  0  0
  1  5  1  0
  5  6  1  0
  5  7  2  0
  1  2  1  0
  1  3  1  0
  1  4  1  0
  8 12  1  0
 12 15  1  0
  8  9  1  0
  8 10  1  0
  8 11  1  0
 12 13  1  0
 12 14  1  0
 15 16  1  0
 15 17  1  0
 15 18  1  0
M  CHG  1   6  -1
M  END
>  <PDB_ID>  (1133) 
pdb1y10

>  <RESIDUE_NAME>  (1133) 
GLU   LEU

>  <FRAG_NAME>  (1133) 
ACET   PRPA

>  <FRAG_ATOM_NUM>  (1133) 
fragi: 7  fragj: 11

>  <atom.prop.CHAIN_ID>  (1133) 
A A A A A A A Z Z Z Z Z Z Z Z Z Z Z

>  <atom.prop.IS_HEAVY_ATOM>  (1133) 
1 0 0 0 1 1 1 1 0 0 0 1 0 0 1 0 0 0

>  <DIFUSE_FUNC_ATOM>  (1133) 
atom 6   atom 7   

>  <FINAL_SINGLE_POINT_ENERGY>  (1133) 
0

>  <NONCOV_INTER_ENERGY_QM>  (1133) 
0

>  <FF_Energy>  (1133) 
21.63

>  <QM_Energy>  (1133) 
-1.45

>  <source>  (1133) 
ACET_PRPA_11

>  <Index>  (1133) 
28704

$$$$
ACET-pdb1y10-B-GLU-160:PRPA-pdb1y10-B-LEU-31
     RDKit          3D

 18 16  0  0  0  0  0  0  0  0999 V2000
   -0.0398    1.5128    0.0524 C   0  0  0  0  0  0  0  0  0  0  0  0
   -0.4981    1.8259   -0.7582 H   0  0  0  0  0  0  0  0  0  0  0  0
    0.8881    1.8318    0.1047 H   0  0  0  0  0  0  0  0  0  0  0  0
   -0.5837    1.8831    0.9214 H   0  0  0  0  0  0  0  0  0  0  0  0
    0.0000    0.0000    0.0000 C   0  0  0  0  0  0  0  0  0  0  0  0
   -1.0959   -0.5882    0.0000 O   0  0  0  0  0  1  0  0  0  0  0  0
    1.0959   -0.6155   -0.0000 O   0  0  0  0  0  0  0  0  0  0  0  0
   -2.7503   -1.6208   -2.0599 C   0  0  0  0  0  0  0  0  0  0  0  0
   -2.0321   -1.2885   -1.4426 H   0  0  0  0  0  0  0  0  0  0  0  0
   -2.5396   -1.3230   -2.9946 H   0  0  0  0  0  0  0  0  0  0  0  0
   -2.7218   -2.7103   -2.0441 H   0  0  0  0  0  0  0  0  0  0  0  0
   -4.0593   -0.9167   -1.6465 C   0  0  0  0  0  0  0  0  0  0  0  0
   -4.7754   -1.1595   -2.3090 H   0  0  0  0  0  0  0  0  0  0  0  0
   -4.3814   -1.1992   -0.6443 H   0  0  0  0  0  0  0  0  0  0  0  0
   -3.9244    0.5857   -1.7484 C   0  0  0  0  0  0  0  0  0  0  0  0
   -3.7093    0.8442   -2.6932 H   0  0  0  0  0  0  0  0  0  0  0  0
   -4.7844    1.0235   -1.4760 H   0  0  0  0  0  0  0  0  0  0  0  0
   -3.1887    0.9027   -1.1454 H   0  0  0  0  0  0  0  0  0  0  0  0
  1  5  1  0
  5  6  1  0
  5  7  2  0
  1  2  1  0
  1  3  1  0
  1  4  1  0
  8 12  1  0
 12 15  1  0
  8  9  1  0
  8 10  1  0
  8 11  1  0
 12 13  1  0
 12 14  1  0
 15 16  1  0
 15 17  1  0
 15 18  1  0
M  CHG  1   6  -1
M  END
>  <PDB_ID>  (1134) 
pdb1y10

>  <RESIDUE_NAME>  (1134) 
GLU   LEU

>  <FRAG_NAME>  (1134) 
ACET   PRPA

>  <FRAG_ATOM_NUM>  (1134) 
fragi: 7  fragj: 11

>  <atom.prop.CHAIN_ID>  (1134) 
A A A A A A A Z Z Z Z Z Z Z Z Z Z Z

>  <atom.prop.IS_HEAVY_ATOM>  (1134) 
1 0 0 0 1 1 1 1 0 0 0 1 0 0 1 0 0 0

>  <DIFUSE_FUNC_ATOM>  (1134) 
atom 6   atom 7   

>  <FINAL_SINGLE_POINT_ENERGY>  (1134) 
0

>  <NONCOV_INTER_ENERGY_QM>  (1134) 
0

>  <FF_Energy>  (1134) 
34.06

>  <QM_Energy>  (1134) 
-1.76

>  <source>  (1134) 
ACET_PRPA_11

>  <Index>  (1134) 
28735

$$$$
ACET-pdb1ydw-A-ASP-146:PRPA-pdb1ydw-A-ARG-149
     RDKit          3D

 18 16  0  0  0  0  0  0  0  0999 V2000
   -0.0091    1.4673    0.0094 C   0  0  0  0  0  0  0  0  0  0  0  0
    0.8521    1.8108   -0.3607 H   0  0  0  0  0  0  0  0  0  0  0  0
   -0.1314    1.7963    0.9428 H   0  0  0  0  0  0  0  0  0  0  0  0
   -0.8194    1.8709   -0.5977 H   0  0  0  0  0  0  0  0  0  0  0  0
    0.0000    0.0000    0.0000 C   0  0  0  0  0  0  0  0  0  0  0  0
   -1.1128   -0.5904    0.0000 O   0  0  0  0  0  1  0  0  0  0  0  0
    1.1128   -0.5663   -0.0000 O   0  0  0  0  0  0  0  0  0  0  0  0
    0.6139   -0.3152    3.2079 C   0  0  0  0  0  0  0  0  0  0  0  0
    0.5675   -0.1934    2.2159 H   0  0  0  0  0  0  0  0  0  0  0  0
    1.1441    0.4334    3.6084 H   0  0  0  0  0  0  0  0  0  0  0  0
   -0.4020   -0.2446    3.5965 H   0  0  0  0  0  0  0  0  0  0  0  0
    1.3051   -1.6044    3.5028 C   0  0  0  0  0  0  0  0  0  0  0  0
    1.9824   -1.4808    4.2295 H   0  0  0  0  0  0  0  0  0  0  0  0
    0.6419   -2.3006    3.7829 H   0  0  0  0  0  0  0  0  0  0  0  0
    2.0519   -2.1579    2.2756 C   0  0  0  0  0  0  0  0  0  0  0  0
    1.9368   -3.1509    2.2738 H   0  0  0  0  0  0  0  0  0  0  0  0
    1.6212   -1.7706    1.4601 H   0  0  0  0  0  0  0  0  0  0  0  0
    3.1152   -1.9184    2.2703 H   0  0  0  0  0  0  0  0  0  0  0  0
  1  5  1  0
  5  6  1  0
  5  7  2  0
  1  2  1  0
  1  3  1  0
  1  4  1  0
  8 12  1  0
 12 15  1  0
  8  9  1  0
  8 10  1  0
  8 11  1  0
 12 13  1  0
 12 14  1  0
 15 16  1  0
 15 17  1  0
 15 18  1  0
M  CHG  1   6  -1
M  END
>  <PDB_ID>  (1135) 
pdb1ydw

>  <RESIDUE_NAME>  (1135) 
ASP   ARG

>  <FRAG_NAME>  (1135) 
ACET   PRPA

>  <FRAG_ATOM_NUM>  (1135) 
fragi: 7  fragj: 11

>  <atom.prop.CHAIN_ID>  (1135) 
A A A A A A A Z Z Z Z Z Z Z Z Z Z Z

>  <atom.prop.IS_HEAVY_ATOM>  (1135) 
1 0 0 0 1 1 1 1 0 0 0 1 0 0 1 0 0 0

>  <DIFUSE_FUNC_ATOM>  (1135) 
atom 6   atom 7   

>  <FINAL_SINGLE_POINT_ENERGY>  (1135) 
0

>  <NONCOV_INTER_ENERGY_QM>  (1135) 
0

>  <FF_Energy>  (1135) 
12.87

>  <QM_Energy>  (1135) 
-2.23

>  <source>  (1135) 
ACET_PRPA_11

>  <Index>  (1135) 
30642

$$$$
ACET-pdb3bwq-B-GLU-111:PRPA-pdb3bwq-B-ARG-293
     RDKit          3D

 18 16  0  0  0  0  0  0  0  0999 V2000
    0.0076    1.5200   -0.0073 C   0  0  0  0  0  0  0  0  0  0  0  0
    0.3724    1.8120   -0.8731 H   0  0  0  0  0  0  0  0  0  0  0  0
    0.5625    1.8176    0.7485 H   0  0  0  0  0  0  0  0  0  0  0  0
   -0.9855    1.9547    0.1063 H   0  0  0  0  0  0  0  0  0  0  0  0
    0.0000    0.0000    0.0000 C   0  0  0  0  0  0  0  0  0  0  0  0
   -1.0991   -0.6037    0.0000 O   0  0  0  0  0  1  0  0  0  0  0  0
    1.0991   -0.5987   -0.0000 O   0  0  0  0  0  0  0  0  0  0  0  0
   -4.9822   -0.6380    2.6446 C   0  0  0  0  0  0  0  0  0  0  0  0
   -5.1178   -1.5563    2.2339 H   0  0  0  0  0  0  0  0  0  0  0  0
   -5.4619    0.1000    2.0016 H   0  0  0  0  0  0  0  0  0  0  0  0
   -5.3804   -0.6499    3.6592 H   0  0  0  0  0  0  0  0  0  0  0  0
   -3.4725   -0.3985    2.7303 C   0  0  0  0  0  0  0  0  0  0  0  0
   -3.2721    0.4717    2.2936 H   0  0  0  0  0  0  0  0  0  0  0  0
   -3.2177   -0.3712    3.6904 H   0  0  0  0  0  0  0  0  0  0  0  0
   -2.6517   -1.4724    2.0501 C   0  0  0  0  0  0  0  0  0  0  0  0
   -3.2394   -2.2377    1.8029 H   0  0  0  0  0  0  0  0  0  0  0  0
   -2.2166   -1.0975    1.2371 H   0  0  0  0  0  0  0  0  0  0  0  0
   -1.8694   -1.8449    2.7115 H   0  0  0  0  0  0  0  0  0  0  0  0
  1  5  1  0
  5  6  1  0
  5  7  2  0
  1  2  1  0
  1  3  1  0
  1  4  1  0
  8 12  1  0
 12 15  1  0
  8  9  1  0
  8 10  1  0
  8 11  1  0
 12 13  1  0
 12 14  1  0
 15 16  1  0
 15 17  1  0
 15 18  1  0
M  CHG  1   6  -1
M  END
>  <PDB_ID>  (1136) 
pdb3bwq

>  <RESIDUE_NAME>  (1136) 
GLU   ARG

>  <FRAG_NAME>  (1136) 
ACET   PRPA

>  <FRAG_ATOM_NUM>  (1136) 
fragi: 7  fragj: 11

>  <atom.prop.CHAIN_ID>  (1136) 
A A A A A A A Z Z Z Z Z Z Z Z Z Z Z

>  <atom.prop.IS_HEAVY_ATOM>  (1136) 
1 0 0 0 1 1 1 1 0 0 0 1 0 0 1 0 0 0

>  <DIFUSE_FUNC_ATOM>  (1136) 
atom 6   atom 7   

>  <FINAL_SINGLE_POINT_ENERGY>  (1136) 
0

>  <NONCOV_INTER_ENERGY_QM>  (1136) 
0

>  <FF_Energy>  (1136) 
42.14

>  <QM_Energy>  (1136) 
1.49

>  <source>  (1136) 
ACET_PRPA_11

>  <Index>  (1136) 
30761

$$$$
ACET-pdb3bwq-B-GLU-111:PRPA-pdb3bwq-B-ARG-293
     RDKit          3D

 18 16  0  0  0  0  0  0  0  0999 V2000
    0.0076    1.5200   -0.0073 C   0  0  0  0  0  0  0  0  0  0  0  0
    0.3724    1.8120   -0.8731 H   0  0  0  0  0  0  0  0  0  0  0  0
    0.5625    1.8176    0.7485 H   0  0  0  0  0  0  0  0  0  0  0  0
   -0.9855    1.9547    0.1063 H   0  0  0  0  0  0  0  0  0  0  0  0
    0.0000    0.0000    0.0000 C   0  0  0  0  0  0  0  0  0  0  0  0
   -1.0991   -0.6037    0.0000 O   0  0  0  0  0  1  0  0  0  0  0  0
    1.0991   -0.5987   -0.0000 O   0  0  0  0  0  0  0  0  0  0  0  0
   -3.4725   -0.3985    2.7303 C   0  0  0  0  0  0  0  0  0  0  0  0
   -3.2721    0.4717    2.2936 H   0  0  0  0  0  0  0  0  0  0  0  0
   -3.2177   -0.3712    3.6904 H   0  0  0  0  0  0  0  0  0  0  0  0
   -4.5474   -0.5690    2.6693 H   0  0  0  0  0  0  0  0  0  0  0  0
   -2.6517   -1.4724    2.0501 C   0  0  0  0  0  0  0  0  0  0  0  0
   -3.2394   -2.2377    1.8029 H   0  0  0  0  0  0  0  0  0  0  0  0
   -2.2166   -1.0975    1.2371 H   0  0  0  0  0  0  0  0  0  0  0  0
   -1.5616   -1.9915    2.9717 C   0  0  0  0  0  0  0  0  0  0  0  0
   -1.0125   -1.2185    3.2695 H   0  0  0  0  0  0  0  0  0  0  0  0
   -1.9976   -2.4289    3.7512 H   0  0  0  0  0  0  0  0  0  0  0  0
   -0.9221   -2.7135    2.4638 H   0  0  0  0  0  0  0  0  0  0  0  0
  1  5  1  0
  5  6  1  0
  5  7  2  0
  1  2  1  0
  1  3  1  0
  1  4  1  0
  8 12  1  0
 12 15  1  0
  8  9  1  0
  8 10  1  0
  8 11  1  0
 12 13  1  0
 12 14  1  0
 15 16  1  0
 15 17  1  0
 15 18  1  0
M  CHG  1   6  -1
M  END
>  <PDB_ID>  (1137) 
pdb3bwq

>  <RESIDUE_NAME>  (1137) 
GLU   ARG

>  <FRAG_NAME>  (1137) 
ACET   PRPA

>  <FRAG_ATOM_NUM>  (1137) 
fragi: 7  fragj: 11

>  <atom.prop.CHAIN_ID>  (1137) 
A A A A A A A Z Z Z Z Z Z Z Z Z Z Z

>  <atom.prop.IS_HEAVY_ATOM>  (1137) 
1 0 0 0 1 1 1 1 0 0 0 1 0 0 1 0 0 0

>  <DIFUSE_FUNC_ATOM>  (1137) 
atom 6   atom 7   

>  <FINAL_SINGLE_POINT_ENERGY>  (1137) 
0

>  <NONCOV_INTER_ENERGY_QM>  (1137) 
0

>  <FF_Energy>  (1137) 
49.39

>  <QM_Energy>  (1137) 
0.5

>  <source>  (1137) 
ACET_PRPA_11

>  <Index>  (1137) 
30780

$$$$
ACET-pdb1yln-A-GLU-72:PRPA-pdb1yln-A-ILE-61
     RDKit          3D

 18 16  0  0  0  0  0  0  0  0999 V2000
    0.0161    1.5225   -0.0130 C   0  0  0  0  0  0  0  0  0  0  0  0
   -0.1881    1.8131   -0.9315 H   0  0  0  0  0  0  0  0  0  0  0  0
    0.9127    1.8116    0.2732 H   0  0  0  0  0  0  0  0  0  0  0  0
   -0.7171    1.9717    0.6570 H   0  0  0  0  0  0  0  0  0  0  0  0
    0.0000    0.0000    0.0000 C   0  0  0  0  0  0  0  0  0  0  0  0
   -1.0998   -0.6025    0.0000 O   0  0  0  0  0  1  0  0  0  0  0  0
    1.0998   -0.5974   -0.0000 O   0  0  0  0  0  0  0  0  0  0  0  0
    5.3123    2.6600    1.6508 C   0  0  0  0  0  0  0  0  0  0  0  0
    5.6575    3.4286    2.1834 H   0  0  0  0  0  0  0  0  0  0  0  0
    5.3498    1.7753    2.2864 H   0  0  0  0  0  0  0  0  0  0  0  0
    5.9586    2.5118    0.7856 H   0  0  0  0  0  0  0  0  0  0  0  0
    3.8757    2.9843    1.2199 C   0  0  0  0  0  0  0  0  0  0  0  0
    3.3065    3.0106    2.0519 H   0  0  0  0  0  0  0  0  0  0  0  0
    3.8802    3.9169    0.8342 H   0  0  0  0  0  0  0  0  0  0  0  0
    3.2804    2.0476    0.2368 C   0  0  0  0  0  0  0  0  0  0  0  0
    3.2533    1.1186    0.6165 H   0  0  0  0  0  0  0  0  0  0  0  0
    2.3442    2.3322    0.0109 H   0  0  0  0  0  0  0  0  0  0  0  0
    3.8269    2.0363   -0.6058 H   0  0  0  0  0  0  0  0  0  0  0  0
  1  5  1  0
  5  6  1  0
  5  7  2  0
  1  2  1  0
  1  3  1  0
  1  4  1  0
  8 12  1  0
 12 15  1  0
  8  9  1  0
  8 10  1  0
  8 11  1  0
 12 13  1  0
 12 14  1  0
 15 16  1  0
 15 17  1  0
 15 18  1  0
M  CHG  1   6  -1
M  END
>  <PDB_ID>  (1138) 
pdb1yln

>  <RESIDUE_NAME>  (1138) 
GLU   ILE

>  <FRAG_NAME>  (1138) 
ACET   PRPA

>  <FRAG_ATOM_NUM>  (1138) 
fragi: 7  fragj: 11

>  <atom.prop.CHAIN_ID>  (1138) 
A A A A A A A Z Z Z Z Z Z Z Z Z Z Z

>  <atom.prop.IS_HEAVY_ATOM>  (1138) 
1 0 0 0 1 1 1 1 0 0 0 1 0 0 1 0 0 0

>  <DIFUSE_FUNC_ATOM>  (1138) 
atom 6   atom 7   

>  <FINAL_SINGLE_POINT_ENERGY>  (1138) 
0

>  <NONCOV_INTER_ENERGY_QM>  (1138) 
0

>  <FF_Energy>  (1138) 
19.47

>  <QM_Energy>  (1138) 
2.87

>  <source>  (1138) 
ACET_PRPA_11

>  <Index>  (1138) 
31079

$$$$
ACET-pdb3c8e-A-GLU-245:PRPA-pdb3c8e-A-LYS-198
     RDKit          3D

 18 16  0  0  0  0  0  0  0  0999 V2000
    0.0105    1.5595   -0.0201 C   0  0  0  0  0  0  0  0  0  0  0  0
    0.5959    1.8281   -0.7416 H   0  0  0  0  0  0  0  0  0  0  0  0
    0.2837    1.8507    0.8608 H   0  0  0  0  0  0  0  0  0  0  0  0
   -0.9896    1.9434   -0.2214 H   0  0  0  0  0  0  0  0  0  0  0  0
    0.0000    0.0000    0.0000 C   0  0  0  0  0  0  0  0  0  0  0  0
   -1.1120   -0.6297    0.0000 O   0  0  0  0  0  1  0  0  0  0  0  0
    1.1120   -0.5981   -0.0000 O   0  0  0  0  0  0  0  0  0  0  0  0
    1.6858   -3.5053   -2.0664 C   0  0  0  0  0  0  0  0  0  0  0  0
    1.7184   -2.6314   -2.5242 H   0  0  0  0  0  0  0  0  0  0  0  0
    0.8809   -3.5898   -1.5028 H   0  0  0  0  0  0  0  0  0  0  0  0
    1.6975   -4.3043   -2.8077 H   0  0  0  0  0  0  0  0  0  0  0  0
    2.9288   -3.6407   -1.1743 C   0  0  0  0  0  0  0  0  0  0  0  0
    2.8556   -4.4939   -0.6628 H   0  0  0  0  0  0  0  0  0  0  0  0
    3.7355   -3.6646   -1.7606 H   0  0  0  0  0  0  0  0  0  0  0  0
    3.0641   -2.4922   -0.1992 C   0  0  0  0  0  0  0  0  0  0  0  0
    4.0343   -2.1983   -0.1650 H   0  0  0  0  0  0  0  0  0  0  0  0
    2.5237   -1.7038   -0.5371 H   0  0  0  0  0  0  0  0  0  0  0  0
    2.7383   -2.7224    0.8152 H   0  0  0  0  0  0  0  0  0  0  0  0
  1  5  1  0
  5  6  1  0
  5  7  2  0
  1  2  1  0
  1  3  1  0
  1  4  1  0
  8 12  1  0
 12 15  1  0
  8  9  1  0
  8 10  1  0
  8 11  1  0
 12 13  1  0
 12 14  1  0
 15 16  1  0
 15 17  1  0
 15 18  1  0
M  CHG  1   6  -1
M  END
>  <PDB_ID>  (1139) 
pdb3c8e

>  <RESIDUE_NAME>  (1139) 
GLU   LYS

>  <FRAG_NAME>  (1139) 
ACET   PRPA

>  <FRAG_ATOM_NUM>  (1139) 
fragi: 7  fragj: 11

>  <atom.prop.CHAIN_ID>  (1139) 
A A A A A A A Z Z Z Z Z Z Z Z Z Z Z

>  <atom.prop.IS_HEAVY_ATOM>  (1139) 
1 0 0 0 1 1 1 1 0 0 0 1 0 0 1 0 0 0

>  <DIFUSE_FUNC_ATOM>  (1139) 
atom 6   atom 7   

>  <FINAL_SINGLE_POINT_ENERGY>  (1139) 
0

>  <NONCOV_INTER_ENERGY_QM>  (1139) 
0

>  <FF_Energy>  (1139) 
18.18

>  <QM_Energy>  (1139) 
0.67

>  <source>  (1139) 
ACET_PRPA_11

>  <Index>  (1139) 
31343

$$$$
ACET-pdb1yn3-A-ASP-206:PRPA-pdb1yn3-A-LYS-195
     RDKit          3D

 18 16  0  0  0  0  0  0  0  0999 V2000
    0.0198    1.5584   -0.1283 C   0  0  0  0  0  0  0  0  0  0  0  0
    0.7845    1.8976    0.3738 H   0  0  0  0  0  0  0  0  0  0  0  0
   -0.8366    1.9032    0.1838 H   0  0  0  0  0  0  0  0  0  0  0  0
    0.1431    1.8557   -1.1697 H   0  0  0  0  0  0  0  0  0  0  0  0
    0.0000    0.0000    0.0000 C   0  0  0  0  0  0  0  0  0  0  0  0
   -1.0957   -0.6170    0.0000 O   0  0  0  0  0  1  0  0  0  0  0  0
    1.0957   -0.6114   -0.0000 O   0  0  0  0  0  0  0  0  0  0  0  0
    4.3307   -3.1827   -0.6120 C   0  0  0  0  0  0  0  0  0  0  0  0
    4.6138   -3.6394    0.2222 H   0  0  0  0  0  0  0  0  0  0  0  0
    4.3167   -2.1983   -0.4853 H   0  0  0  0  0  0  0  0  0  0  0  0
    5.0564   -3.4155   -1.3913 H   0  0  0  0  0  0  0  0  0  0  0  0
    2.9142   -3.6443   -0.9559 C   0  0  0  0  0  0  0  0  0  0  0  0
    2.6626   -3.2706   -1.8520 H   0  0  0  0  0  0  0  0  0  0  0  0
    2.9038   -4.6461   -1.0046 H   0  0  0  0  0  0  0  0  0  0  0  0
    1.8936   -3.1881    0.0732 C   0  0  0  0  0  0  0  0  0  0  0  0
    2.0819   -3.6389    0.9374 H   0  0  0  0  0  0  0  0  0  0  0  0
    1.9490   -2.2022    0.1706 H   0  0  0  0  0  0  0  0  0  0  0  0
    0.8821   -3.4480   -0.2387 H   0  0  0  0  0  0  0  0  0  0  0  0
  1  5  1  0
  5  6  1  0
  5  7  2  0
  1  2  1  0
  1  3  1  0
  1  4  1  0
  8 12  1  0
 12 15  1  0
  8  9  1  0
  8 10  1  0
  8 11  1  0
 12 13  1  0
 12 14  1  0
 15 16  1  0
 15 17  1  0
 15 18  1  0
M  CHG  1   6  -1
M  END
>  <PDB_ID>  (1140) 
pdb1yn3

>  <RESIDUE_NAME>  (1140) 
ASP   LYS

>  <FRAG_NAME>  (1140) 
ACET   PRPA

>  <FRAG_ATOM_NUM>  (1140) 
fragi: 7  fragj: 11

>  <atom.prop.CHAIN_ID>  (1140) 
A A A A A A A Z Z Z Z Z Z Z Z Z Z Z

>  <atom.prop.IS_HEAVY_ATOM>  (1140) 
1 0 0 0 1 1 1 1 0 0 0 1 0 0 1 0 0 0

>  <DIFUSE_FUNC_ATOM>  (1140) 
atom 6   atom 7   

>  <FINAL_SINGLE_POINT_ENERGY>  (1140) 
0

>  <NONCOV_INTER_ENERGY_QM>  (1140) 
0

>  <FF_Energy>  (1140) 
26.26

>  <QM_Energy>  (1140) 
1.91

>  <source>  (1140) 
ACET_PRPA_11

>  <Index>  (1140) 
31902

$$$$
ACET-pdb1ym5-A-GLU-52:PRPA-pdb1ym5-A-PRO-83
     RDKit          3D

 18 16  0  0  0  0  0  0  0  0999 V2000
    0.0097    1.5242   -0.0182 C   0  0  0  0  0  0  0  0  0  0  0  0
   -0.2684    1.8125   -0.9074 H   0  0  0  0  0  0  0  0  0  0  0  0
    0.9064    1.8179    0.2267 H   0  0  0  0  0  0  0  0  0  0  0  0
   -0.6935    1.9337    0.7069 H   0  0  0  0  0  0  0  0  0  0  0  0
    0.0000    0.0000    0.0000 C   0  0  0  0  0  0  0  0  0  0  0  0
   -1.0892   -0.6082   -0.0000 O   0  0  0  0  0  1  0  0  0  0  0  0
    1.0892   -0.5766    0.0000 O   0  0  0  0  0  0  0  0  0  0  0  0
   -4.2623    1.1426   -1.5803 C   0  0  0  0  0  0  0  0  0  0  0  0
   -4.3548    1.6426   -2.4349 H   0  0  0  0  0  0  0  0  0  0  0  0
   -4.2273    1.7719   -0.8122 H   0  0  0  0  0  0  0  0  0  0  0  0
   -5.0539    0.4031   -1.4594 H   0  0  0  0  0  0  0  0  0  0  0  0
   -3.0086    0.2831   -1.6107 C   0  0  0  0  0  0  0  0  0  0  0  0
   -2.2569    0.8219   -2.0047 H   0  0  0  0  0  0  0  0  0  0  0  0
   -2.7644    0.0355   -0.6668 H   0  0  0  0  0  0  0  0  0  0  0  0
   -3.3832   -0.8381   -2.4127 C   0  0  0  0  0  0  0  0  0  0  0  0
   -3.4039   -0.6356   -3.3964 H   0  0  0  0  0  0  0  0  0  0  0  0
   -2.8034   -1.6473   -2.2636 H   0  0  0  0  0  0  0  0  0  0  0  0
   -4.3938   -1.0376   -2.0564 H   0  0  0  0  0  0  0  0  0  0  0  0
  1  5  1  0
  5  6  1  0
  5  7  2  0
  1  2  1  0
  1  3  1  0
  1  4  1  0
  8 12  1  0
 12 15  1  0
  8  9  1  0
  8 10  1  0
  8 11  1  0
 12 13  1  0
 12 14  1  0
 15 16  1  0
 15 17  1  0
 15 18  1  0
M  CHG  1   6  -1
M  END
>  <PDB_ID>  (1141) 
pdb1ym5

>  <RESIDUE_NAME>  (1141) 
GLU   PRO

>  <FRAG_NAME>  (1141) 
ACET   PRPA

>  <FRAG_ATOM_NUM>  (1141) 
fragi: 7  fragj: 11

>  <atom.prop.CHAIN_ID>  (1141) 
A A A A A A A Z Z Z Z Z Z Z Z Z Z Z

>  <atom.prop.IS_HEAVY_ATOM>  (1141) 
1 0 0 0 1 1 1 1 0 0 0 1 0 0 1 0 0 0

>  <DIFUSE_FUNC_ATOM>  (1141) 
atom 6   atom 7   

>  <FINAL_SINGLE_POINT_ENERGY>  (1141) 
0

>  <NONCOV_INTER_ENERGY_QM>  (1141) 
0

>  <FF_Energy>  (1141) 
16.73

>  <QM_Energy>  (1141) 
1.21

>  <source>  (1141) 
ACET_PRPA_11

>  <Index>  (1141) 
32500

$$$$
ACET-pdb1yi8-A-GLU-196:PRPA-pdb1yi8-A-ARG-184
     RDKit          3D

 18 16  0  0  0  0  0  0  0  0999 V2000
    0.0084    1.5156    0.0002 C   0  0  0  0  0  0  0  0  0  0  0  0
   -0.2151    1.8164    0.9054 H   0  0  0  0  0  0  0  0  0  0  0  0
   -0.6381    1.8182   -0.6710 H   0  0  0  0  0  0  0  0  0  0  0  0
    0.9856    1.9223   -0.2602 H   0  0  0  0  0  0  0  0  0  0  0  0
    0.0000    0.0000    0.0000 C   0  0  0  0  0  0  0  0  0  0  0  0
   -1.0969   -0.5937   -0.0000 O   0  0  0  0  0  1  0  0  0  0  0  0
    1.0969   -0.5999    0.0000 O   0  0  0  0  0  0  0  0  0  0  0  0
   -3.8981   -0.2094   -4.1089 C   0  0  0  0  0  0  0  0  0  0  0  0
   -4.6303    0.0564   -3.4929 H   0  0  0  0  0  0  0  0  0  0  0  0
   -4.2008   -0.9322   -4.7186 H   0  0  0  0  0  0  0  0  0  0  0  0
   -3.6354    0.6573   -4.7155 H   0  0  0  0  0  0  0  0  0  0  0  0
   -2.7457   -0.7313   -3.2852 C   0  0  0  0  0  0  0  0  0  0  0  0
   -2.5522   -1.6744   -3.5428 H   0  0  0  0  0  0  0  0  0  0  0  0
   -1.9425   -0.1635   -3.4403 H   0  0  0  0  0  0  0  0  0  0  0  0
   -3.0806   -0.6945   -1.8226 C   0  0  0  0  0  0  0  0  0  0  0  0
   -2.2977   -1.0445   -1.3082 H   0  0  0  0  0  0  0  0  0  0  0  0
   -3.2554    0.2547   -1.5612 H   0  0  0  0  0  0  0  0  0  0  0  0
   -3.9583   -1.2956   -1.5849 H   0  0  0  0  0  0  0  0  0  0  0  0
  1  5  1  0
  5  6  1  0
  5  7  2  0
  1  2  1  0
  1  3  1  0
  1  4  1  0
  8 12  1  0
 12 15  1  0
  8  9  1  0
  8 10  1  0
  8 11  1  0
 12 13  1  0
 12 14  1  0
 15 16  1  0
 15 17  1  0
 15 18  1  0
M  CHG  1   6  -1
M  END
>  <PDB_ID>  (1142) 
pdb1yi8

>  <RESIDUE_NAME>  (1142) 
GLU   ARG

>  <FRAG_NAME>  (1142) 
ACET   PRPA

>  <FRAG_ATOM_NUM>  (1142) 
fragi: 7  fragj: 11

>  <atom.prop.CHAIN_ID>  (1142) 
A A A A A A A Z Z Z Z Z Z Z Z Z Z Z

>  <atom.prop.IS_HEAVY_ATOM>  (1142) 
1 0 0 0 1 1 1 1 0 0 0 1 0 0 1 0 0 0

>  <DIFUSE_FUNC_ATOM>  (1142) 
atom 6   atom 7   

>  <FINAL_SINGLE_POINT_ENERGY>  (1142) 
0

>  <NONCOV_INTER_ENERGY_QM>  (1142) 
0

>  <FF_Energy>  (1142) 
23.04

>  <QM_Energy>  (1142) 
1.93

>  <source>  (1142) 
ACET_PRPA_11

>  <Index>  (1142) 
33578

$$$$
ACET-pdb3cfu-A-GLU-108:PRPA-pdb3cfu-A-LYS-176
     RDKit          3D

 18 16  0  0  0  0  0  0  0  0999 V2000
    0.1780    1.4996    0.0154 C   0  0  0  0  0  0  0  0  0  0  0  0
    0.6887    1.7543   -0.8012 H   0  0  0  0  0  0  0  0  0  0  0  0
    0.6997    1.7353    0.8305 H   0  0  0  0  0  0  0  0  0  0  0  0
   -0.7353    2.0944    0.0280 H   0  0  0  0  0  0  0  0  0  0  0  0
    0.0000    0.0000    0.0000 C   0  0  0  0  0  0  0  0  0  0  0  0
   -1.0892   -0.5479   -0.0000 O   0  0  0  0  0  1  0  0  0  0  0  0
    1.0892   -0.6020    0.0000 O   0  0  0  0  0  0  0  0  0  0  0  0
    0.0108    2.2474    4.2599 C   0  0  0  0  0  0  0  0  0  0  0  0
   -1.0053    2.2617    4.3085 H   0  0  0  0  0  0  0  0  0  0  0  0
    0.3280    2.8494    3.4084 H   0  0  0  0  0  0  0  0  0  0  0  0
    0.4051    2.6000    5.2129 H   0  0  0  0  0  0  0  0  0  0  0  0
    0.4120    0.7903    4.0439 C   0  0  0  0  0  0  0  0  0  0  0  0
    1.4099    0.7495    3.9563 H   0  0  0  0  0  0  0  0  0  0  0  0
    0.1343    0.2663    4.8531 H   0  0  0  0  0  0  0  0  0  0  0  0
   -0.1991    0.1278    2.8168 C   0  0  0  0  0  0  0  0  0  0  0  0
   -1.1978    0.1552    2.8965 H   0  0  0  0  0  0  0  0  0  0  0  0
    0.0778    0.6385    1.9997 H   0  0  0  0  0  0  0  0  0  0  0  0
    0.1198   -0.9093    2.7125 H   0  0  0  0  0  0  0  0  0  0  0  0
  1  5  1  0
  5  6  1  0
  5  7  2  0
  1  2  1  0
  1  3  1  0
  1  4  1  0
  8 12  1  0
 12 15  1  0
  8  9  1  0
  8 10  1  0
  8 11  1  0
 12 13  1  0
 12 14  1  0
 15 16  1  0
 15 17  1  0
 15 18  1  0
M  CHG  1   6  -1
M  END
>  <PDB_ID>  (1143) 
pdb3cfu

>  <RESIDUE_NAME>  (1143) 
GLU   LYS

>  <FRAG_NAME>  (1143) 
ACET   PRPA

>  <FRAG_ATOM_NUM>  (1143) 
fragi: 7  fragj: 11

>  <atom.prop.CHAIN_ID>  (1143) 
A A A A A A A Z Z Z Z Z Z Z Z Z Z Z

>  <atom.prop.IS_HEAVY_ATOM>  (1143) 
1 0 0 0 1 1 1 1 0 0 0 1 0 0 1 0 0 0

>  <DIFUSE_FUNC_ATOM>  (1143) 
atom 6   atom 7   

>  <FINAL_SINGLE_POINT_ENERGY>  (1143) 
0

>  <NONCOV_INTER_ENERGY_QM>  (1143) 
0

>  <FF_Energy>  (1143) 
26.48

>  <QM_Energy>  (1143) 
3.64

>  <source>  (1143) 
ACET_PRPA_11

>  <Index>  (1143) 
33667

$$$$
ACET-pdb3cfu-A-GLU-108:PRPA-pdb3cfu-A-LYS-176
     RDKit          3D

 18 16  0  0  0  0  0  0  0  0999 V2000
    0.1780    1.4996    0.0154 C   0  0  0  0  0  0  0  0  0  0  0  0
    0.6887    1.7543   -0.8012 H   0  0  0  0  0  0  0  0  0  0  0  0
    0.6997    1.7353    0.8305 H   0  0  0  0  0  0  0  0  0  0  0  0
   -0.7353    2.0944    0.0280 H   0  0  0  0  0  0  0  0  0  0  0  0
    0.0000    0.0000    0.0000 C   0  0  0  0  0  0  0  0  0  0  0  0
   -1.0892   -0.5479   -0.0000 O   0  0  0  0  0  1  0  0  0  0  0  0
    1.0892   -0.6020    0.0000 O   0  0  0  0  0  0  0  0  0  0  0  0
    0.4120    0.7903    4.0439 C   0  0  0  0  0  0  0  0  0  0  0  0
    1.4099    0.7495    3.9563 H   0  0  0  0  0  0  0  0  0  0  0  0
    0.1343    0.2663    4.8531 H   0  0  0  0  0  0  0  0  0  0  0  0
    0.1256    1.8306    4.1981 H   0  0  0  0  0  0  0  0  0  0  0  0
   -0.1991    0.1278    2.8168 C   0  0  0  0  0  0  0  0  0  0  0  0
   -1.1978    0.1552    2.8965 H   0  0  0  0  0  0  0  0  0  0  0  0
    0.0778    0.6385    1.9997 H   0  0  0  0  0  0  0  0  0  0  0  0
    0.2442   -1.3139    2.6718 C   0  0  0  0  0  0  0  0  0  0  0  0
    1.2428   -1.3375    2.5937 H   0  0  0  0  0  0  0  0  0  0  0  0
   -0.0342   -1.8215    3.4898 H   0  0  0  0  0  0  0  0  0  0  0  0
   -0.1850   -1.8020    1.7968 H   0  0  0  0  0  0  0  0  0  0  0  0
  1  5  1  0
  5  6  1  0
  5  7  2  0
  1  2  1  0
  1  3  1  0
  1  4  1  0
  8 12  1  0
 12 15  1  0
  8  9  1  0
  8 10  1  0
  8 11  1  0
 12 13  1  0
 12 14  1  0
 15 16  1  0
 15 17  1  0
 15 18  1  0
M  CHG  1   6  -1
M  END
>  <PDB_ID>  (1144) 
pdb3cfu

>  <RESIDUE_NAME>  (1144) 
GLU   LYS

>  <FRAG_NAME>  (1144) 
ACET   PRPA

>  <FRAG_ATOM_NUM>  (1144) 
fragi: 7  fragj: 11

>  <atom.prop.CHAIN_ID>  (1144) 
A A A A A A A Z Z Z Z Z Z Z Z Z Z Z

>  <atom.prop.IS_HEAVY_ATOM>  (1144) 
1 0 0 0 1 1 1 1 0 0 0 1 0 0 1 0 0 0

>  <DIFUSE_FUNC_ATOM>  (1144) 
atom 6   atom 7   

>  <FINAL_SINGLE_POINT_ENERGY>  (1144) 
0

>  <NONCOV_INTER_ENERGY_QM>  (1144) 
0

>  <FF_Energy>  (1144) 
34.6

>  <QM_Energy>  (1144) 
2.85

>  <source>  (1144) 
ACET_PRPA_11

>  <Index>  (1144) 
33671

$$$$
ACET-pdb1yn5-B-ASP-118:PRPA-pdb1yn5-B-LYS-121
     RDKit          3D

 18 16  0  0  0  0  0  0  0  0999 V2000
    0.0039    1.5027    0.0140 C   0  0  0  0  0  0  0  0  0  0  0  0
    0.7539    1.8302   -0.5540 H   0  0  0  0  0  0  0  0  0  0  0  0
    0.1203    1.8175    0.9509 H   0  0  0  0  0  0  0  0  0  0  0  0
   -0.9216    1.9294   -0.3727 H   0  0  0  0  0  0  0  0  0  0  0  0
    0.0000    0.0000    0.0000 C   0  0  0  0  0  0  0  0  0  0  0  0
   -1.1036   -0.5870    0.0000 O   0  0  0  0  0  1  0  0  0  0  0  0
    1.1036   -0.5926    0.0000 O   0  0  0  0  0  0  0  0  0  0  0  0
    1.2979   -0.5517    3.4730 C   0  0  0  0  0  0  0  0  0  0  0  0
    1.4960   -1.2879    4.1232 H   0  0  0  0  0  0  0  0  0  0  0  0
    0.8129   -0.9331    2.6829 H   0  0  0  0  0  0  0  0  0  0  0  0
    0.6572    0.1843    3.9586 H   0  0  0  0  0  0  0  0  0  0  0  0
    2.6045    0.0571    3.0043 C   0  0  0  0  0  0  0  0  0  0  0  0
    3.0547    0.4920    3.7863 H   0  0  0  0  0  0  0  0  0  0  0  0
    3.1916   -0.6728    2.6501 H   0  0  0  0  0  0  0  0  0  0  0  0
    2.4121    1.0906    1.9199 C   0  0  0  0  0  0  0  0  0  0  0  0
    1.9669    0.6626    1.1326 H   0  0  0  0  0  0  0  0  0  0  0  0
    1.8300    1.8280    2.2675 H   0  0  0  0  0  0  0  0  0  0  0  0
    3.3697    1.5074    1.6077 H   0  0  0  0  0  0  0  0  0  0  0  0
  1  5  1  0
  5  6  1  0
  5  7  2  0
  1  2  1  0
  1  3  1  0
  1  4  1  0
  8 12  1  0
 12 15  1  0
  8  9  1  0
  8 10  1  0
  8 11  1  0
 12 13  1  0
 12 14  1  0
 15 16  1  0
 15 17  1  0
 15 18  1  0
M  CHG  1   6  -1
M  END
>  <PDB_ID>  (1145) 
pdb1yn5

>  <RESIDUE_NAME>  (1145) 
ASP   LYS

>  <FRAG_NAME>  (1145) 
ACET   PRPA

>  <FRAG_ATOM_NUM>  (1145) 
fragi: 7  fragj: 11

>  <atom.prop.CHAIN_ID>  (1145) 
A A A A A A A Z Z Z Z Z Z Z Z Z Z Z

>  <atom.prop.IS_HEAVY_ATOM>  (1145) 
1 0 0 0 1 1 1 1 0 0 0 1 0 0 1 0 0 0

>  <DIFUSE_FUNC_ATOM>  (1145) 
atom 6   atom 7   

>  <FINAL_SINGLE_POINT_ENERGY>  (1145) 
0

>  <NONCOV_INTER_ENERGY_QM>  (1145) 
0

>  <FF_Energy>  (1145) 
20.07

>  <QM_Energy>  (1145) 
0.07

>  <source>  (1145) 
ACET_PRPA_11

>  <Index>  (1145) 
33930

$$$$
ACET-pdb1yp0-A-GLU-237:PRPA-pdb1yp0-A-GLN-240
     RDKit          3D

 18 16  0  0  0  0  0  0  0  0999 V2000
   -0.0044    1.5203   -0.0049 C   0  0  0  0  0  0  0  0  0  0  0  0
   -0.1840    1.8140   -0.9245 H   0  0  0  0  0  0  0  0  0  0  0  0
    0.8721    1.8210    0.3195 H   0  0  0  0  0  0  0  0  0  0  0  0
   -0.7721    1.9427    0.6434 H   0  0  0  0  0  0  0  0  0  0  0  0
    0.0000    0.0000    0.0000 C   0  0  0  0  0  0  0  0  0  0  0  0
   -1.0952   -0.5975    0.0000 O   0  0  0  0  0  1  0  0  0  0  0  0
    1.0952   -0.5992    0.0000 O   0  0  0  0  0  0  0  0  0  0  0  0
   -5.0073   -0.9487    0.0907 C   0  0  0  0  0  0  0  0  0  0  0  0
   -5.6089   -0.9919   -0.7261 H   0  0  0  0  0  0  0  0  0  0  0  0
   -4.8920    0.1001    0.3644 H   0  0  0  0  0  0  0  0  0  0  0  0
   -5.4710   -1.5462    0.8756 H   0  0  0  0  0  0  0  0  0  0  0  0
   -3.6530   -1.5474   -0.2825 C   0  0  0  0  0  0  0  0  0  0  0  0
   -2.9774   -0.8102   -0.3344 H   0  0  0  0  0  0  0  0  0  0  0  0
   -3.3786   -2.1958    0.4310 H   0  0  0  0  0  0  0  0  0  0  0  0
   -3.6497   -2.2840   -1.6146 C   0  0  0  0  0  0  0  0  0  0  0  0
   -2.7071   -2.5169   -1.8504 H   0  0  0  0  0  0  0  0  0  0  0  0
   -4.1886   -3.1194   -1.5208 H   0  0  0  0  0  0  0  0  0  0  0  0
   -4.0715   -1.6878   -2.4238 H   0  0  0  0  0  0  0  0  0  0  0  0
  1  5  1  0
  5  6  1  0
  5  7  2  0
  1  2  1  0
  1  3  1  0
  1  4  1  0
  8 12  1  0
 12 15  1  0
  8  9  1  0
  8 10  1  0
  8 11  1  0
 12 13  1  0
 12 14  1  0
 15 16  1  0
 15 17  1  0
 15 18  1  0
M  CHG  1   6  -1
M  END
>  <PDB_ID>  (1146) 
pdb1yp0

>  <RESIDUE_NAME>  (1146) 
GLU   GLN

>  <FRAG_NAME>  (1146) 
ACET   PRPA

>  <FRAG_ATOM_NUM>  (1146) 
fragi: 7  fragj: 11

>  <atom.prop.CHAIN_ID>  (1146) 
A A A A A A A Z Z Z Z Z Z Z Z Z Z Z

>  <atom.prop.IS_HEAVY_ATOM>  (1146) 
1 0 0 0 1 1 1 1 0 0 0 1 0 0 1 0 0 0

>  <DIFUSE_FUNC_ATOM>  (1146) 
atom 6   atom 7   

>  <FINAL_SINGLE_POINT_ENERGY>  (1146) 
0

>  <NONCOV_INTER_ENERGY_QM>  (1146) 
0

>  <FF_Energy>  (1146) 
14.4

>  <QM_Energy>  (1146) 
-0.76

>  <source>  (1146) 
ACET_PRPA_11

>  <Index>  (1146) 
34252

$$$$
ACET-pdb1yi8-B-ASP-68:PRPA-pdb1yi8-B-LYS-137
     RDKit          3D

 18 16  0  0  0  0  0  0  0  0999 V2000
   -0.0276    1.4879   -0.0216 C   0  0  0  0  0  0  0  0  0  0  0  0
    0.0260    1.8083   -0.9629 H   0  0  0  0  0  0  0  0  0  0  0  0
    0.7384    1.8433    0.5057 H   0  0  0  0  0  0  0  0  0  0  0  0
   -0.9409    1.8959    0.4113 H   0  0  0  0  0  0  0  0  0  0  0  0
    0.0000    0.0000    0.0000 C   0  0  0  0  0  0  0  0  0  0  0  0
   -1.1029   -0.5715   -0.0000 O   0  0  0  0  0  1  0  0  0  0  0  0
    1.1029   -0.5873    0.0000 O   0  0  0  0  0  0  0  0  0  0  0  0
   -0.9758   -5.4526    1.2938 C   0  0  0  0  0  0  0  0  0  0  0  0
   -0.5427   -5.0070    2.0763 H   0  0  0  0  0  0  0  0  0  0  0  0
   -0.3527   -6.1295    0.9049 H   0  0  0  0  0  0  0  0  0  0  0  0
   -1.8799   -5.9585    1.6326 H   0  0  0  0  0  0  0  0  0  0  0  0
   -1.2946   -4.4102    0.2432 C   0  0  0  0  0  0  0  0  0  0  0  0
   -0.9288   -4.7072   -0.6296 H   0  0  0  0  0  0  0  0  0  0  0  0
   -2.2770   -4.2892    0.1921 H   0  0  0  0  0  0  0  0  0  0  0  0
   -0.6611   -3.0770    0.6053 C   0  0  0  0  0  0  0  0  0  0  0  0
   -0.8166   -2.4262   -0.1494 H   0  0  0  0  0  0  0  0  0  0  0  0
   -1.1154   -2.7122    1.4293 H   0  0  0  0  0  0  0  0  0  0  0  0
    0.4099   -3.1471    0.7952 H   0  0  0  0  0  0  0  0  0  0  0  0
  1  5  1  0
  5  6  1  0
  5  7  2  0
  1  2  1  0
  1  3  1  0
  1  4  1  0
  8 12  1  0
 12 15  1  0
  8  9  1  0
  8 10  1  0
  8 11  1  0
 12 13  1  0
 12 14  1  0
 15 16  1  0
 15 17  1  0
 15 18  1  0
M  CHG  1   6  -1
M  END
>  <PDB_ID>  (1147) 
pdb1yi8

>  <RESIDUE_NAME>  (1147) 
ASP   LYS

>  <FRAG_NAME>  (1147) 
ACET   PRPA

>  <FRAG_ATOM_NUM>  (1147) 
fragi: 7  fragj: 11

>  <atom.prop.CHAIN_ID>  (1147) 
A A A A A A A Z Z Z Z Z Z Z Z Z Z Z

>  <atom.prop.IS_HEAVY_ATOM>  (1147) 
1 0 0 0 1 1 1 1 0 0 0 1 0 0 1 0 0 0

>  <DIFUSE_FUNC_ATOM>  (1147) 
atom 6   atom 7   

>  <FINAL_SINGLE_POINT_ENERGY>  (1147) 
0

>  <NONCOV_INTER_ENERGY_QM>  (1147) 
0

>  <FF_Energy>  (1147) 
20.6

>  <QM_Energy>  (1147) 
4.99

>  <source>  (1147) 
ACET_PRPA_11

>  <Index>  (1147) 
36589

$$$$
ACET-pdb1yrt-A-GLU-91:PRPA-pdb1yrt-A-ARG-95
     RDKit          3D

 18 16  0  0  0  0  0  0  0  0999 V2000
   -0.0050    1.5884    0.0354 C   0  0  0  0  0  0  0  0  0  0  0  0
    0.9335    1.8863    0.0439 H   0  0  0  0  0  0  0  0  0  0  0  0
   -0.4863    1.8629    0.8489 H   0  0  0  0  0  0  0  0  0  0  0  0
   -0.4821    2.1101   -0.7943 H   0  0  0  0  0  0  0  0  0  0  0  0
    0.0000    0.0000    0.0000 C   0  0  0  0  0  0  0  0  0  0  0  0
   -1.0923   -0.6284   -0.0000 O   0  0  0  0  0  1  0  0  0  0  0  0
    1.0923   -0.6350    0.0000 O   0  0  0  0  0  0  0  0  0  0  0  0
    4.7188   -1.1196   -1.1776 C   0  0  0  0  0  0  0  0  0  0  0  0
    4.1073   -1.4806   -1.8826 H   0  0  0  0  0  0  0  0  0  0  0  0
    5.2653   -1.8672   -0.7988 H   0  0  0  0  0  0  0  0  0  0  0  0
    5.4020   -0.4189   -1.6576 H   0  0  0  0  0  0  0  0  0  0  0  0
    3.8419   -0.5542   -0.0385 C   0  0  0  0  0  0  0  0  0  0  0  0
    3.7437    0.4425   -0.1633 H   0  0  0  0  0  0  0  0  0  0  0  0
    2.9237   -0.9686   -0.0945 H   0  0  0  0  0  0  0  0  0  0  0  0
    4.3719   -0.7935    1.3958 C   0  0  0  0  0  0  0  0  0  0  0  0
    3.7360   -1.4086    1.8550 H   0  0  0  0  0  0  0  0  0  0  0  0
    5.2672   -1.2250    1.3182 H   0  0  0  0  0  0  0  0  0  0  0  0
    4.4666    0.1218    1.9801 H   0  0  0  0  0  0  0  0  0  0  0  0
  1  5  1  0
  5  6  1  0
  5  7  2  0
  1  2  1  0
  1  3  1  0
  1  4  1  0
  8 12  1  0
 12 15  1  0
  8  9  1  0
  8 10  1  0
  8 11  1  0
 12 13  1  0
 12 14  1  0
 15 16  1  0
 15 17  1  0
 15 18  1  0
M  CHG  1   6  -1
M  END
>  <PDB_ID>  (1148) 
pdb1yrt

>  <RESIDUE_NAME>  (1148) 
GLU   ARG

>  <FRAG_NAME>  (1148) 
ACET   PRPA

>  <FRAG_ATOM_NUM>  (1148) 
fragi: 7  fragj: 11

>  <atom.prop.CHAIN_ID>  (1148) 
A A A A A A A Z Z Z Z Z Z Z Z Z Z Z

>  <atom.prop.IS_HEAVY_ATOM>  (1148) 
1 0 0 0 1 1 1 1 0 0 0 1 0 0 1 0 0 0

>  <DIFUSE_FUNC_ATOM>  (1148) 
atom 6   atom 7   

>  <FINAL_SINGLE_POINT_ENERGY>  (1148) 
0

>  <NONCOV_INTER_ENERGY_QM>  (1148) 
0

>  <FF_Energy>  (1148) 
20.39

>  <QM_Energy>  (1148) 
0.14

>  <source>  (1148) 
ACET_PRPA_11

>  <Index>  (1148) 
36697

$$$$
ACET-pdb1yrt-A-GLU-91:PRPA-pdb1yrt-A-ARG-95
     RDKit          3D

 18 16  0  0  0  0  0  0  0  0999 V2000
   -0.0050    1.5884    0.0354 C   0  0  0  0  0  0  0  0  0  0  0  0
    0.9335    1.8863    0.0439 H   0  0  0  0  0  0  0  0  0  0  0  0
   -0.4863    1.8629    0.8489 H   0  0  0  0  0  0  0  0  0  0  0  0
   -0.4821    2.1101   -0.7943 H   0  0  0  0  0  0  0  0  0  0  0  0
    0.0000    0.0000    0.0000 C   0  0  0  0  0  0  0  0  0  0  0  0
   -1.0923   -0.6284   -0.0000 O   0  0  0  0  0  1  0  0  0  0  0  0
    1.0923   -0.6350    0.0000 O   0  0  0  0  0  0  0  0  0  0  0  0
    5.6953   -0.1181   -1.8636 C   0  0  0  0  0  0  0  0  0  0  0  0
    6.2739    0.3189   -1.1893 H   0  0  0  0  0  0  0  0  0  0  0  0
    5.1682    0.6471   -2.4336 H   0  0  0  0  0  0  0  0  0  0  0  0
    6.3270   -0.6600   -2.5672 H   0  0  0  0  0  0  0  0  0  0  0  0
    4.7188   -1.1196   -1.1776 C   0  0  0  0  0  0  0  0  0  0  0  0
    4.1073   -1.4806   -1.8826 H   0  0  0  0  0  0  0  0  0  0  0  0
    5.2653   -1.8672   -0.7988 H   0  0  0  0  0  0  0  0  0  0  0  0
    3.8419   -0.5542   -0.0385 C   0  0  0  0  0  0  0  0  0  0  0  0
    3.7437    0.4425   -0.1633 H   0  0  0  0  0  0  0  0  0  0  0  0
    2.9237   -0.9686   -0.0945 H   0  0  0  0  0  0  0  0  0  0  0  0
    4.2152   -0.7227    0.9717 H   0  0  0  0  0  0  0  0  0  0  0  0
  1  5  1  0
  5  6  1  0
  5  7  2  0
  1  2  1  0
  1  3  1  0
  1  4  1  0
  8 12  1  0
 12 15  1  0
  8  9  1  0
  8 10  1  0
  8 11  1  0
 12 13  1  0
 12 14  1  0
 15 16  1  0
 15 17  1  0
 15 18  1  0
M  CHG  1   6  -1
M  END
>  <PDB_ID>  (1149) 
pdb1yrt

>  <RESIDUE_NAME>  (1149) 
GLU   ARG

>  <FRAG_NAME>  (1149) 
ACET   PRPA

>  <FRAG_ATOM_NUM>  (1149) 
fragi: 7  fragj: 11

>  <atom.prop.CHAIN_ID>  (1149) 
A A A A A A A Z Z Z Z Z Z Z Z Z Z Z

>  <atom.prop.IS_HEAVY_ATOM>  (1149) 
1 0 0 0 1 1 1 1 0 0 0 1 0 0 1 0 0 0

>  <DIFUSE_FUNC_ATOM>  (1149) 
atom 6   atom 7   

>  <FINAL_SINGLE_POINT_ENERGY>  (1149) 
0

>  <NONCOV_INTER_ENERGY_QM>  (1149) 
0

>  <FF_Energy>  (1149) 
17.86

>  <QM_Energy>  (1149) 
0.87

>  <source>  (1149) 
ACET_PRPA_11

>  <Index>  (1149) 
36699

$$$$
ACET-pdb3cki-A-GLU-295:PRPA-pdb3cki-A-LYS-292
     RDKit          3D

 18 16  0  0  0  0  0  0  0  0999 V2000
   -0.0009    1.5166   -0.0184 C   0  0  0  0  0  0  0  0  0  0  0  0
    0.9015    1.8160    0.2217 H   0  0  0  0  0  0  0  0  0  0  0  0
   -0.6828    1.8191    0.6177 H   0  0  0  0  0  0  0  0  0  0  0  0
   -0.2453    1.9136   -1.0037 H   0  0  0  0  0  0  0  0  0  0  0  0
    0.0000    0.0000    0.0000 C   0  0  0  0  0  0  0  0  0  0  0  0
   -1.0990   -0.5994    0.0000 O   0  0  0  0  0  1  0  0  0  0  0  0
    1.0990   -0.5952   -0.0000 O   0  0  0  0  0  0  0  0  0  0  0  0
   -4.5170   -0.7764   -0.9668 C   0  0  0  0  0  0  0  0  0  0  0  0
   -5.4432   -1.0845   -1.0835 H   0  0  0  0  0  0  0  0  0  0  0  0
   -3.9987   -0.8260   -1.9245 H   0  0  0  0  0  0  0  0  0  0  0  0
   -4.5212    0.2839   -0.7142 H   0  0  0  0  0  0  0  0  0  0  0  0
   -3.7653   -1.5606    0.1081 C   0  0  0  0  0  0  0  0  0  0  0  0
   -2.8424   -1.1801    0.1823 H   0  0  0  0  0  0  0  0  0  0  0  0
   -4.2452   -1.4336    0.9786 H   0  0  0  0  0  0  0  0  0  0  0  0
   -3.6483   -3.0480   -0.1613 C   0  0  0  0  0  0  0  0  0  0  0  0
   -4.5519   -3.4130   -0.3766 H   0  0  0  0  0  0  0  0  0  0  0  0
   -3.0316   -3.1942   -0.9324 H   0  0  0  0  0  0  0  0  0  0  0  0
   -3.2546   -3.5676    0.7122 H   0  0  0  0  0  0  0  0  0  0  0  0
  1  5  1  0
  5  6  1  0
  5  7  2  0
  1  2  1  0
  1  3  1  0
  1  4  1  0
  8 12  1  0
 12 15  1  0
  8  9  1  0
  8 10  1  0
  8 11  1  0
 12 13  1  0
 12 14  1  0
 15 16  1  0
 15 17  1  0
 15 18  1  0
M  CHG  1   6  -1
M  END
>  <PDB_ID>  (1150) 
pdb3cki

>  <RESIDUE_NAME>  (1150) 
GLU   LYS

>  <FRAG_NAME>  (1150) 
ACET   PRPA

>  <FRAG_ATOM_NUM>  (1150) 
fragi: 7  fragj: 11

>  <atom.prop.CHAIN_ID>  (1150) 
A A A A A A A Z Z Z Z Z Z Z Z Z Z Z

>  <atom.prop.IS_HEAVY_ATOM>  (1150) 
1 0 0 0 1 1 1 1 0 0 0 1 0 0 1 0 0 0

>  <DIFUSE_FUNC_ATOM>  (1150) 
atom 6   atom 7   

>  <FINAL_SINGLE_POINT_ENERGY>  (1150) 
0

>  <NONCOV_INTER_ENERGY_QM>  (1150) 
0

>  <FF_Energy>  (1150) 
22.84

>  <QM_Energy>  (1150) 
-1.7

>  <source>  (1150) 
ACET_PRPA_11

>  <Index>  (1150) 
36753

$$$$
ACET-pdb3cki-A-GLU-295:PRPA-pdb3cki-A-LYS-292
     RDKit          3D

 18 16  0  0  0  0  0  0  0  0999 V2000
   -0.0009    1.5166   -0.0184 C   0  0  0  0  0  0  0  0  0  0  0  0
    0.9015    1.8160    0.2217 H   0  0  0  0  0  0  0  0  0  0  0  0
   -0.6828    1.8191    0.6177 H   0  0  0  0  0  0  0  0  0  0  0  0
   -0.2453    1.9136   -1.0037 H   0  0  0  0  0  0  0  0  0  0  0  0
    0.0000    0.0000    0.0000 C   0  0  0  0  0  0  0  0  0  0  0  0
   -1.0990   -0.5994    0.0000 O   0  0  0  0  0  1  0  0  0  0  0  0
    1.0990   -0.5952   -0.0000 O   0  0  0  0  0  0  0  0  0  0  0  0
   -3.7653   -1.5606    0.1081 C   0  0  0  0  0  0  0  0  0  0  0  0
   -2.8424   -1.1801    0.1823 H   0  0  0  0  0  0  0  0  0  0  0  0
   -4.2452   -1.4336    0.9786 H   0  0  0  0  0  0  0  0  0  0  0  0
   -4.3014   -1.0013   -0.6586 H   0  0  0  0  0  0  0  0  0  0  0  0
   -3.6483   -3.0480   -0.1613 C   0  0  0  0  0  0  0  0  0  0  0  0
   -4.5519   -3.4130   -0.3766 H   0  0  0  0  0  0  0  0  0  0  0  0
   -3.0316   -3.1942   -0.9324 H   0  0  0  0  0  0  0  0  0  0  0  0
   -3.1012   -3.7701    1.0527 C   0  0  0  0  0  0  0  0  0  0  0  0
   -2.1795   -3.4425    1.2368 H   0  0  0  0  0  0  0  0  0  0  0  0
   -3.6931   -3.5906    1.8315 H   0  0  0  0  0  0  0  0  0  0  0  0
   -3.0602   -4.8471    0.8896 H   0  0  0  0  0  0  0  0  0  0  0  0
  1  5  1  0
  5  6  1  0
  5  7  2  0
  1  2  1  0
  1  3  1  0
  1  4  1  0
  8 12  1  0
 12 15  1  0
  8  9  1  0
  8 10  1  0
  8 11  1  0
 12 13  1  0
 12 14  1  0
 15 16  1  0
 15 17  1  0
 15 18  1  0
M  CHG  1   6  -1
M  END
>  <PDB_ID>  (1151) 
pdb3cki

>  <RESIDUE_NAME>  (1151) 
GLU   LYS

>  <FRAG_NAME>  (1151) 
ACET   PRPA

>  <FRAG_ATOM_NUM>  (1151) 
fragi: 7  fragj: 11

>  <atom.prop.CHAIN_ID>  (1151) 
A A A A A A A Z Z Z Z Z Z Z Z Z Z Z

>  <atom.prop.IS_HEAVY_ATOM>  (1151) 
1 0 0 0 1 1 1 1 0 0 0 1 0 0 1 0 0 0

>  <DIFUSE_FUNC_ATOM>  (1151) 
atom 6   atom 7   

>  <FINAL_SINGLE_POINT_ENERGY>  (1151) 
0

>  <NONCOV_INTER_ENERGY_QM>  (1151) 
0

>  <FF_Energy>  (1151) 
19.76

>  <QM_Energy>  (1151) 
-1.81

>  <source>  (1151) 
ACET_PRPA_11

>  <Index>  (1151) 
36759

$$$$
ACET-pdb1yi8-D-GLU-55:PRPA-pdb1yi8-D-ARG-24
     RDKit          3D

 18 16  0  0  0  0  0  0  0  0999 V2000
   -0.0025    1.5126    0.0162 C   0  0  0  0  0  0  0  0  0  0  0  0
   -0.3002    1.8040    0.9053 H   0  0  0  0  0  0  0  0  0  0  0  0
   -0.5997    1.8193   -0.6993 H   0  0  0  0  0  0  0  0  0  0  0  0
    0.9866    1.9343   -0.1630 H   0  0  0  0  0  0  0  0  0  0  0  0
    0.0000    0.0000    0.0000 C   0  0  0  0  0  0  0  0  0  0  0  0
   -1.0891   -0.5928   -0.0000 O   0  0  0  0  0  1  0  0  0  0  0  0
    1.0891   -0.6017   -0.0000 O   0  0  0  0  0  0  0  0  0  0  0  0
    3.9007   -0.9018    2.5030 C   0  0  0  0  0  0  0  0  0  0  0  0
    3.6524   -1.3401    1.6430 H   0  0  0  0  0  0  0  0  0  0  0  0
    4.5811   -1.4515    2.9800 H   0  0  0  0  0  0  0  0  0  0  0  0
    4.3431    0.0682    2.2762 H   0  0  0  0  0  0  0  0  0  0  0  0
    2.6419   -0.8505    3.3826 C   0  0  0  0  0  0  0  0  0  0  0  0
    2.8103   -1.3451    4.2333 H   0  0  0  0  0  0  0  0  0  0  0  0
    2.4160    0.1006    3.5839 H   0  0  0  0  0  0  0  0  0  0  0  0
    1.4059   -1.4904    2.7045 C   0  0  0  0  0  0  0  0  0  0  0  0
    0.6057   -1.2392    3.2477 H   0  0  0  0  0  0  0  0  0  0  0  0
    1.3302   -1.0933    1.7908 H   0  0  0  0  0  0  0  0  0  0  0  0
    1.4707   -2.5758    2.6283 H   0  0  0  0  0  0  0  0  0  0  0  0
  1  5  1  0
  5  6  1  0
  5  7  2  0
  1  2  1  0
  1  3  1  0
  1  4  1  0
  8 12  1  0
 12 15  1  0
  8  9  1  0
  8 10  1  0
  8 11  1  0
 12 13  1  0
 12 14  1  0
 15 16  1  0
 15 17  1  0
 15 18  1  0
M  CHG  1   6  -1
M  END
>  <PDB_ID>  (1152) 
pdb1yi8

>  <RESIDUE_NAME>  (1152) 
GLU   ARG

>  <FRAG_NAME>  (1152) 
ACET   PRPA

>  <FRAG_ATOM_NUM>  (1152) 
fragi: 7  fragj: 11

>  <atom.prop.CHAIN_ID>  (1152) 
A A A A A A A Z Z Z Z Z Z Z Z Z Z Z

>  <atom.prop.IS_HEAVY_ATOM>  (1152) 
1 0 0 0 1 1 1 1 0 0 0 1 0 0 1 0 0 0

>  <DIFUSE_FUNC_ATOM>  (1152) 
atom 6   atom 7   

>  <FINAL_SINGLE_POINT_ENERGY>  (1152) 
0

>  <NONCOV_INTER_ENERGY_QM>  (1152) 
0

>  <FF_Energy>  (1152) 
17.07

>  <QM_Energy>  (1152) 
-0.88

>  <source>  (1152) 
ACET_PRPA_11

>  <Index>  (1152) 
38639

$$$$
ACET-pdb1ywq-A-ASP-195:PRPA-pdb1ywq-A-PRO-192
     RDKit          3D

 18 16  0  0  0  0  0  0  0  0999 V2000
    0.0034    1.5104    0.0168 C   0  0  0  0  0  0  0  0  0  0  0  0
    0.6517    1.8385   -0.6617 H   0  0  0  0  0  0  0  0  0  0  0  0
    0.2623    1.8222    0.9233 H   0  0  0  0  0  0  0  0  0  0  0  0
   -0.9727    1.9346   -0.2184 H   0  0  0  0  0  0  0  0  0  0  0  0
    0.0000    0.0000    0.0000 C   0  0  0  0  0  0  0  0  0  0  0  0
   -1.0994   -0.5940    0.0000 O   0  0  0  0  0  1  0  0  0  0  0  0
    1.0994   -0.5936   -0.0000 O   0  0  0  0  0  0  0  0  0  0  0  0
    2.2249    0.2932   -4.2962 C   0  0  0  0  0  0  0  0  0  0  0  0
    2.4670    0.1130   -5.2571 H   0  0  0  0  0  0  0  0  0  0  0  0
    3.1036    0.5850   -3.7210 H   0  0  0  0  0  0  0  0  0  0  0  0
    1.4414    1.0487   -4.2374 H   0  0  0  0  0  0  0  0  0  0  0  0
    1.8387   -1.0617   -3.6847 C   0  0  0  0  0  0  0  0  0  0  0  0
    0.8475   -1.1276   -3.5688 H   0  0  0  0  0  0  0  0  0  0  0  0
    2.1577   -1.8143   -4.2606 H   0  0  0  0  0  0  0  0  0  0  0  0
    2.5344   -1.0804   -2.3476 C   0  0  0  0  0  0  0  0  0  0  0  0
    1.9846   -0.5954   -1.6681 H   0  0  0  0  0  0  0  0  0  0  0  0
    2.6779   -2.0238   -2.0494 H   0  0  0  0  0  0  0  0  0  0  0  0
    3.4797   -0.5716   -2.5369 H   0  0  0  0  0  0  0  0  0  0  0  0
  1  5  1  0
  5  6  1  0
  5  7  2  0
  1  2  1  0
  1  3  1  0
  1  4  1  0
  8 12  1  0
 12 15  1  0
  8  9  1  0
  8 10  1  0
  8 11  1  0
 12 13  1  0
 12 14  1  0
 15 16  1  0
 15 17  1  0
 15 18  1  0
M  CHG  1   6  -1
M  END
>  <PDB_ID>  (1153) 
pdb1ywq

>  <RESIDUE_NAME>  (1153) 
ASP   PRO

>  <FRAG_NAME>  (1153) 
ACET   PRPA

>  <FRAG_ATOM_NUM>  (1153) 
fragi: 7  fragj: 11

>  <atom.prop.CHAIN_ID>  (1153) 
A A A A A A A Z Z Z Z Z Z Z Z Z Z Z

>  <atom.prop.IS_HEAVY_ATOM>  (1153) 
1 0 0 0 1 1 1 1 0 0 0 1 0 0 1 0 0 0

>  <DIFUSE_FUNC_ATOM>  (1153) 
atom 6   atom 7   

>  <FINAL_SINGLE_POINT_ENERGY>  (1153) 
0

>  <NONCOV_INTER_ENERGY_QM>  (1153) 
0

>  <FF_Energy>  (1153) 
15.41

>  <QM_Energy>  (1153) 
-0.37

>  <source>  (1153) 
ACET_PRPA_11

>  <Index>  (1153) 
39838

$$$$
ACET-pdb1ywq-A-ASP-195:PRPA-pdb1ywq-A-PRO-192
     RDKit          3D

 18 16  0  0  0  0  0  0  0  0999 V2000
    0.0034    1.5104    0.0168 C   0  0  0  0  0  0  0  0  0  0  0  0
    0.6517    1.8385   -0.6617 H   0  0  0  0  0  0  0  0  0  0  0  0
    0.2623    1.8222    0.9233 H   0  0  0  0  0  0  0  0  0  0  0  0
   -0.9727    1.9346   -0.2184 H   0  0  0  0  0  0  0  0  0  0  0  0
    0.0000    0.0000    0.0000 C   0  0  0  0  0  0  0  0  0  0  0  0
   -1.0994   -0.5940    0.0000 O   0  0  0  0  0  1  0  0  0  0  0  0
    1.0994   -0.5936   -0.0000 O   0  0  0  0  0  0  0  0  0  0  0  0
    1.8387   -1.0617   -3.6847 C   0  0  0  0  0  0  0  0  0  0  0  0
    0.8475   -1.1276   -3.5688 H   0  0  0  0  0  0  0  0  0  0  0  0
    2.1577   -1.8143   -4.2606 H   0  0  0  0  0  0  0  0  0  0  0  0
    2.1128   -0.1001   -4.1187 H   0  0  0  0  0  0  0  0  0  0  0  0
    2.5344   -1.0804   -2.3476 C   0  0  0  0  0  0  0  0  0  0  0  0
    1.9846   -0.5954   -1.6681 H   0  0  0  0  0  0  0  0  0  0  0  0
    2.6779   -2.0238   -2.0494 H   0  0  0  0  0  0  0  0  0  0  0  0
    3.8252   -0.3856   -2.6060 C   0  0  0  0  0  0  0  0  0  0  0  0
    4.2136    0.0008   -1.7745 H   0  0  0  0  0  0  0  0  0  0  0  0
    4.4885   -0.9837   -3.0487 H   0  0  0  0  0  0  0  0  0  0  0  0
    3.5142    0.4077   -3.2856 H   0  0  0  0  0  0  0  0  0  0  0  0
  1  5  1  0
  5  6  1  0
  5  7  2  0
  1  2  1  0
  1  3  1  0
  1  4  1  0
  8 12  1  0
 12 15  1  0
  8  9  1  0
  8 10  1  0
  8 11  1  0
 12 13  1  0
 12 14  1  0
 15 16  1  0
 15 17  1  0
 15 18  1  0
M  CHG  1   6  -1
M  END
>  <PDB_ID>  (1154) 
pdb1ywq

>  <RESIDUE_NAME>  (1154) 
ASP   PRO

>  <FRAG_NAME>  (1154) 
ACET   PRPA

>  <FRAG_ATOM_NUM>  (1154) 
fragi: 7  fragj: 11

>  <atom.prop.CHAIN_ID>  (1154) 
A A A A A A A Z Z Z Z Z Z Z Z Z Z Z

>  <atom.prop.IS_HEAVY_ATOM>  (1154) 
1 0 0 0 1 1 1 1 0 0 0 1 0 0 1 0 0 0

>  <DIFUSE_FUNC_ATOM>  (1154) 
atom 6   atom 7   

>  <FINAL_SINGLE_POINT_ENERGY>  (1154) 
0

>  <NONCOV_INTER_ENERGY_QM>  (1154) 
0

>  <FF_Energy>  (1154) 
17.31

>  <QM_Energy>  (1154) 
-0.57

>  <source>  (1154) 
ACET_PRPA_11

>  <Index>  (1154) 
39841

$$$$
ACET-pdb1ywt-A-GLU-66:PRPA-pdb1ywt-A-ARG-82
     RDKit          3D

 18 16  0  0  0  0  0  0  0  0999 V2000
    0.0060    1.5095    0.0042 C   0  0  0  0  0  0  0  0  0  0  0  0
   -0.4729    1.8112   -0.7976 H   0  0  0  0  0  0  0  0  0  0  0  0
    0.9430    1.8029    0.0135 H   0  0  0  0  0  0  0  0  0  0  0  0
   -0.4952    1.9185    0.8815 H   0  0  0  0  0  0  0  0  0  0  0  0
    0.0000    0.0000    0.0000 C   0  0  0  0  0  0  0  0  0  0  0  0
   -1.0955   -0.5940   -0.0000 O   0  0  0  0  0  1  0  0  0  0  0  0
    1.0955   -0.5947    0.0000 O   0  0  0  0  0  0  0  0  0  0  0  0
    4.4120   -2.2337    1.2985 C   0  0  0  0  0  0  0  0  0  0  0  0
    4.5683   -1.3100    0.9563 H   0  0  0  0  0  0  0  0  0  0  0  0
    5.2726   -2.6256    1.6157 H   0  0  0  0  0  0  0  0  0  0  0  0
    3.7329   -2.1708    2.1487 H   0  0  0  0  0  0  0  0  0  0  0  0
    3.9067   -3.0857    0.1388 C   0  0  0  0  0  0  0  0  0  0  0  0
    4.6799   -3.4684   -0.3529 H   0  0  0  0  0  0  0  0  0  0  0  0
    3.3234   -3.8096    0.4887 H   0  0  0  0  0  0  0  0  0  0  0  0
    3.0881   -2.2481   -0.8391 C   0  0  0  0  0  0  0  0  0  0  0  0
    2.3966   -1.7524   -0.3152 H   0  0  0  0  0  0  0  0  0  0  0  0
    3.7074   -1.5961   -1.2771 H   0  0  0  0  0  0  0  0  0  0  0  0
    2.5970   -2.8484   -1.6050 H   0  0  0  0  0  0  0  0  0  0  0  0
  1  5  1  0
  5  6  1  0
  5  7  2  0
  1  2  1  0
  1  3  1  0
  1  4  1  0
  8 12  1  0
 12 15  1  0
  8  9  1  0
  8 10  1  0
  8 11  1  0
 12 13  1  0
 12 14  1  0
 15 16  1  0
 15 17  1  0
 15 18  1  0
M  CHG  1   6  -1
M  END
>  <PDB_ID>  (1155) 
pdb1ywt

>  <RESIDUE_NAME>  (1155) 
GLU   ARG

>  <FRAG_NAME>  (1155) 
ACET   PRPA

>  <FRAG_ATOM_NUM>  (1155) 
fragi: 7  fragj: 11

>  <atom.prop.CHAIN_ID>  (1155) 
A A A A A A A Z Z Z Z Z Z Z Z Z Z Z

>  <atom.prop.IS_HEAVY_ATOM>  (1155) 
1 0 0 0 1 1 1 1 0 0 0 1 0 0 1 0 0 0

>  <DIFUSE_FUNC_ATOM>  (1155) 
atom 6   atom 7   

>  <FINAL_SINGLE_POINT_ENERGY>  (1155) 
0

>  <NONCOV_INTER_ENERGY_QM>  (1155) 
0

>  <FF_Energy>  (1155) 
34.36

>  <QM_Energy>  (1155) 
1.77

>  <source>  (1155) 
ACET_PRPA_12

>  <Index>  (1155) 
30

$$$$
ACET-pdb1yzg-A-GLU-113:PRPA-pdb1yzg-A-ARG-116
     RDKit          3D

 18 16  0  0  0  0  0  0  0  0999 V2000
    0.0287    1.5368   -0.0411 C   0  0  0  0  0  0  0  0  0  0  0  0
   -0.3970    1.8161   -0.8858 H   0  0  0  0  0  0  0  0  0  0  0  0
    0.9748    1.8137    0.0007 H   0  0  0  0  0  0  0  0  0  0  0  0
   -0.5008    2.0237    0.7778 H   0  0  0  0  0  0  0  0  0  0  0  0
    0.0000    0.0000    0.0000 C   0  0  0  0  0  0  0  0  0  0  0  0
   -1.0949   -0.6177   -0.0000 O   0  0  0  0  0  1  0  0  0  0  0  0
    1.0949   -0.5994    0.0000 O   0  0  0  0  0  0  0  0  0  0  0  0
    4.3439   -0.2078    4.1148 C   0  0  0  0  0  0  0  0  0  0  0  0
    3.8456   -0.9359    4.6256 H   0  0  0  0  0  0  0  0  0  0  0  0
    4.0161    0.7591    4.4965 H   0  0  0  0  0  0  0  0  0  0  0  0
    5.4149   -0.3864    4.2100 H   0  0  0  0  0  0  0  0  0  0  0  0
    3.9352   -0.4205    2.6535 C   0  0  0  0  0  0  0  0  0  0  0  0
    4.2824    0.3518    2.1156 H   0  0  0  0  0  0  0  0  0  0  0  0
    4.3688   -1.2642    2.3264 H   0  0  0  0  0  0  0  0  0  0  0  0
    2.4315   -0.5366    2.3812 C   0  0  0  0  0  0  0  0  0  0  0  0
    2.0051    0.3792    2.4892 H   0  0  0  0  0  0  0  0  0  0  0  0
    2.2925   -0.8165    1.4151 H   0  0  0  0  0  0  0  0  0  0  0  0
    1.8756   -1.2344    3.0074 H   0  0  0  0  0  0  0  0  0  0  0  0
  1  5  1  0
  5  6  1  0
  5  7  2  0
  1  2  1  0
  1  3  1  0
  1  4  1  0
  8 12  1  0
 12 15  1  0
  8  9  1  0
  8 10  1  0
  8 11  1  0
 12 13  1  0
 12 14  1  0
 15 16  1  0
 15 17  1  0
 15 18  1  0
M  CHG  1   6  -1
M  END
>  <PDB_ID>  (1156) 
pdb1yzg

>  <RESIDUE_NAME>  (1156) 
GLU   ARG

>  <FRAG_NAME>  (1156) 
ACET   PRPA

>  <FRAG_ATOM_NUM>  (1156) 
fragi: 7  fragj: 11

>  <atom.prop.CHAIN_ID>  (1156) 
A A A A A A A Z Z Z Z Z Z Z Z Z Z Z

>  <atom.prop.IS_HEAVY_ATOM>  (1156) 
1 0 0 0 1 1 1 1 0 0 0 1 0 0 1 0 0 0

>  <DIFUSE_FUNC_ATOM>  (1156) 
atom 6   atom 7   

>  <FINAL_SINGLE_POINT_ENERGY>  (1156) 
0

>  <NONCOV_INTER_ENERGY_QM>  (1156) 
0

>  <FF_Energy>  (1156) 
17.75

>  <QM_Energy>  (1156) 
1.13

>  <source>  (1156) 
ACET_PRPA_12

>  <Index>  (1156) 
341

$$$$
ACET-pdb1yzg-A-GLU-113:PRPA-pdb1yzg-A-ARG-116
     RDKit          3D

 18 16  0  0  0  0  0  0  0  0999 V2000
    0.0287    1.5368   -0.0411 C   0  0  0  0  0  0  0  0  0  0  0  0
   -0.3970    1.8161   -0.8858 H   0  0  0  0  0  0  0  0  0  0  0  0
    0.9748    1.8137    0.0007 H   0  0  0  0  0  0  0  0  0  0  0  0
   -0.5008    2.0237    0.7778 H   0  0  0  0  0  0  0  0  0  0  0  0
    0.0000    0.0000    0.0000 C   0  0  0  0  0  0  0  0  0  0  0  0
   -1.0949   -0.6177   -0.0000 O   0  0  0  0  0  1  0  0  0  0  0  0
    1.0949   -0.5994    0.0000 O   0  0  0  0  0  0  0  0  0  0  0  0
    3.9352   -0.4205    2.6535 C   0  0  0  0  0  0  0  0  0  0  0  0
    4.2824    0.3518    2.1156 H   0  0  0  0  0  0  0  0  0  0  0  0
    4.3688   -1.2642    2.3264 H   0  0  0  0  0  0  0  0  0  0  0  0
    4.2259   -0.2692    3.6931 H   0  0  0  0  0  0  0  0  0  0  0  0
    2.4315   -0.5366    2.3812 C   0  0  0  0  0  0  0  0  0  0  0  0
    2.0051    0.3792    2.4892 H   0  0  0  0  0  0  0  0  0  0  0  0
    2.2925   -0.8165    1.4151 H   0  0  0  0  0  0  0  0  0  0  0  0
    1.6489   -1.5188    3.2627 C   0  0  0  0  0  0  0  0  0  0  0  0
    1.9782   -2.4325    3.0667 H   0  0  0  0  0  0  0  0  0  0  0  0
    1.8150   -1.2760    4.2088 H   0  0  0  0  0  0  0  0  0  0  0  0
    0.5803   -1.4652    3.0553 H   0  0  0  0  0  0  0  0  0  0  0  0
  1  5  1  0
  5  6  1  0
  5  7  2  0
  1  2  1  0
  1  3  1  0
  1  4  1  0
  8 12  1  0
 12 15  1  0
  8  9  1  0
  8 10  1  0
  8 11  1  0
 12 13  1  0
 12 14  1  0
 15 16  1  0
 15 17  1  0
 15 18  1  0
M  CHG  1   6  -1
M  END
>  <PDB_ID>  (1157) 
pdb1yzg

>  <RESIDUE_NAME>  (1157) 
GLU   ARG

>  <FRAG_NAME>  (1157) 
ACET   PRPA

>  <FRAG_ATOM_NUM>  (1157) 
fragi: 7  fragj: 11

>  <atom.prop.CHAIN_ID>  (1157) 
A A A A A A A Z Z Z Z Z Z Z Z Z Z Z

>  <atom.prop.IS_HEAVY_ATOM>  (1157) 
1 0 0 0 1 1 1 1 0 0 0 1 0 0 1 0 0 0

>  <DIFUSE_FUNC_ATOM>  (1157) 
atom 6   atom 7   

>  <FINAL_SINGLE_POINT_ENERGY>  (1157) 
0

>  <NONCOV_INTER_ENERGY_QM>  (1157) 
0

>  <FF_Energy>  (1157) 
20.26

>  <QM_Energy>  (1157) 
0.23

>  <source>  (1157) 
ACET_PRPA_12

>  <Index>  (1157) 
344

$$$$
ACET-pdb3cs5-A-GLU-34:PRPA-pdb3cs5-A-GLU-31
     RDKit          3D

 18 16  0  0  0  0  0  0  0  0999 V2000
    0.0338    1.5225   -0.0234 C   0  0  0  0  0  0  0  0  0  0  0  0
    0.9737    1.7950   -0.0307 H   0  0  0  0  0  0  0  0  0  0  0  0
   -0.4505    1.8381    0.7661 H   0  0  0  0  0  0  0  0  0  0  0  0
   -0.4507    1.9239   -0.9134 H   0  0  0  0  0  0  0  0  0  0  0  0
    0.0000    0.0000    0.0000 C   0  0  0  0  0  0  0  0  0  0  0  0
   -1.0892   -0.6037    0.0000 O   0  0  0  0  0  1  0  0  0  0  0  0
    1.0892   -0.6171    0.0000 O   0  0  0  0  0  0  0  0  0  0  0  0
   -2.4881    0.8869    1.9794 C   0  0  0  0  0  0  0  0  0  0  0  0
   -1.8173    0.6024    1.3023 H   0  0  0  0  0  0  0  0  0  0  0  0
   -2.0145    0.9782    2.9569 H   0  0  0  0  0  0  0  0  0  0  0  0
   -2.8944    1.8592    1.7008 H   0  0  0  0  0  0  0  0  0  0  0  0
   -3.5759   -0.1576    1.8591 C   0  0  0  0  0  0  0  0  0  0  0  0
   -4.4574    0.3306    1.7486 H   0  0  0  0  0  0  0  0  0  0  0  0
   -3.4099   -0.6751    1.0042 H   0  0  0  0  0  0  0  0  0  0  0  0
   -3.7842   -1.1890    2.9598 C   0  0  0  0  0  0  0  0  0  0  0  0
   -3.3659   -2.0224    2.6904 H   0  0  0  0  0  0  0  0  0  0  0  0
   -3.4513   -0.8261    3.7976 H   0  0  0  0  0  0  0  0  0  0  0  0
   -4.8463   -1.3921    3.0974 H   0  0  0  0  0  0  0  0  0  0  0  0
  1  5  1  0
  5  6  1  0
  5  7  2  0
  1  2  1  0
  1  3  1  0
  1  4  1  0
  8 12  1  0
 12 15  1  0
  8  9  1  0
  8 10  1  0
  8 11  1  0
 12 13  1  0
 12 14  1  0
 15 16  1  0
 15 17  1  0
 15 18  1  0
M  CHG  1   6  -1
M  END
>  <PDB_ID>  (1158) 
pdb3cs5

>  <RESIDUE_NAME>  (1158) 
GLU   GLU

>  <FRAG_NAME>  (1158) 
ACET   PRPA

>  <FRAG_ATOM_NUM>  (1158) 
fragi: 7  fragj: 11

>  <atom.prop.CHAIN_ID>  (1158) 
A A A A A A A Z Z Z Z Z Z Z Z Z Z Z

>  <atom.prop.IS_HEAVY_ATOM>  (1158) 
1 0 0 0 1 1 1 1 0 0 0 1 0 0 1 0 0 0

>  <DIFUSE_FUNC_ATOM>  (1158) 
atom 6   atom 7   

>  <FINAL_SINGLE_POINT_ENERGY>  (1158) 
0

>  <NONCOV_INTER_ENERGY_QM>  (1158) 
0

>  <FF_Energy>  (1158) 
19.43

>  <QM_Energy>  (1158) 
-0.87

>  <source>  (1158) 
ACET_PRPA_12

>  <Index>  (1158) 
351

$$$$
ACET-pdb1z06-A-GLU-72:PRPA-pdb1z06-A-GLN-85
     RDKit          3D

 18 16  0  0  0  0  0  0  0  0999 V2000
   -0.0036    1.5151    0.0018 C   0  0  0  0  0  0  0  0  0  0  0  0
    0.7764    1.8133   -0.5194 H   0  0  0  0  0  0  0  0  0  0  0  0
    0.0445    1.8089    0.9404 H   0  0  0  0  0  0  0  0  0  0  0  0
   -0.9024    1.9361   -0.4489 H   0  0  0  0  0  0  0  0  0  0  0  0
    0.0000    0.0000    0.0000 C   0  0  0  0  0  0  0  0  0  0  0  0
   -1.1027   -0.6049    0.0000 O   0  0  0  0  0  1  0  0  0  0  0  0
    1.1027   -0.5779   -0.0000 O   0  0  0  0  0  0  0  0  0  0  0  0
    2.9326    4.1591   -1.5957 C   0  0  0  0  0  0  0  0  0  0  0  0
    2.0271    4.1355   -1.1916 H   0  0  0  0  0  0  0  0  0  0  0  0
    2.8242    4.3865   -2.6562 H   0  0  0  0  0  0  0  0  0  0  0  0
    3.4824    4.9866   -1.1472 H   0  0  0  0  0  0  0  0  0  0  0  0
    3.5667    2.7805   -1.4060 C   0  0  0  0  0  0  0  0  0  0  0  0
    3.3186    2.2024   -2.1862 H   0  0  0  0  0  0  0  0  0  0  0  0
    4.5640    2.8861   -1.3799 H   0  0  0  0  0  0  0  0  0  0  0  0
    3.1347    2.0694   -0.1342 C   0  0  0  0  0  0  0  0  0  0  0  0
    3.1590    2.7217    0.6225 H   0  0  0  0  0  0  0  0  0  0  0  0
    2.2007    1.7334   -0.2557 H   0  0  0  0  0  0  0  0  0  0  0  0
    3.7792    1.2257    0.1129 H   0  0  0  0  0  0  0  0  0  0  0  0
  1  5  1  0
  5  6  1  0
  5  7  2  0
  1  2  1  0
  1  3  1  0
  1  4  1  0
  8 12  1  0
 12 15  1  0
  8  9  1  0
  8 10  1  0
  8 11  1  0
 12 13  1  0
 12 14  1  0
 15 16  1  0
 15 17  1  0
 15 18  1  0
M  CHG  1   6  -1
M  END
>  <PDB_ID>  (1159) 
pdb1z06

>  <RESIDUE_NAME>  (1159) 
GLU   GLN

>  <FRAG_NAME>  (1159) 
ACET   PRPA

>  <FRAG_ATOM_NUM>  (1159) 
fragi: 7  fragj: 11

>  <atom.prop.CHAIN_ID>  (1159) 
A A A A A A A Z Z Z Z Z Z Z Z Z Z Z

>  <atom.prop.IS_HEAVY_ATOM>  (1159) 
1 0 0 0 1 1 1 1 0 0 0 1 0 0 1 0 0 0

>  <DIFUSE_FUNC_ATOM>  (1159) 
atom 6   atom 7   

>  <FINAL_SINGLE_POINT_ENERGY>  (1159) 
0

>  <NONCOV_INTER_ENERGY_QM>  (1159) 
0

>  <FF_Energy>  (1159) 
42.88

>  <QM_Energy>  (1159) 
4.65

>  <source>  (1159) 
ACET_PRPA_12

>  <Index>  (1159) 
752

$$$$
ACET-pdb3cpj-B-GLU-169:PRPA-pdb3cpj-B-LYS-165
     RDKit          3D

 18 16  0  0  0  0  0  0  0  0999 V2000
    0.1734    1.4862    0.0158 C   0  0  0  0  0  0  0  0  0  0  0  0
    0.6920    1.7429   -0.8013 H   0  0  0  0  0  0  0  0  0  0  0  0
    0.7035    1.7236    0.8304 H   0  0  0  0  0  0  0  0  0  0  0  0
   -0.7374    2.0850    0.0282 H   0  0  0  0  0  0  0  0  0  0  0  0
    0.0000    0.0000    0.0000 C   0  0  0  0  0  0  0  0  0  0  0  0
   -1.0897   -0.5575   -0.0000 O   0  0  0  0  0  1  0  0  0  0  0  0
    1.0897   -0.6061    0.0000 O   0  0  0  0  0  0  0  0  0  0  0  0
    2.7000    1.0852    3.6314 C   0  0  0  0  0  0  0  0  0  0  0  0
    3.2058    1.7204    3.0369 H   0  0  0  0  0  0  0  0  0  0  0  0
    3.0013    1.2531    4.6655 H   0  0  0  0  0  0  0  0  0  0  0  0
    1.6324    1.2655    3.5053 H   0  0  0  0  0  0  0  0  0  0  0  0
    3.0727   -0.3411    3.1963 C   0  0  0  0  0  0  0  0  0  0  0  0
    4.0649   -0.4446    3.2905 H   0  0  0  0  0  0  0  0  0  0  0  0
    2.6168   -0.9837    3.8168 H   0  0  0  0  0  0  0  0  0  0  0  0
    2.6891   -0.7095    1.7639 C   0  0  0  0  0  0  0  0  0  0  0  0
    1.6949   -0.7381    1.6899 H   0  0  0  0  0  0  0  0  0  0  0  0
    3.0576   -0.0249    1.1407 H   0  0  0  0  0  0  0  0  0  0  0  0
    3.0883   -1.6855    1.4875 H   0  0  0  0  0  0  0  0  0  0  0  0
  1  5  1  0
  5  6  1  0
  5  7  2  0
  1  2  1  0
  1  3  1  0
  1  4  1  0
  8 12  1  0
 12 15  1  0
  8  9  1  0
  8 10  1  0
  8 11  1  0
 12 13  1  0
 12 14  1  0
 15 16  1  0
 15 17  1  0
 15 18  1  0
M  CHG  1   6  -1
M  END
>  <PDB_ID>  (1160) 
pdb3cpj

>  <RESIDUE_NAME>  (1160) 
GLU   LYS

>  <FRAG_NAME>  (1160) 
ACET   PRPA

>  <FRAG_ATOM_NUM>  (1160) 
fragi: 7  fragj: 11

>  <atom.prop.CHAIN_ID>  (1160) 
A A A A A A A Z Z Z Z Z Z Z Z Z Z Z

>  <atom.prop.IS_HEAVY_ATOM>  (1160) 
1 0 0 0 1 1 1 1 0 0 0 1 0 0 1 0 0 0

>  <DIFUSE_FUNC_ATOM>  (1160) 
atom 6   atom 7   

>  <FINAL_SINGLE_POINT_ENERGY>  (1160) 
0

>  <NONCOV_INTER_ENERGY_QM>  (1160) 
0

>  <FF_Energy>  (1160) 
45.82

>  <QM_Energy>  (1160) 
10.47

>  <source>  (1160) 
ACET_PRPA_12

>  <Index>  (1160) 
1034

$$$$
ACET-pdb3cpj-B-GLU-169:PRPA-pdb3cpj-B-LYS-165
     RDKit          3D

 18 16  0  0  0  0  0  0  0  0999 V2000
    0.1734    1.4862    0.0158 C   0  0  0  0  0  0  0  0  0  0  0  0
    0.6920    1.7429   -0.8013 H   0  0  0  0  0  0  0  0  0  0  0  0
    0.7035    1.7236    0.8304 H   0  0  0  0  0  0  0  0  0  0  0  0
   -0.7374    2.0850    0.0282 H   0  0  0  0  0  0  0  0  0  0  0  0
    0.0000    0.0000    0.0000 C   0  0  0  0  0  0  0  0  0  0  0  0
   -1.0897   -0.5575   -0.0000 O   0  0  0  0  0  1  0  0  0  0  0  0
    1.0897   -0.6061    0.0000 O   0  0  0  0  0  0  0  0  0  0  0  0
    3.0727   -0.3411    3.1963 C   0  0  0  0  0  0  0  0  0  0  0  0
    4.0649   -0.4446    3.2905 H   0  0  0  0  0  0  0  0  0  0  0  0
    2.6168   -0.9837    3.8168 H   0  0  0  0  0  0  0  0  0  0  0  0
    2.8084    0.6703    3.5049 H   0  0  0  0  0  0  0  0  0  0  0  0
    2.6891   -0.7095    1.7639 C   0  0  0  0  0  0  0  0  0  0  0  0
    1.6949   -0.7381    1.6899 H   0  0  0  0  0  0  0  0  0  0  0  0
    3.0576   -0.0249    1.1407 H   0  0  0  0  0  0  0  0  0  0  0  0
    3.2502   -2.0812    1.3754 C   0  0  0  0  0  0  0  0  0  0  0  0
    4.2420   -2.0433    1.4153 H   0  0  0  0  0  0  0  0  0  0  0  0
    2.9006   -2.7606    2.0091 H   0  0  0  0  0  0  0  0  0  0  0  0
    2.9547   -2.3646    0.3652 H   0  0  0  0  0  0  0  0  0  0  0  0
  1  5  1  0
  5  6  1  0
  5  7  2  0
  1  2  1  0
  1  3  1  0
  1  4  1  0
  8 12  1  0
 12 15  1  0
  8  9  1  0
  8 10  1  0
  8 11  1  0
 12 13  1  0
 12 14  1  0
 15 16  1  0
 15 17  1  0
 15 18  1  0
M  CHG  1   6  -1
M  END
>  <PDB_ID>  (1161) 
pdb3cpj

>  <RESIDUE_NAME>  (1161) 
GLU   LYS

>  <FRAG_NAME>  (1161) 
ACET   PRPA

>  <FRAG_ATOM_NUM>  (1161) 
fragi: 7  fragj: 11

>  <atom.prop.CHAIN_ID>  (1161) 
A A A A A A A Z Z Z Z Z Z Z Z Z Z Z

>  <atom.prop.IS_HEAVY_ATOM>  (1161) 
1 0 0 0 1 1 1 1 0 0 0 1 0 0 1 0 0 0

>  <DIFUSE_FUNC_ATOM>  (1161) 
atom 6   atom 7   

>  <FINAL_SINGLE_POINT_ENERGY>  (1161) 
0

>  <NONCOV_INTER_ENERGY_QM>  (1161) 
0

>  <FF_Energy>  (1161) 
47.95

>  <QM_Energy>  (1161) 
9.45

>  <source>  (1161) 
ACET_PRPA_12

>  <Index>  (1161) 
1039

$$$$
ACET-pdb3cs5-D-GLU-34:PRPA-pdb3cs5-C-ARG-26
     RDKit          3D

 18 16  0  0  0  0  0  0  0  0999 V2000
    0.0686    1.5152   -0.0724 C   0  0  0  0  0  0  0  0  0  0  0  0
    0.7880    1.7559   -0.6906 H   0  0  0  0  0  0  0  0  0  0  0  0
    0.2138    1.8539    0.8343 H   0  0  0  0  0  0  0  0  0  0  0  0
   -0.8543    1.9555   -0.4498 H   0  0  0  0  0  0  0  0  0  0  0  0
    0.0000    0.0000    0.0000 C   0  0  0  0  0  0  0  0  0  0  0  0
   -1.1435   -0.6290   -0.0000 O   0  0  0  0  0  1  0  0  0  0  0  0
    1.1435   -0.5865   -0.0000 O   0  0  0  0  0  0  0  0  0  0  0  0
    0.1110   -2.7291   -1.4827 C   0  0  0  0  0  0  0  0  0  0  0  0
   -0.2235   -2.1335   -0.7315 H   0  0  0  0  0  0  0  0  0  0  0  0
    0.3809   -2.1037   -2.3336 H   0  0  0  0  0  0  0  0  0  0  0  0
    0.9462   -3.3183   -1.1038 H   0  0  0  0  0  0  0  0  0  0  0  0
   -1.0411   -3.6751   -1.8594 C   0  0  0  0  0  0  0  0  0  0  0  0
   -1.4457   -3.3488   -2.7017 H   0  0  0  0  0  0  0  0  0  0  0  0
   -0.6689   -4.5853   -1.9719 H   0  0  0  0  0  0  0  0  0  0  0  0
   -2.1327   -3.7345   -0.7975 C   0  0  0  0  0  0  0  0  0  0  0  0
   -1.9104   -4.4468   -0.1356 H   0  0  0  0  0  0  0  0  0  0  0  0
   -2.1933   -2.8516   -0.3368 H   0  0  0  0  0  0  0  0  0  0  0  0
   -3.1068   -3.9610   -1.2310 H   0  0  0  0  0  0  0  0  0  0  0  0
  1  5  1  0
  5  6  1  0
  5  7  2  0
  1  2  1  0
  1  3  1  0
  1  4  1  0
  8 12  1  0
 12 15  1  0
  8  9  1  0
  8 10  1  0
  8 11  1  0
 12 13  1  0
 12 14  1  0
 15 16  1  0
 15 17  1  0
 15 18  1  0
M  CHG  1   6  -1
M  END
>  <PDB_ID>  (1162) 
pdb3cs5

>  <RESIDUE_NAME>  (1162) 
GLU   ARG

>  <FRAG_NAME>  (1162) 
ACET   PRPA

>  <FRAG_ATOM_NUM>  (1162) 
fragi: 7  fragj: 11

>  <atom.prop.CHAIN_ID>  (1162) 
A A A A A A A Z Z Z Z Z Z Z Z Z Z Z

>  <atom.prop.IS_HEAVY_ATOM>  (1162) 
1 0 0 0 1 1 1 1 0 0 0 1 0 0 1 0 0 0

>  <DIFUSE_FUNC_ATOM>  (1162) 
atom 6   atom 7   

>  <FINAL_SINGLE_POINT_ENERGY>  (1162) 
0

>  <NONCOV_INTER_ENERGY_QM>  (1162) 
0

>  <FF_Energy>  (1162) 
21.56

>  <QM_Energy>  (1162) 
1.0

>  <source>  (1162) 
ACET_PRPA_12

>  <Index>  (1162) 
1426

$$$$
ACET-pdb1yvp-A-ASP-523:PRPA-pdb1yvp-A-ARG-85
     RDKit          3D

 18 16  0  0  0  0  0  0  0  0999 V2000
    0.0026    1.5153   -0.0043 C   0  0  0  0  0  0  0  0  0  0  0  0
   -0.4669    1.8379    0.8098 H   0  0  0  0  0  0  0  0  0  0  0  0
   -0.4605    1.8340   -0.8227 H   0  0  0  0  0  0  0  0  0  0  0  0
    1.0096    1.9324   -0.0011 H   0  0  0  0  0  0  0  0  0  0  0  0
    0.0000    0.0000    0.0000 C   0  0  0  0  0  0  0  0  0  0  0  0
   -1.0959   -0.5977   -0.0000 O   0  0  0  0  0  1  0  0  0  0  0  0
    1.0959   -0.5933   -0.0000 O   0  0  0  0  0  0  0  0  0  0  0  0
    3.6568   -1.9831    1.5799 C   0  0  0  0  0  0  0  0  0  0  0  0
    3.4689   -2.4980    2.4083 H   0  0  0  0  0  0  0  0  0  0  0  0
    2.9392   -1.3192    1.4100 H   0  0  0  0  0  0  0  0  0  0  0  0
    4.5984   -1.4496    1.7100 H   0  0  0  0  0  0  0  0  0  0  0  0
    3.6611   -2.9764    0.4032 C   0  0  0  0  0  0  0  0  0  0  0  0
    4.2551   -2.6303   -0.3143 H   0  0  0  0  0  0  0  0  0  0  0  0
    3.9826   -3.8605    0.7231 H   0  0  0  0  0  0  0  0  0  0  0  0
    2.2576   -3.1654   -0.1874 C   0  0  0  0  0  0  0  0  0  0  0  0
    1.7934   -2.2784   -0.1517 H   0  0  0  0  0  0  0  0  0  0  0  0
    2.3682   -3.4403   -1.1444 H   0  0  0  0  0  0  0  0  0  0  0  0
    1.6613   -3.9104    0.3395 H   0  0  0  0  0  0  0  0  0  0  0  0
  1  5  1  0
  5  6  1  0
  5  7  2  0
  1  2  1  0
  1  3  1  0
  1  4  1  0
  8 12  1  0
 12 15  1  0
  8  9  1  0
  8 10  1  0
  8 11  1  0
 12 13  1  0
 12 14  1  0
 15 16  1  0
 15 17  1  0
 15 18  1  0
M  CHG  1   6  -1
M  END
>  <PDB_ID>  (1163) 
pdb1yvp

>  <RESIDUE_NAME>  (1163) 
ASP   ARG

>  <FRAG_NAME>  (1163) 
ACET   PRPA

>  <FRAG_ATOM_NUM>  (1163) 
fragi: 7  fragj: 11

>  <atom.prop.CHAIN_ID>  (1163) 
A A A A A A A Z Z Z Z Z Z Z Z Z Z Z

>  <atom.prop.IS_HEAVY_ATOM>  (1163) 
1 0 0 0 1 1 1 1 0 0 0 1 0 0 1 0 0 0

>  <DIFUSE_FUNC_ATOM>  (1163) 
atom 6   atom 7   

>  <FINAL_SINGLE_POINT_ENERGY>  (1163) 
0

>  <NONCOV_INTER_ENERGY_QM>  (1163) 
0

>  <FF_Energy>  (1163) 
22.28

>  <QM_Energy>  (1163) 
-1.68

>  <source>  (1163) 
ACET_PRPA_12

>  <Index>  (1163) 
1468

$$$$
ACET-pdb1yrz-A-GLU-1209:PRPA-pdb1yrz-A-VAL-1495
     RDKit          3D

 18 16  0  0  0  0  0  0  0  0999 V2000
    0.0099    1.5205    0.0019 C   0  0  0  0  0  0  0  0  0  0  0  0
   -0.6709    1.8255   -0.6405 H   0  0  0  0  0  0  0  0  0  0  0  0
    0.9149    1.8139   -0.2540 H   0  0  0  0  0  0  0  0  0  0  0  0
   -0.2247    1.9592    0.9718 H   0  0  0  0  0  0  0  0  0  0  0  0
    0.0000    0.0000    0.0000 C   0  0  0  0  0  0  0  0  0  0  0  0
   -1.0946   -0.5969   -0.0000 O   0  0  0  0  0  1  0  0  0  0  0  0
    1.0946   -0.5989   -0.0000 O   0  0  0  0  0  0  0  0  0  0  0  0
   -0.2772    0.7535   -3.5890 C   0  0  0  0  0  0  0  0  0  0  0  0
    0.2926    1.3559   -3.0296 H   0  0  0  0  0  0  0  0  0  0  0  0
   -0.4933    1.2097   -4.4527 H   0  0  0  0  0  0  0  0  0  0  0  0
   -1.1269    0.5524   -3.0997 H   0  0  0  0  0  0  0  0  0  0  0  0
    0.4681   -0.5386   -3.8677 C   0  0  0  0  0  0  0  0  0  0  0  0
    1.1984   -0.3210   -4.5076 H   0  0  0  0  0  0  0  0  0  0  0  0
   -0.1935   -1.2596   -4.3477 H   0  0  0  0  0  0  0  0  0  0  0  0
    1.0475   -1.1359   -2.6309 C   0  0  0  0  0  0  0  0  0  0  0  0
    1.0270   -0.4666   -1.8811 H   0  0  0  0  0  0  0  0  0  0  0  0
    0.5183   -1.9457   -2.3568 H   0  0  0  0  0  0  0  0  0  0  0  0
    2.0005   -1.4112   -2.7942 H   0  0  0  0  0  0  0  0  0  0  0  0
  1  5  1  0
  5  6  1  0
  5  7  2  0
  1  2  1  0
  1  3  1  0
  1  4  1  0
  8 12  1  0
 12 15  1  0
  8  9  1  0
  8 10  1  0
  8 11  1  0
 12 13  1  0
 12 14  1  0
 15 16  1  0
 15 17  1  0
 15 18  1  0
M  CHG  1   6  -1
M  END
>  <PDB_ID>  (1164) 
pdb1yrz

>  <RESIDUE_NAME>  (1164) 
GLU   VAL

>  <FRAG_NAME>  (1164) 
ACET   PRPA

>  <FRAG_ATOM_NUM>  (1164) 
fragi: 7  fragj: 11

>  <atom.prop.CHAIN_ID>  (1164) 
A A A A A A A Z Z Z Z Z Z Z Z Z Z Z

>  <atom.prop.IS_HEAVY_ATOM>  (1164) 
1 0 0 0 1 1 1 1 0 0 0 1 0 0 1 0 0 0

>  <DIFUSE_FUNC_ATOM>  (1164) 
atom 6   atom 7   

>  <FINAL_SINGLE_POINT_ENERGY>  (1164) 
0

>  <NONCOV_INTER_ENERGY_QM>  (1164) 
0

>  <FF_Energy>  (1164) 
46.25

>  <QM_Energy>  (1164) 
3.17

>  <source>  (1164) 
ACET_PRPA_12

>  <Index>  (1164) 
3632

$$$$
ACET-pdb3cq9-A-GLU-191:PRPA-pdb3cq9-A-LYS-173
     RDKit          3D

 18 16  0  0  0  0  0  0  0  0999 V2000
    0.1823    1.4844    0.0157 C   0  0  0  0  0  0  0  0  0  0  0  0
   -0.3800    1.8689   -0.7179 H   0  0  0  0  0  0  0  0  0  0  0  0
    1.1463    1.6759   -0.1716 H   0  0  0  0  0  0  0  0  0  0  0  0
   -0.0846    1.9961    0.9404 H   0  0  0  0  0  0  0  0  0  0  0  0
    0.0000    0.0000    0.0000 C   0  0  0  0  0  0  0  0  0  0  0  0
   -1.0892   -0.5556    0.0000 O   0  0  0  0  0  1  0  0  0  0  0  0
    1.0892   -0.6127    0.0000 O   0  0  0  0  0  0  0  0  0  0  0  0
   -0.8120    1.2452   -3.3371 C   0  0  0  0  0  0  0  0  0  0  0  0
   -1.0515    0.3552   -3.7392 H   0  0  0  0  0  0  0  0  0  0  0  0
   -0.7641    1.9274   -4.0726 H   0  0  0  0  0  0  0  0  0  0  0  0
   -1.5916    1.5367   -2.6333 H   0  0  0  0  0  0  0  0  0  0  0  0
    0.5503    1.1353   -2.6805 C   0  0  0  0  0  0  0  0  0  0  0  0
    0.7901    2.0101   -2.2818 H   0  0  0  0  0  0  0  0  0  0  0  0
    0.5221    0.4253   -1.9908 H   0  0  0  0  0  0  0  0  0  0  0  0
    1.6079    0.7673   -3.7118 C   0  0  0  0  0  0  0  0  0  0  0  0
    1.4605   -0.1854   -4.0002 H   0  0  0  0  0  0  0  0  0  0  0  0
    1.4978    1.3636   -4.5154 H   0  0  0  0  0  0  0  0  0  0  0  0
    2.6212    0.8722   -3.3241 H   0  0  0  0  0  0  0  0  0  0  0  0
  1  5  1  0
  5  6  1  0
  5  7  2  0
  1  2  1  0
  1  3  1  0
  1  4  1  0
  8 12  1  0
 12 15  1  0
  8  9  1  0
  8 10  1  0
  8 11  1  0
 12 13  1  0
 12 14  1  0
 15 16  1  0
 15 17  1  0
 15 18  1  0
M  CHG  1   6  -1
M  END
>  <PDB_ID>  (1165) 
pdb3cq9

>  <RESIDUE_NAME>  (1165) 
GLU   LYS

>  <FRAG_NAME>  (1165) 
ACET   PRPA

>  <FRAG_ATOM_NUM>  (1165) 
fragi: 7  fragj: 11

>  <atom.prop.CHAIN_ID>  (1165) 
A A A A A A A Z Z Z Z Z Z Z Z Z Z Z

>  <atom.prop.IS_HEAVY_ATOM>  (1165) 
1 0 0 0 1 1 1 1 0 0 0 1 0 0 1 0 0 0

>  <DIFUSE_FUNC_ATOM>  (1165) 
atom 6   atom 7   

>  <FINAL_SINGLE_POINT_ENERGY>  (1165) 
0

>  <NONCOV_INTER_ENERGY_QM>  (1165) 
0

>  <FF_Energy>  (1165) 
29.4

>  <QM_Energy>  (1165) 
4.59

>  <source>  (1165) 
ACET_PRPA_12

>  <Index>  (1165) 
4090

$$$$
ACET-pdb3cq9-A-GLU-191:PRPA-pdb3cq9-A-LYS-173
     RDKit          3D

 18 16  0  0  0  0  0  0  0  0999 V2000
    0.1823    1.4844    0.0157 C   0  0  0  0  0  0  0  0  0  0  0  0
   -0.3800    1.8689   -0.7179 H   0  0  0  0  0  0  0  0  0  0  0  0
    1.1463    1.6759   -0.1716 H   0  0  0  0  0  0  0  0  0  0  0  0
   -0.0846    1.9961    0.9404 H   0  0  0  0  0  0  0  0  0  0  0  0
    0.0000    0.0000    0.0000 C   0  0  0  0  0  0  0  0  0  0  0  0
   -1.0892   -0.5556    0.0000 O   0  0  0  0  0  1  0  0  0  0  0  0
    1.0892   -0.6127    0.0000 O   0  0  0  0  0  0  0  0  0  0  0  0
   -1.8987    1.6516   -2.3559 C   0  0  0  0  0  0  0  0  0  0  0  0
   -1.5949    2.4591   -1.8656 H   0  0  0  0  0  0  0  0  0  0  0  0
   -2.0547    0.8988   -1.7286 H   0  0  0  0  0  0  0  0  0  0  0  0
   -2.8423    1.8863   -2.8485 H   0  0  0  0  0  0  0  0  0  0  0  0
   -0.8120    1.2452   -3.3371 C   0  0  0  0  0  0  0  0  0  0  0  0
   -1.0515    0.3552   -3.7392 H   0  0  0  0  0  0  0  0  0  0  0  0
   -0.7641    1.9274   -4.0726 H   0  0  0  0  0  0  0  0  0  0  0  0
    0.5503    1.1353   -2.6805 C   0  0  0  0  0  0  0  0  0  0  0  0
    0.7901    2.0101   -2.2818 H   0  0  0  0  0  0  0  0  0  0  0  0
    0.5221    0.4253   -1.9908 H   0  0  0  0  0  0  0  0  0  0  0  0
    1.3076    0.8717   -3.4189 H   0  0  0  0  0  0  0  0  0  0  0  0
  1  5  1  0
  5  6  1  0
  5  7  2  0
  1  2  1  0
  1  3  1  0
  1  4  1  0
  8 12  1  0
 12 15  1  0
  8  9  1  0
  8 10  1  0
  8 11  1  0
 12 13  1  0
 12 14  1  0
 15 16  1  0
 15 17  1  0
 15 18  1  0
M  CHG  1   6  -1
M  END
>  <PDB_ID>  (1166) 
pdb3cq9

>  <RESIDUE_NAME>  (1166) 
GLU   LYS

>  <FRAG_NAME>  (1166) 
ACET   PRPA

>  <FRAG_ATOM_NUM>  (1166) 
fragi: 7  fragj: 11

>  <atom.prop.CHAIN_ID>  (1166) 
A A A A A A A Z Z Z Z Z Z Z Z Z Z Z

>  <atom.prop.IS_HEAVY_ATOM>  (1166) 
1 0 0 0 1 1 1 1 0 0 0 1 0 0 1 0 0 0

>  <DIFUSE_FUNC_ATOM>  (1166) 
atom 6   atom 7   

>  <FINAL_SINGLE_POINT_ENERGY>  (1166) 
0

>  <NONCOV_INTER_ENERGY_QM>  (1166) 
0

>  <FF_Energy>  (1166) 
39.1

>  <QM_Energy>  (1166) 
7.32

>  <source>  (1166) 
ACET_PRPA_12

>  <Index>  (1166) 
4099

$$$$
ACET-pdb1yup-B-GLU-62:PRPA-pdb1yup-B-LYS-69
     RDKit          3D

 18 16  0  0  0  0  0  0  0  0999 V2000
    0.1791    1.4880    0.0128 C   0  0  0  0  0  0  0  0  0  0  0  0
    0.6965    1.7412   -0.8041 H   0  0  0  0  0  0  0  0  0  0  0  0
    0.7080    1.7240    0.8286 H   0  0  0  0  0  0  0  0  0  0  0  0
   -0.7318    2.0867    0.0247 H   0  0  0  0  0  0  0  0  0  0  0  0
    0.0000    0.0000    0.0000 C   0  0  0  0  0  0  0  0  0  0  0  0
   -1.0891   -0.5544   -0.0000 O   0  0  0  0  0  1  0  0  0  0  0  0
    1.0891   -0.6082    0.0000 O   0  0  0  0  0  0  0  0  0  0  0  0
    4.4761   -0.7700   -1.0274 C   0  0  0  0  0  0  0  0  0  0  0  0
    4.2825   -0.5193   -0.0758 H   0  0  0  0  0  0  0  0  0  0  0  0
    4.7331    0.0551   -1.5368 H   0  0  0  0  0  0  0  0  0  0  0  0
    5.3097   -1.4721   -1.0460 H   0  0  0  0  0  0  0  0  0  0  0  0
    3.1881   -1.3462   -1.6506 C   0  0  0  0  0  0  0  0  0  0  0  0
    3.4160   -2.1906   -2.1227 H   0  0  0  0  0  0  0  0  0  0  0  0
    2.5342   -1.5189   -0.9237 H   0  0  0  0  0  0  0  0  0  0  0  0
    2.5519   -0.3794   -2.6591 C   0  0  0  0  0  0  0  0  0  0  0  0
    3.2116   -0.2073   -3.4020 H   0  0  0  0  0  0  0  0  0  0  0  0
    1.7383   -0.8194   -3.0601 H   0  0  0  0  0  0  0  0  0  0  0  0
    2.2552    0.5762   -2.2267 H   0  0  0  0  0  0  0  0  0  0  0  0
  1  5  1  0
  5  6  1  0
  5  7  2  0
  1  2  1  0
  1  3  1  0
  1  4  1  0
  8 12  1  0
 12 15  1  0
  8  9  1  0
  8 10  1  0
  8 11  1  0
 12 13  1  0
 12 14  1  0
 15 16  1  0
 15 17  1  0
 15 18  1  0
M  CHG  1   6  -1
M  END
>  <PDB_ID>  (1167) 
pdb1yup

>  <RESIDUE_NAME>  (1167) 
GLU   LYS

>  <FRAG_NAME>  (1167) 
ACET   PRPA

>  <FRAG_ATOM_NUM>  (1167) 
fragi: 7  fragj: 11

>  <atom.prop.CHAIN_ID>  (1167) 
A A A A A A A Z Z Z Z Z Z Z Z Z Z Z

>  <atom.prop.IS_HEAVY_ATOM>  (1167) 
1 0 0 0 1 1 1 1 0 0 0 1 0 0 1 0 0 0

>  <DIFUSE_FUNC_ATOM>  (1167) 
atom 6   atom 7   

>  <FINAL_SINGLE_POINT_ENERGY>  (1167) 
0

>  <NONCOV_INTER_ENERGY_QM>  (1167) 
0

>  <FF_Energy>  (1167) 
13.75

>  <QM_Energy>  (1167) 
-2.35

>  <source>  (1167) 
ACET_PRPA_12

>  <Index>  (1167) 
4194

$$$$
ACET-pdb1yup-G-GLU-114:PRPA-pdb1yup-C-LYS-8
     RDKit          3D

 18 16  0  0  0  0  0  0  0  0999 V2000
    0.0237    1.5302   -0.0156 C   0  0  0  0  0  0  0  0  0  0  0  0
    0.2919    1.8102   -0.9212 H   0  0  0  0  0  0  0  0  0  0  0  0
    0.6730    1.8200    0.6660 H   0  0  0  0  0  0  0  0  0  0  0  0
   -0.9382    1.9898    0.2115 H   0  0  0  0  0  0  0  0  0  0  0  0
    0.0000    0.0000    0.0000 C   0  0  0  0  0  0  0  0  0  0  0  0
   -1.1085   -0.6016    0.0000 O   0  0  0  0  0  1  0  0  0  0  0  0
    1.1085   -0.6079   -0.0000 O   0  0  0  0  0  0  0  0  0  0  0  0
    2.2420   -2.6784    2.5078 C   0  0  0  0  0  0  0  0  0  0  0  0
    2.5372   -2.0818    3.2560 H   0  0  0  0  0  0  0  0  0  0  0  0
    2.7466   -2.4417    1.6769 H   0  0  0  0  0  0  0  0  0  0  0  0
    2.4600   -3.7130    2.7729 H   0  0  0  0  0  0  0  0  0  0  0  0
    0.7595   -2.4649    2.2629 C   0  0  0  0  0  0  0  0  0  0  0  0
    0.2429   -2.9798    2.9486 H   0  0  0  0  0  0  0  0  0  0  0  0
    0.5554   -1.4900    2.3561 H   0  0  0  0  0  0  0  0  0  0  0  0
    0.3255   -2.9204    0.8876 C   0  0  0  0  0  0  0  0  0  0  0  0
    0.8348   -2.4063    0.1968 H   0  0  0  0  0  0  0  0  0  0  0  0
    0.5228   -3.8966    0.7880 H   0  0  0  0  0  0  0  0  0  0  0  0
   -0.7422   -2.7531    0.7457 H   0  0  0  0  0  0  0  0  0  0  0  0
  1  5  1  0
  5  6  1  0
  5  7  2  0
  1  2  1  0
  1  3  1  0
  1  4  1  0
  8 12  1  0
 12 15  1  0
  8  9  1  0
  8 10  1  0
  8 11  1  0
 12 13  1  0
 12 14  1  0
 15 16  1  0
 15 17  1  0
 15 18  1  0
M  CHG  1   6  -1
M  END
>  <PDB_ID>  (1168) 
pdb1yup

>  <RESIDUE_NAME>  (1168) 
GLU   LYS

>  <FRAG_NAME>  (1168) 
ACET   PRPA

>  <FRAG_ATOM_NUM>  (1168) 
fragi: 7  fragj: 11

>  <atom.prop.CHAIN_ID>  (1168) 
A A A A A A A Z Z Z Z Z Z Z Z Z Z Z

>  <atom.prop.IS_HEAVY_ATOM>  (1168) 
1 0 0 0 1 1 1 1 0 0 0 1 0 0 1 0 0 0

>  <DIFUSE_FUNC_ATOM>  (1168) 
atom 6   atom 7   

>  <FINAL_SINGLE_POINT_ENERGY>  (1168) 
0

>  <NONCOV_INTER_ENERGY_QM>  (1168) 
0

>  <FF_Energy>  (1168) 
32.62

>  <QM_Energy>  (1168) 
4.3

>  <source>  (1168) 
ACET_PRPA_12

>  <Index>  (1168) 
5283

$$$$
ACET-pdb1z4e-B-GLU-16:PRPA-pdb1z4e-B-LYS-36
     RDKit          3D

 18 16  0  0  0  0  0  0  0  0999 V2000
   -0.0002    1.5161   -0.0271 C   0  0  0  0  0  0  0  0  0  0  0  0
    0.8654    1.8157    0.3200 H   0  0  0  0  0  0  0  0  0  0  0  0
   -0.7545    1.8185    0.5206 H   0  0  0  0  0  0  0  0  0  0  0  0
   -0.1236    1.8976   -1.0407 H   0  0  0  0  0  0  0  0  0  0  0  0
    0.0000    0.0000    0.0000 C   0  0  0  0  0  0  0  0  0  0  0  0
   -1.0975   -0.6030   -0.0000 O   0  0  0  0  0  1  0  0  0  0  0  0
    1.0975   -0.5889   -0.0000 O   0  0  0  0  0  0  0  0  0  0  0  0
    0.6182   -0.4217    4.9782 C   0  0  0  0  0  0  0  0  0  0  0  0
    0.3753    0.5409    5.1027 H   0  0  0  0  0  0  0  0  0  0  0  0
    1.5814   -0.5557    5.2134 H   0  0  0  0  0  0  0  0  0  0  0  0
   -0.0022   -1.0370    5.6299 H   0  0  0  0  0  0  0  0  0  0  0  0
    0.4117   -0.7954    3.5284 C   0  0  0  0  0  0  0  0  0  0  0  0
    0.2545   -1.7715    3.4643 H   0  0  0  0  0  0  0  0  0  0  0  0
   -0.3581   -0.2873    3.1678 H   0  0  0  0  0  0  0  0  0  0  0  0
    1.6439   -0.4477    2.7203 C   0  0  0  0  0  0  0  0  0  0  0  0
    1.4649   -0.6327    1.7518 H   0  0  0  0  0  0  0  0  0  0  0  0
    1.8477    0.5279    2.8340 H   0  0  0  0  0  0  0  0  0  0  0  0
    2.5078   -1.0307    3.0393 H   0  0  0  0  0  0  0  0  0  0  0  0
  1  5  1  0
  5  6  1  0
  5  7  2  0
  1  2  1  0
  1  3  1  0
  1  4  1  0
  8 12  1  0
 12 15  1  0
  8  9  1  0
  8 10  1  0
  8 11  1  0
 12 13  1  0
 12 14  1  0
 15 16  1  0
 15 17  1  0
 15 18  1  0
M  CHG  1   6  -1
M  END
>  <PDB_ID>  (1169) 
pdb1z4e

>  <RESIDUE_NAME>  (1169) 
GLU   LYS

>  <FRAG_NAME>  (1169) 
ACET   PRPA

>  <FRAG_ATOM_NUM>  (1169) 
fragi: 7  fragj: 11

>  <atom.prop.CHAIN_ID>  (1169) 
A A A A A A A Z Z Z Z Z Z Z Z Z Z Z

>  <atom.prop.IS_HEAVY_ATOM>  (1169) 
1 0 0 0 1 1 1 1 0 0 0 1 0 0 1 0 0 0

>  <DIFUSE_FUNC_ATOM>  (1169) 
atom 6   atom 7   

>  <FINAL_SINGLE_POINT_ENERGY>  (1169) 
0

>  <NONCOV_INTER_ENERGY_QM>  (1169) 
0

>  <FF_Energy>  (1169) 
30.7

>  <QM_Energy>  (1169) 
0.98

>  <source>  (1169) 
ACET_PRPA_12

>  <Index>  (1169) 
5339

$$$$
ACET-pdb1z6y-B-GLU-104:PRPA-pdb1z6y-A-PRO-46
     RDKit          3D

 18 16  0  0  0  0  0  0  0  0999 V2000
   -0.0400    1.4820    0.0028 C   0  0  0  0  0  0  0  0  0  0  0  0
   -0.4915    1.7751    0.8419 H   0  0  0  0  0  0  0  0  0  0  0  0
   -0.5703    1.7746   -0.7890 H   0  0  0  0  0  0  0  0  0  0  0  0
    0.9361    1.9649   -0.0432 H   0  0  0  0  0  0  0  0  0  0  0  0
    0.0000    0.0000    0.0000 C   0  0  0  0  0  0  0  0  0  0  0  0
   -1.0968   -0.5919   -0.0000 O   0  0  0  0  0  1  0  0  0  0  0  0
    1.0968   -0.5750   -0.0000 O   0  0  0  0  0  0  0  0  0  0  0  0
    4.4899   -1.3630   -0.8098 C   0  0  0  0  0  0  0  0  0  0  0  0
    5.4386   -1.1580   -1.0771 H   0  0  0  0  0  0  0  0  0  0  0  0
    3.9129   -1.3245   -1.6336 H   0  0  0  0  0  0  0  0  0  0  0  0
    4.4333   -2.3523   -0.3558 H   0  0  0  0  0  0  0  0  0  0  0  0
    4.0110   -0.4463    0.2313 C   0  0  0  0  0  0  0  0  0  0  0  0
    4.3952    0.4831    0.0962 H   0  0  0  0  0  0  0  0  0  0  0  0
    3.0008   -0.3611    0.1956 H   0  0  0  0  0  0  0  0  0  0  0  0
    4.4511   -1.0215    1.5178 C   0  0  0  0  0  0  0  0  0  0  0  0
    5.3804   -0.7359    1.7623 H   0  0  0  0  0  0  0  0  0  0  0  0
    3.8294   -0.7868    2.2704 H   0  0  0  0  0  0  0  0  0  0  0  0
    4.4253   -2.0948    1.3292 H   0  0  0  0  0  0  0  0  0  0  0  0
  1  5  1  0
  5  6  1  0
  5  7  2  0
  1  2  1  0
  1  3  1  0
  1  4  1  0
  8 12  1  0
 12 15  1  0
  8  9  1  0
  8 10  1  0
  8 11  1  0
 12 13  1  0
 12 14  1  0
 15 16  1  0
 15 17  1  0
 15 18  1  0
M  CHG  1   6  -1
M  END
>  <PDB_ID>  (1170) 
pdb1z6y

>  <RESIDUE_NAME>  (1170) 
GLU   PRO

>  <FRAG_NAME>  (1170) 
ACET   PRPA

>  <FRAG_ATOM_NUM>  (1170) 
fragi: 7  fragj: 11

>  <atom.prop.CHAIN_ID>  (1170) 
A A A A A A A Z Z Z Z Z Z Z Z Z Z Z

>  <atom.prop.IS_HEAVY_ATOM>  (1170) 
1 0 0 0 1 1 1 1 0 0 0 1 0 0 1 0 0 0

>  <DIFUSE_FUNC_ATOM>  (1170) 
atom 6   atom 7   

>  <FINAL_SINGLE_POINT_ENERGY>  (1170) 
0

>  <NONCOV_INTER_ENERGY_QM>  (1170) 
0

>  <FF_Energy>  (1170) 
12.78

>  <QM_Energy>  (1170) 
-2.6

>  <source>  (1170) 
ACET_PRPA_12

>  <Index>  (1170) 
5646

$$$$
ACET-pdb1z9f-A-ASP-16:PRPA-pdb1z9f-A-LYS-71
     RDKit          3D

 18 16  0  0  0  0  0  0  0  0999 V2000
   -0.0124    1.5223   -0.0118 C   0  0  0  0  0  0  0  0  0  0  0  0
    0.8379    1.8449   -0.4059 H   0  0  0  0  0  0  0  0  0  0  0  0
   -0.1165    1.8478    0.9186 H   0  0  0  0  0  0  0  0  0  0  0  0
   -0.8321    1.9288   -0.6042 H   0  0  0  0  0  0  0  0  0  0  0  0
    0.0000    0.0000    0.0000 C   0  0  0  0  0  0  0  0  0  0  0  0
   -1.0982   -0.6022   -0.0000 O   0  0  0  0  0  1  0  0  0  0  0  0
    1.0982   -0.5931    0.0000 O   0  0  0  0  0  0  0  0  0  0  0  0
   -2.6132   -2.0336   -2.6986 C   0  0  0  0  0  0  0  0  0  0  0  0
   -2.1936   -2.8036   -2.2188 H   0  0  0  0  0  0  0  0  0  0  0  0
   -2.8209   -2.3017   -3.6398 H   0  0  0  0  0  0  0  0  0  0  0  0
   -3.5530   -1.7964   -2.1999 H   0  0  0  0  0  0  0  0  0  0  0  0
   -1.6100   -0.8897   -2.7378 C   0  0  0  0  0  0  0  0  0  0  0  0
   -2.0198   -0.1143   -3.2210 H   0  0  0  0  0  0  0  0  0  0  0  0
   -1.3910   -0.6165   -1.7993 H   0  0  0  0  0  0  0  0  0  0  0  0
   -0.3297   -1.2908   -3.4466 C   0  0  0  0  0  0  0  0  0  0  0  0
    0.0756   -2.0676   -2.9618 H   0  0  0  0  0  0  0  0  0  0  0  0
   -0.5520   -1.5635   -4.3825 H   0  0  0  0  0  0  0  0  0  0  0  0
    0.4008   -0.4826   -3.4830 H   0  0  0  0  0  0  0  0  0  0  0  0
  1  5  1  0
  5  6  1  0
  5  7  2  0
  1  2  1  0
  1  3  1  0
  1  4  1  0
  8 12  1  0
 12 15  1  0
  8  9  1  0
  8 10  1  0
  8 11  1  0
 12 13  1  0
 12 14  1  0
 15 16  1  0
 15 17  1  0
 15 18  1  0
M  CHG  1   6  -1
M  END
>  <PDB_ID>  (1171) 
pdb1z9f

>  <RESIDUE_NAME>  (1171) 
ASP   LYS

>  <FRAG_NAME>  (1171) 
ACET   PRPA

>  <FRAG_ATOM_NUM>  (1171) 
fragi: 7  fragj: 11

>  <atom.prop.CHAIN_ID>  (1171) 
A A A A A A A Z Z Z Z Z Z Z Z Z Z Z

>  <atom.prop.IS_HEAVY_ATOM>  (1171) 
1 0 0 0 1 1 1 1 0 0 0 1 0 0 1 0 0 0

>  <DIFUSE_FUNC_ATOM>  (1171) 
atom 6   atom 7   

>  <FINAL_SINGLE_POINT_ENERGY>  (1171) 
0

>  <NONCOV_INTER_ENERGY_QM>  (1171) 
0

>  <FF_Energy>  (1171) 
29.79

>  <QM_Energy>  (1171) 
-0.05

>  <source>  (1171) 
ACET_PRPA_12

>  <Index>  (1171) 
5901

$$$$
ACET-pdb1z9f-A-ASP-16:PRPA-pdb1z9f-A-LYS-71
     RDKit          3D

 18 16  0  0  0  0  0  0  0  0999 V2000
   -0.0124    1.5223   -0.0118 C   0  0  0  0  0  0  0  0  0  0  0  0
    0.8379    1.8449   -0.4059 H   0  0  0  0  0  0  0  0  0  0  0  0
   -0.1165    1.8478    0.9186 H   0  0  0  0  0  0  0  0  0  0  0  0
   -0.8321    1.9288   -0.6042 H   0  0  0  0  0  0  0  0  0  0  0  0
    0.0000    0.0000    0.0000 C   0  0  0  0  0  0  0  0  0  0  0  0
   -1.0982   -0.6022   -0.0000 O   0  0  0  0  0  1  0  0  0  0  0  0
    1.0982   -0.5931    0.0000 O   0  0  0  0  0  0  0  0  0  0  0  0
   -1.6100   -0.8897   -2.7378 C   0  0  0  0  0  0  0  0  0  0  0  0
   -2.0198   -0.1143   -3.2210 H   0  0  0  0  0  0  0  0  0  0  0  0
   -1.3910   -0.6165   -1.7993 H   0  0  0  0  0  0  0  0  0  0  0  0
   -2.3284   -1.7089   -2.7097 H   0  0  0  0  0  0  0  0  0  0  0  0
   -0.3297   -1.2908   -3.4466 C   0  0  0  0  0  0  0  0  0  0  0  0
    0.0756   -2.0676   -2.9618 H   0  0  0  0  0  0  0  0  0  0  0  0
   -0.5520   -1.5635   -4.3825 H   0  0  0  0  0  0  0  0  0  0  0  0
    0.6835   -0.1697   -3.4970 C   0  0  0  0  0  0  0  0  0  0  0  0
    0.2870    0.6090   -3.9842 H   0  0  0  0  0  0  0  0  0  0  0  0
    0.9155    0.1064   -2.5634 H   0  0  0  0  0  0  0  0  0  0  0  0
    1.5890   -0.4913   -4.0116 H   0  0  0  0  0  0  0  0  0  0  0  0
  1  5  1  0
  5  6  1  0
  5  7  2  0
  1  2  1  0
  1  3  1  0
  1  4  1  0
  8 12  1  0
 12 15  1  0
  8  9  1  0
  8 10  1  0
  8 11  1  0
 12 13  1  0
 12 14  1  0
 15 16  1  0
 15 17  1  0
 15 18  1  0
M  CHG  1   6  -1
M  END
>  <PDB_ID>  (1172) 
pdb1z9f

>  <RESIDUE_NAME>  (1172) 
ASP   LYS

>  <FRAG_NAME>  (1172) 
ACET   PRPA

>  <FRAG_ATOM_NUM>  (1172) 
fragi: 7  fragj: 11

>  <atom.prop.CHAIN_ID>  (1172) 
A A A A A A A Z Z Z Z Z Z Z Z Z Z Z

>  <atom.prop.IS_HEAVY_ATOM>  (1172) 
1 0 0 0 1 1 1 1 0 0 0 1 0 0 1 0 0 0

>  <DIFUSE_FUNC_ATOM>  (1172) 
atom 6   atom 7   

>  <FINAL_SINGLE_POINT_ENERGY>  (1172) 
0

>  <NONCOV_INTER_ENERGY_QM>  (1172) 
0

>  <FF_Energy>  (1172) 
25.56

>  <QM_Energy>  (1172) 
-0.48

>  <source>  (1172) 
ACET_PRPA_12

>  <Index>  (1172) 
5911

$$$$
ACET-pdb1z93-A-ASP-71:PRPA-pdb1z93-A-LYS-57
     RDKit          3D

 18 16  0  0  0  0  0  0  0  0999 V2000
   -0.0224    1.5135    0.0133 C   0  0  0  0  0  0  0  0  0  0  0  0
   -0.1437    1.8246    0.9511 H   0  0  0  0  0  0  0  0  0  0  0  0
   -0.7769    1.8290   -0.5543 H   0  0  0  0  0  0  0  0  0  0  0  0
    0.8955    1.9584   -0.3707 H   0  0  0  0  0  0  0  0  0  0  0  0
    0.0000    0.0000    0.0000 C   0  0  0  0  0  0  0  0  0  0  0  0
   -1.0959   -0.5968   -0.0000 O   0  0  0  0  0  1  0  0  0  0  0  0
    1.0959   -0.5942   -0.0000 O   0  0  0  0  0  0  0  0  0  0  0  0
   -0.0459    4.0885    3.3376 C   0  0  0  0  0  0  0  0  0  0  0  0
   -0.6977    3.8145    4.0357 H   0  0  0  0  0  0  0  0  0  0  0  0
   -0.4748    4.0900    2.4412 H   0  0  0  0  0  0  0  0  0  0  0  0
    0.3251    5.0883    3.5632 H   0  0  0  0  0  0  0  0  0  0  0  0
    1.1123    3.0844    3.3260 C   0  0  0  0  0  0  0  0  0  0  0  0
    1.7237    3.3103    2.5738 H   0  0  0  0  0  0  0  0  0  0  0  0
    1.5956    3.1431    4.1935 H   0  0  0  0  0  0  0  0  0  0  0  0
    0.6265    1.6422    3.1387 C   0  0  0  0  0  0  0  0  0  0  0  0
    0.1324    1.3571    3.9686 H   0  0  0  0  0  0  0  0  0  0  0  0
   -0.0159    1.6155    2.3632 H   0  0  0  0  0  0  0  0  0  0  0  0
    1.4343    0.9350    2.9503 H   0  0  0  0  0  0  0  0  0  0  0  0
  1  5  1  0
  5  6  1  0
  5  7  2  0
  1  2  1  0
  1  3  1  0
  1  4  1  0
  8 12  1  0
 12 15  1  0
  8  9  1  0
  8 10  1  0
  8 11  1  0
 12 13  1  0
 12 14  1  0
 15 16  1  0
 15 17  1  0
 15 18  1  0
M  CHG  1   6  -1
M  END
>  <PDB_ID>  (1173) 
pdb1z93

>  <RESIDUE_NAME>  (1173) 
ASP   LYS

>  <FRAG_NAME>  (1173) 
ACET   PRPA

>  <FRAG_ATOM_NUM>  (1173) 
fragi: 7  fragj: 11

>  <atom.prop.CHAIN_ID>  (1173) 
A A A A A A A Z Z Z Z Z Z Z Z Z Z Z

>  <atom.prop.IS_HEAVY_ATOM>  (1173) 
1 0 0 0 1 1 1 1 0 0 0 1 0 0 1 0 0 0

>  <DIFUSE_FUNC_ATOM>  (1173) 
atom 6   atom 7   

>  <FINAL_SINGLE_POINT_ENERGY>  (1173) 
0

>  <NONCOV_INTER_ENERGY_QM>  (1173) 
0

>  <FF_Energy>  (1173) 
46.91

>  <QM_Energy>  (1173) 
4.41

>  <source>  (1173) 
ACET_PRPA_12

>  <Index>  (1173) 
6456

$$$$
ACET-pdb3cvz-B-GLU-112:PRPA-pdb3cvz-A-VAL-104
     RDKit          3D

 18 16  0  0  0  0  0  0  0  0999 V2000
   -0.0091    1.5209    0.0216 C   0  0  0  0  0  0  0  0  0  0  0  0
    0.8729    1.8259   -0.2875 H   0  0  0  0  0  0  0  0  0  0  0  0
   -0.1974    1.8012    0.9446 H   0  0  0  0  0  0  0  0  0  0  0  0
   -0.7694    1.9488   -0.6318 H   0  0  0  0  0  0  0  0  0  0  0  0
    0.0000    0.0000    0.0000 C   0  0  0  0  0  0  0  0  0  0  0  0
   -1.0861   -0.5856   -0.0000 O   0  0  0  0  0  1  0  0  0  0  0  0
    1.0861   -0.6150    0.0000 O   0  0  0  0  0  0  0  0  0  0  0  0
    2.5988    1.8180    4.3665 C   0  0  0  0  0  0  0  0  0  0  0  0
    3.2587    1.1269    4.6725 H   0  0  0  0  0  0  0  0  0  0  0  0
    2.1509    2.2882    5.2420 H   0  0  0  0  0  0  0  0  0  0  0  0
    3.1480    2.5601    3.7871 H   0  0  0  0  0  0  0  0  0  0  0  0
    1.5237    1.2131    3.4746 C   0  0  0  0  0  0  0  0  0  0  0  0
    0.8494    1.9242    3.2902 H   0  0  0  0  0  0  0  0  0  0  0  0
    1.0460    0.3566    3.9504 H   0  0  0  0  0  0  0  0  0  0  0  0
    2.1172    0.8051    2.1753 C   0  0  0  0  0  0  0  0  0  0  0  0
    2.2494   -0.1923    2.1462 H   0  0  0  0  0  0  0  0  0  0  0  0
    1.5134    1.0677    1.4141 H   0  0  0  0  0  0  0  0  0  0  0  0
    3.0100    1.2494    2.0413 H   0  0  0  0  0  0  0  0  0  0  0  0
  1  5  1  0
  5  6  1  0
  5  7  2  0
  1  2  1  0
  1  3  1  0
  1  4  1  0
  8 12  1  0
 12 15  1  0
  8  9  1  0
  8 10  1  0
  8 11  1  0
 12 13  1  0
 12 14  1  0
 15 16  1  0
 15 17  1  0
 15 18  1  0
M  CHG  1   6  -1
M  END
>  <PDB_ID>  (1174) 
pdb3cvz

>  <RESIDUE_NAME>  (1174) 
GLU   VAL

>  <FRAG_NAME>  (1174) 
ACET   PRPA

>  <FRAG_ATOM_NUM>  (1174) 
fragi: 7  fragj: 11

>  <atom.prop.CHAIN_ID>  (1174) 
A A A A A A A Z Z Z Z Z Z Z Z Z Z Z

>  <atom.prop.IS_HEAVY_ATOM>  (1174) 
1 0 0 0 1 1 1 1 0 0 0 1 0 0 1 0 0 0

>  <DIFUSE_FUNC_ATOM>  (1174) 
atom 6   atom 7   

>  <FINAL_SINGLE_POINT_ENERGY>  (1174) 
0

>  <NONCOV_INTER_ENERGY_QM>  (1174) 
0

>  <FF_Energy>  (1174) 
19.5

>  <QM_Energy>  (1174) 
4.4

>  <source>  (1174) 
ACET_PRPA_12

>  <Index>  (1174) 
6842

$$$$
ACET-pdb3czq-A-ASP-31:PRPA-pdb3czq-A-PRO-12
     RDKit          3D

 18 16  0  0  0  0  0  0  0  0999 V2000
    0.0050    1.4976   -0.0086 C   0  0  0  0  0  0  0  0  0  0  0  0
    0.9342    1.8173   -0.1720 H   0  0  0  0  0  0  0  0  0  0  0  0
   -0.3208    1.8282    0.8722 H   0  0  0  0  0  0  0  0  0  0  0  0
   -0.6376    1.9122   -0.7854 H   0  0  0  0  0  0  0  0  0  0  0  0
    0.0000    0.0000    0.0000 C   0  0  0  0  0  0  0  0  0  0  0  0
   -1.1007   -0.5882    0.0000 O   0  0  0  0  0  1  0  0  0  0  0  0
    1.1007   -0.5839   -0.0000 O   0  0  0  0  0  0  0  0  0  0  0  0
    3.2254    1.4008    2.1520 C   0  0  0  0  0  0  0  0  0  0  0  0
    3.2099    1.1214    1.2022 H   0  0  0  0  0  0  0  0  0  0  0  0
    3.8803    0.8703    2.6698 H   0  0  0  0  0  0  0  0  0  0  0  0
    3.4281    2.4680    2.2418 H   0  0  0  0  0  0  0  0  0  0  0  0
    1.8435    1.2912    2.7631 C   0  0  0  0  0  0  0  0  0  0  0  0
    1.3124    0.5740    2.3129 H   0  0  0  0  0  0  0  0  0  0  0  0
    1.9036    1.0989    3.7422 H   0  0  0  0  0  0  0  0  0  0  0  0
    1.1630    2.6716    2.5371 C   0  0  0  0  0  0  0  0  0  0  0  0
    0.3828    2.5735    1.9315 H   0  0  0  0  0  0  0  0  0  0  0  0
    0.8831    3.0625    3.4073 H   0  0  0  0  0  0  0  0  0  0  0  0
    1.9531    3.2622    2.0735 H   0  0  0  0  0  0  0  0  0  0  0  0
  1  5  1  0
  5  6  1  0
  5  7  2  0
  1  2  1  0
  1  3  1  0
  1  4  1  0
  8 12  1  0
 12 15  1  0
  8  9  1  0
  8 10  1  0
  8 11  1  0
 12 13  1  0
 12 14  1  0
 15 16  1  0
 15 17  1  0
 15 18  1  0
M  CHG  1   6  -1
M  END
>  <PDB_ID>  (1175) 
pdb3czq

>  <RESIDUE_NAME>  (1175) 
ASP   PRO

>  <FRAG_NAME>  (1175) 
ACET   PRPA

>  <FRAG_ATOM_NUM>  (1175) 
fragi: 7  fragj: 11

>  <atom.prop.CHAIN_ID>  (1175) 
A A A A A A A Z Z Z Z Z Z Z Z Z Z Z

>  <atom.prop.IS_HEAVY_ATOM>  (1175) 
1 0 0 0 1 1 1 1 0 0 0 1 0 0 1 0 0 0

>  <DIFUSE_FUNC_ATOM>  (1175) 
atom 6   atom 7   

>  <FINAL_SINGLE_POINT_ENERGY>  (1175) 
0

>  <NONCOV_INTER_ENERGY_QM>  (1175) 
0

>  <FF_Energy>  (1175) 
38.12

>  <QM_Energy>  (1175) 
2.67

>  <source>  (1175) 
ACET_PRPA_12

>  <Index>  (1175) 
7603

$$$$
ACET-pdb1yrz-B-GLU-2209:PRPA-pdb1yrz-B-VAL-2495
     RDKit          3D

 18 16  0  0  0  0  0  0  0  0999 V2000
    0.0101    1.5171   -0.0011 C   0  0  0  0  0  0  0  0  0  0  0  0
   -0.6785    1.8220   -0.6360 H   0  0  0  0  0  0  0  0  0  0  0  0
    0.9118    1.8112   -0.2694 H   0  0  0  0  0  0  0  0  0  0  0  0
   -0.2118    1.9603    0.9697 H   0  0  0  0  0  0  0  0  0  0  0  0
    0.0000    0.0000    0.0000 C   0  0  0  0  0  0  0  0  0  0  0  0
   -1.0951   -0.5974    0.0000 O   0  0  0  0  0  1  0  0  0  0  0  0
    1.0951   -0.6022   -0.0000 O   0  0  0  0  0  0  0  0  0  0  0  0
   -0.2812    0.7531   -3.5927 C   0  0  0  0  0  0  0  0  0  0  0  0
   -0.4732    1.2172   -4.4584 H   0  0  0  0  0  0  0  0  0  0  0  0
   -1.1434    0.5637   -3.1211 H   0  0  0  0  0  0  0  0  0  0  0  0
    0.2851    1.3458   -3.0187 H   0  0  0  0  0  0  0  0  0  0  0  0
    0.4499   -0.5469   -3.8612 C   0  0  0  0  0  0  0  0  0  0  0  0
    1.1847   -0.3431   -4.5019 H   0  0  0  0  0  0  0  0  0  0  0  0
   -0.2160   -1.2664   -4.3379 H   0  0  0  0  0  0  0  0  0  0  0  0
    1.0238   -1.1437   -2.6142 C   0  0  0  0  0  0  0  0  0  0  0  0
    1.0173   -2.1461   -2.6793 H   0  0  0  0  0  0  0  0  0  0  0  0
    1.9698   -0.8303   -2.4887 H   0  0  0  0  0  0  0  0  0  0  0  0
    0.4793   -0.8644   -1.8181 H   0  0  0  0  0  0  0  0  0  0  0  0
  1  5  1  0
  5  6  1  0
  5  7  2  0
  1  2  1  0
  1  3  1  0
  1  4  1  0
  8 12  1  0
 12 15  1  0
  8  9  1  0
  8 10  1  0
  8 11  1  0
 12 13  1  0
 12 14  1  0
 15 16  1  0
 15 17  1  0
 15 18  1  0
M  CHG  1   6  -1
M  END
>  <PDB_ID>  (1176) 
pdb1yrz

>  <RESIDUE_NAME>  (1176) 
GLU   VAL

>  <FRAG_NAME>  (1176) 
ACET   PRPA

>  <FRAG_ATOM_NUM>  (1176) 
fragi: 7  fragj: 11

>  <atom.prop.CHAIN_ID>  (1176) 
A A A A A A A Z Z Z Z Z Z Z Z Z Z Z

>  <atom.prop.IS_HEAVY_ATOM>  (1176) 
1 0 0 0 1 1 1 1 0 0 0 1 0 0 1 0 0 0

>  <DIFUSE_FUNC_ATOM>  (1176) 
atom 6   atom 7   

>  <FINAL_SINGLE_POINT_ENERGY>  (1176) 
0

>  <NONCOV_INTER_ENERGY_QM>  (1176) 
0

>  <FF_Energy>  (1176) 
26.28

>  <QM_Energy>  (1176) 
3.81

>  <source>  (1176) 
ACET_PRPA_12

>  <Index>  (1176) 
7978

$$$$
ACET-pdb1yp2-C-ASP-16:PRPA-pdb1yp2-C-ARG-19
     RDKit          3D

 18 16  0  0  0  0  0  0  0  0999 V2000
    0.0105    1.5211    0.0111 C   0  0  0  0  0  0  0  0  0  0  0  0
   -0.6211    1.8494   -0.6809 H   0  0  0  0  0  0  0  0  0  0  0  0
    0.9325    1.8345   -0.1794 H   0  0  0  0  0  0  0  0  0  0  0  0
   -0.2957    1.9369    0.9710 H   0  0  0  0  0  0  0  0  0  0  0  0
    0.0000    0.0000    0.0000 C   0  0  0  0  0  0  0  0  0  0  0  0
   -1.0957   -0.6001    0.0000 O   0  0  0  0  0  1  0  0  0  0  0  0
    1.0957   -0.6034   -0.0000 O   0  0  0  0  0  0  0  0  0  0  0  0
   -1.2656   -3.7363    2.2433 C   0  0  0  0  0  0  0  0  0  0  0  0
   -0.9876   -4.1899    3.0833 H   0  0  0  0  0  0  0  0  0  0  0  0
   -1.1138   -4.3339    1.4627 H   0  0  0  0  0  0  0  0  0  0  0  0
   -2.3333   -3.5266    2.3080 H   0  0  0  0  0  0  0  0  0  0  0  0
   -0.4135   -2.4984    2.0671 C   0  0  0  0  0  0  0  0  0  0  0  0
   -0.7306   -1.9798    1.2754 H   0  0  0  0  0  0  0  0  0  0  0  0
   -0.4709   -1.9303    2.8864 H   0  0  0  0  0  0  0  0  0  0  0  0
    1.0568   -2.8447    1.8417 C   0  0  0  0  0  0  0  0  0  0  0  0
    1.1143   -3.4292    1.0383 H   0  0  0  0  0  0  0  0  0  0  0  0
    1.5498   -1.9945    1.6845 H   0  0  0  0  0  0  0  0  0  0  0  0
    1.4889   -3.3617    2.6986 H   0  0  0  0  0  0  0  0  0  0  0  0
  1  5  1  0
  5  6  1  0
  5  7  2  0
  1  2  1  0
  1  3  1  0
  1  4  1  0
  8 12  1  0
 12 15  1  0
  8  9  1  0
  8 10  1  0
  8 11  1  0
 12 13  1  0
 12 14  1  0
 15 16  1  0
 15 17  1  0
 15 18  1  0
M  CHG  1   6  -1
M  END
>  <PDB_ID>  (1177) 
pdb1yp2

>  <RESIDUE_NAME>  (1177) 
ASP   ARG

>  <FRAG_NAME>  (1177) 
ACET   PRPA

>  <FRAG_ATOM_NUM>  (1177) 
fragi: 7  fragj: 11

>  <atom.prop.CHAIN_ID>  (1177) 
A A A A A A A Z Z Z Z Z Z Z Z Z Z Z

>  <atom.prop.IS_HEAVY_ATOM>  (1177) 
1 0 0 0 1 1 1 1 0 0 0 1 0 0 1 0 0 0

>  <DIFUSE_FUNC_ATOM>  (1177) 
atom 6   atom 7   

>  <FINAL_SINGLE_POINT_ENERGY>  (1177) 
0

>  <NONCOV_INTER_ENERGY_QM>  (1177) 
0

>  <FF_Energy>  (1177) 
18.52

>  <QM_Energy>  (1177) 
-1.55

>  <source>  (1177) 
ACET_PRPA_12

>  <Index>  (1177) 
8068

$$$$
ACET-pdb3d0w-B-GLU-23:PRPA-pdb3d0w-B-LYS-27
     RDKit          3D

 18 16  0  0  0  0  0  0  0  0999 V2000
    0.0002    1.5249    0.0081 C   0  0  0  0  0  0  0  0  0  0  0  0
   -0.3268    1.8146    0.8862 H   0  0  0  0  0  0  0  0  0  0  0  0
   -0.5783    1.8228   -0.7262 H   0  0  0  0  0  0  0  0  0  0  0  0
    0.9945    1.9452   -0.1435 H   0  0  0  0  0  0  0  0  0  0  0  0
    0.0000    0.0000    0.0000 C   0  0  0  0  0  0  0  0  0  0  0  0
   -1.0977   -0.5968    0.0000 O   0  0  0  0  0  1  0  0  0  0  0  0
    1.0977   -0.6035   -0.0000 O   0  0  0  0  0  0  0  0  0  0  0  0
   -2.8720    3.6432    2.8102 C   0  0  0  0  0  0  0  0  0  0  0  0
   -3.8637    3.7117    2.6559 H   0  0  0  0  0  0  0  0  0  0  0  0
   -2.4000    3.8258    1.9408 H   0  0  0  0  0  0  0  0  0  0  0  0
   -2.5771    4.4003    3.5368 H   0  0  0  0  0  0  0  0  0  0  0  0
   -2.5442    2.2166    3.2546 C   0  0  0  0  0  0  0  0  0  0  0  0
   -2.8673    2.0913    4.1875 H   0  0  0  0  0  0  0  0  0  0  0  0
   -3.0015    1.5781    2.6428 H   0  0  0  0  0  0  0  0  0  0  0  0
   -1.0460    1.9380    3.2167 C   0  0  0  0  0  0  0  0  0  0  0  0
   -0.6940    2.1781    2.3078 H   0  0  0  0  0  0  0  0  0  0  0  0
   -0.5906    2.5121    3.9029 H   0  0  0  0  0  0  0  0  0  0  0  0
   -0.8185    0.8919    3.4214 H   0  0  0  0  0  0  0  0  0  0  0  0
  1  5  1  0
  5  6  1  0
  5  7  2  0
  1  2  1  0
  1  3  1  0
  1  4  1  0
  8 12  1  0
 12 15  1  0
  8  9  1  0
  8 10  1  0
  8 11  1  0
 12 13  1  0
 12 14  1  0
 15 16  1  0
 15 17  1  0
 15 18  1  0
M  CHG  1   6  -1
M  END
>  <PDB_ID>  (1178) 
pdb3d0w

>  <RESIDUE_NAME>  (1178) 
GLU   LYS

>  <FRAG_NAME>  (1178) 
ACET   PRPA

>  <FRAG_ATOM_NUM>  (1178) 
fragi: 7  fragj: 11

>  <atom.prop.CHAIN_ID>  (1178) 
A A A A A A A Z Z Z Z Z Z Z Z Z Z Z

>  <atom.prop.IS_HEAVY_ATOM>  (1178) 
1 0 0 0 1 1 1 1 0 0 0 1 0 0 1 0 0 0

>  <DIFUSE_FUNC_ATOM>  (1178) 
atom 6   atom 7   

>  <FINAL_SINGLE_POINT_ENERGY>  (1178) 
0

>  <NONCOV_INTER_ENERGY_QM>  (1178) 
0

>  <FF_Energy>  (1178) 
23.38

>  <QM_Energy>  (1178) 
2.34

>  <source>  (1178) 
ACET_PRPA_12

>  <Index>  (1178) 
8086

$$$$
ACET-pdb3cc9-D-ASP-127:PRPA-pdb3cc9-D-ARG-135
     RDKit          3D

 18 16  0  0  0  0  0  0  0  0999 V2000
    0.0123    1.5114    0.0110 C   0  0  0  0  0  0  0  0  0  0  0  0
    0.9069    1.8275   -0.2814 H   0  0  0  0  0  0  0  0  0  0  0  0
   -0.1863    1.8275    0.9303 H   0  0  0  0  0  0  0  0  0  0  0  0
   -0.7322    1.9378   -0.6614 H   0  0  0  0  0  0  0  0  0  0  0  0
    0.0000    0.0000    0.0000 C   0  0  0  0  0  0  0  0  0  0  0  0
   -1.0964   -0.6007    0.0000 O   0  0  0  0  0  1  0  0  0  0  0  0
    1.0964   -0.5895    0.0000 O   0  0  0  0  0  0  0  0  0  0  0  0
    1.5547   -4.5336    2.7498 C   0  0  0  0  0  0  0  0  0  0  0  0
    0.7926   -5.0578    2.3539 H   0  0  0  0  0  0  0  0  0  0  0  0
    1.1904   -4.0000    3.6277 H   0  0  0  0  0  0  0  0  0  0  0  0
    2.3533   -5.2217    3.0269 H   0  0  0  0  0  0  0  0  0  0  0  0
    2.0665   -3.5718    1.6767 C   0  0  0  0  0  0  0  0  0  0  0  0
    2.1883   -2.6778    2.0959 H   0  0  0  0  0  0  0  0  0  0  0  0
    2.9367   -3.9178    1.3410 H   0  0  0  0  0  0  0  0  0  0  0  0
    1.1285   -3.4242    0.5027 C   0  0  0  0  0  0  0  0  0  0  0  0
    0.1978   -3.6680    0.7822 H   0  0  0  0  0  0  0  0  0  0  0  0
    1.1366   -2.4742    0.1832 H   0  0  0  0  0  0  0  0  0  0  0  0
    1.4059   -4.0626   -0.3360 H   0  0  0  0  0  0  0  0  0  0  0  0
  1  5  1  0
  5  6  1  0
  5  7  2  0
  1  2  1  0
  1  3  1  0
  1  4  1  0
  8 12  1  0
 12 15  1  0
  8  9  1  0
  8 10  1  0
  8 11  1  0
 12 13  1  0
 12 14  1  0
 15 16  1  0
 15 17  1  0
 15 18  1  0
M  CHG  1   6  -1
M  END
>  <PDB_ID>  (1179) 
pdb3cc9

>  <RESIDUE_NAME>  (1179) 
ASP   ARG

>  <FRAG_NAME>  (1179) 
ACET   PRPA

>  <FRAG_ATOM_NUM>  (1179) 
fragi: 7  fragj: 11

>  <atom.prop.CHAIN_ID>  (1179) 
A A A A A A A Z Z Z Z Z Z Z Z Z Z Z

>  <atom.prop.IS_HEAVY_ATOM>  (1179) 
1 0 0 0 1 1 1 1 0 0 0 1 0 0 1 0 0 0

>  <DIFUSE_FUNC_ATOM>  (1179) 
atom 6   atom 7   

>  <FINAL_SINGLE_POINT_ENERGY>  (1179) 
0

>  <NONCOV_INTER_ENERGY_QM>  (1179) 
0

>  <FF_Energy>  (1179) 
13.97

>  <QM_Energy>  (1179) 
-1.79

>  <source>  (1179) 
ACET_PRPA_12

>  <Index>  (1179) 
8231

$$$$
ACET-pdb3cc9-D-ASP-127:PRPA-pdb3cc9-D-ARG-135
     RDKit          3D

 18 16  0  0  0  0  0  0  0  0999 V2000
    0.0123    1.5114    0.0110 C   0  0  0  0  0  0  0  0  0  0  0  0
    0.9069    1.8275   -0.2814 H   0  0  0  0  0  0  0  0  0  0  0  0
   -0.1863    1.8275    0.9303 H   0  0  0  0  0  0  0  0  0  0  0  0
   -0.7322    1.9378   -0.6614 H   0  0  0  0  0  0  0  0  0  0  0  0
    0.0000    0.0000    0.0000 C   0  0  0  0  0  0  0  0  0  0  0  0
   -1.0964   -0.6007    0.0000 O   0  0  0  0  0  1  0  0  0  0  0  0
    1.0964   -0.5895    0.0000 O   0  0  0  0  0  0  0  0  0  0  0  0
    2.0665   -3.5718    1.6767 C   0  0  0  0  0  0  0  0  0  0  0  0
    2.1883   -2.6778    2.0959 H   0  0  0  0  0  0  0  0  0  0  0  0
    2.9367   -3.9178    1.3410 H   0  0  0  0  0  0  0  0  0  0  0  0
    1.7017   -4.2573    2.4415 H   0  0  0  0  0  0  0  0  0  0  0  0
    1.1285   -3.4242    0.5027 C   0  0  0  0  0  0  0  0  0  0  0  0
    0.1978   -3.6680    0.7822 H   0  0  0  0  0  0  0  0  0  0  0  0
    1.1366   -2.4742    0.1832 H   0  0  0  0  0  0  0  0  0  0  0  0
    1.5149   -4.3133   -0.6654 C   0  0  0  0  0  0  0  0  0  0  0  0
    2.1252   -3.7990   -1.2586 H   0  0  0  0  0  0  0  0  0  0  0  0
    1.9787   -5.1162   -0.3033 H   0  0  0  0  0  0  0  0  0  0  0  0
    0.6403   -4.6285   -1.2343 H   0  0  0  0  0  0  0  0  0  0  0  0
  1  5  1  0
  5  6  1  0
  5  7  2  0
  1  2  1  0
  1  3  1  0
  1  4  1  0
  8 12  1  0
 12 15  1  0
  8  9  1  0
  8 10  1  0
  8 11  1  0
 12 13  1  0
 12 14  1  0
 15 16  1  0
 15 17  1  0
 15 18  1  0
M  CHG  1   6  -1
M  END
>  <PDB_ID>  (1180) 
pdb3cc9

>  <RESIDUE_NAME>  (1180) 
ASP   ARG

>  <FRAG_NAME>  (1180) 
ACET   PRPA

>  <FRAG_ATOM_NUM>  (1180) 
fragi: 7  fragj: 11

>  <atom.prop.CHAIN_ID>  (1180) 
A A A A A A A Z Z Z Z Z Z Z Z Z Z Z

>  <atom.prop.IS_HEAVY_ATOM>  (1180) 
1 0 0 0 1 1 1 1 0 0 0 1 0 0 1 0 0 0

>  <DIFUSE_FUNC_ATOM>  (1180) 
atom 6   atom 7   

>  <FINAL_SINGLE_POINT_ENERGY>  (1180) 
0

>  <NONCOV_INTER_ENERGY_QM>  (1180) 
0

>  <FF_Energy>  (1180) 
16.19

>  <QM_Energy>  (1180) 
-2.01

>  <source>  (1180) 
ACET_PRPA_12

>  <Index>  (1180) 
8237

$$$$
ACET-pdb1zan-H-GLU-46:PRPA-pdb1zan-H-ARG-38
     RDKit          3D

 18 16  0  0  0  0  0  0  0  0999 V2000
   -0.0059    1.5287    0.0041 C   0  0  0  0  0  0  0  0  0  0  0  0
   -0.2277    1.8213    0.9134 H   0  0  0  0  0  0  0  0  0  0  0  0
   -0.6647    1.8238   -0.6595 H   0  0  0  0  0  0  0  0  0  0  0  0
    0.9601    1.9578   -0.2621 H   0  0  0  0  0  0  0  0  0  0  0  0
    0.0000    0.0000    0.0000 C   0  0  0  0  0  0  0  0  0  0  0  0
   -1.0973   -0.5935    0.0000 O   0  0  0  0  0  1  0  0  0  0  0  0
    1.0973   -0.5955    0.0000 O   0  0  0  0  0  0  0  0  0  0  0  0
    5.2881    1.2624    2.4851 C   0  0  0  0  0  0  0  0  0  0  0  0
    6.0480    0.6588    2.3780 H   0  0  0  0  0  0  0  0  0  0  0  0
    4.8670    1.2024    3.3641 H   0  0  0  0  0  0  0  0  0  0  0  0
    5.6378    2.2845    2.3400 H   0  0  0  0  0  0  0  0  0  0  0  0
    4.2361    0.9030    1.4239 C   0  0  0  0  0  0  0  0  0  0  0  0
    3.7226    1.7625    1.1759 H   0  0  0  0  0  0  0  0  0  0  0  0
    4.7298    0.6349    0.5594 H   0  0  0  0  0  0  0  0  0  0  0  0
    3.2120   -0.1755    1.7207 C   0  0  0  0  0  0  0  0  0  0  0  0
    2.5259    0.2158    2.3424 H   0  0  0  0  0  0  0  0  0  0  0  0
    2.7606   -0.4144    0.8542 H   0  0  0  0  0  0  0  0  0  0  0  0
    3.6398   -1.0724    2.1686 H   0  0  0  0  0  0  0  0  0  0  0  0
  1  5  1  0
  5  6  1  0
  5  7  2  0
  1  2  1  0
  1  3  1  0
  1  4  1  0
  8 12  1  0
 12 15  1  0
  8  9  1  0
  8 10  1  0
  8 11  1  0
 12 13  1  0
 12 14  1  0
 15 16  1  0
 15 17  1  0
 15 18  1  0
M  CHG  1   6  -1
M  END
>  <PDB_ID>  (1181) 
pdb1zan

>  <RESIDUE_NAME>  (1181) 
GLU   ARG

>  <FRAG_NAME>  (1181) 
ACET   PRPA

>  <FRAG_ATOM_NUM>  (1181) 
fragi: 7  fragj: 11

>  <atom.prop.CHAIN_ID>  (1181) 
A A A A A A A Z Z Z Z Z Z Z Z Z Z Z

>  <atom.prop.IS_HEAVY_ATOM>  (1181) 
1 0 0 0 1 1 1 1 0 0 0 1 0 0 1 0 0 0

>  <DIFUSE_FUNC_ATOM>  (1181) 
atom 6   atom 7   

>  <FINAL_SINGLE_POINT_ENERGY>  (1181) 
0

>  <NONCOV_INTER_ENERGY_QM>  (1181) 
0

>  <FF_Energy>  (1181) 
15.88

>  <QM_Energy>  (1181) 
0.27

>  <source>  (1181) 
ACET_PRPA_12

>  <Index>  (1181) 
8261

$$$$
ACET-pdb1zb6-A-ASP-110:PRPA-pdb1zb6-A-LYS-119
     RDKit          3D

 18 16  0  0  0  0  0  0  0  0999 V2000
    0.0109    1.5010    0.0190 C   0  0  0  0  0  0  0  0  0  0  0  0
    0.0844    1.8387   -0.9160 H   0  0  0  0  0  0  0  0  0  0  0  0
    0.7900    1.8153    0.5557 H   0  0  0  0  0  0  0  0  0  0  0  0
   -0.8896    1.9315    0.4571 H   0  0  0  0  0  0  0  0  0  0  0  0
    0.0000    0.0000    0.0000 C   0  0  0  0  0  0  0  0  0  0  0  0
   -1.1013   -0.5851    0.0000 O   0  0  0  0  0  1  0  0  0  0  0  0
    1.1013   -0.5940   -0.0000 O   0  0  0  0  0  0  0  0  0  0  0  0
    2.1217    3.7329   -2.8916 C   0  0  0  0  0  0  0  0  0  0  0  0
    2.0106    3.2695   -3.7804 H   0  0  0  0  0  0  0  0  0  0  0  0
    3.0207    4.1900   -2.8877 H   0  0  0  0  0  0  0  0  0  0  0  0
    1.3603    4.5107   -2.8323 H   0  0  0  0  0  0  0  0  0  0  0  0
    2.0996    2.7001   -1.8019 C   0  0  0  0  0  0  0  0  0  0  0  0
    2.1175    3.1506   -0.9023 H   0  0  0  0  0  0  0  0  0  0  0  0
    1.2612    2.1486   -1.8681 H   0  0  0  0  0  0  0  0  0  0  0  0
    3.3078    1.7273   -1.8628 C   0  0  0  0  0  0  0  0  0  0  0  0
    4.1403    2.2639   -1.7691 H   0  0  0  0  0  0  0  0  0  0  0  0
    3.2253    1.0850   -1.1067 H   0  0  0  0  0  0  0  0  0  0  0  0
    3.3476    1.1708   -2.7992 H   0  0  0  0  0  0  0  0  0  0  0  0
  1  5  1  0
  5  6  1  0
  5  7  2  0
  1  2  1  0
  1  3  1  0
  1  4  1  0
  8 12  1  0
 12 15  1  0
  8  9  1  0
  8 10  1  0
  8 11  1  0
 12 13  1  0
 12 14  1  0
 15 16  1  0
 15 17  1  0
 15 18  1  0
M  CHG  1   6  -1
M  END
>  <PDB_ID>  (1182) 
pdb1zb6

>  <RESIDUE_NAME>  (1182) 
ASP   LYS

>  <FRAG_NAME>  (1182) 
ACET   PRPA

>  <FRAG_ATOM_NUM>  (1182) 
fragi: 7  fragj: 11

>  <atom.prop.CHAIN_ID>  (1182) 
A A A A A A A Z Z Z Z Z Z Z Z Z Z Z

>  <atom.prop.IS_HEAVY_ATOM>  (1182) 
1 0 0 0 1 1 1 1 0 0 0 1 0 0 1 0 0 0

>  <DIFUSE_FUNC_ATOM>  (1182) 
atom 6   atom 7   

>  <FINAL_SINGLE_POINT_ENERGY>  (1182) 
0

>  <NONCOV_INTER_ENERGY_QM>  (1182) 
0

>  <FF_Energy>  (1182) 
24.93

>  <QM_Energy>  (1182) 
3.66

>  <source>  (1182) 
ACET_PRPA_12

>  <Index>  (1182) 
8750

$$$$
ACET-pdb1zb6-A-ASP-110:PRPA-pdb1zb6-A-LYS-119
     RDKit          3D

 18 16  0  0  0  0  0  0  0  0999 V2000
    0.0109    1.5010    0.0190 C   0  0  0  0  0  0  0  0  0  0  0  0
    0.0844    1.8387   -0.9160 H   0  0  0  0  0  0  0  0  0  0  0  0
    0.7900    1.8153    0.5557 H   0  0  0  0  0  0  0  0  0  0  0  0
   -0.8896    1.9315    0.4571 H   0  0  0  0  0  0  0  0  0  0  0  0
    0.0000    0.0000    0.0000 C   0  0  0  0  0  0  0  0  0  0  0  0
   -1.1013   -0.5851    0.0000 O   0  0  0  0  0  1  0  0  0  0  0  0
    1.1013   -0.5940   -0.0000 O   0  0  0  0  0  0  0  0  0  0  0  0
    2.0996    2.7001   -1.8019 C   0  0  0  0  0  0  0  0  0  0  0  0
    2.1175    3.1506   -0.9023 H   0  0  0  0  0  0  0  0  0  0  0  0
    1.2612    2.1486   -1.8681 H   0  0  0  0  0  0  0  0  0  0  0  0
    2.1156    3.4498   -2.5929 H   0  0  0  0  0  0  0  0  0  0  0  0
    3.3078    1.7273   -1.8628 C   0  0  0  0  0  0  0  0  0  0  0  0
    4.1403    2.2639   -1.7691 H   0  0  0  0  0  0  0  0  0  0  0  0
    3.2253    1.0850   -1.1067 H   0  0  0  0  0  0  0  0  0  0  0  0
    3.3634    0.9502   -3.1705 C   0  0  0  0  0  0  0  0  0  0  0  0
    2.4153    0.7995   -3.4985 H   0  0  0  0  0  0  0  0  0  0  0  0
    3.8334    1.5200   -3.8662 H   0  0  0  0  0  0  0  0  0  0  0  0
    3.8703   -0.0122   -3.1016 H   0  0  0  0  0  0  0  0  0  0  0  0
  1  5  1  0
  5  6  1  0
  5  7  2  0
  1  2  1  0
  1  3  1  0
  1  4  1  0
  8 12  1  0
 12 15  1  0
  8  9  1  0
  8 10  1  0
  8 11  1  0
 12 13  1  0
 12 14  1  0
 15 16  1  0
 15 17  1  0
 15 18  1  0
M  CHG  1   6  -1
M  END
>  <PDB_ID>  (1183) 
pdb1zb6

>  <RESIDUE_NAME>  (1183) 
ASP   LYS

>  <FRAG_NAME>  (1183) 
ACET   PRPA

>  <FRAG_ATOM_NUM>  (1183) 
fragi: 7  fragj: 11

>  <atom.prop.CHAIN_ID>  (1183) 
A A A A A A A Z Z Z Z Z Z Z Z Z Z Z

>  <atom.prop.IS_HEAVY_ATOM>  (1183) 
1 0 0 0 1 1 1 1 0 0 0 1 0 0 1 0 0 0

>  <DIFUSE_FUNC_ATOM>  (1183) 
atom 6   atom 7   

>  <FINAL_SINGLE_POINT_ENERGY>  (1183) 
0

>  <NONCOV_INTER_ENERGY_QM>  (1183) 
0

>  <FF_Energy>  (1183) 
22.85

>  <QM_Energy>  (1183) 
3.24

>  <source>  (1183) 
ACET_PRPA_12

>  <Index>  (1183) 
8756

$$$$
ACET-pdb1zat-A-ASP-422:PRPA-pdb1zat-A-VAL-407
     RDKit          3D

 18 16  0  0  0  0  0  0  0  0999 V2000
   -0.0056    1.5129   -0.0139 C   0  0  0  0  0  0  0  0  0  0  0  0
   -0.6883    1.8385    0.6309 H   0  0  0  0  0  0  0  0  0  0  0  0
   -0.2188    1.8261   -0.9320 H   0  0  0  0  0  0  0  0  0  0  0  0
    0.9550    1.9417    0.2715 H   0  0  0  0  0  0  0  0  0  0  0  0
    0.0000    0.0000    0.0000 C   0  0  0  0  0  0  0  0  0  0  0  0
   -1.0962   -0.5998    0.0000 O   0  0  0  0  0  1  0  0  0  0  0  0
    1.0962   -0.5916    0.0000 O   0  0  0  0  0  0  0  0  0  0  0  0
    1.5483   -4.0348    1.8811 C   0  0  0  0  0  0  0  0  0  0  0  0
    0.9797   -3.3217    2.3128 H   0  0  0  0  0  0  0  0  0  0  0  0
    1.6494   -4.8611    2.5846 H   0  0  0  0  0  0  0  0  0  0  0  0
    1.0499   -4.3524    0.9652 H   0  0  0  0  0  0  0  0  0  0  0  0
    2.9464   -3.4585    1.5383 C   0  0  0  0  0  0  0  0  0  0  0  0
    3.5493   -4.2312    1.3658 H   0  0  0  0  0  0  0  0  0  0  0  0
    3.3091   -2.8501    2.3668 H   0  0  0  0  0  0  0  0  0  0  0  0
    2.8847   -2.6383    0.2733 C   0  0  0  0  0  0  0  0  0  0  0  0
    2.0007   -2.1692    0.2140 H   0  0  0  0  0  0  0  0  0  0  0  0
    3.6186   -1.9554    0.2737 H   0  0  0  0  0  0  0  0  0  0  0  0
    2.9933   -3.2346   -0.5251 H   0  0  0  0  0  0  0  0  0  0  0  0
  1  5  1  0
  5  6  1  0
  5  7  2  0
  1  2  1  0
  1  3  1  0
  1  4  1  0
  8 12  1  0
 12 15  1  0
  8  9  1  0
  8 10  1  0
  8 11  1  0
 12 13  1  0
 12 14  1  0
 15 16  1  0
 15 17  1  0
 15 18  1  0
M  CHG  1   6  -1
M  END
>  <PDB_ID>  (1184) 
pdb1zat

>  <RESIDUE_NAME>  (1184) 
ASP   VAL

>  <FRAG_NAME>  (1184) 
ACET   PRPA

>  <FRAG_ATOM_NUM>  (1184) 
fragi: 7  fragj: 11

>  <atom.prop.CHAIN_ID>  (1184) 
A A A A A A A Z Z Z Z Z Z Z Z Z Z Z

>  <atom.prop.IS_HEAVY_ATOM>  (1184) 
1 0 0 0 1 1 1 1 0 0 0 1 0 0 1 0 0 0

>  <DIFUSE_FUNC_ATOM>  (1184) 
atom 6   atom 7   

>  <FINAL_SINGLE_POINT_ENERGY>  (1184) 
0

>  <NONCOV_INTER_ENERGY_QM>  (1184) 
0

>  <FF_Energy>  (1184) 
23.1

>  <QM_Energy>  (1184) 
0.55

>  <source>  (1184) 
ACET_PRPA_12

>  <Index>  (1184) 
8860

$$$$
ACET-pdb1zat-A-ASP-422:PRPA-pdb1zat-A-VAL-407
     RDKit          3D

 18 16  0  0  0  0  0  0  0  0999 V2000
   -0.0056    1.5129   -0.0139 C   0  0  0  0  0  0  0  0  0  0  0  0
   -0.6883    1.8385    0.6309 H   0  0  0  0  0  0  0  0  0  0  0  0
   -0.2188    1.8261   -0.9320 H   0  0  0  0  0  0  0  0  0  0  0  0
    0.9550    1.9417    0.2715 H   0  0  0  0  0  0  0  0  0  0  0  0
    0.0000    0.0000    0.0000 C   0  0  0  0  0  0  0  0  0  0  0  0
   -1.0962   -0.5998    0.0000 O   0  0  0  0  0  1  0  0  0  0  0  0
    1.0962   -0.5916    0.0000 O   0  0  0  0  0  0  0  0  0  0  0  0
    2.8847   -2.6383    0.2733 C   0  0  0  0  0  0  0  0  0  0  0  0
    2.0007   -2.1692    0.2140 H   0  0  0  0  0  0  0  0  0  0  0  0
    3.6186   -1.9554    0.2737 H   0  0  0  0  0  0  0  0  0  0  0  0
    2.9933   -3.2346   -0.5251 H   0  0  0  0  0  0  0  0  0  0  0  0
    2.9464   -3.4585    1.5383 C   0  0  0  0  0  0  0  0  0  0  0  0
    3.5493   -4.2312    1.3658 H   0  0  0  0  0  0  0  0  0  0  0  0
    1.9636   -3.8635    1.7793 H   0  0  0  0  0  0  0  0  0  0  0  0
    3.4542   -2.6066    2.6985 C   0  0  0  0  0  0  0  0  0  0  0  0
    2.7598   -2.5827    3.4164 H   0  0  0  0  0  0  0  0  0  0  0  0
    4.2972   -3.0079    3.0558 H   0  0  0  0  0  0  0  0  0  0  0  0
    3.6330   -1.6796    2.3710 H   0  0  0  0  0  0  0  0  0  0  0  0
  1  5  1  0
  5  6  1  0
  5  7  2  0
  1  2  1  0
  1  3  1  0
  1  4  1  0
  8 12  1  0
 12 15  1  0
  8  9  1  0
  8 10  1  0
  8 11  1  0
 12 13  1  0
 12 14  1  0
 15 16  1  0
 15 17  1  0
 15 18  1  0
M  CHG  1   6  -1
M  END
>  <PDB_ID>  (1185) 
pdb1zat

>  <RESIDUE_NAME>  (1185) 
ASP   VAL

>  <FRAG_NAME>  (1185) 
ACET   PRPA

>  <FRAG_ATOM_NUM>  (1185) 
fragi: 7  fragj: 11

>  <atom.prop.CHAIN_ID>  (1185) 
A A A A A A A Z Z Z Z Z Z Z Z Z Z Z

>  <atom.prop.IS_HEAVY_ATOM>  (1185) 
1 0 0 0 1 1 1 1 0 0 0 1 0 0 1 0 0 0

>  <DIFUSE_FUNC_ATOM>  (1185) 
atom 6   atom 7   

>  <FINAL_SINGLE_POINT_ENERGY>  (1185) 
0

>  <NONCOV_INTER_ENERGY_QM>  (1185) 
0

>  <FF_Energy>  (1185) 
22.99

>  <QM_Energy>  (1185) 
0.85

>  <source>  (1185) 
ACET_PRPA_12

>  <Index>  (1185) 
8875

$$$$
ACET-pdb1z9o-G-ASP-474:PRPA-pdb1z9o-A-LYS-87
     RDKit          3D

 18 16  0  0  0  0  0  0  0  0999 V2000
    0.0014    1.5290    0.0044 C   0  0  0  0  0  0  0  0  0  0  0  0
    0.5270    1.8199   -0.8164 H   0  0  0  0  0  0  0  0  0  0  0  0
    0.5421    1.8153    0.8157 H   0  0  0  0  0  0  0  0  0  0  0  0
   -0.9776    2.0080    0.0145 H   0  0  0  0  0  0  0  0  0  0  0  0
    0.0000    0.0000    0.0000 C   0  0  0  0  0  0  0  0  0  0  0  0
   -1.1174   -0.6431   -0.0000 O   0  0  0  0  0  1  0  0  0  0  0  0
    1.1174   -0.6436   -0.0000 O   0  0  0  0  0  0  0  0  0  0  0  0
    4.8911    0.0344    2.3631 C   0  0  0  0  0  0  0  0  0  0  0  0
    4.1305    0.6839    2.3543 H   0  0  0  0  0  0  0  0  0  0  0  0
    5.5929    0.3359    1.7162 H   0  0  0  0  0  0  0  0  0  0  0  0
    5.3209    0.0029    3.3643 H   0  0  0  0  0  0  0  0  0  0  0  0
    4.3486   -1.3178    1.8573 C   0  0  0  0  0  0  0  0  0  0  0  0
    5.1131   -1.9623    1.8097 H   0  0  0  0  0  0  0  0  0  0  0  0
    3.6753   -1.6518    2.5180 H   0  0  0  0  0  0  0  0  0  0  0  0
    3.7097   -1.1897    0.5031 C   0  0  0  0  0  0  0  0  0  0  0  0
    2.8665   -0.6893    0.5697 H   0  0  0  0  0  0  0  0  0  0  0  0
    4.3372   -0.7846   -0.1354 H   0  0  0  0  0  0  0  0  0  0  0  0
    3.4654   -2.1831    0.1267 H   0  0  0  0  0  0  0  0  0  0  0  0
  1  5  1  0
  5  6  1  0
  5  7  2  0
  1  2  1  0
  1  3  1  0
  1  4  1  0
  8 12  1  0
 12 15  1  0
  8  9  1  0
  8 10  1  0
  8 11  1  0
 12 13  1  0
 12 14  1  0
 15 16  1  0
 15 17  1  0
 15 18  1  0
M  CHG  1   6  -1
M  END
>  <PDB_ID>  (1186) 
pdb1z9o

>  <RESIDUE_NAME>  (1186) 
ASP   LYS

>  <FRAG_NAME>  (1186) 
ACET   PRPA

>  <FRAG_ATOM_NUM>  (1186) 
fragi: 7  fragj: 11

>  <atom.prop.CHAIN_ID>  (1186) 
A A A A A A A Z Z Z Z Z Z Z Z Z Z Z

>  <atom.prop.IS_HEAVY_ATOM>  (1186) 
1 0 0 0 1 1 1 1 0 0 0 1 0 0 1 0 0 0

>  <DIFUSE_FUNC_ATOM>  (1186) 
atom 6   atom 7   

>  <FINAL_SINGLE_POINT_ENERGY>  (1186) 
0

>  <NONCOV_INTER_ENERGY_QM>  (1186) 
0

>  <FF_Energy>  (1186) 
22.14

>  <QM_Energy>  (1186) 
1.21

>  <source>  (1186) 
ACET_PRPA_12

>  <Index>  (1186) 
9279

$$$$
ACET-pdb1z9o-G-ASP-474:PRPA-pdb1z9o-A-LYS-87
     RDKit          3D

 18 16  0  0  0  0  0  0  0  0999 V2000
    0.0014    1.5290    0.0044 C   0  0  0  0  0  0  0  0  0  0  0  0
    0.5270    1.8199   -0.8164 H   0  0  0  0  0  0  0  0  0  0  0  0
    0.5421    1.8153    0.8157 H   0  0  0  0  0  0  0  0  0  0  0  0
   -0.9776    2.0080    0.0145 H   0  0  0  0  0  0  0  0  0  0  0  0
    0.0000    0.0000    0.0000 C   0  0  0  0  0  0  0  0  0  0  0  0
   -1.1174   -0.6431   -0.0000 O   0  0  0  0  0  1  0  0  0  0  0  0
    1.1174   -0.6436   -0.0000 O   0  0  0  0  0  0  0  0  0  0  0  0
    4.3486   -1.3178    1.8573 C   0  0  0  0  0  0  0  0  0  0  0  0
    5.1131   -1.9623    1.8097 H   0  0  0  0  0  0  0  0  0  0  0  0
    3.6753   -1.6518    2.5180 H   0  0  0  0  0  0  0  0  0  0  0  0
    4.7320   -0.3620    2.2148 H   0  0  0  0  0  0  0  0  0  0  0  0
    3.7097   -1.1897    0.5031 C   0  0  0  0  0  0  0  0  0  0  0  0
    2.8665   -0.6893    0.5697 H   0  0  0  0  0  0  0  0  0  0  0  0
    4.3372   -0.7846   -0.1354 H   0  0  0  0  0  0  0  0  0  0  0  0
    3.3577   -2.6208   -0.0391 C   0  0  0  0  0  0  0  0  0  0  0  0
    2.5762   -2.9082    0.3659 H   0  0  0  0  0  0  0  0  0  0  0  0
    3.4942   -2.6330   -0.9552 H   0  0  0  0  0  0  0  0  0  0  0  0
    4.2062   -3.0978    0.4515 H   0  0  0  0  0  0  0  0  0  0  0  0
  1  5  1  0
  5  6  1  0
  5  7  2  0
  1  2  1  0
  1  3  1  0
  1  4  1  0
  8 12  1  0
 12 15  1  0
  8  9  1  0
  8 10  1  0
  8 11  1  0
 12 13  1  0
 12 14  1  0
 15 16  1  0
 15 17  1  0
 15 18  1  0
M  CHG  1   6  -1
M  END
>  <PDB_ID>  (1187) 
pdb1z9o

>  <RESIDUE_NAME>  (1187) 
ASP   LYS

>  <FRAG_NAME>  (1187) 
ACET   PRPA

>  <FRAG_ATOM_NUM>  (1187) 
fragi: 7  fragj: 11

>  <atom.prop.CHAIN_ID>  (1187) 
A A A A A A A Z Z Z Z Z Z Z Z Z Z Z

>  <atom.prop.IS_HEAVY_ATOM>  (1187) 
1 0 0 0 1 1 1 1 0 0 0 1 0 0 1 0 0 0

>  <DIFUSE_FUNC_ATOM>  (1187) 
atom 6   atom 7   

>  <FINAL_SINGLE_POINT_ENERGY>  (1187) 
0

>  <NONCOV_INTER_ENERGY_QM>  (1187) 
0

>  <FF_Energy>  (1187) 
27.1

>  <QM_Energy>  (1187) 
-0.01

>  <source>  (1187) 
ACET_PRPA_12

>  <Index>  (1187) 
9289

$$$$
ACET-pdb3cnc-F-GLU-278:PRPA-pdb3cnc-F-ILE-273
     RDKit          3D

 18 16  0  0  0  0  0  0  0  0999 V2000
   -0.0050    1.5148    0.0026 C   0  0  0  0  0  0  0  0  0  0  0  0
   -0.3976    1.8126   -0.8462 H   0  0  0  0  0  0  0  0  0  0  0  0
    0.9221    1.8151    0.1157 H   0  0  0  0  0  0  0  0  0  0  0  0
   -0.6011    1.9233    0.8187 H   0  0  0  0  0  0  0  0  0  0  0  0
    0.0000    0.0000    0.0000 C   0  0  0  0  0  0  0  0  0  0  0  0
   -1.0970   -0.5906   -0.0000 O   0  0  0  0  0  1  0  0  0  0  0  0
    1.0970   -0.5997    0.0000 O   0  0  0  0  0  0  0  0  0  0  0  0
   -3.5581   -1.5954   -0.7239 C   0  0  0  0  0  0  0  0  0  0  0  0
   -2.6205   -1.2306   -0.7463 H   0  0  0  0  0  0  0  0  0  0  0  0
   -3.7534   -2.0038   -1.7154 H   0  0  0  0  0  0  0  0  0  0  0  0
   -3.5679   -2.3725    0.0404 H   0  0  0  0  0  0  0  0  0  0  0  0
   -4.5886   -0.5083   -0.3565 C   0  0  0  0  0  0  0  0  0  0  0  0
   -5.4696   -0.9495   -0.2400 H   0  0  0  0  0  0  0  0  0  0  0  0
   -4.2689    0.0165    0.5438 H   0  0  0  0  0  0  0  0  0  0  0  0
   -4.7079    0.5017   -1.4971 C   0  0  0  0  0  0  0  0  0  0  0  0
   -3.8580    1.0249   -1.5460 H   0  0  0  0  0  0  0  0  0  0  0  0
   -4.8191   -0.0042   -2.3527 H   0  0  0  0  0  0  0  0  0  0  0  0
   -5.5443    1.1920   -1.3878 H   0  0  0  0  0  0  0  0  0  0  0  0
  1  5  1  0
  5  6  1  0
  5  7  2  0
  1  2  1  0
  1  3  1  0
  1  4  1  0
  8 12  1  0
 12 15  1  0
  8  9  1  0
  8 10  1  0
  8 11  1  0
 12 13  1  0
 12 14  1  0
 15 16  1  0
 15 17  1  0
 15 18  1  0
M  CHG  1   6  -1
M  END
>  <PDB_ID>  (1188) 
pdb3cnc

>  <RESIDUE_NAME>  (1188) 
GLU   ILE

>  <FRAG_NAME>  (1188) 
ACET   PRPA

>  <FRAG_ATOM_NUM>  (1188) 
fragi: 7  fragj: 11

>  <atom.prop.CHAIN_ID>  (1188) 
A A A A A A A Z Z Z Z Z Z Z Z Z Z Z

>  <atom.prop.IS_HEAVY_ATOM>  (1188) 
1 0 0 0 1 1 1 1 0 0 0 1 0 0 1 0 0 0

>  <DIFUSE_FUNC_ATOM>  (1188) 
atom 6   atom 7   

>  <FINAL_SINGLE_POINT_ENERGY>  (1188) 
0

>  <NONCOV_INTER_ENERGY_QM>  (1188) 
0

>  <FF_Energy>  (1188) 
25.47

>  <QM_Energy>  (1188) 
-0.63

>  <source>  (1188) 
ACET_PRPA_12

>  <Index>  (1188) 
9350

$$$$
ACET-pdb3cnc-F-GLU-278:PRPA-pdb3cnc-F-ILE-273
     RDKit          3D

 18 16  0  0  0  0  0  0  0  0999 V2000
   -0.0050    1.5148    0.0026 C   0  0  0  0  0  0  0  0  0  0  0  0
   -0.3976    1.8126   -0.8462 H   0  0  0  0  0  0  0  0  0  0  0  0
    0.9221    1.8151    0.1157 H   0  0  0  0  0  0  0  0  0  0  0  0
   -0.6011    1.9233    0.8187 H   0  0  0  0  0  0  0  0  0  0  0  0
    0.0000    0.0000    0.0000 C   0  0  0  0  0  0  0  0  0  0  0  0
   -1.0970   -0.5906   -0.0000 O   0  0  0  0  0  1  0  0  0  0  0  0
    1.0970   -0.5997    0.0000 O   0  0  0  0  0  0  0  0  0  0  0  0
   -3.5581   -1.5954   -0.7239 C   0  0  0  0  0  0  0  0  0  0  0  0
   -2.6205   -1.2306   -0.7463 H   0  0  0  0  0  0  0  0  0  0  0  0
   -3.7534   -2.0038   -1.7154 H   0  0  0  0  0  0  0  0  0  0  0  0
   -3.5679   -2.3725    0.0404 H   0  0  0  0  0  0  0  0  0  0  0  0
   -4.5886   -0.5083   -0.3565 C   0  0  0  0  0  0  0  0  0  0  0  0
   -5.4696   -0.9495   -0.2400 H   0  0  0  0  0  0  0  0  0  0  0  0
   -4.6737    0.2121   -1.1701 H   0  0  0  0  0  0  0  0  0  0  0  0
   -4.1432    0.2227    0.8975 C   0  0  0  0  0  0  0  0  0  0  0  0
   -4.8155    0.9224    1.1349 H   0  0  0  0  0  0  0  0  0  0  0  0
   -4.0612   -0.4264    1.6529 H   0  0  0  0  0  0  0  0  0  0  0  0
   -3.2574    0.6561    0.7359 H   0  0  0  0  0  0  0  0  0  0  0  0
  1  5  1  0
  5  6  1  0
  5  7  2  0
  1  2  1  0
  1  3  1  0
  1  4  1  0
  8 12  1  0
 12 15  1  0
  8  9  1  0
  8 10  1  0
  8 11  1  0
 12 13  1  0
 12 14  1  0
 15 16  1  0
 15 17  1  0
 15 18  1  0
M  CHG  1   6  -1
M  END
>  <PDB_ID>  (1189) 
pdb3cnc

>  <RESIDUE_NAME>  (1189) 
GLU   ILE

>  <FRAG_NAME>  (1189) 
ACET   PRPA

>  <FRAG_ATOM_NUM>  (1189) 
fragi: 7  fragj: 11

>  <atom.prop.CHAIN_ID>  (1189) 
A A A A A A A Z Z Z Z Z Z Z Z Z Z Z

>  <atom.prop.IS_HEAVY_ATOM>  (1189) 
1 0 0 0 1 1 1 1 0 0 0 1 0 0 1 0 0 0

>  <DIFUSE_FUNC_ATOM>  (1189) 
atom 6   atom 7   

>  <FINAL_SINGLE_POINT_ENERGY>  (1189) 
0

>  <NONCOV_INTER_ENERGY_QM>  (1189) 
0

>  <FF_Energy>  (1189) 
25.76

>  <QM_Energy>  (1189) 
-0.59

>  <source>  (1189) 
ACET_PRPA_12

>  <Index>  (1189) 
9354

$$$$
ACET-pdb1yp2-C-ASP-217:PRPA-pdb1yp2-C-ARG-220
     RDKit          3D

 18 16  0  0  0  0  0  0  0  0999 V2000
   -0.0121    1.5100   -0.0159 C   0  0  0  0  0  0  0  0  0  0  0  0
    0.8301    1.8441    0.3939 H   0  0  0  0  0  0  0  0  0  0  0  0
   -0.7991    1.8322    0.4968 H   0  0  0  0  0  0  0  0  0  0  0  0
   -0.0783    1.9198   -1.0237 H   0  0  0  0  0  0  0  0  0  0  0  0
    0.0000    0.0000    0.0000 C   0  0  0  0  0  0  0  0  0  0  0  0
   -1.1020   -0.5838   -0.0000 O   0  0  0  0  0  1  0  0  0  0  0  0
    1.1020   -0.5955    0.0000 O   0  0  0  0  0  0  0  0  0  0  0  0
    0.4885   -3.0509   -2.4195 C   0  0  0  0  0  0  0  0  0  0  0  0
    0.1337   -2.1327   -2.3569 H   0  0  0  0  0  0  0  0  0  0  0  0
   -0.0032   -3.5862   -3.0860 H   0  0  0  0  0  0  0  0  0  0  0  0
    1.5349   -2.9987   -2.7203 H   0  0  0  0  0  0  0  0  0  0  0  0
    0.3290   -3.7157   -1.0658 C   0  0  0  0  0  0  0  0  0  0  0  0
    0.3324   -4.7081   -1.1841 H   0  0  0  0  0  0  0  0  0  0  0  0
    1.0895   -3.4462   -0.4747 H   0  0  0  0  0  0  0  0  0  0  0  0
   -0.9560   -3.3166   -0.4018 C   0  0  0  0  0  0  0  0  0  0  0  0
   -0.8510   -3.4377    0.5917 H   0  0  0  0  0  0  0  0  0  0  0  0
   -1.1189   -2.3418   -0.5893 H   0  0  0  0  0  0  0  0  0  0  0  0
   -1.8194   -3.8905   -0.7382 H   0  0  0  0  0  0  0  0  0  0  0  0
  1  5  1  0
  5  6  1  0
  5  7  2  0
  1  2  1  0
  1  3  1  0
  1  4  1  0
  8 12  1  0
 12 15  1  0
  8  9  1  0
  8 10  1  0
  8 11  1  0
 12 13  1  0
 12 14  1  0
 15 16  1  0
 15 17  1  0
 15 18  1  0
M  CHG  1   6  -1
M  END
>  <PDB_ID>  (1190) 
pdb1yp2

>  <RESIDUE_NAME>  (1190) 
ASP   ARG

>  <FRAG_NAME>  (1190) 
ACET   PRPA

>  <FRAG_ATOM_NUM>  (1190) 
fragi: 7  fragj: 11

>  <atom.prop.CHAIN_ID>  (1190) 
A A A A A A A Z Z Z Z Z Z Z Z Z Z Z

>  <atom.prop.IS_HEAVY_ATOM>  (1190) 
1 0 0 0 1 1 1 1 0 0 0 1 0 0 1 0 0 0

>  <DIFUSE_FUNC_ATOM>  (1190) 
atom 6   atom 7   

>  <FINAL_SINGLE_POINT_ENERGY>  (1190) 
0

>  <NONCOV_INTER_ENERGY_QM>  (1190) 
0

>  <FF_Energy>  (1190) 
20.24

>  <QM_Energy>  (1190) 
-1.03

>  <source>  (1190) 
ACET_PRPA_12

>  <Index>  (1190) 
10202

$$$$
ACET-pdb3d7i-B-GLU-102:PRPA-pdb3d7i-A-VAL-13
     RDKit          3D

 18 16  0  0  0  0  0  0  0  0999 V2000
    0.0270    1.5400   -0.0290 C   0  0  0  0  0  0  0  0  0  0  0  0
    0.2928    1.8047   -0.9390 H   0  0  0  0  0  0  0  0  0  0  0  0
    0.6839    1.8278    0.6457 H   0  0  0  0  0  0  0  0  0  0  0  0
   -0.9341    2.0004    0.2001 H   0  0  0  0  0  0  0  0  0  0  0  0
    0.0000    0.0000    0.0000 C   0  0  0  0  0  0  0  0  0  0  0  0
   -1.1063   -0.5984   -0.0000 O   0  0  0  0  0  1  0  0  0  0  0  0
    1.1063   -0.6010    0.0000 O   0  0  0  0  0  0  0  0  0  0  0  0
    2.2297   -1.4327   -3.7494 C   0  0  0  0  0  0  0  0  0  0  0  0
    2.0030   -1.2267   -4.7079 H   0  0  0  0  0  0  0  0  0  0  0  0
    1.8157   -2.4125   -3.5116 H   0  0  0  0  0  0  0  0  0  0  0  0
    3.3150   -1.4300   -3.6492 H   0  0  0  0  0  0  0  0  0  0  0  0
    1.6510   -0.3010   -2.8776 C   0  0  0  0  0  0  0  0  0  0  0  0
    2.0501   -0.3803   -1.9736 H   0  0  0  0  0  0  0  0  0  0  0  0
    1.9597    0.6652   -3.2764 H   0  0  0  0  0  0  0  0  0  0  0  0
    0.1256   -0.3826   -2.8246 C   0  0  0  0  0  0  0  0  0  0  0  0
   -0.1940    0.0312   -1.9741 H   0  0  0  0  0  0  0  0  0  0  0  0
   -0.2555    0.1108   -3.6056 H   0  0  0  0  0  0  0  0  0  0  0  0
   -0.1520   -1.3416   -2.8607 H   0  0  0  0  0  0  0  0  0  0  0  0
  1  5  1  0
  5  6  1  0
  5  7  2  0
  1  2  1  0
  1  3  1  0
  1  4  1  0
  8 12  1  0
 12 15  1  0
  8  9  1  0
  8 10  1  0
  8 11  1  0
 12 13  1  0
 12 14  1  0
 15 16  1  0
 15 17  1  0
 15 18  1  0
M  CHG  1   6  -1
M  END
>  <PDB_ID>  (1191) 
pdb3d7i

>  <RESIDUE_NAME>  (1191) 
GLU   VAL

>  <FRAG_NAME>  (1191) 
ACET   PRPA

>  <FRAG_ATOM_NUM>  (1191) 
fragi: 7  fragj: 11

>  <atom.prop.CHAIN_ID>  (1191) 
A A A A A A A Z Z Z Z Z Z Z Z Z Z Z

>  <atom.prop.IS_HEAVY_ATOM>  (1191) 
1 0 0 0 1 1 1 1 0 0 0 1 0 0 1 0 0 0

>  <DIFUSE_FUNC_ATOM>  (1191) 
atom 6   atom 7   

>  <FINAL_SINGLE_POINT_ENERGY>  (1191) 
0

>  <NONCOV_INTER_ENERGY_QM>  (1191) 
0

>  <FF_Energy>  (1191) 
30.08

>  <QM_Energy>  (1191) 
2.12

>  <source>  (1191) 
ACET_PRPA_12

>  <Index>  (1191) 
10393

$$$$
ACET-pdb3d7i-B-GLU-102:PRPA-pdb3d7i-A-VAL-13
     RDKit          3D

 18 16  0  0  0  0  0  0  0  0999 V2000
    0.0270    1.5400   -0.0290 C   0  0  0  0  0  0  0  0  0  0  0  0
    0.2928    1.8047   -0.9390 H   0  0  0  0  0  0  0  0  0  0  0  0
    0.6839    1.8278    0.6457 H   0  0  0  0  0  0  0  0  0  0  0  0
   -0.9341    2.0004    0.2001 H   0  0  0  0  0  0  0  0  0  0  0  0
    0.0000    0.0000    0.0000 C   0  0  0  0  0  0  0  0  0  0  0  0
   -1.1063   -0.5984   -0.0000 O   0  0  0  0  0  1  0  0  0  0  0  0
    1.1063   -0.6010    0.0000 O   0  0  0  0  0  0  0  0  0  0  0  0
    2.0842    1.0547   -3.4373 C   0  0  0  0  0  0  0  0  0  0  0  0
    3.0732    1.1522   -3.3379 H   0  0  0  0  0  0  0  0  0  0  0  0
    1.8377    1.1071   -4.4035 H   0  0  0  0  0  0  0  0  0  0  0  0
    1.6223    1.7827   -2.9330 H   0  0  0  0  0  0  0  0  0  0  0  0
    1.6510   -0.3010   -2.8776 C   0  0  0  0  0  0  0  0  0  0  0  0
    2.0501   -0.3803   -1.9736 H   0  0  0  0  0  0  0  0  0  0  0  0
    2.0602   -1.1013   -3.4942 H   0  0  0  0  0  0  0  0  0  0  0  0
    0.1256   -0.3826   -2.8246 C   0  0  0  0  0  0  0  0  0  0  0  0
   -0.1940    0.0312   -1.9741 H   0  0  0  0  0  0  0  0  0  0  0  0
   -0.2555    0.1108   -3.6056 H   0  0  0  0  0  0  0  0  0  0  0  0
   -0.1520   -1.3416   -2.8607 H   0  0  0  0  0  0  0  0  0  0  0  0
  1  5  1  0
  5  6  1  0
  5  7  2  0
  1  2  1  0
  1  3  1  0
  1  4  1  0
  8 12  1  0
 12 15  1  0
  8  9  1  0
  8 10  1  0
  8 11  1  0
 12 13  1  0
 12 14  1  0
 15 16  1  0
 15 17  1  0
 15 18  1  0
M  CHG  1   6  -1
M  END
>  <PDB_ID>  (1192) 
pdb3d7i

>  <RESIDUE_NAME>  (1192) 
GLU   VAL

>  <FRAG_NAME>  (1192) 
ACET   PRPA

>  <FRAG_ATOM_NUM>  (1192) 
fragi: 7  fragj: 11

>  <atom.prop.CHAIN_ID>  (1192) 
A A A A A A A Z Z Z Z Z Z Z Z Z Z Z

>  <atom.prop.IS_HEAVY_ATOM>  (1192) 
1 0 0 0 1 1 1 1 0 0 0 1 0 0 1 0 0 0

>  <DIFUSE_FUNC_ATOM>  (1192) 
atom 6   atom 7   

>  <FINAL_SINGLE_POINT_ENERGY>  (1192) 
0

>  <NONCOV_INTER_ENERGY_QM>  (1192) 
0

>  <FF_Energy>  (1192) 
29.64

>  <QM_Energy>  (1192) 
2.03

>  <source>  (1192) 
ACET_PRPA_12

>  <Index>  (1192) 
10399

$$$$
ACET-pdb1z5h-A-ASP-181:PRPA-pdb1z5h-A-LYN-218
     RDKit          3D

 18 16  0  0  0  0  0  0  0  0999 V2000
   -0.0106    1.5114   -0.0119 C   0  0  0  0  0  0  0  0  0  0  0  0
   -0.8911    1.8295    0.3220 H   0  0  0  0  0  0  0  0  0  0  0  0
    0.1431    1.8276   -0.9409 H   0  0  0  0  0  0  0  0  0  0  0  0
    0.7646    1.9412    0.6223 H   0  0  0  0  0  0  0  0  0  0  0  0
    0.0000    0.0000    0.0000 C   0  0  0  0  0  0  0  0  0  0  0  0
   -1.0915   -0.5988    0.0000 O   0  0  0  0  0  1  0  0  0  0  0  0
    1.0915   -0.5981   -0.0000 O   0  0  0  0  0  0  0  0  0  0  0  0
   -2.3887    4.5319    2.1394 C   0  0  0  0  0  0  0  0  0  0  0  0
   -1.4720    4.2058    2.4118 H   0  0  0  0  0  0  0  0  0  0  0  0
   -3.1153    4.2134    2.8869 H   0  0  0  0  0  0  0  0  0  0  0  0
   -2.3632    5.6184    2.0550 H   0  0  0  0  0  0  0  0  0  0  0  0
   -2.7128    3.8758    0.7866 C   0  0  0  0  0  0  0  0  0  0  0  0
   -3.6128    4.2072    0.4878 H   0  0  0  0  0  0  0  0  0  0  0  0
   -2.0220    4.1778    0.1211 H   0  0  0  0  0  0  0  0  0  0  0  0
   -2.7454    2.3424    0.7711 C   0  0  0  0  0  0  0  0  0  0  0  0
   -2.5721    2.0269   -0.1560 H   0  0  0  0  0  0  0  0  0  0  0  0
   -2.0451    2.0002    1.3894 H   0  0  0  0  0  0  0  0  0  0  0  0
   -3.7189    1.9755    1.0964 H   0  0  0  0  0  0  0  0  0  0  0  0
  1  5  1  0
  5  6  1  0
  5  7  2  0
  1  2  1  0
  1  3  1  0
  1  4  1  0
  8 12  1  0
 12 15  1  0
  8  9  1  0
  8 10  1  0
  8 11  1  0
 12 13  1  0
 12 14  1  0
 15 16  1  0
 15 17  1  0
 15 18  1  0
M  CHG  1   6  -1
M  END
>  <PDB_ID>  (1193) 
pdb1z5h

>  <RESIDUE_NAME>  (1193) 
ASP   LYN

>  <FRAG_NAME>  (1193) 
ACET   PRPA

>  <FRAG_ATOM_NUM>  (1193) 
fragi: 7  fragj: 11

>  <atom.prop.CHAIN_ID>  (1193) 
A A A A A A A Z Z Z Z Z Z Z Z Z Z Z

>  <atom.prop.IS_HEAVY_ATOM>  (1193) 
1 0 0 0 1 1 1 1 0 0 0 1 0 0 1 0 0 0

>  <DIFUSE_FUNC_ATOM>  (1193) 
atom 6   atom 7   

>  <FINAL_SINGLE_POINT_ENERGY>  (1193) 
0

>  <NONCOV_INTER_ENERGY_QM>  (1193) 
0

>  <FF_Energy>  (1193) 
43.61

>  <QM_Energy>  (1193) 
7.38

>  <source>  (1193) 
ACET_PRPA_12

>  <Index>  (1193) 
10413

$$$$
ACET-pdb1z5h-A-ASP-181:PRPA-pdb1z5h-A-LYN-218
     RDKit          3D

 18 16  0  0  0  0  0  0  0  0999 V2000
   -0.0106    1.5114   -0.0119 C   0  0  0  0  0  0  0  0  0  0  0  0
   -0.8911    1.8295    0.3220 H   0  0  0  0  0  0  0  0  0  0  0  0
    0.1431    1.8276   -0.9409 H   0  0  0  0  0  0  0  0  0  0  0  0
    0.7646    1.9412    0.6223 H   0  0  0  0  0  0  0  0  0  0  0  0
    0.0000    0.0000    0.0000 C   0  0  0  0  0  0  0  0  0  0  0  0
   -1.0915   -0.5988    0.0000 O   0  0  0  0  0  1  0  0  0  0  0  0
    1.0915   -0.5981   -0.0000 O   0  0  0  0  0  0  0  0  0  0  0  0
   -2.7128    3.8758    0.7866 C   0  0  0  0  0  0  0  0  0  0  0  0
   -3.6128    4.2072    0.4878 H   0  0  0  0  0  0  0  0  0  0  0  0
   -2.0220    4.1778    0.1211 H   0  0  0  0  0  0  0  0  0  0  0  0
   -2.4832    4.3408    1.7453 H   0  0  0  0  0  0  0  0  0  0  0  0
   -2.7454    2.3424    0.7711 C   0  0  0  0  0  0  0  0  0  0  0  0
   -2.5721    2.0269   -0.1560 H   0  0  0  0  0  0  0  0  0  0  0  0
   -2.0451    2.0002    1.3894 H   0  0  0  0  0  0  0  0  0  0  0  0
   -4.1052    1.8299    1.2254 C   0  0  0  0  0  0  0  0  0  0  0  0
   -4.2696    2.1287    2.1537 H   0  0  0  0  0  0  0  0  0  0  0  0
   -4.8013    2.1696    0.6104 H   0  0  0  0  0  0  0  0  0  0  0  0
   -4.1260    0.7403    1.2034 H   0  0  0  0  0  0  0  0  0  0  0  0
  1  5  1  0
  5  6  1  0
  5  7  2  0
  1  2  1  0
  1  3  1  0
  1  4  1  0
  8 12  1  0
 12 15  1  0
  8  9  1  0
  8 10  1  0
  8 11  1  0
 12 13  1  0
 12 14  1  0
 15 16  1  0
 15 17  1  0
 15 18  1  0
M  CHG  1   6  -1
M  END
>  <PDB_ID>  (1194) 
pdb1z5h

>  <RESIDUE_NAME>  (1194) 
ASP   LYN

>  <FRAG_NAME>  (1194) 
ACET   PRPA

>  <FRAG_ATOM_NUM>  (1194) 
fragi: 7  fragj: 11

>  <atom.prop.CHAIN_ID>  (1194) 
A A A A A A A Z Z Z Z Z Z Z Z Z Z Z

>  <atom.prop.IS_HEAVY_ATOM>  (1194) 
1 0 0 0 1 1 1 1 0 0 0 1 0 0 1 0 0 0

>  <DIFUSE_FUNC_ATOM>  (1194) 
atom 6   atom 7   

>  <FINAL_SINGLE_POINT_ENERGY>  (1194) 
0

>  <NONCOV_INTER_ENERGY_QM>  (1194) 
0

>  <FF_Energy>  (1194) 
40.13

>  <QM_Energy>  (1194) 
6.88

>  <source>  (1194) 
ACET_PRPA_12

>  <Index>  (1194) 
10423

$$$$
ACET-pdb1z5h-A-ASP-181:PRPA-pdb1z5h-A-LYN-218
     RDKit          3D

 18 16  0  0  0  0  0  0  0  0999 V2000
   -0.0106    1.5114   -0.0119 C   0  0  0  0  0  0  0  0  0  0  0  0
   -0.8911    1.8295    0.3220 H   0  0  0  0  0  0  0  0  0  0  0  0
    0.1431    1.8276   -0.9409 H   0  0  0  0  0  0  0  0  0  0  0  0
    0.7646    1.9412    0.6223 H   0  0  0  0  0  0  0  0  0  0  0  0
    0.0000    0.0000    0.0000 C   0  0  0  0  0  0  0  0  0  0  0  0
   -1.0915   -0.5988    0.0000 O   0  0  0  0  0  1  0  0  0  0  0  0
    1.0915   -0.5981   -0.0000 O   0  0  0  0  0  0  0  0  0  0  0  0
   -2.7454    2.3424    0.7711 C   0  0  0  0  0  0  0  0  0  0  0  0
   -2.5721    2.0269   -0.1560 H   0  0  0  0  0  0  0  0  0  0  0  0
   -2.0451    2.0002    1.3894 H   0  0  0  0  0  0  0  0  0  0  0  0
   -2.7223    3.4321    0.7821 H   0  0  0  0  0  0  0  0  0  0  0  0
   -4.1052    1.8299    1.2254 C   0  0  0  0  0  0  0  0  0  0  0  0
   -4.2696    2.1287    2.1537 H   0  0  0  0  0  0  0  0  0  0  0  0
   -4.8013    2.1696    0.6104 H   0  0  0  0  0  0  0  0  0  0  0  0
   -4.1343    0.3028    1.1946 C   0  0  0  0  0  0  0  0  0  0  0  0
   -4.2540    0.0022    0.2552 H   0  0  0  0  0  0  0  0  0  0  0  0
   -3.2782   -0.0426    1.5630 H   0  0  0  0  0  0  0  0  0  0  0  0
   -4.9637   -0.0594    1.8021 H   0  0  0  0  0  0  0  0  0  0  0  0
  1  5  1  0
  5  6  1  0
  5  7  2  0
  1  2  1  0
  1  3  1  0
  1  4  1  0
  8 12  1  0
 12 15  1  0
  8  9  1  0
  8 10  1  0
  8 11  1  0
 12 13  1  0
 12 14  1  0
 15 16  1  0
 15 17  1  0
 15 18  1  0
M  CHG  1   6  -1
M  END
>  <PDB_ID>  (1195) 
pdb1z5h

>  <RESIDUE_NAME>  (1195) 
ASP   LYN

>  <FRAG_NAME>  (1195) 
ACET   PRPA

>  <FRAG_ATOM_NUM>  (1195) 
fragi: 7  fragj: 11

>  <atom.prop.CHAIN_ID>  (1195) 
A A A A A A A Z Z Z Z Z Z Z Z Z Z Z

>  <atom.prop.IS_HEAVY_ATOM>  (1195) 
1 0 0 0 1 1 1 1 0 0 0 1 0 0 1 0 0 0

>  <DIFUSE_FUNC_ATOM>  (1195) 
atom 6   atom 7   

>  <FINAL_SINGLE_POINT_ENERGY>  (1195) 
0

>  <NONCOV_INTER_ENERGY_QM>  (1195) 
0

>  <FF_Energy>  (1195) 
43.92

>  <QM_Energy>  (1195) 
6.77

>  <source>  (1195) 
ACET_PRPA_12

>  <Index>  (1195) 
10427

$$$$
ACET-pdb3d6r-B-GLU-96:PRPA-pdb3d6r-B-ARG-100
     RDKit          3D

 18 16  0  0  0  0  0  0  0  0999 V2000
    0.0359    1.5280    0.0230 C   0  0  0  0  0  0  0  0  0  0  0  0
    0.9130    1.8093   -0.3224 H   0  0  0  0  0  0  0  0  0  0  0  0
   -0.1061    1.8129    0.9533 H   0  0  0  0  0  0  0  0  0  0  0  0
   -0.7338    1.9914   -0.5941 H   0  0  0  0  0  0  0  0  0  0  0  0
    0.0000    0.0000    0.0000 C   0  0  0  0  0  0  0  0  0  0  0  0
   -1.0841   -0.6177   -0.0000 O   0  0  0  0  0  1  0  0  0  0  0  0
    1.0841   -0.5894   -0.0000 O   0  0  0  0  0  0  0  0  0  0  0  0
    2.2399   -2.6613   -2.6960 C   0  0  0  0  0  0  0  0  0  0  0  0
    1.4451   -2.0941   -2.4844 H   0  0  0  0  0  0  0  0  0  0  0  0
    1.9452   -3.4826   -3.1814 H   0  0  0  0  0  0  0  0  0  0  0  0
    2.9015   -2.0941   -3.3507 H   0  0  0  0  0  0  0  0  0  0  0  0
    2.8699   -3.0926   -1.3869 C   0  0  0  0  0  0  0  0  0  0  0  0
    3.2038   -4.0109   -1.4684 H   0  0  0  0  0  0  0  0  0  0  0  0
    3.5708   -2.4554   -1.1335 H   0  0  0  0  0  0  0  0  0  0  0  0
    1.7855   -3.0596   -0.3478 C   0  0  0  0  0  0  0  0  0  0  0  0
    2.1894   -2.7634    0.5159 H   0  0  0  0  0  0  0  0  0  0  0  0
    1.0931   -2.4013   -0.6400 H   0  0  0  0  0  0  0  0  0  0  0  0
    1.3267   -4.0399   -0.2197 H   0  0  0  0  0  0  0  0  0  0  0  0
  1  5  1  0
  5  6  1  0
  5  7  2  0
  1  2  1  0
  1  3  1  0
  1  4  1  0
  8 12  1  0
 12 15  1  0
  8  9  1  0
  8 10  1  0
  8 11  1  0
 12 13  1  0
 12 14  1  0
 15 16  1  0
 15 17  1  0
 15 18  1  0
M  CHG  1   6  -1
M  END
>  <PDB_ID>  (1196) 
pdb3d6r

>  <RESIDUE_NAME>  (1196) 
GLU   ARG

>  <FRAG_NAME>  (1196) 
ACET   PRPA

>  <FRAG_ATOM_NUM>  (1196) 
fragi: 7  fragj: 11

>  <atom.prop.CHAIN_ID>  (1196) 
A A A A A A A Z Z Z Z Z Z Z Z Z Z Z

>  <atom.prop.IS_HEAVY_ATOM>  (1196) 
1 0 0 0 1 1 1 1 0 0 0 1 0 0 1 0 0 0

>  <DIFUSE_FUNC_ATOM>  (1196) 
atom 6   atom 7   

>  <FINAL_SINGLE_POINT_ENERGY>  (1196) 
0

>  <NONCOV_INTER_ENERGY_QM>  (1196) 
0

>  <FF_Energy>  (1196) 
17.46

>  <QM_Energy>  (1196) 
2.07

>  <source>  (1196) 
ACET_PRPA_12

>  <Index>  (1196) 
11510

$$$$
ACET-pdb3d7i-A-GLU-61:PRPA-pdb3d7i-A-ILE-100
     RDKit          3D

 18 16  0  0  0  0  0  0  0  0999 V2000
    0.1937    1.4873    0.0160 C   0  0  0  0  0  0  0  0  0  0  0  0
    0.7121    1.7341   -0.8014 H   0  0  0  0  0  0  0  0  0  0  0  0
    0.7232    1.7154    0.8312 H   0  0  0  0  0  0  0  0  0  0  0  0
   -0.7166    2.0867    0.0282 H   0  0  0  0  0  0  0  0  0  0  0  0
    0.0000    0.0000    0.0000 C   0  0  0  0  0  0  0  0  0  0  0  0
   -1.0883   -0.5506   -0.0000 O   0  0  0  0  0  1  0  0  0  0  0  0
    1.0883   -0.6168   -0.0000 O   0  0  0  0  0  0  0  0  0  0  0  0
    4.3803    1.3798   -0.1373 C   0  0  0  0  0  0  0  0  0  0  0  0
    3.6843    0.6828   -0.1250 H   0  0  0  0  0  0  0  0  0  0  0  0
    5.2753    0.9788   -0.2452 H   0  0  0  0  0  0  0  0  0  0  0  0
    4.3619    1.8852    0.8282 H   0  0  0  0  0  0  0  0  0  0  0  0
    4.1179    2.3451   -1.2851 C   0  0  0  0  0  0  0  0  0  0  0  0
    4.6583    3.1677   -1.1328 H   0  0  0  0  0  0  0  0  0  0  0  0
    4.4324    1.9139   -2.2356 H   0  0  0  0  0  0  0  0  0  0  0  0
    2.6313    2.7102   -1.2879 C   0  0  0  0  0  0  0  0  0  0  0  0
    2.3965    3.1408   -0.4197 H   0  0  0  0  0  0  0  0  0  0  0  0
    2.4488    3.3424   -2.0369 H   0  0  0  0  0  0  0  0  0  0  0  0
    2.0895    1.8818   -1.4087 H   0  0  0  0  0  0  0  0  0  0  0  0
  1  5  1  0
  5  6  1  0
  5  7  2  0
  1  2  1  0
  1  3  1  0
  1  4  1  0
  8 12  1  0
 12 15  1  0
  8  9  1  0
  8 10  1  0
  8 11  1  0
 12 13  1  0
 12 14  1  0
 15 16  1  0
 15 17  1  0
 15 18  1  0
M  CHG  1   6  -1
M  END
>  <PDB_ID>  (1197) 
pdb3d7i

>  <RESIDUE_NAME>  (1197) 
GLU   ILE

>  <FRAG_NAME>  (1197) 
ACET   PRPA

>  <FRAG_ATOM_NUM>  (1197) 
fragi: 7  fragj: 11

>  <atom.prop.CHAIN_ID>  (1197) 
A A A A A A A Z Z Z Z Z Z Z Z Z Z Z

>  <atom.prop.IS_HEAVY_ATOM>  (1197) 
1 0 0 0 1 1 1 1 0 0 0 1 0 0 1 0 0 0

>  <DIFUSE_FUNC_ATOM>  (1197) 
atom 6   atom 7   

>  <FINAL_SINGLE_POINT_ENERGY>  (1197) 
0

>  <NONCOV_INTER_ENERGY_QM>  (1197) 
0

>  <FF_Energy>  (1197) 
30.27

>  <QM_Energy>  (1197) 
4.41

>  <source>  (1197) 
ACET_PRPA_12

>  <Index>  (1197) 
11692

$$$$
ACET-pdb1zjr-A-ASP-25:PRPA-pdb1zjr-A-PRO-120
     RDKit          3D

 18 16  0  0  0  0  0  0  0  0999 V2000
   -0.0073    1.4760   -0.0145 C   0  0  0  0  0  0  0  0  0  0  0  0
   -0.2879    1.8040   -0.9157 H   0  0  0  0  0  0  0  0  0  0  0  0
    0.9052    1.8205    0.1985 H   0  0  0  0  0  0  0  0  0  0  0  0
   -0.6952    1.9042    0.7146 H   0  0  0  0  0  0  0  0  0  0  0  0
    0.0000    0.0000    0.0000 C   0  0  0  0  0  0  0  0  0  0  0  0
   -1.1062   -0.5793   -0.0000 O   0  0  0  0  0  1  0  0  0  0  0  0
    1.1062   -0.5763   -0.0000 O   0  0  0  0  0  0  0  0  0  0  0  0
   -0.1672   -2.7550    1.5617 C   0  0  0  0  0  0  0  0  0  0  0  0
   -0.1246   -1.7640    1.4904 H   0  0  0  0  0  0  0  0  0  0  0  0
    0.6614   -3.2197    1.0273 H   0  0  0  0  0  0  0  0  0  0  0  0
   -0.1290   -3.0772    2.6024 H   0  0  0  0  0  0  0  0  0  0  0  0
   -1.3911   -3.2897    0.8246 C   0  0  0  0  0  0  0  0  0  0  0  0
   -1.6425   -4.1913    1.1536 H   0  0  0  0  0  0  0  0  0  0  0  0
   -2.1551   -2.6629    0.8958 H   0  0  0  0  0  0  0  0  0  0  0  0
   -0.8914   -3.3628   -0.5984 C   0  0  0  0  0  0  0  0  0  0  0  0
   -1.4741   -3.9471   -1.1423 H   0  0  0  0  0  0  0  0  0  0  0  0
   -0.8226   -2.4573   -0.9899 H   0  0  0  0  0  0  0  0  0  0  0  0
    0.0961   -3.8072   -0.4732 H   0  0  0  0  0  0  0  0  0  0  0  0
  1  5  1  0
  5  6  1  0
  5  7  2  0
  1  2  1  0
  1  3  1  0
  1  4  1  0
  8 12  1  0
 12 15  1  0
  8  9  1  0
  8 10  1  0
  8 11  1  0
 12 13  1  0
 12 14  1  0
 15 16  1  0
 15 17  1  0
 15 18  1  0
M  CHG  1   6  -1
M  END
>  <PDB_ID>  (1198) 
pdb1zjr

>  <RESIDUE_NAME>  (1198) 
ASP   PRO

>  <FRAG_NAME>  (1198) 
ACET   PRPA

>  <FRAG_ATOM_NUM>  (1198) 
fragi: 7  fragj: 11

>  <atom.prop.CHAIN_ID>  (1198) 
A A A A A A A Z Z Z Z Z Z Z Z Z Z Z

>  <atom.prop.IS_HEAVY_ATOM>  (1198) 
1 0 0 0 1 1 1 1 0 0 0 1 0 0 1 0 0 0

>  <DIFUSE_FUNC_ATOM>  (1198) 
atom 6   atom 7   

>  <FINAL_SINGLE_POINT_ENERGY>  (1198) 
0

>  <NONCOV_INTER_ENERGY_QM>  (1198) 
0

>  <FF_Energy>  (1198) 
16.25

>  <QM_Energy>  (1198) 
-0.41

>  <source>  (1198) 
ACET_PRPA_12

>  <Index>  (1198) 
13187

$$$$
ACET-pdb1ya7-F-GLU-188:PRPA-pdb1ya7-F-PRO-185
     RDKit          3D

 18 16  0  0  0  0  0  0  0  0999 V2000
    0.0079    1.5100    0.0002 C   0  0  0  0  0  0  0  0  0  0  0  0
    0.4084    1.8087   -0.8507 H   0  0  0  0  0  0  0  0  0  0  0  0
    0.5403    1.8075    0.7756 H   0  0  0  0  0  0  0  0  0  0  0  0
   -0.9844    1.9538    0.0804 H   0  0  0  0  0  0  0  0  0  0  0  0
    0.0000    0.0000    0.0000 C   0  0  0  0  0  0  0  0  0  0  0  0
   -1.1114   -0.5766    0.0000 O   0  0  0  0  0  1  0  0  0  0  0  0
    1.1114   -0.5948   -0.0000 O   0  0  0  0  0  0  0  0  0  0  0  0
    2.2155    2.1737    3.4864 C   0  0  0  0  0  0  0  0  0  0  0  0
    2.7206    2.6067    2.7260 H   0  0  0  0  0  0  0  0  0  0  0  0
    2.8936    1.8144    4.1423 H   0  0  0  0  0  0  0  0  0  0  0  0
    1.5708    2.9047    3.9744 H   0  0  0  0  0  0  0  0  0  0  0  0
    1.3189    1.1109    3.0005 C   0  0  0  0  0  0  0  0  0  0  0  0
    1.1200    1.2367    2.0032 H   0  0  0  0  0  0  0  0  0  0  0  0
    1.7724    0.1955    3.0787 H   0  0  0  0  0  0  0  0  0  0  0  0
    0.0536    1.1360    3.7926 C   0  0  0  0  0  0  0  0  0  0  0  0
   -0.7551    1.0610    3.2044 H   0  0  0  0  0  0  0  0  0  0  0  0
    0.0275    0.4001    4.4762 H   0  0  0  0  0  0  0  0  0  0  0  0
    0.0736    2.1083    4.2850 H   0  0  0  0  0  0  0  0  0  0  0  0
  1  5  1  0
  5  6  1  0
  5  7  2  0
  1  2  1  0
  1  3  1  0
  1  4  1  0
  8 12  1  0
 12 15  1  0
  8  9  1  0
  8 10  1  0
  8 11  1  0
 12 13  1  0
 12 14  1  0
 15 16  1  0
 15 17  1  0
 15 18  1  0
M  CHG  1   6  -1
M  END
>  <PDB_ID>  (1199) 
pdb1ya7

>  <RESIDUE_NAME>  (1199) 
GLU   PRO

>  <FRAG_NAME>  (1199) 
ACET   PRPA

>  <FRAG_ATOM_NUM>  (1199) 
fragi: 7  fragj: 11

>  <atom.prop.CHAIN_ID>  (1199) 
A A A A A A A Z Z Z Z Z Z Z Z Z Z Z

>  <atom.prop.IS_HEAVY_ATOM>  (1199) 
1 0 0 0 1 1 1 1 0 0 0 1 0 0 1 0 0 0

>  <DIFUSE_FUNC_ATOM>  (1199) 
atom 6   atom 7   

>  <FINAL_SINGLE_POINT_ENERGY>  (1199) 
0

>  <NONCOV_INTER_ENERGY_QM>  (1199) 
0

>  <FF_Energy>  (1199) 
40.31

>  <QM_Energy>  (1199) 
1.98

>  <source>  (1199) 
ACET_PRPA_12

>  <Index>  (1199) 
13411

$$$$
ACET-pdb3dbx-A-GLU-65:PRPA-pdb3dbx-A-LYS-68
     RDKit          3D

 18 16  0  0  0  0  0  0  0  0999 V2000
    0.1885    1.4853    0.0138 C   0  0  0  0  0  0  0  0  0  0  0  0
    0.7066    1.7347   -0.8027 H   0  0  0  0  0  0  0  0  0  0  0  0
    0.7179    1.7171    0.8294 H   0  0  0  0  0  0  0  0  0  0  0  0
   -0.7215    2.0852    0.0261 H   0  0  0  0  0  0  0  0  0  0  0  0
    0.0000    0.0000    0.0000 C   0  0  0  0  0  0  0  0  0  0  0  0
   -1.0889   -0.5531    0.0000 O   0  0  0  0  0  1  0  0  0  0  0  0
    1.0889   -0.6146   -0.0000 O   0  0  0  0  0  0  0  0  0  0  0  0
   -3.2242    1.5700   -2.9862 C   0  0  0  0  0  0  0  0  0  0  0  0
   -3.2273    1.7799   -2.0104 H   0  0  0  0  0  0  0  0  0  0  0  0
   -3.7362    0.7276   -3.1503 H   0  0  0  0  0  0  0  0  0  0  0  0
   -3.7322    2.3808   -3.5082 H   0  0  0  0  0  0  0  0  0  0  0  0
   -1.7820    1.3483   -3.4236 C   0  0  0  0  0  0  0  0  0  0  0  0
   -1.7683    1.1335   -4.4003 H   0  0  0  0  0  0  0  0  0  0  0  0
   -1.2598    2.1848   -3.2594 H   0  0  0  0  0  0  0  0  0  0  0  0
   -1.1365    0.2054   -2.6582 C   0  0  0  0  0  0  0  0  0  0  0  0
   -1.1554    0.4230   -1.6822 H   0  0  0  0  0  0  0  0  0  0  0  0
   -1.6629   -0.6292   -2.8236 H   0  0  0  0  0  0  0  0  0  0  0  0
   -0.1031    0.0323   -2.9586 H   0  0  0  0  0  0  0  0  0  0  0  0
  1  5  1  0
  5  6  1  0
  5  7  2  0
  1  2  1  0
  1  3  1  0
  1  4  1  0
  8 12  1  0
 12 15  1  0
  8  9  1  0
  8 10  1  0
  8 11  1  0
 12 13  1  0
 12 14  1  0
 15 16  1  0
 15 17  1  0
 15 18  1  0
M  CHG  1   6  -1
M  END
>  <PDB_ID>  (1200) 
pdb3dbx

>  <RESIDUE_NAME>  (1200) 
GLU   LYS

>  <FRAG_NAME>  (1200) 
ACET   PRPA

>  <FRAG_ATOM_NUM>  (1200) 
fragi: 7  fragj: 11

>  <atom.prop.CHAIN_ID>  (1200) 
A A A A A A A Z Z Z Z Z Z Z Z Z Z Z

>  <atom.prop.IS_HEAVY_ATOM>  (1200) 
1 0 0 0 1 1 1 1 0 0 0 1 0 0 1 0 0 0

>  <DIFUSE_FUNC_ATOM>  (1200) 
atom 6   atom 7   

>  <FINAL_SINGLE_POINT_ENERGY>  (1200) 
0

>  <NONCOV_INTER_ENERGY_QM>  (1200) 
0

>  <FF_Energy>  (1200) 
26.37

>  <QM_Energy>  (1200) 
3.94

>  <source>  (1200) 
ACET_PRPA_12

>  <Index>  (1200) 
13869

$$$$
ACET-pdb3dbx-A-GLU-65:PRPA-pdb3dbx-A-LYS-68
     RDKit          3D

 18 16  0  0  0  0  0  0  0  0999 V2000
    0.1885    1.4853    0.0138 C   0  0  0  0  0  0  0  0  0  0  0  0
    0.7066    1.7347   -0.8027 H   0  0  0  0  0  0  0  0  0  0  0  0
    0.7179    1.7171    0.8294 H   0  0  0  0  0  0  0  0  0  0  0  0
   -0.7215    2.0852    0.0261 H   0  0  0  0  0  0  0  0  0  0  0  0
    0.0000    0.0000    0.0000 C   0  0  0  0  0  0  0  0  0  0  0  0
   -1.0889   -0.5531    0.0000 O   0  0  0  0  0  1  0  0  0  0  0  0
    1.0889   -0.6146   -0.0000 O   0  0  0  0  0  0  0  0  0  0  0  0
   -1.7820    1.3483   -3.4236 C   0  0  0  0  0  0  0  0  0  0  0  0
   -1.7683    1.1335   -4.4003 H   0  0  0  0  0  0  0  0  0  0  0  0
   -1.2598    2.1848   -3.2594 H   0  0  0  0  0  0  0  0  0  0  0  0
   -2.8140    1.5069   -3.1106 H   0  0  0  0  0  0  0  0  0  0  0  0
   -1.1365    0.2054   -2.6582 C   0  0  0  0  0  0  0  0  0  0  0  0
   -1.1554    0.4230   -1.6822 H   0  0  0  0  0  0  0  0  0  0  0  0
   -1.6629   -0.6292   -2.8236 H   0  0  0  0  0  0  0  0  0  0  0  0
    0.2964   -0.0346   -3.0747 C   0  0  0  0  0  0  0  0  0  0  0  0
    0.3221   -0.2566   -4.0497 H   0  0  0  0  0  0  0  0  0  0  0  0
    0.8299    0.7947   -2.9082 H   0  0  0  0  0  0  0  0  0  0  0  0
    0.7283   -0.8590   -2.5074 H   0  0  0  0  0  0  0  0  0  0  0  0
  1  5  1  0
  5  6  1  0
  5  7  2  0
  1  2  1  0
  1  3  1  0
  1  4  1  0
  8 12  1  0
 12 15  1  0
  8  9  1  0
  8 10  1  0
  8 11  1  0
 12 13  1  0
 12 14  1  0
 15 16  1  0
 15 17  1  0
 15 18  1  0
M  CHG  1   6  -1
M  END
>  <PDB_ID>  (1201) 
pdb3dbx

>  <RESIDUE_NAME>  (1201) 
GLU   LYS

>  <FRAG_NAME>  (1201) 
ACET   PRPA

>  <FRAG_ATOM_NUM>  (1201) 
fragi: 7  fragj: 11

>  <atom.prop.CHAIN_ID>  (1201) 
A A A A A A A Z Z Z Z Z Z Z Z Z Z Z

>  <atom.prop.IS_HEAVY_ATOM>  (1201) 
1 0 0 0 1 1 1 1 0 0 0 1 0 0 1 0 0 0

>  <DIFUSE_FUNC_ATOM>  (1201) 
atom 6   atom 7   

>  <FINAL_SINGLE_POINT_ENERGY>  (1201) 
0

>  <NONCOV_INTER_ENERGY_QM>  (1201) 
0

>  <FF_Energy>  (1201) 
30.69

>  <QM_Energy>  (1201) 
3.35

>  <source>  (1201) 
ACET_PRPA_12

>  <Index>  (1201) 
13870

$$$$
ACET-pdb1zjh-A-GLU-149:PRPA-pdb1zjh-A-LEU-122
     RDKit          3D

 18 16  0  0  0  0  0  0  0  0999 V2000
   -0.0038    1.5172    0.0012 C   0  0  0  0  0  0  0  0  0  0  0  0
    0.9325    1.8159    0.0209 H   0  0  0  0  0  0  0  0  0  0  0  0
   -0.5048    1.8109    0.7936 H   0  0  0  0  0  0  0  0  0  0  0  0
   -0.4803    1.9383   -0.8840 H   0  0  0  0  0  0  0  0  0  0  0  0
    0.0000    0.0000    0.0000 C   0  0  0  0  0  0  0  0  0  0  0  0
   -1.0986   -0.5934   -0.0000 O   0  0  0  0  0  1  0  0  0  0  0  0
    1.0986   -0.5983    0.0000 O   0  0  0  0  0  0  0  0  0  0  0  0
    3.3464    1.9617   -0.5297 C   0  0  0  0  0  0  0  0  0  0  0  0
    3.6587    1.5771   -1.3990 H   0  0  0  0  0  0  0  0  0  0  0  0
    3.8281    1.5123    0.2240 H   0  0  0  0  0  0  0  0  0  0  0  0
    2.3625    1.8052   -0.4333 H   0  0  0  0  0  0  0  0  0  0  0  0
    3.6315    3.4530   -0.5000 C   0  0  0  0  0  0  0  0  0  0  0  0
    3.3135    3.8362    0.3635 H   0  0  0  0  0  0  0  0  0  0  0  0
    3.1074    3.9439   -1.3201 H   0  0  0  0  0  0  0  0  0  0  0  0
    5.1240    3.7188   -0.6182 C   0  0  0  0  0  0  0  0  0  0  0  0
    5.2931    4.7048   -0.5777 H   0  0  0  0  0  0  0  0  0  0  0  0
    5.6056    3.2687    0.1347 H   0  0  0  0  0  0  0  0  0  0  0  0
    5.4607    3.3599   -1.4902 H   0  0  0  0  0  0  0  0  0  0  0  0
  1  5  1  0
  5  6  1  0
  5  7  2  0
  1  2  1  0
  1  3  1  0
  1  4  1  0
  8 12  1  0
 12 15  1  0
  8  9  1  0
  8 10  1  0
  8 11  1  0
 12 13  1  0
 12 14  1  0
 15 16  1  0
 15 17  1  0
 15 18  1  0
M  CHG  1   6  -1
M  END
>  <PDB_ID>  (1202) 
pdb1zjh

>  <RESIDUE_NAME>  (1202) 
GLU   LEU

>  <FRAG_NAME>  (1202) 
ACET   PRPA

>  <FRAG_ATOM_NUM>  (1202) 
fragi: 7  fragj: 11

>  <atom.prop.CHAIN_ID>  (1202) 
A A A A A A A Z Z Z Z Z Z Z Z Z Z Z

>  <atom.prop.IS_HEAVY_ATOM>  (1202) 
1 0 0 0 1 1 1 1 0 0 0 1 0 0 1 0 0 0

>  <DIFUSE_FUNC_ATOM>  (1202) 
atom 6   atom 7   

>  <FINAL_SINGLE_POINT_ENERGY>  (1202) 
0

>  <NONCOV_INTER_ENERGY_QM>  (1202) 
0

>  <FF_Energy>  (1202) 
25.84

>  <QM_Energy>  (1202) 
2.72

>  <source>  (1202) 
ACET_PRPA_12

>  <Index>  (1202) 
13996

$$$$
ACET-pdb1z10-B-GLU-353:PRPA-pdb1z10-B-ARG-346
     RDKit          3D

 18 16  0  0  0  0  0  0  0  0999 V2000
    0.0281    1.5376    0.0319 C   0  0  0  0  0  0  0  0  0  0  0  0
    0.8035    1.8201   -0.5134 H   0  0  0  0  0  0  0  0  0  0  0  0
    0.1432    1.8003    0.9790 H   0  0  0  0  0  0  0  0  0  0  0  0
   -0.8687    2.0178   -0.3592 H   0  0  0  0  0  0  0  0  0  0  0  0
    0.0000    0.0000    0.0000 C   0  0  0  0  0  0  0  0  0  0  0  0
   -1.1036   -0.6091   -0.0000 O   0  0  0  0  0  1  0  0  0  0  0  0
    1.1036   -0.6081    0.0000 O   0  0  0  0  0  0  0  0  0  0  0  0
   -0.0916   -2.1287   -4.0109 C   0  0  0  0  0  0  0  0  0  0  0  0
   -0.5977   -2.9990   -3.8861 H   0  0  0  0  0  0  0  0  0  0  0  0
    0.8060   -2.3619   -4.4234 H   0  0  0  0  0  0  0  0  0  0  0  0
   -0.6404   -1.5403   -4.7461 H   0  0  0  0  0  0  0  0  0  0  0  0
    0.1467   -1.5222   -2.6710 C   0  0  0  0  0  0  0  0  0  0  0  0
    0.7325   -0.7377   -2.7381 H   0  0  0  0  0  0  0  0  0  0  0  0
   -0.7008   -1.3212   -2.2198 H   0  0  0  0  0  0  0  0  0  0  0  0
    0.8861   -2.5738   -1.8051 C   0  0  0  0  0  0  0  0  0  0  0  0
    1.4274   -2.0865   -1.1430 H   0  0  0  0  0  0  0  0  0  0  0  0
    0.2028   -3.1410   -1.3788 H   0  0  0  0  0  0  0  0  0  0  0  0
    1.5337   -3.1851   -2.4336 H   0  0  0  0  0  0  0  0  0  0  0  0
  1  5  1  0
  5  6  1  0
  5  7  2  0
  1  2  1  0
  1  3  1  0
  1  4  1  0
  8 12  1  0
 12 15  1  0
  8  9  1  0
  8 10  1  0
  8 11  1  0
 12 13  1  0
 12 14  1  0
 15 16  1  0
 15 17  1  0
 15 18  1  0
M  CHG  1   6  -1
M  END
>  <PDB_ID>  (1203) 
pdb1z10

>  <RESIDUE_NAME>  (1203) 
GLU   ARG

>  <FRAG_NAME>  (1203) 
ACET   PRPA

>  <FRAG_ATOM_NUM>  (1203) 
fragi: 7  fragj: 11

>  <atom.prop.CHAIN_ID>  (1203) 
A A A A A A A Z Z Z Z Z Z Z Z Z Z Z

>  <atom.prop.IS_HEAVY_ATOM>  (1203) 
1 0 0 0 1 1 1 1 0 0 0 1 0 0 1 0 0 0

>  <DIFUSE_FUNC_ATOM>  (1203) 
atom 6   atom 7   

>  <FINAL_SINGLE_POINT_ENERGY>  (1203) 
0

>  <NONCOV_INTER_ENERGY_QM>  (1203) 
0

>  <FF_Energy>  (1203) 
20.14

>  <QM_Energy>  (1203) 
-0.31

>  <source>  (1203) 
ACET_PRPA_12

>  <Index>  (1203) 
14229

$$$$
ACET-pdb3cdx-F-ASP-266:PRPA-pdb3cdx-F-ARG-313
     RDKit          3D

 18 16  0  0  0  0  0  0  0  0999 V2000
    0.0265    1.4948    0.0248 C   0  0  0  0  0  0  0  0  0  0  0  0
    0.7815    1.8221   -0.5407 H   0  0  0  0  0  0  0  0  0  0  0  0
    0.1484    1.8086    0.9643 H   0  0  0  0  0  0  0  0  0  0  0  0
   -0.8868    1.9519   -0.3561 H   0  0  0  0  0  0  0  0  0  0  0  0
    0.0000    0.0000    0.0000 C   0  0  0  0  0  0  0  0  0  0  0  0
   -1.1086   -0.5809   -0.0000 O   0  0  0  0  0  1  0  0  0  0  0  0
    1.1086   -0.5921    0.0000 O   0  0  0  0  0  0  0  0  0  0  0  0
    1.4247    3.8242    3.6732 C   0  0  0  0  0  0  0  0  0  0  0  0
    0.6403    4.4129    3.4459 H   0  0  0  0  0  0  0  0  0  0  0  0
    2.2215    4.4131    3.8496 H   0  0  0  0  0  0  0  0  0  0  0  0
    1.1888    3.2945    4.5963 H   0  0  0  0  0  0  0  0  0  0  0  0
    1.7293    2.9653    2.4810 C   0  0  0  0  0  0  0  0  0  0  0  0
    2.3382    2.2227    2.7409 H   0  0  0  0  0  0  0  0  0  0  0  0
    0.8864    2.6020    2.0974 H   0  0  0  0  0  0  0  0  0  0  0  0
    2.4216    3.7802    1.3960 C   0  0  0  0  0  0  0  0  0  0  0  0
    2.1104    3.4441    0.5122 H   0  0  0  0  0  0  0  0  0  0  0  0
    2.1587    4.7340    1.5129 H   0  0  0  0  0  0  0  0  0  0  0  0
    3.5067    3.6947    1.4535 H   0  0  0  0  0  0  0  0  0  0  0  0
  1  5  1  0
  5  6  1  0
  5  7  2  0
  1  2  1  0
  1  3  1  0
  1  4  1  0
  8 12  1  0
 12 15  1  0
  8  9  1  0
  8 10  1  0
  8 11  1  0
 12 13  1  0
 12 14  1  0
 15 16  1  0
 15 17  1  0
 15 18  1  0
M  CHG  1   6  -1
M  END
>  <PDB_ID>  (1204) 
pdb3cdx

>  <RESIDUE_NAME>  (1204) 
ASP   ARG

>  <FRAG_NAME>  (1204) 
ACET   PRPA

>  <FRAG_ATOM_NUM>  (1204) 
fragi: 7  fragj: 11

>  <atom.prop.CHAIN_ID>  (1204) 
A A A A A A A Z Z Z Z Z Z Z Z Z Z Z

>  <atom.prop.IS_HEAVY_ATOM>  (1204) 
1 0 0 0 1 1 1 1 0 0 0 1 0 0 1 0 0 0

>  <DIFUSE_FUNC_ATOM>  (1204) 
atom 6   atom 7   

>  <FINAL_SINGLE_POINT_ENERGY>  (1204) 
0

>  <NONCOV_INTER_ENERGY_QM>  (1204) 
0

>  <FF_Energy>  (1204) 
21.1

>  <QM_Energy>  (1204) 
1.93

>  <source>  (1204) 
ACET_PRPA_12

>  <Index>  (1204) 
14740

$$$$
ACET-pdb1yp2-D-GLU-223:PRPA-pdb1yp2-D-LYS-219
     RDKit          3D

 18 16  0  0  0  0  0  0  0  0999 V2000
    0.0101    1.5138   -0.0019 C   0  0  0  0  0  0  0  0  0  0  0  0
   -0.4607    1.8141    0.8013 H   0  0  0  0  0  0  0  0  0  0  0  0
   -0.4192    1.8113   -0.8302 H   0  0  0  0  0  0  0  0  0  0  0  0
    1.0267    1.9060    0.0244 H   0  0  0  0  0  0  0  0  0  0  0  0
    0.0000    0.0000    0.0000 C   0  0  0  0  0  0  0  0  0  0  0  0
   -1.1022   -0.5914   -0.0000 O   0  0  0  0  0  1  0  0  0  0  0  0
    1.1022   -0.5994    0.0000 O   0  0  0  0  0  0  0  0  0  0  0  0
   -3.1083   -0.8494   -2.7880 C   0  0  0  0  0  0  0  0  0  0  0  0
   -3.4286   -1.7976   -2.7442 H   0  0  0  0  0  0  0  0  0  0  0  0
   -2.1693   -0.8016   -2.4443 H   0  0  0  0  0  0  0  0  0  0  0  0
   -3.1197   -0.5226   -3.8277 H   0  0  0  0  0  0  0  0  0  0  0  0
   -4.0014    0.0133   -1.9080 C   0  0  0  0  0  0  0  0  0  0  0  0
   -3.6916    0.9565   -1.9614 H   0  0  0  0  0  0  0  0  0  0  0  0
   -4.9400   -0.0616   -2.2281 H   0  0  0  0  0  0  0  0  0  0  0  0
   -3.9505   -0.4316   -0.4508 C   0  0  0  0  0  0  0  0  0  0  0  0
   -4.3074   -1.3690   -0.3847 H   0  0  0  0  0  0  0  0  0  0  0  0
   -2.9932   -0.4301   -0.1430 H   0  0  0  0  0  0  0  0  0  0  0  0
   -4.5336    0.2168    0.2030 H   0  0  0  0  0  0  0  0  0  0  0  0
  1  5  1  0
  5  6  1  0
  5  7  2  0
  1  2  1  0
  1  3  1  0
  1  4  1  0
  8 12  1  0
 12 15  1  0
  8  9  1  0
  8 10  1  0
  8 11  1  0
 12 13  1  0
 12 14  1  0
 15 16  1  0
 15 17  1  0
 15 18  1  0
M  CHG  1   6  -1
M  END
>  <PDB_ID>  (1205) 
pdb1yp2

>  <RESIDUE_NAME>  (1205) 
GLU   LYS

>  <FRAG_NAME>  (1205) 
ACET   PRPA

>  <FRAG_ATOM_NUM>  (1205) 
fragi: 7  fragj: 11

>  <atom.prop.CHAIN_ID>  (1205) 
A A A A A A A Z Z Z Z Z Z Z Z Z Z Z

>  <atom.prop.IS_HEAVY_ATOM>  (1205) 
1 0 0 0 1 1 1 1 0 0 0 1 0 0 1 0 0 0

>  <DIFUSE_FUNC_ATOM>  (1205) 
atom 6   atom 7   

>  <FINAL_SINGLE_POINT_ENERGY>  (1205) 
0

>  <NONCOV_INTER_ENERGY_QM>  (1205) 
0

>  <FF_Energy>  (1205) 
13.04

>  <QM_Energy>  (1205) 
-2.67

>  <source>  (1205) 
ACET_PRPA_12

>  <Index>  (1205) 
14768

$$$$
ACET-pdb1ztd-A-ASP-4:PRPA-pdb1ztd-A-LEU-7
     RDKit          3D

 18 16  0  0  0  0  0  0  0  0999 V2000
    0.0021    1.5163    0.0027 C   0  0  0  0  0  0  0  0  0  0  0  0
   -0.3283    1.8346    0.8830 H   0  0  0  0  0  0  0  0  0  0  0  0
   -0.5855    1.8386   -0.7290 H   0  0  0  0  0  0  0  0  0  0  0  0
    0.9969    1.9333   -0.1546 H   0  0  0  0  0  0  0  0  0  0  0  0
    0.0000    0.0000    0.0000 C   0  0  0  0  0  0  0  0  0  0  0  0
   -1.0981   -0.5951   -0.0000 O   0  0  0  0  0  1  0  0  0  0  0  0
    1.0981   -0.5974    0.0000 O   0  0  0  0  0  0  0  0  0  0  0  0
   -2.1948    1.8995   -3.2181 C   0  0  0  0  0  0  0  0  0  0  0  0
   -1.4188    2.0625   -2.6133 H   0  0  0  0  0  0  0  0  0  0  0  0
   -2.5301    2.7622   -3.5846 H   0  0  0  0  0  0  0  0  0  0  0  0
   -1.8423    1.2971   -4.0554 H   0  0  0  0  0  0  0  0  0  0  0  0
   -3.3157    1.2945   -2.3702 C   0  0  0  0  0  0  0  0  0  0  0  0
   -4.1381    1.2299   -2.9224 H   0  0  0  0  0  0  0  0  0  0  0  0
   -3.5300    1.9281   -1.5095 H   0  0  0  0  0  0  0  0  0  0  0  0
   -2.8908   -0.0843   -1.9204 C   0  0  0  0  0  0  0  0  0  0  0  0
   -2.0523   -0.0203   -1.3762 H   0  0  0  0  0  0  0  0  0  0  0  0
   -3.6131   -0.4975   -1.3629 H   0  0  0  0  0  0  0  0  0  0  0  0
   -2.7206   -0.6647   -2.7194 H   0  0  0  0  0  0  0  0  0  0  0  0
  1  5  1  0
  5  6  1  0
  5  7  2  0
  1  2  1  0
  1  3  1  0
  1  4  1  0
  8 12  1  0
 12 15  1  0
  8  9  1  0
  8 10  1  0
  8 11  1  0
 12 13  1  0
 12 14  1  0
 15 16  1  0
 15 17  1  0
 15 18  1  0
M  CHG  1   6  -1
M  END
>  <PDB_ID>  (1206) 
pdb1ztd

>  <RESIDUE_NAME>  (1206) 
ASP   LEU

>  <FRAG_NAME>  (1206) 
ACET   PRPA

>  <FRAG_ATOM_NUM>  (1206) 
fragi: 7  fragj: 11

>  <atom.prop.CHAIN_ID>  (1206) 
A A A A A A A Z Z Z Z Z Z Z Z Z Z Z

>  <atom.prop.IS_HEAVY_ATOM>  (1206) 
1 0 0 0 1 1 1 1 0 0 0 1 0 0 1 0 0 0

>  <DIFUSE_FUNC_ATOM>  (1206) 
atom 6   atom 7   

>  <FINAL_SINGLE_POINT_ENERGY>  (1206) 
0

>  <NONCOV_INTER_ENERGY_QM>  (1206) 
0

>  <FF_Energy>  (1206) 
36.06

>  <QM_Energy>  (1206) 
3.75

>  <source>  (1206) 
ACET_PRPA_12

>  <Index>  (1206) 
16948

$$$$
ACET-pdb1ztd-A-ASP-4:PRPA-pdb1ztd-A-LEU-7
     RDKit          3D

 18 16  0  0  0  0  0  0  0  0999 V2000
    0.0021    1.5163    0.0027 C   0  0  0  0  0  0  0  0  0  0  0  0
   -0.3283    1.8346    0.8830 H   0  0  0  0  0  0  0  0  0  0  0  0
   -0.5855    1.8386   -0.7290 H   0  0  0  0  0  0  0  0  0  0  0  0
    0.9969    1.9333   -0.1546 H   0  0  0  0  0  0  0  0  0  0  0  0
    0.0000    0.0000    0.0000 C   0  0  0  0  0  0  0  0  0  0  0  0
   -1.0981   -0.5951   -0.0000 O   0  0  0  0  0  1  0  0  0  0  0  0
    1.0981   -0.5974    0.0000 O   0  0  0  0  0  0  0  0  0  0  0  0
   -2.8908   -0.0843   -1.9204 C   0  0  0  0  0  0  0  0  0  0  0  0
   -2.0523   -0.0203   -1.3762 H   0  0  0  0  0  0  0  0  0  0  0  0
   -3.6131   -0.4975   -1.3629 H   0  0  0  0  0  0  0  0  0  0  0  0
   -2.7206   -0.6647   -2.7194 H   0  0  0  0  0  0  0  0  0  0  0  0
   -3.3157    1.2945   -2.3702 C   0  0  0  0  0  0  0  0  0  0  0  0
   -4.1381    1.2299   -2.9224 H   0  0  0  0  0  0  0  0  0  0  0  0
   -2.5173    1.7255   -2.9742 H   0  0  0  0  0  0  0  0  0  0  0  0
   -3.6178    2.1876   -1.1568 C   0  0  0  0  0  0  0  0  0  0  0  0
   -3.9012    3.0896   -1.4774 H   0  0  0  0  0  0  0  0  0  0  0  0
   -4.3509    1.7730   -0.6201 H   0  0  0  0  0  0  0  0  0  0  0  0
   -2.7944    2.2698   -0.5982 H   0  0  0  0  0  0  0  0  0  0  0  0
  1  5  1  0
  5  6  1  0
  5  7  2  0
  1  2  1  0
  1  3  1  0
  1  4  1  0
  8 12  1  0
 12 15  1  0
  8  9  1  0
  8 10  1  0
  8 11  1  0
 12 13  1  0
 12 14  1  0
 15 16  1  0
 15 17  1  0
 15 18  1  0
M  CHG  1   6  -1
M  END
>  <PDB_ID>  (1207) 
pdb1ztd

>  <RESIDUE_NAME>  (1207) 
ASP   LEU

>  <FRAG_NAME>  (1207) 
ACET   PRPA

>  <FRAG_ATOM_NUM>  (1207) 
fragi: 7  fragj: 11

>  <atom.prop.CHAIN_ID>  (1207) 
A A A A A A A Z Z Z Z Z Z Z Z Z Z Z

>  <atom.prop.IS_HEAVY_ATOM>  (1207) 
1 0 0 0 1 1 1 1 0 0 0 1 0 0 1 0 0 0

>  <DIFUSE_FUNC_ATOM>  (1207) 
atom 6   atom 7   

>  <FINAL_SINGLE_POINT_ENERGY>  (1207) 
0

>  <NONCOV_INTER_ENERGY_QM>  (1207) 
0

>  <FF_Energy>  (1207) 
35.79

>  <QM_Energy>  (1207) 
3.45

>  <source>  (1207) 
ACET_PRPA_12

>  <Index>  (1207) 
16954

$$$$
ACET-pdb3db2-A-ASP-139:PRPA-pdb3db2-A-LYS-135
     RDKit          3D

 18 16  0  0  0  0  0  0  0  0999 V2000
    0.0129    1.5148   -0.0088 C   0  0  0  0  0  0  0  0  0  0  0  0
    0.4650    1.8273   -0.8380 H   0  0  0  0  0  0  0  0  0  0  0  0
    0.5025    1.8374    0.7933 H   0  0  0  0  0  0  0  0  0  0  0  0
   -0.9858    1.9508    0.0119 H   0  0  0  0  0  0  0  0  0  0  0  0
    0.0000    0.0000    0.0000 C   0  0  0  0  0  0  0  0  0  0  0  0
   -1.0884   -0.6155   -0.0000 O   0  0  0  0  0  1  0  0  0  0  0  0
    1.0884   -0.6216   -0.0000 O   0  0  0  0  0  0  0  0  0  0  0  0
    1.5391   -1.6530   -3.4834 C   0  0  0  0  0  0  0  0  0  0  0  0
    2.2481   -2.3601   -3.4320 H   0  0  0  0  0  0  0  0  0  0  0  0
    1.8150   -0.8695   -2.9227 H   0  0  0  0  0  0  0  0  0  0  0  0
    1.4347   -1.3299   -4.5192 H   0  0  0  0  0  0  0  0  0  0  0  0
    0.2406   -2.2195   -2.9305 C   0  0  0  0  0  0  0  0  0  0  0  0
   -0.4133   -1.4844   -2.8220 H   0  0  0  0  0  0  0  0  0  0  0  0
   -0.0999   -2.9138   -3.5476 H   0  0  0  0  0  0  0  0  0  0  0  0
    0.4774   -2.8618   -1.5636 C   0  0  0  0  0  0  0  0  0  0  0  0
    1.2563   -3.4892   -1.6315 H   0  0  0  0  0  0  0  0  0  0  0  0
    0.6964   -2.1406   -0.9012 H   0  0  0  0  0  0  0  0  0  0  0  0
   -0.3953   -3.4136   -1.2142 H   0  0  0  0  0  0  0  0  0  0  0  0
  1  5  1  0
  5  6  1  0
  5  7  2  0
  1  2  1  0
  1  3  1  0
  1  4  1  0
  8 12  1  0
 12 15  1  0
  8  9  1  0
  8 10  1  0
  8 11  1  0
 12 13  1  0
 12 14  1  0
 15 16  1  0
 15 17  1  0
 15 18  1  0
M  CHG  1   6  -1
M  END
>  <PDB_ID>  (1208) 
pdb3db2

>  <RESIDUE_NAME>  (1208) 
ASP   LYS

>  <FRAG_NAME>  (1208) 
ACET   PRPA

>  <FRAG_ATOM_NUM>  (1208) 
fragi: 7  fragj: 11

>  <atom.prop.CHAIN_ID>  (1208) 
A A A A A A A Z Z Z Z Z Z Z Z Z Z Z

>  <atom.prop.IS_HEAVY_ATOM>  (1208) 
1 0 0 0 1 1 1 1 0 0 0 1 0 0 1 0 0 0

>  <DIFUSE_FUNC_ATOM>  (1208) 
atom 6   atom 7   

>  <FINAL_SINGLE_POINT_ENERGY>  (1208) 
0

>  <NONCOV_INTER_ENERGY_QM>  (1208) 
0

>  <FF_Energy>  (1208) 
27.7

>  <QM_Energy>  (1208) 
-1.08

>  <source>  (1208) 
ACET_PRPA_12

>  <Index>  (1208) 
17244

$$$$
ACET-pdb3ddh-A-GLU-150:PRPA-pdb3ddh-A-LEU-163
     RDKit          3D

 18 16  0  0  0  0  0  0  0  0999 V2000
    0.0750    1.5234    0.0311 C   0  0  0  0  0  0  0  0  0  0  0  0
    0.5160    1.8097   -0.8060 H   0  0  0  0  0  0  0  0  0  0  0  0
    0.6146    1.7712    0.8225 H   0  0  0  0  0  0  0  0  0  0  0  0
   -0.8937    2.0183    0.1005 H   0  0  0  0  0  0  0  0  0  0  0  0
    0.0000    0.0000    0.0000 C   0  0  0  0  0  0  0  0  0  0  0  0
   -1.1305   -0.6124    0.0000 O   0  0  0  0  0  1  0  0  0  0  0  0
    1.1305   -0.5647   -0.0000 O   0  0  0  0  0  0  0  0  0  0  0  0
    2.2853    0.5278   -3.5459 C   0  0  0  0  0  0  0  0  0  0  0  0
    2.4974    0.7012   -2.5777 H   0  0  0  0  0  0  0  0  0  0  0  0
    3.0965    0.7467   -4.0975 H   0  0  0  0  0  0  0  0  0  0  0  0
    2.0899   -0.5391   -3.6545 H   0  0  0  0  0  0  0  0  0  0  0  0
    1.1866    1.5012   -3.9493 C   0  0  0  0  0  0  0  0  0  0  0  0
    1.0134    1.4126   -4.9294 H   0  0  0  0  0  0  0  0  0  0  0  0
    1.5457    2.5140   -3.7666 H   0  0  0  0  0  0  0  0  0  0  0  0
   -0.0918    1.1994   -3.1830 C   0  0  0  0  0  0  0  0  0  0  0  0
    0.0779    1.2873   -2.2009 H   0  0  0  0  0  0  0  0  0  0  0  0
   -0.8065    1.8443   -3.4561 H   0  0  0  0  0  0  0  0  0  0  0  0
   -0.3916    0.2667   -3.3864 H   0  0  0  0  0  0  0  0  0  0  0  0
  1  5  1  0
  5  6  1  0
  5  7  2  0
  1  2  1  0
  1  3  1  0
  1  4  1  0
  8 12  1  0
 12 15  1  0
  8  9  1  0
  8 10  1  0
  8 11  1  0
 12 13  1  0
 12 14  1  0
 15 16  1  0
 15 17  1  0
 15 18  1  0
M  CHG  1   6  -1
M  END
>  <PDB_ID>  (1209) 
pdb3ddh

>  <RESIDUE_NAME>  (1209) 
GLU   LEU

>  <FRAG_NAME>  (1209) 
ACET   PRPA

>  <FRAG_ATOM_NUM>  (1209) 
fragi: 7  fragj: 11

>  <atom.prop.CHAIN_ID>  (1209) 
A A A A A A A Z Z Z Z Z Z Z Z Z Z Z

>  <atom.prop.IS_HEAVY_ATOM>  (1209) 
1 0 0 0 1 1 1 1 0 0 0 1 0 0 1 0 0 0

>  <DIFUSE_FUNC_ATOM>  (1209) 
atom 6   atom 7   

>  <FINAL_SINGLE_POINT_ENERGY>  (1209) 
0

>  <NONCOV_INTER_ENERGY_QM>  (1209) 
0

>  <FF_Energy>  (1209) 
21.45

>  <QM_Energy>  (1209) 
1.92

>  <source>  (1209) 
ACET_PRPA_12

>  <Index>  (1209) 
17292

$$$$
ACET-pdb3ddh-A-GLU-150:PRPA-pdb3ddh-A-LEU-163
     RDKit          3D

 18 16  0  0  0  0  0  0  0  0999 V2000
    0.0750    1.5234    0.0311 C   0  0  0  0  0  0  0  0  0  0  0  0
    0.5160    1.8097   -0.8060 H   0  0  0  0  0  0  0  0  0  0  0  0
    0.6146    1.7712    0.8225 H   0  0  0  0  0  0  0  0  0  0  0  0
   -0.8937    2.0183    0.1005 H   0  0  0  0  0  0  0  0  0  0  0  0
    0.0000    0.0000    0.0000 C   0  0  0  0  0  0  0  0  0  0  0  0
   -1.1305   -0.6124    0.0000 O   0  0  0  0  0  1  0  0  0  0  0  0
    1.1305   -0.5647   -0.0000 O   0  0  0  0  0  0  0  0  0  0  0  0
   -0.0918    1.1994   -3.1830 C   0  0  0  0  0  0  0  0  0  0  0  0
    0.0779    1.2873   -2.2009 H   0  0  0  0  0  0  0  0  0  0  0  0
   -0.8065    1.8443   -3.4561 H   0  0  0  0  0  0  0  0  0  0  0  0
   -0.3916    0.2667   -3.3864 H   0  0  0  0  0  0  0  0  0  0  0  0
    1.1866    1.5012   -3.9493 C   0  0  0  0  0  0  0  0  0  0  0  0
    1.0134    1.4126   -4.9294 H   0  0  0  0  0  0  0  0  0  0  0  0
    1.9732    0.8043   -3.6605 H   0  0  0  0  0  0  0  0  0  0  0  0
    1.6882    2.9159   -3.6941 C   0  0  0  0  0  0  0  0  0  0  0  0
    2.5113    3.0821   -4.2379 H   0  0  0  0  0  0  0  0  0  0  0  0
    0.9797    3.5738   -3.9532 H   0  0  0  0  0  0  0  0  0  0  0  0
    1.9038    3.0245   -2.7225 H   0  0  0  0  0  0  0  0  0  0  0  0
  1  5  1  0
  5  6  1  0
  5  7  2  0
  1  2  1  0
  1  3  1  0
  1  4  1  0
  8 12  1  0
 12 15  1  0
  8  9  1  0
  8 10  1  0
  8 11  1  0
 12 13  1  0
 12 14  1  0
 15 16  1  0
 15 17  1  0
 15 18  1  0
M  CHG  1   6  -1
M  END
>  <PDB_ID>  (1210) 
pdb3ddh

>  <RESIDUE_NAME>  (1210) 
GLU   LEU

>  <FRAG_NAME>  (1210) 
ACET   PRPA

>  <FRAG_ATOM_NUM>  (1210) 
fragi: 7  fragj: 11

>  <atom.prop.CHAIN_ID>  (1210) 
A A A A A A A Z Z Z Z Z Z Z Z Z Z Z

>  <atom.prop.IS_HEAVY_ATOM>  (1210) 
1 0 0 0 1 1 1 1 0 0 0 1 0 0 1 0 0 0

>  <DIFUSE_FUNC_ATOM>  (1210) 
atom 6   atom 7   

>  <FINAL_SINGLE_POINT_ENERGY>  (1210) 
0

>  <NONCOV_INTER_ENERGY_QM>  (1210) 
0

>  <FF_Energy>  (1210) 
21.45

>  <QM_Energy>  (1210) 
2.36

>  <source>  (1210) 
ACET_PRPA_12

>  <Index>  (1210) 
17316

$$$$
ACET-pdb3d9s-A-GLU-234:PRPA-pdb3d9s-A-LEU-230
     RDKit          3D

 18 16  0  0  0  0  0  0  0  0999 V2000
   -0.0038    1.5237    0.0274 C   0  0  0  0  0  0  0  0  0  0  0  0
   -0.9093    1.8131    0.2090 H   0  0  0  0  0  0  0  0  0  0  0  0
    0.3630    1.8337   -0.8135 H   0  0  0  0  0  0  0  0  0  0  0  0
    0.6387    1.8734    0.8355 H   0  0  0  0  0  0  0  0  0  0  0  0
    0.0000    0.0000    0.0000 C   0  0  0  0  0  0  0  0  0  0  0  0
   -1.1056   -0.5788    0.0000 O   0  0  0  0  0  1  0  0  0  0  0  0
    1.1056   -0.5896    0.0000 O   0  0  0  0  0  0  0  0  0  0  0  0
   -2.4337   -1.2315   -2.3549 C   0  0  0  0  0  0  0  0  0  0  0  0
   -1.9900   -0.8821   -1.5400 H   0  0  0  0  0  0  0  0  0  0  0  0
   -2.8237   -2.1269   -2.1919 H   0  0  0  0  0  0  0  0  0  0  0  0
   -3.2511   -0.5541   -2.6018 H   0  0  0  0  0  0  0  0  0  0  0  0
   -1.3620   -1.3818   -3.4364 C   0  0  0  0  0  0  0  0  0  0  0  0
   -1.7876   -1.2612   -4.3344 H   0  0  0  0  0  0  0  0  0  0  0  0
   -0.9517   -2.3915   -3.4322 H   0  0  0  0  0  0  0  0  0  0  0  0
   -0.2603   -0.3470   -3.2571 C   0  0  0  0  0  0  0  0  0  0  0  0
    0.1683   -0.4670   -2.3611 H   0  0  0  0  0  0  0  0  0  0  0  0
    0.4281   -0.4640   -3.9735 H   0  0  0  0  0  0  0  0  0  0  0  0
   -0.6511    0.5716   -3.3179 H   0  0  0  0  0  0  0  0  0  0  0  0
  1  5  1  0
  5  6  1  0
  5  7  2  0
  1  2  1  0
  1  3  1  0
  1  4  1  0
  8 12  1  0
 12 15  1  0
  8  9  1  0
  8 10  1  0
  8 11  1  0
 12 13  1  0
 12 14  1  0
 15 16  1  0
 15 17  1  0
 15 18  1  0
M  CHG  1   6  -1
M  END
>  <PDB_ID>  (1211) 
pdb3d9s

>  <RESIDUE_NAME>  (1211) 
GLU   LEU

>  <FRAG_NAME>  (1211) 
ACET   PRPA

>  <FRAG_ATOM_NUM>  (1211) 
fragi: 7  fragj: 11

>  <atom.prop.CHAIN_ID>  (1211) 
A A A A A A A Z Z Z Z Z Z Z Z Z Z Z

>  <atom.prop.IS_HEAVY_ATOM>  (1211) 
1 0 0 0 1 1 1 1 0 0 0 1 0 0 1 0 0 0

>  <DIFUSE_FUNC_ATOM>  (1211) 
atom 6   atom 7   

>  <FINAL_SINGLE_POINT_ENERGY>  (1211) 
0

>  <NONCOV_INTER_ENERGY_QM>  (1211) 
0

>  <FF_Energy>  (1211) 
29.19

>  <QM_Energy>  (1211) 
-0.37

>  <source>  (1211) 
ACET_PRPA_12

>  <Index>  (1211) 
17765

$$$$
ACET-pdb3d9s-A-GLU-234:PRPA-pdb3d9s-A-LEU-230
     RDKit          3D

 18 16  0  0  0  0  0  0  0  0999 V2000
   -0.0038    1.5237    0.0274 C   0  0  0  0  0  0  0  0  0  0  0  0
   -0.9093    1.8131    0.2090 H   0  0  0  0  0  0  0  0  0  0  0  0
    0.3630    1.8337   -0.8135 H   0  0  0  0  0  0  0  0  0  0  0  0
    0.6387    1.8734    0.8355 H   0  0  0  0  0  0  0  0  0  0  0  0
    0.0000    0.0000    0.0000 C   0  0  0  0  0  0  0  0  0  0  0  0
   -1.1056   -0.5788    0.0000 O   0  0  0  0  0  1  0  0  0  0  0  0
    1.1056   -0.5896    0.0000 O   0  0  0  0  0  0  0  0  0  0  0  0
   -3.5900   -0.2734   -2.7041 C   0  0  0  0  0  0  0  0  0  0  0  0
   -4.3415   -0.4270   -2.0167 H   0  0  0  0  0  0  0  0  0  0  0  0
   -3.9698   -0.5583   -3.6853 H   0  0  0  0  0  0  0  0  0  0  0  0
   -3.2389    0.7531   -2.5995 H   0  0  0  0  0  0  0  0  0  0  0  0
   -2.4337   -1.2315   -2.3549 C   0  0  0  0  0  0  0  0  0  0  0  0
   -1.9900   -0.8821   -1.5400 H   0  0  0  0  0  0  0  0  0  0  0  0
   -2.8237   -2.1269   -2.1919 H   0  0  0  0  0  0  0  0  0  0  0  0
   -1.3620   -1.3818   -3.4364 C   0  0  0  0  0  0  0  0  0  0  0  0
   -1.7876   -1.2612   -4.3344 H   0  0  0  0  0  0  0  0  0  0  0  0
   -0.5730   -0.6408   -3.3080 H   0  0  0  0  0  0  0  0  0  0  0  0
   -0.9517   -2.3915   -3.4322 H   0  0  0  0  0  0  0  0  0  0  0  0
  1  5  1  0
  5  6  1  0
  5  7  2  0
  1  2  1  0
  1  3  1  0
  1  4  1  0
  8 12  1  0
 12 15  1  0
  8  9  1  0
  8 10  1  0
  8 11  1  0
 12 13  1  0
 12 14  1  0
 15 16  1  0
 15 17  1  0
 15 18  1  0
M  CHG  1   6  -1
M  END
>  <PDB_ID>  (1212) 
pdb3d9s

>  <RESIDUE_NAME>  (1212) 
GLU   LEU

>  <FRAG_NAME>  (1212) 
ACET   PRPA

>  <FRAG_ATOM_NUM>  (1212) 
fragi: 7  fragj: 11

>  <atom.prop.CHAIN_ID>  (1212) 
A A A A A A A Z Z Z Z Z Z Z Z Z Z Z

>  <atom.prop.IS_HEAVY_ATOM>  (1212) 
1 0 0 0 1 1 1 1 0 0 0 1 0 0 1 0 0 0

>  <DIFUSE_FUNC_ATOM>  (1212) 
atom 6   atom 7   

>  <FINAL_SINGLE_POINT_ENERGY>  (1212) 
0

>  <NONCOV_INTER_ENERGY_QM>  (1212) 
0

>  <FF_Energy>  (1212) 
31.44

>  <QM_Energy>  (1212) 
-0.24

>  <source>  (1212) 
ACET_PRPA_12

>  <Index>  (1212) 
17779

$$$$
ACET-pdb3d9s-A-GLU-234:PRPA-pdb3d9s-A-LEU-230
     RDKit          3D

 18 16  0  0  0  0  0  0  0  0999 V2000
   -0.0038    1.5237    0.0274 C   0  0  0  0  0  0  0  0  0  0  0  0
   -0.9093    1.8131    0.2090 H   0  0  0  0  0  0  0  0  0  0  0  0
    0.3630    1.8337   -0.8135 H   0  0  0  0  0  0  0  0  0  0  0  0
    0.6387    1.8734    0.8355 H   0  0  0  0  0  0  0  0  0  0  0  0
    0.0000    0.0000    0.0000 C   0  0  0  0  0  0  0  0  0  0  0  0
   -1.1056   -0.5788    0.0000 O   0  0  0  0  0  1  0  0  0  0  0  0
    1.1056   -0.5896    0.0000 O   0  0  0  0  0  0  0  0  0  0  0  0
   -2.4337   -1.2315   -2.3549 C   0  0  0  0  0  0  0  0  0  0  0  0
   -1.9900   -0.8821   -1.5400 H   0  0  0  0  0  0  0  0  0  0  0  0
   -2.8237   -2.1269   -2.1919 H   0  0  0  0  0  0  0  0  0  0  0  0
   -3.2511   -0.5541   -2.6018 H   0  0  0  0  0  0  0  0  0  0  0  0
   -1.3620   -1.3818   -3.4364 C   0  0  0  0  0  0  0  0  0  0  0  0
   -1.7876   -1.2612   -4.3344 H   0  0  0  0  0  0  0  0  0  0  0  0
   -0.5730   -0.6408   -3.3080 H   0  0  0  0  0  0  0  0  0  0  0  0
   -0.7875   -2.7955   -3.4305 C   0  0  0  0  0  0  0  0  0  0  0  0
   -1.5202   -3.4523   -3.6063 H   0  0  0  0  0  0  0  0  0  0  0  0
   -0.0901   -2.8741   -4.1433 H   0  0  0  0  0  0  0  0  0  0  0  0
   -0.3763   -2.9837   -2.5379 H   0  0  0  0  0  0  0  0  0  0  0  0
  1  5  1  0
  5  6  1  0
  5  7  2  0
  1  2  1  0
  1  3  1  0
  1  4  1  0
  8 12  1  0
 12 15  1  0
  8  9  1  0
  8 10  1  0
  8 11  1  0
 12 13  1  0
 12 14  1  0
 15 16  1  0
 15 17  1  0
 15 18  1  0
M  CHG  1   6  -1
M  END
>  <PDB_ID>  (1213) 
pdb3d9s

>  <RESIDUE_NAME>  (1213) 
GLU   LEU

>  <FRAG_NAME>  (1213) 
ACET   PRPA

>  <FRAG_ATOM_NUM>  (1213) 
fragi: 7  fragj: 11

>  <atom.prop.CHAIN_ID>  (1213) 
A A A A A A A Z Z Z Z Z Z Z Z Z Z Z

>  <atom.prop.IS_HEAVY_ATOM>  (1213) 
1 0 0 0 1 1 1 1 0 0 0 1 0 0 1 0 0 0

>  <DIFUSE_FUNC_ATOM>  (1213) 
atom 6   atom 7   

>  <FINAL_SINGLE_POINT_ENERGY>  (1213) 
0

>  <NONCOV_INTER_ENERGY_QM>  (1213) 
0

>  <FF_Energy>  (1213) 
27.29

>  <QM_Energy>  (1213) 
-0.19

>  <source>  (1213) 
ACET_PRPA_12

>  <Index>  (1213) 
17782

$$$$
ACET-pdb1zvw-A-ASP-149:PRPA-pdb1zvw-A-ARG-139
     RDKit          3D

 18 16  0  0  0  0  0  0  0  0999 V2000
    0.0115    1.5273    0.0069 C   0  0  0  0  0  0  0  0  0  0  0  0
    0.9488    1.8354    0.1247 H   0  0  0  0  0  0  0  0  0  0  0  0
   -0.5555    1.8450    0.7589 H   0  0  0  0  0  0  0  0  0  0  0  0
   -0.3739    1.9647   -0.9141 H   0  0  0  0  0  0  0  0  0  0  0  0
    0.0000    0.0000    0.0000 C   0  0  0  0  0  0  0  0  0  0  0  0
   -1.1211   -0.5990   -0.0000 O   0  0  0  0  0  1  0  0  0  0  0  0
    1.1211   -0.6081   -0.0000 O   0  0  0  0  0  0  0  0  0  0  0  0
   -0.3300   -3.2591   -1.8631 C   0  0  0  0  0  0  0  0  0  0  0  0
   -0.3487   -4.2364   -1.9325 H   0  0  0  0  0  0  0  0  0  0  0  0
   -0.4179   -2.9417   -0.9408 H   0  0  0  0  0  0  0  0  0  0  0  0
    0.6069   -2.8894   -2.2797 H   0  0  0  0  0  0  0  0  0  0  0  0
   -1.5234   -2.7102   -2.6634 C   0  0  0  0  0  0  0  0  0  0  0  0
   -1.2304   -1.9267   -3.1991 H   0  0  0  0  0  0  0  0  0  0  0  0
   -1.8791   -3.4238   -3.2562 H   0  0  0  0  0  0  0  0  0  0  0  0
   -2.6735   -2.2477   -1.7399 C   0  0  0  0  0  0  0  0  0  0  0  0
   -3.1747   -3.0713   -1.4494 H   0  0  0  0  0  0  0  0  0  0  0  0
   -2.2536   -1.8281   -0.9271 H   0  0  0  0  0  0  0  0  0  0  0  0
   -3.3733   -1.5414   -2.1866 H   0  0  0  0  0  0  0  0  0  0  0  0
  1  5  1  0
  5  6  1  0
  5  7  2  0
  1  2  1  0
  1  3  1  0
  1  4  1  0
  8 12  1  0
 12 15  1  0
  8  9  1  0
  8 10  1  0
  8 11  1  0
 12 13  1  0
 12 14  1  0
 15 16  1  0
 15 17  1  0
 15 18  1  0
M  CHG  1   6  -1
M  END
>  <PDB_ID>  (1214) 
pdb1zvw

>  <RESIDUE_NAME>  (1214) 
ASP   ARG

>  <FRAG_NAME>  (1214) 
ACET   PRPA

>  <FRAG_ATOM_NUM>  (1214) 
fragi: 7  fragj: 11

>  <atom.prop.CHAIN_ID>  (1214) 
A A A A A A A Z Z Z Z Z Z Z Z Z Z Z

>  <atom.prop.IS_HEAVY_ATOM>  (1214) 
1 0 0 0 1 1 1 1 0 0 0 1 0 0 1 0 0 0

>  <DIFUSE_FUNC_ATOM>  (1214) 
atom 6   atom 7   

>  <FINAL_SINGLE_POINT_ENERGY>  (1214) 
0

>  <NONCOV_INTER_ENERGY_QM>  (1214) 
0

>  <FF_Energy>  (1214) 
12.87

>  <QM_Energy>  (1214) 
-2.95

>  <source>  (1214) 
ACET_PRPA_12

>  <Index>  (1214) 
20979

$$$$
ACET-pdb3doe-A-GLU-16:PRPA-pdb3doe-A-LYS-13
     RDKit          3D

 18 16  0  0  0  0  0  0  0  0999 V2000
    0.0119    1.5168   -0.0272 C   0  0  0  0  0  0  0  0  0  0  0  0
    0.8264    1.8134    0.4322 H   0  0  0  0  0  0  0  0  0  0  0  0
   -0.8061    1.8253    0.4179 H   0  0  0  0  0  0  0  0  0  0  0  0
    0.0249    1.9088   -1.0442 H   0  0  0  0  0  0  0  0  0  0  0  0
    0.0000    0.0000    0.0000 C   0  0  0  0  0  0  0  0  0  0  0  0
   -1.0960   -0.6015   -0.0000 O   0  0  0  0  0  1  0  0  0  0  0  0
    1.0960   -0.5947   -0.0000 O   0  0  0  0  0  0  0  0  0  0  0  0
   -3.9572    1.8271    1.8685 C   0  0  0  0  0  0  0  0  0  0  0  0
   -3.8563    2.7427    2.2516 H   0  0  0  0  0  0  0  0  0  0  0  0
   -4.5219    1.2686    2.4733 H   0  0  0  0  0  0  0  0  0  0  0  0
   -4.4721    1.9153    0.9118 H   0  0  0  0  0  0  0  0  0  0  0  0
   -2.5863    1.1936    1.7680 C   0  0  0  0  0  0  0  0  0  0  0  0
   -2.6510    0.3578    1.2071 H   0  0  0  0  0  0  0  0  0  0  0  0
   -1.9601    1.8343    1.3064 H   0  0  0  0  0  0  0  0  0  0  0  0
   -1.9967    0.8263    3.1188 C   0  0  0  0  0  0  0  0  0  0  0  0
   -1.0212    0.6691    3.0201 H   0  0  0  0  0  0  0  0  0  0  0  0
   -2.1700    1.5599    3.7644 H   0  0  0  0  0  0  0  0  0  0  0  0
   -2.4446   -0.0842    3.5167 H   0  0  0  0  0  0  0  0  0  0  0  0
  1  5  1  0
  5  6  1  0
  5  7  2  0
  1  2  1  0
  1  3  1  0
  1  4  1  0
  8 12  1  0
 12 15  1  0
  8  9  1  0
  8 10  1  0
  8 11  1  0
 12 13  1  0
 12 14  1  0
 15 16  1  0
 15 17  1  0
 15 18  1  0
M  CHG  1   6  -1
M  END
>  <PDB_ID>  (1215) 
pdb3doe

>  <RESIDUE_NAME>  (1215) 
GLU   LYS

>  <FRAG_NAME>  (1215) 
ACET   PRPA

>  <FRAG_ATOM_NUM>  (1215) 
fragi: 7  fragj: 11

>  <atom.prop.CHAIN_ID>  (1215) 
A A A A A A A Z Z Z Z Z Z Z Z Z Z Z

>  <atom.prop.IS_HEAVY_ATOM>  (1215) 
1 0 0 0 1 1 1 1 0 0 0 1 0 0 1 0 0 0

>  <DIFUSE_FUNC_ATOM>  (1215) 
atom 6   atom 7   

>  <FINAL_SINGLE_POINT_ENERGY>  (1215) 
0

>  <NONCOV_INTER_ENERGY_QM>  (1215) 
0

>  <FF_Energy>  (1215) 
48.21

>  <QM_Energy>  (1215) 
4.46

>  <source>  (1215) 
ACET_PRPA_12

>  <Index>  (1215) 
21298

$$$$
ACET-pdb3doe-A-GLU-16:PRPA-pdb3doe-A-LYS-13
     RDKit          3D

 18 16  0  0  0  0  0  0  0  0999 V2000
    0.0119    1.5168   -0.0272 C   0  0  0  0  0  0  0  0  0  0  0  0
    0.8264    1.8134    0.4322 H   0  0  0  0  0  0  0  0  0  0  0  0
   -0.8061    1.8253    0.4179 H   0  0  0  0  0  0  0  0  0  0  0  0
    0.0249    1.9088   -1.0442 H   0  0  0  0  0  0  0  0  0  0  0  0
    0.0000    0.0000    0.0000 C   0  0  0  0  0  0  0  0  0  0  0  0
   -1.0960   -0.6015   -0.0000 O   0  0  0  0  0  1  0  0  0  0  0  0
    1.0960   -0.5947   -0.0000 O   0  0  0  0  0  0  0  0  0  0  0  0
   -2.5863    1.1936    1.7680 C   0  0  0  0  0  0  0  0  0  0  0  0
   -2.6510    0.3578    1.2071 H   0  0  0  0  0  0  0  0  0  0  0  0
   -1.9601    1.8343    1.3064 H   0  0  0  0  0  0  0  0  0  0  0  0
   -3.5736    1.6498    1.8403 H   0  0  0  0  0  0  0  0  0  0  0  0
   -1.9967    0.8263    3.1188 C   0  0  0  0  0  0  0  0  0  0  0  0
   -1.0212    0.6691    3.0201 H   0  0  0  0  0  0  0  0  0  0  0  0
   -2.1700    1.5599    3.7644 H   0  0  0  0  0  0  0  0  0  0  0  0
   -2.6316   -0.4644    3.6829 C   0  0  0  0  0  0  0  0  0  0  0  0
   -3.6158   -0.3205    3.7659 H   0  0  0  0  0  0  0  0  0  0  0  0
   -2.4520   -1.2087    3.0425 H   0  0  0  0  0  0  0  0  0  0  0  0
   -2.2147   -0.7131    4.6588 H   0  0  0  0  0  0  0  0  0  0  0  0
  1  5  1  0
  5  6  1  0
  5  7  2  0
  1  2  1  0
  1  3  1  0
  1  4  1  0
  8 12  1  0
 12 15  1  0
  8  9  1  0
  8 10  1  0
  8 11  1  0
 12 13  1  0
 12 14  1  0
 15 16  1  0
 15 17  1  0
 15 18  1  0
M  CHG  1   6  -1
M  END
>  <PDB_ID>  (1216) 
pdb3doe

>  <RESIDUE_NAME>  (1216) 
GLU   LYS

>  <FRAG_NAME>  (1216) 
ACET   PRPA

>  <FRAG_ATOM_NUM>  (1216) 
fragi: 7  fragj: 11

>  <atom.prop.CHAIN_ID>  (1216) 
A A A A A A A Z Z Z Z Z Z Z Z Z Z Z

>  <atom.prop.IS_HEAVY_ATOM>  (1216) 
1 0 0 0 1 1 1 1 0 0 0 1 0 0 1 0 0 0

>  <DIFUSE_FUNC_ATOM>  (1216) 
atom 6   atom 7   

>  <FINAL_SINGLE_POINT_ENERGY>  (1216) 
0

>  <NONCOV_INTER_ENERGY_QM>  (1216) 
0

>  <FF_Energy>  (1216) 
42.77

>  <QM_Energy>  (1216) 
3.41

>  <source>  (1216) 
ACET_PRPA_12

>  <Index>  (1216) 
21306

$$$$
ACET-pdb3dli-A-GLU-314:PRPA-pdb3dli-A-LYS-318
     RDKit          3D

 18 16  0  0  0  0  0  0  0  0999 V2000
    0.0082    1.5341   -0.0238 C   0  0  0  0  0  0  0  0  0  0  0  0
   -0.2029    1.8129   -0.9420 H   0  0  0  0  0  0  0  0  0  0  0  0
    0.9040    1.8253    0.2567 H   0  0  0  0  0  0  0  0  0  0  0  0
   -0.7248    1.9824    0.6468 H   0  0  0  0  0  0  0  0  0  0  0  0
    0.0000    0.0000    0.0000 C   0  0  0  0  0  0  0  0  0  0  0  0
   -1.0956   -0.6114   -0.0000 O   0  0  0  0  0  1  0  0  0  0  0  0
    1.0956   -0.5935   -0.0000 O   0  0  0  0  0  0  0  0  0  0  0  0
    3.9352   -0.9816    1.0600 C   0  0  0  0  0  0  0  0  0  0  0  0
    4.0742   -1.9090    0.7034 H   0  0  0  0  0  0  0  0  0  0  0  0
    2.9566   -0.8423    1.2339 H   0  0  0  0  0  0  0  0  0  0  0  0
    4.4829   -0.8742    1.9963 H   0  0  0  0  0  0  0  0  0  0  0  0
    4.3894    0.0214   -0.0038 C   0  0  0  0  0  0  0  0  0  0  0  0
    4.2947    0.9371    0.3610 H   0  0  0  0  0  0  0  0  0  0  0  0
    5.3299   -0.1713   -0.2439 H   0  0  0  0  0  0  0  0  0  0  0  0
    3.5310   -0.0948   -1.2623 C   0  0  0  0  0  0  0  0  0  0  0  0
    3.6300   -1.0295   -1.6348 H   0  0  0  0  0  0  0  0  0  0  0  0
    2.5617    0.0308   -1.0040 H   0  0  0  0  0  0  0  0  0  0  0  0
    3.7873    0.6256   -2.0390 H   0  0  0  0  0  0  0  0  0  0  0  0
  1  5  1  0
  5  6  1  0
  5  7  2  0
  1  2  1  0
  1  3  1  0
  1  4  1  0
  8 12  1  0
 12 15  1  0
  8  9  1  0
  8 10  1  0
  8 11  1  0
 12 13  1  0
 12 14  1  0
 15 16  1  0
 15 17  1  0
 15 18  1  0
M  CHG  1   6  -1
M  END
>  <PDB_ID>  (1217) 
pdb3dli

>  <RESIDUE_NAME>  (1217) 
GLU   LYS

>  <FRAG_NAME>  (1217) 
ACET   PRPA

>  <FRAG_ATOM_NUM>  (1217) 
fragi: 7  fragj: 11

>  <atom.prop.CHAIN_ID>  (1217) 
A A A A A A A Z Z Z Z Z Z Z Z Z Z Z

>  <atom.prop.IS_HEAVY_ATOM>  (1217) 
1 0 0 0 1 1 1 1 0 0 0 1 0 0 1 0 0 0

>  <DIFUSE_FUNC_ATOM>  (1217) 
atom 6   atom 7   

>  <FINAL_SINGLE_POINT_ENERGY>  (1217) 
0

>  <NONCOV_INTER_ENERGY_QM>  (1217) 
0

>  <FF_Energy>  (1217) 
17.93

>  <QM_Energy>  (1217) 
-0.81

>  <source>  (1217) 
ACET_PRPA_12

>  <Index>  (1217) 
21898

$$$$
ACET-pdb1zxm-A-ASP-196:PRPA-pdb1zxm-A-ARG-200
     RDKit          3D

 18 16  0  0  0  0  0  0  0  0999 V2000
   -0.0059    1.5175    0.0123 C   0  0  0  0  0  0  0  0  0  0  0  0
    0.8072    1.8439   -0.4517 H   0  0  0  0  0  0  0  0  0  0  0  0
   -0.0250    1.8298    0.9522 H   0  0  0  0  0  0  0  0  0  0  0  0
   -0.8753    1.9312   -0.4988 H   0  0  0  0  0  0  0  0  0  0  0  0
    0.0000    0.0000    0.0000 C   0  0  0  0  0  0  0  0  0  0  0  0
   -1.0946   -0.5860    0.0000 O   0  0  0  0  0  1  0  0  0  0  0  0
    1.0946   -0.6063   -0.0000 O   0  0  0  0  0  0  0  0  0  0  0  0
    3.7563    0.9707   -2.6814 C   0  0  0  0  0  0  0  0  0  0  0  0
    2.7541    0.8863   -2.7740 H   0  0  0  0  0  0  0  0  0  0  0  0
    4.1826    0.3037   -3.3081 H   0  0  0  0  0  0  0  0  0  0  0  0
    4.0365    1.9684   -3.0195 H   0  0  0  0  0  0  0  0  0  0  0  0
    4.1321    0.5993   -1.2731 C   0  0  0  0  0  0  0  0  0  0  0  0
    5.1116    0.5535   -1.1841 H   0  0  0  0  0  0  0  0  0  0  0  0
    3.7336    1.2368   -0.6367 H   0  0  0  0  0  0  0  0  0  0  0  0
    3.5644   -0.7806   -0.9761 C   0  0  0  0  0  0  0  0  0  0  0  0
    3.9970   -1.1191   -0.1542 H   0  0  0  0  0  0  0  0  0  0  0  0
    2.5870   -0.6899   -0.8574 H   0  0  0  0  0  0  0  0  0  0  0  0
    3.7745   -1.4535   -1.8075 H   0  0  0  0  0  0  0  0  0  0  0  0
  1  5  1  0
  5  6  1  0
  5  7  2  0
  1  2  1  0
  1  3  1  0
  1  4  1  0
  8 12  1  0
 12 15  1  0
  8  9  1  0
  8 10  1  0
  8 11  1  0
 12 13  1  0
 12 14  1  0
 15 16  1  0
 15 17  1  0
 15 18  1  0
M  CHG  1   6  -1
M  END
>  <PDB_ID>  (1218) 
pdb1zxm

>  <RESIDUE_NAME>  (1218) 
ASP   ARG

>  <FRAG_NAME>  (1218) 
ACET   PRPA

>  <FRAG_ATOM_NUM>  (1218) 
fragi: 7  fragj: 11

>  <atom.prop.CHAIN_ID>  (1218) 
A A A A A A A Z Z Z Z Z Z Z Z Z Z Z

>  <atom.prop.IS_HEAVY_ATOM>  (1218) 
1 0 0 0 1 1 1 1 0 0 0 1 0 0 1 0 0 0

>  <DIFUSE_FUNC_ATOM>  (1218) 
atom 6   atom 7   

>  <FINAL_SINGLE_POINT_ENERGY>  (1218) 
0

>  <NONCOV_INTER_ENERGY_QM>  (1218) 
0

>  <FF_Energy>  (1218) 
48.27

>  <QM_Energy>  (1218) 
1.95

>  <source>  (1218) 
ACET_PRPA_12

>  <Index>  (1218) 
22738

$$$$
ACET-pdb3dhu-A-ASP-142:PRPA-pdb3dhu-A-LYS-133
     RDKit          3D

 18 16  0  0  0  0  0  0  0  0999 V2000
    0.0601    1.5399   -0.0151 C   0  0  0  0  0  0  0  0  0  0  0  0
    0.6506    1.8208   -0.7650 H   0  0  0  0  0  0  0  0  0  0  0  0
    0.4355    1.8463    0.8530 H   0  0  0  0  0  0  0  0  0  0  0  0
   -0.9097    2.0182   -0.1516 H   0  0  0  0  0  0  0  0  0  0  0  0
    0.0000    0.0000    0.0000 C   0  0  0  0  0  0  0  0  0  0  0  0
   -1.0981   -0.6066   -0.0000 O   0  0  0  0  0  1  0  0  0  0  0  0
    1.0981   -0.6148   -0.0000 O   0  0  0  0  0  0  0  0  0  0  0  0
    2.7168   -3.7263   -1.3576 C   0  0  0  0  0  0  0  0  0  0  0  0
    3.5783   -3.5924   -1.8865 H   0  0  0  0  0  0  0  0  0  0  0  0
    1.9575   -3.0623   -1.7707 H   0  0  0  0  0  0  0  0  0  0  0  0
    2.4589   -4.7851   -1.3811 H   0  0  0  0  0  0  0  0  0  0  0  0
    3.0187   -3.3333    0.1009 C   0  0  0  0  0  0  0  0  0  0  0  0
    2.1714   -3.4226    0.6241 H   0  0  0  0  0  0  0  0  0  0  0  0
    3.6987   -3.9759    0.4570 H   0  0  0  0  0  0  0  0  0  0  0  0
    3.5496   -1.9200    0.2808 C   0  0  0  0  0  0  0  0  0  0  0  0
    4.4004   -1.8236   -0.2387 H   0  0  0  0  0  0  0  0  0  0  0  0
    2.8729   -1.2706   -0.0697 H   0  0  0  0  0  0  0  0  0  0  0  0
    3.7470   -1.6948    1.3288 H   0  0  0  0  0  0  0  0  0  0  0  0
  1  5  1  0
  5  6  1  0
  5  7  2  0
  1  2  1  0
  1  3  1  0
  1  4  1  0
  8 12  1  0
 12 15  1  0
  8  9  1  0
  8 10  1  0
  8 11  1  0
 12 13  1  0
 12 14  1  0
 15 16  1  0
 15 17  1  0
 15 18  1  0
M  CHG  1   6  -1
M  END
>  <PDB_ID>  (1219) 
pdb3dhu

>  <RESIDUE_NAME>  (1219) 
ASP   LYS

>  <FRAG_NAME>  (1219) 
ACET   PRPA

>  <FRAG_ATOM_NUM>  (1219) 
fragi: 7  fragj: 11

>  <atom.prop.CHAIN_ID>  (1219) 
A A A A A A A Z Z Z Z Z Z Z Z Z Z Z

>  <atom.prop.IS_HEAVY_ATOM>  (1219) 
1 0 0 0 1 1 1 1 0 0 0 1 0 0 1 0 0 0

>  <DIFUSE_FUNC_ATOM>  (1219) 
atom 6   atom 7   

>  <FINAL_SINGLE_POINT_ENERGY>  (1219) 
0

>  <NONCOV_INTER_ENERGY_QM>  (1219) 
0

>  <FF_Energy>  (1219) 
15.5

>  <QM_Energy>  (1219) 
-1.95

>  <source>  (1219) 
ACET_PRPA_12

>  <Index>  (1219) 
24331

$$$$
ACET-pdb3dhu-A-ASP-142:PRPA-pdb3dhu-A-LYS-133
     RDKit          3D

 18 16  0  0  0  0  0  0  0  0999 V2000
    0.0601    1.5399   -0.0151 C   0  0  0  0  0  0  0  0  0  0  0  0
    0.6506    1.8208   -0.7650 H   0  0  0  0  0  0  0  0  0  0  0  0
    0.4355    1.8463    0.8530 H   0  0  0  0  0  0  0  0  0  0  0  0
   -0.9097    2.0182   -0.1516 H   0  0  0  0  0  0  0  0  0  0  0  0
    0.0000    0.0000    0.0000 C   0  0  0  0  0  0  0  0  0  0  0  0
   -1.0981   -0.6066   -0.0000 O   0  0  0  0  0  1  0  0  0  0  0  0
    1.0981   -0.6148   -0.0000 O   0  0  0  0  0  0  0  0  0  0  0  0
    3.5496   -1.9200    0.2808 C   0  0  0  0  0  0  0  0  0  0  0  0
    4.4004   -1.8236   -0.2387 H   0  0  0  0  0  0  0  0  0  0  0  0
    2.8729   -1.2706   -0.0697 H   0  0  0  0  0  0  0  0  0  0  0  0
    3.1689   -2.9333    0.1518 H   0  0  0  0  0  0  0  0  0  0  0  0
    3.8240   -1.6068    1.7383 C   0  0  0  0  0  0  0  0  0  0  0  0
    2.9719   -1.7061    2.2551 H   0  0  0  0  0  0  0  0  0  0  0  0
    4.5001   -2.2581    2.0873 H   0  0  0  0  0  0  0  0  0  0  0  0
    4.3536   -0.2054    1.9444 C   0  0  0  0  0  0  0  0  0  0  0  0
    5.2080   -0.0998    1.4351 H   0  0  0  0  0  0  0  0  0  0  0  0
    3.6816    0.4524    1.6041 H   0  0  0  0  0  0  0  0  0  0  0  0
    4.5396   -0.0142    3.0013 H   0  0  0  0  0  0  0  0  0  0  0  0
  1  5  1  0
  5  6  1  0
  5  7  2  0
  1  2  1  0
  1  3  1  0
  1  4  1  0
  8 12  1  0
 12 15  1  0
  8  9  1  0
  8 10  1  0
  8 11  1  0
 12 13  1  0
 12 14  1  0
 15 16  1  0
 15 17  1  0
 15 18  1  0
M  CHG  1   6  -1
M  END
>  <PDB_ID>  (1220) 
pdb3dhu

>  <RESIDUE_NAME>  (1220) 
ASP   LYS

>  <FRAG_NAME>  (1220) 
ACET   PRPA

>  <FRAG_ATOM_NUM>  (1220) 
fragi: 7  fragj: 11

>  <atom.prop.CHAIN_ID>  (1220) 
A A A A A A A Z Z Z Z Z Z Z Z Z Z Z

>  <atom.prop.IS_HEAVY_ATOM>  (1220) 
1 0 0 0 1 1 1 1 0 0 0 1 0 0 1 0 0 0

>  <DIFUSE_FUNC_ATOM>  (1220) 
atom 6   atom 7   

>  <FINAL_SINGLE_POINT_ENERGY>  (1220) 
0

>  <NONCOV_INTER_ENERGY_QM>  (1220) 
0

>  <FF_Energy>  (1220) 
15.23

>  <QM_Energy>  (1220) 
-1.76

>  <source>  (1220) 
ACET_PRPA_12

>  <Index>  (1220) 
24352

$$$$
ACET-pdb1zsv-C-GLU-258:PRPA-pdb1zsv-D-LYS-55
     RDKit          3D

 18 16  0  0  0  0  0  0  0  0999 V2000
    0.1713    1.4801    0.0138 C   0  0  0  0  0  0  0  0  0  0  0  0
    0.6932    1.7373   -0.8035 H   0  0  0  0  0  0  0  0  0  0  0  0
    0.7050    1.7199    0.8288 H   0  0  0  0  0  0  0  0  0  0  0  0
   -0.7382    2.0810    0.0255 H   0  0  0  0  0  0  0  0  0  0  0  0
    0.0000    0.0000    0.0000 C   0  0  0  0  0  0  0  0  0  0  0  0
   -1.0892   -0.5615    0.0000 O   0  0  0  0  0  1  0  0  0  0  0  0
    1.0892   -0.6086    0.0000 O   0  0  0  0  0  0  0  0  0  0  0  0
    0.3361   -5.2337   -1.5410 C   0  0  0  0  0  0  0  0  0  0  0  0
   -0.0797   -5.8373   -0.8424 H   0  0  0  0  0  0  0  0  0  0  0  0
    1.1048   -5.7397   -1.9618 H   0  0  0  0  0  0  0  0  0  0  0  0
   -0.4073   -5.0159   -2.3079 H   0  0  0  0  0  0  0  0  0  0  0  0
    0.9234   -3.9944   -0.8106 C   0  0  0  0  0  0  0  0  0  0  0  0
    1.6596   -4.3069   -0.2058 H   0  0  0  0  0  0  0  0  0  0  0  0
    1.3061   -3.3755   -1.4999 H   0  0  0  0  0  0  0  0  0  0  0  0
   -0.0958   -3.1994    0.0401 C   0  0  0  0  0  0  0  0  0  0  0  0
    0.1193   -2.2048   -0.0502 H   0  0  0  0  0  0  0  0  0  0  0  0
   -1.0228   -3.3253   -0.3705 H   0  0  0  0  0  0  0  0  0  0  0  0
   -0.1597   -3.4376    1.1018 H   0  0  0  0  0  0  0  0  0  0  0  0
  1  5  1  0
  5  6  1  0
  5  7  2  0
  1  2  1  0
  1  3  1  0
  1  4  1  0
  8 12  1  0
 12 15  1  0
  8  9  1  0
  8 10  1  0
  8 11  1  0
 12 13  1  0
 12 14  1  0
 15 16  1  0
 15 17  1  0
 15 18  1  0
M  CHG  1   6  -1
M  END
>  <PDB_ID>  (1221) 
pdb1zsv

>  <RESIDUE_NAME>  (1221) 
GLU   LYS

>  <FRAG_NAME>  (1221) 
ACET   PRPA

>  <FRAG_ATOM_NUM>  (1221) 
fragi: 7  fragj: 11

>  <atom.prop.CHAIN_ID>  (1221) 
A A A A A A A Z Z Z Z Z Z Z Z Z Z Z

>  <atom.prop.IS_HEAVY_ATOM>  (1221) 
1 0 0 0 1 1 1 1 0 0 0 1 0 0 1 0 0 0

>  <DIFUSE_FUNC_ATOM>  (1221) 
atom 6   atom 7   

>  <FINAL_SINGLE_POINT_ENERGY>  (1221) 
0

>  <NONCOV_INTER_ENERGY_QM>  (1221) 
0

>  <FF_Energy>  (1221) 
28.73

>  <QM_Energy>  (1221) 
3.44

>  <source>  (1221) 
ACET_PRPA_12

>  <Index>  (1221) 
26237

$$$$
ACET-pdb3dfh-C-GLU-210:PRPA-pdb3dfh-C-PRO-238
     RDKit          3D

 18 16  0  0  0  0  0  0  0  0999 V2000
    0.0123    1.5517    0.0029 C   0  0  0  0  0  0  0  0  0  0  0  0
   -0.8536    1.8412    0.3560 H   0  0  0  0  0  0  0  0  0  0  0  0
    0.1620    1.8345   -0.9222 H   0  0  0  0  0  0  0  0  0  0  0  0
    0.8019    1.9664    0.6295 H   0  0  0  0  0  0  0  0  0  0  0  0
    0.0000    0.0000    0.0000 C   0  0  0  0  0  0  0  0  0  0  0  0
   -1.1031   -0.5958   -0.0000 O   0  0  0  0  0  1  0  0  0  0  0  0
    1.1031   -0.6124    0.0000 O   0  0  0  0  0  0  0  0  0  0  0  0
   -2.7467   -1.4504    2.5891 C   0  0  0  0  0  0  0  0  0  0  0  0
   -3.1287   -0.8570    1.8380 H   0  0  0  0  0  0  0  0  0  0  0  0
   -2.0411   -0.8887    3.2012 H   0  0  0  0  0  0  0  0  0  0  0  0
   -3.5695   -1.9377    3.1121 H   0  0  0  0  0  0  0  0  0  0  0  0
   -1.8499   -2.4904    1.8609 C   0  0  0  0  0  0  0  0  0  0  0  0
   -2.2917   -3.3688    1.8002 H   0  0  0  0  0  0  0  0  0  0  0  0
   -1.5595   -2.1634    0.9794 H   0  0  0  0  0  0  0  0  0  0  0  0
   -0.5873   -2.6114    2.8099 C   0  0  0  0  0  0  0  0  0  0  0  0
   -0.8003   -3.2481    3.5307 H   0  0  0  0  0  0  0  0  0  0  0  0
    0.1788   -2.9113    2.2685 H   0  0  0  0  0  0  0  0  0  0  0  0
   -0.4618   -1.5936    3.1790 H   0  0  0  0  0  0  0  0  0  0  0  0
  1  5  1  0
  5  6  1  0
  5  7  2  0
  1  2  1  0
  1  3  1  0
  1  4  1  0
  8 12  1  0
 12 15  1  0
  8  9  1  0
  8 10  1  0
  8 11  1  0
 12 13  1  0
 12 14  1  0
 15 16  1  0
 15 17  1  0
 15 18  1  0
M  CHG  1   6  -1
M  END
>  <PDB_ID>  (1222) 
pdb3dfh

>  <RESIDUE_NAME>  (1222) 
GLU   PRO

>  <FRAG_NAME>  (1222) 
ACET   PRPA

>  <FRAG_ATOM_NUM>  (1222) 
fragi: 7  fragj: 11

>  <atom.prop.CHAIN_ID>  (1222) 
A A A A A A A Z Z Z Z Z Z Z Z Z Z Z

>  <atom.prop.IS_HEAVY_ATOM>  (1222) 
1 0 0 0 1 1 1 1 0 0 0 1 0 0 1 0 0 0

>  <DIFUSE_FUNC_ATOM>  (1222) 
atom 6   atom 7   

>  <FINAL_SINGLE_POINT_ENERGY>  (1222) 
0

>  <NONCOV_INTER_ENERGY_QM>  (1222) 
0

>  <FF_Energy>  (1222) 
16.5

>  <QM_Energy>  (1222) 
-2.6

>  <source>  (1222) 
ACET_PRPA_12

>  <Index>  (1222) 
27499

$$$$
ACET-pdb3dzo-A-GLU-249:PRPA-pdb3dzo-A-LEU-333
     RDKit          3D

 18 16  0  0  0  0  0  0  0  0999 V2000
    0.2213    1.5093    0.0163 C   0  0  0  0  0  0  0  0  0  0  0  0
    0.7294    1.7404   -0.8002 H   0  0  0  0  0  0  0  0  0  0  0  0
    0.7406    1.7212    0.8323 H   0  0  0  0  0  0  0  0  0  0  0  0
   -0.6927    2.1030    0.0285 H   0  0  0  0  0  0  0  0  0  0  0  0
    0.0000    0.0000    0.0000 C   0  0  0  0  0  0  0  0  0  0  0  0
   -1.0873   -0.5319   -0.0000 O   0  0  0  0  0  1  0  0  0  0  0  0
    1.0873   -0.6180    0.0000 O   0  0  0  0  0  0  0  0  0  0  0  0
   -5.0905    0.9997   -1.6306 C   0  0  0  0  0  0  0  0  0  0  0  0
   -5.6079    0.9311   -2.5066 H   0  0  0  0  0  0  0  0  0  0  0  0
   -4.2478    1.5339   -1.8325 H   0  0  0  0  0  0  0  0  0  0  0  0
   -5.6939    1.5911   -0.9419 H   0  0  0  0  0  0  0  0  0  0  0  0
   -4.6312   -0.4305   -1.2805 C   0  0  0  0  0  0  0  0  0  0  0  0
   -4.5564   -0.9599   -2.1331 H   0  0  0  0  0  0  0  0  0  0  0  0
   -5.3770   -1.0029   -0.7289 H   0  0  0  0  0  0  0  0  0  0  0  0
   -3.2917   -0.4503   -0.5532 C   0  0  0  0  0  0  0  0  0  0  0  0
   -3.3683    0.0663    0.2992 H   0  0  0  0  0  0  0  0  0  0  0  0
   -3.0378   -1.3960   -0.3488 H   0  0  0  0  0  0  0  0  0  0  0  0
   -2.5913   -0.0347   -1.1336 H   0  0  0  0  0  0  0  0  0  0  0  0
  1  5  1  0
  5  6  1  0
  5  7  2  0
  1  2  1  0
  1  3  1  0
  1  4  1  0
  8 12  1  0
 12 15  1  0
  8  9  1  0
  8 10  1  0
  8 11  1  0
 12 13  1  0
 12 14  1  0
 15 16  1  0
 15 17  1  0
 15 18  1  0
M  CHG  1   6  -1
M  END
>  <PDB_ID>  (1223) 
pdb3dzo

>  <RESIDUE_NAME>  (1223) 
GLU   LEU

>  <FRAG_NAME>  (1223) 
ACET   PRPA

>  <FRAG_ATOM_NUM>  (1223) 
fragi: 7  fragj: 11

>  <atom.prop.CHAIN_ID>  (1223) 
A A A A A A A Z Z Z Z Z Z Z Z Z Z Z

>  <atom.prop.IS_HEAVY_ATOM>  (1223) 
1 0 0 0 1 1 1 1 0 0 0 1 0 0 1 0 0 0

>  <DIFUSE_FUNC_ATOM>  (1223) 
atom 6   atom 7   

>  <FINAL_SINGLE_POINT_ENERGY>  (1223) 
0

>  <NONCOV_INTER_ENERGY_QM>  (1223) 
0

>  <FF_Energy>  (1223) 
46.29

>  <QM_Energy>  (1223) 
11.89

>  <source>  (1223) 
ACET_PRPA_12

>  <Index>  (1223) 
27514

$$$$
ACET-pdb3dzo-A-GLU-249:PRPA-pdb3dzo-A-LEU-333
     RDKit          3D

 18 16  0  0  0  0  0  0  0  0999 V2000
    0.2213    1.5093    0.0163 C   0  0  0  0  0  0  0  0  0  0  0  0
    0.7294    1.7404   -0.8002 H   0  0  0  0  0  0  0  0  0  0  0  0
    0.7406    1.7212    0.8323 H   0  0  0  0  0  0  0  0  0  0  0  0
   -0.6927    2.1030    0.0285 H   0  0  0  0  0  0  0  0  0  0  0  0
    0.0000    0.0000    0.0000 C   0  0  0  0  0  0  0  0  0  0  0  0
   -1.0873   -0.5319   -0.0000 O   0  0  0  0  0  1  0  0  0  0  0  0
    1.0873   -0.6180    0.0000 O   0  0  0  0  0  0  0  0  0  0  0  0
   -3.2917   -0.4503   -0.5532 C   0  0  0  0  0  0  0  0  0  0  0  0
   -3.3683    0.0663    0.2992 H   0  0  0  0  0  0  0  0  0  0  0  0
   -3.0378   -1.3960   -0.3488 H   0  0  0  0  0  0  0  0  0  0  0  0
   -2.5913   -0.0347   -1.1336 H   0  0  0  0  0  0  0  0  0  0  0  0
   -4.6312   -0.4305   -1.2805 C   0  0  0  0  0  0  0  0  0  0  0  0
   -4.5564   -0.9599   -2.1331 H   0  0  0  0  0  0  0  0  0  0  0  0
   -4.9558    0.5802   -1.5279 H   0  0  0  0  0  0  0  0  0  0  0  0
   -5.6789   -1.2345   -0.5057 C   0  0  0  0  0  0  0  0  0  0  0  0
   -6.5096   -1.3107   -1.0564 H   0  0  0  0  0  0  0  0  0  0  0  0
   -5.3189   -2.1460   -0.3121 H   0  0  0  0  0  0  0  0  0  0  0  0
   -5.8857   -0.7657    0.3522 H   0  0  0  0  0  0  0  0  0  0  0  0
  1  5  1  0
  5  6  1  0
  5  7  2  0
  1  2  1  0
  1  3  1  0
  1  4  1  0
  8 12  1  0
 12 15  1  0
  8  9  1  0
  8 10  1  0
  8 11  1  0
 12 13  1  0
 12 14  1  0
 15 16  1  0
 15 17  1  0
 15 18  1  0
M  CHG  1   6  -1
M  END
>  <PDB_ID>  (1224) 
pdb3dzo

>  <RESIDUE_NAME>  (1224) 
GLU   LEU

>  <FRAG_NAME>  (1224) 
ACET   PRPA

>  <FRAG_ATOM_NUM>  (1224) 
fragi: 7  fragj: 11

>  <atom.prop.CHAIN_ID>  (1224) 
A A A A A A A Z Z Z Z Z Z Z Z Z Z Z

>  <atom.prop.IS_HEAVY_ATOM>  (1224) 
1 0 0 0 1 1 1 1 0 0 0 1 0 0 1 0 0 0

>  <DIFUSE_FUNC_ATOM>  (1224) 
atom 6   atom 7   

>  <FINAL_SINGLE_POINT_ENERGY>  (1224) 
0

>  <NONCOV_INTER_ENERGY_QM>  (1224) 
0

>  <FF_Energy>  (1224) 
46.26

>  <QM_Energy>  (1224) 
12.28

>  <source>  (1224) 
ACET_PRPA_12

>  <Index>  (1224) 
27529

$$$$
ACET-pdb3dza-D-GLU-214:PRPA-pdb3dza-A-LYS-110
     RDKit          3D

 18 16  0  0  0  0  0  0  0  0999 V2000
    0.0271    1.5373   -0.0075 C   0  0  0  0  0  0  0  0  0  0  0  0
    0.7873    1.8150   -0.5776 H   0  0  0  0  0  0  0  0  0  0  0  0
    0.1571    1.8333    0.9290 H   0  0  0  0  0  0  0  0  0  0  0  0
   -0.8710    2.0221   -0.3903 H   0  0  0  0  0  0  0  0  0  0  0  0
    0.0000    0.0000    0.0000 C   0  0  0  0  0  0  0  0  0  0  0  0
   -1.1015   -0.6081   -0.0000 O   0  0  0  0  0  1  0  0  0  0  0  0
    1.1015   -0.6012   -0.0000 O   0  0  0  0  0  0  0  0  0  0  0  0
   -0.9979   -3.8357   -1.8226 C   0  0  0  0  0  0  0  0  0  0  0  0
   -0.5328   -3.8894   -2.7030 H   0  0  0  0  0  0  0  0  0  0  0  0
   -1.3099   -2.9021   -1.6611 H   0  0  0  0  0  0  0  0  0  0  0  0
   -1.8464   -4.5197   -1.8084 H   0  0  0  0  0  0  0  0  0  0  0  0
    0.0161   -4.1989   -0.7225 C   0  0  0  0  0  0  0  0  0  0  0  0
   -0.4256   -4.8246   -0.0860 H   0  0  0  0  0  0  0  0  0  0  0  0
    0.7981   -4.6437   -1.1523 H   0  0  0  0  0  0  0  0  0  0  0  0
    0.4995   -2.9811    0.0370 C   0  0  0  0  0  0  0  0  0  0  0  0
    0.9394   -2.3513   -0.6008 H   0  0  0  0  0  0  0  0  0  0  0  0
   -0.2825   -2.5327    0.4661 H   0  0  0  0  0  0  0  0  0  0  0  0
    1.2138   -3.2753    0.8059 H   0  0  0  0  0  0  0  0  0  0  0  0
  1  5  1  0
  5  6  1  0
  5  7  2  0
  1  2  1  0
  1  3  1  0
  1  4  1  0
  8 12  1  0
 12 15  1  0
  8  9  1  0
  8 10  1  0
  8 11  1  0
 12 13  1  0
 12 14  1  0
 15 16  1  0
 15 17  1  0
 15 18  1  0
M  CHG  1   6  -1
M  END
>  <PDB_ID>  (1225) 
pdb3dza

>  <RESIDUE_NAME>  (1225) 
GLU   LYS

>  <FRAG_NAME>  (1225) 
ACET   PRPA

>  <FRAG_ATOM_NUM>  (1225) 
fragi: 7  fragj: 11

>  <atom.prop.CHAIN_ID>  (1225) 
A A A A A A A Z Z Z Z Z Z Z Z Z Z Z

>  <atom.prop.IS_HEAVY_ATOM>  (1225) 
1 0 0 0 1 1 1 1 0 0 0 1 0 0 1 0 0 0

>  <DIFUSE_FUNC_ATOM>  (1225) 
atom 6   atom 7   

>  <FINAL_SINGLE_POINT_ENERGY>  (1225) 
0

>  <NONCOV_INTER_ENERGY_QM>  (1225) 
0

>  <FF_Energy>  (1225) 
36.51

>  <QM_Energy>  (1225) 
9.11

>  <source>  (1225) 
ACET_PRPA_12

>  <Index>  (1225) 
27968

$$$$
ACET-pdb3dkb-A-ASP-6343:PRPA-pdb3dkb-A-LYS-6337
     RDKit          3D

 18 16  0  0  0  0  0  0  0  0999 V2000
    0.0216    1.5233   -0.0054 C   0  0  0  0  0  0  0  0  0  0  0  0
   -0.5314    1.8479    0.7492 H   0  0  0  0  0  0  0  0  0  0  0  0
   -0.3367    1.8398   -0.8712 H   0  0  0  0  0  0  0  0  0  0  0  0
    1.0319    1.9147    0.1136 H   0  0  0  0  0  0  0  0  0  0  0  0
    0.0000    0.0000    0.0000 C   0  0  0  0  0  0  0  0  0  0  0  0
   -1.0970   -0.5942   -0.0000 O   0  0  0  0  0  1  0  0  0  0  0  0
    1.0970   -0.6083    0.0000 O   0  0  0  0  0  0  0  0  0  0  0  0
   -5.5039    0.7650    0.0345 C   0  0  0  0  0  0  0  0  0  0  0  0
   -5.9903    0.6391   -0.8317 H   0  0  0  0  0  0  0  0  0  0  0  0
   -5.4223    1.7438    0.2282 H   0  0  0  0  0  0  0  0  0  0  0  0
   -6.0653    0.2841    0.8357 H   0  0  0  0  0  0  0  0  0  0  0  0
   -4.0994    0.1788   -0.1081 C   0  0  0  0  0  0  0  0  0  0  0  0
   -4.0005   -0.5757    0.5258 H   0  0  0  0  0  0  0  0  0  0  0  0
   -3.9684   -0.1193   -1.0430 H   0  0  0  0  0  0  0  0  0  0  0  0
   -3.0350    1.2314    0.2194 C   0  0  0  0  0  0  0  0  0  0  0  0
   -2.1210    0.8439    0.0001 H   0  0  0  0  0  0  0  0  0  0  0  0
   -3.1721    2.0300   -0.3951 H   0  0  0  0  0  0  0  0  0  0  0  0
   -3.0272    1.5822    1.2514 H   0  0  0  0  0  0  0  0  0  0  0  0
  1  5  1  0
  5  6  1  0
  5  7  2  0
  1  2  1  0
  1  3  1  0
  1  4  1  0
  8 12  1  0
 12 15  1  0
  8  9  1  0
  8 10  1  0
  8 11  1  0
 12 13  1  0
 12 14  1  0
 15 16  1  0
 15 17  1  0
 15 18  1  0
M  CHG  1   6  -1
M  END
>  <PDB_ID>  (1226) 
pdb3dkb

>  <RESIDUE_NAME>  (1226) 
ASP   LYS

>  <FRAG_NAME>  (1226) 
ACET   PRPA

>  <FRAG_ATOM_NUM>  (1226) 
fragi: 7  fragj: 11

>  <atom.prop.CHAIN_ID>  (1226) 
A A A A A A A Z Z Z Z Z Z Z Z Z Z Z

>  <atom.prop.IS_HEAVY_ATOM>  (1226) 
1 0 0 0 1 1 1 1 0 0 0 1 0 0 1 0 0 0

>  <DIFUSE_FUNC_ATOM>  (1226) 
atom 6   atom 7   

>  <FINAL_SINGLE_POINT_ENERGY>  (1226) 
0

>  <NONCOV_INTER_ENERGY_QM>  (1226) 
0

>  <FF_Energy>  (1226) 
47.46

>  <QM_Energy>  (1226) 
6.01

>  <source>  (1226) 
ACET_PRPA_12

>  <Index>  (1226) 
28027

$$$$
ACET-pdb3dlx-B-ASP-477:PRPA-pdb3dlx-B-ILE-487
     RDKit          3D

 18 16  0  0  0  0  0  0  0  0999 V2000
    0.0145    1.5272    0.0145 C   0  0  0  0  0  0  0  0  0  0  0  0
    0.9443    1.8376   -0.1427 H   0  0  0  0  0  0  0  0  0  0  0  0
   -0.3148    1.8401    0.8961 H   0  0  0  0  0  0  0  0  0  0  0  0
   -0.6192    1.9687   -0.7546 H   0  0  0  0  0  0  0  0  0  0  0  0
    0.0000    0.0000    0.0000 C   0  0  0  0  0  0  0  0  0  0  0  0
   -1.0962   -0.5891   -0.0000 O   0  0  0  0  0  1  0  0  0  0  0  0
    1.0962   -0.6105    0.0000 O   0  0  0  0  0  0  0  0  0  0  0  0
    1.2245   -2.0315   -3.5535 C   0  0  0  0  0  0  0  0  0  0  0  0
    0.8676   -1.1045   -3.5234 H   0  0  0  0  0  0  0  0  0  0  0  0
    1.1747   -2.3742   -4.4864 H   0  0  0  0  0  0  0  0  0  0  0  0
    0.6107   -2.6674   -2.9155 H   0  0  0  0  0  0  0  0  0  0  0  0
    2.6935   -2.0036   -3.1281 C   0  0  0  0  0  0  0  0  0  0  0  0
    2.9471   -2.9210   -2.8183 H   0  0  0  0  0  0  0  0  0  0  0  0
    3.3612   -1.7404   -3.9485 H   0  0  0  0  0  0  0  0  0  0  0  0
    2.8639   -1.0217   -1.9813 C   0  0  0  0  0  0  0  0  0  0  0  0
    2.2980   -1.3071   -1.2092 H   0  0  0  0  0  0  0  0  0  0  0  0
    3.8219   -0.9992   -1.6995 H   0  0  0  0  0  0  0  0  0  0  0  0
    2.5840   -0.1095   -2.2774 H   0  0  0  0  0  0  0  0  0  0  0  0
  1  5  1  0
  5  6  1  0
  5  7  2  0
  1  2  1  0
  1  3  1  0
  1  4  1  0
  8 12  1  0
 12 15  1  0
  8  9  1  0
  8 10  1  0
  8 11  1  0
 12 13  1  0
 12 14  1  0
 15 16  1  0
 15 17  1  0
 15 18  1  0
M  CHG  1   6  -1
M  END
>  <PDB_ID>  (1227) 
pdb3dlx

>  <RESIDUE_NAME>  (1227) 
ASP   ILE

>  <FRAG_NAME>  (1227) 
ACET   PRPA

>  <FRAG_ATOM_NUM>  (1227) 
fragi: 7  fragj: 11

>  <atom.prop.CHAIN_ID>  (1227) 
A A A A A A A Z Z Z Z Z Z Z Z Z Z Z

>  <atom.prop.IS_HEAVY_ATOM>  (1227) 
1 0 0 0 1 1 1 1 0 0 0 1 0 0 1 0 0 0

>  <DIFUSE_FUNC_ATOM>  (1227) 
atom 6   atom 7   

>  <FINAL_SINGLE_POINT_ENERGY>  (1227) 
0

>  <NONCOV_INTER_ENERGY_QM>  (1227) 
0

>  <FF_Energy>  (1227) 
22.23

>  <QM_Energy>  (1227) 
1.63

>  <source>  (1227) 
ACET_PRPA_12

>  <Index>  (1227) 
30218

$$$$
ACET-pdb3e1e-E-GLU-75:PRPA-pdb3e1e-E-ARG-3
     RDKit          3D

 18 16  0  0  0  0  0  0  0  0999 V2000
    0.0102    1.5150    0.0072 C   0  0  0  0  0  0  0  0  0  0  0  0
   -0.5568    1.8204   -0.7374 H   0  0  0  0  0  0  0  0  0  0  0  0
    0.9440    1.8065   -0.0953 H   0  0  0  0  0  0  0  0  0  0  0  0
   -0.3824    1.9392    0.9313 H   0  0  0  0  0  0  0  0  0  0  0  0
    0.0000    0.0000    0.0000 C   0  0  0  0  0  0  0  0  0  0  0  0
   -1.0997   -0.5914   -0.0000 O   0  0  0  0  0  1  0  0  0  0  0  0
    1.0997   -0.5962   -0.0000 O   0  0  0  0  0  0  0  0  0  0  0  0
   -3.8245   -0.5811   -0.8029 C   0  0  0  0  0  0  0  0  0  0  0  0
   -4.0612    0.3618   -0.5749 H   0  0  0  0  0  0  0  0  0  0  0  0
   -2.9982   -0.8483   -0.3094 H   0  0  0  0  0  0  0  0  0  0  0  0
   -4.6402   -1.2255   -0.4747 H   0  0  0  0  0  0  0  0  0  0  0  0
   -3.5161   -0.6385   -2.2986 C   0  0  0  0  0  0  0  0  0  0  0  0
   -3.3495   -1.5776   -2.5663 H   0  0  0  0  0  0  0  0  0  0  0  0
   -4.2727   -0.2519   -2.8071 H   0  0  0  0  0  0  0  0  0  0  0  0
   -2.2640    0.1779   -2.6143 C   0  0  0  0  0  0  0  0  0  0  0  0
   -2.4181    1.1153   -2.2882 H   0  0  0  0  0  0  0  0  0  0  0  0
   -1.5001   -0.2217   -2.0984 H   0  0  0  0  0  0  0  0  0  0  0  0
   -2.0032    0.2070   -3.6723 H   0  0  0  0  0  0  0  0  0  0  0  0
  1  5  1  0
  5  6  1  0
  5  7  2  0
  1  2  1  0
  1  3  1  0
  1  4  1  0
  8 12  1  0
 12 15  1  0
  8  9  1  0
  8 10  1  0
  8 11  1  0
 12 13  1  0
 12 14  1  0
 15 16  1  0
 15 17  1  0
 15 18  1  0
M  CHG  1   6  -1
M  END
>  <PDB_ID>  (1228) 
pdb3e1e

>  <RESIDUE_NAME>  (1228) 
GLU   ARG

>  <FRAG_NAME>  (1228) 
ACET   PRPA

>  <FRAG_ATOM_NUM>  (1228) 
fragi: 7  fragj: 11

>  <atom.prop.CHAIN_ID>  (1228) 
A A A A A A A Z Z Z Z Z Z Z Z Z Z Z

>  <atom.prop.IS_HEAVY_ATOM>  (1228) 
1 0 0 0 1 1 1 1 0 0 0 1 0 0 1 0 0 0

>  <DIFUSE_FUNC_ATOM>  (1228) 
atom 6   atom 7   

>  <FINAL_SINGLE_POINT_ENERGY>  (1228) 
0

>  <NONCOV_INTER_ENERGY_QM>  (1228) 
0

>  <FF_Energy>  (1228) 
14.38

>  <QM_Energy>  (1228) 
-1.28

>  <source>  (1228) 
ACET_PRPA_12

>  <Index>  (1228) 
30697

$$$$
ACET-pdb3e5r-A-GLU-91:PRPA-pdb3e5r-A-PRO-88
     RDKit          3D

 18 16  0  0  0  0  0  0  0  0999 V2000
   -0.0017    1.5182    0.0079 C   0  0  0  0  0  0  0  0  0  0  0  0
    0.8540    1.8145   -0.3675 H   0  0  0  0  0  0  0  0  0  0  0  0
   -0.1287    1.8062    0.9357 H   0  0  0  0  0  0  0  0  0  0  0  0
   -0.8095    1.9257   -0.5999 H   0  0  0  0  0  0  0  0  0  0  0  0
    0.0000    0.0000    0.0000 C   0  0  0  0  0  0  0  0  0  0  0  0
   -1.0987   -0.6001   -0.0000 O   0  0  0  0  0  1  0  0  0  0  0  0
    1.0987   -0.5927   -0.0000 O   0  0  0  0  0  0  0  0  0  0  0  0
   -1.3843    2.2431    4.0875 C   0  0  0  0  0  0  0  0  0  0  0  0
   -0.5937    2.6682    4.5645 H   0  0  0  0  0  0  0  0  0  0  0  0
   -2.0357    1.7396    4.8018 H   0  0  0  0  0  0  0  0  0  0  0  0
   -1.9027    2.9841    3.4791 H   0  0  0  0  0  0  0  0  0  0  0  0
   -0.8188    1.0871    3.2671 C   0  0  0  0  0  0  0  0  0  0  0  0
   -0.5817    1.3893    2.3463 H   0  0  0  0  0  0  0  0  0  0  0  0
   -0.0170    0.6958    3.7120 H   0  0  0  0  0  0  0  0  0  0  0  0
   -1.9470    0.1159    3.2402 C   0  0  0  0  0  0  0  0  0  0  0  0
   -2.6403    0.3911    2.5768 H   0  0  0  0  0  0  0  0  0  0  0  0
   -1.6220   -0.8034    3.0274 H   0  0  0  0  0  0  0  0  0  0  0  0
   -2.3509    0.1533    4.2519 H   0  0  0  0  0  0  0  0  0  0  0  0
  1  5  1  0
  5  6  1  0
  5  7  2  0
  1  2  1  0
  1  3  1  0
  1  4  1  0
  8 12  1  0
 12 15  1  0
  8  9  1  0
  8 10  1  0
  8 11  1  0
 12 13  1  0
 12 14  1  0
 15 16  1  0
 15 17  1  0
 15 18  1  0
M  CHG  1   6  -1
M  END
>  <PDB_ID>  (1229) 
pdb3e5r

>  <RESIDUE_NAME>  (1229) 
GLU   PRO

>  <FRAG_NAME>  (1229) 
ACET   PRPA

>  <FRAG_ATOM_NUM>  (1229) 
fragi: 7  fragj: 11

>  <atom.prop.CHAIN_ID>  (1229) 
A A A A A A A Z Z Z Z Z Z Z Z Z Z Z

>  <atom.prop.IS_HEAVY_ATOM>  (1229) 
1 0 0 0 1 1 1 1 0 0 0 1 0 0 1 0 0 0

>  <DIFUSE_FUNC_ATOM>  (1229) 
atom 6   atom 7   

>  <FINAL_SINGLE_POINT_ENERGY>  (1229) 
0

>  <NONCOV_INTER_ENERGY_QM>  (1229) 
0

>  <FF_Energy>  (1229) 
23.13

>  <QM_Energy>  (1229) 
0.33

>  <source>  (1229) 
ACET_PRPA_12

>  <Index>  (1229) 
31157

$$$$
ACET-pdb3e5p-C-GLU-357:PRPA-pdb3e5p-A-ARG-292
     RDKit          3D

 18 16  0  0  0  0  0  0  0  0999 V2000
    0.0022    1.5266   -0.0016 C   0  0  0  0  0  0  0  0  0  0  0  0
   -0.5248    1.8196   -0.7749 H   0  0  0  0  0  0  0  0  0  0  0  0
    0.9373    1.8182   -0.0498 H   0  0  0  0  0  0  0  0  0  0  0  0
   -0.4447    1.9470    0.8993 H   0  0  0  0  0  0  0  0  0  0  0  0
    0.0000    0.0000    0.0000 C   0  0  0  0  0  0  0  0  0  0  0  0
   -1.0955   -0.5970    0.0000 O   0  0  0  0  0  1  0  0  0  0  0  0
    1.0955   -0.6054   -0.0000 O   0  0  0  0  0  0  0  0  0  0  0  0
    1.5912   -3.1762    2.0628 C   0  0  0  0  0  0  0  0  0  0  0  0
    0.6495   -3.1644    1.7657 H   0  0  0  0  0  0  0  0  0  0  0  0
    1.7138   -3.7553    2.8532 H   0  0  0  0  0  0  0  0  0  0  0  0
    2.2048   -3.5656    1.2505 H   0  0  0  0  0  0  0  0  0  0  0  0
    1.9815   -1.7503    2.4568 C   0  0  0  0  0  0  0  0  0  0  0  0
    2.9131   -1.7610    2.8400 H   0  0  0  0  0  0  0  0  0  0  0  0
    1.9869   -1.1733    1.6301 H   0  0  0  0  0  0  0  0  0  0  0  0
    1.0576   -1.1132    3.4724 C   0  0  0  0  0  0  0  0  0  0  0  0
    1.2774   -0.1416    3.5279 H   0  0  0  0  0  0  0  0  0  0  0  0
    0.1189   -1.2315    3.1557 H   0  0  0  0  0  0  0  0  0  0  0  0
    1.1640   -1.5631    4.4595 H   0  0  0  0  0  0  0  0  0  0  0  0
  1  5  1  0
  5  6  1  0
  5  7  2  0
  1  2  1  0
  1  3  1  0
  1  4  1  0
  8 12  1  0
 12 15  1  0
  8  9  1  0
  8 10  1  0
  8 11  1  0
 12 13  1  0
 12 14  1  0
 15 16  1  0
 15 17  1  0
 15 18  1  0
M  CHG  1   6  -1
M  END
>  <PDB_ID>  (1230) 
pdb3e5p

>  <RESIDUE_NAME>  (1230) 
GLU   ARG

>  <FRAG_NAME>  (1230) 
ACET   PRPA

>  <FRAG_ATOM_NUM>  (1230) 
fragi: 7  fragj: 11

>  <atom.prop.CHAIN_ID>  (1230) 
A A A A A A A Z Z Z Z Z Z Z Z Z Z Z

>  <atom.prop.IS_HEAVY_ATOM>  (1230) 
1 0 0 0 1 1 1 1 0 0 0 1 0 0 1 0 0 0

>  <DIFUSE_FUNC_ATOM>  (1230) 
atom 6   atom 7   

>  <FINAL_SINGLE_POINT_ENERGY>  (1230) 
0

>  <NONCOV_INTER_ENERGY_QM>  (1230) 
0

>  <FF_Energy>  (1230) 
12.3

>  <QM_Energy>  (1230) 
-2.98

>  <source>  (1230) 
ACET_PRPA_12

>  <Index>  (1230) 
32257

$$$$
ACET-pdb3e74-A-ASP-210:PRPA-pdb3e74-A-ARG-205
     RDKit          3D

 18 16  0  0  0  0  0  0  0  0999 V2000
   -0.0091    1.5131    0.0224 C   0  0  0  0  0  0  0  0  0  0  0  0
    0.9072    1.8427   -0.1762 H   0  0  0  0  0  0  0  0  0  0  0  0
   -0.3003    1.8193    0.9213 H   0  0  0  0  0  0  0  0  0  0  0  0
   -0.6875    1.9404   -0.7161 H   0  0  0  0  0  0  0  0  0  0  0  0
    0.0000    0.0000    0.0000 C   0  0  0  0  0  0  0  0  0  0  0  0
   -1.1086   -0.5941   -0.0000 O   0  0  0  0  0  1  0  0  0  0  0  0
    1.1086   -0.5859    0.0000 O   0  0  0  0  0  0  0  0  0  0  0  0
    1.4680   -0.8854    3.1831 C   0  0  0  0  0  0  0  0  0  0  0  0
    1.8580   -1.5771    2.5735 H   0  0  0  0  0  0  0  0  0  0  0  0
    1.7005   -1.1540    4.2136 H   0  0  0  0  0  0  0  0  0  0  0  0
    1.9117    0.0817    2.9465 H   0  0  0  0  0  0  0  0  0  0  0  0
   -0.0427   -0.7935    2.9620 C   0  0  0  0  0  0  0  0  0  0  0  0
   -0.4195   -0.1571    3.6394 H   0  0  0  0  0  0  0  0  0  0  0  0
   -0.2022   -0.4251    2.0432 H   0  0  0  0  0  0  0  0  0  0  0  0
   -0.8098   -2.1053    3.0778 C   0  0  0  0  0  0  0  0  0  0  0  0
   -1.5730   -2.0988    2.4409 H   0  0  0  0  0  0  0  0  0  0  0  0
   -0.1981   -2.8638    2.8778 H   0  0  0  0  0  0  0  0  0  0  0  0
   -1.2045   -2.2404    4.0849 H   0  0  0  0  0  0  0  0  0  0  0  0
  1  5  1  0
  5  6  1  0
  5  7  2  0
  1  2  1  0
  1  3  1  0
  1  4  1  0
  8 12  1  0
 12 15  1  0
  8  9  1  0
  8 10  1  0
  8 11  1  0
 12 13  1  0
 12 14  1  0
 15 16  1  0
 15 17  1  0
 15 18  1  0
M  CHG  1   6  -1
M  END
>  <PDB_ID>  (1231) 
pdb3e74

>  <RESIDUE_NAME>  (1231) 
ASP   ARG

>  <FRAG_NAME>  (1231) 
ACET   PRPA

>  <FRAG_ATOM_NUM>  (1231) 
fragi: 7  fragj: 11

>  <atom.prop.CHAIN_ID>  (1231) 
A A A A A A A Z Z Z Z Z Z Z Z Z Z Z

>  <atom.prop.IS_HEAVY_ATOM>  (1231) 
1 0 0 0 1 1 1 1 0 0 0 1 0 0 1 0 0 0

>  <DIFUSE_FUNC_ATOM>  (1231) 
atom 6   atom 7   

>  <FINAL_SINGLE_POINT_ENERGY>  (1231) 
0

>  <NONCOV_INTER_ENERGY_QM>  (1231) 
0

>  <FF_Energy>  (1231) 
14.83

>  <QM_Energy>  (1231) 
-3.09

>  <source>  (1231) 
ACET_PRPA_12

>  <Index>  (1231) 
32494

$$$$
ACET-pdb3dkb-D-ASP-3117:PRPA-pdb3dkb-D-LEU-3122
     RDKit          3D

 18 16  0  0  0  0  0  0  0  0999 V2000
    0.0150    1.5385    0.0063 C   0  0  0  0  0  0  0  0  0  0  0  0
   -0.5308    1.8517    0.7693 H   0  0  0  0  0  0  0  0  0  0  0  0
   -0.3555    1.8572   -0.8533 H   0  0  0  0  0  0  0  0  0  0  0  0
    1.0206    1.9442    0.1168 H   0  0  0  0  0  0  0  0  0  0  0  0
    0.0000    0.0000    0.0000 C   0  0  0  0  0  0  0  0  0  0  0  0
   -1.0857   -0.6139    0.0000 O   0  0  0  0  0  1  0  0  0  0  0  0
    1.0857   -0.6105   -0.0000 O   0  0  0  0  0  0  0  0  0  0  0  0
   -1.8702   -3.1051    1.6174 C   0  0  0  0  0  0  0  0  0  0  0  0
   -1.9634   -3.8479    2.2789 H   0  0  0  0  0  0  0  0  0  0  0  0
   -0.8507   -3.1077    1.2316 H   0  0  0  0  0  0  0  0  0  0  0  0
   -2.5637   -3.2841    0.7958 H   0  0  0  0  0  0  0  0  0  0  0  0
   -2.2229   -1.7684    2.2971 C   0  0  0  0  0  0  0  0  0  0  0  0
   -2.0715   -1.0309    1.6038 H   0  0  0  0  0  0  0  0  0  0  0  0
   -3.2284   -1.7811    2.4786 H   0  0  0  0  0  0  0  0  0  0  0  0
   -1.5464   -1.2990    3.5937 C   0  0  0  0  0  0  0  0  0  0  0  0
   -0.6177   -1.0161    3.3925 H   0  0  0  0  0  0  0  0  0  0  0  0
   -2.0999   -0.4513    3.9976 H   0  0  0  0  0  0  0  0  0  0  0  0
   -1.5150   -2.1046    4.3272 H   0  0  0  0  0  0  0  0  0  0  0  0
  1  5  1  0
  5  6  1  0
  5  7  2  0
  1  2  1  0
  1  3  1  0
  1  4  1  0
  8 12  1  0
 12 15  1  0
  8  9  1  0
  8 10  1  0
  8 11  1  0
 12 13  1  0
 12 14  1  0
 15 16  1  0
 15 17  1  0
 15 18  1  0
M  CHG  1   6  -1
M  END
>  <PDB_ID>  (1232) 
pdb3dkb

>  <RESIDUE_NAME>  (1232) 
ASP   LEU

>  <FRAG_NAME>  (1232) 
ACET   PRPA

>  <FRAG_ATOM_NUM>  (1232) 
fragi: 7  fragj: 11

>  <atom.prop.CHAIN_ID>  (1232) 
A A A A A A A Z Z Z Z Z Z Z Z Z Z Z

>  <atom.prop.IS_HEAVY_ATOM>  (1232) 
1 0 0 0 1 1 1 1 0 0 0 1 0 0 1 0 0 0

>  <DIFUSE_FUNC_ATOM>  (1232) 
atom 6   atom 7   

>  <FINAL_SINGLE_POINT_ENERGY>  (1232) 
0

>  <NONCOV_INTER_ENERGY_QM>  (1232) 
0

>  <FF_Energy>  (1232) 
14.46

>  <QM_Energy>  (1232) 
-1.91

>  <source>  (1232) 
ACET_PRPA_12

>  <Index>  (1232) 
32571

$$$$
ACET-pdb3e5p-A-ASP-288:PRPA-pdb3e5p-A-ILE-366
     RDKit          3D

 18 16  0  0  0  0  0  0  0  0999 V2000
    0.0171    1.5232    0.0089 C   0  0  0  0  0  0  0  0  0  0  0  0
    0.9408    1.8332   -0.1826 H   0  0  0  0  0  0  0  0  0  0  0  0
   -0.2812    1.8411    0.9004 H   0  0  0  0  0  0  0  0  0  0  0  0
   -0.6439    1.9590   -0.7403 H   0  0  0  0  0  0  0  0  0  0  0  0
    0.0000    0.0000    0.0000 C   0  0  0  0  0  0  0  0  0  0  0  0
   -1.0966   -0.6091   -0.0000 O   0  0  0  0  0  1  0  0  0  0  0  0
    1.0966   -0.5918    0.0000 O   0  0  0  0  0  0  0  0  0  0  0  0
   -2.6381    1.5278    4.7063 C   0  0  0  0  0  0  0  0  0  0  0  0
   -3.2064    2.3381    4.7209 H   0  0  0  0  0  0  0  0  0  0  0  0
   -3.2886    0.6583    4.8010 H   0  0  0  0  0  0  0  0  0  0  0  0
   -1.9071    1.5354    5.5148 H   0  0  0  0  0  0  0  0  0  0  0  0
   -1.9067    1.4850    3.3549 C   0  0  0  0  0  0  0  0  0  0  0  0
   -1.4605    0.5925    3.2668 H   0  0  0  0  0  0  0  0  0  0  0  0
   -2.5928    1.5622    2.6272 H   0  0  0  0  0  0  0  0  0  0  0  0
   -0.8641    2.5757    3.1541 C   0  0  0  0  0  0  0  0  0  0  0  0
   -0.1670    2.4963    3.8630 H   0  0  0  0  0  0  0  0  0  0  0  0
   -0.4462    2.4670    2.2553 H   0  0  0  0  0  0  0  0  0  0  0  0
   -1.3073    3.4669    3.2152 H   0  0  0  0  0  0  0  0  0  0  0  0
  1  5  1  0
  5  6  1  0
  5  7  2  0
  1  2  1  0
  1  3  1  0
  1  4  1  0
  8 12  1  0
 12 15  1  0
  8  9  1  0
  8 10  1  0
  8 11  1  0
 12 13  1  0
 12 14  1  0
 15 16  1  0
 15 17  1  0
 15 18  1  0
M  CHG  1   6  -1
M  END
>  <PDB_ID>  (1233) 
pdb3e5p

>  <RESIDUE_NAME>  (1233) 
ASP   ILE

>  <FRAG_NAME>  (1233) 
ACET   PRPA

>  <FRAG_ATOM_NUM>  (1233) 
fragi: 7  fragj: 11

>  <atom.prop.CHAIN_ID>  (1233) 
A A A A A A A Z Z Z Z Z Z Z Z Z Z Z

>  <atom.prop.IS_HEAVY_ATOM>  (1233) 
1 0 0 0 1 1 1 1 0 0 0 1 0 0 1 0 0 0

>  <DIFUSE_FUNC_ATOM>  (1233) 
atom 6   atom 7   

>  <FINAL_SINGLE_POINT_ENERGY>  (1233) 
0

>  <NONCOV_INTER_ENERGY_QM>  (1233) 
0

>  <FF_Energy>  (1233) 
25.27

>  <QM_Energy>  (1233) 
2.34

>  <source>  (1233) 
ACET_PRPA_12

>  <Index>  (1233) 
32706

$$$$
ACET-pdb3e9n-A-GLU-52:PRPA-pdb3e9n-A-LEU-39
     RDKit          3D

 18 16  0  0  0  0  0  0  0  0999 V2000
    0.1759    1.4874    0.0138 C   0  0  0  0  0  0  0  0  0  0  0  0
    0.6941    1.7422   -0.8029 H   0  0  0  0  0  0  0  0  0  0  0  0
    0.7053    1.7252    0.8296 H   0  0  0  0  0  0  0  0  0  0  0  0
   -0.7348    2.0862    0.0259 H   0  0  0  0  0  0  0  0  0  0  0  0
    0.0000    0.0000    0.0000 C   0  0  0  0  0  0  0  0  0  0  0  0
   -1.0899   -0.5559   -0.0000 O   0  0  0  0  0  1  0  0  0  0  0  0
    1.0899   -0.6071   -0.0000 O   0  0  0  0  0  0  0  0  0  0  0  0
    4.5543    2.3252   -1.5467 C   0  0  0  0  0  0  0  0  0  0  0  0
    4.2794    1.4394   -1.9255 H   0  0  0  0  0  0  0  0  0  0  0  0
    4.4598    2.3018   -0.5503 H   0  0  0  0  0  0  0  0  0  0  0  0
    5.6087    2.4742   -1.7797 H   0  0  0  0  0  0  0  0  0  0  0  0
    3.5512    3.3692   -2.0702 C   0  0  0  0  0  0  0  0  0  0  0  0
    3.5509    3.3430   -3.0690 H   0  0  0  0  0  0  0  0  0  0  0  0
    3.8476    4.3844   -1.8062 H   0  0  0  0  0  0  0  0  0  0  0  0
    2.1394    3.0781   -1.5557 C   0  0  0  0  0  0  0  0  0  0  0  0
    2.1397    3.1043   -0.5569 H   0  0  0  0  0  0  0  0  0  0  0  0
    1.5104    3.7688   -1.9100 H   0  0  0  0  0  0  0  0  0  0  0  0
    1.8546    2.1727   -1.8676 H   0  0  0  0  0  0  0  0  0  0  0  0
  1  5  1  0
  5  6  1  0
  5  7  2  0
  1  2  1  0
  1  3  1  0
  1  4  1  0
  8 12  1  0
 12 15  1  0
  8  9  1  0
  8 10  1  0
  8 11  1  0
 12 13  1  0
 12 14  1  0
 15 16  1  0
 15 17  1  0
 15 18  1  0
M  CHG  1   6  -1
M  END
>  <PDB_ID>  (1234) 
pdb3e9n

>  <RESIDUE_NAME>  (1234) 
GLU   LEU

>  <FRAG_NAME>  (1234) 
ACET   PRPA

>  <FRAG_ATOM_NUM>  (1234) 
fragi: 7  fragj: 11

>  <atom.prop.CHAIN_ID>  (1234) 
A A A A A A A Z Z Z Z Z Z Z Z Z Z Z

>  <atom.prop.IS_HEAVY_ATOM>  (1234) 
1 0 0 0 1 1 1 1 0 0 0 1 0 0 1 0 0 0

>  <DIFUSE_FUNC_ATOM>  (1234) 
atom 6   atom 7   

>  <FINAL_SINGLE_POINT_ENERGY>  (1234) 
0

>  <NONCOV_INTER_ENERGY_QM>  (1234) 
0

>  <FF_Energy>  (1234) 
22.47

>  <QM_Energy>  (1234) 
5.46

>  <source>  (1234) 
ACET_PRPA_12

>  <Index>  (1234) 
33532

$$$$
ACET-pdb3e9n-A-GLU-52:PRPA-pdb3e9n-A-LEU-39
     RDKit          3D

 18 16  0  0  0  0  0  0  0  0999 V2000
    0.1759    1.4874    0.0138 C   0  0  0  0  0  0  0  0  0  0  0  0
    0.6941    1.7422   -0.8029 H   0  0  0  0  0  0  0  0  0  0  0  0
    0.7053    1.7252    0.8296 H   0  0  0  0  0  0  0  0  0  0  0  0
   -0.7348    2.0862    0.0259 H   0  0  0  0  0  0  0  0  0  0  0  0
    0.0000    0.0000    0.0000 C   0  0  0  0  0  0  0  0  0  0  0  0
   -1.0899   -0.5559   -0.0000 O   0  0  0  0  0  1  0  0  0  0  0  0
    1.0899   -0.6071   -0.0000 O   0  0  0  0  0  0  0  0  0  0  0  0
    2.1394    3.0781   -1.5557 C   0  0  0  0  0  0  0  0  0  0  0  0
    2.1397    3.1043   -0.5569 H   0  0  0  0  0  0  0  0  0  0  0  0
    1.5104    3.7688   -1.9100 H   0  0  0  0  0  0  0  0  0  0  0  0
    1.8546    2.1727   -1.8676 H   0  0  0  0  0  0  0  0  0  0  0  0
    3.5512    3.3692   -2.0702 C   0  0  0  0  0  0  0  0  0  0  0  0
    3.5509    3.3430   -3.0690 H   0  0  0  0  0  0  0  0  0  0  0  0
    4.2614    2.6300   -1.6996 H   0  0  0  0  0  0  0  0  0  0  0  0
    3.9728    4.8131   -1.6946 C   0  0  0  0  0  0  0  0  0  0  0  0
    4.8660    5.0002   -2.0948 H   0  0  0  0  0  0  0  0  0  0  0  0
    3.2952    5.4485   -2.0538 H   0  0  0  0  0  0  0  0  0  0  0  0
    4.0194    4.8853   -0.7021 H   0  0  0  0  0  0  0  0  0  0  0  0
  1  5  1  0
  5  6  1  0
  5  7  2  0
  1  2  1  0
  1  3  1  0
  1  4  1  0
  8 12  1  0
 12 15  1  0
  8  9  1  0
  8 10  1  0
  8 11  1  0
 12 13  1  0
 12 14  1  0
 15 16  1  0
 15 17  1  0
 15 18  1  0
M  CHG  1   6  -1
M  END
>  <PDB_ID>  (1235) 
pdb3e9n

>  <RESIDUE_NAME>  (1235) 
GLU   LEU

>  <FRAG_NAME>  (1235) 
ACET   PRPA

>  <FRAG_ATOM_NUM>  (1235) 
fragi: 7  fragj: 11

>  <atom.prop.CHAIN_ID>  (1235) 
A A A A A A A Z Z Z Z Z Z Z Z Z Z Z

>  <atom.prop.IS_HEAVY_ATOM>  (1235) 
1 0 0 0 1 1 1 1 0 0 0 1 0 0 1 0 0 0

>  <DIFUSE_FUNC_ATOM>  (1235) 
atom 6   atom 7   

>  <FINAL_SINGLE_POINT_ENERGY>  (1235) 
0

>  <NONCOV_INTER_ENERGY_QM>  (1235) 
0

>  <FF_Energy>  (1235) 
22.39

>  <QM_Energy>  (1235) 
5.91

>  <source>  (1235) 
ACET_PRPA_12

>  <Index>  (1235) 
33535

$$$$
ACET-pdb3e9n-B-ASP-54:PRPA-pdb3e9n-B-LYS-57
     RDKit          3D

 18 16  0  0  0  0  0  0  0  0999 V2000
    0.0083    1.5325   -0.0047 C   0  0  0  0  0  0  0  0  0  0  0  0
    0.8667    1.8378   -0.3920 H   0  0  0  0  0  0  0  0  0  0  0  0
   -0.0938    1.8481    0.9278 H   0  0  0  0  0  0  0  0  0  0  0  0
   -0.8049    1.9482   -0.5995 H   0  0  0  0  0  0  0  0  0  0  0  0
    0.0000    0.0000    0.0000 C   0  0  0  0  0  0  0  0  0  0  0  0
   -1.1090   -0.6142   -0.0000 O   0  0  0  0  0  1  0  0  0  0  0  0
    1.1090   -0.5980    0.0000 O   0  0  0  0  0  0  0  0  0  0  0  0
   -1.0890   -1.1296    3.2807 C   0  0  0  0  0  0  0  0  0  0  0  0
   -1.0657   -0.2192    2.8748 H   0  0  0  0  0  0  0  0  0  0  0  0
   -0.7025   -1.0994    4.2007 H   0  0  0  0  0  0  0  0  0  0  0  0
   -2.1359   -1.4175    3.3762 H   0  0  0  0  0  0  0  0  0  0  0  0
   -0.2557   -2.0687    2.4289 C   0  0  0  0  0  0  0  0  0  0  0  0
   -0.2790   -2.9836    2.8324 H   0  0  0  0  0  0  0  0  0  0  0  0
   -0.6410   -2.1020    1.5062 H   0  0  0  0  0  0  0  0  0  0  0  0
    1.1853   -1.6048    2.3435 C   0  0  0  0  0  0  0  0  0  0  0  0
    1.2073   -0.6897    1.9411 H   0  0  0  0  0  0  0  0  0  0  0  0
    1.5699   -1.5722    3.2664 H   0  0  0  0  0  0  0  0  0  0  0  0
    1.8025   -2.2656    1.7348 H   0  0  0  0  0  0  0  0  0  0  0  0
  1  5  1  0
  5  6  1  0
  5  7  2  0
  1  2  1  0
  1  3  1  0
  1  4  1  0
  8 12  1  0
 12 15  1  0
  8  9  1  0
  8 10  1  0
  8 11  1  0
 12 13  1  0
 12 14  1  0
 15 16  1  0
 15 17  1  0
 15 18  1  0
M  CHG  1   6  -1
M  END
>  <PDB_ID>  (1236) 
pdb3e9n

>  <RESIDUE_NAME>  (1236) 
ASP   LYS

>  <FRAG_NAME>  (1236) 
ACET   PRPA

>  <FRAG_ATOM_NUM>  (1236) 
fragi: 7  fragj: 11

>  <atom.prop.CHAIN_ID>  (1236) 
A A A A A A A Z Z Z Z Z Z Z Z Z Z Z

>  <atom.prop.IS_HEAVY_ATOM>  (1236) 
1 0 0 0 1 1 1 1 0 0 0 1 0 0 1 0 0 0

>  <DIFUSE_FUNC_ATOM>  (1236) 
atom 6   atom 7   

>  <FINAL_SINGLE_POINT_ENERGY>  (1236) 
0

>  <NONCOV_INTER_ENERGY_QM>  (1236) 
0

>  <FF_Energy>  (1236) 
24.64

>  <QM_Energy>  (1236) 
3.87

>  <source>  (1236) 
ACET_PRPA_12

>  <Index>  (1236) 
34729

$$$$
ACET-pdb3e9n-B-ASP-54:PRPA-pdb3e9n-B-LYS-57
     RDKit          3D

 18 16  0  0  0  0  0  0  0  0999 V2000
    0.0083    1.5325   -0.0047 C   0  0  0  0  0  0  0  0  0  0  0  0
    0.8667    1.8378   -0.3920 H   0  0  0  0  0  0  0  0  0  0  0  0
   -0.0938    1.8481    0.9278 H   0  0  0  0  0  0  0  0  0  0  0  0
   -0.8049    1.9482   -0.5995 H   0  0  0  0  0  0  0  0  0  0  0  0
    0.0000    0.0000    0.0000 C   0  0  0  0  0  0  0  0  0  0  0  0
   -1.1090   -0.6142   -0.0000 O   0  0  0  0  0  1  0  0  0  0  0  0
    1.1090   -0.5980    0.0000 O   0  0  0  0  0  0  0  0  0  0  0  0
   -0.2557   -2.0687    2.4289 C   0  0  0  0  0  0  0  0  0  0  0  0
   -0.2790   -2.9836    2.8324 H   0  0  0  0  0  0  0  0  0  0  0  0
   -0.6410   -2.1020    1.5062 H   0  0  0  0  0  0  0  0  0  0  0  0
   -0.8543   -1.3940    3.0408 H   0  0  0  0  0  0  0  0  0  0  0  0
    1.1853   -1.6048    2.3435 C   0  0  0  0  0  0  0  0  0  0  0  0
    1.2073   -0.6897    1.9411 H   0  0  0  0  0  0  0  0  0  0  0  0
    1.5699   -1.5722    3.2664 H   0  0  0  0  0  0  0  0  0  0  0  0
    2.0439   -2.5241    1.4968 C   0  0  0  0  0  0  0  0  0  0  0  0
    2.0308   -3.4409    1.8962 H   0  0  0  0  0  0  0  0  0  0  0  0
    1.6690   -2.5591    0.5709 H   0  0  0  0  0  0  0  0  0  0  0  0
    3.0713   -2.1624    1.4570 H   0  0  0  0  0  0  0  0  0  0  0  0
  1  5  1  0
  5  6  1  0
  5  7  2  0
  1  2  1  0
  1  3  1  0
  1  4  1  0
  8 12  1  0
 12 15  1  0
  8  9  1  0
  8 10  1  0
  8 11  1  0
 12 13  1  0
 12 14  1  0
 15 16  1  0
 15 17  1  0
 15 18  1  0
M  CHG  1   6  -1
M  END
>  <PDB_ID>  (1237) 
pdb3e9n

>  <RESIDUE_NAME>  (1237) 
ASP   LYS

>  <FRAG_NAME>  (1237) 
ACET   PRPA

>  <FRAG_ATOM_NUM>  (1237) 
fragi: 7  fragj: 11

>  <atom.prop.CHAIN_ID>  (1237) 
A A A A A A A Z Z Z Z Z Z Z Z Z Z Z

>  <atom.prop.IS_HEAVY_ATOM>  (1237) 
1 0 0 0 1 1 1 1 0 0 0 1 0 0 1 0 0 0

>  <DIFUSE_FUNC_ATOM>  (1237) 
atom 6   atom 7   

>  <FINAL_SINGLE_POINT_ENERGY>  (1237) 
0

>  <NONCOV_INTER_ENERGY_QM>  (1237) 
0

>  <FF_Energy>  (1237) 
33.97

>  <QM_Energy>  (1237) 
5.31

>  <source>  (1237) 
ACET_PRPA_12

>  <Index>  (1237) 
34734

$$$$
ACET-pdb3dkb-E-GLU-4300:PRPA-pdb3dkb-E-LYS-4304
     RDKit          3D

 18 16  0  0  0  0  0  0  0  0999 V2000
   -0.0003    1.5094    0.0201 C   0  0  0  0  0  0  0  0  0  0  0  0
    0.9118    1.8128   -0.1907 H   0  0  0  0  0  0  0  0  0  0  0  0
   -0.2877    1.7971    0.9162 H   0  0  0  0  0  0  0  0  0  0  0  0
   -0.6800    1.9446   -0.7124 H   0  0  0  0  0  0  0  0  0  0  0  0
    0.0000    0.0000    0.0000 C   0  0  0  0  0  0  0  0  0  0  0  0
   -1.1013   -0.5955    0.0000 O   0  0  0  0  0  1  0  0  0  0  0  0
    1.1013   -0.5848    0.0000 O   0  0  0  0  0  0  0  0  0  0  0  0
    2.2634   -2.4073   -3.1671 C   0  0  0  0  0  0  0  0  0  0  0  0
    3.2475   -2.2036   -3.0541 H   0  0  0  0  0  0  0  0  0  0  0  0
    1.7555   -1.5399   -3.0617 H   0  0  0  0  0  0  0  0  0  0  0  0
    2.0928   -2.8037   -4.1680 H   0  0  0  0  0  0  0  0  0  0  0  0
    1.8375   -3.3531   -2.0628 C   0  0  0  0  0  0  0  0  0  0  0  0
    0.8568   -3.3337   -1.9757 H   0  0  0  0  0  0  0  0  0  0  0  0
    2.1733   -4.2578   -2.2583 H   0  0  0  0  0  0  0  0  0  0  0  0
    2.4482   -2.8887   -0.7366 C   0  0  0  0  0  0  0  0  0  0  0  0
    3.4546   -2.9859   -0.7999 H   0  0  0  0  0  0  0  0  0  0  0  0
    2.2450   -1.9028   -0.6221 H   0  0  0  0  0  0  0  0  0  0  0  0
    2.0850   -3.4367    0.1328 H   0  0  0  0  0  0  0  0  0  0  0  0
  1  5  1  0
  5  6  1  0
  5  7  2  0
  1  2  1  0
  1  3  1  0
  1  4  1  0
  8 12  1  0
 12 15  1  0
  8  9  1  0
  8 10  1  0
  8 11  1  0
 12 13  1  0
 12 14  1  0
 15 16  1  0
 15 17  1  0
 15 18  1  0
M  CHG  1   6  -1
M  END
>  <PDB_ID>  (1238) 
pdb3dkb

>  <RESIDUE_NAME>  (1238) 
GLU   LYS

>  <FRAG_NAME>  (1238) 
ACET   PRPA

>  <FRAG_ATOM_NUM>  (1238) 
fragi: 7  fragj: 11

>  <atom.prop.CHAIN_ID>  (1238) 
A A A A A A A Z Z Z Z Z Z Z Z Z Z Z

>  <atom.prop.IS_HEAVY_ATOM>  (1238) 
1 0 0 0 1 1 1 1 0 0 0 1 0 0 1 0 0 0

>  <DIFUSE_FUNC_ATOM>  (1238) 
atom 6   atom 7   

>  <FINAL_SINGLE_POINT_ENERGY>  (1238) 
0

>  <NONCOV_INTER_ENERGY_QM>  (1238) 
0

>  <FF_Energy>  (1238) 
19.67

>  <QM_Energy>  (1238) 
-0.35

>  <source>  (1238) 
ACET_PRPA_12

>  <Index>  (1238) 
35389

$$$$
ACET-pdb3e9n-D-ASP-54:PRPA-pdb3e9n-D-LYS-57
     RDKit          3D

 18 16  0  0  0  0  0  0  0  0999 V2000
   -0.0259    1.5068   -0.0281 C   0  0  0  0  0  0  0  0  0  0  0  0
    0.6256    1.8269   -0.7060 H   0  0  0  0  0  0  0  0  0  0  0  0
    0.2104    1.8491    0.8722 H   0  0  0  0  0  0  0  0  0  0  0  0
   -1.0097    1.8947   -0.2926 H   0  0  0  0  0  0  0  0  0  0  0  0
    0.0000    0.0000    0.0000 C   0  0  0  0  0  0  0  0  0  0  0  0
   -1.1043   -0.5989   -0.0000 O   0  0  0  0  0  1  0  0  0  0  0  0
    1.1043   -0.5872    0.0000 O   0  0  0  0  0  0  0  0  0  0  0  0
    0.2081   -0.0322    3.9711 C   0  0  0  0  0  0  0  0  0  0  0  0
    0.0419    0.6498    3.2644 H   0  0  0  0  0  0  0  0  0  0  0  0
    0.9398    0.2742    4.5755 H   0  0  0  0  0  0  0  0  0  0  0  0
   -0.6999   -0.1228    4.5673 H   0  0  0  0  0  0  0  0  0  0  0  0
    0.6411   -1.3280    3.3031 C   0  0  0  0  0  0  0  0  0  0  0  0
    0.8098   -2.0174    4.0066 H   0  0  0  0  0  0  0  0  0  0  0  0
   -0.0876   -1.6418    2.6941 H   0  0  0  0  0  0  0  0  0  0  0  0
    1.9104   -1.1326    2.4901 C   0  0  0  0  0  0  0  0  0  0  0  0
    1.7396   -0.4406    1.7897 H   0  0  0  0  0  0  0  0  0  0  0  0
    2.6366   -0.8178    3.1004 H   0  0  0  0  0  0  0  0  0  0  0  0
    2.2382   -2.0505    2.0021 H   0  0  0  0  0  0  0  0  0  0  0  0
  1  5  1  0
  5  6  1  0
  5  7  2  0
  1  2  1  0
  1  3  1  0
  1  4  1  0
  8 12  1  0
 12 15  1  0
  8  9  1  0
  8 10  1  0
  8 11  1  0
 12 13  1  0
 12 14  1  0
 15 16  1  0
 15 17  1  0
 15 18  1  0
M  CHG  1   6  -1
M  END
>  <PDB_ID>  (1239) 
pdb3e9n

>  <RESIDUE_NAME>  (1239) 
ASP   LYS

>  <FRAG_NAME>  (1239) 
ACET   PRPA

>  <FRAG_ATOM_NUM>  (1239) 
fragi: 7  fragj: 11

>  <atom.prop.CHAIN_ID>  (1239) 
A A A A A A A Z Z Z Z Z Z Z Z Z Z Z

>  <atom.prop.IS_HEAVY_ATOM>  (1239) 
1 0 0 0 1 1 1 1 0 0 0 1 0 0 1 0 0 0

>  <DIFUSE_FUNC_ATOM>  (1239) 
atom 6   atom 7   

>  <FINAL_SINGLE_POINT_ENERGY>  (1239) 
0

>  <NONCOV_INTER_ENERGY_QM>  (1239) 
0

>  <FF_Energy>  (1239) 
16.62

>  <QM_Energy>  (1239) 
0.77

>  <source>  (1239) 
ACET_PRPA_12

>  <Index>  (1239) 
36649

$$$$
ACET-pdb3e9n-D-ASP-54:PRPA-pdb3e9n-D-LYS-57
     RDKit          3D

 18 16  0  0  0  0  0  0  0  0999 V2000
   -0.0259    1.5068   -0.0281 C   0  0  0  0  0  0  0  0  0  0  0  0
    0.6256    1.8269   -0.7060 H   0  0  0  0  0  0  0  0  0  0  0  0
    0.2104    1.8491    0.8722 H   0  0  0  0  0  0  0  0  0  0  0  0
   -1.0097    1.8947   -0.2926 H   0  0  0  0  0  0  0  0  0  0  0  0
    0.0000    0.0000    0.0000 C   0  0  0  0  0  0  0  0  0  0  0  0
   -1.1043   -0.5989   -0.0000 O   0  0  0  0  0  1  0  0  0  0  0  0
    1.1043   -0.5872    0.0000 O   0  0  0  0  0  0  0  0  0  0  0  0
    0.6411   -1.3280    3.3031 C   0  0  0  0  0  0  0  0  0  0  0  0
    0.8098   -2.0174    4.0066 H   0  0  0  0  0  0  0  0  0  0  0  0
   -0.0876   -1.6418    2.6941 H   0  0  0  0  0  0  0  0  0  0  0  0
    0.3308   -0.3992    3.7818 H   0  0  0  0  0  0  0  0  0  0  0  0
    1.9104   -1.1326    2.4901 C   0  0  0  0  0  0  0  0  0  0  0  0
    1.7396   -0.4406    1.7897 H   0  0  0  0  0  0  0  0  0  0  0  0
    2.6366   -0.8178    3.1004 H   0  0  0  0  0  0  0  0  0  0  0  0
    2.3657   -2.4076    1.8124 C   0  0  0  0  0  0  0  0  0  0  0  0
    2.5424   -3.1027    2.5080 H   0  0  0  0  0  0  0  0  0  0  0  0
    1.6449   -2.7263    1.1971 H   0  0  0  0  0  0  0  0  0  0  0  0
    3.2765   -2.2324    1.2397 H   0  0  0  0  0  0  0  0  0  0  0  0
  1  5  1  0
  5  6  1  0
  5  7  2  0
  1  2  1  0
  1  3  1  0
  1  4  1  0
  8 12  1  0
 12 15  1  0
  8  9  1  0
  8 10  1  0
  8 11  1  0
 12 13  1  0
 12 14  1  0
 15 16  1  0
 15 17  1  0
 15 18  1  0
M  CHG  1   6  -1
M  END
>  <PDB_ID>  (1240) 
pdb3e9n

>  <RESIDUE_NAME>  (1240) 
ASP   LYS

>  <FRAG_NAME>  (1240) 
ACET   PRPA

>  <FRAG_ATOM_NUM>  (1240) 
fragi: 7  fragj: 11

>  <atom.prop.CHAIN_ID>  (1240) 
A A A A A A A Z Z Z Z Z Z Z Z Z Z Z

>  <atom.prop.IS_HEAVY_ATOM>  (1240) 
1 0 0 0 1 1 1 1 0 0 0 1 0 0 1 0 0 0

>  <DIFUSE_FUNC_ATOM>  (1240) 
atom 6   atom 7   

>  <FINAL_SINGLE_POINT_ENERGY>  (1240) 
0

>  <NONCOV_INTER_ENERGY_QM>  (1240) 
0

>  <FF_Energy>  (1240) 
20.82

>  <QM_Energy>  (1240) 
-0.14

>  <source>  (1240) 
ACET_PRPA_12

>  <Index>  (1240) 
36651

$$$$
ACET-pdb3efz-A-ASP-233:PRPA-pdb3efz-A-LYS-188
     RDKit          3D

 18 16  0  0  0  0  0  0  0  0999 V2000
    0.0281    1.5125   -0.0179 C   0  0  0  0  0  0  0  0  0  0  0  0
    0.5192    1.8162   -0.8356 H   0  0  0  0  0  0  0  0  0  0  0  0
    0.5088    1.8367    0.7971 H   0  0  0  0  0  0  0  0  0  0  0  0
   -0.9556    1.9817   -0.0304 H   0  0  0  0  0  0  0  0  0  0  0  0
    0.0000    0.0000    0.0000 C   0  0  0  0  0  0  0  0  0  0  0  0
   -1.0957   -0.6043   -0.0000 O   0  0  0  0  0  1  0  0  0  0  0  0
    1.0957   -0.5819   -0.0000 O   0  0  0  0  0  0  0  0  0  0  0  0
    5.2601    1.0782    1.9329 C   0  0  0  0  0  0  0  0  0  0  0  0
    5.3640    1.2296    2.9220 H   0  0  0  0  0  0  0  0  0  0  0  0
    5.2107    1.9752    1.4780 H   0  0  0  0  0  0  0  0  0  0  0  0
    6.1485    0.5605    1.5714 H   0  0  0  0  0  0  0  0  0  0  0  0
    3.9212    0.3636    1.7069 C   0  0  0  0  0  0  0  0  0  0  0  0
    4.0555   -0.6209    1.8393 H   0  0  0  0  0  0  0  0  0  0  0  0
    3.2597    0.6982    2.3804 H   0  0  0  0  0  0  0  0  0  0  0  0
    3.3642    0.6016    0.3060 C   0  0  0  0  0  0  0  0  0  0  0  0
    3.6657   -0.1378   -0.2921 H   0  0  0  0  0  0  0  0  0  0  0  0
    2.3676    0.6167    0.3513 H   0  0  0  0  0  0  0  0  0  0  0  0
    3.6985    1.5452   -0.1253 H   0  0  0  0  0  0  0  0  0  0  0  0
  1  5  1  0
  5  6  1  0
  5  7  2  0
  1  2  1  0
  1  3  1  0
  1  4  1  0
  8 12  1  0
 12 15  1  0
  8  9  1  0
  8 10  1  0
  8 11  1  0
 12 13  1  0
 12 14  1  0
 15 16  1  0
 15 17  1  0
 15 18  1  0
M  CHG  1   6  -1
M  END
>  <PDB_ID>  (1241) 
pdb3efz

>  <RESIDUE_NAME>  (1241) 
ASP   LYS

>  <FRAG_NAME>  (1241) 
ACET   PRPA

>  <FRAG_ATOM_NUM>  (1241) 
fragi: 7  fragj: 11

>  <atom.prop.CHAIN_ID>  (1241) 
A A A A A A A Z Z Z Z Z Z Z Z Z Z Z

>  <atom.prop.IS_HEAVY_ATOM>  (1241) 
1 0 0 0 1 1 1 1 0 0 0 1 0 0 1 0 0 0

>  <DIFUSE_FUNC_ATOM>  (1241) 
atom 6   atom 7   

>  <FINAL_SINGLE_POINT_ENERGY>  (1241) 
0

>  <NONCOV_INTER_ENERGY_QM>  (1241) 
0

>  <FF_Energy>  (1241) 
37.46

>  <QM_Energy>  (1241) 
6.52

>  <source>  (1241) 
ACET_PRPA_12

>  <Index>  (1241) 
36780

$$$$
ACET-pdb3efz-A-ASP-233:PRPA-pdb3efz-A-LYS-188
     RDKit          3D

 18 16  0  0  0  0  0  0  0  0999 V2000
    0.0281    1.5125   -0.0179 C   0  0  0  0  0  0  0  0  0  0  0  0
    0.5192    1.8162   -0.8356 H   0  0  0  0  0  0  0  0  0  0  0  0
    0.5088    1.8367    0.7971 H   0  0  0  0  0  0  0  0  0  0  0  0
   -0.9556    1.9817   -0.0304 H   0  0  0  0  0  0  0  0  0  0  0  0
    0.0000    0.0000    0.0000 C   0  0  0  0  0  0  0  0  0  0  0  0
   -1.0957   -0.6043   -0.0000 O   0  0  0  0  0  1  0  0  0  0  0  0
    1.0957   -0.5819   -0.0000 O   0  0  0  0  0  0  0  0  0  0  0  0
    3.9212    0.3636    1.7069 C   0  0  0  0  0  0  0  0  0  0  0  0
    4.0555   -0.6209    1.8393 H   0  0  0  0  0  0  0  0  0  0  0  0
    3.2597    0.6982    2.3804 H   0  0  0  0  0  0  0  0  0  0  0  0
    4.8723    0.8713    1.8675 H   0  0  0  0  0  0  0  0  0  0  0  0
    3.3642    0.6016    0.3060 C   0  0  0  0  0  0  0  0  0  0  0  0
    3.6657   -0.1378   -0.2921 H   0  0  0  0  0  0  0  0  0  0  0  0
    2.3676    0.6167    0.3513 H   0  0  0  0  0  0  0  0  0  0  0  0
    3.8358    1.9326   -0.3025 C   0  0  0  0  0  0  0  0  0  0  0  0
    4.8461    1.8839   -0.4317 H   0  0  0  0  0  0  0  0  0  0  0  0
    3.4316    2.0185   -1.2358 H   0  0  0  0  0  0  0  0  0  0  0  0
    3.5995    2.8339    0.2632 H   0  0  0  0  0  0  0  0  0  0  0  0
  1  5  1  0
  5  6  1  0
  5  7  2  0
  1  2  1  0
  1  3  1  0
  1  4  1  0
  8 12  1  0
 12 15  1  0
  8  9  1  0
  8 10  1  0
  8 11  1  0
 12 13  1  0
 12 14  1  0
 15 16  1  0
 15 17  1  0
 15 18  1  0
M  CHG  1   6  -1
M  END
>  <PDB_ID>  (1242) 
pdb3efz

>  <RESIDUE_NAME>  (1242) 
ASP   LYS

>  <FRAG_NAME>  (1242) 
ACET   PRPA

>  <FRAG_ATOM_NUM>  (1242) 
fragi: 7  fragj: 11

>  <atom.prop.CHAIN_ID>  (1242) 
A A A A A A A Z Z Z Z Z Z Z Z Z Z Z

>  <atom.prop.IS_HEAVY_ATOM>  (1242) 
1 0 0 0 1 1 1 1 0 0 0 1 0 0 1 0 0 0

>  <DIFUSE_FUNC_ATOM>  (1242) 
atom 6   atom 7   

>  <FINAL_SINGLE_POINT_ENERGY>  (1242) 
0

>  <NONCOV_INTER_ENERGY_QM>  (1242) 
0

>  <FF_Energy>  (1242) 
41.51

>  <QM_Energy>  (1242) 
5.71

>  <source>  (1242) 
ACET_PRPA_12

>  <Index>  (1242) 
36783

$$$$
ACET-pdb3eb2-C-ASP-17:PRPA-pdb3eb2-C-ARG-21
     RDKit          3D

 18 16  0  0  0  0  0  0  0  0999 V2000
    0.0116    1.5132   -0.0133 C   0  0  0  0  0  0  0  0  0  0  0  0
   -0.2141    1.8284   -0.9283 H   0  0  0  0  0  0  0  0  0  0  0  0
    0.9155    1.8301    0.2496 H   0  0  0  0  0  0  0  0  0  0  0  0
   -0.7107    1.9470    0.6783 H   0  0  0  0  0  0  0  0  0  0  0  0
    0.0000    0.0000    0.0000 C   0  0  0  0  0  0  0  0  0  0  0  0
   -1.0963   -0.5983   -0.0000 O   0  0  0  0  0  1  0  0  0  0  0  0
    1.0963   -0.5934    0.0000 O   0  0  0  0  0  0  0  0  0  0  0  0
   -0.1321   -2.9314    2.6101 C   0  0  0  0  0  0  0  0  0  0  0  0
   -0.2273   -3.8346    3.0440 H   0  0  0  0  0  0  0  0  0  0  0  0
   -1.1028   -2.6230    2.2219 H   0  0  0  0  0  0  0  0  0  0  0  0
    0.2271   -2.2224    3.3559 H   0  0  0  0  0  0  0  0  0  0  0  0
    0.8989   -3.0500    1.4843 C   0  0  0  0  0  0  0  0  0  0  0  0
    0.8703   -2.2109    0.9473 H   0  0  0  0  0  0  0  0  0  0  0  0
    1.7989   -3.1586    1.8976 H   0  0  0  0  0  0  0  0  0  0  0  0
    0.6675   -4.2210    0.5434 C   0  0  0  0  0  0  0  0  0  0  0  0
    0.5374   -5.0539    1.0724 H   0  0  0  0  0  0  0  0  0  0  0  0
   -0.1324   -4.0419   -0.0213 H   0  0  0  0  0  0  0  0  0  0  0  0
    1.5209   -4.3701   -0.1183 H   0  0  0  0  0  0  0  0  0  0  0  0
  1  5  1  0
  5  6  1  0
  5  7  2  0
  1  2  1  0
  1  3  1  0
  1  4  1  0
  8 12  1  0
 12 15  1  0
  8  9  1  0
  8 10  1  0
  8 11  1  0
 12 13  1  0
 12 14  1  0
 15 16  1  0
 15 17  1  0
 15 18  1  0
M  CHG  1   6  -1
M  END
>  <PDB_ID>  (1243) 
pdb3eb2

>  <RESIDUE_NAME>  (1243) 
ASP   ARG

>  <FRAG_NAME>  (1243) 
ACET   PRPA

>  <FRAG_ATOM_NUM>  (1243) 
fragi: 7  fragj: 11

>  <atom.prop.CHAIN_ID>  (1243) 
A A A A A A A Z Z Z Z Z Z Z Z Z Z Z

>  <atom.prop.IS_HEAVY_ATOM>  (1243) 
1 0 0 0 1 1 1 1 0 0 0 1 0 0 1 0 0 0

>  <DIFUSE_FUNC_ATOM>  (1243) 
atom 6   atom 7   

>  <FINAL_SINGLE_POINT_ENERGY>  (1243) 
0

>  <NONCOV_INTER_ENERGY_QM>  (1243) 
0

>  <FF_Energy>  (1243) 
17.67

>  <QM_Energy>  (1243) 
-2.37

>  <source>  (1243) 
ACET_PRPA_12

>  <Index>  (1243) 
37036

$$$$
ACET-pdb3eb2-C-ASP-17:PRPA-pdb3eb2-C-ARG-21
     RDKit          3D

 18 16  0  0  0  0  0  0  0  0999 V2000
    0.0116    1.5132   -0.0133 C   0  0  0  0  0  0  0  0  0  0  0  0
   -0.2141    1.8284   -0.9283 H   0  0  0  0  0  0  0  0  0  0  0  0
    0.9155    1.8301    0.2496 H   0  0  0  0  0  0  0  0  0  0  0  0
   -0.7107    1.9470    0.6783 H   0  0  0  0  0  0  0  0  0  0  0  0
    0.0000    0.0000    0.0000 C   0  0  0  0  0  0  0  0  0  0  0  0
   -1.0963   -0.5983   -0.0000 O   0  0  0  0  0  1  0  0  0  0  0  0
    1.0963   -0.5934    0.0000 O   0  0  0  0  0  0  0  0  0  0  0  0
    0.8989   -3.0500    1.4843 C   0  0  0  0  0  0  0  0  0  0  0  0
    0.8703   -2.2109    0.9473 H   0  0  0  0  0  0  0  0  0  0  0  0
    1.7989   -3.1586    1.8976 H   0  0  0  0  0  0  0  0  0  0  0  0
    0.1649   -2.9656    2.2857 H   0  0  0  0  0  0  0  0  0  0  0  0
    0.6675   -4.2210    0.5434 C   0  0  0  0  0  0  0  0  0  0  0  0
    0.5374   -5.0539    1.0724 H   0  0  0  0  0  0  0  0  0  0  0  0
   -0.1324   -4.0419   -0.0213 H   0  0  0  0  0  0  0  0  0  0  0  0
    1.8616   -4.4297   -0.3825 C   0  0  0  0  0  0  0  0  0  0  0  0
    2.6723   -4.5600    0.1854 H   0  0  0  0  0  0  0  0  0  0  0  0
    1.6911   -5.2531   -0.9217 H   0  0  0  0  0  0  0  0  0  0  0  0
    2.0234   -3.5864   -1.0539 H   0  0  0  0  0  0  0  0  0  0  0  0
  1  5  1  0
  5  6  1  0
  5  7  2  0
  1  2  1  0
  1  3  1  0
  1  4  1  0
  8 12  1  0
 12 15  1  0
  8  9  1  0
  8 10  1  0
  8 11  1  0
 12 13  1  0
 12 14  1  0
 15 16  1  0
 15 17  1  0
 15 18  1  0
M  CHG  1   6  -1
M  END
>  <PDB_ID>  (1244) 
pdb3eb2

>  <RESIDUE_NAME>  (1244) 
ASP   ARG

>  <FRAG_NAME>  (1244) 
ACET   PRPA

>  <FRAG_ATOM_NUM>  (1244) 
fragi: 7  fragj: 11

>  <atom.prop.CHAIN_ID>  (1244) 
A A A A A A A Z Z Z Z Z Z Z Z Z Z Z

>  <atom.prop.IS_HEAVY_ATOM>  (1244) 
1 0 0 0 1 1 1 1 0 0 0 1 0 0 1 0 0 0

>  <DIFUSE_FUNC_ATOM>  (1244) 
atom 6   atom 7   

>  <FINAL_SINGLE_POINT_ENERGY>  (1244) 
0

>  <NONCOV_INTER_ENERGY_QM>  (1244) 
0

>  <FF_Energy>  (1244) 
15.27

>  <QM_Energy>  (1244) 
-1.64

>  <source>  (1244) 
ACET_PRPA_12

>  <Index>  (1244) 
37039

$$$$
ACET-pdb3ecd-A-GLU-357:PRPA-pdb3ecd-A-LYS-332
     RDKit          3D

 18 16  0  0  0  0  0  0  0  0999 V2000
    0.0394    1.5367    0.0245 C   0  0  0  0  0  0  0  0  0  0  0  0
    0.6915    1.8207   -0.6637 H   0  0  0  0  0  0  0  0  0  0  0  0
    0.3389    1.8040    0.9294 H   0  0  0  0  0  0  0  0  0  0  0  0
   -0.9111    2.0289   -0.1815 H   0  0  0  0  0  0  0  0  0  0  0  0
    0.0000    0.0000    0.0000 C   0  0  0  0  0  0  0  0  0  0  0  0
   -1.0946   -0.6099   -0.0000 O   0  0  0  0  0  1  0  0  0  0  0  0
    1.0946   -0.6021   -0.0000 O   0  0  0  0  0  0  0  0  0  0  0  0
    0.5085   -0.9764    4.7906 C   0  0  0  0  0  0  0  0  0  0  0  0
    1.3536   -1.3704    5.1595 H   0  0  0  0  0  0  0  0  0  0  0  0
   -0.1999   -1.6847    4.7655 H   0  0  0  0  0  0  0  0  0  0  0  0
    0.1798   -0.1670    5.4426 H   0  0  0  0  0  0  0  0  0  0  0  0
    0.7658   -0.4872    3.3877 C   0  0  0  0  0  0  0  0  0  0  0  0
   -0.0910   -0.2002    2.9800 H   0  0  0  0  0  0  0  0  0  0  0  0
    1.4140    0.2621    3.4160 H   0  0  0  0  0  0  0  0  0  0  0  0
    1.3525   -1.6019    2.5457 C   0  0  0  0  0  0  0  0  0  0  0  0
    1.1151   -1.4488    1.5885 H   0  0  0  0  0  0  0  0  0  0  0  0
    2.3459   -1.6039    2.6497 H   0  0  0  0  0  0  0  0  0  0  0  0
    0.9577   -2.5670    2.8631 H   0  0  0  0  0  0  0  0  0  0  0  0
  1  5  1  0
  5  6  1  0
  5  7  2  0
  1  2  1  0
  1  3  1  0
  1  4  1  0
  8 12  1  0
 12 15  1  0
  8  9  1  0
  8 10  1  0
  8 11  1  0
 12 13  1  0
 12 14  1  0
 15 16  1  0
 15 17  1  0
 15 18  1  0
M  CHG  1   6  -1
M  END
>  <PDB_ID>  (1245) 
pdb3ecd

>  <RESIDUE_NAME>  (1245) 
GLU   LYS

>  <FRAG_NAME>  (1245) 
ACET   PRPA

>  <FRAG_ATOM_NUM>  (1245) 
fragi: 7  fragj: 11

>  <atom.prop.CHAIN_ID>  (1245) 
A A A A A A A Z Z Z Z Z Z Z Z Z Z Z

>  <atom.prop.IS_HEAVY_ATOM>  (1245) 
1 0 0 0 1 1 1 1 0 0 0 1 0 0 1 0 0 0

>  <DIFUSE_FUNC_ATOM>  (1245) 
atom 6   atom 7   

>  <FINAL_SINGLE_POINT_ENERGY>  (1245) 
0

>  <NONCOV_INTER_ENERGY_QM>  (1245) 
0

>  <FF_Energy>  (1245) 
28.84

>  <QM_Energy>  (1245) 
-0.29

>  <source>  (1245) 
ACET_PRPA_12

>  <Index>  (1245) 
37167

$$$$
ACET-pdb3dxb-G-ASP-545:PRPA-pdb3dxb-G-ARG-548
     RDKit          3D

 18 16  0  0  0  0  0  0  0  0999 V2000
   -0.0087    1.5197    0.0053 C   0  0  0  0  0  0  0  0  0  0  0  0
   -0.5188    1.8390   -0.7833 H   0  0  0  0  0  0  0  0  0  0  0  0
    0.9272    1.8450   -0.0265 H   0  0  0  0  0  0  0  0  0  0  0  0
   -0.4782    1.9310    0.8990 H   0  0  0  0  0  0  0  0  0  0  0  0
    0.0000    0.0000    0.0000 C   0  0  0  0  0  0  0  0  0  0  0  0
   -1.0922   -0.5992    0.0000 O   0  0  0  0  0  1  0  0  0  0  0  0
    1.0922   -0.6020    0.0000 O   0  0  0  0  0  0  0  0  0  0  0  0
    3.9802    1.4478    0.5442 C   0  0  0  0  0  0  0  0  0  0  0  0
    3.2149    1.9362    0.9562 H   0  0  0  0  0  0  0  0  0  0  0  0
    4.7185    2.0847    0.3384 H   0  0  0  0  0  0  0  0  0  0  0  0
    4.3500    0.7241    1.2706 H   0  0  0  0  0  0  0  0  0  0  0  0
    3.5032    0.8387   -0.7658 C   0  0  0  0  0  0  0  0  0  0  0  0
    4.2040    0.2239   -1.1204 H   0  0  0  0  0  0  0  0  0  0  0  0
    2.6572    0.3351   -0.6081 H   0  0  0  0  0  0  0  0  0  0  0  0
    3.2317    1.9042   -1.8127 C   0  0  0  0  0  0  0  0  0  0  0  0
    2.4975    1.5830   -2.3987 H   0  0  0  0  0  0  0  0  0  0  0  0
    2.9662    2.7377   -1.3432 H   0  0  0  0  0  0  0  0  0  0  0  0
    4.1202    2.0936   -2.4149 H   0  0  0  0  0  0  0  0  0  0  0  0
  1  5  1  0
  5  6  1  0
  5  7  2  0
  1  2  1  0
  1  3  1  0
  1  4  1  0
  8 12  1  0
 12 15  1  0
  8  9  1  0
  8 10  1  0
  8 11  1  0
 12 13  1  0
 12 14  1  0
 15 16  1  0
 15 17  1  0
 15 18  1  0
M  CHG  1   6  -1
M  END
>  <PDB_ID>  (1246) 
pdb3dxb

>  <RESIDUE_NAME>  (1246) 
ASP   ARG

>  <FRAG_NAME>  (1246) 
ACET   PRPA

>  <FRAG_ATOM_NUM>  (1246) 
fragi: 7  fragj: 11

>  <atom.prop.CHAIN_ID>  (1246) 
A A A A A A A Z Z Z Z Z Z Z Z Z Z Z

>  <atom.prop.IS_HEAVY_ATOM>  (1246) 
1 0 0 0 1 1 1 1 0 0 0 1 0 0 1 0 0 0

>  <DIFUSE_FUNC_ATOM>  (1246) 
atom 6   atom 7   

>  <FINAL_SINGLE_POINT_ENERGY>  (1246) 
0

>  <NONCOV_INTER_ENERGY_QM>  (1246) 
0

>  <FF_Energy>  (1246) 
13.05

>  <QM_Energy>  (1246) 
-2.32

>  <source>  (1246) 
ACET_PRPA_12

>  <Index>  (1246) 
37195

$$$$
ACET-pdb3e9n-E-ASP-54:PRPA-pdb3e9n-E-LYS-57
     RDKit          3D

 18 16  0  0  0  0  0  0  0  0999 V2000
   -0.0067    1.5106   -0.0192 C   0  0  0  0  0  0  0  0  0  0  0  0
    0.9155    1.8325   -0.2101 H   0  0  0  0  0  0  0  0  0  0  0  0
   -0.3094    1.8413    0.8686 H   0  0  0  0  0  0  0  0  0  0  0  0
   -0.6727    1.9190   -0.7792 H   0  0  0  0  0  0  0  0  0  0  0  0
    0.0000    0.0000    0.0000 C   0  0  0  0  0  0  0  0  0  0  0  0
   -1.1211   -0.5837   -0.0000 O   0  0  0  0  0  1  0  0  0  0  0  0
    1.1211   -0.5956    0.0000 O   0  0  0  0  0  0  0  0  0  0  0  0
   -1.8347   -0.5903    3.0842 C   0  0  0  0  0  0  0  0  0  0  0  0
   -1.6531    0.2414    2.5559 H   0  0  0  0  0  0  0  0  0  0  0  0
   -1.6021   -0.4252    4.0459 H   0  0  0  0  0  0  0  0  0  0  0  0
   -2.9019   -0.8042    3.0252 H   0  0  0  0  0  0  0  0  0  0  0  0
   -0.9287   -1.6949    2.5583 C   0  0  0  0  0  0  0  0  0  0  0  0
   -1.0966   -2.5308    3.0849 H   0  0  0  0  0  0  0  0  0  0  0  0
   -1.1474   -1.8633    1.5952 H   0  0  0  0  0  0  0  0  0  0  0  0
    0.5376   -1.3260    2.6744 C   0  0  0  0  0  0  0  0  0  0  0  0
    0.7009   -0.4880    2.1486 H   0  0  0  0  0  0  0  0  0  0  0  0
    0.7521   -1.1577    3.6377 H   0  0  0  0  0  0  0  0  0  0  0  0
    1.1997   -2.1073    2.3011 H   0  0  0  0  0  0  0  0  0  0  0  0
  1  5  1  0
  5  6  1  0
  5  7  2  0
  1  2  1  0
  1  3  1  0
  1  4  1  0
  8 12  1  0
 12 15  1  0
  8  9  1  0
  8 10  1  0
  8 11  1  0
 12 13  1  0
 12 14  1  0
 15 16  1  0
 15 17  1  0
 15 18  1  0
M  CHG  1   6  -1
M  END
>  <PDB_ID>  (1247) 
pdb3e9n

>  <RESIDUE_NAME>  (1247) 
ASP   LYS

>  <FRAG_NAME>  (1247) 
ACET   PRPA

>  <FRAG_ATOM_NUM>  (1247) 
fragi: 7  fragj: 11

>  <atom.prop.CHAIN_ID>  (1247) 
A A A A A A A Z Z Z Z Z Z Z Z Z Z Z

>  <atom.prop.IS_HEAVY_ATOM>  (1247) 
1 0 0 0 1 1 1 1 0 0 0 1 0 0 1 0 0 0

>  <DIFUSE_FUNC_ATOM>  (1247) 
atom 6   atom 7   

>  <FINAL_SINGLE_POINT_ENERGY>  (1247) 
0

>  <NONCOV_INTER_ENERGY_QM>  (1247) 
0

>  <FF_Energy>  (1247) 
16.24

>  <QM_Energy>  (1247) 
0.83

>  <source>  (1247) 
ACET_PRPA_12

>  <Index>  (1247) 
37652

$$$$
ACET-pdb3e9n-E-ASP-54:PRPA-pdb3e9n-E-LYS-57
     RDKit          3D

 18 16  0  0  0  0  0  0  0  0999 V2000
   -0.0067    1.5106   -0.0192 C   0  0  0  0  0  0  0  0  0  0  0  0
    0.9155    1.8325   -0.2101 H   0  0  0  0  0  0  0  0  0  0  0  0
   -0.3094    1.8413    0.8686 H   0  0  0  0  0  0  0  0  0  0  0  0
   -0.6727    1.9190   -0.7792 H   0  0  0  0  0  0  0  0  0  0  0  0
    0.0000    0.0000    0.0000 C   0  0  0  0  0  0  0  0  0  0  0  0
   -1.1211   -0.5837   -0.0000 O   0  0  0  0  0  1  0  0  0  0  0  0
    1.1211   -0.5956    0.0000 O   0  0  0  0  0  0  0  0  0  0  0  0
   -0.9287   -1.6949    2.5583 C   0  0  0  0  0  0  0  0  0  0  0  0
   -1.0966   -2.5308    3.0849 H   0  0  0  0  0  0  0  0  0  0  0  0
   -1.1474   -1.8633    1.5952 H   0  0  0  0  0  0  0  0  0  0  0  0
   -1.5774   -0.9040    2.9348 H   0  0  0  0  0  0  0  0  0  0  0  0
    0.5376   -1.3260    2.6744 C   0  0  0  0  0  0  0  0  0  0  0  0
    0.7009   -0.4880    2.1486 H   0  0  0  0  0  0  0  0  0  0  0  0
    0.7521   -1.1577    3.6377 H   0  0  0  0  0  0  0  0  0  0  0  0
    1.4549   -2.4084    2.1573 C   0  0  0  0  0  0  0  0  0  0  0  0
    1.3021   -3.2473    2.6807 H   0  0  0  0  0  0  0  0  0  0  0  0
    1.2514   -2.5791    1.1923 H   0  0  0  0  0  0  0  0  0  0  0  0
    2.4989   -2.1107    2.2558 H   0  0  0  0  0  0  0  0  0  0  0  0
  1  5  1  0
  5  6  1  0
  5  7  2  0
  1  2  1  0
  1  3  1  0
  1  4  1  0
  8 12  1  0
 12 15  1  0
  8  9  1  0
  8 10  1  0
  8 11  1  0
 12 13  1  0
 12 14  1  0
 15 16  1  0
 15 17  1  0
 15 18  1  0
M  CHG  1   6  -1
M  END
>  <PDB_ID>  (1248) 
pdb3e9n

>  <RESIDUE_NAME>  (1248) 
ASP   LYS

>  <FRAG_NAME>  (1248) 
ACET   PRPA

>  <FRAG_ATOM_NUM>  (1248) 
fragi: 7  fragj: 11

>  <atom.prop.CHAIN_ID>  (1248) 
A A A A A A A Z Z Z Z Z Z Z Z Z Z Z

>  <atom.prop.IS_HEAVY_ATOM>  (1248) 
1 0 0 0 1 1 1 1 0 0 0 1 0 0 1 0 0 0

>  <DIFUSE_FUNC_ATOM>  (1248) 
atom 6   atom 7   

>  <FINAL_SINGLE_POINT_ENERGY>  (1248) 
0

>  <NONCOV_INTER_ENERGY_QM>  (1248) 
0

>  <FF_Energy>  (1248) 
23.85

>  <QM_Energy>  (1248) 
0.98

>  <source>  (1248) 
ACET_PRPA_12

>  <Index>  (1248) 
37660

$$$$
ACET-pdb3eop-A-ASP-162:PRPA-pdb3eop-A-LYS-131
     RDKit          3D

 18 16  0  0  0  0  0  0  0  0999 V2000
    0.0137    1.5221    0.0083 C   0  0  0  0  0  0  0  0  0  0  0  0
    0.4974    1.8396   -0.8002 H   0  0  0  0  0  0  0  0  0  0  0  0
    0.4732    1.8309    0.8326 H   0  0  0  0  0  0  0  0  0  0  0  0
   -0.9857    1.9569   -0.0044 H   0  0  0  0  0  0  0  0  0  0  0  0
    0.0000    0.0000    0.0000 C   0  0  0  0  0  0  0  0  0  0  0  0
   -1.1018   -0.5946    0.0000 O   0  0  0  0  0  1  0  0  0  0  0  0
    1.1018   -0.5951   -0.0000 O   0  0  0  0  0  0  0  0  0  0  0  0
    1.7331    1.6292   -2.7871 C   0  0  0  0  0  0  0  0  0  0  0  0
    2.5658    1.6818   -2.2490 H   0  0  0  0  0  0  0  0  0  0  0  0
    0.9385    1.5703   -2.1931 H   0  0  0  0  0  0  0  0  0  0  0  0
    1.6496    2.5420   -3.3771 H   0  0  0  0  0  0  0  0  0  0  0  0
    1.7912    0.3706   -3.6418 C   0  0  0  0  0  0  0  0  0  0  0  0
    0.9241    0.2729   -4.1362 H   0  0  0  0  0  0  0  0  0  0  0  0
    2.5377    0.4610   -4.3039 H   0  0  0  0  0  0  0  0  0  0  0  0
    2.0229   -0.8733   -2.8038 C   0  0  0  0  0  0  0  0  0  0  0  0
    2.9057   -0.7987   -2.3518 H   0  0  0  0  0  0  0  0  0  0  0  0
    1.2941   -0.9516   -2.1315 H   0  0  0  0  0  0  0  0  0  0  0  0
    2.0233   -1.7711   -3.4219 H   0  0  0  0  0  0  0  0  0  0  0  0
  1  5  1  0
  5  6  1  0
  5  7  2  0
  1  2  1  0
  1  3  1  0
  1  4  1  0
  8 12  1  0
 12 15  1  0
  8  9  1  0
  8 10  1  0
  8 11  1  0
 12 13  1  0
 12 14  1  0
 15 16  1  0
 15 17  1  0
 15 18  1  0
M  CHG  1   6  -1
M  END
>  <PDB_ID>  (1249) 
pdb3eop

>  <RESIDUE_NAME>  (1249) 
ASP   LYS

>  <FRAG_NAME>  (1249) 
ACET   PRPA

>  <FRAG_ATOM_NUM>  (1249) 
fragi: 7  fragj: 11

>  <atom.prop.CHAIN_ID>  (1249) 
A A A A A A A Z Z Z Z Z Z Z Z Z Z Z

>  <atom.prop.IS_HEAVY_ATOM>  (1249) 
1 0 0 0 1 1 1 1 0 0 0 1 0 0 1 0 0 0

>  <DIFUSE_FUNC_ATOM>  (1249) 
atom 6   atom 7   

>  <FINAL_SINGLE_POINT_ENERGY>  (1249) 
0

>  <NONCOV_INTER_ENERGY_QM>  (1249) 
0

>  <FF_Energy>  (1249) 
34.43

>  <QM_Energy>  (1249) 
3.3

>  <source>  (1249) 
ACET_PRPA_12

>  <Index>  (1249) 
38524

$$$$
ACET-pdb3epz-A-ASP-423:PRPA-pdb3epz-A-ILE-506
     RDKit          3D

 18 16  0  0  0  0  0  0  0  0999 V2000
   -0.0122    1.5362    0.0136 C   0  0  0  0  0  0  0  0  0  0  0  0
   -0.9458    1.8423    0.1411 H   0  0  0  0  0  0  0  0  0  0  0  0
    0.3540    1.8617   -0.8474 H   0  0  0  0  0  0  0  0  0  0  0  0
    0.5915    1.9589    0.8167 H   0  0  0  0  0  0  0  0  0  0  0  0
    0.0000    0.0000    0.0000 C   0  0  0  0  0  0  0  0  0  0  0  0
   -1.0822   -0.6092   -0.0000 O   0  0  0  0  0  1  0  0  0  0  0  0
    1.0822   -0.6137   -0.0000 O   0  0  0  0  0  0  0  0  0  0  0  0
   -5.5718    2.2532   -0.5687 C   0  0  0  0  0  0  0  0  0  0  0  0
   -6.1055    2.9324   -0.0470 H   0  0  0  0  0  0  0  0  0  0  0  0
   -6.1187    1.3130   -0.4978 H   0  0  0  0  0  0  0  0  0  0  0  0
   -5.5157    2.6286   -1.5905 H   0  0  0  0  0  0  0  0  0  0  0  0
   -4.1646    2.2141    0.1089 C   0  0  0  0  0  0  0  0  0  0  0  0
   -3.8503    3.1534    0.1856 H   0  0  0  0  0  0  0  0  0  0  0  0
   -4.1960    1.8282    1.1278 H   0  0  0  0  0  0  0  0  0  0  0  0
   -3.1884    1.4396   -0.7481 C   0  0  0  0  0  0  0  0  0  0  0  0
   -3.1597    1.8883   -1.6494 H   0  0  0  0  0  0  0  0  0  0  0  0
   -2.2770    1.5485   -0.3306 H   0  0  0  0  0  0  0  0  0  0  0  0
   -3.4527    0.3860   -0.8390 H   0  0  0  0  0  0  0  0  0  0  0  0
  1  5  1  0
  5  6  1  0
  5  7  2  0
  1  2  1  0
  1  3  1  0
  1  4  1  0
  8 12  1  0
 12 15  1  0
  8  9  1  0
  8 10  1  0
  8 11  1  0
 12 13  1  0
 12 14  1  0
 15 16  1  0
 15 17  1  0
 15 18  1  0
M  CHG  1   6  -1
M  END
>  <PDB_ID>  (1250) 
pdb3epz

>  <RESIDUE_NAME>  (1250) 
ASP   ILE

>  <FRAG_NAME>  (1250) 
ACET   PRPA

>  <FRAG_ATOM_NUM>  (1250) 
fragi: 7  fragj: 11

>  <atom.prop.CHAIN_ID>  (1250) 
A A A A A A A Z Z Z Z Z Z Z Z Z Z Z

>  <atom.prop.IS_HEAVY_ATOM>  (1250) 
1 0 0 0 1 1 1 1 0 0 0 1 0 0 1 0 0 0

>  <DIFUSE_FUNC_ATOM>  (1250) 
atom 6   atom 7   

>  <FINAL_SINGLE_POINT_ENERGY>  (1250) 
0

>  <NONCOV_INTER_ENERGY_QM>  (1250) 
0

>  <FF_Energy>  (1250) 
44.57

>  <QM_Energy>  (1250) 
5.59

>  <source>  (1250) 
ACET_PRPA_12

>  <Index>  (1250) 
39158

$$$$
ACET-pdb3epz-A-ASP-423:PRPA-pdb3epz-A-ILE-506
     RDKit          3D

 18 16  0  0  0  0  0  0  0  0999 V2000
   -0.0122    1.5362    0.0136 C   0  0  0  0  0  0  0  0  0  0  0  0
   -0.9458    1.8423    0.1411 H   0  0  0  0  0  0  0  0  0  0  0  0
    0.3540    1.8617   -0.8474 H   0  0  0  0  0  0  0  0  0  0  0  0
    0.5915    1.9589    0.8167 H   0  0  0  0  0  0  0  0  0  0  0  0
    0.0000    0.0000    0.0000 C   0  0  0  0  0  0  0  0  0  0  0  0
   -1.0822   -0.6092   -0.0000 O   0  0  0  0  0  1  0  0  0  0  0  0
    1.0822   -0.6137   -0.0000 O   0  0  0  0  0  0  0  0  0  0  0  0
   -3.1884    1.4396   -0.7481 C   0  0  0  0  0  0  0  0  0  0  0  0
   -3.1597    1.8883   -1.6494 H   0  0  0  0  0  0  0  0  0  0  0  0
   -2.2770    1.5485   -0.3306 H   0  0  0  0  0  0  0  0  0  0  0  0
   -3.4527    0.3860   -0.8390 H   0  0  0  0  0  0  0  0  0  0  0  0
   -4.1646    2.2141    0.1089 C   0  0  0  0  0  0  0  0  0  0  0  0
   -3.8503    3.1534    0.1856 H   0  0  0  0  0  0  0  0  0  0  0  0
   -5.1463    2.2414   -0.3639 H   0  0  0  0  0  0  0  0  0  0  0  0
   -4.2089    1.6690    1.5480 C   0  0  0  0  0  0  0  0  0  0  0  0
   -3.3019    1.7438    1.9521 H   0  0  0  0  0  0  0  0  0  0  0  0
   -4.8611    2.2037    2.0775 H   0  0  0  0  0  0  0  0  0  0  0  0
   -4.4922    0.7145    1.5258 H   0  0  0  0  0  0  0  0  0  0  0  0
  1  5  1  0
  5  6  1  0
  5  7  2  0
  1  2  1  0
  1  3  1  0
  1  4  1  0
  8 12  1  0
 12 15  1  0
  8  9  1  0
  8 10  1  0
  8 11  1  0
 12 13  1  0
 12 14  1  0
 15 16  1  0
 15 17  1  0
 15 18  1  0
M  CHG  1   6  -1
M  END
>  <PDB_ID>  (1251) 
pdb3epz

>  <RESIDUE_NAME>  (1251) 
ASP   ILE

>  <FRAG_NAME>  (1251) 
ACET   PRPA

>  <FRAG_ATOM_NUM>  (1251) 
fragi: 7  fragj: 11

>  <atom.prop.CHAIN_ID>  (1251) 
A A A A A A A Z Z Z Z Z Z Z Z Z Z Z

>  <atom.prop.IS_HEAVY_ATOM>  (1251) 
1 0 0 0 1 1 1 1 0 0 0 1 0 0 1 0 0 0

>  <DIFUSE_FUNC_ATOM>  (1251) 
atom 6   atom 7   

>  <FINAL_SINGLE_POINT_ENERGY>  (1251) 
0

>  <NONCOV_INTER_ENERGY_QM>  (1251) 
0

>  <FF_Energy>  (1251) 
44.54

>  <QM_Energy>  (1251) 
5.12

>  <source>  (1251) 
ACET_PRPA_12

>  <Index>  (1251) 
39167

$$$$
ACET-pdb3ei3-A-GLU-312:PRPA-pdb3ei3-A-ARG-327
     RDKit          3D

 18 16  0  0  0  0  0  0  0  0999 V2000
    0.0177    1.5089    0.0304 C   0  0  0  0  0  0  0  0  0  0  0  0
    0.9388    1.7865    0.2734 H   0  0  0  0  0  0  0  0  0  0  0  0
   -0.6297    1.7953    0.7266 H   0  0  0  0  0  0  0  0  0  0  0  0
   -0.2519    1.9775   -0.9160 H   0  0  0  0  0  0  0  0  0  0  0  0
    0.0000    0.0000    0.0000 C   0  0  0  0  0  0  0  0  0  0  0  0
   -1.0951   -0.5915   -0.0000 O   0  0  0  0  0  1  0  0  0  0  0  0
    1.0951   -0.5953    0.0000 O   0  0  0  0  0  0  0  0  0  0  0  0
    0.2743    4.0657    2.8943 C   0  0  0  0  0  0  0  0  0  0  0  0
    0.2666    4.1048    3.8990 H   0  0  0  0  0  0  0  0  0  0  0  0
   -0.6757    4.0017    2.5705 H   0  0  0  0  0  0  0  0  0  0  0  0
    0.6736    5.0151    2.5374 H   0  0  0  0  0  0  0  0  0  0  0  0
    1.0130    2.8404    2.4656 C   0  0  0  0  0  0  0  0  0  0  0  0
    0.8928    2.6841    1.4848 H   0  0  0  0  0  0  0  0  0  0  0  0
    1.9884    2.9304    2.6690 H   0  0  0  0  0  0  0  0  0  0  0  0
    0.5155    1.5715    3.1910 C   0  0  0  0  0  0  0  0  0  0  0  0
   -0.2332    1.8351    3.7793 H   0  0  0  0  0  0  0  0  0  0  0  0
    0.2241    0.9272    2.5013 H   0  0  0  0  0  0  0  0  0  0  0  0
    1.3137    1.1320    3.7891 H   0  0  0  0  0  0  0  0  0  0  0  0
  1  5  1  0
  5  6  1  0
  5  7  2  0
  1  2  1  0
  1  3  1  0
  1  4  1  0
  8 12  1  0
 12 15  1  0
  8  9  1  0
  8 10  1  0
  8 11  1  0
 12 13  1  0
 12 14  1  0
 15 16  1  0
 15 17  1  0
 15 18  1  0
M  CHG  1   6  -1
M  END
>  <PDB_ID>  (1252) 
pdb3ei3

>  <RESIDUE_NAME>  (1252) 
GLU   ARG

>  <FRAG_NAME>  (1252) 
ACET   PRPA

>  <FRAG_ATOM_NUM>  (1252) 
fragi: 7  fragj: 11

>  <atom.prop.CHAIN_ID>  (1252) 
A A A A A A A Z Z Z Z Z Z Z Z Z Z Z

>  <atom.prop.IS_HEAVY_ATOM>  (1252) 
1 0 0 0 1 1 1 1 0 0 0 1 0 0 1 0 0 0

>  <DIFUSE_FUNC_ATOM>  (1252) 
atom 6   atom 7   

>  <FINAL_SINGLE_POINT_ENERGY>  (1252) 
0

>  <NONCOV_INTER_ENERGY_QM>  (1252) 
0

>  <FF_Energy>  (1252) 
49.23

>  <QM_Energy>  (1252) 
6.2

>  <source>  (1252) 
ACET_PRPA_12

>  <Index>  (1252) 
39465

$$$$
ACET-pdb3ei3-A-GLU-312:PRPA-pdb3ei3-A-ARG-327
     RDKit          3D

 18 16  0  0  0  0  0  0  0  0999 V2000
    0.0177    1.5089    0.0304 C   0  0  0  0  0  0  0  0  0  0  0  0
    0.9388    1.7865    0.2734 H   0  0  0  0  0  0  0  0  0  0  0  0
   -0.6297    1.7953    0.7266 H   0  0  0  0  0  0  0  0  0  0  0  0
   -0.2519    1.9775   -0.9160 H   0  0  0  0  0  0  0  0  0  0  0  0
    0.0000    0.0000    0.0000 C   0  0  0  0  0  0  0  0  0  0  0  0
   -1.0951   -0.5915   -0.0000 O   0  0  0  0  0  1  0  0  0  0  0  0
    1.0951   -0.5953    0.0000 O   0  0  0  0  0  0  0  0  0  0  0  0
    0.8401    5.4112    2.3886 C   0  0  0  0  0  0  0  0  0  0  0  0
    0.1089    6.0347    2.7161 H   0  0  0  0  0  0  0  0  0  0  0  0
    0.8887    5.4636    1.3009 H   0  0  0  0  0  0  0  0  0  0  0  0
    1.7728    5.6998    2.8733 H   0  0  0  0  0  0  0  0  0  0  0  0
    0.2743    4.0657    2.8943 C   0  0  0  0  0  0  0  0  0  0  0  0
    0.2666    4.1048    3.8990 H   0  0  0  0  0  0  0  0  0  0  0  0
   -0.6757    4.0017    2.5705 H   0  0  0  0  0  0  0  0  0  0  0  0
    1.0130    2.8404    2.4656 C   0  0  0  0  0  0  0  0  0  0  0  0
    0.8928    2.6841    1.4848 H   0  0  0  0  0  0  0  0  0  0  0  0
    1.9884    2.9304    2.6690 H   0  0  0  0  0  0  0  0  0  0  0  0
    0.6618    1.9446    2.9777 H   0  0  0  0  0  0  0  0  0  0  0  0
  1  5  1  0
  5  6  1  0
  5  7  2  0
  1  2  1  0
  1  3  1  0
  1  4  1  0
  8 12  1  0
 12 15  1  0
  8  9  1  0
  8 10  1  0
  8 11  1  0
 12 13  1  0
 12 14  1  0
 15 16  1  0
 15 17  1  0
 15 18  1  0
M  CHG  1   6  -1
M  END
>  <PDB_ID>  (1253) 
pdb3ei3

>  <RESIDUE_NAME>  (1253) 
GLU   ARG

>  <FRAG_NAME>  (1253) 
ACET   PRPA

>  <FRAG_ATOM_NUM>  (1253) 
fragi: 7  fragj: 11

>  <atom.prop.CHAIN_ID>  (1253) 
A A A A A A A Z Z Z Z Z Z Z Z Z Z Z

>  <atom.prop.IS_HEAVY_ATOM>  (1253) 
1 0 0 0 1 1 1 1 0 0 0 1 0 0 1 0 0 0

>  <DIFUSE_FUNC_ATOM>  (1253) 
atom 6   atom 7   

>  <FINAL_SINGLE_POINT_ENERGY>  (1253) 
0

>  <NONCOV_INTER_ENERGY_QM>  (1253) 
0

>  <FF_Energy>  (1253) 
41.14

>  <QM_Energy>  (1253) 
8.01

>  <source>  (1253) 
ACET_PRPA_12

>  <Index>  (1253) 
39468

$$$$
ACET-pdb3exc-X-ASP-40:PRPA-pdb3exc-X-ARG-43
     RDKit          3D

 18 16  0  0  0  0  0  0  0  0999 V2000
    0.0508    1.4981    0.0208 C   0  0  0  0  0  0  0  0  0  0  0  0
    0.3968    1.8259   -0.8559 H   0  0  0  0  0  0  0  0  0  0  0  0
    0.6544    1.7952    0.7563 H   0  0  0  0  0  0  0  0  0  0  0  0
   -0.9242    1.9568    0.1854 H   0  0  0  0  0  0  0  0  0  0  0  0
    0.0000    0.0000    0.0000 C   0  0  0  0  0  0  0  0  0  0  0  0
   -1.1302   -0.5928   -0.0000 O   0  0  0  0  0  1  0  0  0  0  0  0
    1.1302   -0.5557   -0.0000 O   0  0  0  0  0  0  0  0  0  0  0  0
    2.3667    3.7208   -0.8265 C   0  0  0  0  0  0  0  0  0  0  0  0
    2.9056    2.9259   -1.1370 H   0  0  0  0  0  0  0  0  0  0  0  0
    2.0132    3.5175    0.0962 H   0  0  0  0  0  0  0  0  0  0  0  0
    3.0428    4.5720   -0.7457 H   0  0  0  0  0  0  0  0  0  0  0  0
    1.1472    3.8474   -1.7693 C   0  0  0  0  0  0  0  0  0  0  0  0
    0.3853    3.3364   -1.3936 H   0  0  0  0  0  0  0  0  0  0  0  0
    0.9117    4.8048   -1.8772 H   0  0  0  0  0  0  0  0  0  0  0  0
    1.4471    3.2743   -3.1874 C   0  0  0  0  0  0  0  0  0  0  0  0
    0.6034    2.9251   -3.5451 H   0  0  0  0  0  0  0  0  0  0  0  0
    1.8112    4.0093   -3.7263 H   0  0  0  0  0  0  0  0  0  0  0  0
    2.1802    2.4725   -3.0988 H   0  0  0  0  0  0  0  0  0  0  0  0
  1  5  1  0
  5  6  1  0
  5  7  2  0
  1  2  1  0
  1  3  1  0
  1  4  1  0
  8 12  1  0
 12 15  1  0
  8  9  1  0
  8 10  1  0
  8 11  1  0
 12 13  1  0
 12 14  1  0
 15 16  1  0
 15 17  1  0
 15 18  1  0
M  CHG  1   6  -1
M  END
>  <PDB_ID>  (1254) 
pdb3exc

>  <RESIDUE_NAME>  (1254) 
ASP   ARG

>  <FRAG_NAME>  (1254) 
ACET   PRPA

>  <FRAG_ATOM_NUM>  (1254) 
fragi: 7  fragj: 11

>  <atom.prop.CHAIN_ID>  (1254) 
A A A A A A A Z Z Z Z Z Z Z Z Z Z Z

>  <atom.prop.IS_HEAVY_ATOM>  (1254) 
1 0 0 0 1 1 1 1 0 0 0 1 0 0 1 0 0 0

>  <DIFUSE_FUNC_ATOM>  (1254) 
atom 6   atom 7   

>  <FINAL_SINGLE_POINT_ENERGY>  (1254) 
0

>  <NONCOV_INTER_ENERGY_QM>  (1254) 
0

>  <FF_Energy>  (1254) 
18.29

>  <QM_Energy>  (1254) 
2.72

>  <source>  (1254) 
ACET_PRPA_13

>  <Index>  (1254) 
1157

$$$$
ACET-pdb3e9n-H-ASP-54:PRPA-pdb3e9n-H-LYS-57
     RDKit          3D

 18 16  0  0  0  0  0  0  0  0999 V2000
    0.0242    1.5595    0.0416 C   0  0  0  0  0  0  0  0  0  0  0  0
    0.7782    1.8646   -0.5200 H   0  0  0  0  0  0  0  0  0  0  0  0
    0.1438    1.8348    0.9826 H   0  0  0  0  0  0  0  0  0  0  0  0
   -0.8943    2.0073   -0.3378 H   0  0  0  0  0  0  0  0  0  0  0  0
    0.0000    0.0000    0.0000 C   0  0  0  0  0  0  0  0  0  0  0  0
   -1.1064   -0.6196   -0.0000 O   0  0  0  0  0  1  0  0  0  0  0  0
    1.1064   -0.6052   -0.0000 O   0  0  0  0  0  0  0  0  0  0  0  0
    0.4089   -1.9320    2.6671 C   0  0  0  0  0  0  0  0  0  0  0  0
    0.5018   -2.7901    3.1692 H   0  0  0  0  0  0  0  0  0  0  0  0
   -0.0521   -2.0987    1.7974 H   0  0  0  0  0  0  0  0  0  0  0  0
   -0.1863   -1.2365    3.2589 H   0  0  0  0  0  0  0  0  0  0  0  0
    1.7974   -1.3704    2.3891 C   0  0  0  0  0  0  0  0  0  0  0  0
    1.7003   -0.5113    1.8902 H   0  0  0  0  0  0  0  0  0  0  0  0
    2.2547   -1.2037    3.2610 H   0  0  0  0  0  0  0  0  0  0  0  0
    2.6463   -2.3163    1.5677 C   0  0  0  0  0  0  0  0  0  0  0  0
    2.7498   -3.1783    2.0631 H   0  0  0  0  0  0  0  0  0  0  0  0
    2.1955   -2.4860    0.6923 H   0  0  0  0  0  0  0  0  0  0  0  0
    3.6312   -1.8856    1.3874 H   0  0  0  0  0  0  0  0  0  0  0  0
  1  5  1  0
  5  6  1  0
  5  7  2  0
  1  2  1  0
  1  3  1  0
  1  4  1  0
  8 12  1  0
 12 15  1  0
  8  9  1  0
  8 10  1  0
  8 11  1  0
 12 13  1  0
 12 14  1  0
 15 16  1  0
 15 17  1  0
 15 18  1  0
M  CHG  1   6  -1
M  END
>  <PDB_ID>  (1255) 
pdb3e9n

>  <RESIDUE_NAME>  (1255) 
ASP   LYS

>  <FRAG_NAME>  (1255) 
ACET   PRPA

>  <FRAG_ATOM_NUM>  (1255) 
fragi: 7  fragj: 11

>  <atom.prop.CHAIN_ID>  (1255) 
A A A A A A A Z Z Z Z Z Z Z Z Z Z Z

>  <atom.prop.IS_HEAVY_ATOM>  (1255) 
1 0 0 0 1 1 1 1 0 0 0 1 0 0 1 0 0 0

>  <DIFUSE_FUNC_ATOM>  (1255) 
atom 6   atom 7   

>  <FINAL_SINGLE_POINT_ENERGY>  (1255) 
0

>  <NONCOV_INTER_ENERGY_QM>  (1255) 
0

>  <FF_Energy>  (1255) 
19.32

>  <QM_Energy>  (1255) 
0.06

>  <source>  (1255) 
ACET_PRPA_13

>  <Index>  (1255) 
1361

$$$$
ACET-pdb3eue-A-GLU-156:PRPA-pdb3eue-A-VAL-204
     RDKit          3D

 18 16  0  0  0  0  0  0  0  0999 V2000
    0.0147    1.5543   -0.0348 C   0  0  0  0  0  0  0  0  0  0  0  0
    0.8781    1.8303    0.3300 H   0  0  0  0  0  0  0  0  0  0  0  0
   -0.7451    1.8491    0.5051 H   0  0  0  0  0  0  0  0  0  0  0  0
   -0.0887    1.9390   -1.0493 H   0  0  0  0  0  0  0  0  0  0  0  0
    0.0000    0.0000    0.0000 C   0  0  0  0  0  0  0  0  0  0  0  0
   -1.1218   -0.6078    0.0000 O   0  0  0  0  0  1  0  0  0  0  0  0
    1.1218   -0.5779   -0.0000 O   0  0  0  0  0  0  0  0  0  0  0  0
   -3.1064    2.3611    3.7700 C   0  0  0  0  0  0  0  0  0  0  0  0
   -2.9917    3.3305    3.5837 H   0  0  0  0  0  0  0  0  0  0  0  0
   -3.6212    2.2335    4.7223 H   0  0  0  0  0  0  0  0  0  0  0  0
   -3.7579    1.9597    2.9939 H   0  0  0  0  0  0  0  0  0  0  0  0
   -1.7250    1.6843    3.7805 C   0  0  0  0  0  0  0  0  0  0  0  0
   -1.8721    0.7202    3.9918 H   0  0  0  0  0  0  0  0  0  0  0  0
   -1.0600    2.1617    4.5003 H   0  0  0  0  0  0  0  0  0  0  0  0
   -1.1042    1.7715    2.4407 C   0  0  0  0  0  0  0  0  0  0  0  0
   -0.2980    1.1705    2.3825 H   0  0  0  0  0  0  0  0  0  0  0  0
   -1.7586    1.4924    1.7275 H   0  0  0  0  0  0  0  0  0  0  0  0
   -0.8088    2.7147    2.2471 H   0  0  0  0  0  0  0  0  0  0  0  0
  1  5  1  0
  5  6  1  0
  5  7  2  0
  1  2  1  0
  1  3  1  0
  1  4  1  0
  8 12  1  0
 12 15  1  0
  8  9  1  0
  8 10  1  0
  8 11  1  0
 12 13  1  0
 12 14  1  0
 15 16  1  0
 15 17  1  0
 15 18  1  0
M  CHG  1   6  -1
M  END
>  <PDB_ID>  (1256) 
pdb3eue

>  <RESIDUE_NAME>  (1256) 
GLU   VAL

>  <FRAG_NAME>  (1256) 
ACET   PRPA

>  <FRAG_ATOM_NUM>  (1256) 
fragi: 7  fragj: 11

>  <atom.prop.CHAIN_ID>  (1256) 
A A A A A A A Z Z Z Z Z Z Z Z Z Z Z

>  <atom.prop.IS_HEAVY_ATOM>  (1256) 
1 0 0 0 1 1 1 1 0 0 0 1 0 0 1 0 0 0

>  <DIFUSE_FUNC_ATOM>  (1256) 
atom 6   atom 7   

>  <FINAL_SINGLE_POINT_ENERGY>  (1256) 
0

>  <NONCOV_INTER_ENERGY_QM>  (1256) 
0

>  <FF_Energy>  (1256) 
46.26

>  <QM_Energy>  (1256) 
7.53

>  <source>  (1256) 
ACET_PRPA_13

>  <Index>  (1256) 
2507

$$$$
ACET-pdb3eue-A-GLU-156:PRPA-pdb3eue-A-VAL-204
     RDKit          3D

 18 16  0  0  0  0  0  0  0  0999 V2000
    0.0147    1.5543   -0.0348 C   0  0  0  0  0  0  0  0  0  0  0  0
    0.8781    1.8303    0.3300 H   0  0  0  0  0  0  0  0  0  0  0  0
   -0.7451    1.8491    0.5051 H   0  0  0  0  0  0  0  0  0  0  0  0
   -0.0887    1.9390   -1.0493 H   0  0  0  0  0  0  0  0  0  0  0  0
    0.0000    0.0000    0.0000 C   0  0  0  0  0  0  0  0  0  0  0  0
   -1.1218   -0.6078    0.0000 O   0  0  0  0  0  1  0  0  0  0  0  0
    1.1218   -0.5779   -0.0000 O   0  0  0  0  0  0  0  0  0  0  0  0
   -1.1042    1.7715    2.4407 C   0  0  0  0  0  0  0  0  0  0  0  0
   -0.2980    1.1705    2.3825 H   0  0  0  0  0  0  0  0  0  0  0  0
   -1.7586    1.4924    1.7275 H   0  0  0  0  0  0  0  0  0  0  0  0
   -0.8088    2.7147    2.2471 H   0  0  0  0  0  0  0  0  0  0  0  0
   -1.7250    1.6843    3.7805 C   0  0  0  0  0  0  0  0  0  0  0  0
   -1.8721    0.7202    3.9918 H   0  0  0  0  0  0  0  0  0  0  0  0
   -2.7038    2.1639    3.7731 H   0  0  0  0  0  0  0  0  0  0  0  0
   -0.7866    2.3580    4.7964 C   0  0  0  0  0  0  0  0  0  0  0  0
    0.1553    2.2420    4.4910 H   0  0  0  0  0  0  0  0  0  0  0  0
   -1.0124    3.3281    4.8493 H   0  0  0  0  0  0  0  0  0  0  0  0
   -0.9132    1.9266    5.6864 H   0  0  0  0  0  0  0  0  0  0  0  0
  1  5  1  0
  5  6  1  0
  5  7  2  0
  1  2  1  0
  1  3  1  0
  1  4  1  0
  8 12  1  0
 12 15  1  0
  8  9  1  0
  8 10  1  0
  8 11  1  0
 12 13  1  0
 12 14  1  0
 15 16  1  0
 15 17  1  0
 15 18  1  0
M  CHG  1   6  -1
M  END
>  <PDB_ID>  (1257) 
pdb3eue

>  <RESIDUE_NAME>  (1257) 
GLU   VAL

>  <FRAG_NAME>  (1257) 
ACET   PRPA

>  <FRAG_ATOM_NUM>  (1257) 
fragi: 7  fragj: 11

>  <atom.prop.CHAIN_ID>  (1257) 
A A A A A A A Z Z Z Z Z Z Z Z Z Z Z

>  <atom.prop.IS_HEAVY_ATOM>  (1257) 
1 0 0 0 1 1 1 1 0 0 0 1 0 0 1 0 0 0

>  <DIFUSE_FUNC_ATOM>  (1257) 
atom 6   atom 7   

>  <FINAL_SINGLE_POINT_ENERGY>  (1257) 
0

>  <NONCOV_INTER_ENERGY_QM>  (1257) 
0

>  <FF_Energy>  (1257) 
46.12

>  <QM_Energy>  (1257) 
7.75

>  <source>  (1257) 
ACET_PRPA_13

>  <Index>  (1257) 
2534

$$$$
ACET-pdb4a0g-A-GLU-165:PRPA-pdb4a0g-A-LYS-169
     RDKit          3D

 18 16  0  0  0  0  0  0  0  0999 V2000
   -0.0023    1.5150   -0.0109 C   0  0  0  0  0  0  0  0  0  0  0  0
    0.4157    1.8106   -0.8483 H   0  0  0  0  0  0  0  0  0  0  0  0
    0.4888    1.8211    0.7822 H   0  0  0  0  0  0  0  0  0  0  0  0
   -1.0074    1.9348    0.0303 H   0  0  0  0  0  0  0  0  0  0  0  0
    0.0000    0.0000    0.0000 C   0  0  0  0  0  0  0  0  0  0  0  0
   -1.1031   -0.5909   -0.0000 O   0  0  0  0  0  1  0  0  0  0  0  0
    1.1031   -0.5952    0.0000 O   0  0  0  0  0  0  0  0  0  0  0  0
    2.7142    3.1635   -2.9989 C   0  0  0  0  0  0  0  0  0  0  0  0
    3.5960    3.2238   -2.5366 H   0  0  0  0  0  0  0  0  0  0  0  0
    1.9925    3.4961   -2.3952 H   0  0  0  0  0  0  0  0  0  0  0  0
    2.7393    3.7765   -3.9000 H   0  0  0  0  0  0  0  0  0  0  0  0
    2.4361    1.7058   -3.3395 C   0  0  0  0  0  0  0  0  0  0  0  0
    1.5534    1.6483   -3.8035 H   0  0  0  0  0  0  0  0  0  0  0  0
    3.1579    1.3749   -3.9445 H   0  0  0  0  0  0  0  0  0  0  0  0
    2.3930    0.8241   -2.1063 C   0  0  0  0  0  0  0  0  0  0  0  0
    3.2744    0.8752   -1.6391 H   0  0  0  0  0  0  0  0  0  0  0  0
    1.6709    1.1486   -1.4979 H   0  0  0  0  0  0  0  0  0  0  0  0
    2.1922   -0.2104   -2.3848 H   0  0  0  0  0  0  0  0  0  0  0  0
  1  5  1  0
  5  6  1  0
  5  7  2  0
  1  2  1  0
  1  3  1  0
  1  4  1  0
  8 12  1  0
 12 15  1  0
  8  9  1  0
  8 10  1  0
  8 11  1  0
 12 13  1  0
 12 14  1  0
 15 16  1  0
 15 17  1  0
 15 18  1  0
M  CHG  1   6  -1
M  END
>  <PDB_ID>  (1258) 
pdb4a0g

>  <RESIDUE_NAME>  (1258) 
GLU   LYS

>  <FRAG_NAME>  (1258) 
ACET   PRPA

>  <FRAG_ATOM_NUM>  (1258) 
fragi: 7  fragj: 11

>  <atom.prop.CHAIN_ID>  (1258) 
A A A A A A A Z Z Z Z Z Z Z Z Z Z Z

>  <atom.prop.IS_HEAVY_ATOM>  (1258) 
1 0 0 0 1 1 1 1 0 0 0 1 0 0 1 0 0 0

>  <DIFUSE_FUNC_ATOM>  (1258) 
atom 6   atom 7   

>  <FINAL_SINGLE_POINT_ENERGY>  (1258) 
0

>  <NONCOV_INTER_ENERGY_QM>  (1258) 
0

>  <FF_Energy>  (1258) 
22.31

>  <QM_Energy>  (1258) 
4.17

>  <source>  (1258) 
ACET_PRPA_13

>  <Index>  (1258) 
5542

$$$$
ACET-pdb3exz-A-GLU-19:PRPA-pdb3exz-A-ARG-157
     RDKit          3D

 18 16  0  0  0  0  0  0  0  0999 V2000
    0.0057    1.5235   -0.0051 C   0  0  0  0  0  0  0  0  0  0  0  0
    0.7083    1.8148   -0.6284 H   0  0  0  0  0  0  0  0  0  0  0  0
    0.1807    1.8210    0.9163 H   0  0  0  0  0  0  0  0  0  0  0  0
   -0.9390    1.9588   -0.3309 H   0  0  0  0  0  0  0  0  0  0  0  0
    0.0000    0.0000    0.0000 C   0  0  0  0  0  0  0  0  0  0  0  0
   -1.0980   -0.5961    0.0000 O   0  0  0  0  0  1  0  0  0  0  0  0
    1.0980   -0.6014    0.0000 O   0  0  0  0  0  0  0  0  0  0  0  0
   -0.6510   -3.1853    1.9579 C   0  0  0  0  0  0  0  0  0  0  0  0
   -1.4496   -2.6548    1.7114 H   0  0  0  0  0  0  0  0  0  0  0  0
   -0.8618   -3.7657    2.8562 H   0  0  0  0  0  0  0  0  0  0  0  0
   -0.4554   -3.9012    1.1597 H   0  0  0  0  0  0  0  0  0  0  0  0
    0.5163   -2.2133    2.1819 C   0  0  0  0  0  0  0  0  0  0  0  0
    0.8877   -1.9698    1.2767 H   0  0  0  0  0  0  0  0  0  0  0  0
    0.1401   -1.3766    2.6003 H   0  0  0  0  0  0  0  0  0  0  0  0
    1.6502   -2.7016    3.0421 C   0  0  0  0  0  0  0  0  0  0  0  0
    1.2985   -3.2015    3.8196 H   0  0  0  0  0  0  0  0  0  0  0  0
    2.2687   -3.2591    2.5074 H   0  0  0  0  0  0  0  0  0  0  0  0
    2.2145   -1.8496    3.4213 H   0  0  0  0  0  0  0  0  0  0  0  0
  1  5  1  0
  5  6  1  0
  5  7  2  0
  1  2  1  0
  1  3  1  0
  1  4  1  0
  8 12  1  0
 12 15  1  0
  8  9  1  0
  8 10  1  0
  8 11  1  0
 12 13  1  0
 12 14  1  0
 15 16  1  0
 15 17  1  0
 15 18  1  0
M  CHG  1   6  -1
M  END
>  <PDB_ID>  (1259) 
pdb3exz

>  <RESIDUE_NAME>  (1259) 
GLU   ARG

>  <FRAG_NAME>  (1259) 
ACET   PRPA

>  <FRAG_ATOM_NUM>  (1259) 
fragi: 7  fragj: 11

>  <atom.prop.CHAIN_ID>  (1259) 
A A A A A A A Z Z Z Z Z Z Z Z Z Z Z

>  <atom.prop.IS_HEAVY_ATOM>  (1259) 
1 0 0 0 1 1 1 1 0 0 0 1 0 0 1 0 0 0

>  <DIFUSE_FUNC_ATOM>  (1259) 
atom 6   atom 7   

>  <FINAL_SINGLE_POINT_ENERGY>  (1259) 
0

>  <NONCOV_INTER_ENERGY_QM>  (1259) 
0

>  <FF_Energy>  (1259) 
19.9

>  <QM_Energy>  (1259) 
-1.03

>  <source>  (1259) 
ACET_PRPA_13

>  <Index>  (1259) 
5568

$$$$
ACET-pdb3ez0-C-GLU-211:PRPA-pdb3ez0-A-LEU-163
     RDKit          3D

 18 16  0  0  0  0  0  0  0  0999 V2000
    0.0212    1.5080   -0.0102 C   0  0  0  0  0  0  0  0  0  0  0  0
    0.6321    1.7880   -0.7281 H   0  0  0  0  0  0  0  0  0  0  0  0
    0.3307    1.8033    0.8761 H   0  0  0  0  0  0  0  0  0  0  0  0
   -0.9660    1.9290   -0.2005 H   0  0  0  0  0  0  0  0  0  0  0  0
    0.0000    0.0000    0.0000 C   0  0  0  0  0  0  0  0  0  0  0  0
   -1.0982   -0.6063    0.0000 O   0  0  0  0  0  1  0  0  0  0  0  0
    1.0982   -0.5833   -0.0000 O   0  0  0  0  0  0  0  0  0  0  0  0
    3.5800   -3.2705   -1.3623 C   0  0  0  0  0  0  0  0  0  0  0  0
    3.9789   -2.5780   -0.7407 H   0  0  0  0  0  0  0  0  0  0  0  0
    4.3368   -3.8531   -1.6961 H   0  0  0  0  0  0  0  0  0  0  0  0
    2.9169   -3.9004   -0.7693 H   0  0  0  0  0  0  0  0  0  0  0  0
    3.0304   -2.5148   -2.5759 C   0  0  0  0  0  0  0  0  0  0  0  0
    2.3875   -3.1112   -3.0574 H   0  0  0  0  0  0  0  0  0  0  0  0
    3.8411   -2.2559   -3.2569 H   0  0  0  0  0  0  0  0  0  0  0  0
    2.3392   -1.2620   -2.1355 C   0  0  0  0  0  0  0  0  0  0  0  0
    2.9825   -0.6643   -1.6477 H   0  0  0  0  0  0  0  0  0  0  0  0
    1.9786   -0.7664   -2.9320 H   0  0  0  0  0  0  0  0  0  0  0  0
    1.5760   -1.4849   -1.5213 H   0  0  0  0  0  0  0  0  0  0  0  0
  1  5  1  0
  5  6  1  0
  5  7  2  0
  1  2  1  0
  1  3  1  0
  1  4  1  0
  8 12  1  0
 12 15  1  0
  8  9  1  0
  8 10  1  0
  8 11  1  0
 12 13  1  0
 12 14  1  0
 15 16  1  0
 15 17  1  0
 15 18  1  0
M  CHG  1   6  -1
M  END
>  <PDB_ID>  (1260) 
pdb3ez0

>  <RESIDUE_NAME>  (1260) 
GLU   LEU

>  <FRAG_NAME>  (1260) 
ACET   PRPA

>  <FRAG_ATOM_NUM>  (1260) 
fragi: 7  fragj: 11

>  <atom.prop.CHAIN_ID>  (1260) 
A A A A A A A Z Z Z Z Z Z Z Z Z Z Z

>  <atom.prop.IS_HEAVY_ATOM>  (1260) 
1 0 0 0 1 1 1 1 0 0 0 1 0 0 1 0 0 0

>  <DIFUSE_FUNC_ATOM>  (1260) 
atom 6   atom 7   

>  <FINAL_SINGLE_POINT_ENERGY>  (1260) 
0

>  <NONCOV_INTER_ENERGY_QM>  (1260) 
0

>  <FF_Energy>  (1260) 
28.18

>  <QM_Energy>  (1260) 
4.5

>  <source>  (1260) 
ACET_PRPA_13

>  <Index>  (1260) 
6190

$$$$
ACET-pdb3ez0-C-GLU-211:PRPA-pdb3ez0-A-LEU-163
     RDKit          3D

 18 16  0  0  0  0  0  0  0  0999 V2000
    0.0212    1.5080   -0.0102 C   0  0  0  0  0  0  0  0  0  0  0  0
    0.6321    1.7880   -0.7281 H   0  0  0  0  0  0  0  0  0  0  0  0
    0.3307    1.8033    0.8761 H   0  0  0  0  0  0  0  0  0  0  0  0
   -0.9660    1.9290   -0.2005 H   0  0  0  0  0  0  0  0  0  0  0  0
    0.0000    0.0000    0.0000 C   0  0  0  0  0  0  0  0  0  0  0  0
   -1.0982   -0.6063    0.0000 O   0  0  0  0  0  1  0  0  0  0  0  0
    1.0982   -0.5833   -0.0000 O   0  0  0  0  0  0  0  0  0  0  0  0
    2.3392   -1.2620   -2.1355 C   0  0  0  0  0  0  0  0  0  0  0  0
    2.9825   -0.6643   -1.6477 H   0  0  0  0  0  0  0  0  0  0  0  0
    1.9786   -0.7664   -2.9320 H   0  0  0  0  0  0  0  0  0  0  0  0
    1.5760   -1.4849   -1.5213 H   0  0  0  0  0  0  0  0  0  0  0  0
    3.0304   -2.5148   -2.5759 C   0  0  0  0  0  0  0  0  0  0  0  0
    2.3875   -3.1112   -3.0574 H   0  0  0  0  0  0  0  0  0  0  0  0
    3.4215   -3.0526   -1.7122 H   0  0  0  0  0  0  0  0  0  0  0  0
    4.1652   -2.1524   -3.5293 C   0  0  0  0  0  0  0  0  0  0  0  0
    4.6174   -2.9885   -3.8413 H   0  0  0  0  0  0  0  0  0  0  0  0
    3.7939   -1.6599   -4.3168 H   0  0  0  0  0  0  0  0  0  0  0  0
    4.8265   -1.5721   -3.0534 H   0  0  0  0  0  0  0  0  0  0  0  0
  1  5  1  0
  5  6  1  0
  5  7  2  0
  1  2  1  0
  1  3  1  0
  1  4  1  0
  8 12  1  0
 12 15  1  0
  8  9  1  0
  8 10  1  0
  8 11  1  0
 12 13  1  0
 12 14  1  0
 15 16  1  0
 15 17  1  0
 15 18  1  0
M  CHG  1   6  -1
M  END
>  <PDB_ID>  (1261) 
pdb3ez0

>  <RESIDUE_NAME>  (1261) 
GLU   LEU

>  <FRAG_NAME>  (1261) 
ACET   PRPA

>  <FRAG_ATOM_NUM>  (1261) 
fragi: 7  fragj: 11

>  <atom.prop.CHAIN_ID>  (1261) 
A A A A A A A Z Z Z Z Z Z Z Z Z Z Z

>  <atom.prop.IS_HEAVY_ATOM>  (1261) 
1 0 0 0 1 1 1 1 0 0 0 1 0 0 1 0 0 0

>  <DIFUSE_FUNC_ATOM>  (1261) 
atom 6   atom 7   

>  <FINAL_SINGLE_POINT_ENERGY>  (1261) 
0

>  <NONCOV_INTER_ENERGY_QM>  (1261) 
0

>  <FF_Energy>  (1261) 
27.52

>  <QM_Energy>  (1261) 
4.86

>  <source>  (1261) 
ACET_PRPA_13

>  <Index>  (1261) 
6203

$$$$
ACET-pdb4agr-B-ASP-49:PRPA-pdb4agr-B-LYS-26
     RDKit          3D

 18 16  0  0  0  0  0  0  0  0999 V2000
    0.0436    1.5387    0.0772 C   0  0  0  0  0  0  0  0  0  0  0  0
    0.9573    1.8361   -0.1767 H   0  0  0  0  0  0  0  0  0  0  0  0
   -0.1637    1.8089    1.0103 H   0  0  0  0  0  0  0  0  0  0  0  0
   -0.6695    2.0296   -0.5851 H   0  0  0  0  0  0  0  0  0  0  0  0
    0.0000    0.0000    0.0000 C   0  0  0  0  0  0  0  0  0  0  0  0
   -1.0939   -0.6023    0.0000 O   0  0  0  0  0  1  0  0  0  0  0  0
    1.0939   -0.6218    0.0000 O   0  0  0  0  0  0  0  0  0  0  0  0
    1.5023    4.3449    1.8663 C   0  0  0  0  0  0  0  0  0  0  0  0
    1.4900    4.1632    0.8846 H   0  0  0  0  0  0  0  0  0  0  0  0
    2.4845    4.7367    2.1306 H   0  0  0  0  0  0  0  0  0  0  0  0
    0.7557    5.1010    2.1092 H   0  0  0  0  0  0  0  0  0  0  0  0
    1.1105    3.0817    2.6504 C   0  0  0  0  0  0  0  0  0  0  0  0
    0.6703    3.3858    3.5200 H   0  0  0  0  0  0  0  0  0  0  0  0
    0.3818    2.6038    2.1163 H   0  0  0  0  0  0  0  0  0  0  0  0
    2.1801    2.0579    3.0015 C   0  0  0  0  0  0  0  0  0  0  0  0
    2.4361    1.5626    2.1897 H   0  0  0  0  0  0  0  0  0  0  0  0
    2.9472    2.5150    3.4141 H   0  0  0  0  0  0  0  0  0  0  0  0
    1.7507    1.3616    3.7219 H   0  0  0  0  0  0  0  0  0  0  0  0
  1  5  1  0
  5  6  1  0
  5  7  2  0
  1  2  1  0
  1  3  1  0
  1  4  1  0
  8 12  1  0
 12 15  1  0
  8  9  1  0
  8 10  1  0
  8 11  1  0
 12 13  1  0
 12 14  1  0
 15 16  1  0
 15 17  1  0
 15 18  1  0
M  CHG  1   6  -1
M  END
>  <PDB_ID>  (1262) 
pdb4agr

>  <RESIDUE_NAME>  (1262) 
ASP   LYS

>  <FRAG_NAME>  (1262) 
ACET   PRPA

>  <FRAG_ATOM_NUM>  (1262) 
fragi: 7  fragj: 11

>  <atom.prop.CHAIN_ID>  (1262) 
A A A A A A A Z Z Z Z Z Z Z Z Z Z Z

>  <atom.prop.IS_HEAVY_ATOM>  (1262) 
1 0 0 0 1 1 1 1 0 0 0 1 0 0 1 0 0 0

>  <DIFUSE_FUNC_ATOM>  (1262) 
atom 6   atom 7   

>  <FINAL_SINGLE_POINT_ENERGY>  (1262) 
0

>  <NONCOV_INTER_ENERGY_QM>  (1262) 
0

>  <FF_Energy>  (1262) 
41.67

>  <QM_Energy>  (1262) 
3.13

>  <source>  (1262) 
ACET_PRPA_13

>  <Index>  (1262) 
7395

$$$$
ACET-pdb4agr-B-ASP-49:PRPA-pdb4agr-B-LYS-26
     RDKit          3D

 18 16  0  0  0  0  0  0  0  0999 V2000
    0.0436    1.5387    0.0772 C   0  0  0  0  0  0  0  0  0  0  0  0
    0.9573    1.8361   -0.1767 H   0  0  0  0  0  0  0  0  0  0  0  0
   -0.1637    1.8089    1.0103 H   0  0  0  0  0  0  0  0  0  0  0  0
   -0.6695    2.0296   -0.5851 H   0  0  0  0  0  0  0  0  0  0  0  0
    0.0000    0.0000    0.0000 C   0  0  0  0  0  0  0  0  0  0  0  0
   -1.0939   -0.6023    0.0000 O   0  0  0  0  0  1  0  0  0  0  0  0
    1.0939   -0.6218    0.0000 O   0  0  0  0  0  0  0  0  0  0  0  0
    1.1105    3.0817    2.6504 C   0  0  0  0  0  0  0  0  0  0  0  0
    0.6703    3.3858    3.5200 H   0  0  0  0  0  0  0  0  0  0  0  0
    0.3818    2.6038    2.1163 H   0  0  0  0  0  0  0  0  0  0  0  0
    1.3882    3.9773    2.0945 H   0  0  0  0  0  0  0  0  0  0  0  0
    2.1801    2.0579    3.0015 C   0  0  0  0  0  0  0  0  0  0  0  0
    2.4361    1.5626    2.1897 H   0  0  0  0  0  0  0  0  0  0  0  0
    2.9472    2.5150    3.4141 H   0  0  0  0  0  0  0  0  0  0  0  0
    1.5797    1.0842    4.0089 C   0  0  0  0  0  0  0  0  0  0  0  0
    1.8877    1.3367    4.9166 H   0  0  0  0  0  0  0  0  0  0  0  0
    0.5924    1.1283    3.9441 H   0  0  0  0  0  0  0  0  0  0  0  0
    1.9059    0.0670    3.7921 H   0  0  0  0  0  0  0  0  0  0  0  0
  1  5  1  0
  5  6  1  0
  5  7  2  0
  1  2  1  0
  1  3  1  0
  1  4  1  0
  8 12  1  0
 12 15  1  0
  8  9  1  0
  8 10  1  0
  8 11  1  0
 12 13  1  0
 12 14  1  0
 15 16  1  0
 15 17  1  0
 15 18  1  0
M  CHG  1   6  -1
M  END
>  <PDB_ID>  (1263) 
pdb4agr

>  <RESIDUE_NAME>  (1263) 
ASP   LYS

>  <FRAG_NAME>  (1263) 
ACET   PRPA

>  <FRAG_ATOM_NUM>  (1263) 
fragi: 7  fragj: 11

>  <atom.prop.CHAIN_ID>  (1263) 
A A A A A A A Z Z Z Z Z Z Z Z Z Z Z

>  <atom.prop.IS_HEAVY_ATOM>  (1263) 
1 0 0 0 1 1 1 1 0 0 0 1 0 0 1 0 0 0

>  <DIFUSE_FUNC_ATOM>  (1263) 
atom 6   atom 7   

>  <FINAL_SINGLE_POINT_ENERGY>  (1263) 
0

>  <NONCOV_INTER_ENERGY_QM>  (1263) 
0

>  <FF_Energy>  (1263) 
35.65

>  <QM_Energy>  (1263) 
3.45

>  <source>  (1263) 
ACET_PRPA_13

>  <Index>  (1263) 
7400

$$$$
ACET-pdb4agu-A-GLU-39:PRPA-pdb4agu-A-ARG-74
     RDKit          3D

 18 16  0  0  0  0  0  0  0  0999 V2000
    0.1769    1.4843    0.0144 C   0  0  0  0  0  0  0  0  0  0  0  0
    0.6961    1.7384   -0.8032 H   0  0  0  0  0  0  0  0  0  0  0  0
    0.7074    1.7208    0.8296 H   0  0  0  0  0  0  0  0  0  0  0  0
   -0.7332    2.0840    0.0261 H   0  0  0  0  0  0  0  0  0  0  0  0
    0.0000    0.0000    0.0000 C   0  0  0  0  0  0  0  0  0  0  0  0
   -1.0897   -0.5575    0.0000 O   0  0  0  0  0  1  0  0  0  0  0  0
    1.0897   -0.6096    0.0000 O   0  0  0  0  0  0  0  0  0  0  0  0
    2.7977   -1.0236    2.2442 C   0  0  0  0  0  0  0  0  0  0  0  0
    2.5965   -0.3327    1.5321 H   0  0  0  0  0  0  0  0  0  0  0  0
    2.7995   -1.9307    1.7963 H   0  0  0  0  0  0  0  0  0  0  0  0
    3.8086   -0.8353    2.6057 H   0  0  0  0  0  0  0  0  0  0  0  0
    1.6381   -1.0053    3.2524 C   0  0  0  0  0  0  0  0  0  0  0  0
    1.8773   -1.5755    4.0314 H   0  0  0  0  0  0  0  0  0  0  0  0
    1.4784   -0.0682    3.5461 H   0  0  0  0  0  0  0  0  0  0  0  0
    0.3594   -1.5410    2.6361 C   0  0  0  0  0  0  0  0  0  0  0  0
    0.1314   -0.9683    1.8539 H   0  0  0  0  0  0  0  0  0  0  0  0
    0.5308   -2.4762    2.3397 H   0  0  0  0  0  0  0  0  0  0  0  0
   -0.4617   -1.5273    3.3527 H   0  0  0  0  0  0  0  0  0  0  0  0
  1  5  1  0
  5  6  1  0
  5  7  2  0
  1  2  1  0
  1  3  1  0
  1  4  1  0
  8 12  1  0
 12 15  1  0
  8  9  1  0
  8 10  1  0
  8 11  1  0
 12 13  1  0
 12 14  1  0
 15 16  1  0
 15 17  1  0
 15 18  1  0
M  CHG  1   6  -1
M  END
>  <PDB_ID>  (1264) 
pdb4agu

>  <RESIDUE_NAME>  (1264) 
GLU   ARG

>  <FRAG_NAME>  (1264) 
ACET   PRPA

>  <FRAG_ATOM_NUM>  (1264) 
fragi: 7  fragj: 11

>  <atom.prop.CHAIN_ID>  (1264) 
A A A A A A A Z Z Z Z Z Z Z Z Z Z Z

>  <atom.prop.IS_HEAVY_ATOM>  (1264) 
1 0 0 0 1 1 1 1 0 0 0 1 0 0 1 0 0 0

>  <DIFUSE_FUNC_ATOM>  (1264) 
atom 6   atom 7   

>  <FINAL_SINGLE_POINT_ENERGY>  (1264) 
0

>  <NONCOV_INTER_ENERGY_QM>  (1264) 
0

>  <FF_Energy>  (1264) 
19.84

>  <QM_Energy>  (1264) 
1.18

>  <source>  (1264) 
ACET_PRPA_13

>  <Index>  (1264) 
7763

$$$$
ACET-pdb3f4k-A-ASP-76:PRPA-pdb3f4k-A-ILE-124
     RDKit          3D

 18 16  0  0  0  0  0  0  0  0999 V2000
   -0.0080    1.5220    0.0199 C   0  0  0  0  0  0  0  0  0  0  0  0
   -0.7286    1.8430   -0.5806 H   0  0  0  0  0  0  0  0  0  0  0  0
    0.8765    1.8482   -0.2833 H   0  0  0  0  0  0  0  0  0  0  0  0
   -0.1942    1.9225    1.0164 H   0  0  0  0  0  0  0  0  0  0  0  0
    0.0000    0.0000    0.0000 C   0  0  0  0  0  0  0  0  0  0  0  0
   -1.0953   -0.5994   -0.0000 O   0  0  0  0  0  1  0  0  0  0  0  0
    1.0953   -0.6021   -0.0000 O   0  0  0  0  0  0  0  0  0  0  0  0
   -2.0360   -3.5001   -1.0408 C   0  0  0  0  0  0  0  0  0  0  0  0
   -3.0279   -3.5758   -1.1534 H   0  0  0  0  0  0  0  0  0  0  0  0
   -1.7601   -2.5759   -1.3145 H   0  0  0  0  0  0  0  0  0  0  0  0
   -1.5461   -4.2222   -1.6940 H   0  0  0  0  0  0  0  0  0  0  0  0
   -1.7073   -3.6733    0.4415 C   0  0  0  0  0  0  0  0  0  0  0  0
   -2.3346   -3.1135    0.9695 H   0  0  0  0  0  0  0  0  0  0  0  0
   -1.8543   -4.7080    0.7508 H   0  0  0  0  0  0  0  0  0  0  0  0
   -0.2679   -3.2492    0.7279 C   0  0  0  0  0  0  0  0  0  0  0  0
   -0.1505   -2.2904    0.4807 H   0  0  0  0  0  0  0  0  0  0  0  0
   -0.0745   -3.3699    1.6989 H   0  0  0  0  0  0  0  0  0  0  0  0
    0.3557   -3.8124    0.1905 H   0  0  0  0  0  0  0  0  0  0  0  0
  1  5  1  0
  5  6  1  0
  5  7  2  0
  1  2  1  0
  1  3  1  0
  1  4  1  0
  8 12  1  0
 12 15  1  0
  8  9  1  0
  8 10  1  0
  8 11  1  0
 12 13  1  0
 12 14  1  0
 15 16  1  0
 15 17  1  0
 15 18  1  0
M  CHG  1   6  -1
M  END
>  <PDB_ID>  (1265) 
pdb3f4k

>  <RESIDUE_NAME>  (1265) 
ASP   ILE

>  <FRAG_NAME>  (1265) 
ACET   PRPA

>  <FRAG_ATOM_NUM>  (1265) 
fragi: 7  fragj: 11

>  <atom.prop.CHAIN_ID>  (1265) 
A A A A A A A Z Z Z Z Z Z Z Z Z Z Z

>  <atom.prop.IS_HEAVY_ATOM>  (1265) 
1 0 0 0 1 1 1 1 0 0 0 1 0 0 1 0 0 0

>  <DIFUSE_FUNC_ATOM>  (1265) 
atom 6   atom 7   

>  <FINAL_SINGLE_POINT_ENERGY>  (1265) 
0

>  <NONCOV_INTER_ENERGY_QM>  (1265) 
0

>  <FF_Energy>  (1265) 
13.92

>  <QM_Energy>  (1265) 
-1.81

>  <source>  (1265) 
ACET_PRPA_13

>  <Index>  (1265) 
8065

$$$$
ACET-pdb4amq-A-GLU-99:PRPA-pdb4amq-A-LEU-112
     RDKit          3D

 18 16  0  0  0  0  0  0  0  0999 V2000
   -0.0100    1.5115    0.0080 C   0  0  0  0  0  0  0  0  0  0  0  0
    0.0820    1.8141   -0.9212 H   0  0  0  0  0  0  0  0  0  0  0  0
    0.7333    1.8093    0.5759 H   0  0  0  0  0  0  0  0  0  0  0  0
   -0.9400    1.9108    0.4126 H   0  0  0  0  0  0  0  0  0  0  0  0
    0.0000    0.0000    0.0000 C   0  0  0  0  0  0  0  0  0  0  0  0
   -1.0988   -0.5935    0.0000 O   0  0  0  0  0  1  0  0  0  0  0  0
    1.0988   -0.5931    0.0000 O   0  0  0  0  0  0  0  0  0  0  0  0
    3.3859   -1.5163   -1.4318 C   0  0  0  0  0  0  0  0  0  0  0  0
    4.0197   -1.8933   -0.7514 H   0  0  0  0  0  0  0  0  0  0  0  0
    2.4783   -1.4238   -1.0150 H   0  0  0  0  0  0  0  0  0  0  0  0
    3.3244   -2.1517   -2.2064 H   0  0  0  0  0  0  0  0  0  0  0  0
    3.8750   -0.1752   -1.9033 C   0  0  0  0  0  0  0  0  0  0  0  0
    3.2522    0.1920   -2.5871 H   0  0  0  0  0  0  0  0  0  0  0  0
    4.8604   -0.2975   -2.3528 H   0  0  0  0  0  0  0  0  0  0  0  0
    3.9227    0.8065   -0.7504 C   0  0  0  0  0  0  0  0  0  0  0  0
    4.2361    1.6993   -1.0796 H   0  0  0  0  0  0  0  0  0  0  0  0
    3.0087    0.9045   -0.3517 H   0  0  0  0  0  0  0  0  0  0  0  0
    4.5544    0.4732   -0.0483 H   0  0  0  0  0  0  0  0  0  0  0  0
  1  5  1  0
  5  6  1  0
  5  7  2  0
  1  2  1  0
  1  3  1  0
  1  4  1  0
  8 12  1  0
 12 15  1  0
  8  9  1  0
  8 10  1  0
  8 11  1  0
 12 13  1  0
 12 14  1  0
 15 16  1  0
 15 17  1  0
 15 18  1  0
M  CHG  1   6  -1
M  END
>  <PDB_ID>  (1266) 
pdb4amq

>  <RESIDUE_NAME>  (1266) 
GLU   LEU

>  <FRAG_NAME>  (1266) 
ACET   PRPA

>  <FRAG_ATOM_NUM>  (1266) 
fragi: 7  fragj: 11

>  <atom.prop.CHAIN_ID>  (1266) 
A A A A A A A Z Z Z Z Z Z Z Z Z Z Z

>  <atom.prop.IS_HEAVY_ATOM>  (1266) 
1 0 0 0 1 1 1 1 0 0 0 1 0 0 1 0 0 0

>  <DIFUSE_FUNC_ATOM>  (1266) 
atom 6   atom 7   

>  <FINAL_SINGLE_POINT_ENERGY>  (1266) 
0

>  <NONCOV_INTER_ENERGY_QM>  (1266) 
0

>  <FF_Energy>  (1266) 
13.85

>  <QM_Energy>  (1266) 
-2.47

>  <source>  (1266) 
ACET_PRPA_13

>  <Index>  (1266) 
8244

$$$$
ACET-pdb4ak5-A-ASP-35:PRPA-pdb4ak5-A-LYS-38
     RDKit          3D

 18 16  0  0  0  0  0  0  0  0999 V2000
    0.0113    1.5134    0.0432 C   0  0  0  0  0  0  0  0  0  0  0  0
    0.5940    1.8507   -0.6886 H   0  0  0  0  0  0  0  0  0  0  0  0
    0.3593    1.8074    0.9260 H   0  0  0  0  0  0  0  0  0  0  0  0
   -0.9794    1.9483   -0.0892 H   0  0  0  0  0  0  0  0  0  0  0  0
    0.0000    0.0000    0.0000 C   0  0  0  0  0  0  0  0  0  0  0  0
   -1.0972   -0.5961    0.0000 O   0  0  0  0  0  1  0  0  0  0  0  0
    1.0972   -0.5972    0.0000 O   0  0  0  0  0  0  0  0  0  0  0  0
    1.3230   -1.2468    2.6585 C   0  0  0  0  0  0  0  0  0  0  0  0
    1.6657   -2.1050    3.0377 H   0  0  0  0  0  0  0  0  0  0  0  0
    0.8231   -1.4294    1.8121 H   0  0  0  0  0  0  0  0  0  0  0  0
    0.6470   -0.7850    3.3781 H   0  0  0  0  0  0  0  0  0  0  0  0
    2.5036   -0.3404    2.3476 C   0  0  0  0  0  0  0  0  0  0  0  0
    2.1576    0.5190    1.9711 H   0  0  0  0  0  0  0  0  0  0  0  0
    3.0004   -0.1577    3.1959 H   0  0  0  0  0  0  0  0  0  0  0  0
    3.4593   -0.9571    1.3497 C   0  0  0  0  0  0  0  0  0  0  0  0
    3.8124   -1.8146    1.7212 H   0  0  0  0  0  0  0  0  0  0  0  0
    2.9707   -1.1387    0.4967 H   0  0  0  0  0  0  0  0  0  0  0  0
    4.2920   -0.2827    1.1496 H   0  0  0  0  0  0  0  0  0  0  0  0
  1  5  1  0
  5  6  1  0
  5  7  2  0
  1  2  1  0
  1  3  1  0
  1  4  1  0
  8 12  1  0
 12 15  1  0
  8  9  1  0
  8 10  1  0
  8 11  1  0
 12 13  1  0
 12 14  1  0
 15 16  1  0
 15 17  1  0
 15 18  1  0
M  CHG  1   6  -1
M  END
>  <PDB_ID>  (1267) 
pdb4ak5

>  <RESIDUE_NAME>  (1267) 
ASP   LYS

>  <FRAG_NAME>  (1267) 
ACET   PRPA

>  <FRAG_ATOM_NUM>  (1267) 
fragi: 7  fragj: 11

>  <atom.prop.CHAIN_ID>  (1267) 
A A A A A A A Z Z Z Z Z Z Z Z Z Z Z

>  <atom.prop.IS_HEAVY_ATOM>  (1267) 
1 0 0 0 1 1 1 1 0 0 0 1 0 0 1 0 0 0

>  <DIFUSE_FUNC_ATOM>  (1267) 
atom 6   atom 7   

>  <FINAL_SINGLE_POINT_ENERGY>  (1267) 
0

>  <NONCOV_INTER_ENERGY_QM>  (1267) 
0

>  <FF_Energy>  (1267) 
22.31

>  <QM_Energy>  (1267) 
0.52

>  <source>  (1267) 
ACET_PRPA_13

>  <Index>  (1267) 
8337

$$$$
ACET-pdb3f6a-A-GLU-39:PRPA-pdb3f6a-A-ARG-47
     RDKit          3D

 18 16  0  0  0  0  0  0  0  0999 V2000
    0.0124    1.5166   -0.0074 C   0  0  0  0  0  0  0  0  0  0  0  0
   -0.4116    1.8142   -0.8438 H   0  0  0  0  0  0  0  0  0  0  0  0
    0.9506    1.8077    0.0540 H   0  0  0  0  0  0  0  0  0  0  0  0
   -0.5358    1.9565    0.8258 H   0  0  0  0  0  0  0  0  0  0  0  0
    0.0000    0.0000    0.0000 C   0  0  0  0  0  0  0  0  0  0  0  0
   -1.0986   -0.5969   -0.0000 O   0  0  0  0  0  1  0  0  0  0  0  0
    1.0986   -0.5902    0.0000 O   0  0  0  0  0  0  0  0  0  0  0  0
    3.4567   -4.0384   -1.7930 C   0  0  0  0  0  0  0  0  0  0  0  0
    3.3327   -4.8502   -1.2148 H   0  0  0  0  0  0  0  0  0  0  0  0
    4.1415   -3.4402   -1.3668 H   0  0  0  0  0  0  0  0  0  0  0  0
    3.8557   -4.3714   -2.7511 H   0  0  0  0  0  0  0  0  0  0  0  0
    2.1500   -3.2944   -1.8528 C   0  0  0  0  0  0  0  0  0  0  0  0
    2.2870   -2.3958   -2.2441 H   0  0  0  0  0  0  0  0  0  0  0  0
    1.4868   -3.8138   -2.3723 H   0  0  0  0  0  0  0  0  0  0  0  0
    1.6020   -3.1138   -0.4404 C   0  0  0  0  0  0  0  0  0  0  0  0
    2.3616   -2.8789    0.1533 H   0  0  0  0  0  0  0  0  0  0  0  0
    0.9359   -2.3785   -0.4652 H   0  0  0  0  0  0  0  0  0  0  0  0
    1.1277   -4.0299   -0.0882 H   0  0  0  0  0  0  0  0  0  0  0  0
  1  5  1  0
  5  6  1  0
  5  7  2  0
  1  2  1  0
  1  3  1  0
  1  4  1  0
  8 12  1  0
 12 15  1  0
  8  9  1  0
  8 10  1  0
  8 11  1  0
 12 13  1  0
 12 14  1  0
 15 16  1  0
 15 17  1  0
 15 18  1  0
M  CHG  1   6  -1
M  END
>  <PDB_ID>  (1268) 
pdb3f6a

>  <RESIDUE_NAME>  (1268) 
GLU   ARG

>  <FRAG_NAME>  (1268) 
ACET   PRPA

>  <FRAG_ATOM_NUM>  (1268) 
fragi: 7  fragj: 11

>  <atom.prop.CHAIN_ID>  (1268) 
A A A A A A A Z Z Z Z Z Z Z Z Z Z Z

>  <atom.prop.IS_HEAVY_ATOM>  (1268) 
1 0 0 0 1 1 1 1 0 0 0 1 0 0 1 0 0 0

>  <DIFUSE_FUNC_ATOM>  (1268) 
atom 6   atom 7   

>  <FINAL_SINGLE_POINT_ENERGY>  (1268) 
0

>  <NONCOV_INTER_ENERGY_QM>  (1268) 
0

>  <FF_Energy>  (1268) 
23.19

>  <QM_Energy>  (1268) 
2.69

>  <source>  (1268) 
ACET_PRPA_13

>  <Index>  (1268) 
8450

$$$$
ACET-pdb3etc-B-GLU-310:PRPA-pdb3etc-B-LYS-283
     RDKit          3D

 18 16  0  0  0  0  0  0  0  0999 V2000
    0.0174    1.5238    0.0025 C   0  0  0  0  0  0  0  0  0  0  0  0
    0.8066    1.8119   -0.5139 H   0  0  0  0  0  0  0  0  0  0  0  0
    0.0685    1.8180    0.9420 H   0  0  0  0  0  0  0  0  0  0  0  0
   -0.8653    1.9777   -0.4479 H   0  0  0  0  0  0  0  0  0  0  0  0
    0.0000    0.0000    0.0000 C   0  0  0  0  0  0  0  0  0  0  0  0
   -1.0975   -0.6045    0.0000 O   0  0  0  0  0  1  0  0  0  0  0  0
    1.0975   -0.5935   -0.0000 O   0  0  0  0  0  0  0  0  0  0  0  0
   -0.7271   -1.2046    2.7164 C   0  0  0  0  0  0  0  0  0  0  0  0
   -1.3463   -0.5622    2.2650 H   0  0  0  0  0  0  0  0  0  0  0  0
    0.1902   -1.1111    2.3276 H   0  0  0  0  0  0  0  0  0  0  0  0
   -0.6877   -0.9713    3.7804 H   0  0  0  0  0  0  0  0  0  0  0  0
   -1.2227   -2.6194    2.4742 C   0  0  0  0  0  0  0  0  0  0  0  0
   -0.6022   -3.2601    2.9290 H   0  0  0  0  0  0  0  0  0  0  0  0
   -2.1395   -2.7107    2.8653 H   0  0  0  0  0  0  0  0  0  0  0  0
   -1.2864   -2.9689    1.0041 C   0  0  0  0  0  0  0  0  0  0  0  0
   -1.9083   -2.3367    0.5435 H   0  0  0  0  0  0  0  0  0  0  0  0
   -0.3723   -2.8855    0.6074 H   0  0  0  0  0  0  0  0  0  0  0  0
   -1.6450   -3.9890    0.8665 H   0  0  0  0  0  0  0  0  0  0  0  0
  1  5  1  0
  5  6  1  0
  5  7  2  0
  1  2  1  0
  1  3  1  0
  1  4  1  0
  8 12  1  0
 12 15  1  0
  8  9  1  0
  8 10  1  0
  8 11  1  0
 12 13  1  0
 12 14  1  0
 15 16  1  0
 15 17  1  0
 15 18  1  0
M  CHG  1   6  -1
M  END
>  <PDB_ID>  (1269) 
pdb3etc

>  <RESIDUE_NAME>  (1269) 
GLU   LYS

>  <FRAG_NAME>  (1269) 
ACET   PRPA

>  <FRAG_ATOM_NUM>  (1269) 
fragi: 7  fragj: 11

>  <atom.prop.CHAIN_ID>  (1269) 
A A A A A A A Z Z Z Z Z Z Z Z Z Z Z

>  <atom.prop.IS_HEAVY_ATOM>  (1269) 
1 0 0 0 1 1 1 1 0 0 0 1 0 0 1 0 0 0

>  <DIFUSE_FUNC_ATOM>  (1269) 
atom 6   atom 7   

>  <FINAL_SINGLE_POINT_ENERGY>  (1269) 
0

>  <NONCOV_INTER_ENERGY_QM>  (1269) 
0

>  <FF_Energy>  (1269) 
20.47

>  <QM_Energy>  (1269) 
2.67

>  <source>  (1269) 
ACET_PRPA_13

>  <Index>  (1269) 
9811

$$$$
ACET-pdb3fan-A-GLU-100:PRPA-pdb3fan-A-ARG-4
     RDKit          3D

 18 16  0  0  0  0  0  0  0  0999 V2000
   -0.0253    1.4904   -0.0469 C   0  0  0  0  0  0  0  0  0  0  0  0
    0.7648    1.7946   -0.5372 H   0  0  0  0  0  0  0  0  0  0  0  0
   -0.0581    1.8240    0.8721 H   0  0  0  0  0  0  0  0  0  0  0  0
   -0.9121    1.8436   -0.5732 H   0  0  0  0  0  0  0  0  0  0  0  0
    0.0000    0.0000    0.0000 C   0  0  0  0  0  0  0  0  0  0  0  0
   -1.1187   -0.5824    0.0000 O   0  0  0  0  0  1  0  0  0  0  0  0
    1.1187   -0.5916   -0.0000 O   0  0  0  0  0  0  0  0  0  0  0  0
    0.1739   -3.1177   -0.5075 C   0  0  0  0  0  0  0  0  0  0  0  0
    0.2271   -2.1298   -0.6821 H   0  0  0  0  0  0  0  0  0  0  0  0
   -0.8607   -3.3707   -0.2754 H   0  0  0  0  0  0  0  0  0  0  0  0
    0.5135   -3.6521   -1.3947 H   0  0  0  0  0  0  0  0  0  0  0  0
    1.0994   -3.4960    0.6740 C   0  0  0  0  0  0  0  0  0  0  0  0
    1.3854   -4.4467    0.5522 H   0  0  0  0  0  0  0  0  0  0  0  0
    1.9028   -2.9010    0.6414 H   0  0  0  0  0  0  0  0  0  0  0  0
    0.4852   -3.3724    2.0886 C   0  0  0  0  0  0  0  0  0  0  0  0
    0.9066   -2.6062    2.5633 H   0  0  0  0  0  0  0  0  0  0  0  0
   -0.4961   -3.2318    2.0083 H   0  0  0  0  0  0  0  0  0  0  0  0
    0.6437   -4.2657    2.6926 H   0  0  0  0  0  0  0  0  0  0  0  0
  1  5  1  0
  5  6  1  0
  5  7  2  0
  1  2  1  0
  1  3  1  0
  1  4  1  0
  8 12  1  0
 12 15  1  0
  8  9  1  0
  8 10  1  0
  8 11  1  0
 12 13  1  0
 12 14  1  0
 15 16  1  0
 15 17  1  0
 15 18  1  0
M  CHG  1   6  -1
M  END
>  <PDB_ID>  (1270) 
pdb3fan

>  <RESIDUE_NAME>  (1270) 
GLU   ARG

>  <FRAG_NAME>  (1270) 
ACET   PRPA

>  <FRAG_ATOM_NUM>  (1270) 
fragi: 7  fragj: 11

>  <atom.prop.CHAIN_ID>  (1270) 
A A A A A A A Z Z Z Z Z Z Z Z Z Z Z

>  <atom.prop.IS_HEAVY_ATOM>  (1270) 
1 0 0 0 1 1 1 1 0 0 0 1 0 0 1 0 0 0

>  <DIFUSE_FUNC_ATOM>  (1270) 
atom 6   atom 7   

>  <FINAL_SINGLE_POINT_ENERGY>  (1270) 
0

>  <NONCOV_INTER_ENERGY_QM>  (1270) 
0

>  <FF_Energy>  (1270) 
24.99

>  <QM_Energy>  (1270) 
1.5

>  <source>  (1270) 
ACET_PRPA_13

>  <Index>  (1270) 
10251

$$$$
ACET-pdb3f4l-A-GLU-43:PRPA-pdb3f4l-A-ARG-36
     RDKit          3D

 18 16  0  0  0  0  0  0  0  0999 V2000
   -0.0231    1.5228    0.0191 C   0  0  0  0  0  0  0  0  0  0  0  0
   -0.1573    1.8044    0.9561 H   0  0  0  0  0  0  0  0  0  0  0  0
   -0.7697    1.8133   -0.5576 H   0  0  0  0  0  0  0  0  0  0  0  0
    0.8933    1.9849   -0.3481 H   0  0  0  0  0  0  0  0  0  0  0  0
    0.0000    0.0000    0.0000 C   0  0  0  0  0  0  0  0  0  0  0  0
   -1.0960   -0.5961    0.0000 O   0  0  0  0  0  1  0  0  0  0  0  0
    1.0960   -0.6044   -0.0000 O   0  0  0  0  0  0  0  0  0  0  0  0
   -4.5687   -2.6124    2.6352 C   0  0  0  0  0  0  0  0  0  0  0  0
   -4.8125   -2.9037    1.7063 H   0  0  0  0  0  0  0  0  0  0  0  0
   -5.1124   -1.8040    2.8744 H   0  0  0  0  0  0  0  0  0  0  0  0
   -4.8451   -3.4150    3.3189 H   0  0  0  0  0  0  0  0  0  0  0  0
   -3.1045   -2.2118    2.6352 C   0  0  0  0  0  0  0  0  0  0  0  0
   -3.0356   -1.2111    2.6659 H   0  0  0  0  0  0  0  0  0  0  0  0
   -2.6574   -2.5940    3.4482 H   0  0  0  0  0  0  0  0  0  0  0  0
   -2.3657   -2.7011    1.4154 C   0  0  0  0  0  0  0  0  0  0  0  0
   -3.0367   -2.9028    0.7016 H   0  0  0  0  0  0  0  0  0  0  0  0
   -1.7574   -1.9700    1.1040 H   0  0  0  0  0  0  0  0  0  0  0  0
   -1.7768   -3.5961    1.6161 H   0  0  0  0  0  0  0  0  0  0  0  0
  1  5  1  0
  5  6  1  0
  5  7  2  0
  1  2  1  0
  1  3  1  0
  1  4  1  0
  8 12  1  0
 12 15  1  0
  8  9  1  0
  8 10  1  0
  8 11  1  0
 12 13  1  0
 12 14  1  0
 15 16  1  0
 15 17  1  0
 15 18  1  0
M  CHG  1   6  -1
M  END
>  <PDB_ID>  (1271) 
pdb3f4l

>  <RESIDUE_NAME>  (1271) 
GLU   ARG

>  <FRAG_NAME>  (1271) 
ACET   PRPA

>  <FRAG_ATOM_NUM>  (1271) 
fragi: 7  fragj: 11

>  <atom.prop.CHAIN_ID>  (1271) 
A A A A A A A Z Z Z Z Z Z Z Z Z Z Z

>  <atom.prop.IS_HEAVY_ATOM>  (1271) 
1 0 0 0 1 1 1 1 0 0 0 1 0 0 1 0 0 0

>  <DIFUSE_FUNC_ATOM>  (1271) 
atom 6   atom 7   

>  <FINAL_SINGLE_POINT_ENERGY>  (1271) 
0

>  <NONCOV_INTER_ENERGY_QM>  (1271) 
0

>  <FF_Energy>  (1271) 
15.14

>  <QM_Energy>  (1271) 
-1.07

>  <source>  (1271) 
ACET_PRPA_13

>  <Index>  (1271) 
11216

$$$$
ACET-pdb3fcm-A-GLU-93:PRPA-pdb3fcm-A-LYS-147
     RDKit          3D

 18 16  0  0  0  0  0  0  0  0999 V2000
    0.0076    1.5204   -0.0088 C   0  0  0  0  0  0  0  0  0  0  0  0
   -0.3728    1.8133   -0.8662 H   0  0  0  0  0  0  0  0  0  0  0  0
    0.9384    1.8124    0.1069 H   0  0  0  0  0  0  0  0  0  0  0  0
   -0.5897    1.9502    0.7953 H   0  0  0  0  0  0  0  0  0  0  0  0
    0.0000    0.0000    0.0000 C   0  0  0  0  0  0  0  0  0  0  0  0
   -1.1009   -0.5920    0.0000 O   0  0  0  0  0  1  0  0  0  0  0  0
    1.1009   -0.5968    0.0000 O   0  0  0  0  0  0  0  0  0  0  0  0
   -4.1060   -1.5895   -0.2357 C   0  0  0  0  0  0  0  0  0  0  0  0
   -3.8645   -1.3770    0.7093 H   0  0  0  0  0  0  0  0  0  0  0  0
   -3.6191   -2.4080   -0.5331 H   0  0  0  0  0  0  0  0  0  0  0  0
   -5.1791   -1.7705   -0.2972 H   0  0  0  0  0  0  0  0  0  0  0  0
   -3.6875   -0.4170   -1.1247 C   0  0  0  0  0  0  0  0  0  0  0  0
   -4.2598    0.3708   -0.9047 H   0  0  0  0  0  0  0  0  0  0  0  0
   -2.7307   -0.2005   -0.9396 H   0  0  0  0  0  0  0  0  0  0  0  0
   -3.8357   -0.7234   -2.6125 C   0  0  0  0  0  0  0  0  0  0  0  0
   -4.7794   -1.0262   -2.7873 H   0  0  0  0  0  0  0  0  0  0  0  0
   -3.6724    0.1221   -3.1344 H   0  0  0  0  0  0  0  0  0  0  0  0
   -3.1442   -1.4931   -2.9551 H   0  0  0  0  0  0  0  0  0  0  0  0
  1  5  1  0
  5  6  1  0
  5  7  2  0
  1  2  1  0
  1  3  1  0
  1  4  1  0
  8 12  1  0
 12 15  1  0
  8  9  1  0
  8 10  1  0
  8 11  1  0
 12 13  1  0
 12 14  1  0
 15 16  1  0
 15 17  1  0
 15 18  1  0
M  CHG  1   6  -1
M  END
>  <PDB_ID>  (1272) 
pdb3fcm

>  <RESIDUE_NAME>  (1272) 
GLU   LYS

>  <FRAG_NAME>  (1272) 
ACET   PRPA

>  <FRAG_ATOM_NUM>  (1272) 
fragi: 7  fragj: 11

>  <atom.prop.CHAIN_ID>  (1272) 
A A A A A A A Z Z Z Z Z Z Z Z Z Z Z

>  <atom.prop.IS_HEAVY_ATOM>  (1272) 
1 0 0 0 1 1 1 1 0 0 0 1 0 0 1 0 0 0

>  <DIFUSE_FUNC_ATOM>  (1272) 
atom 6   atom 7   

>  <FINAL_SINGLE_POINT_ENERGY>  (1272) 
0

>  <NONCOV_INTER_ENERGY_QM>  (1272) 
0

>  <FF_Energy>  (1272) 
14.55

>  <QM_Energy>  (1272) 
-1.87

>  <source>  (1272) 
ACET_PRPA_13

>  <Index>  (1272) 
14477

$$$$
ACET-pdb4aez-E-ASP-166:PRPA-pdb4aez-D-LYS-133
     RDKit          3D

 18 16  0  0  0  0  0  0  0  0999 V2000
    0.0002    1.5137   -0.0055 C   0  0  0  0  0  0  0  0  0  0  0  0
    0.9240    1.8340   -0.1832 H   0  0  0  0  0  0  0  0  0  0  0  0
   -0.3160    1.8381    0.8783 H   0  0  0  0  0  0  0  0  0  0  0  0
   -0.6536    1.9310   -0.7712 H   0  0  0  0  0  0  0  0  0  0  0  0
    0.0000    0.0000    0.0000 C   0  0  0  0  0  0  0  0  0  0  0  0
   -1.0990   -0.5942   -0.0000 O   0  0  0  0  0  1  0  0  0  0  0  0
    1.0990   -0.5948    0.0000 O   0  0  0  0  0  0  0  0  0  0  0  0
   -3.7712    1.3153    1.5300 C   0  0  0  0  0  0  0  0  0  0  0  0
   -2.8410    1.1048    1.8363 H   0  0  0  0  0  0  0  0  0  0  0  0
   -4.4287    0.8483    2.1236 H   0  0  0  0  0  0  0  0  0  0  0  0
   -3.9318    2.3911    1.5997 H   0  0  0  0  0  0  0  0  0  0  0  0
   -3.9468    0.8131    0.1092 C   0  0  0  0  0  0  0  0  0  0  0  0
   -4.8765    1.0276   -0.1951 H   0  0  0  0  0  0  0  0  0  0  0  0
   -3.2895    1.2825   -0.4825 H   0  0  0  0  0  0  0  0  0  0  0  0
   -3.7291   -0.6776   -0.0135 C   0  0  0  0  0  0  0  0  0  0  0  0
   -2.7996   -0.8992    0.2839 H   0  0  0  0  0  0  0  0  0  0  0  0
   -4.3863   -1.1549    0.5708 H   0  0  0  0  0  0  0  0  0  0  0  0
   -3.8634   -1.0044   -1.0446 H   0  0  0  0  0  0  0  0  0  0  0  0
  1  5  1  0
  5  6  1  0
  5  7  2  0
  1  2  1  0
  1  3  1  0
  1  4  1  0
  8 12  1  0
 12 15  1  0
  8  9  1  0
  8 10  1  0
  8 11  1  0
 12 13  1  0
 12 14  1  0
 15 16  1  0
 15 17  1  0
 15 18  1  0
M  CHG  1   6  -1
M  END
>  <PDB_ID>  (1273) 
pdb4aez

>  <RESIDUE_NAME>  (1273) 
ASP   LYS

>  <FRAG_NAME>  (1273) 
ACET   PRPA

>  <FRAG_ATOM_NUM>  (1273) 
fragi: 7  fragj: 11

>  <atom.prop.CHAIN_ID>  (1273) 
A A A A A A A Z Z Z Z Z Z Z Z Z Z Z

>  <atom.prop.IS_HEAVY_ATOM>  (1273) 
1 0 0 0 1 1 1 1 0 0 0 1 0 0 1 0 0 0

>  <DIFUSE_FUNC_ATOM>  (1273) 
atom 6   atom 7   

>  <FINAL_SINGLE_POINT_ENERGY>  (1273) 
0

>  <NONCOV_INTER_ENERGY_QM>  (1273) 
0

>  <FF_Energy>  (1273) 
41.14

>  <QM_Energy>  (1273) 
1.35

>  <source>  (1273) 
ACET_PRPA_13

>  <Index>  (1273) 
16567

$$$$
ACET-pdb3ff8-A-ASP-67:PRPA-pdb3ff8-A-ARG-70
     RDKit          3D

 18 16  0  0  0  0  0  0  0  0999 V2000
    0.0315    1.5347   -0.0159 C   0  0  0  0  0  0  0  0  0  0  0  0
    0.3335    1.8298   -0.9134 H   0  0  0  0  0  0  0  0  0  0  0  0
    0.6621    1.8403    0.6852 H   0  0  0  0  0  0  0  0  0  0  0  0
   -0.9444    1.9783    0.1817 H   0  0  0  0  0  0  0  0  0  0  0  0
    0.0000    0.0000    0.0000 C   0  0  0  0  0  0  0  0  0  0  0  0
   -1.0992   -0.6098    0.0000 O   0  0  0  0  0  1  0  0  0  0  0  0
    1.0992   -0.5878    0.0000 O   0  0  0  0  0  0  0  0  0  0  0  0
    1.4784    0.0738    4.4519 C   0  0  0  0  0  0  0  0  0  0  0  0
    1.9674   -0.7151    4.8705 H   0  0  0  0  0  0  0  0  0  0  0  0
    0.5979   -0.3032    3.9316 H   0  0  0  0  0  0  0  0  0  0  0  0
    1.2490    0.7946    5.2367 H   0  0  0  0  0  0  0  0  0  0  0  0
    2.5135    0.6530    3.4837 C   0  0  0  0  0  0  0  0  0  0  0  0
    3.3273    0.9109    4.0248 H   0  0  0  0  0  0  0  0  0  0  0  0
    2.7859   -0.0853    2.8495 H   0  0  0  0  0  0  0  0  0  0  0  0
    2.0943    1.8428    2.6675 C   0  0  0  0  0  0  0  0  0  0  0  0
    1.4580    1.5696    1.9702 H   0  0  0  0  0  0  0  0  0  0  0  0
    1.7308    2.5441    3.2520 H   0  0  0  0  0  0  0  0  0  0  0  0
    2.9862    2.2360    2.1796 H   0  0  0  0  0  0  0  0  0  0  0  0
  1  5  1  0
  5  6  1  0
  5  7  2  0
  1  2  1  0
  1  3  1  0
  1  4  1  0
  8 12  1  0
 12 15  1  0
  8  9  1  0
  8 10  1  0
  8 11  1  0
 12 13  1  0
 12 14  1  0
 15 16  1  0
 15 17  1  0
 15 18  1  0
M  CHG  1   6  -1
M  END
>  <PDB_ID>  (1274) 
pdb3ff8

>  <RESIDUE_NAME>  (1274) 
ASP   ARG

>  <FRAG_NAME>  (1274) 
ACET   PRPA

>  <FRAG_ATOM_NUM>  (1274) 
fragi: 7  fragj: 11

>  <atom.prop.CHAIN_ID>  (1274) 
A A A A A A A Z Z Z Z Z Z Z Z Z Z Z

>  <atom.prop.IS_HEAVY_ATOM>  (1274) 
1 0 0 0 1 1 1 1 0 0 0 1 0 0 1 0 0 0

>  <DIFUSE_FUNC_ATOM>  (1274) 
atom 6   atom 7   

>  <FINAL_SINGLE_POINT_ENERGY>  (1274) 
0

>  <NONCOV_INTER_ENERGY_QM>  (1274) 
0

>  <FF_Energy>  (1274) 
20.39

>  <QM_Energy>  (1274) 
0.98

>  <source>  (1274) 
ACET_PRPA_13

>  <Index>  (1274) 
16621

$$$$
ACET-pdb3fhg-A-ASP-111:PRPA-pdb3fhg-A-LEU-114
     RDKit          3D

 18 16  0  0  0  0  0  0  0  0999 V2000
   -0.0004    1.5118    0.0096 C   0  0  0  0  0  0  0  0  0  0  0  0
    0.9381    1.8349   -0.0414 H   0  0  0  0  0  0  0  0  0  0  0  0
   -0.4313    1.8287    0.8465 H   0  0  0  0  0  0  0  0  0  0  0  0
   -0.5472    1.9382   -0.8314 H   0  0  0  0  0  0  0  0  0  0  0  0
    0.0000    0.0000    0.0000 C   0  0  0  0  0  0  0  0  0  0  0  0
   -1.0976   -0.5920   -0.0000 O   0  0  0  0  0  1  0  0  0  0  0  0
    1.0976   -0.6025    0.0000 O   0  0  0  0  0  0  0  0  0  0  0  0
   -1.8157    0.6624    3.3572 C   0  0  0  0  0  0  0  0  0  0  0  0
   -1.5578    1.0965    2.4941 H   0  0  0  0  0  0  0  0  0  0  0  0
   -1.9635    1.3632    4.0532 H   0  0  0  0  0  0  0  0  0  0  0  0
   -2.7615    0.1441    3.1998 H   0  0  0  0  0  0  0  0  0  0  0  0
   -0.6193   -0.1860    3.8127 C   0  0  0  0  0  0  0  0  0  0  0  0
    0.1659    0.4084    3.9409 H   0  0  0  0  0  0  0  0  0  0  0  0
   -0.8641   -0.6772    4.7545 H   0  0  0  0  0  0  0  0  0  0  0  0
   -0.2687   -1.2258    2.7604 C   0  0  0  0  0  0  0  0  0  0  0  0
   -0.0318   -0.7681    1.9024 H   0  0  0  0  0  0  0  0  0  0  0  0
    0.5116   -1.7694    3.0727 H   0  0  0  0  0  0  0  0  0  0  0  0
   -1.0537   -1.8280    2.6099 H   0  0  0  0  0  0  0  0  0  0  0  0
  1  5  1  0
  5  6  1  0
  5  7  2  0
  1  2  1  0
  1  3  1  0
  1  4  1  0
  8 12  1  0
 12 15  1  0
  8  9  1  0
  8 10  1  0
  8 11  1  0
 12 13  1  0
 12 14  1  0
 15 16  1  0
 15 17  1  0
 15 18  1  0
M  CHG  1   6  -1
M  END
>  <PDB_ID>  (1275) 
pdb3fhg

>  <RESIDUE_NAME>  (1275) 
ASP   LEU

>  <FRAG_NAME>  (1275) 
ACET   PRPA

>  <FRAG_ATOM_NUM>  (1275) 
fragi: 7  fragj: 11

>  <atom.prop.CHAIN_ID>  (1275) 
A A A A A A A Z Z Z Z Z Z Z Z Z Z Z

>  <atom.prop.IS_HEAVY_ATOM>  (1275) 
1 0 0 0 1 1 1 1 0 0 0 1 0 0 1 0 0 0

>  <DIFUSE_FUNC_ATOM>  (1275) 
atom 6   atom 7   

>  <FINAL_SINGLE_POINT_ENERGY>  (1275) 
0

>  <NONCOV_INTER_ENERGY_QM>  (1275) 
0

>  <FF_Energy>  (1275) 
17.97

>  <QM_Energy>  (1275) 
0.86

>  <source>  (1275) 
ACET_PRPA_13

>  <Index>  (1275) 
17155

$$$$
ACET-pdb3fhg-A-ASP-111:PRPA-pdb3fhg-A-LEU-114
     RDKit          3D

 18 16  0  0  0  0  0  0  0  0999 V2000
   -0.0004    1.5118    0.0096 C   0  0  0  0  0  0  0  0  0  0  0  0
    0.9381    1.8349   -0.0414 H   0  0  0  0  0  0  0  0  0  0  0  0
   -0.4313    1.8287    0.8465 H   0  0  0  0  0  0  0  0  0  0  0  0
   -0.5472    1.9382   -0.8314 H   0  0  0  0  0  0  0  0  0  0  0  0
    0.0000    0.0000    0.0000 C   0  0  0  0  0  0  0  0  0  0  0  0
   -1.0976   -0.5920   -0.0000 O   0  0  0  0  0  1  0  0  0  0  0  0
    1.0976   -0.6025    0.0000 O   0  0  0  0  0  0  0  0  0  0  0  0
   -0.9608   -0.8713    5.1267 C   0  0  0  0  0  0  0  0  0  0  0  0
   -1.7597   -1.4603    4.9995 H   0  0  0  0  0  0  0  0  0  0  0  0
   -0.1840   -1.4258    5.4270 H   0  0  0  0  0  0  0  0  0  0  0  0
   -1.1647   -0.1810    5.8213 H   0  0  0  0  0  0  0  0  0  0  0  0
   -0.6193   -0.1860    3.8127 C   0  0  0  0  0  0  0  0  0  0  0  0
    0.1659    0.4084    3.9409 H   0  0  0  0  0  0  0  0  0  0  0  0
   -1.4684    0.4162    3.4894 H   0  0  0  0  0  0  0  0  0  0  0  0
   -0.2687   -1.2258    2.7604 C   0  0  0  0  0  0  0  0  0  0  0  0
   -0.0318   -0.7681    1.9024 H   0  0  0  0  0  0  0  0  0  0  0  0
    0.5116   -1.7694    3.0727 H   0  0  0  0  0  0  0  0  0  0  0  0
   -1.0537   -1.8280    2.6099 H   0  0  0  0  0  0  0  0  0  0  0  0
  1  5  1  0
  5  6  1  0
  5  7  2  0
  1  2  1  0
  1  3  1  0
  1  4  1  0
  8 12  1  0
 12 15  1  0
  8  9  1  0
  8 10  1  0
  8 11  1  0
 12 13  1  0
 12 14  1  0
 15 16  1  0
 15 17  1  0
 15 18  1  0
M  CHG  1   6  -1
M  END
>  <PDB_ID>  (1276) 
pdb3fhg

>  <RESIDUE_NAME>  (1276) 
ASP   LEU

>  <FRAG_NAME>  (1276) 
ACET   PRPA

>  <FRAG_ATOM_NUM>  (1276) 
fragi: 7  fragj: 11

>  <atom.prop.CHAIN_ID>  (1276) 
A A A A A A A Z Z Z Z Z Z Z Z Z Z Z

>  <atom.prop.IS_HEAVY_ATOM>  (1276) 
1 0 0 0 1 1 1 1 0 0 0 1 0 0 1 0 0 0

>  <DIFUSE_FUNC_ATOM>  (1276) 
atom 6   atom 7   

>  <FINAL_SINGLE_POINT_ENERGY>  (1276) 
0

>  <NONCOV_INTER_ENERGY_QM>  (1276) 
0

>  <FF_Energy>  (1276) 
17.45

>  <QM_Energy>  (1276) 
1.31

>  <source>  (1276) 
ACET_PRPA_13

>  <Index>  (1276) 
17162

$$$$
ACET-pdb4a57-B-ASP-419:PRPA-pdb4a57-B-LYS-422
     RDKit          3D

 18 16  0  0  0  0  0  0  0  0999 V2000
   -0.0033    1.5171    0.1379 C   0  0  0  0  0  0  0  0  0  0  0  0
    0.8875    1.8651   -0.1650 H   0  0  0  0  0  0  0  0  0  0  0  0
   -0.1304    1.7473    1.1055 H   0  0  0  0  0  0  0  0  0  0  0  0
   -0.7744    2.0344   -0.4330 H   0  0  0  0  0  0  0  0  0  0  0  0
    0.0000    0.0000    0.0000 C   0  0  0  0  0  0  0  0  0  0  0  0
   -1.1021   -0.6046    0.0000 O   0  0  0  0  0  1  0  0  0  0  0  0
    1.1021   -0.5897    0.0000 O   0  0  0  0  0  0  0  0  0  0  0  0
   -2.3347    1.6942    4.0839 C   0  0  0  0  0  0  0  0  0  0  0  0
   -2.3400    1.9755    3.1277 H   0  0  0  0  0  0  0  0  0  0  0  0
   -2.5814    2.4657    4.6653 H   0  0  0  0  0  0  0  0  0  0  0  0
   -3.0967    0.9251    4.2100 H   0  0  0  0  0  0  0  0  0  0  0  0
   -0.9560    1.2299    4.4476 C   0  0  0  0  0  0  0  0  0  0  0  0
   -0.4146    2.0121    4.7618 H   0  0  0  0  0  0  0  0  0  0  0  0
   -1.0163    0.5529    5.1826 H   0  0  0  0  0  0  0  0  0  0  0  0
   -0.2746    0.6076    3.2629 C   0  0  0  0  0  0  0  0  0  0  0  0
   -0.8176   -0.1899    2.9576 H   0  0  0  0  0  0  0  0  0  0  0  0
   -0.2627    1.2771    2.5046 H   0  0  0  0  0  0  0  0  0  0  0  0
    0.7479    0.2786    3.4483 H   0  0  0  0  0  0  0  0  0  0  0  0
  1  5  1  0
  5  6  1  0
  5  7  2  0
  1  2  1  0
  1  3  1  0
  1  4  1  0
  8 12  1  0
 12 15  1  0
  8  9  1  0
  8 10  1  0
  8 11  1  0
 12 13  1  0
 12 14  1  0
 15 16  1  0
 15 17  1  0
 15 18  1  0
M  CHG  1   6  -1
M  END
>  <PDB_ID>  (1277) 
pdb4a57

>  <RESIDUE_NAME>  (1277) 
ASP   LYS

>  <FRAG_NAME>  (1277) 
ACET   PRPA

>  <FRAG_ATOM_NUM>  (1277) 
fragi: 7  fragj: 11

>  <atom.prop.CHAIN_ID>  (1277) 
A A A A A A A Z Z Z Z Z Z Z Z Z Z Z

>  <atom.prop.IS_HEAVY_ATOM>  (1277) 
1 0 0 0 1 1 1 1 0 0 0 1 0 0 1 0 0 0

>  <DIFUSE_FUNC_ATOM>  (1277) 
atom 6   atom 7   

>  <FINAL_SINGLE_POINT_ENERGY>  (1277) 
0

>  <NONCOV_INTER_ENERGY_QM>  (1277) 
0

>  <FF_Energy>  (1277) 
30.61

>  <QM_Energy>  (1277) 
3.2

>  <source>  (1277) 
ACET_PRPA_13

>  <Index>  (1277) 
18272

$$$$
ACET-pdb4a57-B-ASP-419:PRPA-pdb4a57-B-LYS-422
     RDKit          3D

 18 16  0  0  0  0  0  0  0  0999 V2000
   -0.0033    1.5171    0.1379 C   0  0  0  0  0  0  0  0  0  0  0  0
    0.8875    1.8651   -0.1650 H   0  0  0  0  0  0  0  0  0  0  0  0
   -0.1304    1.7473    1.1055 H   0  0  0  0  0  0  0  0  0  0  0  0
   -0.7744    2.0344   -0.4330 H   0  0  0  0  0  0  0  0  0  0  0  0
    0.0000    0.0000    0.0000 C   0  0  0  0  0  0  0  0  0  0  0  0
   -1.1021   -0.6046    0.0000 O   0  0  0  0  0  1  0  0  0  0  0  0
    1.1021   -0.5897    0.0000 O   0  0  0  0  0  0  0  0  0  0  0  0
   -0.9560    1.2299    4.4476 C   0  0  0  0  0  0  0  0  0  0  0  0
   -0.4146    2.0121    4.7618 H   0  0  0  0  0  0  0  0  0  0  0  0
   -1.0163    0.5529    5.1826 H   0  0  0  0  0  0  0  0  0  0  0  0
   -1.9582    1.5674    4.1832 H   0  0  0  0  0  0  0  0  0  0  0  0
   -0.2746    0.6076    3.2629 C   0  0  0  0  0  0  0  0  0  0  0  0
   -0.8176   -0.1899    2.9576 H   0  0  0  0  0  0  0  0  0  0  0  0
   -0.2627    1.2771    2.5046 H   0  0  0  0  0  0  0  0  0  0  0  0
    1.1341    0.1543    3.5182 C   0  0  0  0  0  0  0  0  0  0  0  0
    1.1169   -0.7123    4.0310 H   0  0  0  0  0  0  0  0  0  0  0  0
    1.5968   -0.0074    2.6389 H   0  0  0  0  0  0  0  0  0  0  0  0
    1.7042    0.8894    4.0862 H   0  0  0  0  0  0  0  0  0  0  0  0
  1  5  1  0
  5  6  1  0
  5  7  2  0
  1  2  1  0
  1  3  1  0
  1  4  1  0
  8 12  1  0
 12 15  1  0
  8  9  1  0
  8 10  1  0
  8 11  1  0
 12 13  1  0
 12 14  1  0
 15 16  1  0
 15 17  1  0
 15 18  1  0
M  CHG  1   6  -1
M  END
>  <PDB_ID>  (1278) 
pdb4a57

>  <RESIDUE_NAME>  (1278) 
ASP   LYS

>  <FRAG_NAME>  (1278) 
ACET   PRPA

>  <FRAG_ATOM_NUM>  (1278) 
fragi: 7  fragj: 11

>  <atom.prop.CHAIN_ID>  (1278) 
A A A A A A A Z Z Z Z Z Z Z Z Z Z Z

>  <atom.prop.IS_HEAVY_ATOM>  (1278) 
1 0 0 0 1 1 1 1 0 0 0 1 0 0 1 0 0 0

>  <DIFUSE_FUNC_ATOM>  (1278) 
atom 6   atom 7   

>  <FINAL_SINGLE_POINT_ENERGY>  (1278) 
0

>  <NONCOV_INTER_ENERGY_QM>  (1278) 
0

>  <FF_Energy>  (1278) 
35.4

>  <QM_Energy>  (1278) 
1.17

>  <source>  (1278) 
ACET_PRPA_13

>  <Index>  (1278) 
18279

$$$$
ACET-pdb3fbt-B-GLU-164:PRPA-pdb3fbt-B-LYS-167
     RDKit          3D

 18 16  0  0  0  0  0  0  0  0999 V2000
    0.0459    1.5479    0.0198 C   0  0  0  0  0  0  0  0  0  0  0  0
    0.8042    1.8100   -0.5535 H   0  0  0  0  0  0  0  0  0  0  0  0
    0.1931    1.8079    0.9595 H   0  0  0  0  0  0  0  0  0  0  0  0
   -0.8653    2.0190   -0.3487 H   0  0  0  0  0  0  0  0  0  0  0  0
    0.0000    0.0000    0.0000 C   0  0  0  0  0  0  0  0  0  0  0  0
   -1.1075   -0.6053    0.0000 O   0  0  0  0  0  1  0  0  0  0  0  0
    1.1075   -0.6027    0.0000 O   0  0  0  0  0  0  0  0  0  0  0  0
   -4.0033   -2.3110   -2.2307 C   0  0  0  0  0  0  0  0  0  0  0  0
   -3.5610   -2.4901   -3.1037 H   0  0  0  0  0  0  0  0  0  0  0  0
   -3.7830   -1.3951   -1.9124 H   0  0  0  0  0  0  0  0  0  0  0  0
   -5.0830   -2.4104   -2.3418 H   0  0  0  0  0  0  0  0  0  0  0  0
   -3.4866   -3.3211   -1.2064 C   0  0  0  0  0  0  0  0  0  0  0  0
   -4.2481   -3.6305   -0.6581 H   0  0  0  0  0  0  0  0  0  0  0  0
   -3.0617   -4.0707   -1.6897 H   0  0  0  0  0  0  0  0  0  0  0  0
   -2.4676   -2.6636   -0.3151 C   0  0  0  0  0  0  0  0  0  0  0  0
   -1.8128   -2.1395   -0.8818 H   0  0  0  0  0  0  0  0  0  0  0  0
   -2.9321   -2.0076    0.2999 H   0  0  0  0  0  0  0  0  0  0  0  0
   -1.9013   -3.3637    0.2993 H   0  0  0  0  0  0  0  0  0  0  0  0
  1  5  1  0
  5  6  1  0
  5  7  2  0
  1  2  1  0
  1  3  1  0
  1  4  1  0
  8 12  1  0
 12 15  1  0
  8  9  1  0
  8 10  1  0
  8 11  1  0
 12 13  1  0
 12 14  1  0
 15 16  1  0
 15 17  1  0
 15 18  1  0
M  CHG  1   6  -1
M  END
>  <PDB_ID>  (1279) 
pdb3fbt

>  <RESIDUE_NAME>  (1279) 
GLU   LYS

>  <FRAG_NAME>  (1279) 
ACET   PRPA

>  <FRAG_ATOM_NUM>  (1279) 
fragi: 7  fragj: 11

>  <atom.prop.CHAIN_ID>  (1279) 
A A A A A A A Z Z Z Z Z Z Z Z Z Z Z

>  <atom.prop.IS_HEAVY_ATOM>  (1279) 
1 0 0 0 1 1 1 1 0 0 0 1 0 0 1 0 0 0

>  <DIFUSE_FUNC_ATOM>  (1279) 
atom 6   atom 7   

>  <FINAL_SINGLE_POINT_ENERGY>  (1279) 
0

>  <NONCOV_INTER_ENERGY_QM>  (1279) 
0

>  <FF_Energy>  (1279) 
23.24

>  <QM_Energy>  (1279) 
5.32

>  <source>  (1279) 
ACET_PRPA_13

>  <Index>  (1279) 
18724

$$$$
ACET-pdb4bbq-B-GLU-671:PRPA-pdb4bbq-B-ILE-644
     RDKit          3D

 18 16  0  0  0  0  0  0  0  0999 V2000
    0.0059    1.5159   -0.0651 C   0  0  0  0  0  0  0  0  0  0  0  0
   -0.3744    1.7762   -0.9465 H   0  0  0  0  0  0  0  0  0  0  0  0
    0.9535    1.8108    0.0023 H   0  0  0  0  0  0  0  0  0  0  0  0
   -0.5651    2.0215    0.7137 H   0  0  0  0  0  0  0  0  0  0  0  0
    0.0000    0.0000    0.0000 C   0  0  0  0  0  0  0  0  0  0  0  0
   -1.1027   -0.5947    0.0000 O   0  0  0  0  0  1  0  0  0  0  0  0
    1.1027   -0.5961    0.0000 O   0  0  0  0  0  0  0  0  0  0  0  0
   -2.0813    2.7097   -4.2226 C   0  0  0  0  0  0  0  0  0  0  0  0
   -2.5538    3.3571   -3.6410 H   0  0  0  0  0  0  0  0  0  0  0  0
   -1.4163    3.2831   -4.8684 H   0  0  0  0  0  0  0  0  0  0  0  0
   -2.8096    2.1661   -4.8244 H   0  0  0  0  0  0  0  0  0  0  0  0
   -1.2648    1.7771   -3.3556 C   0  0  0  0  0  0  0  0  0  0  0  0
   -0.9851    0.9923   -3.8977 H   0  0  0  0  0  0  0  0  0  0  0  0
   -0.4552    2.2613   -3.0381 H   0  0  0  0  0  0  0  0  0  0  0  0
   -2.0362    1.2872   -2.1479 C   0  0  0  0  0  0  0  0  0  0  0  0
   -2.8490    0.7934   -2.4528 H   0  0  0  0  0  0  0  0  0  0  0  0
   -1.4557    0.6779   -1.6099 H   0  0  0  0  0  0  0  0  0  0  0  0
   -2.3083    2.0689   -1.5900 H   0  0  0  0  0  0  0  0  0  0  0  0
  1  5  1  0
  5  6  1  0
  5  7  2  0
  1  2  1  0
  1  3  1  0
  1  4  1  0
  8 12  1  0
 12 15  1  0
  8  9  1  0
  8 10  1  0
  8 11  1  0
 12 13  1  0
 12 14  1  0
 15 16  1  0
 15 17  1  0
 15 18  1  0
M  CHG  1   6  -1
M  END
>  <PDB_ID>  (1280) 
pdb4bbq

>  <RESIDUE_NAME>  (1280) 
GLU   ILE

>  <FRAG_NAME>  (1280) 
ACET   PRPA

>  <FRAG_ATOM_NUM>  (1280) 
fragi: 7  fragj: 11

>  <atom.prop.CHAIN_ID>  (1280) 
A A A A A A A Z Z Z Z Z Z Z Z Z Z Z

>  <atom.prop.IS_HEAVY_ATOM>  (1280) 
1 0 0 0 1 1 1 1 0 0 0 1 0 0 1 0 0 0

>  <DIFUSE_FUNC_ATOM>  (1280) 
atom 6   atom 7   

>  <FINAL_SINGLE_POINT_ENERGY>  (1280) 
0

>  <NONCOV_INTER_ENERGY_QM>  (1280) 
0

>  <FF_Energy>  (1280) 
31.62

>  <QM_Energy>  (1280) 
5.71

>  <source>  (1280) 
ACET_PRPA_13

>  <Index>  (1280) 
18921

$$$$
ACET-pdb4b7o-A-ASP-176:PRPA-pdb4b7o-A-LYS-145
     RDKit          3D

 18 16  0  0  0  0  0  0  0  0999 V2000
    0.0139    1.4983   -0.0101 C   0  0  0  0  0  0  0  0  0  0  0  0
    0.9391    1.8089   -0.2109 H   0  0  0  0  0  0  0  0  0  0  0  0
   -0.2707    1.8276    0.8849 H   0  0  0  0  0  0  0  0  0  0  0  0
   -0.6607    1.9080   -0.7619 H   0  0  0  0  0  0  0  0  0  0  0  0
    0.0000    0.0000    0.0000 C   0  0  0  0  0  0  0  0  0  0  0  0
   -1.1245   -0.5981   -0.0000 O   0  0  0  0  0  1  0  0  0  0  0  0
    1.1245   -0.5831    0.0000 O   0  0  0  0  0  0  0  0  0  0  0  0
    2.8206   -0.5235    3.1226 C   0  0  0  0  0  0  0  0  0  0  0  0
    1.8733   -0.1958    3.0129 H   0  0  0  0  0  0  0  0  0  0  0  0
    3.3793   -0.1143    2.3879 H   0  0  0  0  0  0  0  0  0  0  0  0
    3.1988   -0.1651    4.0800 H   0  0  0  0  0  0  0  0  0  0  0  0
    2.8245   -2.0163    2.9396 C   0  0  0  0  0  0  0  0  0  0  0  0
    3.7089   -2.3106    2.6008 H   0  0  0  0  0  0  0  0  0  0  0  0
    2.6092   -2.4610    3.7988 H   0  0  0  0  0  0  0  0  0  0  0  0
    1.7596   -2.3962    1.9131 C   0  0  0  0  0  0  0  0  0  0  0  0
    0.9014   -2.5540    2.3875 H   0  0  0  0  0  0  0  0  0  0  0  0
    1.6666   -1.6544    1.2594 H   0  0  0  0  0  0  0  0  0  0  0  0
    2.0357   -3.3038    1.3763 H   0  0  0  0  0  0  0  0  0  0  0  0
  1  5  1  0
  5  6  1  0
  5  7  2  0
  1  2  1  0
  1  3  1  0
  1  4  1  0
  8 12  1  0
 12 15  1  0
  8  9  1  0
  8 10  1  0
  8 11  1  0
 12 13  1  0
 12 14  1  0
 15 16  1  0
 15 17  1  0
 15 18  1  0
M  CHG  1   6  -1
M  END
>  <PDB_ID>  (1281) 
pdb4b7o

>  <RESIDUE_NAME>  (1281) 
ASP   LYS

>  <FRAG_NAME>  (1281) 
ACET   PRPA

>  <FRAG_ATOM_NUM>  (1281) 
fragi: 7  fragj: 11

>  <atom.prop.CHAIN_ID>  (1281) 
A A A A A A A Z Z Z Z Z Z Z Z Z Z Z

>  <atom.prop.IS_HEAVY_ATOM>  (1281) 
1 0 0 0 1 1 1 1 0 0 0 1 0 0 1 0 0 0

>  <DIFUSE_FUNC_ATOM>  (1281) 
atom 6   atom 7   

>  <FINAL_SINGLE_POINT_ENERGY>  (1281) 
0

>  <NONCOV_INTER_ENERGY_QM>  (1281) 
0

>  <FF_Energy>  (1281) 
42.3

>  <QM_Energy>  (1281) 
1.87

>  <source>  (1281) 
ACET_PRPA_13

>  <Index>  (1281) 
19167

$$$$
ACET-pdb4b7o-A-ASP-176:PRPA-pdb4b7o-A-LYS-145
     RDKit          3D

 18 16  0  0  0  0  0  0  0  0999 V2000
    0.0139    1.4983   -0.0101 C   0  0  0  0  0  0  0  0  0  0  0  0
    0.9391    1.8089   -0.2109 H   0  0  0  0  0  0  0  0  0  0  0  0
   -0.2707    1.8276    0.8849 H   0  0  0  0  0  0  0  0  0  0  0  0
   -0.6607    1.9080   -0.7619 H   0  0  0  0  0  0  0  0  0  0  0  0
    0.0000    0.0000    0.0000 C   0  0  0  0  0  0  0  0  0  0  0  0
   -1.1245   -0.5981   -0.0000 O   0  0  0  0  0  1  0  0  0  0  0  0
    1.1245   -0.5831    0.0000 O   0  0  0  0  0  0  0  0  0  0  0  0
    2.8245   -2.0163    2.9396 C   0  0  0  0  0  0  0  0  0  0  0  0
    3.7089   -2.3106    2.6008 H   0  0  0  0  0  0  0  0  0  0  0  0
    2.6092   -2.4610    3.7988 H   0  0  0  0  0  0  0  0  0  0  0  0
    2.8216   -0.9344    3.0722 H   0  0  0  0  0  0  0  0  0  0  0  0
    1.7596   -2.3962    1.9131 C   0  0  0  0  0  0  0  0  0  0  0  0
    0.9014   -2.5540    2.3875 H   0  0  0  0  0  0  0  0  0  0  0  0
    1.6666   -1.6544    1.2594 H   0  0  0  0  0  0  0  0  0  0  0  0
    2.1443   -3.6609    1.1650 C   0  0  0  0  0  0  0  0  0  0  0  0
    2.5923   -3.4055    0.3029 H   0  0  0  0  0  0  0  0  0  0  0  0
    2.7935   -4.1849    1.7238 H   0  0  0  0  0  0  0  0  0  0  0  0
    1.2759   -4.2827    0.9473 H   0  0  0  0  0  0  0  0  0  0  0  0
  1  5  1  0
  5  6  1  0
  5  7  2  0
  1  2  1  0
  1  3  1  0
  1  4  1  0
  8 12  1  0
 12 15  1  0
  8  9  1  0
  8 10  1  0
  8 11  1  0
 12 13  1  0
 12 14  1  0
 15 16  1  0
 15 17  1  0
 15 18  1  0
M  CHG  1   6  -1
M  END
>  <PDB_ID>  (1282) 
pdb4b7o

>  <RESIDUE_NAME>  (1282) 
ASP   LYS

>  <FRAG_NAME>  (1282) 
ACET   PRPA

>  <FRAG_ATOM_NUM>  (1282) 
fragi: 7  fragj: 11

>  <atom.prop.CHAIN_ID>  (1282) 
A A A A A A A Z Z Z Z Z Z Z Z Z Z Z

>  <atom.prop.IS_HEAVY_ATOM>  (1282) 
1 0 0 0 1 1 1 1 0 0 0 1 0 0 1 0 0 0

>  <DIFUSE_FUNC_ATOM>  (1282) 
atom 6   atom 7   

>  <FINAL_SINGLE_POINT_ENERGY>  (1282) 
0

>  <NONCOV_INTER_ENERGY_QM>  (1282) 
0

>  <FF_Energy>  (1282) 
49.33

>  <QM_Energy>  (1282) 
1.55

>  <source>  (1282) 
ACET_PRPA_13

>  <Index>  (1282) 
19176

$$$$
ACET-pdb3fef-B-GLU-344:PRPA-pdb3fef-A-ARG-202
     RDKit          3D

 18 16  0  0  0  0  0  0  0  0999 V2000
   -0.0193    1.5170    0.0155 C   0  0  0  0  0  0  0  0  0  0  0  0
   -0.0026    1.8162   -0.9158 H   0  0  0  0  0  0  0  0  0  0  0  0
    0.7623    1.8110    0.5260 H   0  0  0  0  0  0  0  0  0  0  0  0
   -0.9242    1.8895    0.4957 H   0  0  0  0  0  0  0  0  0  0  0  0
    0.0000    0.0000    0.0000 C   0  0  0  0  0  0  0  0  0  0  0  0
   -1.1050   -0.5859    0.0000 O   0  0  0  0  0  1  0  0  0  0  0  0
    1.1050   -0.6030    0.0000 O   0  0  0  0  0  0  0  0  0  0  0  0
   -4.2804   -3.5694   -0.2046 C   0  0  0  0  0  0  0  0  0  0  0  0
   -5.2477   -3.3700   -0.1722 H   0  0  0  0  0  0  0  0  0  0  0  0
   -3.8246   -3.2694    0.6194 H   0  0  0  0  0  0  0  0  0  0  0  0
   -4.1484   -4.6467   -0.3047 H   0  0  0  0  0  0  0  0  0  0  0  0
   -3.6805   -2.7915   -1.3817 C   0  0  0  0  0  0  0  0  0  0  0  0
   -3.9196   -3.2494   -2.2328 H   0  0  0  0  0  0  0  0  0  0  0  0
   -4.0400   -1.8635   -1.3776 H   0  0  0  0  0  0  0  0  0  0  0  0
   -2.1610   -2.7151   -1.2900 C   0  0  0  0  0  0  0  0  0  0  0  0
   -1.9273   -2.0938   -0.5492 H   0  0  0  0  0  0  0  0  0  0  0  0
   -1.8181   -3.6283   -1.0952 H   0  0  0  0  0  0  0  0  0  0  0  0
   -1.7164   -2.3540   -2.2174 H   0  0  0  0  0  0  0  0  0  0  0  0
  1  5  1  0
  5  6  1  0
  5  7  2  0
  1  2  1  0
  1  3  1  0
  1  4  1  0
  8 12  1  0
 12 15  1  0
  8  9  1  0
  8 10  1  0
  8 11  1  0
 12 13  1  0
 12 14  1  0
 15 16  1  0
 15 17  1  0
 15 18  1  0
M  CHG  1   6  -1
M  END
>  <PDB_ID>  (1283) 
pdb3fef

>  <RESIDUE_NAME>  (1283) 
GLU   ARG

>  <FRAG_NAME>  (1283) 
ACET   PRPA

>  <FRAG_ATOM_NUM>  (1283) 
fragi: 7  fragj: 11

>  <atom.prop.CHAIN_ID>  (1283) 
A A A A A A A Z Z Z Z Z Z Z Z Z Z Z

>  <atom.prop.IS_HEAVY_ATOM>  (1283) 
1 0 0 0 1 1 1 1 0 0 0 1 0 0 1 0 0 0

>  <DIFUSE_FUNC_ATOM>  (1283) 
atom 6   atom 7   

>  <FINAL_SINGLE_POINT_ENERGY>  (1283) 
0

>  <NONCOV_INTER_ENERGY_QM>  (1283) 
0

>  <FF_Energy>  (1283) 
27.89

>  <QM_Energy>  (1283) 
2.0

>  <source>  (1283) 
ACET_PRPA_13

>  <Index>  (1283) 
19417

$$$$
ACET-pdb3fbt-B-GLU-289:PRPA-pdb3fbt-B-LYS-281
     RDKit          3D

 18 16  0  0  0  0  0  0  0  0999 V2000
    0.0143    1.5145   -0.0209 C   0  0  0  0  0  0  0  0  0  0  0  0
    0.8423    1.7955    0.4104 H   0  0  0  0  0  0  0  0  0  0  0  0
   -0.7896    1.8104    0.4445 H   0  0  0  0  0  0  0  0  0  0  0  0
   -0.0030    1.8568   -1.0555 H   0  0  0  0  0  0  0  0  0  0  0  0
    0.0000    0.0000    0.0000 C   0  0  0  0  0  0  0  0  0  0  0  0
   -1.1068   -0.5869   -0.0000 O   0  0  0  0  0  1  0  0  0  0  0  0
    1.1068   -0.5932   -0.0000 O   0  0  0  0  0  0  0  0  0  0  0  0
   -3.7550    1.5195    2.1531 C   0  0  0  0  0  0  0  0  0  0  0  0
   -4.6961    1.2657    2.3485 H   0  0  0  0  0  0  0  0  0  0  0  0
   -3.7261    2.2462    1.4748 H   0  0  0  0  0  0  0  0  0  0  0  0
   -3.2832    1.8713    3.0706 H   0  0  0  0  0  0  0  0  0  0  0  0
   -3.0597    0.2775    1.5321 C   0  0  0  0  0  0  0  0  0  0  0  0
   -2.3091    0.5790    0.9842 H   0  0  0  0  0  0  0  0  0  0  0  0
   -2.7953   -0.3278    2.2517 H   0  0  0  0  0  0  0  0  0  0  0  0
   -4.0945   -0.4176    0.6366 C   0  0  0  0  0  0  0  0  0  0  0  0
   -4.9885   -0.3326    1.0611 H   0  0  0  0  0  0  0  0  0  0  0  0
   -4.0887    0.0217   -0.2544 H   0  0  0  0  0  0  0  0  0  0  0  0
   -3.8683   -1.4759    0.5063 H   0  0  0  0  0  0  0  0  0  0  0  0
  1  5  1  0
  5  6  1  0
  5  7  2  0
  1  2  1  0
  1  3  1  0
  1  4  1  0
  8 12  1  0
 12 15  1  0
  8  9  1  0
  8 10  1  0
  8 11  1  0
 12 13  1  0
 12 14  1  0
 15 16  1  0
 15 17  1  0
 15 18  1  0
M  CHG  1   6  -1
M  END
>  <PDB_ID>  (1284) 
pdb3fbt

>  <RESIDUE_NAME>  (1284) 
GLU   LYS

>  <FRAG_NAME>  (1284) 
ACET   PRPA

>  <FRAG_ATOM_NUM>  (1284) 
fragi: 7  fragj: 11

>  <atom.prop.CHAIN_ID>  (1284) 
A A A A A A A Z Z Z Z Z Z Z Z Z Z Z

>  <atom.prop.IS_HEAVY_ATOM>  (1284) 
1 0 0 0 1 1 1 1 0 0 0 1 0 0 1 0 0 0

>  <DIFUSE_FUNC_ATOM>  (1284) 
atom 6   atom 7   

>  <FINAL_SINGLE_POINT_ENERGY>  (1284) 
0

>  <NONCOV_INTER_ENERGY_QM>  (1284) 
0

>  <FF_Energy>  (1284) 
17.33

>  <QM_Energy>  (1284) 
2.31

>  <source>  (1284) 
ACET_PRPA_13

>  <Index>  (1284) 
19430

$$$$
ACET-pdb3fbt-B-GLU-289:PRPA-pdb3fbt-B-LYS-281
     RDKit          3D

 18 16  0  0  0  0  0  0  0  0999 V2000
    0.0143    1.5145   -0.0209 C   0  0  0  0  0  0  0  0  0  0  0  0
    0.8423    1.7955    0.4104 H   0  0  0  0  0  0  0  0  0  0  0  0
   -0.7896    1.8104    0.4445 H   0  0  0  0  0  0  0  0  0  0  0  0
   -0.0030    1.8568   -1.0555 H   0  0  0  0  0  0  0  0  0  0  0  0
    0.0000    0.0000    0.0000 C   0  0  0  0  0  0  0  0  0  0  0  0
   -1.1068   -0.5869   -0.0000 O   0  0  0  0  0  1  0  0  0  0  0  0
    1.1068   -0.5932   -0.0000 O   0  0  0  0  0  0  0  0  0  0  0  0
   -3.0597    0.2775    1.5321 C   0  0  0  0  0  0  0  0  0  0  0  0
   -2.3091    0.5790    0.9842 H   0  0  0  0  0  0  0  0  0  0  0  0
   -2.7953   -0.3278    2.2517 H   0  0  0  0  0  0  0  0  0  0  0  0
   -3.5477    1.1492    1.9680 H   0  0  0  0  0  0  0  0  0  0  0  0
   -4.0945   -0.4176    0.6366 C   0  0  0  0  0  0  0  0  0  0  0  0
   -4.9885   -0.3326    1.0611 H   0  0  0  0  0  0  0  0  0  0  0  0
   -4.0887    0.0217   -0.2544 H   0  0  0  0  0  0  0  0  0  0  0  0
   -3.7782   -1.8979    0.4544 C   0  0  0  0  0  0  0  0  0  0  0  0
   -2.8565   -1.9929    0.1396 H   0  0  0  0  0  0  0  0  0  0  0  0
   -3.9465   -2.3687    1.2950 H   0  0  0  0  0  0  0  0  0  0  0  0
   -4.4677   -2.2533   -0.3115 H   0  0  0  0  0  0  0  0  0  0  0  0
  1  5  1  0
  5  6  1  0
  5  7  2  0
  1  2  1  0
  1  3  1  0
  1  4  1  0
  8 12  1  0
 12 15  1  0
  8  9  1  0
  8 10  1  0
  8 11  1  0
 12 13  1  0
 12 14  1  0
 15 16  1  0
 15 17  1  0
 15 18  1  0
M  CHG  1   6  -1
M  END
>  <PDB_ID>  (1285) 
pdb3fbt

>  <RESIDUE_NAME>  (1285) 
GLU   LYS

>  <FRAG_NAME>  (1285) 
ACET   PRPA

>  <FRAG_ATOM_NUM>  (1285) 
fragi: 7  fragj: 11

>  <atom.prop.CHAIN_ID>  (1285) 
A A A A A A A Z Z Z Z Z Z Z Z Z Z Z

>  <atom.prop.IS_HEAVY_ATOM>  (1285) 
1 0 0 0 1 1 1 1 0 0 0 1 0 0 1 0 0 0

>  <DIFUSE_FUNC_ATOM>  (1285) 
atom 6   atom 7   

>  <FINAL_SINGLE_POINT_ENERGY>  (1285) 
0

>  <NONCOV_INTER_ENERGY_QM>  (1285) 
0

>  <FF_Energy>  (1285) 
19.58

>  <QM_Energy>  (1285) 
1.16

>  <source>  (1285) 
ACET_PRPA_13

>  <Index>  (1285) 
19445

$$$$
ACET-pdb3fnv-A-GLU-85:PRPA-pdb3fnv-B-LYS-131
     RDKit          3D

 18 16  0  0  0  0  0  0  0  0999 V2000
    0.2329    1.5212    0.0152 C   0  0  0  0  0  0  0  0  0  0  0  0
    0.7388    1.7431   -0.8017 H   0  0  0  0  0  0  0  0  0  0  0  0
    0.7500    1.7246    0.8307 H   0  0  0  0  0  0  0  0  0  0  0  0
   -0.6825    2.1128    0.0272 H   0  0  0  0  0  0  0  0  0  0  0  0
    0.0000    0.0000    0.0000 C   0  0  0  0  0  0  0  0  0  0  0  0
   -1.0866   -0.5217    0.0000 O   0  0  0  0  0  1  0  0  0  0  0  0
    1.0866   -0.6173   -0.0000 O   0  0  0  0  0  0  0  0  0  0  0  0
   -1.6732    1.0614   -4.3208 C   0  0  0  0  0  0  0  0  0  0  0  0
   -0.8927    0.8396   -4.8972 H   0  0  0  0  0  0  0  0  0  0  0  0
   -1.4612    1.8392   -3.7382 H   0  0  0  0  0  0  0  0  0  0  0  0
   -2.5181    1.3203   -4.9591 H   0  0  0  0  0  0  0  0  0  0  0  0
   -2.0001   -0.1467   -3.4403 C   0  0  0  0  0  0  0  0  0  0  0  0
   -2.7888    0.0812   -2.8737 H   0  0  0  0  0  0  0  0  0  0  0  0
   -2.2193   -0.9189   -4.0325 H   0  0  0  0  0  0  0  0  0  0  0  0
   -0.8451   -0.5241   -2.5469 C   0  0  0  0  0  0  0  0  0  0  0  0
   -0.0526   -0.7540   -3.1101 H   0  0  0  0  0  0  0  0  0  0  0  0
   -0.6221    0.2461   -1.9513 H   0  0  0  0  0  0  0  0  0  0  0  0
   -1.1075   -1.3857   -1.9329 H   0  0  0  0  0  0  0  0  0  0  0  0
  1  5  1  0
  5  6  1  0
  5  7  2  0
  1  2  1  0
  1  3  1  0
  1  4  1  0
  8 12  1  0
 12 15  1  0
  8  9  1  0
  8 10  1  0
  8 11  1  0
 12 13  1  0
 12 14  1  0
 15 16  1  0
 15 17  1  0
 15 18  1  0
M  CHG  1   6  -1
M  END
>  <PDB_ID>  (1286) 
pdb3fnv

>  <RESIDUE_NAME>  (1286) 
GLU   LYS

>  <FRAG_NAME>  (1286) 
ACET   PRPA

>  <FRAG_ATOM_NUM>  (1286) 
fragi: 7  fragj: 11

>  <atom.prop.CHAIN_ID>  (1286) 
A A A A A A A Z Z Z Z Z Z Z Z Z Z Z

>  <atom.prop.IS_HEAVY_ATOM>  (1286) 
1 0 0 0 1 1 1 1 0 0 0 1 0 0 1 0 0 0

>  <DIFUSE_FUNC_ATOM>  (1286) 
atom 6   atom 7   

>  <FINAL_SINGLE_POINT_ENERGY>  (1286) 
0

>  <NONCOV_INTER_ENERGY_QM>  (1286) 
0

>  <FF_Energy>  (1286) 
32.18

>  <QM_Energy>  (1286) 
8.1

>  <source>  (1286) 
ACET_PRPA_13

>  <Index>  (1286) 
20799

$$$$
ACET-pdb4aez-F-GLU-148:PRPA-pdb4aez-F-LYS-180
     RDKit          3D

 18 16  0  0  0  0  0  0  0  0999 V2000
    0.0001    1.5179    0.0058 C   0  0  0  0  0  0  0  0  0  0  0  0
   -0.5763    1.8161   -0.7288 H   0  0  0  0  0  0  0  0  0  0  0  0
    0.9293    1.8129   -0.0988 H   0  0  0  0  0  0  0  0  0  0  0  0
   -0.3905    1.9259    0.9381 H   0  0  0  0  0  0  0  0  0  0  0  0
    0.0000    0.0000    0.0000 C   0  0  0  0  0  0  0  0  0  0  0  0
   -1.1007   -0.5992    0.0000 O   0  0  0  0  0  1  0  0  0  0  0  0
    1.1007   -0.5926   -0.0000 O   0  0  0  0  0  0  0  0  0  0  0  0
    4.0381    3.6376   -1.3320 C   0  0  0  0  0  0  0  0  0  0  0  0
    4.3816    4.1202   -2.1526 H   0  0  0  0  0  0  0  0  0  0  0  0
    4.8640    3.1045   -0.8608 H   0  0  0  0  0  0  0  0  0  0  0  0
    3.5925    4.3729   -0.6619 H   0  0  0  0  0  0  0  0  0  0  0  0
    2.9719    2.6507   -1.8105 C   0  0  0  0  0  0  0  0  0  0  0  0
    3.1291    2.4681   -2.7785 H   0  0  0  0  0  0  0  0  0  0  0  0
    3.0724    1.8065   -1.2873 H   0  0  0  0  0  0  0  0  0  0  0  0
    1.5477    3.1521   -1.6430 C   0  0  0  0  0  0  0  0  0  0  0  0
    1.3752    3.3349   -0.6750 H   0  0  0  0  0  0  0  0  0  0  0  0
    1.4328    3.9956   -2.1678 H   0  0  0  0  0  0  0  0  0  0  0  0
    0.8226    2.4185   -1.9954 H   0  0  0  0  0  0  0  0  0  0  0  0
  1  5  1  0
  5  6  1  0
  5  7  2  0
  1  2  1  0
  1  3  1  0
  1  4  1  0
  8 12  1  0
 12 15  1  0
  8  9  1  0
  8 10  1  0
  8 11  1  0
 12 13  1  0
 12 14  1  0
 15 16  1  0
 15 17  1  0
 15 18  1  0
M  CHG  1   6  -1
M  END
>  <PDB_ID>  (1287) 
pdb4aez

>  <RESIDUE_NAME>  (1287) 
GLU   LYS

>  <FRAG_NAME>  (1287) 
ACET   PRPA

>  <FRAG_ATOM_NUM>  (1287) 
fragi: 7  fragj: 11

>  <atom.prop.CHAIN_ID>  (1287) 
A A A A A A A Z Z Z Z Z Z Z Z Z Z Z

>  <atom.prop.IS_HEAVY_ATOM>  (1287) 
1 0 0 0 1 1 1 1 0 0 0 1 0 0 1 0 0 0

>  <DIFUSE_FUNC_ATOM>  (1287) 
atom 6   atom 7   

>  <FINAL_SINGLE_POINT_ENERGY>  (1287) 
0

>  <NONCOV_INTER_ENERGY_QM>  (1287) 
0

>  <FF_Energy>  (1287) 
26.15

>  <QM_Energy>  (1287) 
8.69

>  <source>  (1287) 
ACET_PRPA_13

>  <Index>  (1287) 
20843

$$$$
ACET-pdb4aez-I-GLU-45:PRPA-pdb4aez-G-GLU-220
     RDKit          3D

 18 16  0  0  0  0  0  0  0  0999 V2000
    0.1711    1.4849    0.0141 C   0  0  0  0  0  0  0  0  0  0  0  0
    0.6910    1.7407   -0.8038 H   0  0  0  0  0  0  0  0  0  0  0  0
    0.7026    1.7231    0.8287 H   0  0  0  0  0  0  0  0  0  0  0  0
   -0.7395    2.0838    0.0259 H   0  0  0  0  0  0  0  0  0  0  0  0
    0.0000    0.0000    0.0000 C   0  0  0  0  0  0  0  0  0  0  0  0
   -1.0894   -0.5582   -0.0000 O   0  0  0  0  0  1  0  0  0  0  0  0
    1.0894   -0.6071    0.0000 O   0  0  0  0  0  0  0  0  0  0  0  0
    1.2759   -1.8695    2.4937 C   0  0  0  0  0  0  0  0  0  0  0  0
    1.8549   -1.5911    1.7079 H   0  0  0  0  0  0  0  0  0  0  0  0
    1.7833   -2.6516    3.0585 H   0  0  0  0  0  0  0  0  0  0  0  0
    1.0443   -0.9917    3.0969 H   0  0  0  0  0  0  0  0  0  0  0  0
   -0.0066   -2.4128    1.8537 C   0  0  0  0  0  0  0  0  0  0  0  0
   -0.6026   -2.7202    2.5973 H   0  0  0  0  0  0  0  0  0  0  0  0
   -0.4451   -1.6521    1.3732 H   0  0  0  0  0  0  0  0  0  0  0  0
    0.1140   -3.5623    0.8666 C   0  0  0  0  0  0  0  0  0  0  0  0
    0.7066   -3.2582    0.1189 H   0  0  0  0  0  0  0  0  0  0  0  0
    0.5493   -4.3276    1.3428 H   0  0  0  0  0  0  0  0  0  0  0  0
   -0.8144   -3.9279    0.4280 H   0  0  0  0  0  0  0  0  0  0  0  0
  1  5  1  0
  5  6  1  0
  5  7  2  0
  1  2  1  0
  1  3  1  0
  1  4  1  0
  8 12  1  0
 12 15  1  0
  8  9  1  0
  8 10  1  0
  8 11  1  0
 12 13  1  0
 12 14  1  0
 15 16  1  0
 15 17  1  0
 15 18  1  0
M  CHG  1   6  -1
M  END
>  <PDB_ID>  (1288) 
pdb4aez

>  <RESIDUE_NAME>  (1288) 
GLU   GLU

>  <FRAG_NAME>  (1288) 
ACET   PRPA

>  <FRAG_ATOM_NUM>  (1288) 
fragi: 7  fragj: 11

>  <atom.prop.CHAIN_ID>  (1288) 
A A A A A A A Z Z Z Z Z Z Z Z Z Z Z

>  <atom.prop.IS_HEAVY_ATOM>  (1288) 
1 0 0 0 1 1 1 1 0 0 0 1 0 0 1 0 0 0

>  <DIFUSE_FUNC_ATOM>  (1288) 
atom 6   atom 7   

>  <FINAL_SINGLE_POINT_ENERGY>  (1288) 
0

>  <NONCOV_INTER_ENERGY_QM>  (1288) 
0

>  <FF_Energy>  (1288) 
36.05

>  <QM_Energy>  (1288) 
0.73

>  <source>  (1288) 
ACET_PRPA_13

>  <Index>  (1288) 
21435

$$$$
ACET-pdb3fnb-A-ASP-342:PRPA-pdb3fnb-A-LYS-9
     RDKit          3D

 18 16  0  0  0  0  0  0  0  0999 V2000
    0.0074    1.5103    0.0129 C   0  0  0  0  0  0  0  0  0  0  0  0
    0.7985    1.8318   -0.4969 H   0  0  0  0  0  0  0  0  0  0  0  0
    0.0543    1.8232    0.9552 H   0  0  0  0  0  0  0  0  0  0  0  0
   -0.8848    1.9401   -0.4425 H   0  0  0  0  0  0  0  0  0  0  0  0
    0.0000    0.0000    0.0000 C   0  0  0  0  0  0  0  0  0  0  0  0
   -1.1011   -0.5942   -0.0000 O   0  0  0  0  0  1  0  0  0  0  0  0
    1.1011   -0.6002    0.0000 O   0  0  0  0  0  0  0  0  0  0  0  0
   -2.2440   -1.8599   -2.1177 C   0  0  0  0  0  0  0  0  0  0  0  0
   -2.0977   -1.1347   -1.4341 H   0  0  0  0  0  0  0  0  0  0  0  0
   -3.3041   -1.8910   -2.3692 H   0  0  0  0  0  0  0  0  0  0  0  0
   -1.6332   -1.6444   -2.9945 H   0  0  0  0  0  0  0  0  0  0  0  0
   -1.7363   -3.1230   -1.4166 C   0  0  0  0  0  0  0  0  0  0  0  0
   -2.0132   -3.0879   -0.4663 H   0  0  0  0  0  0  0  0  0  0  0  0
   -2.1266   -3.9118   -1.8712 H   0  0  0  0  0  0  0  0  0  0  0  0
   -0.2108   -3.2473   -1.4658 C   0  0  0  0  0  0  0  0  0  0  0  0
    0.0344   -4.0016   -2.0744 H   0  0  0  0  0  0  0  0  0  0  0  0
    0.1744   -2.3948   -1.8177 H   0  0  0  0  0  0  0  0  0  0  0  0
    0.2161   -3.4420   -0.4819 H   0  0  0  0  0  0  0  0  0  0  0  0
  1  5  1  0
  5  6  1  0
  5  7  2  0
  1  2  1  0
  1  3  1  0
  1  4  1  0
  8 12  1  0
 12 15  1  0
  8  9  1  0
  8 10  1  0
  8 11  1  0
 12 13  1  0
 12 14  1  0
 15 16  1  0
 15 17  1  0
 15 18  1  0
M  CHG  1   6  -1
M  END
>  <PDB_ID>  (1289) 
pdb3fnb

>  <RESIDUE_NAME>  (1289) 
ASP   LYS

>  <FRAG_NAME>  (1289) 
ACET   PRPA

>  <FRAG_ATOM_NUM>  (1289) 
fragi: 7  fragj: 11

>  <atom.prop.CHAIN_ID>  (1289) 
A A A A A A A Z Z Z Z Z Z Z Z Z Z Z

>  <atom.prop.IS_HEAVY_ATOM>  (1289) 
1 0 0 0 1 1 1 1 0 0 0 1 0 0 1 0 0 0

>  <DIFUSE_FUNC_ATOM>  (1289) 
atom 6   atom 7   

>  <FINAL_SINGLE_POINT_ENERGY>  (1289) 
0

>  <NONCOV_INTER_ENERGY_QM>  (1289) 
0

>  <FF_Energy>  (1289) 
25.81

>  <QM_Energy>  (1289) 
-1.28

>  <source>  (1289) 
ACET_PRPA_13

>  <Index>  (1289) 
22165

$$$$
ACET-pdb3frh-A-GLU-165:PRPA-pdb3frh-A-LEU-108
     RDKit          3D

 18 16  0  0  0  0  0  0  0  0999 V2000
    0.0115    1.5075    0.0620 C   0  0  0  0  0  0  0  0  0  0  0  0
    0.9452    1.8109   -0.0914 H   0  0  0  0  0  0  0  0  0  0  0  0
   -0.2978    1.7759    0.9664 H   0  0  0  0  0  0  0  0  0  0  0  0
   -0.6221    2.0099   -0.6688 H   0  0  0  0  0  0  0  0  0  0  0  0
    0.0000    0.0000    0.0000 C   0  0  0  0  0  0  0  0  0  0  0  0
   -1.0876   -0.5821    0.0000 O   0  0  0  0  0  1  0  0  0  0  0  0
    1.0876   -0.6151    0.0000 O   0  0  0  0  0  0  0  0  0  0  0  0
    3.7813    1.3453    2.2475 C   0  0  0  0  0  0  0  0  0  0  0  0
    4.6484    0.8625    2.1188 H   0  0  0  0  0  0  0  0  0  0  0  0
    3.0391    0.6824    2.3349 H   0  0  0  0  0  0  0  0  0  0  0  0
    3.8455    1.8965    3.1857 H   0  0  0  0  0  0  0  0  0  0  0  0
    3.5217    2.1591    0.9874 C   0  0  0  0  0  0  0  0  0  0  0  0
    4.3077    2.7467    0.8109 H   0  0  0  0  0  0  0  0  0  0  0  0
    2.6558    2.8104    1.1067 H   0  0  0  0  0  0  0  0  0  0  0  0
    3.3137    1.2240   -0.1850 C   0  0  0  0  0  0  0  0  0  0  0  0
    2.5280    0.6288   -0.0079 H   0  0  0  0  0  0  0  0  0  0  0  0
    3.1423    1.7563   -1.0162 H   0  0  0  0  0  0  0  0  0  0  0  0
    4.1310    0.6602   -0.3171 H   0  0  0  0  0  0  0  0  0  0  0  0
  1  5  1  0
  5  6  1  0
  5  7  2  0
  1  2  1  0
  1  3  1  0
  1  4  1  0
  8 12  1  0
 12 15  1  0
  8  9  1  0
  8 10  1  0
  8 11  1  0
 12 13  1  0
 12 14  1  0
 15 16  1  0
 15 17  1  0
 15 18  1  0
M  CHG  1   6  -1
M  END
>  <PDB_ID>  (1290) 
pdb3frh

>  <RESIDUE_NAME>  (1290) 
GLU   LEU

>  <FRAG_NAME>  (1290) 
ACET   PRPA

>  <FRAG_ATOM_NUM>  (1290) 
fragi: 7  fragj: 11

>  <atom.prop.CHAIN_ID>  (1290) 
A A A A A A A Z Z Z Z Z Z Z Z Z Z Z

>  <atom.prop.IS_HEAVY_ATOM>  (1290) 
1 0 0 0 1 1 1 1 0 0 0 1 0 0 1 0 0 0

>  <DIFUSE_FUNC_ATOM>  (1290) 
atom 6   atom 7   

>  <FINAL_SINGLE_POINT_ENERGY>  (1290) 
0

>  <NONCOV_INTER_ENERGY_QM>  (1290) 
0

>  <FF_Energy>  (1290) 
16.02

>  <QM_Energy>  (1290) 
-0.41

>  <source>  (1290) 
ACET_PRPA_13

>  <Index>  (1290) 
22486

$$$$
ACET-pdb3frh-A-GLU-165:PRPA-pdb3frh-A-LEU-108
     RDKit          3D

 18 16  0  0  0  0  0  0  0  0999 V2000
    0.0115    1.5075    0.0620 C   0  0  0  0  0  0  0  0  0  0  0  0
    0.9452    1.8109   -0.0914 H   0  0  0  0  0  0  0  0  0  0  0  0
   -0.2978    1.7759    0.9664 H   0  0  0  0  0  0  0  0  0  0  0  0
   -0.6221    2.0099   -0.6688 H   0  0  0  0  0  0  0  0  0  0  0  0
    0.0000    0.0000    0.0000 C   0  0  0  0  0  0  0  0  0  0  0  0
   -1.0876   -0.5821    0.0000 O   0  0  0  0  0  1  0  0  0  0  0  0
    1.0876   -0.6151    0.0000 O   0  0  0  0  0  0  0  0  0  0  0  0
    3.3137    1.2240   -0.1850 C   0  0  0  0  0  0  0  0  0  0  0  0
    2.5280    0.6288   -0.0079 H   0  0  0  0  0  0  0  0  0  0  0  0
    3.1423    1.7563   -1.0162 H   0  0  0  0  0  0  0  0  0  0  0  0
    4.1310    0.6602   -0.3171 H   0  0  0  0  0  0  0  0  0  0  0  0
    3.5217    2.1591    0.9874 C   0  0  0  0  0  0  0  0  0  0  0  0
    4.3077    2.7467    0.8109 H   0  0  0  0  0  0  0  0  0  0  0  0
    3.7076    1.5764    1.8897 H   0  0  0  0  0  0  0  0  0  0  0  0
    2.3182    3.0644    1.1533 C   0  0  0  0  0  0  0  0  0  0  0  0
    2.4749    3.6991    1.9132 H   0  0  0  0  0  0  0  0  0  0  0  0
    2.1706    3.5874    0.3117 H   0  0  0  0  0  0  0  0  0  0  0  0
    1.5047    2.5134    1.3468 H   0  0  0  0  0  0  0  0  0  0  0  0
  1  5  1  0
  5  6  1  0
  5  7  2  0
  1  2  1  0
  1  3  1  0
  1  4  1  0
  8 12  1  0
 12 15  1  0
  8  9  1  0
  8 10  1  0
  8 11  1  0
 12 13  1  0
 12 14  1  0
 15 16  1  0
 15 17  1  0
 15 18  1  0
M  CHG  1   6  -1
M  END
>  <PDB_ID>  (1291) 
pdb3frh

>  <RESIDUE_NAME>  (1291) 
GLU   LEU

>  <FRAG_NAME>  (1291) 
ACET   PRPA

>  <FRAG_ATOM_NUM>  (1291) 
fragi: 7  fragj: 11

>  <atom.prop.CHAIN_ID>  (1291) 
A A A A A A A Z Z Z Z Z Z Z Z Z Z Z

>  <atom.prop.IS_HEAVY_ATOM>  (1291) 
1 0 0 0 1 1 1 1 0 0 0 1 0 0 1 0 0 0

>  <DIFUSE_FUNC_ATOM>  (1291) 
atom 6   atom 7   

>  <FINAL_SINGLE_POINT_ENERGY>  (1291) 
0

>  <NONCOV_INTER_ENERGY_QM>  (1291) 
0

>  <FF_Energy>  (1291) 
35.03

>  <QM_Energy>  (1291) 
7.73

>  <source>  (1291) 
ACET_PRPA_13

>  <Index>  (1291) 
22501

$$$$
ACET-pdb3f65-F-GLU-178:PRPA-pdb3f65-F-VAL-140
     RDKit          3D

 18 16  0  0  0  0  0  0  0  0999 V2000
    0.1767    1.4867    0.0149 C   0  0  0  0  0  0  0  0  0  0  0  0
    0.6953    1.7411   -0.8017 H   0  0  0  0  0  0  0  0  0  0  0  0
    0.7070    1.7230    0.8300 H   0  0  0  0  0  0  0  0  0  0  0  0
   -0.7344    2.0850    0.0269 H   0  0  0  0  0  0  0  0  0  0  0  0
    0.0000    0.0000    0.0000 C   0  0  0  0  0  0  0  0  0  0  0  0
   -1.0897   -0.5567    0.0000 O   0  0  0  0  0  1  0  0  0  0  0  0
    1.0897   -0.6074    0.0000 O   0  0  0  0  0  0  0  0  0  0  0  0
    2.1261    3.4349   -2.6576 C   0  0  0  0  0  0  0  0  0  0  0  0
    1.6232    3.9406   -1.9422 H   0  0  0  0  0  0  0  0  0  0  0  0
    1.5535    3.4969   -3.5830 H   0  0  0  0  0  0  0  0  0  0  0  0
    3.1093    3.8928   -2.7650 H   0  0  0  0  0  0  0  0  0  0  0  0
    2.3144    1.9759   -2.2259 C   0  0  0  0  0  0  0  0  0  0  0  0
    2.9078    1.5280   -2.9065 H   0  0  0  0  0  0  0  0  0  0  0  0
    1.3740    1.4249   -2.2346 H   0  0  0  0  0  0  0  0  0  0  0  0
    3.0050    1.8225   -0.8761 C   0  0  0  0  0  0  0  0  0  0  0  0
    3.9558    1.5491   -1.0169 H   0  0  0  0  0  0  0  0  0  0  0  0
    2.9781    2.6947   -0.3877 H   0  0  0  0  0  0  0  0  0  0  0  0
    2.5333    1.1243   -0.3380 H   0  0  0  0  0  0  0  0  0  0  0  0
  1  5  1  0
  5  6  1  0
  5  7  2  0
  1  2  1  0
  1  3  1  0
  1  4  1  0
  8 12  1  0
 12 15  1  0
  8  9  1  0
  8 10  1  0
  8 11  1  0
 12 13  1  0
 12 14  1  0
 15 16  1  0
 15 17  1  0
 15 18  1  0
M  CHG  1   6  -1
M  END
>  <PDB_ID>  (1292) 
pdb3f65

>  <RESIDUE_NAME>  (1292) 
GLU   VAL

>  <FRAG_NAME>  (1292) 
ACET   PRPA

>  <FRAG_ATOM_NUM>  (1292) 
fragi: 7  fragj: 11

>  <atom.prop.CHAIN_ID>  (1292) 
A A A A A A A Z Z Z Z Z Z Z Z Z Z Z

>  <atom.prop.IS_HEAVY_ATOM>  (1292) 
1 0 0 0 1 1 1 1 0 0 0 1 0 0 1 0 0 0

>  <DIFUSE_FUNC_ATOM>  (1292) 
atom 6   atom 7   

>  <FINAL_SINGLE_POINT_ENERGY>  (1292) 
0

>  <NONCOV_INTER_ENERGY_QM>  (1292) 
0

>  <FF_Energy>  (1292) 
26.6

>  <QM_Energy>  (1292) 
2.84

>  <source>  (1292) 
ACET_PRPA_13

>  <Index>  (1292) 
23493

$$$$
ACET-pdb3fbt-D-GLU-106:PRPA-pdb3fbt-D-LYS-137
     RDKit          3D

 18 16  0  0  0  0  0  0  0  0999 V2000
    0.0181    1.5129   -0.0471 C   0  0  0  0  0  0  0  0  0  0  0  0
    0.7675    1.8188    0.4994 H   0  0  0  0  0  0  0  0  0  0  0  0
   -0.8485    1.8302    0.2738 H   0  0  0  0  0  0  0  0  0  0  0  0
    0.1639    1.8738   -1.0653 H   0  0  0  0  0  0  0  0  0  0  0  0
    0.0000    0.0000    0.0000 C   0  0  0  0  0  0  0  0  0  0  0  0
   -1.1063   -0.5896   -0.0000 O   0  0  0  0  0  1  0  0  0  0  0  0
    1.1063   -0.5970    0.0000 O   0  0  0  0  0  0  0  0  0  0  0  0
   -5.1917   -1.0785   -0.0463 C   0  0  0  0  0  0  0  0  0  0  0  0
   -5.2874   -2.0679    0.0414 H   0  0  0  0  0  0  0  0  0  0  0  0
   -5.7583   -0.7475   -0.7969 H   0  0  0  0  0  0  0  0  0  0  0  0
   -5.4939   -0.5963    0.8834 H   0  0  0  0  0  0  0  0  0  0  0  0
   -3.7405   -0.7576   -0.3545 C   0  0  0  0  0  0  0  0  0  0  0  0
   -3.6955   -0.0510   -1.0492 H   0  0  0  0  0  0  0  0  0  0  0  0
   -3.2782   -0.4684    0.4743 H   0  0  0  0  0  0  0  0  0  0  0  0
   -2.9739   -2.0055   -0.9054 C   0  0  0  0  0  0  0  0  0  0  0  0
   -3.4901   -2.3607   -1.6747 H   0  0  0  0  0  0  0  0  0  0  0  0
   -2.0742   -1.7031   -1.1963 H   0  0  0  0  0  0  0  0  0  0  0  0
   -2.8872   -2.7602   -0.1237 H   0  0  0  0  0  0  0  0  0  0  0  0
  1  5  1  0
  5  6  1  0
  5  7  2  0
  1  2  1  0
  1  3  1  0
  1  4  1  0
  8 12  1  0
 12 15  1  0
  8  9  1  0
  8 10  1  0
  8 11  1  0
 12 13  1  0
 12 14  1  0
 15 16  1  0
 15 17  1  0
 15 18  1  0
M  CHG  1   6  -1
M  END
>  <PDB_ID>  (1293) 
pdb3fbt

>  <RESIDUE_NAME>  (1293) 
GLU   LYS

>  <FRAG_NAME>  (1293) 
ACET   PRPA

>  <FRAG_ATOM_NUM>  (1293) 
fragi: 7  fragj: 11

>  <atom.prop.CHAIN_ID>  (1293) 
A A A A A A A Z Z Z Z Z Z Z Z Z Z Z

>  <atom.prop.IS_HEAVY_ATOM>  (1293) 
1 0 0 0 1 1 1 1 0 0 0 1 0 0 1 0 0 0

>  <DIFUSE_FUNC_ATOM>  (1293) 
atom 6   atom 7   

>  <FINAL_SINGLE_POINT_ENERGY>  (1293) 
0

>  <NONCOV_INTER_ENERGY_QM>  (1293) 
0

>  <FF_Energy>  (1293) 
27.55

>  <QM_Energy>  (1293) 
4.44

>  <source>  (1293) 
ACET_PRPA_13

>  <Index>  (1293) 
23538

$$$$
ACET-pdb4bl6-A-GLU-713:PRPA-pdb4bl6-A-LYS-717
     RDKit          3D

 18 16  0  0  0  0  0  0  0  0999 V2000
   -0.0475    1.5591    0.0108 C   0  0  0  0  0  0  0  0  0  0  0  0
    0.8676    1.8782   -0.1145 H   0  0  0  0  0  0  0  0  0  0  0  0
   -0.4378    1.8315    0.8644 H   0  0  0  0  0  0  0  0  0  0  0  0
   -0.6585    1.9843   -0.7855 H   0  0  0  0  0  0  0  0  0  0  0  0
    0.0000    0.0000    0.0000 C   0  0  0  0  0  0  0  0  0  0  0  0
   -1.1102   -0.6165   -0.0000 O   0  0  0  0  0  1  0  0  0  0  0  0
    1.1102   -0.6305    0.0000 O   0  0  0  0  0  0  0  0  0  0  0  0
    1.4398   -3.7511   -2.1670 C   0  0  0  0  0  0  0  0  0  0  0  0
    0.6575   -3.2590   -2.5272 H   0  0  0  0  0  0  0  0  0  0  0  0
    1.2432   -4.7221   -2.1011 H   0  0  0  0  0  0  0  0  0  0  0  0
    2.2656   -3.6247   -2.8670 H   0  0  0  0  0  0  0  0  0  0  0  0
    1.7781   -3.2228   -0.8217 C   0  0  0  0  0  0  0  0  0  0  0  0
    1.7156   -2.2320   -0.8116 H   0  0  0  0  0  0  0  0  0  0  0  0
    1.1842   -3.6180   -0.1317 H   0  0  0  0  0  0  0  0  0  0  0  0
    3.2302   -3.6088   -0.4740 C   0  0  0  0  0  0  0  0  0  0  0  0
    3.2842   -4.5962   -0.3955 H   0  0  0  0  0  0  0  0  0  0  0  0
    3.8258   -3.2780   -1.1941 H   0  0  0  0  0  0  0  0  0  0  0  0
    3.5478   -3.1673    0.4706 H   0  0  0  0  0  0  0  0  0  0  0  0
  1  5  1  0
  5  6  1  0
  5  7  2  0
  1  2  1  0
  1  3  1  0
  1  4  1  0
  8 12  1  0
 12 15  1  0
  8  9  1  0
  8 10  1  0
  8 11  1  0
 12 13  1  0
 12 14  1  0
 15 16  1  0
 15 17  1  0
 15 18  1  0
M  CHG  1   6  -1
M  END
>  <PDB_ID>  (1294) 
pdb4bl6

>  <RESIDUE_NAME>  (1294) 
GLU   LYS

>  <FRAG_NAME>  (1294) 
ACET   PRPA

>  <FRAG_ATOM_NUM>  (1294) 
fragi: 7  fragj: 11

>  <atom.prop.CHAIN_ID>  (1294) 
A A A A A A A Z Z Z Z Z Z Z Z Z Z Z

>  <atom.prop.IS_HEAVY_ATOM>  (1294) 
1 0 0 0 1 1 1 1 0 0 0 1 0 0 1 0 0 0

>  <DIFUSE_FUNC_ATOM>  (1294) 
atom 6   atom 7   

>  <FINAL_SINGLE_POINT_ENERGY>  (1294) 
0

>  <NONCOV_INTER_ENERGY_QM>  (1294) 
0

>  <FF_Energy>  (1294) 
16.48

>  <QM_Energy>  (1294) 
-0.4

>  <source>  (1294) 
ACET_PRPA_13

>  <Index>  (1294) 
23673

$$$$
ACET-pdb4bb7-C-GLU-535:PRPA-pdb4bb7-C-VAL-412
     RDKit          3D

 18 16  0  0  0  0  0  0  0  0999 V2000
    0.1786    1.4860    0.0145 C   0  0  0  0  0  0  0  0  0  0  0  0
    0.6977    1.7393   -0.8031 H   0  0  0  0  0  0  0  0  0  0  0  0
    0.7091    1.7221    0.8292 H   0  0  0  0  0  0  0  0  0  0  0  0
   -0.7316    2.0855    0.0258 H   0  0  0  0  0  0  0  0  0  0  0  0
    0.0000    0.0000    0.0000 C   0  0  0  0  0  0  0  0  0  0  0  0
   -1.0892   -0.5555    0.0000 O   0  0  0  0  0  1  0  0  0  0  0  0
    1.0892   -0.6090   -0.0000 O   0  0  0  0  0  0  0  0  0  0  0  0
    2.0146   -3.1228   -1.3156 C   0  0  0  0  0  0  0  0  0  0  0  0
    2.3083   -3.4370   -2.2185 H   0  0  0  0  0  0  0  0  0  0  0  0
    2.0503   -3.9708   -0.6315 H   0  0  0  0  0  0  0  0  0  0  0  0
    2.7165   -2.3605   -0.9776 H   0  0  0  0  0  0  0  0  0  0  0  0
    0.5949   -2.5218   -1.4122 C   0  0  0  0  0  0  0  0  0  0  0  0
    0.2785   -2.3420   -0.4860 H   0  0  0  0  0  0  0  0  0  0  0  0
    0.6146   -1.5637   -1.9316 H   0  0  0  0  0  0  0  0  0  0  0  0
   -0.3413   -3.4950   -2.1112 C   0  0  0  0  0  0  0  0  0  0  0  0
   -0.5269   -3.1678   -3.0375 H   0  0  0  0  0  0  0  0  0  0  0  0
    0.0895   -4.3959   -2.1531 H   0  0  0  0  0  0  0  0  0  0  0  0
   -1.1979   -3.5562   -1.5989 H   0  0  0  0  0  0  0  0  0  0  0  0
  1  5  1  0
  5  6  1  0
  5  7  2  0
  1  2  1  0
  1  3  1  0
  1  4  1  0
  8 12  1  0
 12 15  1  0
  8  9  1  0
  8 10  1  0
  8 11  1  0
 12 13  1  0
 12 14  1  0
 15 16  1  0
 15 17  1  0
 15 18  1  0
M  CHG  1   6  -1
M  END
>  <PDB_ID>  (1295) 
pdb4bb7

>  <RESIDUE_NAME>  (1295) 
GLU   VAL

>  <FRAG_NAME>  (1295) 
ACET   PRPA

>  <FRAG_ATOM_NUM>  (1295) 
fragi: 7  fragj: 11

>  <atom.prop.CHAIN_ID>  (1295) 
A A A A A A A Z Z Z Z Z Z Z Z Z Z Z

>  <atom.prop.IS_HEAVY_ATOM>  (1295) 
1 0 0 0 1 1 1 1 0 0 0 1 0 0 1 0 0 0

>  <DIFUSE_FUNC_ATOM>  (1295) 
atom 6   atom 7   

>  <FINAL_SINGLE_POINT_ENERGY>  (1295) 
0

>  <NONCOV_INTER_ENERGY_QM>  (1295) 
0

>  <FF_Energy>  (1295) 
29.04

>  <QM_Energy>  (1295) 
7.2

>  <source>  (1295) 
ACET_PRPA_13

>  <Index>  (1295) 
24518

$$$$
ACET-pdb4bmh-A-GLU-259:PRPA-pdb4bmh-A-ARG-209
     RDKit          3D

 18 16  0  0  0  0  0  0  0  0999 V2000
    0.1702    1.4826    0.0131 C   0  0  0  0  0  0  0  0  0  0  0  0
    0.6908    1.7402   -0.8039 H   0  0  0  0  0  0  0  0  0  0  0  0
    0.7022    1.7235    0.8283 H   0  0  0  0  0  0  0  0  0  0  0  0
   -0.7396    2.0828    0.0243 H   0  0  0  0  0  0  0  0  0  0  0  0
    0.0000    0.0000    0.0000 C   0  0  0  0  0  0  0  0  0  0  0  0
   -1.0899   -0.5598    0.0000 O   0  0  0  0  0  1  0  0  0  0  0  0
    1.0899   -0.6067    0.0000 O   0  0  0  0  0  0  0  0  0  0  0  0
    5.0338   -0.7382   -0.2753 C   0  0  0  0  0  0  0  0  0  0  0  0
    5.5779   -0.9808   -1.0782 H   0  0  0  0  0  0  0  0  0  0  0  0
    5.1382   -1.4455    0.4235 H   0  0  0  0  0  0  0  0  0  0  0  0
    5.4222    0.1971    0.1277 H   0  0  0  0  0  0  0  0  0  0  0  0
    3.5639   -0.7097   -0.6955 C   0  0  0  0  0  0  0  0  0  0  0  0
    3.0197   -0.3147    0.0316 H   0  0  0  0  0  0  0  0  0  0  0  0
    3.4700   -0.1875   -1.5325 H   0  0  0  0  0  0  0  0  0  0  0  0
    3.0511   -2.1269   -0.9590 C   0  0  0  0  0  0  0  0  0  0  0  0
    3.2397   -2.6783   -0.1446 H   0  0  0  0  0  0  0  0  0  0  0  0
    2.0597   -2.0731   -1.0977 H   0  0  0  0  0  0  0  0  0  0  0  0
    3.5065   -2.6050   -1.8262 H   0  0  0  0  0  0  0  0  0  0  0  0
  1  5  1  0
  5  6  1  0
  5  7  2  0
  1  2  1  0
  1  3  1  0
  1  4  1  0
  8 12  1  0
 12 15  1  0
  8  9  1  0
  8 10  1  0
  8 11  1  0
 12 13  1  0
 12 14  1  0
 15 16  1  0
 15 17  1  0
 15 18  1  0
M  CHG  1   6  -1
M  END
>  <PDB_ID>  (1296) 
pdb4bmh

>  <RESIDUE_NAME>  (1296) 
GLU   ARG

>  <FRAG_NAME>  (1296) 
ACET   PRPA

>  <FRAG_ATOM_NUM>  (1296) 
fragi: 7  fragj: 11

>  <atom.prop.CHAIN_ID>  (1296) 
A A A A A A A Z Z Z Z Z Z Z Z Z Z Z

>  <atom.prop.IS_HEAVY_ATOM>  (1296) 
1 0 0 0 1 1 1 1 0 0 0 1 0 0 1 0 0 0

>  <DIFUSE_FUNC_ATOM>  (1296) 
atom 6   atom 7   

>  <FINAL_SINGLE_POINT_ENERGY>  (1296) 
0

>  <NONCOV_INTER_ENERGY_QM>  (1296) 
0

>  <FF_Energy>  (1296) 
24.27

>  <QM_Energy>  (1296) 
2.98

>  <source>  (1296) 
ACET_PRPA_13

>  <Index>  (1296) 
24951

$$$$
ACET-pdb3frk-A-ASP-77:PRPA-pdb3frk-A-LYS-126
     RDKit          3D

 18 16  0  0  0  0  0  0  0  0999 V2000
   -0.0034    1.5108    0.0037 C   0  0  0  0  0  0  0  0  0  0  0  0
    0.9199    1.8340   -0.1747 H   0  0  0  0  0  0  0  0  0  0  0  0
   -0.3164    1.8294    0.8921 H   0  0  0  0  0  0  0  0  0  0  0  0
   -0.6612    1.9309   -0.7571 H   0  0  0  0  0  0  0  0  0  0  0  0
    0.0000    0.0000    0.0000 C   0  0  0  0  0  0  0  0  0  0  0  0
   -1.1062   -0.5868   -0.0000 O   0  0  0  0  0  1  0  0  0  0  0  0
    1.1062   -0.5851   -0.0000 O   0  0  0  0  0  0  0  0  0  0  0  0
   -4.5070    0.0636    3.4807 C   0  0  0  0  0  0  0  0  0  0  0  0
   -4.9662   -0.7941    3.2313 H   0  0  0  0  0  0  0  0  0  0  0  0
   -4.9891    0.8878    2.9550 H   0  0  0  0  0  0  0  0  0  0  0  0
   -4.5854    0.2013    4.5592 H   0  0  0  0  0  0  0  0  0  0  0  0
   -3.0541    0.0409    3.0324 C   0  0  0  0  0  0  0  0  0  0  0  0
   -2.8705    0.8916    2.5243 H   0  0  0  0  0  0  0  0  0  0  0  0
   -2.4735    0.0360    3.8572 H   0  0  0  0  0  0  0  0  0  0  0  0
   -2.6537   -1.1259    2.1638 C   0  0  0  0  0  0  0  0  0  0  0  0
   -1.8236   -0.8661    1.6244 H   0  0  0  0  0  0  0  0  0  0  0  0
   -2.3661   -1.9023    2.7641 H   0  0  0  0  0  0  0  0  0  0  0  0
   -3.4082   -1.4949    1.4690 H   0  0  0  0  0  0  0  0  0  0  0  0
  1  5  1  0
  5  6  1  0
  5  7  2  0
  1  2  1  0
  1  3  1  0
  1  4  1  0
  8 12  1  0
 12 15  1  0
  8  9  1  0
  8 10  1  0
  8 11  1  0
 12 13  1  0
 12 14  1  0
 15 16  1  0
 15 17  1  0
 15 18  1  0
M  CHG  1   6  -1
M  END
>  <PDB_ID>  (1297) 
pdb3frk

>  <RESIDUE_NAME>  (1297) 
ASP   LYS

>  <FRAG_NAME>  (1297) 
ACET   PRPA

>  <FRAG_ATOM_NUM>  (1297) 
fragi: 7  fragj: 11

>  <atom.prop.CHAIN_ID>  (1297) 
A A A A A A A Z Z Z Z Z Z Z Z Z Z Z

>  <atom.prop.IS_HEAVY_ATOM>  (1297) 
1 0 0 0 1 1 1 1 0 0 0 1 0 0 1 0 0 0

>  <DIFUSE_FUNC_ATOM>  (1297) 
atom 6   atom 7   

>  <FINAL_SINGLE_POINT_ENERGY>  (1297) 
0

>  <NONCOV_INTER_ENERGY_QM>  (1297) 
0

>  <FF_Energy>  (1297) 
28.59

>  <QM_Energy>  (1297) 
1.71

>  <source>  (1297) 
ACET_PRPA_13

>  <Index>  (1297) 
25709

$$$$
ACET-pdb3frk-A-ASP-77:PRPA-pdb3frk-A-LYS-126
     RDKit          3D

 18 16  0  0  0  0  0  0  0  0999 V2000
   -0.0034    1.5108    0.0037 C   0  0  0  0  0  0  0  0  0  0  0  0
    0.9199    1.8340   -0.1747 H   0  0  0  0  0  0  0  0  0  0  0  0
   -0.3164    1.8294    0.8921 H   0  0  0  0  0  0  0  0  0  0  0  0
   -0.6612    1.9309   -0.7571 H   0  0  0  0  0  0  0  0  0  0  0  0
    0.0000    0.0000    0.0000 C   0  0  0  0  0  0  0  0  0  0  0  0
   -1.1062   -0.5868   -0.0000 O   0  0  0  0  0  1  0  0  0  0  0  0
    1.1062   -0.5851   -0.0000 O   0  0  0  0  0  0  0  0  0  0  0  0
   -3.0541    0.0409    3.0324 C   0  0  0  0  0  0  0  0  0  0  0  0
   -2.8705    0.8916    2.5243 H   0  0  0  0  0  0  0  0  0  0  0  0
   -2.4735    0.0360    3.8572 H   0  0  0  0  0  0  0  0  0  0  0  0
   -4.0955    0.0572    3.3537 H   0  0  0  0  0  0  0  0  0  0  0  0
   -2.6537   -1.1259    2.1638 C   0  0  0  0  0  0  0  0  0  0  0  0
   -1.8236   -0.8661    1.6244 H   0  0  0  0  0  0  0  0  0  0  0  0
   -2.3661   -1.9023    2.7641 H   0  0  0  0  0  0  0  0  0  0  0  0
   -3.7059   -1.6405    1.1948 C   0  0  0  0  0  0  0  0  0  0  0  0
   -4.4927   -1.9336    1.6960 H   0  0  0  0  0  0  0  0  0  0  0  0
   -3.9036   -0.9491    0.5330 H   0  0  0  0  0  0  0  0  0  0  0  0
   -3.2830   -2.5026    0.6791 H   0  0  0  0  0  0  0  0  0  0  0  0
  1  5  1  0
  5  6  1  0
  5  7  2  0
  1  2  1  0
  1  3  1  0
  1  4  1  0
  8 12  1  0
 12 15  1  0
  8  9  1  0
  8 10  1  0
  8 11  1  0
 12 13  1  0
 12 14  1  0
 15 16  1  0
 15 17  1  0
 15 18  1  0
M  CHG  1   6  -1
M  END
>  <PDB_ID>  (1298) 
pdb3frk

>  <RESIDUE_NAME>  (1298) 
ASP   LYS

>  <FRAG_NAME>  (1298) 
ACET   PRPA

>  <FRAG_ATOM_NUM>  (1298) 
fragi: 7  fragj: 11

>  <atom.prop.CHAIN_ID>  (1298) 
A A A A A A A Z Z Z Z Z Z Z Z Z Z Z

>  <atom.prop.IS_HEAVY_ATOM>  (1298) 
1 0 0 0 1 1 1 1 0 0 0 1 0 0 1 0 0 0

>  <DIFUSE_FUNC_ATOM>  (1298) 
atom 6   atom 7   

>  <FINAL_SINGLE_POINT_ENERGY>  (1298) 
0

>  <NONCOV_INTER_ENERGY_QM>  (1298) 
0

>  <FF_Energy>  (1298) 
34.07

>  <QM_Energy>  (1298) 
-0.03

>  <source>  (1298) 
ACET_PRPA_13

>  <Index>  (1298) 
25717

$$$$
ACET-pdb3frk-A-ASP-77:PRPA-pdb3frk-A-LYS-126
     RDKit          3D

 18 16  0  0  0  0  0  0  0  0999 V2000
   -0.0034    1.5108    0.0037 C   0  0  0  0  0  0  0  0  0  0  0  0
    0.9199    1.8340   -0.1747 H   0  0  0  0  0  0  0  0  0  0  0  0
   -0.3164    1.8294    0.8921 H   0  0  0  0  0  0  0  0  0  0  0  0
   -0.6612    1.9309   -0.7571 H   0  0  0  0  0  0  0  0  0  0  0  0
    0.0000    0.0000    0.0000 C   0  0  0  0  0  0  0  0  0  0  0  0
   -1.1062   -0.5868   -0.0000 O   0  0  0  0  0  1  0  0  0  0  0  0
    1.1062   -0.5851   -0.0000 O   0  0  0  0  0  0  0  0  0  0  0  0
   -2.6537   -1.1259    2.1638 C   0  0  0  0  0  0  0  0  0  0  0  0
   -1.8236   -0.8661    1.6244 H   0  0  0  0  0  0  0  0  0  0  0  0
   -2.3661   -1.9023    2.7641 H   0  0  0  0  0  0  0  0  0  0  0  0
   -2.9429   -0.2830    2.7914 H   0  0  0  0  0  0  0  0  0  0  0  0
   -3.7059   -1.6405    1.1948 C   0  0  0  0  0  0  0  0  0  0  0  0
   -4.4927   -1.9336    1.6960 H   0  0  0  0  0  0  0  0  0  0  0  0
   -3.9036   -0.9491    0.5330 H   0  0  0  0  0  0  0  0  0  0  0  0
   -3.1112   -2.8528    0.4696 C   0  0  0  0  0  0  0  0  0  0  0  0
   -2.5766   -3.3983    1.1361 H   0  0  0  0  0  0  0  0  0  0  0  0
   -3.8711   -3.4385    0.1419 H   0  0  0  0  0  0  0  0  0  0  0  0
   -2.4687   -2.6104   -0.3769 H   0  0  0  0  0  0  0  0  0  0  0  0
  1  5  1  0
  5  6  1  0
  5  7  2  0
  1  2  1  0
  1  3  1  0
  1  4  1  0
  8 12  1  0
 12 15  1  0
  8  9  1  0
  8 10  1  0
  8 11  1  0
 12 13  1  0
 12 14  1  0
 15 16  1  0
 15 17  1  0
 15 18  1  0
M  CHG  1   6  -1
M  END
>  <PDB_ID>  (1299) 
pdb3frk

>  <RESIDUE_NAME>  (1299) 
ASP   LYS

>  <FRAG_NAME>  (1299) 
ACET   PRPA

>  <FRAG_ATOM_NUM>  (1299) 
fragi: 7  fragj: 11

>  <atom.prop.CHAIN_ID>  (1299) 
A A A A A A A Z Z Z Z Z Z Z Z Z Z Z

>  <atom.prop.IS_HEAVY_ATOM>  (1299) 
1 0 0 0 1 1 1 1 0 0 0 1 0 0 1 0 0 0

>  <DIFUSE_FUNC_ATOM>  (1299) 
atom 6   atom 7   

>  <FINAL_SINGLE_POINT_ENERGY>  (1299) 
0

>  <NONCOV_INTER_ENERGY_QM>  (1299) 
0

>  <FF_Energy>  (1299) 
31.27

>  <QM_Energy>  (1299) 
0.49

>  <source>  (1299) 
ACET_PRPA_13

>  <Index>  (1299) 
25730

$$$$
ACET-pdb3fcp-B-ASP-199:PRPA-pdb3fcp-B-LYS-170
     RDKit          3D

 18 16  0  0  0  0  0  0  0  0999 V2000
    0.0206    1.5309   -0.0134 C   0  0  0  0  0  0  0  0  0  0  0  0
    0.3115    1.8341   -0.9122 H   0  0  0  0  0  0  0  0  0  0  0  0
    0.6523    1.8439    0.6833 H   0  0  0  0  0  0  0  0  0  0  0  0
   -0.9549    1.9716    0.1922 H   0  0  0  0  0  0  0  0  0  0  0  0
    0.0000    0.0000    0.0000 C   0  0  0  0  0  0  0  0  0  0  0  0
   -1.0922   -0.6023   -0.0000 O   0  0  0  0  0  1  0  0  0  0  0  0
    1.0922   -0.6020    0.0000 O   0  0  0  0  0  0  0  0  0  0  0  0
    3.4604    1.9550    3.3243 C   0  0  0  0  0  0  0  0  0  0  0  0
    3.8615    2.5282    2.6103 H   0  0  0  0  0  0  0  0  0  0  0  0
    4.1810    1.4319    3.7769 H   0  0  0  0  0  0  0  0  0  0  0  0
    2.9764    2.5977    4.0596 H   0  0  0  0  0  0  0  0  0  0  0  0
    2.4732    0.9808    2.6786 C   0  0  0  0  0  0  0  0  0  0  0  0
    1.9019    0.5832    3.3926 H   0  0  0  0  0  0  0  0  0  0  0  0
    1.9082    1.4809    2.0274 H   0  0  0  0  0  0  0  0  0  0  0  0
    3.1778   -0.1566    1.9344 C   0  0  0  0  0  0  0  0  0  0  0  0
    2.5981   -0.4482    1.1636 H   0  0  0  0  0  0  0  0  0  0  0  0
    4.0468    0.1901    1.5612 H   0  0  0  0  0  0  0  0  0  0  0  0
    3.3862   -1.0222    2.5633 H   0  0  0  0  0  0  0  0  0  0  0  0
  1  5  1  0
  5  6  1  0
  5  7  2  0
  1  2  1  0
  1  3  1  0
  1  4  1  0
  8 12  1  0
 12 15  1  0
  8  9  1  0
  8 10  1  0
  8 11  1  0
 12 13  1  0
 12 14  1  0
 15 16  1  0
 15 17  1  0
 15 18  1  0
M  CHG  1   6  -1
M  END
>  <PDB_ID>  (1300) 
pdb3fcp

>  <RESIDUE_NAME>  (1300) 
ASP   LYS

>  <FRAG_NAME>  (1300) 
ACET   PRPA

>  <FRAG_ATOM_NUM>  (1300) 
fragi: 7  fragj: 11

>  <atom.prop.CHAIN_ID>  (1300) 
A A A A A A A Z Z Z Z Z Z Z Z Z Z Z

>  <atom.prop.IS_HEAVY_ATOM>  (1300) 
1 0 0 0 1 1 1 1 0 0 0 1 0 0 1 0 0 0

>  <DIFUSE_FUNC_ATOM>  (1300) 
atom 6   atom 7   

>  <FINAL_SINGLE_POINT_ENERGY>  (1300) 
0

>  <NONCOV_INTER_ENERGY_QM>  (1300) 
0

>  <FF_Energy>  (1300) 
13.96

>  <QM_Energy>  (1300) 
-1.17

>  <source>  (1300) 
ACET_PRPA_13

>  <Index>  (1300) 
26815

$$$$
ACET-pdb4bqe-A-ASP-184:PRPA-pdb4bqe-A-GLU-187
     RDKit          3D

 18 16  0  0  0  0  0  0  0  0999 V2000
    0.0709    1.5220    0.0208 C   0  0  0  0  0  0  0  0  0  0  0  0
    0.6038    1.8191   -0.7685 H   0  0  0  0  0  0  0  0  0  0  0  0
    0.5264    1.8009    0.8621 H   0  0  0  0  0  0  0  0  0  0  0  0
   -0.9085    1.9987   -0.0202 H   0  0  0  0  0  0  0  0  0  0  0  0
    0.0000    0.0000    0.0000 C   0  0  0  0  0  0  0  0  0  0  0  0
   -1.0795   -0.6062   -0.0000 O   0  0  0  0  0  1  0  0  0  0  0  0
    1.0795   -0.6043   -0.0000 O   0  0  0  0  0  0  0  0  0  0  0  0
    0.2969    4.3645   -4.5662 C   0  0  0  0  0  0  0  0  0  0  0  0
    0.3505    5.3753   -4.4413 H   0  0  0  0  0  0  0  0  0  0  0  0
   -0.7373    4.0451   -4.4370 H   0  0  0  0  0  0  0  0  0  0  0  0
    0.7197    4.0918   -5.5331 H   0  0  0  0  0  0  0  0  0  0  0  0
    1.1323    3.9776   -3.3669 C   0  0  0  0  0  0  0  0  0  0  0  0
    1.0526    3.0261   -3.2195 H   0  0  0  0  0  0  0  0  0  0  0  0
    2.0330    4.3037   -3.4887 H   0  0  0  0  0  0  0  0  0  0  0  0
    0.5790    4.6723   -2.0822 C   0  0  0  0  0  0  0  0  0  0  0  0
   -0.2854    4.2578   -1.8661 H   0  0  0  0  0  0  0  0  0  0  0  0
    1.2406    4.5505   -1.3647 H   0  0  0  0  0  0  0  0  0  0  0  0
    0.4061    5.7440   -2.1801 H   0  0  0  0  0  0  0  0  0  0  0  0
  1  5  1  0
  5  6  1  0
  5  7  2  0
  1  2  1  0
  1  3  1  0
  1  4  1  0
  8 12  1  0
 12 15  1  0
  8  9  1  0
  8 10  1  0
  8 11  1  0
 12 13  1  0
 12 14  1  0
 15 16  1  0
 15 17  1  0
 15 18  1  0
M  CHG  1   6  -1
M  END
>  <PDB_ID>  (1301) 
pdb4bqe

>  <RESIDUE_NAME>  (1301) 
ASP   GLU

>  <FRAG_NAME>  (1301) 
ACET   PRPA

>  <FRAG_ATOM_NUM>  (1301) 
fragi: 7  fragj: 11

>  <atom.prop.CHAIN_ID>  (1301) 
A A A A A A A Z Z Z Z Z Z Z Z Z Z Z

>  <atom.prop.IS_HEAVY_ATOM>  (1301) 
1 0 0 0 1 1 1 1 0 0 0 1 0 0 1 0 0 0

>  <DIFUSE_FUNC_ATOM>  (1301) 
atom 6   atom 7   

>  <FINAL_SINGLE_POINT_ENERGY>  (1301) 
0

>  <NONCOV_INTER_ENERGY_QM>  (1301) 
0

>  <FF_Energy>  (1301) 
13.68

>  <QM_Energy>  (1301) 
-1.63

>  <source>  (1301) 
ACET_PRPA_13

>  <Index>  (1301) 
31269

$$$$
ACET-pdb3g4e-A-GLU-120:PRPA-pdb3g4e-A-ARG-101
     RDKit          3D

 18 16  0  0  0  0  0  0  0  0999 V2000
    0.0003    1.5168    0.0014 C   0  0  0  0  0  0  0  0  0  0  0  0
   -0.3641    1.8147   -0.8604 H   0  0  0  0  0  0  0  0  0  0  0  0
    0.9260    1.8127    0.1403 H   0  0  0  0  0  0  0  0  0  0  0  0
   -0.6174    1.9342    0.7967 H   0  0  0  0  0  0  0  0  0  0  0  0
    0.0000    0.0000    0.0000 C   0  0  0  0  0  0  0  0  0  0  0  0
   -1.0979   -0.5948    0.0000 O   0  0  0  0  0  1  0  0  0  0  0  0
    1.0979   -0.5962    0.0000 O   0  0  0  0  0  0  0  0  0  0  0  0
   -4.3148   -2.2318    1.1426 C   0  0  0  0  0  0  0  0  0  0  0  0
   -4.5310   -3.1448    0.7981 H   0  0  0  0  0  0  0  0  0  0  0  0
   -4.3151   -1.5816    0.3835 H   0  0  0  0  0  0  0  0  0  0  0  0
   -5.1016   -1.9386    1.8376 H   0  0  0  0  0  0  0  0  0  0  0  0
   -2.9040   -2.2717    1.7269 C   0  0  0  0  0  0  0  0  0  0  0  0
   -2.5937   -1.3474    1.8982 H   0  0  0  0  0  0  0  0  0  0  0  0
   -2.9101   -2.8057    2.5608 H   0  0  0  0  0  0  0  0  0  0  0  0
   -1.9552   -2.9252    0.7445 C   0  0  0  0  0  0  0  0  0  0  0  0
   -2.3726   -3.8166    0.4628 H   0  0  0  0  0  0  0  0  0  0  0  0
   -1.9420   -2.3442   -0.0991 H   0  0  0  0  0  0  0  0  0  0  0  0
   -0.9294   -3.1024    1.0677 H   0  0  0  0  0  0  0  0  0  0  0  0
  1  5  1  0
  5  6  1  0
  5  7  2  0
  1  2  1  0
  1  3  1  0
  1  4  1  0
  8 12  1  0
 12 15  1  0
  8  9  1  0
  8 10  1  0
  8 11  1  0
 12 13  1  0
 12 14  1  0
 15 16  1  0
 15 17  1  0
 15 18  1  0
M  CHG  1   6  -1
M  END
>  <PDB_ID>  (1302) 
pdb3g4e

>  <RESIDUE_NAME>  (1302) 
GLU   ARG

>  <FRAG_NAME>  (1302) 
ACET   PRPA

>  <FRAG_ATOM_NUM>  (1302) 
fragi: 7  fragj: 11

>  <atom.prop.CHAIN_ID>  (1302) 
A A A A A A A Z Z Z Z Z Z Z Z Z Z Z

>  <atom.prop.IS_HEAVY_ATOM>  (1302) 
1 0 0 0 1 1 1 1 0 0 0 1 0 0 1 0 0 0

>  <DIFUSE_FUNC_ATOM>  (1302) 
atom 6   atom 7   

>  <FINAL_SINGLE_POINT_ENERGY>  (1302) 
0

>  <NONCOV_INTER_ENERGY_QM>  (1302) 
0

>  <FF_Energy>  (1302) 
16.64

>  <QM_Energy>  (1302) 
1.47

>  <source>  (1302) 
ACET_PRPA_13

>  <Index>  (1302) 
31284

$$$$
ACET-pdb3g7e-A-GLU-213:PRPA-pdb3g7e-A-ARG-206
     RDKit          3D

 18 16  0  0  0  0  0  0  0  0999 V2000
    0.0061    1.5210    0.0061 C   0  0  0  0  0  0  0  0  0  0  0  0
   -0.8513    1.8196   -0.3637 H   0  0  0  0  0  0  0  0  0  0  0  0
    0.7721    1.8136   -0.5335 H   0  0  0  0  0  0  0  0  0  0  0  0
    0.1114    1.9298    1.0111 H   0  0  0  0  0  0  0  0  0  0  0  0
    0.0000    0.0000    0.0000 C   0  0  0  0  0  0  0  0  0  0  0  0
   -1.1000   -0.6015    0.0000 O   0  0  0  0  0  1  0  0  0  0  0  0
    1.1000   -0.5933   -0.0000 O   0  0  0  0  0  0  0  0  0  0  0  0
   -3.2842    4.0517   -1.7106 C   0  0  0  0  0  0  0  0  0  0  0  0
   -2.4955    4.0334   -1.0894 H   0  0  0  0  0  0  0  0  0  0  0  0
   -4.1999    4.0780   -1.1200 H   0  0  0  0  0  0  0  0  0  0  0  0
   -3.2142    4.9419   -2.3357 H   0  0  0  0  0  0  0  0  0  0  0  0
   -3.2606    2.8031   -2.5968 C   0  0  0  0  0  0  0  0  0  0  0  0
   -4.1995    2.5892   -2.8579 H   0  0  0  0  0  0  0  0  0  0  0  0
   -2.7233    3.0098   -3.4121 H   0  0  0  0  0  0  0  0  0  0  0  0
   -2.6614    1.5673   -1.9406 C   0  0  0  0  0  0  0  0  0  0  0  0
   -2.1802    1.0255   -2.6318 H   0  0  0  0  0  0  0  0  0  0  0  0
   -2.0124    1.8507   -1.2328 H   0  0  0  0  0  0  0  0  0  0  0  0
   -3.4153    0.9327   -1.4748 H   0  0  0  0  0  0  0  0  0  0  0  0
  1  5  1  0
  5  6  1  0
  5  7  2  0
  1  2  1  0
  1  3  1  0
  1  4  1  0
  8 12  1  0
 12 15  1  0
  8  9  1  0
  8 10  1  0
  8 11  1  0
 12 13  1  0
 12 14  1  0
 15 16  1  0
 15 17  1  0
 15 18  1  0
M  CHG  1   6  -1
M  END
>  <PDB_ID>  (1303) 
pdb3g7e

>  <RESIDUE_NAME>  (1303) 
GLU   ARG

>  <FRAG_NAME>  (1303) 
ACET   PRPA

>  <FRAG_ATOM_NUM>  (1303) 
fragi: 7  fragj: 11

>  <atom.prop.CHAIN_ID>  (1303) 
A A A A A A A Z Z Z Z Z Z Z Z Z Z Z

>  <atom.prop.IS_HEAVY_ATOM>  (1303) 
1 0 0 0 1 1 1 1 0 0 0 1 0 0 1 0 0 0

>  <DIFUSE_FUNC_ATOM>  (1303) 
atom 6   atom 7   

>  <FINAL_SINGLE_POINT_ENERGY>  (1303) 
0

>  <NONCOV_INTER_ENERGY_QM>  (1303) 
0

>  <FF_Energy>  (1303) 
39.36

>  <QM_Energy>  (1303) 
4.0

>  <source>  (1303) 
ACET_PRPA_13

>  <Index>  (1303) 
31845

$$$$
ACET-pdb3g7e-A-GLU-213:PRPA-pdb3g7e-A-ARG-206
     RDKit          3D

 18 16  0  0  0  0  0  0  0  0999 V2000
    0.0061    1.5210    0.0061 C   0  0  0  0  0  0  0  0  0  0  0  0
   -0.8513    1.8196   -0.3637 H   0  0  0  0  0  0  0  0  0  0  0  0
    0.7721    1.8136   -0.5335 H   0  0  0  0  0  0  0  0  0  0  0  0
    0.1114    1.9298    1.0111 H   0  0  0  0  0  0  0  0  0  0  0  0
    0.0000    0.0000    0.0000 C   0  0  0  0  0  0  0  0  0  0  0  0
   -1.1000   -0.6015    0.0000 O   0  0  0  0  0  1  0  0  0  0  0  0
    1.1000   -0.5933   -0.0000 O   0  0  0  0  0  0  0  0  0  0  0  0
   -3.2606    2.8031   -2.5968 C   0  0  0  0  0  0  0  0  0  0  0  0
   -4.1995    2.5892   -2.8579 H   0  0  0  0  0  0  0  0  0  0  0  0
   -2.7233    3.0098   -3.4121 H   0  0  0  0  0  0  0  0  0  0  0  0
   -3.2774    3.6920   -1.9660 H   0  0  0  0  0  0  0  0  0  0  0  0
   -2.6614    1.5673   -1.9406 C   0  0  0  0  0  0  0  0  0  0  0  0
   -2.1802    1.0255   -2.6318 H   0  0  0  0  0  0  0  0  0  0  0  0
   -2.0124    1.8507   -1.2328 H   0  0  0  0  0  0  0  0  0  0  0  0
   -3.7113    0.6836   -1.2920 C   0  0  0  0  0  0  0  0  0  0  0  0
   -3.2913    0.2242   -0.5111 H   0  0  0  0  0  0  0  0  0  0  0  0
   -4.4572    1.2683   -0.9776 H   0  0  0  0  0  0  0  0  0  0  0  0
   -4.1068   -0.0647   -1.9787 H   0  0  0  0  0  0  0  0  0  0  0  0
  1  5  1  0
  5  6  1  0
  5  7  2  0
  1  2  1  0
  1  3  1  0
  1  4  1  0
  8 12  1  0
 12 15  1  0
  8  9  1  0
  8 10  1  0
  8 11  1  0
 12 13  1  0
 12 14  1  0
 15 16  1  0
 15 17  1  0
 15 18  1  0
M  CHG  1   6  -1
M  END
>  <PDB_ID>  (1304) 
pdb3g7e

>  <RESIDUE_NAME>  (1304) 
GLU   ARG

>  <FRAG_NAME>  (1304) 
ACET   PRPA

>  <FRAG_ATOM_NUM>  (1304) 
fragi: 7  fragj: 11

>  <atom.prop.CHAIN_ID>  (1304) 
A A A A A A A Z Z Z Z Z Z Z Z Z Z Z

>  <atom.prop.IS_HEAVY_ATOM>  (1304) 
1 0 0 0 1 1 1 1 0 0 0 1 0 0 1 0 0 0

>  <DIFUSE_FUNC_ATOM>  (1304) 
atom 6   atom 7   

>  <FINAL_SINGLE_POINT_ENERGY>  (1304) 
0

>  <NONCOV_INTER_ENERGY_QM>  (1304) 
0

>  <FF_Energy>  (1304) 
46.67

>  <QM_Energy>  (1304) 
1.99

>  <source>  (1304) 
ACET_PRPA_13

>  <Index>  (1304) 
31847

$$$$
ACET-pdb3g7n-A-GLU-113:PRPA-pdb3g7n-A-VAL-35
     RDKit          3D

 18 16  0  0  0  0  0  0  0  0999 V2000
    0.0231    1.5145   -0.2045 C   0  0  0  0  0  0  0  0  0  0  0  0
    0.3969    1.6832   -1.1029 H   0  0  0  0  0  0  0  0  0  0  0  0
    0.5961    1.8958    0.5036 H   0  0  0  0  0  0  0  0  0  0  0  0
   -0.9572    1.9878   -0.1471 H   0  0  0  0  0  0  0  0  0  0  0  0
    0.0000    0.0000    0.0000 C   0  0  0  0  0  0  0  0  0  0  0  0
   -1.0922   -0.6105   -0.0000 O   0  0  0  0  0  1  0  0  0  0  0  0
    1.0922   -0.6048   -0.0000 O   0  0  0  0  0  0  0  0  0  0  0  0
    4.3951   -1.6304   -2.7758 C   0  0  0  0  0  0  0  0  0  0  0  0
    4.7705   -2.5448   -2.9982 H   0  0  0  0  0  0  0  0  0  0  0  0
    5.1382   -0.8856   -3.0607 H   0  0  0  0  0  0  0  0  0  0  0  0
    3.4566   -1.5099   -3.3168 H   0  0  0  0  0  0  0  0  0  0  0  0
    4.1137   -1.5796   -1.2931 C   0  0  0  0  0  0  0  0  0  0  0  0
    3.4517   -2.2985   -1.0757 H   0  0  0  0  0  0  0  0  0  0  0  0
    5.0154   -1.7945   -0.7196 H   0  0  0  0  0  0  0  0  0  0  0  0
    3.6311   -0.2605   -0.9351 C   0  0  0  0  0  0  0  0  0  0  0  0
    3.4545    0.3010   -1.7590 H   0  0  0  0  0  0  0  0  0  0  0  0
    2.7671   -0.3163   -0.4096 H   0  0  0  0  0  0  0  0  0  0  0  0
    4.3058    0.2345   -0.3651 H   0  0  0  0  0  0  0  0  0  0  0  0
  1  5  1  0
  5  6  1  0
  5  7  2  0
  1  2  1  0
  1  3  1  0
  1  4  1  0
  8 12  1  0
 12 15  1  0
  8  9  1  0
  8 10  1  0
  8 11  1  0
 12 13  1  0
 12 14  1  0
 15 16  1  0
 15 17  1  0
 15 18  1  0
M  CHG  1   6  -1
M  END
>  <PDB_ID>  (1305) 
pdb3g7n

>  <RESIDUE_NAME>  (1305) 
GLU   VAL

>  <FRAG_NAME>  (1305) 
ACET   PRPA

>  <FRAG_ATOM_NUM>  (1305) 
fragi: 7  fragj: 11

>  <atom.prop.CHAIN_ID>  (1305) 
A A A A A A A Z Z Z Z Z Z Z Z Z Z Z

>  <atom.prop.IS_HEAVY_ATOM>  (1305) 
1 0 0 0 1 1 1 1 0 0 0 1 0 0 1 0 0 0

>  <DIFUSE_FUNC_ATOM>  (1305) 
atom 6   atom 7   

>  <FINAL_SINGLE_POINT_ENERGY>  (1305) 
0

>  <NONCOV_INTER_ENERGY_QM>  (1305) 
0

>  <FF_Energy>  (1305) 
39.51

>  <QM_Energy>  (1305) 
1.36

>  <source>  (1305) 
ACET_PRPA_13

>  <Index>  (1305) 
32081

$$$$
ACET-pdb3g7n-A-GLU-113:PRPA-pdb3g7n-A-VAL-35
     RDKit          3D

 18 16  0  0  0  0  0  0  0  0999 V2000
    0.0231    1.5145   -0.2045 C   0  0  0  0  0  0  0  0  0  0  0  0
    0.3969    1.6832   -1.1029 H   0  0  0  0  0  0  0  0  0  0  0  0
    0.5961    1.8958    0.5036 H   0  0  0  0  0  0  0  0  0  0  0  0
   -0.9572    1.9878   -0.1471 H   0  0  0  0  0  0  0  0  0  0  0  0
    0.0000    0.0000    0.0000 C   0  0  0  0  0  0  0  0  0  0  0  0
   -1.0922   -0.6105   -0.0000 O   0  0  0  0  0  1  0  0  0  0  0  0
    1.0922   -0.6048   -0.0000 O   0  0  0  0  0  0  0  0  0  0  0  0
    5.3589   -1.8763   -0.5011 C   0  0  0  0  0  0  0  0  0  0  0  0
    6.1713   -1.6608   -1.0474 H   0  0  0  0  0  0  0  0  0  0  0  0
    5.3724   -1.3233    0.3350 H   0  0  0  0  0  0  0  0  0  0  0  0
    5.3822   -2.8471   -0.2510 H   0  0  0  0  0  0  0  0  0  0  0  0
    4.1137   -1.5796   -1.2931 C   0  0  0  0  0  0  0  0  0  0  0  0
    3.4517   -2.2985   -1.0757 H   0  0  0  0  0  0  0  0  0  0  0  0
    4.3168   -1.6163   -2.3634 H   0  0  0  0  0  0  0  0  0  0  0  0
    3.6311   -0.2605   -0.9351 C   0  0  0  0  0  0  0  0  0  0  0  0
    3.4545    0.3010   -1.7590 H   0  0  0  0  0  0  0  0  0  0  0  0
    2.7671   -0.3163   -0.4096 H   0  0  0  0  0  0  0  0  0  0  0  0
    4.3058    0.2345   -0.3651 H   0  0  0  0  0  0  0  0  0  0  0  0
  1  5  1  0
  5  6  1  0
  5  7  2  0
  1  2  1  0
  1  3  1  0
  1  4  1  0
  8 12  1  0
 12 15  1  0
  8  9  1  0
  8 10  1  0
  8 11  1  0
 12 13  1  0
 12 14  1  0
 15 16  1  0
 15 17  1  0
 15 18  1  0
M  CHG  1   6  -1
M  END
>  <PDB_ID>  (1306) 
pdb3g7n

>  <RESIDUE_NAME>  (1306) 
GLU   VAL

>  <FRAG_NAME>  (1306) 
ACET   PRPA

>  <FRAG_ATOM_NUM>  (1306) 
fragi: 7  fragj: 11

>  <atom.prop.CHAIN_ID>  (1306) 
A A A A A A A Z Z Z Z Z Z Z Z Z Z Z

>  <atom.prop.IS_HEAVY_ATOM>  (1306) 
1 0 0 0 1 1 1 1 0 0 0 1 0 0 1 0 0 0

>  <DIFUSE_FUNC_ATOM>  (1306) 
atom 6   atom 7   

>  <FINAL_SINGLE_POINT_ENERGY>  (1306) 
0

>  <NONCOV_INTER_ENERGY_QM>  (1306) 
0

>  <FF_Energy>  (1306) 
39.47

>  <QM_Energy>  (1306) 
1.47

>  <source>  (1306) 
ACET_PRPA_13

>  <Index>  (1306) 
32084

$$$$
ACET-pdb4c86-A-ASP-129:PRPA-pdb4c86-A-LEU-101
     RDKit          3D

 18 16  0  0  0  0  0  0  0  0999 V2000
    0.0651    1.5169   -0.0174 C   0  0  0  0  0  0  0  0  0  0  0  0
    0.5510    1.8073   -0.8347 H   0  0  0  0  0  0  0  0  0  0  0  0
    0.5408    1.8269    0.7975 H   0  0  0  0  0  0  0  0  0  0  0  0
   -0.9185    1.9863   -0.0299 H   0  0  0  0  0  0  0  0  0  0  0  0
    0.0000    0.0000    0.0000 C   0  0  0  0  0  0  0  0  0  0  0  0
   -1.0940   -0.5918    0.0000 O   0  0  0  0  0  1  0  0  0  0  0  0
    1.0940   -0.5991   -0.0000 O   0  0  0  0  0  0  0  0  0  0  0  0
    3.8079   -2.2659    2.8093 C   0  0  0  0  0  0  0  0  0  0  0  0
    3.6002   -3.2016    2.5734 H   0  0  0  0  0  0  0  0  0  0  0  0
    3.6801   -2.0941    3.7717 H   0  0  0  0  0  0  0  0  0  0  0  0
    4.8530   -2.0764    2.5640 H   0  0  0  0  0  0  0  0  0  0  0  0
    2.7999   -1.3709    2.0491 C   0  0  0  0  0  0  0  0  0  0  0  0
    3.0942   -1.3017    1.0965 H   0  0  0  0  0  0  0  0  0  0  0  0
    2.8031   -0.3479    2.4253 H   0  0  0  0  0  0  0  0  0  0  0  0
    1.3962   -1.9545    2.1107 C   0  0  0  0  0  0  0  0  0  0  0  0
    1.1050   -2.0249    3.0650 H   0  0  0  0  0  0  0  0  0  0  0  0
    0.7645   -1.3590    1.6127 H   0  0  0  0  0  0  0  0  0  0  0  0
    1.3932   -2.8647    1.6945 H   0  0  0  0  0  0  0  0  0  0  0  0
  1  5  1  0
  5  6  1  0
  5  7  2  0
  1  2  1  0
  1  3  1  0
  1  4  1  0
  8 12  1  0
 12 15  1  0
  8  9  1  0
  8 10  1  0
  8 11  1  0
 12 13  1  0
 12 14  1  0
 15 16  1  0
 15 17  1  0
 15 18  1  0
M  CHG  1   6  -1
M  END
>  <PDB_ID>  (1307) 
pdb4c86

>  <RESIDUE_NAME>  (1307) 
ASP   LEU

>  <FRAG_NAME>  (1307) 
ACET   PRPA

>  <FRAG_ATOM_NUM>  (1307) 
fragi: 7  fragj: 11

>  <atom.prop.CHAIN_ID>  (1307) 
A A A A A A A Z Z Z Z Z Z Z Z Z Z Z

>  <atom.prop.IS_HEAVY_ATOM>  (1307) 
1 0 0 0 1 1 1 1 0 0 0 1 0 0 1 0 0 0

>  <DIFUSE_FUNC_ATOM>  (1307) 
atom 6   atom 7   

>  <FINAL_SINGLE_POINT_ENERGY>  (1307) 
0

>  <NONCOV_INTER_ENERGY_QM>  (1307) 
0

>  <FF_Energy>  (1307) 
39.02

>  <QM_Energy>  (1307) 
5.43

>  <source>  (1307) 
ACET_PRPA_13

>  <Index>  (1307) 
32455

$$$$
ACET-pdb4c86-A-ASP-129:PRPA-pdb4c86-A-LEU-101
     RDKit          3D

 18 16  0  0  0  0  0  0  0  0999 V2000
    0.0651    1.5169   -0.0174 C   0  0  0  0  0  0  0  0  0  0  0  0
    0.5510    1.8073   -0.8347 H   0  0  0  0  0  0  0  0  0  0  0  0
    0.5408    1.8269    0.7975 H   0  0  0  0  0  0  0  0  0  0  0  0
   -0.9185    1.9863   -0.0299 H   0  0  0  0  0  0  0  0  0  0  0  0
    0.0000    0.0000    0.0000 C   0  0  0  0  0  0  0  0  0  0  0  0
   -1.0940   -0.5918    0.0000 O   0  0  0  0  0  1  0  0  0  0  0  0
    1.0940   -0.5991   -0.0000 O   0  0  0  0  0  0  0  0  0  0  0  0
    1.3962   -1.9545    2.1107 C   0  0  0  0  0  0  0  0  0  0  0  0
    1.1050   -2.0249    3.0650 H   0  0  0  0  0  0  0  0  0  0  0  0
    0.7645   -1.3590    1.6127 H   0  0  0  0  0  0  0  0  0  0  0  0
    1.3932   -2.8647    1.6945 H   0  0  0  0  0  0  0  0  0  0  0  0
    2.7999   -1.3709    2.0491 C   0  0  0  0  0  0  0  0  0  0  0  0
    3.0942   -1.3017    1.0965 H   0  0  0  0  0  0  0  0  0  0  0  0
    3.5100   -2.0013    2.5845 H   0  0  0  0  0  0  0  0  0  0  0  0
    2.8043    0.0593    2.5750 C   0  0  0  0  0  0  0  0  0  0  0  0
    3.7182    0.4518    2.4654 H   0  0  0  0  0  0  0  0  0  0  0  0
    2.1425    0.6064    2.0613 H   0  0  0  0  0  0  0  0  0  0  0  0
    2.5554    0.0593    3.5441 H   0  0  0  0  0  0  0  0  0  0  0  0
  1  5  1  0
  5  6  1  0
  5  7  2  0
  1  2  1  0
  1  3  1  0
  1  4  1  0
  8 12  1  0
 12 15  1  0
  8  9  1  0
  8 10  1  0
  8 11  1  0
 12 13  1  0
 12 14  1  0
 15 16  1  0
 15 17  1  0
 15 18  1  0
M  CHG  1   6  -1
M  END
>  <PDB_ID>  (1308) 
pdb4c86

>  <RESIDUE_NAME>  (1308) 
ASP   LEU

>  <FRAG_NAME>  (1308) 
ACET   PRPA

>  <FRAG_ATOM_NUM>  (1308) 
fragi: 7  fragj: 11

>  <atom.prop.CHAIN_ID>  (1308) 
A A A A A A A Z Z Z Z Z Z Z Z Z Z Z

>  <atom.prop.IS_HEAVY_ATOM>  (1308) 
1 0 0 0 1 1 1 1 0 0 0 1 0 0 1 0 0 0

>  <DIFUSE_FUNC_ATOM>  (1308) 
atom 6   atom 7   

>  <FINAL_SINGLE_POINT_ENERGY>  (1308) 
0

>  <NONCOV_INTER_ENERGY_QM>  (1308) 
0

>  <FF_Energy>  (1308) 
40.22

>  <QM_Energy>  (1308) 
4.36

>  <source>  (1308) 
ACET_PRPA_13

>  <Index>  (1308) 
32462

$$$$
ACET-pdb4b31-A-GLU-663:PRPA-pdb4b31-A-LEU-656
     RDKit          3D

 18 16  0  0  0  0  0  0  0  0999 V2000
    0.0184    1.5350   -0.0289 C   0  0  0  0  0  0  0  0  0  0  0  0
    0.5244    1.8069   -0.8303 H   0  0  0  0  0  0  0  0  0  0  0  0
    0.4580    1.8381    0.8009 H   0  0  0  0  0  0  0  0  0  0  0  0
   -0.9676    1.9967   -0.0791 H   0  0  0  0  0  0  0  0  0  0  0  0
    0.0000    0.0000    0.0000 C   0  0  0  0  0  0  0  0  0  0  0  0
   -1.1014   -0.6100    0.0000 O   0  0  0  0  0  1  0  0  0  0  0  0
    1.1014   -0.5984    0.0000 O   0  0  0  0  0  0  0  0  0  0  0  0
    3.6264    2.5338   -2.1259 C   0  0  0  0  0  0  0  0  0  0  0  0
    3.6165    1.8650   -1.3903 H   0  0  0  0  0  0  0  0  0  0  0  0
    3.1777    3.3722   -1.8410 H   0  0  0  0  0  0  0  0  0  0  0  0
    4.6686    2.7745   -2.3358 H   0  0  0  0  0  0  0  0  0  0  0  0
    2.8087    1.9458   -3.2949 C   0  0  0  0  0  0  0  0  0  0  0  0
    3.1391    1.0217   -3.4826 H   0  0  0  0  0  0  0  0  0  0  0  0
    2.9336    2.5008   -4.2247 H   0  0  0  0  0  0  0  0  0  0  0  0
    1.3260    1.8967   -2.9482 C   0  0  0  0  0  0  0  0  0  0  0  0
    0.9973    2.8215   -2.7582 H   0  0  0  0  0  0  0  0  0  0  0  0
    0.8160    1.5130   -3.7187 H   0  0  0  0  0  0  0  0  0  0  0  0
    1.1915    1.3229   -2.1399 H   0  0  0  0  0  0  0  0  0  0  0  0
  1  5  1  0
  5  6  1  0
  5  7  2  0
  1  2  1  0
  1  3  1  0
  1  4  1  0
  8 12  1  0
 12 15  1  0
  8  9  1  0
  8 10  1  0
  8 11  1  0
 12 13  1  0
 12 14  1  0
 15 16  1  0
 15 17  1  0
 15 18  1  0
M  CHG  1   6  -1
M  END
>  <PDB_ID>  (1309) 
pdb4b31

>  <RESIDUE_NAME>  (1309) 
GLU   LEU

>  <FRAG_NAME>  (1309) 
ACET   PRPA

>  <FRAG_ATOM_NUM>  (1309) 
fragi: 7  fragj: 11

>  <atom.prop.CHAIN_ID>  (1309) 
A A A A A A A Z Z Z Z Z Z Z Z Z Z Z

>  <atom.prop.IS_HEAVY_ATOM>  (1309) 
1 0 0 0 1 1 1 1 0 0 0 1 0 0 1 0 0 0

>  <DIFUSE_FUNC_ATOM>  (1309) 
atom 6   atom 7   

>  <FINAL_SINGLE_POINT_ENERGY>  (1309) 
0

>  <NONCOV_INTER_ENERGY_QM>  (1309) 
0

>  <FF_Energy>  (1309) 
21.89

>  <QM_Energy>  (1309) 
2.41

>  <source>  (1309) 
ACET_PRPA_13

>  <Index>  (1309) 
32522

$$$$
ACET-pdb4b5k-A-GLU-663:PRPA-pdb4b5k-A-LEU-656
     RDKit          3D

 18 16  0  0  0  0  0  0  0  0999 V2000
   -0.0155    1.5187    0.0080 C   0  0  0  0  0  0  0  0  0  0  0  0
   -0.7225    1.8127   -0.6144 H   0  0  0  0  0  0  0  0  0  0  0  0
    0.8756    1.8267   -0.2822 H   0  0  0  0  0  0  0  0  0  0  0  0
   -0.2232    1.9523    0.9863 H   0  0  0  0  0  0  0  0  0  0  0  0
    0.0000    0.0000    0.0000 C   0  0  0  0  0  0  0  0  0  0  0  0
   -1.1051   -0.5877   -0.0000 O   0  0  0  0  0  1  0  0  0  0  0  0
    1.1051   -0.5989   -0.0000 O   0  0  0  0  0  0  0  0  0  0  0  0
    4.8818    2.4428    0.3236 C   0  0  0  0  0  0  0  0  0  0  0  0
    4.5907    1.5017    0.5411 H   0  0  0  0  0  0  0  0  0  0  0  0
    4.4791    3.0629    1.0085 H   0  0  0  0  0  0  0  0  0  0  0  0
    5.9650    2.4863    0.4363 H   0  0  0  0  0  0  0  0  0  0  0  0
    4.2439    2.8034   -1.0353 C   0  0  0  0  0  0  0  0  0  0  0  0
    4.5596    2.1489   -1.7173 H   0  0  0  0  0  0  0  0  0  0  0  0
    4.5576    3.7724   -1.4235 H   0  0  0  0  0  0  0  0  0  0  0  0
    2.7305    2.7506   -0.9349 C   0  0  0  0  0  0  0  0  0  0  0  0
    2.4164    3.4030   -0.2433 H   0  0  0  0  0  0  0  0  0  0  0  0
    2.3259    2.9861   -1.8201 H   0  0  0  0  0  0  0  0  0  0  0  0
    2.4422    1.8280   -0.6740 H   0  0  0  0  0  0  0  0  0  0  0  0
  1  5  1  0
  5  6  1  0
  5  7  2  0
  1  2  1  0
  1  3  1  0
  1  4  1  0
  8 12  1  0
 12 15  1  0
  8  9  1  0
  8 10  1  0
  8 11  1  0
 12 13  1  0
 12 14  1  0
 15 16  1  0
 15 17  1  0
 15 18  1  0
M  CHG  1   6  -1
M  END
>  <PDB_ID>  (1310) 
pdb4b5k

>  <RESIDUE_NAME>  (1310) 
GLU   LEU

>  <FRAG_NAME>  (1310) 
ACET   PRPA

>  <FRAG_ATOM_NUM>  (1310) 
fragi: 7  fragj: 11

>  <atom.prop.CHAIN_ID>  (1310) 
A A A A A A A Z Z Z Z Z Z Z Z Z Z Z

>  <atom.prop.IS_HEAVY_ATOM>  (1310) 
1 0 0 0 1 1 1 1 0 0 0 1 0 0 1 0 0 0

>  <DIFUSE_FUNC_ATOM>  (1310) 
atom 6   atom 7   

>  <FINAL_SINGLE_POINT_ENERGY>  (1310) 
0

>  <NONCOV_INTER_ENERGY_QM>  (1310) 
0

>  <FF_Energy>  (1310) 
17.73

>  <QM_Energy>  (1310) 
2.32

>  <source>  (1310) 
ACET_PRPA_13

>  <Index>  (1310) 
33438

$$$$
ACET-pdb3fcp-E-GLU-11:PRPA-pdb3fcp-E-ARG-39
     RDKit          3D

 18 16  0  0  0  0  0  0  0  0999 V2000
   -0.0021    1.5147   -0.0301 C   0  0  0  0  0  0  0  0  0  0  0  0
    0.8049    1.8206    0.4309 H   0  0  0  0  0  0  0  0  0  0  0  0
   -0.8276    1.8175    0.4006 H   0  0  0  0  0  0  0  0  0  0  0  0
    0.0172    1.8942   -1.0517 H   0  0  0  0  0  0  0  0  0  0  0  0
    0.0000    0.0000    0.0000 C   0  0  0  0  0  0  0  0  0  0  0  0
   -1.0975   -0.5981   -0.0000 O   0  0  0  0  0  1  0  0  0  0  0  0
    1.0975   -0.5974   -0.0000 O   0  0  0  0  0  0  0  0  0  0  0  0
   -3.1516   -0.2229   -3.4305 C   0  0  0  0  0  0  0  0  0  0  0  0
   -2.8216   -0.6559   -4.2571 H   0  0  0  0  0  0  0  0  0  0  0  0
   -2.4047    0.1574   -2.9047 H   0  0  0  0  0  0  0  0  0  0  0  0
   -3.8260    0.5867   -3.7098 H   0  0  0  0  0  0  0  0  0  0  0  0
   -3.8300   -1.2975   -2.5740 C   0  0  0  0  0  0  0  0  0  0  0  0
   -4.4910   -0.8674   -1.9694 H   0  0  0  0  0  0  0  0  0  0  0  0
   -4.2798   -1.9558   -3.1683 H   0  0  0  0  0  0  0  0  0  0  0  0
   -2.8149   -2.0483   -1.7145 C   0  0  0  0  0  0  0  0  0  0  0  0
   -2.1750   -1.3777   -1.3414 H   0  0  0  0  0  0  0  0  0  0  0  0
   -3.3141   -2.4868   -0.9666 H   0  0  0  0  0  0  0  0  0  0  0  0
   -2.2636   -2.8032   -2.2751 H   0  0  0  0  0  0  0  0  0  0  0  0
  1  5  1  0
  5  6  1  0
  5  7  2  0
  1  2  1  0
  1  3  1  0
  1  4  1  0
  8 12  1  0
 12 15  1  0
  8  9  1  0
  8 10  1  0
  8 11  1  0
 12 13  1  0
 12 14  1  0
 15 16  1  0
 15 17  1  0
 15 18  1  0
M  CHG  1   6  -1
M  END
>  <PDB_ID>  (1311) 
pdb3fcp

>  <RESIDUE_NAME>  (1311) 
GLU   ARG

>  <FRAG_NAME>  (1311) 
ACET   PRPA

>  <FRAG_ATOM_NUM>  (1311) 
fragi: 7  fragj: 11

>  <atom.prop.CHAIN_ID>  (1311) 
A A A A A A A Z Z Z Z Z Z Z Z Z Z Z

>  <atom.prop.IS_HEAVY_ATOM>  (1311) 
1 0 0 0 1 1 1 1 0 0 0 1 0 0 1 0 0 0

>  <DIFUSE_FUNC_ATOM>  (1311) 
atom 6   atom 7   

>  <FINAL_SINGLE_POINT_ENERGY>  (1311) 
0

>  <NONCOV_INTER_ENERGY_QM>  (1311) 
0

>  <FF_Energy>  (1311) 
14.64

>  <QM_Energy>  (1311) 
-0.98

>  <source>  (1311) 
ACET_PRPA_13

>  <Index>  (1311) 
34227

$$$$
ACET-pdb3g8r-A-GLU-11:PRPA-pdb3g8r-A-LYS-44
     RDKit          3D

 18 16  0  0  0  0  0  0  0  0999 V2000
    0.0122    1.5103    0.0385 C   0  0  0  0  0  0  0  0  0  0  0  0
    0.9349    1.7922    0.2475 H   0  0  0  0  0  0  0  0  0  0  0  0
   -0.6215    1.7917    0.7421 H   0  0  0  0  0  0  0  0  0  0  0  0
   -0.2867    1.9663   -0.9054 H   0  0  0  0  0  0  0  0  0  0  0  0
    0.0000    0.0000    0.0000 C   0  0  0  0  0  0  0  0  0  0  0  0
   -1.1066   -0.5975   -0.0000 O   0  0  0  0  0  1  0  0  0  0  0  0
    1.1066   -0.5843    0.0000 O   0  0  0  0  0  0  0  0  0  0  0  0
   -2.4600   -2.6724   -3.1693 C   0  0  0  0  0  0  0  0  0  0  0  0
   -2.7945   -3.2449   -2.4079 H   0  0  0  0  0  0  0  0  0  0  0  0
   -2.7735   -3.0896   -4.0329 H   0  0  0  0  0  0  0  0  0  0  0  0
   -2.8760   -1.6691   -3.0788 H   0  0  0  0  0  0  0  0  0  0  0  0
   -0.9454   -2.6867   -3.1500 C   0  0  0  0  0  0  0  0  0  0  0  0
   -0.6269   -3.5937   -3.4045 H   0  0  0  0  0  0  0  0  0  0  0  0
   -0.6055   -2.0056   -3.7897 H   0  0  0  0  0  0  0  0  0  0  0  0
   -0.4126   -2.3576   -1.7657 C   0  0  0  0  0  0  0  0  0  0  0  0
   -0.3115   -1.3587   -1.6766 H   0  0  0  0  0  0  0  0  0  0  0  0
   -1.0722   -2.6709   -1.0711 H   0  0  0  0  0  0  0  0  0  0  0  0
    0.5516   -2.8176   -1.5493 H   0  0  0  0  0  0  0  0  0  0  0  0
  1  5  1  0
  5  6  1  0
  5  7  2  0
  1  2  1  0
  1  3  1  0
  1  4  1  0
  8 12  1  0
 12 15  1  0
  8  9  1  0
  8 10  1  0
  8 11  1  0
 12 13  1  0
 12 14  1  0
 15 16  1  0
 15 17  1  0
 15 18  1  0
M  CHG  1   6  -1
M  END
>  <PDB_ID>  (1312) 
pdb3g8r

>  <RESIDUE_NAME>  (1312) 
GLU   LYS

>  <FRAG_NAME>  (1312) 
ACET   PRPA

>  <FRAG_ATOM_NUM>  (1312) 
fragi: 7  fragj: 11

>  <atom.prop.CHAIN_ID>  (1312) 
A A A A A A A Z Z Z Z Z Z Z Z Z Z Z

>  <atom.prop.IS_HEAVY_ATOM>  (1312) 
1 0 0 0 1 1 1 1 0 0 0 1 0 0 1 0 0 0

>  <DIFUSE_FUNC_ATOM>  (1312) 
atom 6   atom 7   

>  <FINAL_SINGLE_POINT_ENERGY>  (1312) 
0

>  <NONCOV_INTER_ENERGY_QM>  (1312) 
0

>  <FF_Energy>  (1312) 
22.16

>  <QM_Energy>  (1312) 
6.86

>  <source>  (1312) 
ACET_PRPA_13

>  <Index>  (1312) 
34244

$$$$
ACET-pdb4c9b-A-ASP-22:PRPA-pdb4c9b-A-LYS-25
     RDKit          3D

 18 16  0  0  0  0  0  0  0  0999 V2000
   -0.0081    1.5150   -0.0046 C   0  0  0  0  0  0  0  0  0  0  0  0
    0.0507    1.8329   -0.9432 H   0  0  0  0  0  0  0  0  0  0  0  0
    0.7650    1.8423    0.5247 H   0  0  0  0  0  0  0  0  0  0  0  0
   -0.9160    1.9287    0.4344 H   0  0  0  0  0  0  0  0  0  0  0  0
    0.0000    0.0000    0.0000 C   0  0  0  0  0  0  0  0  0  0  0  0
   -1.0981   -0.5934   -0.0000 O   0  0  0  0  0  1  0  0  0  0  0  0
    1.0981   -0.5957   -0.0000 O   0  0  0  0  0  0  0  0  0  0  0  0
    2.7738   -0.3815    2.4716 C   0  0  0  0  0  0  0  0  0  0  0  0
    3.2044   -1.2840    2.4112 H   0  0  0  0  0  0  0  0  0  0  0  0
    1.8539   -0.4285    2.0786 H   0  0  0  0  0  0  0  0  0  0  0  0
    2.6964   -0.0971    3.5210 H   0  0  0  0  0  0  0  0  0  0  0  0
    3.5993    0.6127    1.6789 C   0  0  0  0  0  0  0  0  0  0  0  0
    3.1667    1.5141    1.7442 H   0  0  0  0  0  0  0  0  0  0  0  0
    4.5185    0.6574    2.0754 H   0  0  0  0  0  0  0  0  0  0  0  0
    3.7204    0.2387    0.2203 C   0  0  0  0  0  0  0  0  0  0  0  0
    4.1564   -0.6587    0.1462 H   0  0  0  0  0  0  0  0  0  0  0  0
    2.8062    0.1972   -0.1851 H   0  0  0  0  0  0  0  0  0  0  0  0
    4.3183    0.9734   -0.3189 H   0  0  0  0  0  0  0  0  0  0  0  0
  1  5  1  0
  5  6  1  0
  5  7  2  0
  1  2  1  0
  1  3  1  0
  1  4  1  0
  8 12  1  0
 12 15  1  0
  8  9  1  0
  8 10  1  0
  8 11  1  0
 12 13  1  0
 12 14  1  0
 15 16  1  0
 15 17  1  0
 15 18  1  0
M  CHG  1   6  -1
M  END
>  <PDB_ID>  (1313) 
pdb4c9b

>  <RESIDUE_NAME>  (1313) 
ASP   LYS

>  <FRAG_NAME>  (1313) 
ACET   PRPA

>  <FRAG_ATOM_NUM>  (1313) 
fragi: 7  fragj: 11

>  <atom.prop.CHAIN_ID>  (1313) 
A A A A A A A Z Z Z Z Z Z Z Z Z Z Z

>  <atom.prop.IS_HEAVY_ATOM>  (1313) 
1 0 0 0 1 1 1 1 0 0 0 1 0 0 1 0 0 0

>  <DIFUSE_FUNC_ATOM>  (1313) 
atom 6   atom 7   

>  <FINAL_SINGLE_POINT_ENERGY>  (1313) 
0

>  <NONCOV_INTER_ENERGY_QM>  (1313) 
0

>  <FF_Energy>  (1313) 
18.28

>  <QM_Energy>  (1313) 
-0.32

>  <source>  (1313) 
ACET_PRPA_13

>  <Index>  (1313) 
34388

$$$$
ACET-pdb3g8l-A-ASP-246:PRPA-pdb3g8l-A-LYS-250
     RDKit          3D

 18 16  0  0  0  0  0  0  0  0999 V2000
    0.0815    1.6251    0.0496 C   0  0  0  0  0  0  0  0  0  0  0  0
    0.9171    1.8764   -0.4266 H   0  0  0  0  0  0  0  0  0  0  0  0
    0.1422    1.8721    1.0106 H   0  0  0  0  0  0  0  0  0  0  0  0
   -0.7537    2.1626   -0.3995 H   0  0  0  0  0  0  0  0  0  0  0  0
    0.0000    0.0000    0.0000 C   0  0  0  0  0  0  0  0  0  0  0  0
   -1.1309   -0.6065   -0.0000 O   0  0  0  0  0  1  0  0  0  0  0  0
    1.1309   -0.6820   -0.0000 O   0  0  0  0  0  0  0  0  0  0  0  0
   -1.1679   -2.1543    4.6404 C   0  0  0  0  0  0  0  0  0  0  0  0
   -0.5682   -2.9267    4.9019 H   0  0  0  0  0  0  0  0  0  0  0  0
   -2.0806   -2.5364    4.4261 H   0  0  0  0  0  0  0  0  0  0  0  0
   -1.2863   -1.5312    5.5270 H   0  0  0  0  0  0  0  0  0  0  0  0
   -0.6245   -1.4848    3.4623 C   0  0  0  0  0  0  0  0  0  0  0  0
   -0.9626   -0.5276    3.4420 H   0  0  0  0  0  0  0  0  0  0  0  0
    0.3870   -1.4414    3.5436 H   0  0  0  0  0  0  0  0  0  0  0  0
   -0.9984   -2.1686    2.2746 C   0  0  0  0  0  0  0  0  0  0  0  0
   -1.8623   -2.6631    2.4038 H   0  0  0  0  0  0  0  0  0  0  0  0
   -1.1018   -1.5277    1.5103 H   0  0  0  0  0  0  0  0  0  0  0  0
   -0.2269   -2.8922    2.0115 H   0  0  0  0  0  0  0  0  0  0  0  0
  1  5  1  0
  5  6  1  0
  5  7  2  0
  1  2  1  0
  1  3  1  0
  1  4  1  0
  8 12  1  0
 12 15  1  0
  8  9  1  0
  8 10  1  0
  8 11  1  0
 12 13  1  0
 12 14  1  0
 15 16  1  0
 15 17  1  0
 15 18  1  0
M  CHG  1   6  -1
M  END
>  <PDB_ID>  (1314) 
pdb3g8l

>  <RESIDUE_NAME>  (1314) 
ASP   LYS

>  <FRAG_NAME>  (1314) 
ACET   PRPA

>  <FRAG_ATOM_NUM>  (1314) 
fragi: 7  fragj: 11

>  <atom.prop.CHAIN_ID>  (1314) 
A A A A A A A Z Z Z Z Z Z Z Z Z Z Z

>  <atom.prop.IS_HEAVY_ATOM>  (1314) 
1 0 0 0 1 1 1 1 0 0 0 1 0 0 1 0 0 0

>  <DIFUSE_FUNC_ATOM>  (1314) 
atom 6   atom 7   

>  <FINAL_SINGLE_POINT_ENERGY>  (1314) 
0

>  <NONCOV_INTER_ENERGY_QM>  (1314) 
0

>  <FF_Energy>  (1314) 
35.22

>  <QM_Energy>  (1314) 
1.11

>  <source>  (1314) 
ACET_PRPA_13

>  <Index>  (1314) 
34923

$$$$
ACET-pdb3g8l-A-ASP-246:PRPA-pdb3g8l-A-LYS-250
     RDKit          3D

 18 16  0  0  0  0  0  0  0  0999 V2000
    0.0815    1.6251    0.0496 C   0  0  0  0  0  0  0  0  0  0  0  0
    0.9171    1.8764   -0.4266 H   0  0  0  0  0  0  0  0  0  0  0  0
    0.1422    1.8721    1.0106 H   0  0  0  0  0  0  0  0  0  0  0  0
   -0.7537    2.1626   -0.3995 H   0  0  0  0  0  0  0  0  0  0  0  0
    0.0000    0.0000    0.0000 C   0  0  0  0  0  0  0  0  0  0  0  0
   -1.1309   -0.6065   -0.0000 O   0  0  0  0  0  1  0  0  0  0  0  0
    1.1309   -0.6820   -0.0000 O   0  0  0  0  0  0  0  0  0  0  0  0
   -0.6245   -1.4848    3.4623 C   0  0  0  0  0  0  0  0  0  0  0  0
   -0.9626   -0.5276    3.4420 H   0  0  0  0  0  0  0  0  0  0  0  0
    0.3870   -1.4414    3.5436 H   0  0  0  0  0  0  0  0  0  0  0  0
   -1.0301   -1.9846    4.3418 H   0  0  0  0  0  0  0  0  0  0  0  0
   -0.9984   -2.1686    2.2746 C   0  0  0  0  0  0  0  0  0  0  0  0
   -1.8623   -2.6631    2.4038 H   0  0  0  0  0  0  0  0  0  0  0  0
   -1.1018   -1.5277    1.5103 H   0  0  0  0  0  0  0  0  0  0  0  0
    0.0448   -3.1471    1.9189 C   0  0  0  0  0  0  0  0  0  0  0  0
   -0.2762   -3.7278    1.1945 H   0  0  0  0  0  0  0  0  0  0  0  0
    0.8742   -2.6776    1.6807 H   0  0  0  0  0  0  0  0  0  0  0  0
    0.1829   -3.7219    2.8347 H   0  0  0  0  0  0  0  0  0  0  0  0
  1  5  1  0
  5  6  1  0
  5  7  2  0
  1  2  1  0
  1  3  1  0
  1  4  1  0
  8 12  1  0
 12 15  1  0
  8  9  1  0
  8 10  1  0
  8 11  1  0
 12 13  1  0
 12 14  1  0
 15 16  1  0
 15 17  1  0
 15 18  1  0
M  CHG  1   6  -1
M  END
>  <PDB_ID>  (1315) 
pdb3g8l

>  <RESIDUE_NAME>  (1315) 
ASP   LYS

>  <FRAG_NAME>  (1315) 
ACET   PRPA

>  <FRAG_ATOM_NUM>  (1315) 
fragi: 7  fragj: 11

>  <atom.prop.CHAIN_ID>  (1315) 
A A A A A A A Z Z Z Z Z Z Z Z Z Z Z

>  <atom.prop.IS_HEAVY_ATOM>  (1315) 
1 0 0 0 1 1 1 1 0 0 0 1 0 0 1 0 0 0

>  <DIFUSE_FUNC_ATOM>  (1315) 
atom 6   atom 7   

>  <FINAL_SINGLE_POINT_ENERGY>  (1315) 
0

>  <NONCOV_INTER_ENERGY_QM>  (1315) 
0

>  <FF_Energy>  (1315) 
41.93

>  <QM_Energy>  (1315) 
-0.71

>  <source>  (1315) 
ACET_PRPA_13

>  <Index>  (1315) 
34930

$$$$
ACET-pdb4cgb-C-GLU-51:PRPA-pdb4cgb-C-ARG-48
     RDKit          3D

 18 16  0  0  0  0  0  0  0  0999 V2000
    0.1816    1.4899    0.0132 C   0  0  0  0  0  0  0  0  0  0  0  0
    0.6982    1.7412   -0.8044 H   0  0  0  0  0  0  0  0  0  0  0  0
    0.7095    1.7249    0.8276 H   0  0  0  0  0  0  0  0  0  0  0  0
   -0.7296    2.0880    0.0244 H   0  0  0  0  0  0  0  0  0  0  0  0
    0.0000    0.0000    0.0000 C   0  0  0  0  0  0  0  0  0  0  0  0
   -1.0891   -0.5528    0.0000 O   0  0  0  0  0  1  0  0  0  0  0  0
    1.0891   -0.6092   -0.0000 O   0  0  0  0  0  0  0  0  0  0  0  0
    3.4259   -0.8216   -0.3469 C   0  0  0  0  0  0  0  0  0  0  0  0
    2.9578   -1.1469    0.4755 H   0  0  0  0  0  0  0  0  0  0  0  0
    3.2348   -1.4464   -1.1053 H   0  0  0  0  0  0  0  0  0  0  0  0
    3.0164    0.1554   -0.6036 H   0  0  0  0  0  0  0  0  0  0  0  0
    4.9239   -0.8529   -0.0784 C   0  0  0  0  0  0  0  0  0  0  0  0
    5.4064   -0.5367   -0.8972 H   0  0  0  0  0  0  0  0  0  0  0  0
    5.1285   -0.2378    0.6845 H   0  0  0  0  0  0  0  0  0  0  0  0
    5.3949   -2.2225    0.2638 C   0  0  0  0  0  0  0  0  0  0  0  0
    4.9117   -2.5354    1.0808 H   0  0  0  0  0  0  0  0  0  0  0  0
    5.1882   -2.8340   -0.5009 H   0  0  0  0  0  0  0  0  0  0  0  0
    6.4674   -2.2490    0.4561 H   0  0  0  0  0  0  0  0  0  0  0  0
  1  5  1  0
  5  6  1  0
  5  7  2  0
  1  2  1  0
  1  3  1  0
  1  4  1  0
  8 12  1  0
 12 15  1  0
  8  9  1  0
  8 10  1  0
  8 11  1  0
 12 13  1  0
 12 14  1  0
 15 16  1  0
 15 17  1  0
 15 18  1  0
M  CHG  1   6  -1
M  END
>  <PDB_ID>  (1316) 
pdb4cgb

>  <RESIDUE_NAME>  (1316) 
GLU   ARG

>  <FRAG_NAME>  (1316) 
ACET   PRPA

>  <FRAG_ATOM_NUM>  (1316) 
fragi: 7  fragj: 11

>  <atom.prop.CHAIN_ID>  (1316) 
A A A A A A A Z Z Z Z Z Z Z Z Z Z Z

>  <atom.prop.IS_HEAVY_ATOM>  (1316) 
1 0 0 0 1 1 1 1 0 0 0 1 0 0 1 0 0 0

>  <DIFUSE_FUNC_ATOM>  (1316) 
atom 6   atom 7   

>  <FINAL_SINGLE_POINT_ENERGY>  (1316) 
0

>  <NONCOV_INTER_ENERGY_QM>  (1316) 
0

>  <FF_Energy>  (1316) 
28.3

>  <QM_Energy>  (1316) 
8.48

>  <source>  (1316) 
ACET_PRPA_13

>  <Index>  (1316) 
37144

$$$$
ACET-pdb3g3a-E-ASP-143:PRPA-pdb3g3a-E-ARG-155
     RDKit          3D

 18 16  0  0  0  0  0  0  0  0999 V2000
    0.0610    1.5322    0.0415 C   0  0  0  0  0  0  0  0  0  0  0  0
    0.6934    1.8406   -0.6601 H   0  0  0  0  0  0  0  0  0  0  0  0
    0.3780    1.8103    0.9406 H   0  0  0  0  0  0  0  0  0  0  0  0
   -0.9012    2.0113   -0.1390 H   0  0  0  0  0  0  0  0  0  0  0  0
    0.0000    0.0000    0.0000 C   0  0  0  0  0  0  0  0  0  0  0  0
   -1.0809   -0.5974    0.0000 O   0  0  0  0  0  1  0  0  0  0  0  0
    1.0809   -0.6324    0.0000 O   0  0  0  0  0  0  0  0  0  0  0  0
   -5.9787   -0.9517    0.8637 C   0  0  0  0  0  0  0  0  0  0  0  0
   -6.3534   -1.6611    0.3048 H   0  0  0  0  0  0  0  0  0  0  0  0
   -6.0040   -0.0724    0.4364 H   0  0  0  0  0  0  0  0  0  0  0  0
   -6.5223   -0.9106    1.8076 H   0  0  0  0  0  0  0  0  0  0  0  0
   -4.4785   -1.3014    1.1086 C   0  0  0  0  0  0  0  0  0  0  0  0
   -4.1283   -0.6769    1.8282 H   0  0  0  0  0  0  0  0  0  0  0  0
   -4.4380   -2.2429    1.4864 H   0  0  0  0  0  0  0  0  0  0  0  0
   -3.5719   -1.2204   -0.0860 C   0  0  0  0  0  0  0  0  0  0  0  0
   -3.5011   -0.2457   -0.3580 H   0  0  0  0  0  0  0  0  0  0  0  0
   -2.6467   -1.5182    0.2051 H   0  0  0  0  0  0  0  0  0  0  0  0
   -3.8836   -1.8105   -0.9478 H   0  0  0  0  0  0  0  0  0  0  0  0
  1  5  1  0
  5  6  1  0
  5  7  2  0
  1  2  1  0
  1  3  1  0
  1  4  1  0
  8 12  1  0
 12 15  1  0
  8  9  1  0
  8 10  1  0
  8 11  1  0
 12 13  1  0
 12 14  1  0
 15 16  1  0
 15 17  1  0
 15 18  1  0
M  CHG  1   6  -1
M  END
>  <PDB_ID>  (1317) 
pdb3g3a

>  <RESIDUE_NAME>  (1317) 
ASP   ARG

>  <FRAG_NAME>  (1317) 
ACET   PRPA

>  <FRAG_ATOM_NUM>  (1317) 
fragi: 7  fragj: 11

>  <atom.prop.CHAIN_ID>  (1317) 
A A A A A A A Z Z Z Z Z Z Z Z Z Z Z

>  <atom.prop.IS_HEAVY_ATOM>  (1317) 
1 0 0 0 1 1 1 1 0 0 0 1 0 0 1 0 0 0

>  <DIFUSE_FUNC_ATOM>  (1317) 
atom 6   atom 7   

>  <FINAL_SINGLE_POINT_ENERGY>  (1317) 
0

>  <NONCOV_INTER_ENERGY_QM>  (1317) 
0

>  <FF_Energy>  (1317) 
27.26

>  <QM_Energy>  (1317) 
3.78

>  <source>  (1317) 
ACET_PRPA_13

>  <Index>  (1317) 
37523

$$$$
ACET-pdb3gea-A-GLU-15:PRPA-pdb3gea-A-LYS-55
     RDKit          3D

 18 16  0  0  0  0  0  0  0  0999 V2000
   -0.0159    1.4685    0.4812 C   0  0  0  0  0  0  0  0  0  0  0  0
    0.7176    1.4962    1.1776 H   0  0  0  0  0  0  0  0  0  0  0  0
   -0.9001    1.5462    0.9684 H   0  0  0  0  0  0  0  0  0  0  0  0
    0.1101    2.2128   -0.3051 H   0  0  0  0  0  0  0  0  0  0  0  0
    0.0000    0.0000    0.0000 C   0  0  0  0  0  0  0  0  0  0  0  0
   -1.0795   -0.6261   -0.0000 O   0  0  0  0  0  1  0  0  0  0  0  0
    1.0795   -0.5135   -0.0000 O   0  0  0  0  0  0  0  0  0  0  0  0
   -2.4019    0.0904    3.5934 C   0  0  0  0  0  0  0  0  0  0  0  0
   -2.3713   -0.0866    2.5978 H   0  0  0  0  0  0  0  0  0  0  0  0
   -2.8956    1.0481    3.7584 H   0  0  0  0  0  0  0  0  0  0  0  0
   -2.9172   -0.7393    4.0773 H   0  0  0  0  0  0  0  0  0  0  0  0
   -0.9920    0.1832    4.1888 C   0  0  0  0  0  0  0  0  0  0  0  0
   -1.0501    0.6256    5.0489 H   0  0  0  0  0  0  0  0  0  0  0  0
   -0.6111   -0.7082    4.2165 H   0  0  0  0  0  0  0  0  0  0  0  0
   -0.1693    1.0423    3.2474 C   0  0  0  0  0  0  0  0  0  0  0  0
   -0.2368    0.6878    2.3215 H   0  0  0  0  0  0  0  0  0  0  0  0
   -0.4852    1.9830    3.2840 H   0  0  0  0  0  0  0  0  0  0  0  0
    0.8824    1.0310    3.5334 H   0  0  0  0  0  0  0  0  0  0  0  0
  1  5  1  0
  5  6  1  0
  5  7  2  0
  1  2  1  0
  1  3  1  0
  1  4  1  0
  8 12  1  0
 12 15  1  0
  8  9  1  0
  8 10  1  0
  8 11  1  0
 12 13  1  0
 12 14  1  0
 15 16  1  0
 15 17  1  0
 15 18  1  0
M  CHG  1   6  -1
M  END
>  <PDB_ID>  (1318) 
pdb3gea

>  <RESIDUE_NAME>  (1318) 
GLU   LYS

>  <FRAG_NAME>  (1318) 
ACET   PRPA

>  <FRAG_ATOM_NUM>  (1318) 
fragi: 7  fragj: 11

>  <atom.prop.CHAIN_ID>  (1318) 
A A A A A A A Z Z Z Z Z Z Z Z Z Z Z

>  <atom.prop.IS_HEAVY_ATOM>  (1318) 
1 0 0 0 1 1 1 1 0 0 0 1 0 0 1 0 0 0

>  <DIFUSE_FUNC_ATOM>  (1318) 
atom 6   atom 7   

>  <FINAL_SINGLE_POINT_ENERGY>  (1318) 
0

>  <NONCOV_INTER_ENERGY_QM>  (1318) 
0

>  <FF_Energy>  (1318) 
39.7

>  <QM_Energy>  (1318) 
6.58

>  <source>  (1318) 
ACET_PRPA_13

>  <Index>  (1318) 
37980

$$$$
ACET-pdb3gea-A-GLU-15:PRPA-pdb3gea-A-LYS-55
     RDKit          3D

 18 16  0  0  0  0  0  0  0  0999 V2000
   -0.0159    1.4685    0.4812 C   0  0  0  0  0  0  0  0  0  0  0  0
    0.7176    1.4962    1.1776 H   0  0  0  0  0  0  0  0  0  0  0  0
   -0.9001    1.5462    0.9684 H   0  0  0  0  0  0  0  0  0  0  0  0
    0.1101    2.2128   -0.3051 H   0  0  0  0  0  0  0  0  0  0  0  0
    0.0000    0.0000    0.0000 C   0  0  0  0  0  0  0  0  0  0  0  0
   -1.0795   -0.6261   -0.0000 O   0  0  0  0  0  1  0  0  0  0  0  0
    1.0795   -0.5135   -0.0000 O   0  0  0  0  0  0  0  0  0  0  0  0
   -0.9920    0.1832    4.1888 C   0  0  0  0  0  0  0  0  0  0  0  0
   -1.0501    0.6256    5.0489 H   0  0  0  0  0  0  0  0  0  0  0  0
   -0.6111   -0.7082    4.2165 H   0  0  0  0  0  0  0  0  0  0  0  0
   -1.9943    0.1172    3.7655 H   0  0  0  0  0  0  0  0  0  0  0  0
   -0.1693    1.0423    3.2474 C   0  0  0  0  0  0  0  0  0  0  0  0
   -0.2368    0.6878    2.3215 H   0  0  0  0  0  0  0  0  0  0  0  0
   -0.4852    1.9830    3.2840 H   0  0  0  0  0  0  0  0  0  0  0  0
    1.3350    1.0262    3.6566 C   0  0  0  0  0  0  0  0  0  0  0  0
    1.8588    1.3728    2.8898 H   0  0  0  0  0  0  0  0  0  0  0  0
    1.4382    1.6107    4.4502 H   0  0  0  0  0  0  0  0  0  0  0  0
    1.6650    0.0162    3.8994 H   0  0  0  0  0  0  0  0  0  0  0  0
  1  5  1  0
  5  6  1  0
  5  7  2  0
  1  2  1  0
  1  3  1  0
  1  4  1  0
  8 12  1  0
 12 15  1  0
  8  9  1  0
  8 10  1  0
  8 11  1  0
 12 13  1  0
 12 14  1  0
 15 16  1  0
 15 17  1  0
 15 18  1  0
M  CHG  1   6  -1
M  END
>  <PDB_ID>  (1319) 
pdb3gea

>  <RESIDUE_NAME>  (1319) 
GLU   LYS

>  <FRAG_NAME>  (1319) 
ACET   PRPA

>  <FRAG_ATOM_NUM>  (1319) 
fragi: 7  fragj: 11

>  <atom.prop.CHAIN_ID>  (1319) 
A A A A A A A Z Z Z Z Z Z Z Z Z Z Z

>  <atom.prop.IS_HEAVY_ATOM>  (1319) 
1 0 0 0 1 1 1 1 0 0 0 1 0 0 1 0 0 0

>  <DIFUSE_FUNC_ATOM>  (1319) 
atom 6   atom 7   

>  <FINAL_SINGLE_POINT_ENERGY>  (1319) 
0

>  <NONCOV_INTER_ENERGY_QM>  (1319) 
0

>  <FF_Energy>  (1319) 
44.03

>  <QM_Energy>  (1319) 
7.15

>  <source>  (1319) 
ACET_PRPA_13

>  <Index>  (1319) 
37987

$$$$
ACET-pdb3gea-A-GLU-15:PRPA-pdb3gea-A-LYS-55
     RDKit          3D

 18 16  0  0  0  0  0  0  0  0999 V2000
   -0.0159    1.4685    0.4812 C   0  0  0  0  0  0  0  0  0  0  0  0
    0.7176    1.4962    1.1776 H   0  0  0  0  0  0  0  0  0  0  0  0
   -0.9001    1.5462    0.9684 H   0  0  0  0  0  0  0  0  0  0  0  0
    0.1101    2.2128   -0.3051 H   0  0  0  0  0  0  0  0  0  0  0  0
    0.0000    0.0000    0.0000 C   0  0  0  0  0  0  0  0  0  0  0  0
   -1.0795   -0.6261   -0.0000 O   0  0  0  0  0  1  0  0  0  0  0  0
    1.0795   -0.5135   -0.0000 O   0  0  0  0  0  0  0  0  0  0  0  0
   -0.1693    1.0423    3.2474 C   0  0  0  0  0  0  0  0  0  0  0  0
   -0.2368    0.6878    2.3215 H   0  0  0  0  0  0  0  0  0  0  0  0
   -0.4852    1.9830    3.2840 H   0  0  0  0  0  0  0  0  0  0  0  0
   -0.7604    0.4249    3.9238 H   0  0  0  0  0  0  0  0  0  0  0  0
    1.3350    1.0262    3.6566 C   0  0  0  0  0  0  0  0  0  0  0  0
    1.8588    1.3728    2.8898 H   0  0  0  0  0  0  0  0  0  0  0  0
    1.4382    1.6107    4.4502 H   0  0  0  0  0  0  0  0  0  0  0  0
    1.7906   -0.3684    3.9918 C   0  0  0  0  0  0  0  0  0  0  0  0
    1.7859   -0.5158    4.9309 H   0  0  0  0  0  0  0  0  0  0  0  0
    1.3697   -1.0120    3.4328 H   0  0  0  0  0  0  0  0  0  0  0  0
    2.8336   -0.3062    3.6815 H   0  0  0  0  0  0  0  0  0  0  0  0
  1  5  1  0
  5  6  1  0
  5  7  2  0
  1  2  1  0
  1  3  1  0
  1  4  1  0
  8 12  1  0
 12 15  1  0
  8  9  1  0
  8 10  1  0
  8 11  1  0
 12 13  1  0
 12 14  1  0
 15 16  1  0
 15 17  1  0
 15 18  1  0
M  CHG  1   6  -1
M  END
>  <PDB_ID>  (1320) 
pdb3gea

>  <RESIDUE_NAME>  (1320) 
GLU   LYS

>  <FRAG_NAME>  (1320) 
ACET   PRPA

>  <FRAG_ATOM_NUM>  (1320) 
fragi: 7  fragj: 11

>  <atom.prop.CHAIN_ID>  (1320) 
A A A A A A A Z Z Z Z Z Z Z Z Z Z Z

>  <atom.prop.IS_HEAVY_ATOM>  (1320) 
1 0 0 0 1 1 1 1 0 0 0 1 0 0 1 0 0 0

>  <DIFUSE_FUNC_ATOM>  (1320) 
atom 6   atom 7   

>  <FINAL_SINGLE_POINT_ENERGY>  (1320) 
0

>  <NONCOV_INTER_ENERGY_QM>  (1320) 
0

>  <FF_Energy>  (1320) 
40.95

>  <QM_Energy>  (1320) 
6.79

>  <source>  (1320) 
ACET_PRPA_13

>  <Index>  (1320) 
37997

$$$$
ACET-pdb4ccn-A-GLU-273:PRPA-pdb4ccn-A-ARG-266
     RDKit          3D

 18 16  0  0  0  0  0  0  0  0999 V2000
    0.2253    1.5161    0.0154 C   0  0  0  0  0  0  0  0  0  0  0  0
    0.7343    1.7410   -0.8019 H   0  0  0  0  0  0  0  0  0  0  0  0
    0.7459    1.7228    0.8307 H   0  0  0  0  0  0  0  0  0  0  0  0
   -0.6892    2.1091    0.0277 H   0  0  0  0  0  0  0  0  0  0  0  0
    0.0000    0.0000    0.0000 C   0  0  0  0  0  0  0  0  0  0  0  0
   -1.0876   -0.5267    0.0000 O   0  0  0  0  0  1  0  0  0  0  0  0
    1.0876   -0.6161   -0.0000 O   0  0  0  0  0  0  0  0  0  0  0  0
    3.6791    0.8938    0.9738 C   0  0  0  0  0  0  0  0  0  0  0  0
    3.8970    0.8403    1.9567 H   0  0  0  0  0  0  0  0  0  0  0  0
    2.6807    0.9854    0.8776 H   0  0  0  0  0  0  0  0  0  0  0  0
    4.1331    1.8050    0.5842 H   0  0  0  0  0  0  0  0  0  0  0  0
    4.1010   -0.3897    0.3251 C   0  0  0  0  0  0  0  0  0  0  0  0
    3.8148   -0.4028   -0.6251 H   0  0  0  0  0  0  0  0  0  0  0  0
    5.0844   -0.5015    0.3975 H   0  0  0  0  0  0  0  0  0  0  0  0
    3.4441   -1.5626    1.0292 C   0  0  0  0  0  0  0  0  0  0  0  0
    2.4532   -1.4194    1.0139 H   0  0  0  0  0  0  0  0  0  0  0  0
    3.6650   -2.3950    0.5169 H   0  0  0  0  0  0  0  0  0  0  0  0
    3.7720   -1.6814    2.0619 H   0  0  0  0  0  0  0  0  0  0  0  0
  1  5  1  0
  5  6  1  0
  5  7  2  0
  1  2  1  0
  1  3  1  0
  1  4  1  0
  8 12  1  0
 12 15  1  0
  8  9  1  0
  8 10  1  0
  8 11  1  0
 12 13  1  0
 12 14  1  0
 15 16  1  0
 15 17  1  0
 15 18  1  0
M  CHG  1   6  -1
M  END
>  <PDB_ID>  (1321) 
pdb4ccn

>  <RESIDUE_NAME>  (1321) 
GLU   ARG

>  <FRAG_NAME>  (1321) 
ACET   PRPA

>  <FRAG_ATOM_NUM>  (1321) 
fragi: 7  fragj: 11

>  <atom.prop.CHAIN_ID>  (1321) 
A A A A A A A Z Z Z Z Z Z Z Z Z Z Z

>  <atom.prop.IS_HEAVY_ATOM>  (1321) 
1 0 0 0 1 1 1 1 0 0 0 1 0 0 1 0 0 0

>  <DIFUSE_FUNC_ATOM>  (1321) 
atom 6   atom 7   

>  <FINAL_SINGLE_POINT_ENERGY>  (1321) 
0

>  <NONCOV_INTER_ENERGY_QM>  (1321) 
0

>  <FF_Energy>  (1321) 
19.25

>  <QM_Energy>  (1321) 
-1.78

>  <source>  (1321) 
ACET_PRPA_13

>  <Index>  (1321) 
38027

$$$$
ACET-pdb3gfa-A-GLU-117:PRPA-pdb3gfa-A-LYS-107
     RDKit          3D

 18 16  0  0  0  0  0  0  0  0999 V2000
    0.0207    1.5198   -0.0298 C   0  0  0  0  0  0  0  0  0  0  0  0
    0.9572    1.8009   -0.1071 H   0  0  0  0  0  0  0  0  0  0  0  0
   -0.4007    1.8361    0.7975 H   0  0  0  0  0  0  0  0  0  0  0  0
   -0.5322    1.9248   -0.8774 H   0  0  0  0  0  0  0  0  0  0  0  0
    0.0000    0.0000    0.0000 C   0  0  0  0  0  0  0  0  0  0  0  0
   -1.1020   -0.6029    0.0000 O   0  0  0  0  0  1  0  0  0  0  0  0
    1.1020   -0.5731    0.0000 O   0  0  0  0  0  0  0  0  0  0  0  0
    4.2521   -0.2919   -3.1211 C   0  0  0  0  0  0  0  0  0  0  0  0
    5.0168   -0.8483   -2.8127 H   0  0  0  0  0  0  0  0  0  0  0  0
    4.5421    0.6510   -3.2521 H   0  0  0  0  0  0  0  0  0  0  0  0
    3.8833   -0.6870   -4.0677 H   0  0  0  0  0  0  0  0  0  0  0  0
    3.1550   -0.3305   -2.0636 C   0  0  0  0  0  0  0  0  0  0  0  0
    2.5049    0.4040   -2.2487 H   0  0  0  0  0  0  0  0  0  0  0  0
    2.6916   -1.2130   -2.1117 H   0  0  0  0  0  0  0  0  0  0  0  0
    3.7000   -0.1486   -0.6502 C   0  0  0  0  0  0  0  0  0  0  0  0
    4.0488    0.7862   -0.5576 H   0  0  0  0  0  0  0  0  0  0  0  0
    2.9525   -0.2853    0.0036 H   0  0  0  0  0  0  0  0  0  0  0  0
    4.5012   -0.8558   -0.4355 H   0  0  0  0  0  0  0  0  0  0  0  0
  1  5  1  0
  5  6  1  0
  5  7  2  0
  1  2  1  0
  1  3  1  0
  1  4  1  0
  8 12  1  0
 12 15  1  0
  8  9  1  0
  8 10  1  0
  8 11  1  0
 12 13  1  0
 12 14  1  0
 15 16  1  0
 15 17  1  0
 15 18  1  0
M  CHG  1   6  -1
M  END
>  <PDB_ID>  (1322) 
pdb3gfa

>  <RESIDUE_NAME>  (1322) 
GLU   LYS

>  <FRAG_NAME>  (1322) 
ACET   PRPA

>  <FRAG_ATOM_NUM>  (1322) 
fragi: 7  fragj: 11

>  <atom.prop.CHAIN_ID>  (1322) 
A A A A A A A Z Z Z Z Z Z Z Z Z Z Z

>  <atom.prop.IS_HEAVY_ATOM>  (1322) 
1 0 0 0 1 1 1 1 0 0 0 1 0 0 1 0 0 0

>  <DIFUSE_FUNC_ATOM>  (1322) 
atom 6   atom 7   

>  <FINAL_SINGLE_POINT_ENERGY>  (1322) 
0

>  <NONCOV_INTER_ENERGY_QM>  (1322) 
0

>  <FF_Energy>  (1322) 
18.82

>  <QM_Energy>  (1322) 
-0.01

>  <source>  (1322) 
ACET_PRPA_13

>  <Index>  (1322) 
39498

$$$$
ACET-pdb3g3a-G-ASP-143:PRPA-pdb3g3a-G-ARG-155
     RDKit          3D

 18 16  0  0  0  0  0  0  0  0999 V2000
    0.0046    1.5155    0.0399 C   0  0  0  0  0  0  0  0  0  0  0  0
    0.7103    1.8497   -0.5744 H   0  0  0  0  0  0  0  0  0  0  0  0
    0.1839    1.8102    0.9703 H   0  0  0  0  0  0  0  0  0  0  0  0
   -0.9466    1.9458   -0.2736 H   0  0  0  0  0  0  0  0  0  0  0  0
    0.0000    0.0000    0.0000 C   0  0  0  0  0  0  0  0  0  0  0  0
   -1.0921   -0.5981   -0.0000 O   0  0  0  0  0  1  0  0  0  0  0  0
    1.0921   -0.6014    0.0000 O   0  0  0  0  0  0  0  0  0  0  0  0
   -5.7667   -1.4365    0.1908 C   0  0  0  0  0  0  0  0  0  0  0  0
   -6.2286   -1.9607   -0.5151 H   0  0  0  0  0  0  0  0  0  0  0  0
   -5.6472   -0.4935   -0.0956 H   0  0  0  0  0  0  0  0  0  0  0  0
   -6.3857   -1.4477    1.0880 H   0  0  0  0  0  0  0  0  0  0  0  0
   -4.3808   -2.0441    0.3973 C   0  0  0  0  0  0  0  0  0  0  0  0
   -4.0455   -1.7800    1.3057 H   0  0  0  0  0  0  0  0  0  0  0  0
   -4.4585   -3.0438    0.3568 H   0  0  0  0  0  0  0  0  0  0  0  0
   -3.3987   -1.5948   -0.6311 C   0  0  0  0  0  0  0  0  0  0  0  0
   -3.5929   -0.6422   -0.8585 H   0  0  0  0  0  0  0  0  0  0  0  0
   -2.4808   -1.6676   -0.2424 H   0  0  0  0  0  0  0  0  0  0  0  0
   -3.4664   -2.2076   -1.5299 H   0  0  0  0  0  0  0  0  0  0  0  0
  1  5  1  0
  5  6  1  0
  5  7  2  0
  1  2  1  0
  1  3  1  0
  1  4  1  0
  8 12  1  0
 12 15  1  0
  8  9  1  0
  8 10  1  0
  8 11  1  0
 12 13  1  0
 12 14  1  0
 15 16  1  0
 15 17  1  0
 15 18  1  0
M  CHG  1   6  -1
M  END
>  <PDB_ID>  (1323) 
pdb3g3a

>  <RESIDUE_NAME>  (1323) 
ASP   ARG

>  <FRAG_NAME>  (1323) 
ACET   PRPA

>  <FRAG_ATOM_NUM>  (1323) 
fragi: 7  fragj: 11

>  <atom.prop.CHAIN_ID>  (1323) 
A A A A A A A Z Z Z Z Z Z Z Z Z Z Z

>  <atom.prop.IS_HEAVY_ATOM>  (1323) 
1 0 0 0 1 1 1 1 0 0 0 1 0 0 1 0 0 0

>  <DIFUSE_FUNC_ATOM>  (1323) 
atom 6   atom 7   

>  <FINAL_SINGLE_POINT_ENERGY>  (1323) 
0

>  <NONCOV_INTER_ENERGY_QM>  (1323) 
0

>  <FF_Energy>  (1323) 
37.4

>  <QM_Energy>  (1323) 
3.39

>  <source>  (1323) 
ACET_PRPA_13

>  <Index>  (1323) 
39522

$$$$
ACET-pdb4clf-A-ASP-186:PRPA-pdb4clf-A-GLN-183
     RDKit          3D

 18 16  0  0  0  0  0  0  0  0999 V2000
    0.0573    1.4886    0.0065 C   0  0  0  0  0  0  0  0  0  0  0  0
    0.6851    1.8023   -0.7048 H   0  0  0  0  0  0  0  0  0  0  0  0
    0.3749    1.8079    0.8981 H   0  0  0  0  0  0  0  0  0  0  0  0
   -0.9056    1.9632   -0.1822 H   0  0  0  0  0  0  0  0  0  0  0  0
    0.0000    0.0000    0.0000 C   0  0  0  0  0  0  0  0  0  0  0  0
   -1.0792   -0.6183   -0.0000 O   0  0  0  0  0  1  0  0  0  0  0  0
    1.0792   -0.5488    0.0000 O   0  0  0  0  0  0  0  0  0  0  0  0
    2.2714   -0.6378   -3.4140 C   0  0  0  0  0  0  0  0  0  0  0  0
    2.9724   -0.6704   -4.1194 H   0  0  0  0  0  0  0  0  0  0  0  0
    2.7104   -0.1722   -2.5316 H   0  0  0  0  0  0  0  0  0  0  0  0
    1.4638    0.0101   -3.7547 H   0  0  0  0  0  0  0  0  0  0  0  0
    1.6135   -1.9860   -3.0844 C   0  0  0  0  0  0  0  0  0  0  0  0
    0.6151   -1.8638   -3.1274 H   0  0  0  0  0  0  0  0  0  0  0  0
    1.8838   -2.6468   -3.7963 H   0  0  0  0  0  0  0  0  0  0  0  0
    1.9739   -2.5439   -1.7473 C   0  0  0  0  0  0  0  0  0  0  0  0
    1.9676   -1.8104   -1.0756 H   0  0  0  0  0  0  0  0  0  0  0  0
    1.3136   -3.2460   -1.4991 H   0  0  0  0  0  0  0  0  0  0  0  0
    2.9696   -2.9858   -1.7860 H   0  0  0  0  0  0  0  0  0  0  0  0
  1  5  1  0
  5  6  1  0
  5  7  2  0
  1  2  1  0
  1  3  1  0
  1  4  1  0
  8 12  1  0
 12 15  1  0
  8  9  1  0
  8 10  1  0
  8 11  1  0
 12 13  1  0
 12 14  1  0
 15 16  1  0
 15 17  1  0
 15 18  1  0
M  CHG  1   6  -1
M  END
>  <PDB_ID>  (1324) 
pdb4clf

>  <RESIDUE_NAME>  (1324) 
ASP   GLN

>  <FRAG_NAME>  (1324) 
ACET   PRPA

>  <FRAG_ATOM_NUM>  (1324) 
fragi: 7  fragj: 11

>  <atom.prop.CHAIN_ID>  (1324) 
A A A A A A A Z Z Z Z Z Z Z Z Z Z Z

>  <atom.prop.IS_HEAVY_ATOM>  (1324) 
1 0 0 0 1 1 1 1 0 0 0 1 0 0 1 0 0 0

>  <DIFUSE_FUNC_ATOM>  (1324) 
atom 6   atom 7   

>  <FINAL_SINGLE_POINT_ENERGY>  (1324) 
0

>  <NONCOV_INTER_ENERGY_QM>  (1324) 
0

>  <FF_Energy>  (1324) 
16.26

>  <QM_Energy>  (1324) 
-1.47

>  <source>  (1324) 
ACET_PRPA_14

>  <Index>  (1324) 
20

$$$$
ACET-pdb3gem-A-ASP-218:PRPA-pdb3gem-A-ARG-214
     RDKit          3D

 18 16  0  0  0  0  0  0  0  0999 V2000
    0.0121    1.5435   -0.0298 C   0  0  0  0  0  0  0  0  0  0  0  0
    0.7093    1.8342   -0.6657 H   0  0  0  0  0  0  0  0  0  0  0  0
    0.1990    1.8688    0.8841 H   0  0  0  0  0  0  0  0  0  0  0  0
   -0.9430    1.9567   -0.3543 H   0  0  0  0  0  0  0  0  0  0  0  0
    0.0000    0.0000    0.0000 C   0  0  0  0  0  0  0  0  0  0  0  0
   -1.0920   -0.6323   -0.0000 O   0  0  0  0  0  1  0  0  0  0  0  0
    1.0920   -0.5981   -0.0000 O   0  0  0  0  0  0  0  0  0  0  0  0
    2.6033   -2.0871   -3.7239 C   0  0  0  0  0  0  0  0  0  0  0  0
    2.4751   -3.0371   -4.0469 H   0  0  0  0  0  0  0  0  0  0  0  0
    3.4712   -1.7466   -4.1153 H   0  0  0  0  0  0  0  0  0  0  0  0
    1.8004   -1.4910   -4.1575 H   0  0  0  0  0  0  0  0  0  0  0  0
    2.7132   -2.0923   -2.2464 C   0  0  0  0  0  0  0  0  0  0  0  0
    3.3727   -2.8047   -1.9559 H   0  0  0  0  0  0  0  0  0  0  0  0
    3.0707   -1.1999   -1.9286 H   0  0  0  0  0  0  0  0  0  0  0  0
    1.4221   -2.3456   -1.5589 C   0  0  0  0  0  0  0  0  0  0  0  0
    1.5618   -2.2513   -0.5720 H   0  0  0  0  0  0  0  0  0  0  0  0
    0.7577   -1.6631   -1.8664 H   0  0  0  0  0  0  0  0  0  0  0  0
    1.0424   -3.3438   -1.7773 H   0  0  0  0  0  0  0  0  0  0  0  0
  1  5  1  0
  5  6  1  0
  5  7  2  0
  1  2  1  0
  1  3  1  0
  1  4  1  0
  8 12  1  0
 12 15  1  0
  8  9  1  0
  8 10  1  0
  8 11  1  0
 12 13  1  0
 12 14  1  0
 15 16  1  0
 15 17  1  0
 15 18  1  0
M  CHG  1   6  -1
M  END
>  <PDB_ID>  (1325) 
pdb3gem

>  <RESIDUE_NAME>  (1325) 
ASP   ARG

>  <FRAG_NAME>  (1325) 
ACET   PRPA

>  <FRAG_ATOM_NUM>  (1325) 
fragi: 7  fragj: 11

>  <atom.prop.CHAIN_ID>  (1325) 
A A A A A A A Z Z Z Z Z Z Z Z Z Z Z

>  <atom.prop.IS_HEAVY_ATOM>  (1325) 
1 0 0 0 1 1 1 1 0 0 0 1 0 0 1 0 0 0

>  <DIFUSE_FUNC_ATOM>  (1325) 
atom 6   atom 7   

>  <FINAL_SINGLE_POINT_ENERGY>  (1325) 
0

>  <NONCOV_INTER_ENERGY_QM>  (1325) 
0

>  <FF_Energy>  (1325) 
48.21

>  <QM_Energy>  (1325) 
10.75

>  <source>  (1325) 
ACET_PRPA_14

>  <Index>  (1325) 
1284

$$$$
ACET-pdb3gi1-A-GLU-111:PRPA-pdb3gi1-A-LYS-114
     RDKit          3D

 18 16  0  0  0  0  0  0  0  0999 V2000
    0.0193    1.5357    0.0171 C   0  0  0  0  0  0  0  0  0  0  0  0
    0.1483    1.8305   -0.9116 H   0  0  0  0  0  0  0  0  0  0  0  0
    0.7616    1.8049    0.6019 H   0  0  0  0  0  0  0  0  0  0  0  0
   -0.9065    1.9666    0.3984 H   0  0  0  0  0  0  0  0  0  0  0  0
    0.0000    0.0000    0.0000 C   0  0  0  0  0  0  0  0  0  0  0  0
   -1.1118   -0.6191    0.0000 O   0  0  0  0  0  1  0  0  0  0  0  0
    1.1118   -0.5876    0.0000 O   0  0  0  0  0  0  0  0  0  0  0  0
   -1.7949    1.3871   -2.6482 C   0  0  0  0  0  0  0  0  0  0  0  0
   -1.3291    0.5186   -2.4716 H   0  0  0  0  0  0  0  0  0  0  0  0
   -1.3447    2.1162   -2.1330 H   0  0  0  0  0  0  0  0  0  0  0  0
   -1.7310    1.6126   -3.7127 H   0  0  0  0  0  0  0  0  0  0  0  0
   -3.2366    1.2744   -2.1886 C   0  0  0  0  0  0  0  0  0  0  0  0
   -3.7001    2.1422   -2.3690 H   0  0  0  0  0  0  0  0  0  0  0  0
   -3.6846    0.5450   -2.7067 H   0  0  0  0  0  0  0  0  0  0  0  0
   -3.3537    0.9613   -0.7126 C   0  0  0  0  0  0  0  0  0  0  0  0
   -2.7031    0.2390   -0.4786 H   0  0  0  0  0  0  0  0  0  0  0  0
   -3.1403    1.7836   -0.1855 H   0  0  0  0  0  0  0  0  0  0  0  0
   -4.3626    0.6290   -0.4685 H   0  0  0  0  0  0  0  0  0  0  0  0
  1  5  1  0
  5  6  1  0
  5  7  2  0
  1  2  1  0
  1  3  1  0
  1  4  1  0
  8 12  1  0
 12 15  1  0
  8  9  1  0
  8 10  1  0
  8 11  1  0
 12 13  1  0
 12 14  1  0
 15 16  1  0
 15 17  1  0
 15 18  1  0
M  CHG  1   6  -1
M  END
>  <PDB_ID>  (1326) 
pdb3gi1

>  <RESIDUE_NAME>  (1326) 
GLU   LYS

>  <FRAG_NAME>  (1326) 
ACET   PRPA

>  <FRAG_ATOM_NUM>  (1326) 
fragi: 7  fragj: 11

>  <atom.prop.CHAIN_ID>  (1326) 
A A A A A A A Z Z Z Z Z Z Z Z Z Z Z

>  <atom.prop.IS_HEAVY_ATOM>  (1326) 
1 0 0 0 1 1 1 1 0 0 0 1 0 0 1 0 0 0

>  <DIFUSE_FUNC_ATOM>  (1326) 
atom 6   atom 7   

>  <FINAL_SINGLE_POINT_ENERGY>  (1326) 
0

>  <NONCOV_INTER_ENERGY_QM>  (1326) 
0

>  <FF_Energy>  (1326) 
19.67

>  <QM_Energy>  (1326) 
0.43

>  <source>  (1326) 
ACET_PRPA_14

>  <Index>  (1326) 
2004

$$$$
ACET-pdb4cad-B-GLU-62:PRPA-pdb4cad-B-LYS-65
     RDKit          3D

 18 16  0  0  0  0  0  0  0  0999 V2000
   -0.0007    1.5206   -0.0001 C   0  0  0  0  0  0  0  0  0  0  0  0
    0.1257    1.8174   -0.9271 H   0  0  0  0  0  0  0  0  0  0  0  0
    0.7240    1.8169    0.5919 H   0  0  0  0  0  0  0  0  0  0  0  0
   -0.9368    1.9408    0.3678 H   0  0  0  0  0  0  0  0  0  0  0  0
    0.0000    0.0000    0.0000 C   0  0  0  0  0  0  0  0  0  0  0  0
   -1.0987   -0.5944    0.0000 O   0  0  0  0  0  1  0  0  0  0  0  0
    1.0987   -0.5989    0.0000 O   0  0  0  0  0  0  0  0  0  0  0  0
   -0.0844   -0.4584    4.4330 C   0  0  0  0  0  0  0  0  0  0  0  0
   -0.6527   -1.0779    4.9767 H   0  0  0  0  0  0  0  0  0  0  0  0
   -0.5755    0.4031    4.2926 H   0  0  0  0  0  0  0  0  0  0  0  0
    0.8381   -0.2556    4.9769 H   0  0  0  0  0  0  0  0  0  0  0  0
    0.1868   -1.0967    3.0827 C   0  0  0  0  0  0  0  0  0  0  0  0
    0.7570   -0.4762    2.5427 H   0  0  0  0  0  0  0  0  0  0  0  0
    0.6781   -1.9568    3.2273 H   0  0  0  0  0  0  0  0  0  0  0  0
   -1.0782   -1.3867    2.3101 C   0  0  0  0  0  0  0  0  0  0  0  0
   -1.7517   -1.8004    2.9246 H   0  0  0  0  0  0  0  0  0  0  0  0
   -1.4445   -0.5299    1.9463 H   0  0  0  0  0  0  0  0  0  0  0  0
   -0.8785   -2.0702    1.4848 H   0  0  0  0  0  0  0  0  0  0  0  0
  1  5  1  0
  5  6  1  0
  5  7  2  0
  1  2  1  0
  1  3  1  0
  1  4  1  0
  8 12  1  0
 12 15  1  0
  8  9  1  0
  8 10  1  0
  8 11  1  0
 12 13  1  0
 12 14  1  0
 15 16  1  0
 15 17  1  0
 15 18  1  0
M  CHG  1   6  -1
M  END
>  <PDB_ID>  (1327) 
pdb4cad

>  <RESIDUE_NAME>  (1327) 
GLU   LYS

>  <FRAG_NAME>  (1327) 
ACET   PRPA

>  <FRAG_ATOM_NUM>  (1327) 
fragi: 7  fragj: 11

>  <atom.prop.CHAIN_ID>  (1327) 
A A A A A A A Z Z Z Z Z Z Z Z Z Z Z

>  <atom.prop.IS_HEAVY_ATOM>  (1327) 
1 0 0 0 1 1 1 1 0 0 0 1 0 0 1 0 0 0

>  <DIFUSE_FUNC_ATOM>  (1327) 
atom 6   atom 7   

>  <FINAL_SINGLE_POINT_ENERGY>  (1327) 
0

>  <NONCOV_INTER_ENERGY_QM>  (1327) 
0

>  <FF_Energy>  (1327) 
28.68

>  <QM_Energy>  (1327) 
8.55

>  <source>  (1327) 
ACET_PRPA_14

>  <Index>  (1327) 
3107

$$$$
ACET-pdb3flp-G-GLU-198:PRPA-pdb3flp-H-VAL-2
     RDKit          3D

 18 16  0  0  0  0  0  0  0  0999 V2000
    0.0103    1.5175    0.0134 C   0  0  0  0  0  0  0  0  0  0  0  0
    0.9327    1.8120   -0.1697 H   0  0  0  0  0  0  0  0  0  0  0  0
   -0.3002    1.8103    0.9012 H   0  0  0  0  0  0  0  0  0  0  0  0
   -0.6418    1.9628   -0.7381 H   0  0  0  0  0  0  0  0  0  0  0  0
    0.0000    0.0000    0.0000 C   0  0  0  0  0  0  0  0  0  0  0  0
   -1.0982   -0.6022    0.0000 O   0  0  0  0  0  1  0  0  0  0  0  0
    1.0982   -0.5933   -0.0000 O   0  0  0  0  0  0  0  0  0  0  0  0
    5.7650   -1.1202    0.5573 C   0  0  0  0  0  0  0  0  0  0  0  0
    6.3136   -1.4694   -0.2153 H   0  0  0  0  0  0  0  0  0  0  0  0
    5.2446   -1.9629    1.0122 H   0  0  0  0  0  0  0  0  0  0  0  0
    6.4448   -0.6396    1.2609 H   0  0  0  0  0  0  0  0  0  0  0  0
    4.7843   -0.0782    0.0207 C   0  0  0  0  0  0  0  0  0  0  0  0
    4.3218    0.3356    0.7968 H   0  0  0  0  0  0  0  0  0  0  0  0
    5.3339    0.7164   -0.4840 H   0  0  0  0  0  0  0  0  0  0  0  0
    3.8111   -0.7400   -0.9364 C   0  0  0  0  0  0  0  0  0  0  0  0
    2.8740   -0.5595   -0.6351 H   0  0  0  0  0  0  0  0  0  0  0  0
    3.9442   -0.3684   -1.8561 H   0  0  0  0  0  0  0  0  0  0  0  0
    3.9746   -1.7267   -0.9470 H   0  0  0  0  0  0  0  0  0  0  0  0
  1  5  1  0
  5  6  1  0
  5  7  2  0
  1  2  1  0
  1  3  1  0
  1  4  1  0
  8 12  1  0
 12 15  1  0
  8  9  1  0
  8 10  1  0
  8 11  1  0
 12 13  1  0
 12 14  1  0
 15 16  1  0
 15 17  1  0
 15 18  1  0
M  CHG  1   6  -1
M  END
>  <PDB_ID>  (1328) 
pdb3flp

>  <RESIDUE_NAME>  (1328) 
GLU   VAL

>  <FRAG_NAME>  (1328) 
ACET   PRPA

>  <FRAG_ATOM_NUM>  (1328) 
fragi: 7  fragj: 11

>  <atom.prop.CHAIN_ID>  (1328) 
A A A A A A A Z Z Z Z Z Z Z Z Z Z Z

>  <atom.prop.IS_HEAVY_ATOM>  (1328) 
1 0 0 0 1 1 1 1 0 0 0 1 0 0 1 0 0 0

>  <DIFUSE_FUNC_ATOM>  (1328) 
atom 6   atom 7   

>  <FINAL_SINGLE_POINT_ENERGY>  (1328) 
0

>  <NONCOV_INTER_ENERGY_QM>  (1328) 
0

>  <FF_Energy>  (1328) 
14.57

>  <QM_Energy>  (1328) 
-1.42

>  <source>  (1328) 
ACET_PRPA_14

>  <Index>  (1328) 
3751

$$$$
ACET-pdb3flp-G-GLU-198:PRPA-pdb3flp-H-VAL-2
     RDKit          3D

 18 16  0  0  0  0  0  0  0  0999 V2000
    0.0103    1.5175    0.0134 C   0  0  0  0  0  0  0  0  0  0  0  0
    0.9327    1.8120   -0.1697 H   0  0  0  0  0  0  0  0  0  0  0  0
   -0.3002    1.8103    0.9012 H   0  0  0  0  0  0  0  0  0  0  0  0
   -0.6418    1.9628   -0.7381 H   0  0  0  0  0  0  0  0  0  0  0  0
    0.0000    0.0000    0.0000 C   0  0  0  0  0  0  0  0  0  0  0  0
   -1.0982   -0.6022    0.0000 O   0  0  0  0  0  1  0  0  0  0  0  0
    1.0982   -0.5933   -0.0000 O   0  0  0  0  0  0  0  0  0  0  0  0
    5.5493    1.0279   -0.6819 C   0  0  0  0  0  0  0  0  0  0  0  0
    5.0761    1.9005   -0.5500 H   0  0  0  0  0  0  0  0  0  0  0  0
    6.4731    1.0918   -0.3024 H   0  0  0  0  0  0  0  0  0  0  0  0
    5.6073    0.8278   -1.6608 H   0  0  0  0  0  0  0  0  0  0  0  0
    4.7843   -0.0782    0.0207 C   0  0  0  0  0  0  0  0  0  0  0  0
    4.3218    0.3356    0.7968 H   0  0  0  0  0  0  0  0  0  0  0  0
    5.4838   -0.8214    0.4033 H   0  0  0  0  0  0  0  0  0  0  0  0
    3.8111   -0.7400   -0.9364 C   0  0  0  0  0  0  0  0  0  0  0  0
    2.8740   -0.5595   -0.6351 H   0  0  0  0  0  0  0  0  0  0  0  0
    3.9442   -0.3684   -1.8561 H   0  0  0  0  0  0  0  0  0  0  0  0
    3.9746   -1.7267   -0.9470 H   0  0  0  0  0  0  0  0  0  0  0  0
  1  5  1  0
  5  6  1  0
  5  7  2  0
  1  2  1  0
  1  3  1  0
  1  4  1  0
  8 12  1  0
 12 15  1  0
  8  9  1  0
  8 10  1  0
  8 11  1  0
 12 13  1  0
 12 14  1  0
 15 16  1  0
 15 17  1  0
 15 18  1  0
M  CHG  1   6  -1
M  END
>  <PDB_ID>  (1329) 
pdb3flp

>  <RESIDUE_NAME>  (1329) 
GLU   VAL

>  <FRAG_NAME>  (1329) 
ACET   PRPA

>  <FRAG_ATOM_NUM>  (1329) 
fragi: 7  fragj: 11

>  <atom.prop.CHAIN_ID>  (1329) 
A A A A A A A Z Z Z Z Z Z Z Z Z Z Z

>  <atom.prop.IS_HEAVY_ATOM>  (1329) 
1 0 0 0 1 1 1 1 0 0 0 1 0 0 1 0 0 0

>  <DIFUSE_FUNC_ATOM>  (1329) 
atom 6   atom 7   

>  <FINAL_SINGLE_POINT_ENERGY>  (1329) 
0

>  <NONCOV_INTER_ENERGY_QM>  (1329) 
0

>  <FF_Energy>  (1329) 
14.41

>  <QM_Energy>  (1329) 
-1.14

>  <source>  (1329) 
ACET_PRPA_14

>  <Index>  (1329) 
3758

$$$$
ACET-pdb3g1q-A-GLU-409:PRPA-pdb3g1q-C-LYS-368
     RDKit          3D

 18 16  0  0  0  0  0  0  0  0999 V2000
    0.0456    1.4916   -0.0738 C   0  0  0  0  0  0  0  0  0  0  0  0
   -0.1576    1.7417   -1.0092 H   0  0  0  0  0  0  0  0  0  0  0  0
    0.9620    1.7664    0.1790 H   0  0  0  0  0  0  0  0  0  0  0  0
   -0.6782    1.9542    0.5972 H   0  0  0  0  0  0  0  0  0  0  0  0
    0.0000    0.0000    0.0000 C   0  0  0  0  0  0  0  0  0  0  0  0
   -1.0935   -0.5870   -0.0000 O   0  0  0  0  0  1  0  0  0  0  0  0
    1.0935   -0.5906   -0.0000 O   0  0  0  0  0  0  0  0  0  0  0  0
    2.4447   -3.6707    2.2922 C   0  0  0  0  0  0  0  0  0  0  0  0
    1.5452   -3.3695    2.5437 H   0  0  0  0  0  0  0  0  0  0  0  0
    3.1350   -3.0035    2.4965 H   0  0  0  0  0  0  0  0  0  0  0  0
    2.6705   -4.5763    2.8554 H   0  0  0  0  0  0  0  0  0  0  0  0
    2.4639   -3.9508    0.7884 C   0  0  0  0  0  0  0  0  0  0  0  0
    3.2022   -4.6131    0.5932 H   0  0  0  0  0  0  0  0  0  0  0  0
    1.5869   -4.3810    0.5280 H   0  0  0  0  0  0  0  0  0  0  0  0
    2.6763   -2.7139   -0.0756 C   0  0  0  0  0  0  0  0  0  0  0  0
    2.0792   -1.9897    0.2364 H   0  0  0  0  0  0  0  0  0  0  0  0
    3.6254   -2.4410   -0.0327 H   0  0  0  0  0  0  0  0  0  0  0  0
    2.4354   -2.9200   -1.1185 H   0  0  0  0  0  0  0  0  0  0  0  0
  1  5  1  0
  5  6  1  0
  5  7  2  0
  1  2  1  0
  1  3  1  0
  1  4  1  0
  8 12  1  0
 12 15  1  0
  8  9  1  0
  8 10  1  0
  8 11  1  0
 12 13  1  0
 12 14  1  0
 15 16  1  0
 15 17  1  0
 15 18  1  0
M  CHG  1   6  -1
M  END
>  <PDB_ID>  (1330) 
pdb3g1q

>  <RESIDUE_NAME>  (1330) 
GLU   LYS

>  <FRAG_NAME>  (1330) 
ACET   PRPA

>  <FRAG_ATOM_NUM>  (1330) 
fragi: 7  fragj: 11

>  <atom.prop.CHAIN_ID>  (1330) 
A A A A A A A Z Z Z Z Z Z Z Z Z Z Z

>  <atom.prop.IS_HEAVY_ATOM>  (1330) 
1 0 0 0 1 1 1 1 0 0 0 1 0 0 1 0 0 0

>  <DIFUSE_FUNC_ATOM>  (1330) 
atom 6   atom 7   

>  <FINAL_SINGLE_POINT_ENERGY>  (1330) 
0

>  <NONCOV_INTER_ENERGY_QM>  (1330) 
0

>  <FF_Energy>  (1330) 
47.5

>  <QM_Energy>  (1330) 
3.08

>  <source>  (1330) 
ACET_PRPA_14

>  <Index>  (1330) 
5886

$$$$
ACET-pdb4cvy-A-ASP-240:PRPA-pdb4cvy-A-ARG-47
     RDKit          3D

 18 16  0  0  0  0  0  0  0  0999 V2000
    0.0148    1.5169    0.0014 C   0  0  0  0  0  0  0  0  0  0  0  0
    0.5957    1.8351   -0.7363 H   0  0  0  0  0  0  0  0  0  0  0  0
    0.3490    1.8372    0.8774 H   0  0  0  0  0  0  0  0  0  0  0  0
   -0.9759    1.9454   -0.1508 H   0  0  0  0  0  0  0  0  0  0  0  0
    0.0000    0.0000    0.0000 C   0  0  0  0  0  0  0  0  0  0  0  0
   -1.0984   -0.6055   -0.0000 O   0  0  0  0  0  1  0  0  0  0  0  0
    1.0984   -0.5981    0.0000 O   0  0  0  0  0  0  0  0  0  0  0  0
   -4.4268   -2.2387    0.6886 C   0  0  0  0  0  0  0  0  0  0  0  0
   -5.2856   -2.7228    0.9047 H   0  0  0  0  0  0  0  0  0  0  0  0
   -4.1525   -2.4957   -0.2475 H   0  0  0  0  0  0  0  0  0  0  0  0
   -4.6287   -1.1677    0.7017 H   0  0  0  0  0  0  0  0  0  0  0  0
   -3.3643   -2.7350    1.6346 C   0  0  0  0  0  0  0  0  0  0  0  0
   -3.2653   -2.1132    2.3874 H   0  0  0  0  0  0  0  0  0  0  0  0
   -3.5725   -3.6485    1.9261 H   0  0  0  0  0  0  0  0  0  0  0  0
   -2.0511   -2.7685    0.8680 C   0  0  0  0  0  0  0  0  0  0  0  0
   -2.2699   -2.7974   -0.0987 H   0  0  0  0  0  0  0  0  0  0  0  0
   -1.5538   -1.9401    1.0935 H   0  0  0  0  0  0  0  0  0  0  0  0
   -1.4817   -3.6508    1.1602 H   0  0  0  0  0  0  0  0  0  0  0  0
  1  5  1  0
  5  6  1  0
  5  7  2  0
  1  2  1  0
  1  3  1  0
  1  4  1  0
  8 12  1  0
 12 15  1  0
  8  9  1  0
  8 10  1  0
  8 11  1  0
 12 13  1  0
 12 14  1  0
 15 16  1  0
 15 17  1  0
 15 18  1  0
M  CHG  1   6  -1
M  END
>  <PDB_ID>  (1331) 
pdb4cvy

>  <RESIDUE_NAME>  (1331) 
ASP   ARG

>  <FRAG_NAME>  (1331) 
ACET   PRPA

>  <FRAG_ATOM_NUM>  (1331) 
fragi: 7  fragj: 11

>  <atom.prop.CHAIN_ID>  (1331) 
A A A A A A A Z Z Z Z Z Z Z Z Z Z Z

>  <atom.prop.IS_HEAVY_ATOM>  (1331) 
1 0 0 0 1 1 1 1 0 0 0 1 0 0 1 0 0 0

>  <DIFUSE_FUNC_ATOM>  (1331) 
atom 6   atom 7   

>  <FINAL_SINGLE_POINT_ENERGY>  (1331) 
0

>  <NONCOV_INTER_ENERGY_QM>  (1331) 
0

>  <FF_Energy>  (1331) 
38.61

>  <QM_Energy>  (1331) 
6.71

>  <source>  (1331) 
ACET_PRPA_14

>  <Index>  (1331) 
6454

$$$$
ACET-pdb3gmw-C-GLU-28:PRPA-pdb3gmw-A-LYS-34
     RDKit          3D

 18 16  0  0  0  0  0  0  0  0999 V2000
    0.0011    1.5446    0.0299 C   0  0  0  0  0  0  0  0  0  0  0  0
    0.9355    1.8370    0.0121 H   0  0  0  0  0  0  0  0  0  0  0  0
   -0.4688    1.8218    0.8434 H   0  0  0  0  0  0  0  0  0  0  0  0
   -0.5074    1.9962   -0.8219 H   0  0  0  0  0  0  0  0  0  0  0  0
    0.0000    0.0000    0.0000 C   0  0  0  0  0  0  0  0  0  0  0  0
   -1.1081   -0.6017   -0.0000 O   0  0  0  0  0  1  0  0  0  0  0  0
    1.1081   -0.6086    0.0000 O   0  0  0  0  0  0  0  0  0  0  0  0
   -1.6963    3.6292    0.7030 C   0  0  0  0  0  0  0  0  0  0  0  0
   -1.9012    2.6577    0.6109 H   0  0  0  0  0  0  0  0  0  0  0  0
   -2.2824    4.0358    1.4004 H   0  0  0  0  0  0  0  0  0  0  0  0
   -0.6527    3.7506    0.9932 H   0  0  0  0  0  0  0  0  0  0  0  0
   -1.9702    4.3156   -0.6302 C   0  0  0  0  0  0  0  0  0  0  0  0
   -1.9323    5.3011   -0.5070 H   0  0  0  0  0  0  0  0  0  0  0  0
   -1.2962    4.0210   -1.2980 H   0  0  0  0  0  0  0  0  0  0  0  0
   -3.3797    3.9648   -1.1955 C   0  0  0  0  0  0  0  0  0  0  0  0
   -4.0556    4.5074   -0.6968 H   0  0  0  0  0  0  0  0  0  0  0  0
   -3.3958    4.2170   -2.1616 H   0  0  0  0  0  0  0  0  0  0  0  0
   -3.6072    2.9043   -1.0875 H   0  0  0  0  0  0  0  0  0  0  0  0
  1  5  1  0
  5  6  1  0
  5  7  2  0
  1  2  1  0
  1  3  1  0
  1  4  1  0
  8 12  1  0
 12 15  1  0
  8  9  1  0
  8 10  1  0
  8 11  1  0
 12 13  1  0
 12 14  1  0
 15 16  1  0
 15 17  1  0
 15 18  1  0
M  CHG  1   6  -1
M  END
>  <PDB_ID>  (1332) 
pdb3gmw

>  <RESIDUE_NAME>  (1332) 
GLU   LYS

>  <FRAG_NAME>  (1332) 
ACET   PRPA

>  <FRAG_ATOM_NUM>  (1332) 
fragi: 7  fragj: 11

>  <atom.prop.CHAIN_ID>  (1332) 
A A A A A A A Z Z Z Z Z Z Z Z Z Z Z

>  <atom.prop.IS_HEAVY_ATOM>  (1332) 
1 0 0 0 1 1 1 1 0 0 0 1 0 0 1 0 0 0

>  <DIFUSE_FUNC_ATOM>  (1332) 
atom 6   atom 7   

>  <FINAL_SINGLE_POINT_ENERGY>  (1332) 
0

>  <NONCOV_INTER_ENERGY_QM>  (1332) 
0

>  <FF_Energy>  (1332) 
25.66

>  <QM_Energy>  (1332) 
8.89

>  <source>  (1332) 
ACET_PRPA_14

>  <Index>  (1332) 
6887

$$$$
ACET-pdb4ckk-A-GLU-405:PRPA-pdb4ckk-A-PRO-401
     RDKit          3D

 18 16  0  0  0  0  0  0  0  0999 V2000
    0.1751    1.4838    0.0145 C   0  0  0  0  0  0  0  0  0  0  0  0
    0.6944    1.7380   -0.8029 H   0  0  0  0  0  0  0  0  0  0  0  0
    0.7067    1.7208    0.8297 H   0  0  0  0  0  0  0  0  0  0  0  0
   -0.7356    2.0825    0.0262 H   0  0  0  0  0  0  0  0  0  0  0  0
    0.0000    0.0000    0.0000 C   0  0  0  0  0  0  0  0  0  0  0  0
   -1.0894   -0.5593   -0.0000 O   0  0  0  0  0  1  0  0  0  0  0  0
    1.0894   -0.6081    0.0000 O   0  0  0  0  0  0  0  0  0  0  0  0
   -4.2709   -1.4793    1.9945 C   0  0  0  0  0  0  0  0  0  0  0  0
   -5.0210   -2.1652    2.0748 H   0  0  0  0  0  0  0  0  0  0  0  0
   -4.3309   -0.9635    1.0362 H   0  0  0  0  0  0  0  0  0  0  0  0
   -4.2716   -0.8157    2.8593 H   0  0  0  0  0  0  0  0  0  0  0  0
   -2.9593   -2.2575    1.9010 C   0  0  0  0  0  0  0  0  0  0  0  0
   -2.2233   -1.7702    2.3789 H   0  0  0  0  0  0  0  0  0  0  0  0
   -3.0582   -3.1706    2.3045 H   0  0  0  0  0  0  0  0  0  0  0  0
   -2.6770   -2.3478    0.4381 C   0  0  0  0  0  0  0  0  0  0  0  0
   -1.6780   -2.4217    0.2791 H   0  0  0  0  0  0  0  0  0  0  0  0
   -3.1051   -3.1813    0.0511 H   0  0  0  0  0  0  0  0  0  0  0  0
   -3.0822   -1.4478   -0.0243 H   0  0  0  0  0  0  0  0  0  0  0  0
  1  5  1  0
  5  6  1  0
  5  7  2  0
  1  2  1  0
  1  3  1  0
  1  4  1  0
  8 12  1  0
 12 15  1  0
  8  9  1  0
  8 10  1  0
  8 11  1  0
 12 13  1  0
 12 14  1  0
 15 16  1  0
 15 17  1  0
 15 18  1  0
M  CHG  1   6  -1
M  END
>  <PDB_ID>  (1333) 
pdb4ckk

>  <RESIDUE_NAME>  (1333) 
GLU   PRO

>  <FRAG_NAME>  (1333) 
ACET   PRPA

>  <FRAG_ATOM_NUM>  (1333) 
fragi: 7  fragj: 11

>  <atom.prop.CHAIN_ID>  (1333) 
A A A A A A A Z Z Z Z Z Z Z Z Z Z Z

>  <atom.prop.IS_HEAVY_ATOM>  (1333) 
1 0 0 0 1 1 1 1 0 0 0 1 0 0 1 0 0 0

>  <DIFUSE_FUNC_ATOM>  (1333) 
atom 6   atom 7   

>  <FINAL_SINGLE_POINT_ENERGY>  (1333) 
0

>  <NONCOV_INTER_ENERGY_QM>  (1333) 
0

>  <FF_Energy>  (1333) 
24.63

>  <QM_Energy>  (1333) 
6.01

>  <source>  (1333) 
ACET_PRPA_14

>  <Index>  (1333) 
8084

$$$$
ACET-pdb3g8q-D-ASP-151:PRPA-pdb3g8q-D-ARG-171
     RDKit          3D

 18 16  0  0  0  0  0  0  0  0999 V2000
    0.0024    1.4979    0.0105 C   0  0  0  0  0  0  0  0  0  0  0  0
    0.7075    1.8268   -0.6123 H   0  0  0  0  0  0  0  0  0  0  0  0
    0.1890    1.8166    0.9353 H   0  0  0  0  0  0  0  0  0  0  0  0
   -0.9497    1.9237   -0.3062 H   0  0  0  0  0  0  0  0  0  0  0  0
    0.0000    0.0000    0.0000 C   0  0  0  0  0  0  0  0  0  0  0  0
   -1.1152   -0.5801   -0.0000 O   0  0  0  0  0  1  0  0  0  0  0  0
    1.1152   -0.5882    0.0000 O   0  0  0  0  0  0  0  0  0  0  0  0
    2.4749    4.1743    1.3341 C   0  0  0  0  0  0  0  0  0  0  0  0
    3.3279    4.4002    1.8170 H   0  0  0  0  0  0  0  0  0  0  0  0
    1.7138    3.9064    2.0670 H   0  0  0  0  0  0  0  0  0  0  0  0
    2.1595    5.0440    0.7576 H   0  0  0  0  0  0  0  0  0  0  0  0
    2.7601    3.0039    0.4000 C   0  0  0  0  0  0  0  0  0  0  0  0
    3.3659    2.3701    0.8672 H   0  0  0  0  0  0  0  0  0  0  0  0
    1.8980    2.5617    0.1794 H   0  0  0  0  0  0  0  0  0  0  0  0
    3.4239    3.4184   -0.9020 C   0  0  0  0  0  0  0  0  0  0  0  0
    2.9926    4.2453   -1.2490 H   0  0  0  0  0  0  0  0  0  0  0  0
    4.3945    3.5749   -0.7470 H   0  0  0  0  0  0  0  0  0  0  0  0
    3.3258    2.6424   -1.6612 H   0  0  0  0  0  0  0  0  0  0  0  0
  1  5  1  0
  5  6  1  0
  5  7  2  0
  1  2  1  0
  1  3  1  0
  1  4  1  0
  8 12  1  0
 12 15  1  0
  8  9  1  0
  8 10  1  0
  8 11  1  0
 12 13  1  0
 12 14  1  0
 15 16  1  0
 15 17  1  0
 15 18  1  0
M  CHG  1   6  -1
M  END
>  <PDB_ID>  (1334) 
pdb3g8q

>  <RESIDUE_NAME>  (1334) 
ASP   ARG

>  <FRAG_NAME>  (1334) 
ACET   PRPA

>  <FRAG_ATOM_NUM>  (1334) 
fragi: 7  fragj: 11

>  <atom.prop.CHAIN_ID>  (1334) 
A A A A A A A Z Z Z Z Z Z Z Z Z Z Z

>  <atom.prop.IS_HEAVY_ATOM>  (1334) 
1 0 0 0 1 1 1 1 0 0 0 1 0 0 1 0 0 0

>  <DIFUSE_FUNC_ATOM>  (1334) 
atom 6   atom 7   

>  <FINAL_SINGLE_POINT_ENERGY>  (1334) 
0

>  <NONCOV_INTER_ENERGY_QM>  (1334) 
0

>  <FF_Energy>  (1334) 
21.05

>  <QM_Energy>  (1334) 
3.29

>  <source>  (1334) 
ACET_PRPA_14

>  <Index>  (1334) 
8124

$$$$
ACET-pdb4d81-A-GLU-176:PRPA-pdb4d81-A-ARG-220
     RDKit          3D

 18 16  0  0  0  0  0  0  0  0999 V2000
    0.0294    1.5072    0.0015 C   0  0  0  0  0  0  0  0  0  0  0  0
   -0.0881    1.8107   -0.9243 H   0  0  0  0  0  0  0  0  0  0  0  0
    0.8886    1.7899    0.3837 H   0  0  0  0  0  0  0  0  0  0  0  0
   -0.7726    1.9314    0.6056 H   0  0  0  0  0  0  0  0  0  0  0  0
    0.0000    0.0000    0.0000 C   0  0  0  0  0  0  0  0  0  0  0  0
   -1.1091   -0.6252    0.0000 O   0  0  0  0  0  1  0  0  0  0  0  0
    1.1091   -0.5552   -0.0000 O   0  0  0  0  0  0  0  0  0  0  0  0
    1.0322   -1.8934    4.2696 C   0  0  0  0  0  0  0  0  0  0  0  0
    2.0019   -1.6761    4.4411 H   0  0  0  0  0  0  0  0  0  0  0  0
    0.9175   -2.8926    4.3368 H   0  0  0  0  0  0  0  0  0  0  0  0
    0.4422   -1.4352    5.0634 H   0  0  0  0  0  0  0  0  0  0  0  0
    0.7080   -1.4827    2.8402 C   0  0  0  0  0  0  0  0  0  0  0  0
   -0.2495   -1.6232    2.6645 H   0  0  0  0  0  0  0  0  0  0  0  0
    0.9789   -0.5477    2.6947 H   0  0  0  0  0  0  0  0  0  0  0  0
    1.5063   -2.3656    1.8921 C   0  0  0  0  0  0  0  0  0  0  0  0
    1.3344   -2.0529    0.9608 H   0  0  0  0  0  0  0  0  0  0  0  0
    2.4739   -2.2592    2.1136 H   0  0  0  0  0  0  0  0  0  0  0  0
    1.2311   -3.4170    1.9757 H   0  0  0  0  0  0  0  0  0  0  0  0
  1  5  1  0
  5  6  1  0
  5  7  2  0
  1  2  1  0
  1  3  1  0
  1  4  1  0
  8 12  1  0
 12 15  1  0
  8  9  1  0
  8 10  1  0
  8 11  1  0
 12 13  1  0
 12 14  1  0
 15 16  1  0
 15 17  1  0
 15 18  1  0
M  CHG  1   6  -1
M  END
>  <PDB_ID>  (1335) 
pdb4d81

>  <RESIDUE_NAME>  (1335) 
GLU   ARG

>  <FRAG_NAME>  (1335) 
ACET   PRPA

>  <FRAG_ATOM_NUM>  (1335) 
fragi: 7  fragj: 11

>  <atom.prop.CHAIN_ID>  (1335) 
A A A A A A A Z Z Z Z Z Z Z Z Z Z Z

>  <atom.prop.IS_HEAVY_ATOM>  (1335) 
1 0 0 0 1 1 1 1 0 0 0 1 0 0 1 0 0 0

>  <DIFUSE_FUNC_ATOM>  (1335) 
atom 6   atom 7   

>  <FINAL_SINGLE_POINT_ENERGY>  (1335) 
0

>  <NONCOV_INTER_ENERGY_QM>  (1335) 
0

>  <FF_Energy>  (1335) 
32.25

>  <QM_Energy>  (1335) 
0.7

>  <source>  (1335) 
ACET_PRPA_14

>  <Index>  (1335) 
8259

$$$$
ACET-pdb3grd-B-GLU-7:PRPA-pdb3grd-B-LYS-3
     RDKit          3D

 18 16  0  0  0  0  0  0  0  0999 V2000
   -0.0030    1.5687    0.0057 C   0  0  0  0  0  0  0  0  0  0  0  0
    0.2771    1.8415   -0.8896 H   0  0  0  0  0  0  0  0  0  0  0  0
    0.6249    1.8354    0.7052 H   0  0  0  0  0  0  0  0  0  0  0  0
   -0.9915    1.9741    0.2217 H   0  0  0  0  0  0  0  0  0  0  0  0
    0.0000    0.0000    0.0000 C   0  0  0  0  0  0  0  0  0  0  0  0
   -1.1025   -0.6248   -0.0000 O   0  0  0  0  0  1  0  0  0  0  0  0
    1.1025   -0.5945    0.0000 O   0  0  0  0  0  0  0  0  0  0  0  0
   -1.6447   -0.2472   -3.8441 C   0  0  0  0  0  0  0  0  0  0  0  0
   -1.3485   -0.3967   -4.7899 H   0  0  0  0  0  0  0  0  0  0  0  0
   -1.9345    0.7081   -3.7409 H   0  0  0  0  0  0  0  0  0  0  0  0
   -2.5097   -0.8834   -3.6571 H   0  0  0  0  0  0  0  0  0  0  0  0
   -0.4822   -0.4979   -2.9318 C   0  0  0  0  0  0  0  0  0  0  0  0
   -0.7605   -0.3434   -1.9790 H   0  0  0  0  0  0  0  0  0  0  0  0
   -0.1726   -1.4478   -3.0285 H   0  0  0  0  0  0  0  0  0  0  0  0
    0.6995    0.4242   -3.2401 C   0  0  0  0  0  0  0  0  0  0  0  0
    0.9804    0.2679   -4.1889 H   0  0  0  0  0  0  0  0  0  0  0  0
    0.3943    1.3718   -3.1370 H   0  0  0  0  0  0  0  0  0  0  0  0
    1.5540    0.2541   -2.5850 H   0  0  0  0  0  0  0  0  0  0  0  0
  1  5  1  0
  5  6  1  0
  5  7  2  0
  1  2  1  0
  1  3  1  0
  1  4  1  0
  8 12  1  0
 12 15  1  0
  8  9  1  0
  8 10  1  0
  8 11  1  0
 12 13  1  0
 12 14  1  0
 15 16  1  0
 15 17  1  0
 15 18  1  0
M  CHG  1   6  -1
M  END
>  <PDB_ID>  (1336) 
pdb3grd

>  <RESIDUE_NAME>  (1336) 
GLU   LYS

>  <FRAG_NAME>  (1336) 
ACET   PRPA

>  <FRAG_ATOM_NUM>  (1336) 
fragi: 7  fragj: 11

>  <atom.prop.CHAIN_ID>  (1336) 
A A A A A A A Z Z Z Z Z Z Z Z Z Z Z

>  <atom.prop.IS_HEAVY_ATOM>  (1336) 
1 0 0 0 1 1 1 1 0 0 0 1 0 0 1 0 0 0

>  <DIFUSE_FUNC_ATOM>  (1336) 
atom 6   atom 7   

>  <FINAL_SINGLE_POINT_ENERGY>  (1336) 
0

>  <NONCOV_INTER_ENERGY_QM>  (1336) 
0

>  <FF_Energy>  (1336) 
16.0

>  <QM_Energy>  (1336) 
-0.59

>  <source>  (1336) 
ACET_PRPA_14

>  <Index>  (1336) 
8303

$$$$
ACET-pdb4d3s-A-GLU-45:PRPA-pdb4d3s-A-LYS-41
     RDKit          3D

 18 16  0  0  0  0  0  0  0  0999 V2000
    0.1823    1.4875    0.0146 C   0  0  0  0  0  0  0  0  0  0  0  0
    0.7005    1.7400   -0.8021 H   0  0  0  0  0  0  0  0  0  0  0  0
    0.7113    1.7214    0.8301 H   0  0  0  0  0  0  0  0  0  0  0  0
   -0.7283    2.0864    0.0269 H   0  0  0  0  0  0  0  0  0  0  0  0
    0.0000    0.0000    0.0000 C   0  0  0  0  0  0  0  0  0  0  0  0
   -1.0894   -0.5538   -0.0000 O   0  0  0  0  0  1  0  0  0  0  0  0
    1.0894   -0.6098   -0.0000 O   0  0  0  0  0  0  0  0  0  0  0  0
    3.0508    1.7244    3.1902 C   0  0  0  0  0  0  0  0  0  0  0  0
    3.3094    2.5936    2.7913 H   0  0  0  0  0  0  0  0  0  0  0  0
    3.8838    1.3501    3.7852 H   0  0  0  0  0  0  0  0  0  0  0  0
    2.1997    1.8858    3.8518 H   0  0  0  0  0  0  0  0  0  0  0  0
    2.6578    0.7295    2.0919 C   0  0  0  0  0  0  0  0  0  0  0  0
    2.3793   -0.1227    2.5300 H   0  0  0  0  0  0  0  0  0  0  0  0
    1.8884    1.1152    1.5849 H   0  0  0  0  0  0  0  0  0  0  0  0
    3.7744    0.4174    1.1044 C   0  0  0  0  0  0  0  0  0  0  0  0
    4.0591    1.2654    0.6556 H   0  0  0  0  0  0  0  0  0  0  0  0
    4.5491    0.0259    1.6004 H   0  0  0  0  0  0  0  0  0  0  0  0
    3.4479   -0.2916    0.3436 H   0  0  0  0  0  0  0  0  0  0  0  0
  1  5  1  0
  5  6  1  0
  5  7  2  0
  1  2  1  0
  1  3  1  0
  1  4  1  0
  8 12  1  0
 12 15  1  0
  8  9  1  0
  8 10  1  0
  8 11  1  0
 12 13  1  0
 12 14  1  0
 15 16  1  0
 15 17  1  0
 15 18  1  0
M  CHG  1   6  -1
M  END
>  <PDB_ID>  (1337) 
pdb4d3s

>  <RESIDUE_NAME>  (1337) 
GLU   LYS

>  <FRAG_NAME>  (1337) 
ACET   PRPA

>  <FRAG_ATOM_NUM>  (1337) 
fragi: 7  fragj: 11

>  <atom.prop.CHAIN_ID>  (1337) 
A A A A A A A Z Z Z Z Z Z Z Z Z Z Z

>  <atom.prop.IS_HEAVY_ATOM>  (1337) 
1 0 0 0 1 1 1 1 0 0 0 1 0 0 1 0 0 0

>  <DIFUSE_FUNC_ATOM>  (1337) 
atom 6   atom 7   

>  <FINAL_SINGLE_POINT_ENERGY>  (1337) 
0

>  <NONCOV_INTER_ENERGY_QM>  (1337) 
0

>  <FF_Energy>  (1337) 
18.67

>  <QM_Energy>  (1337) 
1.56

>  <source>  (1337) 
ACET_PRPA_14

>  <Index>  (1337) 
8440

$$$$
ACET-pdb4dc2-A-ASP-243:PRPA-pdb4dc2-A-LEU-239
     RDKit          3D

 18 16  0  0  0  0  0  0  0  0999 V2000
    0.0062    1.5172    0.0065 C   0  0  0  0  0  0  0  0  0  0  0  0
    0.6174    1.8358   -0.7090 H   0  0  0  0  0  0  0  0  0  0  0  0
    0.3201    1.8306    0.8960 H   0  0  0  0  0  0  0  0  0  0  0  0
   -0.9801    1.9440   -0.1752 H   0  0  0  0  0  0  0  0  0  0  0  0
    0.0000    0.0000    0.0000 C   0  0  0  0  0  0  0  0  0  0  0  0
   -1.0994   -0.5935   -0.0000 O   0  0  0  0  0  1  0  0  0  0  0  0
    1.0994   -0.5979    0.0000 O   0  0  0  0  0  0  0  0  0  0  0  0
    3.7914   -0.9280   -0.8188 C   0  0  0  0  0  0  0  0  0  0  0  0
    4.2698   -0.3962   -1.5018 H   0  0  0  0  0  0  0  0  0  0  0  0
    2.8776   -0.5850   -0.6683 H   0  0  0  0  0  0  0  0  0  0  0  0
    3.7114   -1.9518   -1.1842 H   0  0  0  0  0  0  0  0  0  0  0  0
    4.5592   -0.7913    0.4921 C   0  0  0  0  0  0  0  0  0  0  0  0
    5.4782   -1.1741    0.3731 H   0  0  0  0  0  0  0  0  0  0  0  0
    4.6396    0.2526    0.7954 H   0  0  0  0  0  0  0  0  0  0  0  0
    3.8881   -1.6230    1.5711 C   0  0  0  0  0  0  0  0  0  0  0  0
    3.8755   -2.5855    1.2949 H   0  0  0  0  0  0  0  0  0  0  0  0
    4.3945   -1.5308    2.4304 H   0  0  0  0  0  0  0  0  0  0  0  0
    2.9482   -1.3051    1.7050 H   0  0  0  0  0  0  0  0  0  0  0  0
  1  5  1  0
  5  6  1  0
  5  7  2  0
  1  2  1  0
  1  3  1  0
  1  4  1  0
  8 12  1  0
 12 15  1  0
  8  9  1  0
  8 10  1  0
  8 11  1  0
 12 13  1  0
 12 14  1  0
 15 16  1  0
 15 17  1  0
 15 18  1  0
M  CHG  1   6  -1
M  END
>  <PDB_ID>  (1338) 
pdb4dc2

>  <RESIDUE_NAME>  (1338) 
ASP   LEU

>  <FRAG_NAME>  (1338) 
ACET   PRPA

>  <FRAG_ATOM_NUM>  (1338) 
fragi: 7  fragj: 11

>  <atom.prop.CHAIN_ID>  (1338) 
A A A A A A A Z Z Z Z Z Z Z Z Z Z Z

>  <atom.prop.IS_HEAVY_ATOM>  (1338) 
1 0 0 0 1 1 1 1 0 0 0 1 0 0 1 0 0 0

>  <DIFUSE_FUNC_ATOM>  (1338) 
atom 6   atom 7   

>  <FINAL_SINGLE_POINT_ENERGY>  (1338) 
0

>  <NONCOV_INTER_ENERGY_QM>  (1338) 
0

>  <FF_Energy>  (1338) 
14.26

>  <QM_Energy>  (1338) 
-1.89

>  <source>  (1338) 
ACET_PRPA_14

>  <Index>  (1338) 
9169

$$$$
ACET-pdb3g1q-D-GLU-348:PRPA-pdb3g1q-D-ARG-351
     RDKit          3D

 18 16  0  0  0  0  0  0  0  0999 V2000
    0.0840    1.5503    0.0007 C   0  0  0  0  0  0  0  0  0  0  0  0
    0.6833    1.8194   -0.7393 H   0  0  0  0  0  0  0  0  0  0  0  0
    0.4508    1.8300    0.8762 H   0  0  0  0  0  0  0  0  0  0  0  0
   -0.8484    2.0976   -0.1381 H   0  0  0  0  0  0  0  0  0  0  0  0
    0.0000    0.0000    0.0000 C   0  0  0  0  0  0  0  0  0  0  0  0
   -1.0786   -0.6833   -0.0000 O   0  0  0  0  0  1  0  0  0  0  0  0
    1.0786   -0.6256   -0.0000 O   0  0  0  0  0  0  0  0  0  0  0  0
   -3.4286   -1.2532    2.3281 C   0  0  0  0  0  0  0  0  0  0  0  0
   -4.1758   -0.8130    1.8414 H   0  0  0  0  0  0  0  0  0  0  0  0
   -2.5675   -0.8031    2.1190 H   0  0  0  0  0  0  0  0  0  0  0  0
   -3.6139   -1.1121    3.3929 H   0  0  0  0  0  0  0  0  0  0  0  0
   -3.3395   -2.7123    1.8696 C   0  0  0  0  0  0  0  0  0  0  0  0
   -3.5262   -3.3017    2.6078 H   0  0  0  0  0  0  0  0  0  0  0  0
   -3.8745   -2.8420    1.0795 H   0  0  0  0  0  0  0  0  0  0  0  0
   -1.8542   -2.8899    1.4764 C   0  0  0  0  0  0  0  0  0  0  0  0
   -1.8424   -3.4494    0.6495 H   0  0  0  0  0  0  0  0  0  0  0  0
   -1.5026   -1.9775    1.2704 H   0  0  0  0  0  0  0  0  0  0  0  0
   -1.2775   -3.3597    2.2732 H   0  0  0  0  0  0  0  0  0  0  0  0
  1  5  1  0
  5  6  1  0
  5  7  2  0
  1  2  1  0
  1  3  1  0
  1  4  1  0
  8 12  1  0
 12 15  1  0
  8  9  1  0
  8 10  1  0
  8 11  1  0
 12 13  1  0
 12 14  1  0
 15 16  1  0
 15 17  1  0
 15 18  1  0
M  CHG  1   6  -1
M  END
>  <PDB_ID>  (1339) 
pdb3g1q

>  <RESIDUE_NAME>  (1339) 
GLU   ARG

>  <FRAG_NAME>  (1339) 
ACET   PRPA

>  <FRAG_ATOM_NUM>  (1339) 
fragi: 7  fragj: 11

>  <atom.prop.CHAIN_ID>  (1339) 
A A A A A A A Z Z Z Z Z Z Z Z Z Z Z

>  <atom.prop.IS_HEAVY_ATOM>  (1339) 
1 0 0 0 1 1 1 1 0 0 0 1 0 0 1 0 0 0

>  <DIFUSE_FUNC_ATOM>  (1339) 
atom 6   atom 7   

>  <FINAL_SINGLE_POINT_ENERGY>  (1339) 
0

>  <NONCOV_INTER_ENERGY_QM>  (1339) 
0

>  <FF_Energy>  (1339) 
18.42

>  <QM_Energy>  (1339) 
-0.95

>  <source>  (1339) 
ACET_PRPA_14

>  <Index>  (1339) 
9659

$$$$
ACET-pdb3gr9-A-GLU-329:PRPA-pdb3gr9-A-LEU-6
     RDKit          3D

 18 16  0  0  0  0  0  0  0  0999 V2000
   -0.0103    1.5330    0.0415 C   0  0  0  0  0  0  0  0  0  0  0  0
   -0.3726    1.8536   -0.8134 H   0  0  0  0  0  0  0  0  0  0  0  0
    0.9118    1.8342    0.1943 H   0  0  0  0  0  0  0  0  0  0  0  0
   -0.6291    1.9493    0.8363 H   0  0  0  0  0  0  0  0  0  0  0  0
    0.0000    0.0000    0.0000 C   0  0  0  0  0  0  0  0  0  0  0  0
   -1.1008   -0.6049    0.0000 O   0  0  0  0  0  1  0  0  0  0  0  0
    1.1008   -0.6004   -0.0000 O   0  0  0  0  0  0  0  0  0  0  0  0
   -4.2782    0.3927   -1.7201 C   0  0  0  0  0  0  0  0  0  0  0  0
   -4.7685    1.2670   -1.6247 H   0  0  0  0  0  0  0  0  0  0  0  0
   -4.1543   -0.0442   -0.7292 H   0  0  0  0  0  0  0  0  0  0  0  0
   -4.8626   -0.2608   -2.3679 H   0  0  0  0  0  0  0  0  0  0  0  0
   -2.9225    0.7245   -2.3467 C   0  0  0  0  0  0  0  0  0  0  0  0
   -2.2615    0.0657   -2.0109 H   0  0  0  0  0  0  0  0  0  0  0  0
   -3.0161    0.6609   -3.3315 H   0  0  0  0  0  0  0  0  0  0  0  0
   -2.3811    2.1206   -2.0263 C   0  0  0  0  0  0  0  0  0  0  0  0
   -1.8899    2.0874   -1.1585 H   0  0  0  0  0  0  0  0  0  0  0  0
   -1.7028    2.4517   -2.8126 H   0  0  0  0  0  0  0  0  0  0  0  0
   -3.1873    2.8315   -1.8452 H   0  0  0  0  0  0  0  0  0  0  0  0
  1  5  1  0
  5  6  1  0
  5  7  2  0
  1  2  1  0
  1  3  1  0
  1  4  1  0
  8 12  1  0
 12 15  1  0
  8  9  1  0
  8 10  1  0
  8 11  1  0
 12 13  1  0
 12 14  1  0
 15 16  1  0
 15 17  1  0
 15 18  1  0
M  CHG  1   6  -1
M  END
>  <PDB_ID>  (1340) 
pdb3gr9

>  <RESIDUE_NAME>  (1340) 
GLU   LEU

>  <FRAG_NAME>  (1340) 
ACET   PRPA

>  <FRAG_ATOM_NUM>  (1340) 
fragi: 7  fragj: 11

>  <atom.prop.CHAIN_ID>  (1340) 
A A A A A A A Z Z Z Z Z Z Z Z Z Z Z

>  <atom.prop.IS_HEAVY_ATOM>  (1340) 
1 0 0 0 1 1 1 1 0 0 0 1 0 0 1 0 0 0

>  <DIFUSE_FUNC_ATOM>  (1340) 
atom 6   atom 7   

>  <FINAL_SINGLE_POINT_ENERGY>  (1340) 
0

>  <NONCOV_INTER_ENERGY_QM>  (1340) 
0

>  <FF_Energy>  (1340) 
19.6

>  <QM_Energy>  (1340) 
0.48

>  <source>  (1340) 
ACET_PRPA_14

>  <Index>  (1340) 
11722

$$$$
ACET-pdb3gr9-A-GLU-329:PRPA-pdb3gr9-A-LEU-6
     RDKit          3D

 18 16  0  0  0  0  0  0  0  0999 V2000
   -0.0103    1.5330    0.0415 C   0  0  0  0  0  0  0  0  0  0  0  0
   -0.3726    1.8536   -0.8134 H   0  0  0  0  0  0  0  0  0  0  0  0
    0.9118    1.8342    0.1943 H   0  0  0  0  0  0  0  0  0  0  0  0
   -0.6291    1.9493    0.8363 H   0  0  0  0  0  0  0  0  0  0  0  0
    0.0000    0.0000    0.0000 C   0  0  0  0  0  0  0  0  0  0  0  0
   -1.1008   -0.6049    0.0000 O   0  0  0  0  0  1  0  0  0  0  0  0
    1.1008   -0.6004   -0.0000 O   0  0  0  0  0  0  0  0  0  0  0  0
   -2.9225    0.7245   -2.3467 C   0  0  0  0  0  0  0  0  0  0  0  0
   -2.2615    0.0657   -2.0109 H   0  0  0  0  0  0  0  0  0  0  0  0
   -3.0161    0.6609   -3.3315 H   0  0  0  0  0  0  0  0  0  0  0  0
   -3.8884    0.4881   -1.9002 H   0  0  0  0  0  0  0  0  0  0  0  0
   -2.3811    2.1206   -2.0263 C   0  0  0  0  0  0  0  0  0  0  0  0
   -1.8899    2.0874   -1.1585 H   0  0  0  0  0  0  0  0  0  0  0  0
   -1.7028    2.4517   -2.8126 H   0  0  0  0  0  0  0  0  0  0  0  0
   -3.5178    3.1229   -1.7709 C   0  0  0  0  0  0  0  0  0  0  0  0
   -4.0637    2.8081   -0.9971 H   0  0  0  0  0  0  0  0  0  0  0  0
   -3.1249    4.0177   -1.5659 H   0  0  0  0  0  0  0  0  0  0  0  0
   -4.0901    3.1832   -2.5860 H   0  0  0  0  0  0  0  0  0  0  0  0
  1  5  1  0
  5  6  1  0
  5  7  2  0
  1  2  1  0
  1  3  1  0
  1  4  1  0
  8 12  1  0
 12 15  1  0
  8  9  1  0
  8 10  1  0
  8 11  1  0
 12 13  1  0
 12 14  1  0
 15 16  1  0
 15 17  1  0
 15 18  1  0
M  CHG  1   6  -1
M  END
>  <PDB_ID>  (1341) 
pdb3gr9

>  <RESIDUE_NAME>  (1341) 
GLU   LEU

>  <FRAG_NAME>  (1341) 
ACET   PRPA

>  <FRAG_ATOM_NUM>  (1341) 
fragi: 7  fragj: 11

>  <atom.prop.CHAIN_ID>  (1341) 
A A A A A A A Z Z Z Z Z Z Z Z Z Z Z

>  <atom.prop.IS_HEAVY_ATOM>  (1341) 
1 0 0 0 1 1 1 1 0 0 0 1 0 0 1 0 0 0

>  <DIFUSE_FUNC_ATOM>  (1341) 
atom 6   atom 7   

>  <FINAL_SINGLE_POINT_ENERGY>  (1341) 
0

>  <NONCOV_INTER_ENERGY_QM>  (1341) 
0

>  <FF_Energy>  (1341) 
21.51

>  <QM_Energy>  (1341) 
1.62

>  <source>  (1341) 
ACET_PRPA_14

>  <Index>  (1341) 
11731

$$$$
ACET-pdb3gr9-A-GLU-329:PRPA-pdb3gr9-A-LEU-6
     RDKit          3D

 18 16  0  0  0  0  0  0  0  0999 V2000
   -0.0103    1.5330    0.0415 C   0  0  0  0  0  0  0  0  0  0  0  0
   -0.3726    1.8536   -0.8134 H   0  0  0  0  0  0  0  0  0  0  0  0
    0.9118    1.8342    0.1943 H   0  0  0  0  0  0  0  0  0  0  0  0
   -0.6291    1.9493    0.8363 H   0  0  0  0  0  0  0  0  0  0  0  0
    0.0000    0.0000    0.0000 C   0  0  0  0  0  0  0  0  0  0  0  0
   -1.1008   -0.6049    0.0000 O   0  0  0  0  0  1  0  0  0  0  0  0
    1.1008   -0.6004   -0.0000 O   0  0  0  0  0  0  0  0  0  0  0  0
   -1.4319    2.5839   -3.1266 C   0  0  0  0  0  0  0  0  0  0  0  0
   -1.9215    2.6149   -3.9975 H   0  0  0  0  0  0  0  0  0  0  0  0
   -1.0859    3.4951   -2.9058 H   0  0  0  0  0  0  0  0  0  0  0  0
   -0.6666    1.9447   -3.1975 H   0  0  0  0  0  0  0  0  0  0  0  0
   -2.3811    2.1206   -2.0263 C   0  0  0  0  0  0  0  0  0  0  0  0
   -1.8899    2.0874   -1.1585 H   0  0  0  0  0  0  0  0  0  0  0  0
   -2.7665    1.1268   -2.2543 H   0  0  0  0  0  0  0  0  0  0  0  0
   -3.5178    3.1229   -1.7709 C   0  0  0  0  0  0  0  0  0  0  0  0
   -4.0637    2.8081   -0.9971 H   0  0  0  0  0  0  0  0  0  0  0  0
   -3.1249    4.0177   -1.5659 H   0  0  0  0  0  0  0  0  0  0  0  0
   -4.0901    3.1832   -2.5860 H   0  0  0  0  0  0  0  0  0  0  0  0
  1  5  1  0
  5  6  1  0
  5  7  2  0
  1  2  1  0
  1  3  1  0
  1  4  1  0
  8 12  1  0
 12 15  1  0
  8  9  1  0
  8 10  1  0
  8 11  1  0
 12 13  1  0
 12 14  1  0
 15 16  1  0
 15 17  1  0
 15 18  1  0
M  CHG  1   6  -1
M  END
>  <PDB_ID>  (1342) 
pdb3gr9

>  <RESIDUE_NAME>  (1342) 
GLU   LEU

>  <FRAG_NAME>  (1342) 
ACET   PRPA

>  <FRAG_ATOM_NUM>  (1342) 
fragi: 7  fragj: 11

>  <atom.prop.CHAIN_ID>  (1342) 
A A A A A A A Z Z Z Z Z Z Z Z Z Z Z

>  <atom.prop.IS_HEAVY_ATOM>  (1342) 
1 0 0 0 1 1 1 1 0 0 0 1 0 0 1 0 0 0

>  <DIFUSE_FUNC_ATOM>  (1342) 
atom 6   atom 7   

>  <FINAL_SINGLE_POINT_ENERGY>  (1342) 
0

>  <NONCOV_INTER_ENERGY_QM>  (1342) 
0

>  <FF_Energy>  (1342) 
21.25

>  <QM_Energy>  (1342) 
2.71

>  <source>  (1342) 
ACET_PRPA_14

>  <Index>  (1342) 
11737

$$$$
ACET-pdb3gxv-A-ASP-2:PRPA-pdb3gxv-A-LYS-5
     RDKit          3D

 18 16  0  0  0  0  0  0  0  0999 V2000
   -0.0170    1.5204    0.0078 C   0  0  0  0  0  0  0  0  0  0  0  0
   -0.3782    1.8315    0.8792 H   0  0  0  0  0  0  0  0  0  0  0  0
   -0.5865    1.8374   -0.7401 H   0  0  0  0  0  0  0  0  0  0  0  0
    0.9746    1.9555   -0.1176 H   0  0  0  0  0  0  0  0  0  0  0  0
    0.0000    0.0000    0.0000 C   0  0  0  0  0  0  0  0  0  0  0  0
   -1.0955   -0.6016   -0.0000 O   0  0  0  0  0  1  0  0  0  0  0  0
    1.0955   -0.5970    0.0000 O   0  0  0  0  0  0  0  0  0  0  0  0
    3.3757   -2.1243   -1.7527 C   0  0  0  0  0  0  0  0  0  0  0  0
    3.6692   -1.1793   -1.5983 H   0  0  0  0  0  0  0  0  0  0  0  0
    3.9177   -2.5169   -2.4996 H   0  0  0  0  0  0  0  0  0  0  0  0
    3.5836   -2.6958   -0.8480 H   0  0  0  0  0  0  0  0  0  0  0  0
    1.9185   -2.1079   -2.1764 C   0  0  0  0  0  0  0  0  0  0  0  0
    1.6886   -2.9776   -2.5994 H   0  0  0  0  0  0  0  0  0  0  0  0
    1.3450   -1.9476   -1.3810 H   0  0  0  0  0  0  0  0  0  0  0  0
    1.6771   -0.9904   -3.1895 C   0  0  0  0  0  0  0  0  0  0  0  0
    2.1798   -0.1827   -2.8982 H   0  0  0  0  0  0  0  0  0  0  0  0
    1.9973   -1.2934   -4.0810 H   0  0  0  0  0  0  0  0  0  0  0  0
    0.6197   -0.7369   -3.2652 H   0  0  0  0  0  0  0  0  0  0  0  0
  1  5  1  0
  5  6  1  0
  5  7  2  0
  1  2  1  0
  1  3  1  0
  1  4  1  0
  8 12  1  0
 12 15  1  0
  8  9  1  0
  8 10  1  0
  8 11  1  0
 12 13  1  0
 12 14  1  0
 15 16  1  0
 15 17  1  0
 15 18  1  0
M  CHG  1   6  -1
M  END
>  <PDB_ID>  (1343) 
pdb3gxv

>  <RESIDUE_NAME>  (1343) 
ASP   LYS

>  <FRAG_NAME>  (1343) 
ACET   PRPA

>  <FRAG_ATOM_NUM>  (1343) 
fragi: 7  fragj: 11

>  <atom.prop.CHAIN_ID>  (1343) 
A A A A A A A Z Z Z Z Z Z Z Z Z Z Z

>  <atom.prop.IS_HEAVY_ATOM>  (1343) 
1 0 0 0 1 1 1 1 0 0 0 1 0 0 1 0 0 0

>  <DIFUSE_FUNC_ATOM>  (1343) 
atom 6   atom 7   

>  <FINAL_SINGLE_POINT_ENERGY>  (1343) 
0

>  <NONCOV_INTER_ENERGY_QM>  (1343) 
0

>  <FF_Energy>  (1343) 
13.3

>  <QM_Energy>  (1343) 
-2.29

>  <source>  (1343) 
ACET_PRPA_14

>  <Index>  (1343) 
12793

$$$$
ACET-pdb3gxv-A-ASP-2:PRPA-pdb3gxv-A-LYS-5
     RDKit          3D

 18 16  0  0  0  0  0  0  0  0999 V2000
   -0.0170    1.5204    0.0078 C   0  0  0  0  0  0  0  0  0  0  0  0
   -0.3782    1.8315    0.8792 H   0  0  0  0  0  0  0  0  0  0  0  0
   -0.5865    1.8374   -0.7401 H   0  0  0  0  0  0  0  0  0  0  0  0
    0.9746    1.9555   -0.1176 H   0  0  0  0  0  0  0  0  0  0  0  0
    0.0000    0.0000    0.0000 C   0  0  0  0  0  0  0  0  0  0  0  0
   -1.0955   -0.6016   -0.0000 O   0  0  0  0  0  1  0  0  0  0  0  0
    1.0955   -0.5970    0.0000 O   0  0  0  0  0  0  0  0  0  0  0  0
    1.9185   -2.1079   -2.1764 C   0  0  0  0  0  0  0  0  0  0  0  0
    1.6886   -2.9776   -2.5994 H   0  0  0  0  0  0  0  0  0  0  0  0
    1.3450   -1.9476   -1.3810 H   0  0  0  0  0  0  0  0  0  0  0  0
    2.9651   -2.1197   -1.8721 H   0  0  0  0  0  0  0  0  0  0  0  0
    1.6771   -0.9904   -3.1895 C   0  0  0  0  0  0  0  0  0  0  0  0
    2.1798   -0.1827   -2.8982 H   0  0  0  0  0  0  0  0  0  0  0  0
    1.9973   -1.2934   -4.0810 H   0  0  0  0  0  0  0  0  0  0  0  0
    0.2034   -0.6370   -3.2950 C   0  0  0  0  0  0  0  0  0  0  0  0
   -0.2859   -1.4011   -3.7134 H   0  0  0  0  0  0  0  0  0  0  0  0
   -0.1579   -0.4699   -2.3786 H   0  0  0  0  0  0  0  0  0  0  0  0
    0.0632    0.2557   -3.9045 H   0  0  0  0  0  0  0  0  0  0  0  0
  1  5  1  0
  5  6  1  0
  5  7  2  0
  1  2  1  0
  1  3  1  0
  1  4  1  0
  8 12  1  0
 12 15  1  0
  8  9  1  0
  8 10  1  0
  8 11  1  0
 12 13  1  0
 12 14  1  0
 15 16  1  0
 15 17  1  0
 15 18  1  0
M  CHG  1   6  -1
M  END
>  <PDB_ID>  (1344) 
pdb3gxv

>  <RESIDUE_NAME>  (1344) 
ASP   LYS

>  <FRAG_NAME>  (1344) 
ACET   PRPA

>  <FRAG_ATOM_NUM>  (1344) 
fragi: 7  fragj: 11

>  <atom.prop.CHAIN_ID>  (1344) 
A A A A A A A Z Z Z Z Z Z Z Z Z Z Z

>  <atom.prop.IS_HEAVY_ATOM>  (1344) 
1 0 0 0 1 1 1 1 0 0 0 1 0 0 1 0 0 0

>  <DIFUSE_FUNC_ATOM>  (1344) 
atom 6   atom 7   

>  <FINAL_SINGLE_POINT_ENERGY>  (1344) 
0

>  <NONCOV_INTER_ENERGY_QM>  (1344) 
0

>  <FF_Energy>  (1344) 
13.09

>  <QM_Energy>  (1344) 
-2.3

>  <source>  (1344) 
ACET_PRPA_14

>  <Index>  (1344) 
12808

$$$$
ACET-pdb4dhk-B-GLU-20:PRPA-pdb4dhk-B-LYS-17
     RDKit          3D

 18 16  0  0  0  0  0  0  0  0999 V2000
    0.1763    1.4839    0.0128 C   0  0  0  0  0  0  0  0  0  0  0  0
    0.6964    1.7383   -0.8042 H   0  0  0  0  0  0  0  0  0  0  0  0
    0.7074    1.7215    0.8281 H   0  0  0  0  0  0  0  0  0  0  0  0
   -0.7335    2.0841    0.0246 H   0  0  0  0  0  0  0  0  0  0  0  0
    0.0000    0.0000    0.0000 C   0  0  0  0  0  0  0  0  0  0  0  0
   -1.0895   -0.5573   -0.0000 O   0  0  0  0  0  1  0  0  0  0  0  0
    1.0895   -0.6096   -0.0000 O   0  0  0  0  0  0  0  0  0  0  0  0
    3.8965    0.1317    1.4903 C   0  0  0  0  0  0  0  0  0  0  0  0
    3.6607    0.6456    0.6527 H   0  0  0  0  0  0  0  0  0  0  0  0
    4.9541   -0.1298    1.4577 H   0  0  0  0  0  0  0  0  0  0  0  0
    3.6490    0.7513    2.3522 H   0  0  0  0  0  0  0  0  0  0  0  0
    3.0366   -1.1407    1.4665 C   0  0  0  0  0  0  0  0  0  0  0  0
    3.2713   -1.6874    2.2713 H   0  0  0  0  0  0  0  0  0  0  0  0
    2.0761   -0.8652    1.5214 H   0  0  0  0  0  0  0  0  0  0  0  0
    3.2163   -2.0079    0.2293 C   0  0  0  0  0  0  0  0  0  0  0  0
    2.9799   -1.4696   -0.5816 H   0  0  0  0  0  0  0  0  0  0  0  0
    4.1746   -2.2925    0.1678 H   0  0  0  0  0  0  0  0  0  0  0  0
    2.5840   -2.8951    0.2632 H   0  0  0  0  0  0  0  0  0  0  0  0
  1  5  1  0
  5  6  1  0
  5  7  2  0
  1  2  1  0
  1  3  1  0
  1  4  1  0
  8 12  1  0
 12 15  1  0
  8  9  1  0
  8 10  1  0
  8 11  1  0
 12 13  1  0
 12 14  1  0
 15 16  1  0
 15 17  1  0
 15 18  1  0
M  CHG  1   6  -1
M  END
>  <PDB_ID>  (1345) 
pdb4dhk

>  <RESIDUE_NAME>  (1345) 
GLU   LYS

>  <FRAG_NAME>  (1345) 
ACET   PRPA

>  <FRAG_ATOM_NUM>  (1345) 
fragi: 7  fragj: 11

>  <atom.prop.CHAIN_ID>  (1345) 
A A A A A A A Z Z Z Z Z Z Z Z Z Z Z

>  <atom.prop.IS_HEAVY_ATOM>  (1345) 
1 0 0 0 1 1 1 1 0 0 0 1 0 0 1 0 0 0

>  <DIFUSE_FUNC_ATOM>  (1345) 
atom 6   atom 7   

>  <FINAL_SINGLE_POINT_ENERGY>  (1345) 
0

>  <NONCOV_INTER_ENERGY_QM>  (1345) 
0

>  <FF_Energy>  (1345) 
43.91

>  <QM_Energy>  (1345) 
5.08

>  <source>  (1345) 
ACET_PRPA_14

>  <Index>  (1345) 
12888

$$$$
ACET-pdb4dhk-B-GLU-20:PRPA-pdb4dhk-B-LYS-17
     RDKit          3D

 18 16  0  0  0  0  0  0  0  0999 V2000
    0.1763    1.4839    0.0128 C   0  0  0  0  0  0  0  0  0  0  0  0
    0.6964    1.7383   -0.8042 H   0  0  0  0  0  0  0  0  0  0  0  0
    0.7074    1.7215    0.8281 H   0  0  0  0  0  0  0  0  0  0  0  0
   -0.7335    2.0841    0.0246 H   0  0  0  0  0  0  0  0  0  0  0  0
    0.0000    0.0000    0.0000 C   0  0  0  0  0  0  0  0  0  0  0  0
   -1.0895   -0.5573   -0.0000 O   0  0  0  0  0  1  0  0  0  0  0  0
    1.0895   -0.6096   -0.0000 O   0  0  0  0  0  0  0  0  0  0  0  0
    3.0366   -1.1407    1.4665 C   0  0  0  0  0  0  0  0  0  0  0  0
    3.2713   -1.6874    2.2713 H   0  0  0  0  0  0  0  0  0  0  0  0
    2.0761   -0.8652    1.5214 H   0  0  0  0  0  0  0  0  0  0  0  0
    3.6469   -0.2377    1.4834 H   0  0  0  0  0  0  0  0  0  0  0  0
    3.2163   -2.0079    0.2293 C   0  0  0  0  0  0  0  0  0  0  0  0
    2.9799   -1.4696   -0.5816 H   0  0  0  0  0  0  0  0  0  0  0  0
    4.1746   -2.2925    0.1678 H   0  0  0  0  0  0  0  0  0  0  0  0
    2.3372   -3.2414    0.2763 C   0  0  0  0  0  0  0  0  0  0  0  0
    2.5745   -3.7763    1.0894 H   0  0  0  0  0  0  0  0  0  0  0  0
    1.3794   -2.9537    0.3386 H   0  0  0  0  0  0  0  0  0  0  0  0
    2.4533   -3.8749   -0.6030 H   0  0  0  0  0  0  0  0  0  0  0  0
  1  5  1  0
  5  6  1  0
  5  7  2  0
  1  2  1  0
  1  3  1  0
  1  4  1  0
  8 12  1  0
 12 15  1  0
  8  9  1  0
  8 10  1  0
  8 11  1  0
 12 13  1  0
 12 14  1  0
 15 16  1  0
 15 17  1  0
 15 18  1  0
M  CHG  1   6  -1
M  END
>  <PDB_ID>  (1346) 
pdb4dhk

>  <RESIDUE_NAME>  (1346) 
GLU   LYS

>  <FRAG_NAME>  (1346) 
ACET   PRPA

>  <FRAG_ATOM_NUM>  (1346) 
fragi: 7  fragj: 11

>  <atom.prop.CHAIN_ID>  (1346) 
A A A A A A A Z Z Z Z Z Z Z Z Z Z Z

>  <atom.prop.IS_HEAVY_ATOM>  (1346) 
1 0 0 0 1 1 1 1 0 0 0 1 0 0 1 0 0 0

>  <DIFUSE_FUNC_ATOM>  (1346) 
atom 6   atom 7   

>  <FINAL_SINGLE_POINT_ENERGY>  (1346) 
0

>  <NONCOV_INTER_ENERGY_QM>  (1346) 
0

>  <FF_Energy>  (1346) 
43.03

>  <QM_Energy>  (1346) 
5.2

>  <source>  (1346) 
ACET_PRPA_14

>  <Index>  (1346) 
12891

$$$$
ACET-pdb3gkq-A-ASP-160:PRPA-pdb3gkq-A-ARG-304
     RDKit          3D

 18 16  0  0  0  0  0  0  0  0999 V2000
   -0.0019    1.5181    0.0164 C   0  0  0  0  0  0  0  0  0  0  0  0
    0.8682    1.8424   -0.3350 H   0  0  0  0  0  0  0  0  0  0  0  0
   -0.1404    1.8276    0.9483 H   0  0  0  0  0  0  0  0  0  0  0  0
   -0.7942    1.9406   -0.6016 H   0  0  0  0  0  0  0  0  0  0  0  0
    0.0000    0.0000    0.0000 C   0  0  0  0  0  0  0  0  0  0  0  0
   -1.0981   -0.5977    0.0000 O   0  0  0  0  0  1  0  0  0  0  0  0
    1.0981   -0.5973   -0.0000 O   0  0  0  0  0  0  0  0  0  0  0  0
    2.4957   -0.3471   -4.1022 C   0  0  0  0  0  0  0  0  0  0  0  0
    1.5712   -0.0835   -3.8536 H   0  0  0  0  0  0  0  0  0  0  0  0
    2.5174   -0.6397   -5.1519 H   0  0  0  0  0  0  0  0  0  0  0  0
    3.1461    0.5206   -3.9913 H   0  0  0  0  0  0  0  0  0  0  0  0
    2.9932   -1.5053   -3.2336 C   0  0  0  0  0  0  0  0  0  0  0  0
    2.3203   -2.2394   -3.2822 H   0  0  0  0  0  0  0  0  0  0  0  0
    3.8636   -1.8186   -3.6045 H   0  0  0  0  0  0  0  0  0  0  0  0
    3.2002   -1.1465   -1.7786 C   0  0  0  0  0  0  0  0  0  0  0  0
    3.9271   -0.4661   -1.6995 H   0  0  0  0  0  0  0  0  0  0  0  0
    2.3526   -0.7795   -1.3994 H   0  0  0  0  0  0  0  0  0  0  0  0
    3.4858   -2.0141   -1.1838 H   0  0  0  0  0  0  0  0  0  0  0  0
  1  5  1  0
  5  6  1  0
  5  7  2  0
  1  2  1  0
  1  3  1  0
  1  4  1  0
  8 12  1  0
 12 15  1  0
  8  9  1  0
  8 10  1  0
  8 11  1  0
 12 13  1  0
 12 14  1  0
 15 16  1  0
 15 17  1  0
 15 18  1  0
M  CHG  1   6  -1
M  END
>  <PDB_ID>  (1347) 
pdb3gkq

>  <RESIDUE_NAME>  (1347) 
ASP   ARG

>  <FRAG_NAME>  (1347) 
ACET   PRPA

>  <FRAG_ATOM_NUM>  (1347) 
fragi: 7  fragj: 11

>  <atom.prop.CHAIN_ID>  (1347) 
A A A A A A A Z Z Z Z Z Z Z Z Z Z Z

>  <atom.prop.IS_HEAVY_ATOM>  (1347) 
1 0 0 0 1 1 1 1 0 0 0 1 0 0 1 0 0 0

>  <DIFUSE_FUNC_ATOM>  (1347) 
atom 6   atom 7   

>  <FINAL_SINGLE_POINT_ENERGY>  (1347) 
0

>  <NONCOV_INTER_ENERGY_QM>  (1347) 
0

>  <FF_Energy>  (1347) 
15.19

>  <QM_Energy>  (1347) 
-0.16

>  <source>  (1347) 
ACET_PRPA_14

>  <Index>  (1347) 
14038

$$$$
ACET-pdb3fz3-F-GLU-515:PRPA-pdb3fz3-E-LEU-331
     RDKit          3D

 18 16  0  0  0  0  0  0  0  0999 V2000
   -0.0537    1.5513    0.0122 C   0  0  0  0  0  0  0  0  0  0  0  0
   -0.4425    1.8165    0.8854 H   0  0  0  0  0  0  0  0  0  0  0  0
   -0.6480    1.8216   -0.7349 H   0  0  0  0  0  0  0  0  0  0  0  0
    0.9000    2.0656   -0.1061 H   0  0  0  0  0  0  0  0  0  0  0  0
    0.0000    0.0000    0.0000 C   0  0  0  0  0  0  0  0  0  0  0  0
   -1.1309   -0.6011    0.0000 O   0  0  0  0  0  1  0  0  0  0  0  0
    1.1309   -0.5817    0.0000 O   0  0  0  0  0  0  0  0  0  0  0  0
   -1.5228    1.1566    4.5756 C   0  0  0  0  0  0  0  0  0  0  0  0
   -2.3935    1.3066    4.1564 H   0  0  0  0  0  0  0  0  0  0  0  0
   -1.5706    1.0501    5.5445 H   0  0  0  0  0  0  0  0  0  0  0  0
   -1.0838    0.2549    4.1488 H   0  0  0  0  0  0  0  0  0  0  0  0
   -0.6573    2.3944    4.2908 C   0  0  0  0  0  0  0  0  0  0  0  0
    0.2650    2.2314    4.6412 H   0  0  0  0  0  0  0  0  0  0  0  0
   -1.0259    3.2643    4.8345 H   0  0  0  0  0  0  0  0  0  0  0  0
   -0.5858    2.6773    2.7910 C   0  0  0  0  0  0  0  0  0  0  0  0
   -1.5072    2.8406    2.4405 H   0  0  0  0  0  0  0  0  0  0  0  0
   -0.0187    3.4844    2.6332 H   0  0  0  0  0  0  0  0  0  0  0  0
   -0.1849    1.8902    2.3246 H   0  0  0  0  0  0  0  0  0  0  0  0
  1  5  1  0
  5  6  1  0
  5  7  2  0
  1  2  1  0
  1  3  1  0
  1  4  1  0
  8 12  1  0
 12 15  1  0
  8  9  1  0
  8 10  1  0
  8 11  1  0
 12 13  1  0
 12 14  1  0
 15 16  1  0
 15 17  1  0
 15 18  1  0
M  CHG  1   6  -1
M  END
>  <PDB_ID>  (1348) 
pdb3fz3

>  <RESIDUE_NAME>  (1348) 
GLU   LEU

>  <FRAG_NAME>  (1348) 
ACET   PRPA

>  <FRAG_ATOM_NUM>  (1348) 
fragi: 7  fragj: 11

>  <atom.prop.CHAIN_ID>  (1348) 
A A A A A A A Z Z Z Z Z Z Z Z Z Z Z

>  <atom.prop.IS_HEAVY_ATOM>  (1348) 
1 0 0 0 1 1 1 1 0 0 0 1 0 0 1 0 0 0

>  <DIFUSE_FUNC_ATOM>  (1348) 
atom 6   atom 7   

>  <FINAL_SINGLE_POINT_ENERGY>  (1348) 
0

>  <NONCOV_INTER_ENERGY_QM>  (1348) 
0

>  <FF_Energy>  (1348) 
47.5

>  <QM_Energy>  (1348) 
7.12

>  <source>  (1348) 
ACET_PRPA_14

>  <Index>  (1348) 
14965

$$$$
ACET-pdb3fz3-F-GLU-515:PRPA-pdb3fz3-E-LEU-331
     RDKit          3D

 18 16  0  0  0  0  0  0  0  0999 V2000
   -0.0537    1.5513    0.0122 C   0  0  0  0  0  0  0  0  0  0  0  0
   -0.4425    1.8165    0.8854 H   0  0  0  0  0  0  0  0  0  0  0  0
   -0.6480    1.8216   -0.7349 H   0  0  0  0  0  0  0  0  0  0  0  0
    0.9000    2.0656   -0.1061 H   0  0  0  0  0  0  0  0  0  0  0  0
    0.0000    0.0000    0.0000 C   0  0  0  0  0  0  0  0  0  0  0  0
   -1.1309   -0.6011    0.0000 O   0  0  0  0  0  1  0  0  0  0  0  0
    1.1309   -0.5817    0.0000 O   0  0  0  0  0  0  0  0  0  0  0  0
   -0.5858    2.6773    2.7910 C   0  0  0  0  0  0  0  0  0  0  0  0
   -1.5072    2.8406    2.4405 H   0  0  0  0  0  0  0  0  0  0  0  0
   -0.0187    3.4844    2.6332 H   0  0  0  0  0  0  0  0  0  0  0  0
   -0.1849    1.8902    2.3246 H   0  0  0  0  0  0  0  0  0  0  0  0
   -0.6573    2.3944    4.2908 C   0  0  0  0  0  0  0  0  0  0  0  0
    0.2650    2.2314    4.6412 H   0  0  0  0  0  0  0  0  0  0  0  0
   -1.2711    1.5166    4.4928 H   0  0  0  0  0  0  0  0  0  0  0  0
   -1.1730    3.6112    5.0514 C   0  0  0  0  0  0  0  0  0  0  0  0
   -1.1507    3.4242    6.0343 H   0  0  0  0  0  0  0  0  0  0  0  0
   -0.5937    4.4011    4.8486 H   0  0  0  0  0  0  0  0  0  0  0  0
   -2.1125    3.8057    4.7700 H   0  0  0  0  0  0  0  0  0  0  0  0
  1  5  1  0
  5  6  1  0
  5  7  2  0
  1  2  1  0
  1  3  1  0
  1  4  1  0
  8 12  1  0
 12 15  1  0
  8  9  1  0
  8 10  1  0
  8 11  1  0
 12 13  1  0
 12 14  1  0
 15 16  1  0
 15 17  1  0
 15 18  1  0
M  CHG  1   6  -1
M  END
>  <PDB_ID>  (1349) 
pdb3fz3

>  <RESIDUE_NAME>  (1349) 
GLU   LEU

>  <FRAG_NAME>  (1349) 
ACET   PRPA

>  <FRAG_ATOM_NUM>  (1349) 
fragi: 7  fragj: 11

>  <atom.prop.CHAIN_ID>  (1349) 
A A A A A A A Z Z Z Z Z Z Z Z Z Z Z

>  <atom.prop.IS_HEAVY_ATOM>  (1349) 
1 0 0 0 1 1 1 1 0 0 0 1 0 0 1 0 0 0

>  <DIFUSE_FUNC_ATOM>  (1349) 
atom 6   atom 7   

>  <FINAL_SINGLE_POINT_ENERGY>  (1349) 
0

>  <NONCOV_INTER_ENERGY_QM>  (1349) 
0

>  <FF_Energy>  (1349) 
47.5

>  <QM_Energy>  (1349) 
7.52

>  <source>  (1349) 
ACET_PRPA_14

>  <Index>  (1349) 
14970

$$$$
ACET-pdb3gkq-B-GLU-310:PRPA-pdb3gkq-B-VAL-305
     RDKit          3D

 18 16  0  0  0  0  0  0  0  0999 V2000
   -0.0127    1.5214    0.0014 C   0  0  0  0  0  0  0  0  0  0  0  0
   -0.4659    1.8118   -0.8165 H   0  0  0  0  0  0  0  0  0  0  0  0
    0.9188    1.8217    0.0487 H   0  0  0  0  0  0  0  0  0  0  0  0
   -0.5528    1.9218    0.8593 H   0  0  0  0  0  0  0  0  0  0  0  0
    0.0000    0.0000    0.0000 C   0  0  0  0  0  0  0  0  0  0  0  0
   -1.0954   -0.6001    0.0000 O   0  0  0  0  0  1  0  0  0  0  0  0
    1.0954   -0.5982    0.0000 O   0  0  0  0  0  0  0  0  0  0  0  0
    4.3242    0.9135    0.7745 C   0  0  0  0  0  0  0  0  0  0  0  0
    3.5523    0.4846    1.2488 H   0  0  0  0  0  0  0  0  0  0  0  0
    5.2410    0.6432    1.2984 H   0  0  0  0  0  0  0  0  0  0  0  0
    4.3500    0.5248   -0.2435 H   0  0  0  0  0  0  0  0  0  0  0  0
    4.1421    2.4485    0.7454 C   0  0  0  0  0  0  0  0  0  0  0  0
    5.0104    2.8452    0.4650 H   0  0  0  0  0  0  0  0  0  0  0  0
    3.8214    2.8005    1.7260 H   0  0  0  0  0  0  0  0  0  0  0  0
    3.1124    2.8352   -0.2879 C   0  0  0  0  0  0  0  0  0  0  0  0
    3.4366    2.5839   -1.2024 H   0  0  0  0  0  0  0  0  0  0  0  0
    2.2495    2.3594   -0.1039 H   0  0  0  0  0  0  0  0  0  0  0  0
    2.9536    3.8244   -0.2567 H   0  0  0  0  0  0  0  0  0  0  0  0
  1  5  1  0
  5  6  1  0
  5  7  2  0
  1  2  1  0
  1  3  1  0
  1  4  1  0
  8 12  1  0
 12 15  1  0
  8  9  1  0
  8 10  1  0
  8 11  1  0
 12 13  1  0
 12 14  1  0
 15 16  1  0
 15 17  1  0
 15 18  1  0
M  CHG  1   6  -1
M  END
>  <PDB_ID>  (1350) 
pdb3gkq

>  <RESIDUE_NAME>  (1350) 
GLU   VAL

>  <FRAG_NAME>  (1350) 
ACET   PRPA

>  <FRAG_ATOM_NUM>  (1350) 
fragi: 7  fragj: 11

>  <atom.prop.CHAIN_ID>  (1350) 
A A A A A A A Z Z Z Z Z Z Z Z Z Z Z

>  <atom.prop.IS_HEAVY_ATOM>  (1350) 
1 0 0 0 1 1 1 1 0 0 0 1 0 0 1 0 0 0

>  <DIFUSE_FUNC_ATOM>  (1350) 
atom 6   atom 7   

>  <FINAL_SINGLE_POINT_ENERGY>  (1350) 
0

>  <NONCOV_INTER_ENERGY_QM>  (1350) 
0

>  <FF_Energy>  (1350) 
41.2

>  <QM_Energy>  (1350) 
3.03

>  <source>  (1350) 
ACET_PRPA_14

>  <Index>  (1350) 
17319

$$$$
ACET-pdb4dou-A-ASP-350:PRPA-pdb4dou-A-LYS-319
     RDKit          3D

 18 16  0  0  0  0  0  0  0  0999 V2000
    0.0132    1.5096    0.0183 C   0  0  0  0  0  0  0  0  0  0  0  0
    0.2787    1.8431   -0.8804 H   0  0  0  0  0  0  0  0  0  0  0  0
    0.6600    1.8213    0.7067 H   0  0  0  0  0  0  0  0  0  0  0  0
   -0.9582    1.9426    0.2573 H   0  0  0  0  0  0  0  0  0  0  0  0
    0.0000    0.0000    0.0000 C   0  0  0  0  0  0  0  0  0  0  0  0
   -1.1044   -0.5786    0.0000 O   0  0  0  0  0  1  0  0  0  0  0  0
    1.1044   -0.6015   -0.0000 O   0  0  0  0  0  0  0  0  0  0  0  0
    0.9840    4.3544   -3.7916 C   0  0  0  0  0  0  0  0  0  0  0  0
    0.2264    4.5043   -3.1392 H   0  0  0  0  0  0  0  0  0  0  0  0
    0.7121    3.5366   -4.4591 H   0  0  0  0  0  0  0  0  0  0  0  0
    1.1665    5.2816   -4.3347 H   0  0  0  0  0  0  0  0  0  0  0  0
    2.2077    3.9970   -2.9388 C   0  0  0  0  0  0  0  0  0  0  0  0
    2.9628    3.7844   -3.5534 H   0  0  0  0  0  0  0  0  0  0  0  0
    2.4383    4.7906   -2.3795 H   0  0  0  0  0  0  0  0  0  0  0  0
    1.9902    2.8052   -2.0161 C   0  0  0  0  0  0  0  0  0  0  0  0
    1.0535    2.8265   -1.6715 H   0  0  0  0  0  0  0  0  0  0  0  0
    2.1426    1.9627   -2.5280 H   0  0  0  0  0  0  0  0  0  0  0  0
    2.6772    2.8322   -1.1703 H   0  0  0  0  0  0  0  0  0  0  0  0
  1  5  1  0
  5  6  1  0
  5  7  2  0
  1  2  1  0
  1  3  1  0
  1  4  1  0
  8 12  1  0
 12 15  1  0
  8  9  1  0
  8 10  1  0
  8 11  1  0
 12 13  1  0
 12 14  1  0
 15 16  1  0
 15 17  1  0
 15 18  1  0
M  CHG  1   6  -1
M  END
>  <PDB_ID>  (1351) 
pdb4dou

>  <RESIDUE_NAME>  (1351) 
ASP   LYS

>  <FRAG_NAME>  (1351) 
ACET   PRPA

>  <FRAG_ATOM_NUM>  (1351) 
fragi: 7  fragj: 11

>  <atom.prop.CHAIN_ID>  (1351) 
A A A A A A A Z Z Z Z Z Z Z Z Z Z Z

>  <atom.prop.IS_HEAVY_ATOM>  (1351) 
1 0 0 0 1 1 1 1 0 0 0 1 0 0 1 0 0 0

>  <DIFUSE_FUNC_ATOM>  (1351) 
atom 6   atom 7   

>  <FINAL_SINGLE_POINT_ENERGY>  (1351) 
0

>  <NONCOV_INTER_ENERGY_QM>  (1351) 
0

>  <FF_Energy>  (1351) 
34.6

>  <QM_Energy>  (1351) 
5.96

>  <source>  (1351) 
ACET_PRPA_14

>  <Index>  (1351) 
18017

$$$$
ACET-pdb4dou-A-ASP-350:PRPA-pdb4dou-A-LYS-319
     RDKit          3D

 18 16  0  0  0  0  0  0  0  0999 V2000
    0.0132    1.5096    0.0183 C   0  0  0  0  0  0  0  0  0  0  0  0
    0.2787    1.8431   -0.8804 H   0  0  0  0  0  0  0  0  0  0  0  0
    0.6600    1.8213    0.7067 H   0  0  0  0  0  0  0  0  0  0  0  0
   -0.9582    1.9426    0.2573 H   0  0  0  0  0  0  0  0  0  0  0  0
    0.0000    0.0000    0.0000 C   0  0  0  0  0  0  0  0  0  0  0  0
   -1.1044   -0.5786    0.0000 O   0  0  0  0  0  1  0  0  0  0  0  0
    1.1044   -0.6015   -0.0000 O   0  0  0  0  0  0  0  0  0  0  0  0
    2.2077    3.9970   -2.9388 C   0  0  0  0  0  0  0  0  0  0  0  0
    2.9628    3.7844   -3.5534 H   0  0  0  0  0  0  0  0  0  0  0  0
    2.4383    4.7906   -2.3795 H   0  0  0  0  0  0  0  0  0  0  0  0
    1.3381    4.2510   -3.5449 H   0  0  0  0  0  0  0  0  0  0  0  0
    1.9902    2.8052   -2.0161 C   0  0  0  0  0  0  0  0  0  0  0  0
    1.0535    2.8265   -1.6715 H   0  0  0  0  0  0  0  0  0  0  0  0
    2.1426    1.9627   -2.5280 H   0  0  0  0  0  0  0  0  0  0  0  0
    2.9509    2.8430   -0.8331 C   0  0  0  0  0  0  0  0  0  0  0  0
    3.8813    2.7766   -1.1730 H   0  0  0  0  0  0  0  0  0  0  0  0
    2.8182    3.6922   -0.3370 H   0  0  0  0  0  0  0  0  0  0  0  0
    2.7691    2.0112   -0.1525 H   0  0  0  0  0  0  0  0  0  0  0  0
  1  5  1  0
  5  6  1  0
  5  7  2  0
  1  2  1  0
  1  3  1  0
  1  4  1  0
  8 12  1  0
 12 15  1  0
  8  9  1  0
  8 10  1  0
  8 11  1  0
 12 13  1  0
 12 14  1  0
 15 16  1  0
 15 17  1  0
 15 18  1  0
M  CHG  1   6  -1
M  END
>  <PDB_ID>  (1352) 
pdb4dou

>  <RESIDUE_NAME>  (1352) 
ASP   LYS

>  <FRAG_NAME>  (1352) 
ACET   PRPA

>  <FRAG_ATOM_NUM>  (1352) 
fragi: 7  fragj: 11

>  <atom.prop.CHAIN_ID>  (1352) 
A A A A A A A Z Z Z Z Z Z Z Z Z Z Z

>  <atom.prop.IS_HEAVY_ATOM>  (1352) 
1 0 0 0 1 1 1 1 0 0 0 1 0 0 1 0 0 0

>  <DIFUSE_FUNC_ATOM>  (1352) 
atom 6   atom 7   

>  <FINAL_SINGLE_POINT_ENERGY>  (1352) 
0

>  <NONCOV_INTER_ENERGY_QM>  (1352) 
0

>  <FF_Energy>  (1352) 
39.35

>  <QM_Energy>  (1352) 
4.48

>  <source>  (1352) 
ACET_PRPA_14

>  <Index>  (1352) 
18018

$$$$
ACET-pdb3gxa-A-GLU-231:PRPA-pdb3gxa-A-ARG-156
     RDKit          3D

 18 16  0  0  0  0  0  0  0  0999 V2000
   -0.0042    1.5191    0.0137 C   0  0  0  0  0  0  0  0  0  0  0  0
   -0.6113    1.8170   -0.6941 H   0  0  0  0  0  0  0  0  0  0  0  0
    0.9185    1.8151   -0.1246 H   0  0  0  0  0  0  0  0  0  0  0  0
   -0.3595    1.9103    0.9670 H   0  0  0  0  0  0  0  0  0  0  0  0
    0.0000    0.0000    0.0000 C   0  0  0  0  0  0  0  0  0  0  0  0
   -1.0934   -0.5999   -0.0000 O   0  0  0  0  0  1  0  0  0  0  0  0
    1.0934   -0.5892    0.0000 O   0  0  0  0  0  0  0  0  0  0  0  0
    3.9348   -2.4905    1.1674 C   0  0  0  0  0  0  0  0  0  0  0  0
    4.0856   -2.9652    2.0338 H   0  0  0  0  0  0  0  0  0  0  0  0
    3.3500   -1.6951    1.3189 H   0  0  0  0  0  0  0  0  0  0  0  0
    4.9000   -2.1349    0.8068 H   0  0  0  0  0  0  0  0  0  0  0  0
    3.2236   -3.4310    0.2277 C   0  0  0  0  0  0  0  0  0  0  0  0
    3.4784   -3.2312   -0.7082 H   0  0  0  0  0  0  0  0  0  0  0  0
    3.4366   -4.3692    0.4623 H   0  0  0  0  0  0  0  0  0  0  0  0
    1.7169   -3.2455    0.3565 C   0  0  0  0  0  0  0  0  0  0  0  0
    1.5447   -2.2813    0.5672 H   0  0  0  0  0  0  0  0  0  0  0  0
    1.3067   -3.4659   -0.5312 H   0  0  0  0  0  0  0  0  0  0  0  0
    1.2739   -3.8729    1.1300 H   0  0  0  0  0  0  0  0  0  0  0  0
  1  5  1  0
  5  6  1  0
  5  7  2  0
  1  2  1  0
  1  3  1  0
  1  4  1  0
  8 12  1  0
 12 15  1  0
  8  9  1  0
  8 10  1  0
  8 11  1  0
 12 13  1  0
 12 14  1  0
 15 16  1  0
 15 17  1  0
 15 18  1  0
M  CHG  1   6  -1
M  END
>  <PDB_ID>  (1353) 
pdb3gxa

>  <RESIDUE_NAME>  (1353) 
GLU   ARG

>  <FRAG_NAME>  (1353) 
ACET   PRPA

>  <FRAG_ATOM_NUM>  (1353) 
fragi: 7  fragj: 11

>  <atom.prop.CHAIN_ID>  (1353) 
A A A A A A A Z Z Z Z Z Z Z Z Z Z Z

>  <atom.prop.IS_HEAVY_ATOM>  (1353) 
1 0 0 0 1 1 1 1 0 0 0 1 0 0 1 0 0 0

>  <DIFUSE_FUNC_ATOM>  (1353) 
atom 6   atom 7   

>  <FINAL_SINGLE_POINT_ENERGY>  (1353) 
0

>  <NONCOV_INTER_ENERGY_QM>  (1353) 
0

>  <FF_Energy>  (1353) 
21.39

>  <QM_Energy>  (1353) 
0.23

>  <source>  (1353) 
ACET_PRPA_14

>  <Index>  (1353) 
18592

$$$$
ACET-pdb3h4q-A-GLU-19:PRPA-pdb3h4q-A-LYS-96
     RDKit          3D

 18 16  0  0  0  0  0  0  0  0999 V2000
   -0.0006    1.5445    0.0349 C   0  0  0  0  0  0  0  0  0  0  0  0
    0.9235    1.8272    0.1758 H   0  0  0  0  0  0  0  0  0  0  0  0
   -0.6016    1.8132    0.7569 H   0  0  0  0  0  0  0  0  0  0  0  0
   -0.3596    1.9762   -0.8994 H   0  0  0  0  0  0  0  0  0  0  0  0
    0.0000    0.0000    0.0000 C   0  0  0  0  0  0  0  0  0  0  0  0
   -1.1079   -0.6019    0.0000 O   0  0  0  0  0  1  0  0  0  0  0  0
    1.1079   -0.6044   -0.0000 O   0  0  0  0  0  0  0  0  0  0  0  0
    1.8083   -0.0493    2.8093 C   0  0  0  0  0  0  0  0  0  0  0  0
    2.6186    0.4570    3.1065 H   0  0  0  0  0  0  0  0  0  0  0  0
    1.7397   -0.0145    1.8128 H   0  0  0  0  0  0  0  0  0  0  0  0
    1.9042   -1.0888    3.1231 H   0  0  0  0  0  0  0  0  0  0  0  0
    0.5730    0.6006    3.4111 C   0  0  0  0  0  0  0  0  0  0  0  0
   -0.2340    0.0911    3.1144 H   0  0  0  0  0  0  0  0  0  0  0  0
    0.6441    0.5630    4.4076 H   0  0  0  0  0  0  0  0  0  0  0  0
    0.4158    2.0458    2.9906 C   0  0  0  0  0  0  0  0  0  0  0  0
    1.2187    2.5624    3.2870 H   0  0  0  0  0  0  0  0  0  0  0  0
    0.3402    2.0909    1.9947 H   0  0  0  0  0  0  0  0  0  0  0  0
   -0.4777    2.4804    3.4389 H   0  0  0  0  0  0  0  0  0  0  0  0
  1  5  1  0
  5  6  1  0
  5  7  2  0
  1  2  1  0
  1  3  1  0
  1  4  1  0
  8 12  1  0
 12 15  1  0
  8  9  1  0
  8 10  1  0
  8 11  1  0
 12 13  1  0
 12 14  1  0
 15 16  1  0
 15 17  1  0
 15 18  1  0
M  CHG  1   6  -1
M  END
>  <PDB_ID>  (1354) 
pdb3h4q

>  <RESIDUE_NAME>  (1354) 
GLU   LYS

>  <FRAG_NAME>  (1354) 
ACET   PRPA

>  <FRAG_ATOM_NUM>  (1354) 
fragi: 7  fragj: 11

>  <atom.prop.CHAIN_ID>  (1354) 
A A A A A A A Z Z Z Z Z Z Z Z Z Z Z

>  <atom.prop.IS_HEAVY_ATOM>  (1354) 
1 0 0 0 1 1 1 1 0 0 0 1 0 0 1 0 0 0

>  <DIFUSE_FUNC_ATOM>  (1354) 
atom 6   atom 7   

>  <FINAL_SINGLE_POINT_ENERGY>  (1354) 
0

>  <NONCOV_INTER_ENERGY_QM>  (1354) 
0

>  <FF_Energy>  (1354) 
38.2

>  <QM_Energy>  (1354) 
5.26

>  <source>  (1354) 
ACET_PRPA_14

>  <Index>  (1354) 
19115

$$$$
ACET-pdb4ckk-C-GLU-405:PRPA-pdb4ckk-C-PRO-401
     RDKit          3D

 18 16  0  0  0  0  0  0  0  0999 V2000
    0.1960    1.4897    0.0133 C   0  0  0  0  0  0  0  0  0  0  0  0
    0.7112    1.7345   -0.8040 H   0  0  0  0  0  0  0  0  0  0  0  0
    0.7226    1.7176    0.8284 H   0  0  0  0  0  0  0  0  0  0  0  0
   -0.7153    2.0875    0.0247 H   0  0  0  0  0  0  0  0  0  0  0  0
    0.0000    0.0000    0.0000 C   0  0  0  0  0  0  0  0  0  0  0  0
   -1.0885   -0.5495   -0.0000 O   0  0  0  0  0  1  0  0  0  0  0  0
    1.0885   -0.6154    0.0000 O   0  0  0  0  0  0  0  0  0  0  0  0
   -2.9701   -1.3547    3.3773 C   0  0  0  0  0  0  0  0  0  0  0  0
   -3.5927   -2.0366    3.8203 H   0  0  0  0  0  0  0  0  0  0  0  0
   -3.5078   -0.8020    2.6069 H   0  0  0  0  0  0  0  0  0  0  0  0
   -2.4879   -0.7331    4.1317 H   0  0  0  0  0  0  0  0  0  0  0  0
   -1.9194   -2.1458    2.5887 C   0  0  0  0  0  0  0  0  0  0  0  0
   -1.0313   -1.6756    2.6175 H   0  0  0  0  0  0  0  0  0  0  0  0
   -1.8095   -3.0659    2.9743 H   0  0  0  0  0  0  0  0  0  0  0  0
   -2.4518   -2.2031    1.2026 C   0  0  0  0  0  0  0  0  0  0  0  0
   -1.6918   -2.2729    0.5346 H   0  0  0  0  0  0  0  0  0  0  0  0
   -3.0346   -3.0243    1.0813 H   0  0  0  0  0  0  0  0  0  0  0  0
   -3.0272   -1.2912    1.0430 H   0  0  0  0  0  0  0  0  0  0  0  0
  1  5  1  0
  5  6  1  0
  5  7  2  0
  1  2  1  0
  1  3  1  0
  1  4  1  0
  8 12  1  0
 12 15  1  0
  8  9  1  0
  8 10  1  0
  8 11  1  0
 12 13  1  0
 12 14  1  0
 15 16  1  0
 15 17  1  0
 15 18  1  0
M  CHG  1   6  -1
M  END
>  <PDB_ID>  (1355) 
pdb4ckk

>  <RESIDUE_NAME>  (1355) 
GLU   PRO

>  <FRAG_NAME>  (1355) 
ACET   PRPA

>  <FRAG_ATOM_NUM>  (1355) 
fragi: 7  fragj: 11

>  <atom.prop.CHAIN_ID>  (1355) 
A A A A A A A Z Z Z Z Z Z Z Z Z Z Z

>  <atom.prop.IS_HEAVY_ATOM>  (1355) 
1 0 0 0 1 1 1 1 0 0 0 1 0 0 1 0 0 0

>  <DIFUSE_FUNC_ATOM>  (1355) 
atom 6   atom 7   

>  <FINAL_SINGLE_POINT_ENERGY>  (1355) 
0

>  <NONCOV_INTER_ENERGY_QM>  (1355) 
0

>  <FF_Energy>  (1355) 
26.23

>  <QM_Energy>  (1355) 
5.19

>  <source>  (1355) 
ACET_PRPA_14

>  <Index>  (1355) 
19573

$$$$
ACET-pdb3h38-A-ASP-116:PRPA-pdb3h38-A-ARG-104
     RDKit          3D

 18 16  0  0  0  0  0  0  0  0999 V2000
    0.0028    1.4938    0.0042 C   0  0  0  0  0  0  0  0  0  0  0  0
    0.9269    1.8199   -0.1700 H   0  0  0  0  0  0  0  0  0  0  0  0
   -0.3147    1.8201    0.8893 H   0  0  0  0  0  0  0  0  0  0  0  0
   -0.6504    1.9130   -0.7612 H   0  0  0  0  0  0  0  0  0  0  0  0
    0.0000    0.0000    0.0000 C   0  0  0  0  0  0  0  0  0  0  0  0
   -1.1009   -0.5964    0.0000 O   0  0  0  0  0  1  0  0  0  0  0  0
    1.1009   -0.5874    0.0000 O   0  0  0  0  0  0  0  0  0  0  0  0
   -0.4546   -3.3773   -0.9901 C   0  0  0  0  0  0  0  0  0  0  0  0
   -0.7762   -2.4404   -1.0554 H   0  0  0  0  0  0  0  0  0  0  0  0
   -0.7383   -3.7841   -0.1291 H   0  0  0  0  0  0  0  0  0  0  0  0
   -0.8946   -3.9513   -1.8057 H   0  0  0  0  0  0  0  0  0  0  0  0
    1.0757   -3.3505   -1.0136 C   0  0  0  0  0  0  0  0  0  0  0  0
    1.4120   -4.1959   -1.4172 H   0  0  0  0  0  0  0  0  0  0  0  0
    1.3818   -2.5682   -1.5485 H   0  0  0  0  0  0  0  0  0  0  0  0
    1.6527   -3.2256    0.3876 C   0  0  0  0  0  0  0  0  0  0  0  0
    2.6390   -3.3266    0.3256 H   0  0  0  0  0  0  0  0  0  0  0  0
    1.4168   -2.3261    0.7391 H   0  0  0  0  0  0  0  0  0  0  0  0
    1.2512   -3.9912    1.0516 H   0  0  0  0  0  0  0  0  0  0  0  0
  1  5  1  0
  5  6  1  0
  5  7  2  0
  1  2  1  0
  1  3  1  0
  1  4  1  0
  8 12  1  0
 12 15  1  0
  8  9  1  0
  8 10  1  0
  8 11  1  0
 12 13  1  0
 12 14  1  0
 15 16  1  0
 15 17  1  0
 15 18  1  0
M  CHG  1   6  -1
M  END
>  <PDB_ID>  (1356) 
pdb3h38

>  <RESIDUE_NAME>  (1356) 
ASP   ARG

>  <FRAG_NAME>  (1356) 
ACET   PRPA

>  <FRAG_ATOM_NUM>  (1356) 
fragi: 7  fragj: 11

>  <atom.prop.CHAIN_ID>  (1356) 
A A A A A A A Z Z Z Z Z Z Z Z Z Z Z

>  <atom.prop.IS_HEAVY_ATOM>  (1356) 
1 0 0 0 1 1 1 1 0 0 0 1 0 0 1 0 0 0

>  <DIFUSE_FUNC_ATOM>  (1356) 
atom 6   atom 7   

>  <FINAL_SINGLE_POINT_ENERGY>  (1356) 
0

>  <NONCOV_INTER_ENERGY_QM>  (1356) 
0

>  <FF_Energy>  (1356) 
19.29

>  <QM_Energy>  (1356) 
-0.81

>  <source>  (1356) 
ACET_PRPA_14

>  <Index>  (1356) 
20299

$$$$
ACET-pdb4dxd-A-GLU-181:PRPA-pdb4dxd-A-PRO-178
     RDKit          3D

 18 16  0  0  0  0  0  0  0  0999 V2000
    0.1896    1.4870    0.0134 C   0  0  0  0  0  0  0  0  0  0  0  0
    0.7064    1.7356   -0.8040 H   0  0  0  0  0  0  0  0  0  0  0  0
    0.7181    1.7188    0.8275 H   0  0  0  0  0  0  0  0  0  0  0  0
   -0.7213    2.0856    0.0247 H   0  0  0  0  0  0  0  0  0  0  0  0
    0.0000    0.0000    0.0000 C   0  0  0  0  0  0  0  0  0  0  0  0
   -1.0888   -0.5530    0.0000 O   0  0  0  0  0  1  0  0  0  0  0  0
    1.0888   -0.6142   -0.0000 O   0  0  0  0  0  0  0  0  0  0  0  0
    0.6268    0.8449    3.5288 C   0  0  0  0  0  0  0  0  0  0  0  0
    0.6097    1.4588    2.7471 H   0  0  0  0  0  0  0  0  0  0  0  0
    1.4460    0.9944    4.0703 H   0  0  0  0  0  0  0  0  0  0  0  0
   -0.2677    0.9734    4.1382 H   0  0  0  0  0  0  0  0  0  0  0  0
    0.5486   -0.6089    3.0683 C   0  0  0  0  0  0  0  0  0  0  0  0
    1.0844   -0.7363    2.2501 H   0  0  0  0  0  0  0  0  0  0  0  0
    0.8412   -1.2108    3.7924 H   0  0  0  0  0  0  0  0  0  0  0  0
   -0.9378   -0.7769    2.7825 C   0  0  0  0  0  0  0  0  0  0  0  0
   -1.1687   -0.4482    1.8690 H   0  0  0  0  0  0  0  0  0  0  0  0
   -1.2174   -1.7308    2.8779 H   0  0  0  0  0  0  0  0  0  0  0  0
   -1.4172   -0.1604    3.5429 H   0  0  0  0  0  0  0  0  0  0  0  0
  1  5  1  0
  5  6  1  0
  5  7  2  0
  1  2  1  0
  1  3  1  0
  1  4  1  0
  8 12  1  0
 12 15  1  0
  8  9  1  0
  8 10  1  0
  8 11  1  0
 12 13  1  0
 12 14  1  0
 15 16  1  0
 15 17  1  0
 15 18  1  0
M  CHG  1   6  -1
M  END
>  <PDB_ID>  (1357) 
pdb4dxd

>  <RESIDUE_NAME>  (1357) 
GLU   PRO

>  <FRAG_NAME>  (1357) 
ACET   PRPA

>  <FRAG_ATOM_NUM>  (1357) 
fragi: 7  fragj: 11

>  <atom.prop.CHAIN_ID>  (1357) 
A A A A A A A Z Z Z Z Z Z Z Z Z Z Z

>  <atom.prop.IS_HEAVY_ATOM>  (1357) 
1 0 0 0 1 1 1 1 0 0 0 1 0 0 1 0 0 0

>  <DIFUSE_FUNC_ATOM>  (1357) 
atom 6   atom 7   

>  <FINAL_SINGLE_POINT_ENERGY>  (1357) 
0

>  <NONCOV_INTER_ENERGY_QM>  (1357) 
0

>  <FF_Energy>  (1357) 
25.81

>  <QM_Energy>  (1357) 
1.19

>  <source>  (1357) 
ACET_PRPA_14

>  <Index>  (1357) 
21406

$$$$
ACET-pdb3gkq-D-GLU-40:PRPA-pdb3gkq-D-ARG-36
     RDKit          3D

 18 16  0  0  0  0  0  0  0  0999 V2000
   -0.0018    1.5193    0.0079 C   0  0  0  0  0  0  0  0  0  0  0  0
    0.9335    1.8171   -0.0354 H   0  0  0  0  0  0  0  0  0  0  0  0
   -0.4484    1.8101    0.8329 H   0  0  0  0  0  0  0  0  0  0  0  0
   -0.5361    1.9456   -0.8412 H   0  0  0  0  0  0  0  0  0  0  0  0
    0.0000    0.0000    0.0000 C   0  0  0  0  0  0  0  0  0  0  0  0
   -1.0977   -0.5967    0.0000 O   0  0  0  0  0  1  0  0  0  0  0  0
    1.0977   -0.5963   -0.0000 O   0  0  0  0  0  0  0  0  0  0  0  0
   -4.4178   -1.8090   -1.1541 C   0  0  0  0  0  0  0  0  0  0  0  0
   -3.6093   -2.3617   -0.9071 H   0  0  0  0  0  0  0  0  0  0  0  0
   -5.2189   -2.4759   -1.4732 H   0  0  0  0  0  0  0  0  0  0  0  0
   -4.7112   -1.2206   -0.2848 H   0  0  0  0  0  0  0  0  0  0  0  0
   -4.0788   -0.8688   -2.3196 C   0  0  0  0  0  0  0  0  0  0  0  0
   -4.3126   -1.3406   -3.1729 H   0  0  0  0  0  0  0  0  0  0  0  0
   -4.6532   -0.0511   -2.2318 H   0  0  0  0  0  0  0  0  0  0  0  0
   -2.6342   -0.4227   -2.4076 C   0  0  0  0  0  0  0  0  0  0  0  0
   -2.5956    0.5498   -2.6353 H   0  0  0  0  0  0  0  0  0  0  0  0
   -2.1795   -0.5789   -1.5313 H   0  0  0  0  0  0  0  0  0  0  0  0
   -2.0806   -0.9677   -3.1722 H   0  0  0  0  0  0  0  0  0  0  0  0
  1  5  1  0
  5  6  1  0
  5  7  2  0
  1  2  1  0
  1  3  1  0
  1  4  1  0
  8 12  1  0
 12 15  1  0
  8  9  1  0
  8 10  1  0
  8 11  1  0
 12 13  1  0
 12 14  1  0
 15 16  1  0
 15 17  1  0
 15 18  1  0
M  CHG  1   6  -1
M  END
>  <PDB_ID>  (1358) 
pdb3gkq

>  <RESIDUE_NAME>  (1358) 
GLU   ARG

>  <FRAG_NAME>  (1358) 
ACET   PRPA

>  <FRAG_ATOM_NUM>  (1358) 
fragi: 7  fragj: 11

>  <atom.prop.CHAIN_ID>  (1358) 
A A A A A A A Z Z Z Z Z Z Z Z Z Z Z

>  <atom.prop.IS_HEAVY_ATOM>  (1358) 
1 0 0 0 1 1 1 1 0 0 0 1 0 0 1 0 0 0

>  <DIFUSE_FUNC_ATOM>  (1358) 
atom 6   atom 7   

>  <FINAL_SINGLE_POINT_ENERGY>  (1358) 
0

>  <NONCOV_INTER_ENERGY_QM>  (1358) 
0

>  <FF_Energy>  (1358) 
16.27

>  <QM_Energy>  (1358) 
-1.04

>  <source>  (1358) 
ACET_PRPA_14

>  <Index>  (1358) 
21557

$$$$
ACET-pdb3gkq-D-GLU-40:PRPA-pdb3gkq-D-ARG-36
     RDKit          3D

 18 16  0  0  0  0  0  0  0  0999 V2000
   -0.0018    1.5193    0.0079 C   0  0  0  0  0  0  0  0  0  0  0  0
    0.9335    1.8171   -0.0354 H   0  0  0  0  0  0  0  0  0  0  0  0
   -0.4484    1.8101    0.8329 H   0  0  0  0  0  0  0  0  0  0  0  0
   -0.5361    1.9456   -0.8412 H   0  0  0  0  0  0  0  0  0  0  0  0
    0.0000    0.0000    0.0000 C   0  0  0  0  0  0  0  0  0  0  0  0
   -1.0977   -0.5967    0.0000 O   0  0  0  0  0  1  0  0  0  0  0  0
    1.0977   -0.5963   -0.0000 O   0  0  0  0  0  0  0  0  0  0  0  0
   -4.0788   -0.8688   -2.3196 C   0  0  0  0  0  0  0  0  0  0  0  0
   -4.3126   -1.3406   -3.1729 H   0  0  0  0  0  0  0  0  0  0  0  0
   -4.6532   -0.0511   -2.2318 H   0  0  0  0  0  0  0  0  0  0  0  0
   -4.3195   -1.5363   -1.4921 H   0  0  0  0  0  0  0  0  0  0  0  0
   -2.6342   -0.4227   -2.4076 C   0  0  0  0  0  0  0  0  0  0  0  0
   -2.5956    0.5498   -2.6353 H   0  0  0  0  0  0  0  0  0  0  0  0
   -2.1795   -0.5789   -1.5313 H   0  0  0  0  0  0  0  0  0  0  0  0
   -1.8589   -1.1860   -3.4784 C   0  0  0  0  0  0  0  0  0  0  0  0
   -2.3272   -1.0514   -4.3484 H   0  0  0  0  0  0  0  0  0  0  0  0
   -0.9408   -0.7975   -3.5234 H   0  0  0  0  0  0  0  0  0  0  0  0
   -1.7935   -2.2520   -3.2606 H   0  0  0  0  0  0  0  0  0  0  0  0
  1  5  1  0
  5  6  1  0
  5  7  2  0
  1  2  1  0
  1  3  1  0
  1  4  1  0
  8 12  1  0
 12 15  1  0
  8  9  1  0
  8 10  1  0
  8 11  1  0
 12 13  1  0
 12 14  1  0
 15 16  1  0
 15 17  1  0
 15 18  1  0
M  CHG  1   6  -1
M  END
>  <PDB_ID>  (1359) 
pdb3gkq

>  <RESIDUE_NAME>  (1359) 
GLU   ARG

>  <FRAG_NAME>  (1359) 
ACET   PRPA

>  <FRAG_ATOM_NUM>  (1359) 
fragi: 7  fragj: 11

>  <atom.prop.CHAIN_ID>  (1359) 
A A A A A A A Z Z Z Z Z Z Z Z Z Z Z

>  <atom.prop.IS_HEAVY_ATOM>  (1359) 
1 0 0 0 1 1 1 1 0 0 0 1 0 0 1 0 0 0

>  <DIFUSE_FUNC_ATOM>  (1359) 
atom 6   atom 7   

>  <FINAL_SINGLE_POINT_ENERGY>  (1359) 
0

>  <NONCOV_INTER_ENERGY_QM>  (1359) 
0

>  <FF_Energy>  (1359) 
18.58

>  <QM_Energy>  (1359) 
-1.14

>  <source>  (1359) 
ACET_PRPA_14

>  <Index>  (1359) 
21564

$$$$
ACET-pdb3h8u-A-GLU-34:PRPA-pdb3h8u-A-VAL-39
     RDKit          3D

 18 16  0  0  0  0  0  0  0  0999 V2000
    0.0128    1.5197    0.0455 C   0  0  0  0  0  0  0  0  0  0  0  0
    0.7965    1.8257   -0.4640 H   0  0  0  0  0  0  0  0  0  0  0  0
    0.0586    1.7885    0.9911 H   0  0  0  0  0  0  0  0  0  0  0  0
   -0.8761    1.9717   -0.3946 H   0  0  0  0  0  0  0  0  0  0  0  0
    0.0000    0.0000    0.0000 C   0  0  0  0  0  0  0  0  0  0  0  0
   -1.1005   -0.5916   -0.0000 O   0  0  0  0  0  1  0  0  0  0  0  0
    1.1005   -0.6016    0.0000 O   0  0  0  0  0  0  0  0  0  0  0  0
   -2.4652    1.0267    3.7140 C   0  0  0  0  0  0  0  0  0  0  0  0
   -2.7743    1.3493    2.8188 H   0  0  0  0  0  0  0  0  0  0  0  0
   -2.2024    0.0636    3.6476 H   0  0  0  0  0  0  0  0  0  0  0  0
   -3.2092    1.1226    4.3755 H   0  0  0  0  0  0  0  0  0  0  0  0
   -1.2712    1.8499    4.1680 C   0  0  0  0  0  0  0  0  0  0  0  0
   -1.0704    1.5828    5.1076 H   0  0  0  0  0  0  0  0  0  0  0  0
   -1.5071    2.9141    4.1717 H   0  0  0  0  0  0  0  0  0  0  0  0
   -0.0715    1.5587    3.2656 C   0  0  0  0  0  0  0  0  0  0  0  0
    0.7688    1.6653    3.7946 H   0  0  0  0  0  0  0  0  0  0  0  0
   -0.1397    0.6234    2.9230 H   0  0  0  0  0  0  0  0  0  0  0  0
   -0.0747    2.2013    2.5012 H   0  0  0  0  0  0  0  0  0  0  0  0
  1  5  1  0
  5  6  1  0
  5  7  2  0
  1  2  1  0
  1  3  1  0
  1  4  1  0
  8 12  1  0
 12 15  1  0
  8  9  1  0
  8 10  1  0
  8 11  1  0
 12 13  1  0
 12 14  1  0
 15 16  1  0
 15 17  1  0
 15 18  1  0
M  CHG  1   6  -1
M  END
>  <PDB_ID>  (1360) 
pdb3h8u

>  <RESIDUE_NAME>  (1360) 
GLU   VAL

>  <FRAG_NAME>  (1360) 
ACET   PRPA

>  <FRAG_ATOM_NUM>  (1360) 
fragi: 7  fragj: 11

>  <atom.prop.CHAIN_ID>  (1360) 
A A A A A A A Z Z Z Z Z Z Z Z Z Z Z

>  <atom.prop.IS_HEAVY_ATOM>  (1360) 
1 0 0 0 1 1 1 1 0 0 0 1 0 0 1 0 0 0

>  <DIFUSE_FUNC_ATOM>  (1360) 
atom 6   atom 7   

>  <FINAL_SINGLE_POINT_ENERGY>  (1360) 
0

>  <NONCOV_INTER_ENERGY_QM>  (1360) 
0

>  <FF_Energy>  (1360) 
17.61

>  <QM_Energy>  (1360) 
2.48

>  <source>  (1360) 
ACET_PRPA_14

>  <Index>  (1360) 
22498

$$$$
ACET-pdb4dy0-A-ASP-147:PRPA-pdb4dy0-A-LYS-139
     RDKit          3D

 18 16  0  0  0  0  0  0  0  0999 V2000
    0.0006    1.5175   -0.0034 C   0  0  0  0  0  0  0  0  0  0  0  0
    0.5680    1.8345   -0.7538 H   0  0  0  0  0  0  0  0  0  0  0  0
    0.3579    1.8394    0.8647 H   0  0  0  0  0  0  0  0  0  0  0  0
   -0.9969    1.9369   -0.1343 H   0  0  0  0  0  0  0  0  0  0  0  0
    0.0000    0.0000    0.0000 C   0  0  0  0  0  0  0  0  0  0  0  0
   -1.0964   -0.5956   -0.0000 O   0  0  0  0  0  1  0  0  0  0  0  0
    1.0964   -0.5982   -0.0000 O   0  0  0  0  0  0  0  0  0  0  0  0
    0.5373    0.7065   -4.2609 C   0  0  0  0  0  0  0  0  0  0  0  0
    1.1195    0.2480   -4.9329 H   0  0  0  0  0  0  0  0  0  0  0  0
    1.1104    1.2267   -3.6262 H   0  0  0  0  0  0  0  0  0  0  0  0
   -0.1046    1.4094   -4.7919 H   0  0  0  0  0  0  0  0  0  0  0  0
   -0.2071   -0.3589   -3.4683 C   0  0  0  0  0  0  0  0  0  0  0  0
   -0.7895    0.0898   -2.7877 H   0  0  0  0  0  0  0  0  0  0  0  0
   -0.7793   -0.8903   -4.0945 H   0  0  0  0  0  0  0  0  0  0  0  0
    0.7480   -1.2984   -2.7560 C   0  0  0  0  0  0  0  0  0  0  0  0
    1.6868   -1.0118   -2.9520 H   0  0  0  0  0  0  0  0  0  0  0  0
    0.5833   -1.2394   -1.7698 H   0  0  0  0  0  0  0  0  0  0  0  0
    0.6274   -2.3359   -3.0674 H   0  0  0  0  0  0  0  0  0  0  0  0
  1  5  1  0
  5  6  1  0
  5  7  2  0
  1  2  1  0
  1  3  1  0
  1  4  1  0
  8 12  1  0
 12 15  1  0
  8  9  1  0
  8 10  1  0
  8 11  1  0
 12 13  1  0
 12 14  1  0
 15 16  1  0
 15 17  1  0
 15 18  1  0
M  CHG  1   6  -1
M  END
>  <PDB_ID>  (1361) 
pdb4dy0

>  <RESIDUE_NAME>  (1361) 
ASP   LYS

>  <FRAG_NAME>  (1361) 
ACET   PRPA

>  <FRAG_ATOM_NUM>  (1361) 
fragi: 7  fragj: 11

>  <atom.prop.CHAIN_ID>  (1361) 
A A A A A A A Z Z Z Z Z Z Z Z Z Z Z

>  <atom.prop.IS_HEAVY_ATOM>  (1361) 
1 0 0 0 1 1 1 1 0 0 0 1 0 0 1 0 0 0

>  <DIFUSE_FUNC_ATOM>  (1361) 
atom 6   atom 7   

>  <FINAL_SINGLE_POINT_ENERGY>  (1361) 
0

>  <NONCOV_INTER_ENERGY_QM>  (1361) 
0

>  <FF_Energy>  (1361) 
14.28

>  <QM_Energy>  (1361) 
-1.5

>  <source>  (1361) 
ACET_PRPA_14

>  <Index>  (1361) 
23155

$$$$
ACET-pdb4dy0-A-ASP-147:PRPA-pdb4dy0-A-LYS-139
     RDKit          3D

 18 16  0  0  0  0  0  0  0  0999 V2000
    0.0006    1.5175   -0.0034 C   0  0  0  0  0  0  0  0  0  0  0  0
    0.5680    1.8345   -0.7538 H   0  0  0  0  0  0  0  0  0  0  0  0
    0.3579    1.8394    0.8647 H   0  0  0  0  0  0  0  0  0  0  0  0
   -0.9969    1.9369   -0.1343 H   0  0  0  0  0  0  0  0  0  0  0  0
    0.0000    0.0000    0.0000 C   0  0  0  0  0  0  0  0  0  0  0  0
   -1.0964   -0.5956   -0.0000 O   0  0  0  0  0  1  0  0  0  0  0  0
    1.0964   -0.5982   -0.0000 O   0  0  0  0  0  0  0  0  0  0  0  0
   -0.2071   -0.3589   -3.4683 C   0  0  0  0  0  0  0  0  0  0  0  0
   -0.7895    0.0898   -2.7877 H   0  0  0  0  0  0  0  0  0  0  0  0
   -0.7793   -0.8903   -4.0945 H   0  0  0  0  0  0  0  0  0  0  0  0
    0.3259    0.4040   -4.0358 H   0  0  0  0  0  0  0  0  0  0  0  0
    0.7480   -1.2984   -2.7560 C   0  0  0  0  0  0  0  0  0  0  0  0
    1.6868   -1.0118   -2.9520 H   0  0  0  0  0  0  0  0  0  0  0  0
    0.5833   -1.2394   -1.7698 H   0  0  0  0  0  0  0  0  0  0  0  0
    0.5809   -2.7366   -3.1876 C   0  0  0  0  0  0  0  0  0  0  0  0
   -0.3541   -3.0326   -2.9903 H   0  0  0  0  0  0  0  0  0  0  0  0
    0.7493   -2.8058   -4.1720 H   0  0  0  0  0  0  0  0  0  0  0  0
    1.2810   -3.3826   -2.6579 H   0  0  0  0  0  0  0  0  0  0  0  0
  1  5  1  0
  5  6  1  0
  5  7  2  0
  1  2  1  0
  1  3  1  0
  1  4  1  0
  8 12  1  0
 12 15  1  0
  8  9  1  0
  8 10  1  0
  8 11  1  0
 12 13  1  0
 12 14  1  0
 15 16  1  0
 15 17  1  0
 15 18  1  0
M  CHG  1   6  -1
M  END
>  <PDB_ID>  (1362) 
pdb4dy0

>  <RESIDUE_NAME>  (1362) 
ASP   LYS

>  <FRAG_NAME>  (1362) 
ACET   PRPA

>  <FRAG_ATOM_NUM>  (1362) 
fragi: 7  fragj: 11

>  <atom.prop.CHAIN_ID>  (1362) 
A A A A A A A Z Z Z Z Z Z Z Z Z Z Z

>  <atom.prop.IS_HEAVY_ATOM>  (1362) 
1 0 0 0 1 1 1 1 0 0 0 1 0 0 1 0 0 0

>  <DIFUSE_FUNC_ATOM>  (1362) 
atom 6   atom 7   

>  <FINAL_SINGLE_POINT_ENERGY>  (1362) 
0

>  <NONCOV_INTER_ENERGY_QM>  (1362) 
0

>  <FF_Energy>  (1362) 
16.51

>  <QM_Energy>  (1362) 
-1.58

>  <source>  (1362) 
ACET_PRPA_14

>  <Index>  (1362) 
23162

$$$$
ACET-pdb3gkq-D-GLU-310:PRPA-pdb3gkq-D-VAL-305
     RDKit          3D

 18 16  0  0  0  0  0  0  0  0999 V2000
   -0.0002    1.5184   -0.0067 C   0  0  0  0  0  0  0  0  0  0  0  0
    0.9338    1.8123   -0.0700 H   0  0  0  0  0  0  0  0  0  0  0  0
   -0.4344    1.8153    0.8214 H   0  0  0  0  0  0  0  0  0  0  0  0
   -0.5513    1.9229   -0.8557 H   0  0  0  0  0  0  0  0  0  0  0  0
    0.0000    0.0000    0.0000 C   0  0  0  0  0  0  0  0  0  0  0  0
   -1.0957   -0.5967    0.0000 O   0  0  0  0  0  1  0  0  0  0  0  0
    1.0957   -0.5986   -0.0000 O   0  0  0  0  0  0  0  0  0  0  0  0
   -2.4878    0.5399    3.5260 C   0  0  0  0  0  0  0  0  0  0  0  0
   -2.5446    0.1030    2.6176 H   0  0  0  0  0  0  0  0  0  0  0  0
   -3.3607    0.2385    4.1051 H   0  0  0  0  0  0  0  0  0  0  0  0
   -1.5614    0.2099    3.9964 H   0  0  0  0  0  0  0  0  0  0  0  0
   -2.4733    2.0718    3.3585 C   0  0  0  0  0  0  0  0  0  0  0  0
   -2.5795    2.4737    4.2639 H   0  0  0  0  0  0  0  0  0  0  0  0
   -3.2735    2.3727    2.6823 H   0  0  0  0  0  0  0  0  0  0  0  0
   -1.1408    2.5324    2.8157 C   0  0  0  0  0  0  0  0  0  0  0  0
   -0.5619    2.8558    3.5661 H   0  0  0  0  0  0  0  0  0  0  0  0
   -0.6817    1.7727    2.3515 H   0  0  0  0  0  0  0  0  0  0  0  0
   -1.2804    3.2792    2.1626 H   0  0  0  0  0  0  0  0  0  0  0  0
  1  5  1  0
  5  6  1  0
  5  7  2  0
  1  2  1  0
  1  3  1  0
  1  4  1  0
  8 12  1  0
 12 15  1  0
  8  9  1  0
  8 10  1  0
  8 11  1  0
 12 13  1  0
 12 14  1  0
 15 16  1  0
 15 17  1  0
 15 18  1  0
M  CHG  1   6  -1
M  END
>  <PDB_ID>  (1363) 
pdb3gkq

>  <RESIDUE_NAME>  (1363) 
GLU   VAL

>  <FRAG_NAME>  (1363) 
ACET   PRPA

>  <FRAG_ATOM_NUM>  (1363) 
fragi: 7  fragj: 11

>  <atom.prop.CHAIN_ID>  (1363) 
A A A A A A A Z Z Z Z Z Z Z Z Z Z Z

>  <atom.prop.IS_HEAVY_ATOM>  (1363) 
1 0 0 0 1 1 1 1 0 0 0 1 0 0 1 0 0 0

>  <DIFUSE_FUNC_ATOM>  (1363) 
atom 6   atom 7   

>  <FINAL_SINGLE_POINT_ENERGY>  (1363) 
0

>  <NONCOV_INTER_ENERGY_QM>  (1363) 
0

>  <FF_Energy>  (1363) 
21.83

>  <QM_Energy>  (1363) 
2.96

>  <source>  (1363) 
ACET_PRPA_14

>  <Index>  (1363) 
24071

$$$$
ACET-pdb3gkq-D-GLU-310:PRPA-pdb3gkq-D-VAL-305
     RDKit          3D

 18 16  0  0  0  0  0  0  0  0999 V2000
   -0.0002    1.5184   -0.0067 C   0  0  0  0  0  0  0  0  0  0  0  0
    0.9338    1.8123   -0.0700 H   0  0  0  0  0  0  0  0  0  0  0  0
   -0.4344    1.8153    0.8214 H   0  0  0  0  0  0  0  0  0  0  0  0
   -0.5513    1.9229   -0.8557 H   0  0  0  0  0  0  0  0  0  0  0  0
    0.0000    0.0000    0.0000 C   0  0  0  0  0  0  0  0  0  0  0  0
   -1.0957   -0.5967    0.0000 O   0  0  0  0  0  1  0  0  0  0  0  0
    1.0957   -0.5986   -0.0000 O   0  0  0  0  0  0  0  0  0  0  0  0
   -1.1408    2.5324    2.8157 C   0  0  0  0  0  0  0  0  0  0  0  0
   -0.5619    2.8558    3.5661 H   0  0  0  0  0  0  0  0  0  0  0  0
   -0.6817    1.7727    2.3515 H   0  0  0  0  0  0  0  0  0  0  0  0
   -1.2804    3.2792    2.1626 H   0  0  0  0  0  0  0  0  0  0  0  0
   -2.4733    2.0718    3.3585 C   0  0  0  0  0  0  0  0  0  0  0  0
   -2.5795    2.4737    4.2639 H   0  0  0  0  0  0  0  0  0  0  0  0
   -2.4836    0.9884    3.4770 H   0  0  0  0  0  0  0  0  0  0  0  0
   -3.5895    2.4915    2.4155 C   0  0  0  0  0  0  0  0  0  0  0  0
   -3.2285    2.5602    1.4851 H   0  0  0  0  0  0  0  0  0  0  0  0
   -4.3198    1.8092    2.4428 H   0  0  0  0  0  0  0  0  0  0  0  0
   -3.9488    3.3793    2.7023 H   0  0  0  0  0  0  0  0  0  0  0  0
  1  5  1  0
  5  6  1  0
  5  7  2  0
  1  2  1  0
  1  3  1  0
  1  4  1  0
  8 12  1  0
 12 15  1  0
  8  9  1  0
  8 10  1  0
  8 11  1  0
 12 13  1  0
 12 14  1  0
 15 16  1  0
 15 17  1  0
 15 18  1  0
M  CHG  1   6  -1
M  END
>  <PDB_ID>  (1364) 
pdb3gkq

>  <RESIDUE_NAME>  (1364) 
GLU   VAL

>  <FRAG_NAME>  (1364) 
ACET   PRPA

>  <FRAG_ATOM_NUM>  (1364) 
fragi: 7  fragj: 11

>  <atom.prop.CHAIN_ID>  (1364) 
A A A A A A A Z Z Z Z Z Z Z Z Z Z Z

>  <atom.prop.IS_HEAVY_ATOM>  (1364) 
1 0 0 0 1 1 1 1 0 0 0 1 0 0 1 0 0 0

>  <DIFUSE_FUNC_ATOM>  (1364) 
atom 6   atom 7   

>  <FINAL_SINGLE_POINT_ENERGY>  (1364) 
0

>  <NONCOV_INTER_ENERGY_QM>  (1364) 
0

>  <FF_Energy>  (1364) 
22.06

>  <QM_Energy>  (1364) 
3.79

>  <source>  (1364) 
ACET_PRPA_14

>  <Index>  (1364) 
24085

$$$$
ACET-pdb3gkq-E-GLU-40:PRPA-pdb3gkq-E-ARG-36
     RDKit          3D

 18 16  0  0  0  0  0  0  0  0999 V2000
   -0.0024    1.5134   -0.0001 C   0  0  0  0  0  0  0  0  0  0  0  0
    0.9303    1.8130   -0.0650 H   0  0  0  0  0  0  0  0  0  0  0  0
   -0.4354    1.8099    0.8299 H   0  0  0  0  0  0  0  0  0  0  0  0
   -0.5549    1.9266   -0.8440 H   0  0  0  0  0  0  0  0  0  0  0  0
    0.0000    0.0000    0.0000 C   0  0  0  0  0  0  0  0  0  0  0  0
   -1.0985   -0.5952   -0.0000 O   0  0  0  0  0  1  0  0  0  0  0  0
    1.0985   -0.5948   -0.0000 O   0  0  0  0  0  0  0  0  0  0  0  0
   -4.4319   -1.8053   -1.2092 C   0  0  0  0  0  0  0  0  0  0  0  0
   -3.6471   -2.3641   -0.9128 H   0  0  0  0  0  0  0  0  0  0  0  0
   -5.2404   -2.4657   -1.5227 H   0  0  0  0  0  0  0  0  0  0  0  0
   -4.7409   -1.1766   -0.3742 H   0  0  0  0  0  0  0  0  0  0  0  0
   -4.0376   -0.9204   -2.3958 C   0  0  0  0  0  0  0  0  0  0  0  0
   -4.2529   -1.4210   -3.2385 H   0  0  0  0  0  0  0  0  0  0  0  0
   -4.5984   -0.0887   -2.3603 H   0  0  0  0  0  0  0  0  0  0  0  0
   -2.5849   -0.5062   -2.4518 C   0  0  0  0  0  0  0  0  0  0  0  0
   -2.5188    0.4566   -2.7152 H   0  0  0  0  0  0  0  0  0  0  0  0
   -2.1633   -0.6344   -1.5532 H   0  0  0  0  0  0  0  0  0  0  0  0
   -2.0172   -1.0918   -3.1749 H   0  0  0  0  0  0  0  0  0  0  0  0
  1  5  1  0
  5  6  1  0
  5  7  2  0
  1  2  1  0
  1  3  1  0
  1  4  1  0
  8 12  1  0
 12 15  1  0
  8  9  1  0
  8 10  1  0
  8 11  1  0
 12 13  1  0
 12 14  1  0
 15 16  1  0
 15 17  1  0
 15 18  1  0
M  CHG  1   6  -1
M  END
>  <PDB_ID>  (1365) 
pdb3gkq

>  <RESIDUE_NAME>  (1365) 
GLU   ARG

>  <FRAG_NAME>  (1365) 
ACET   PRPA

>  <FRAG_ATOM_NUM>  (1365) 
fragi: 7  fragj: 11

>  <atom.prop.CHAIN_ID>  (1365) 
A A A A A A A Z Z Z Z Z Z Z Z Z Z Z

>  <atom.prop.IS_HEAVY_ATOM>  (1365) 
1 0 0 0 1 1 1 1 0 0 0 1 0 0 1 0 0 0

>  <DIFUSE_FUNC_ATOM>  (1365) 
atom 6   atom 7   

>  <FINAL_SINGLE_POINT_ENERGY>  (1365) 
0

>  <NONCOV_INTER_ENERGY_QM>  (1365) 
0

>  <FF_Energy>  (1365) 
15.29

>  <QM_Energy>  (1365) 
-1.12

>  <source>  (1365) 
ACET_PRPA_14

>  <Index>  (1365) 
24783

$$$$
ACET-pdb3gxa-D-GLU-231:PRPA-pdb3gxa-D-ARG-156
     RDKit          3D

 18 16  0  0  0  0  0  0  0  0999 V2000
   -0.0010    1.5198    0.0265 C   0  0  0  0  0  0  0  0  0  0  0  0
   -0.6725    1.8230   -0.6172 H   0  0  0  0  0  0  0  0  0  0  0  0
    0.9042    1.8163   -0.1939 H   0  0  0  0  0  0  0  0  0  0  0  0
   -0.2652    1.8993    1.0135 H   0  0  0  0  0  0  0  0  0  0  0  0
    0.0000    0.0000    0.0000 C   0  0  0  0  0  0  0  0  0  0  0  0
   -1.0965   -0.5991   -0.0000 O   0  0  0  0  0  1  0  0  0  0  0  0
    1.0965   -0.5941   -0.0000 O   0  0  0  0  0  0  0  0  0  0  0  0
    4.2351   -2.4452    0.6502 C   0  0  0  0  0  0  0  0  0  0  0  0
    4.5346   -3.0402    1.3933 H   0  0  0  0  0  0  0  0  0  0  0  0
    3.6767   -1.7039    1.0156 H   0  0  0  0  0  0  0  0  0  0  0  0
    5.1201   -2.0076    0.1883 H   0  0  0  0  0  0  0  0  0  0  0  0
    3.3748   -3.2632   -0.2924 C   0  0  0  0  0  0  0  0  0  0  0  0
    3.4938   -2.9395   -1.2221 H   0  0  0  0  0  0  0  0  0  0  0  0
    3.6171   -4.2225   -0.2201 H   0  0  0  0  0  0  0  0  0  0  0  0
    1.9020   -3.1190    0.0739 C   0  0  0  0  0  0  0  0  0  0  0  0
    1.7836   -2.2255    0.5143 H   0  0  0  0  0  0  0  0  0  0  0  0
    1.3742   -3.1335   -0.7805 H   0  0  0  0  0  0  0  0  0  0  0  0
    1.5414   -3.9035    0.7391 H   0  0  0  0  0  0  0  0  0  0  0  0
  1  5  1  0
  5  6  1  0
  5  7  2  0
  1  2  1  0
  1  3  1  0
  1  4  1  0
  8 12  1  0
 12 15  1  0
  8  9  1  0
  8 10  1  0
  8 11  1  0
 12 13  1  0
 12 14  1  0
 15 16  1  0
 15 17  1  0
 15 18  1  0
M  CHG  1   6  -1
M  END
>  <PDB_ID>  (1366) 
pdb3gxa

>  <RESIDUE_NAME>  (1366) 
GLU   ARG

>  <FRAG_NAME>  (1366) 
ACET   PRPA

>  <FRAG_ATOM_NUM>  (1366) 
fragi: 7  fragj: 11

>  <atom.prop.CHAIN_ID>  (1366) 
A A A A A A A Z Z Z Z Z Z Z Z Z Z Z

>  <atom.prop.IS_HEAVY_ATOM>  (1366) 
1 0 0 0 1 1 1 1 0 0 0 1 0 0 1 0 0 0

>  <DIFUSE_FUNC_ATOM>  (1366) 
atom 6   atom 7   

>  <FINAL_SINGLE_POINT_ENERGY>  (1366) 
0

>  <NONCOV_INTER_ENERGY_QM>  (1366) 
0

>  <FF_Energy>  (1366) 
23.19

>  <QM_Energy>  (1366) 
2.22

>  <source>  (1366) 
ACET_PRPA_14

>  <Index>  (1366) 
26061

$$$$
ACET-pdb3gjx-D-ASP-58:PRPA-pdb3gjx-D-LYS-22
     RDKit          3D

 18 16  0  0  0  0  0  0  0  0999 V2000
    0.0063    1.5124   -0.0104 C   0  0  0  0  0  0  0  0  0  0  0  0
    0.4782    1.8261   -0.8270 H   0  0  0  0  0  0  0  0  0  0  0  0
    0.4714    1.8380    0.8048 H   0  0  0  0  0  0  0  0  0  0  0  0
   -0.9970    1.9385   -0.0180 H   0  0  0  0  0  0  0  0  0  0  0  0
    0.0000    0.0000    0.0000 C   0  0  0  0  0  0  0  0  0  0  0  0
   -1.0941   -0.5981   -0.0000 O   0  0  0  0  0  1  0  0  0  0  0  0
    1.0941   -0.5975    0.0000 O   0  0  0  0  0  0  0  0  0  0  0  0
    0.3791   -3.2637   -4.2630 C   0  0  0  0  0  0  0  0  0  0  0  0
    1.3312   -2.9487   -4.1181 H   0  0  0  0  0  0  0  0  0  0  0  0
    0.0291   -2.8954   -5.2274 H   0  0  0  0  0  0  0  0  0  0  0  0
    0.3610   -4.3523   -4.2097 H   0  0  0  0  0  0  0  0  0  0  0  0
   -0.4685   -2.6857   -3.1292 C   0  0  0  0  0  0  0  0  0  0  0  0
   -1.4218   -2.6781   -3.4283 H   0  0  0  0  0  0  0  0  0  0  0  0
   -0.3721   -3.2846   -2.3349 H   0  0  0  0  0  0  0  0  0  0  0  0
   -0.0805   -1.2814   -2.7243 C   0  0  0  0  0  0  0  0  0  0  0  0
   -0.4876   -1.0722   -1.8307 H   0  0  0  0  0  0  0  0  0  0  0  0
    0.9185   -1.2250   -2.6463 H   0  0  0  0  0  0  0  0  0  0  0  0
   -0.4191   -0.5381   -3.4460 H   0  0  0  0  0  0  0  0  0  0  0  0
  1  5  1  0
  5  6  1  0
  5  7  2  0
  1  2  1  0
  1  3  1  0
  1  4  1  0
  8 12  1  0
 12 15  1  0
  8  9  1  0
  8 10  1  0
  8 11  1  0
 12 13  1  0
 12 14  1  0
 15 16  1  0
 15 17  1  0
 15 18  1  0
M  CHG  1   6  -1
M  END
>  <PDB_ID>  (1367) 
pdb3gjx

>  <RESIDUE_NAME>  (1367) 
ASP   LYS

>  <FRAG_NAME>  (1367) 
ACET   PRPA

>  <FRAG_ATOM_NUM>  (1367) 
fragi: 7  fragj: 11

>  <atom.prop.CHAIN_ID>  (1367) 
A A A A A A A Z Z Z Z Z Z Z Z Z Z Z

>  <atom.prop.IS_HEAVY_ATOM>  (1367) 
1 0 0 0 1 1 1 1 0 0 0 1 0 0 1 0 0 0

>  <DIFUSE_FUNC_ATOM>  (1367) 
atom 6   atom 7   

>  <FINAL_SINGLE_POINT_ENERGY>  (1367) 
0

>  <NONCOV_INTER_ENERGY_QM>  (1367) 
0

>  <FF_Energy>  (1367) 
15.09

>  <QM_Energy>  (1367) 
-0.86

>  <source>  (1367) 
ACET_PRPA_14

>  <Index>  (1367) 
26263

$$$$
ACET-pdb3gjx-D-ASP-58:PRPA-pdb3gjx-D-LYS-22
     RDKit          3D

 18 16  0  0  0  0  0  0  0  0999 V2000
    0.0063    1.5124   -0.0104 C   0  0  0  0  0  0  0  0  0  0  0  0
    0.4782    1.8261   -0.8270 H   0  0  0  0  0  0  0  0  0  0  0  0
    0.4714    1.8380    0.8048 H   0  0  0  0  0  0  0  0  0  0  0  0
   -0.9970    1.9385   -0.0180 H   0  0  0  0  0  0  0  0  0  0  0  0
    0.0000    0.0000    0.0000 C   0  0  0  0  0  0  0  0  0  0  0  0
   -1.0941   -0.5981   -0.0000 O   0  0  0  0  0  1  0  0  0  0  0  0
    1.0941   -0.5975    0.0000 O   0  0  0  0  0  0  0  0  0  0  0  0
   -0.4685   -2.6857   -3.1292 C   0  0  0  0  0  0  0  0  0  0  0  0
   -1.4218   -2.6781   -3.4283 H   0  0  0  0  0  0  0  0  0  0  0  0
   -0.3721   -3.2846   -2.3349 H   0  0  0  0  0  0  0  0  0  0  0  0
    0.1357   -3.0978   -3.9375 H   0  0  0  0  0  0  0  0  0  0  0  0
   -0.0805   -1.2814   -2.7243 C   0  0  0  0  0  0  0  0  0  0  0  0
   -0.4876   -1.0722   -1.8307 H   0  0  0  0  0  0  0  0  0  0  0  0
    0.9185   -1.2250   -2.6463 H   0  0  0  0  0  0  0  0  0  0  0  0
   -0.5514   -0.2475   -3.7283 C   0  0  0  0  0  0  0  0  0  0  0  0
   -0.2706   -0.5290   -4.6382 H   0  0  0  0  0  0  0  0  0  0  0  0
   -1.5389   -0.1690   -3.6738 H   0  0  0  0  0  0  0  0  0  0  0  0
   -0.1129    0.7271   -3.5142 H   0  0  0  0  0  0  0  0  0  0  0  0
  1  5  1  0
  5  6  1  0
  5  7  2  0
  1  2  1  0
  1  3  1  0
  1  4  1  0
  8 12  1  0
 12 15  1  0
  8  9  1  0
  8 10  1  0
  8 11  1  0
 12 13  1  0
 12 14  1  0
 15 16  1  0
 15 17  1  0
 15 18  1  0
M  CHG  1   6  -1
M  END
>  <PDB_ID>  (1368) 
pdb3gjx

>  <RESIDUE_NAME>  (1368) 
ASP   LYS

>  <FRAG_NAME>  (1368) 
ACET   PRPA

>  <FRAG_ATOM_NUM>  (1368) 
fragi: 7  fragj: 11

>  <atom.prop.CHAIN_ID>  (1368) 
A A A A A A A Z Z Z Z Z Z Z Z Z Z Z

>  <atom.prop.IS_HEAVY_ATOM>  (1368) 
1 0 0 0 1 1 1 1 0 0 0 1 0 0 1 0 0 0

>  <DIFUSE_FUNC_ATOM>  (1368) 
atom 6   atom 7   

>  <FINAL_SINGLE_POINT_ENERGY>  (1368) 
0

>  <NONCOV_INTER_ENERGY_QM>  (1368) 
0

>  <FF_Energy>  (1368) 
16.65

>  <QM_Energy>  (1368) 
-1.27

>  <source>  (1368) 
ACET_PRPA_14

>  <Index>  (1368) 
26270

$$$$
ACET-pdb3gjx-D-ASP-58:PRPA-pdb3gjx-D-LYS-22
     RDKit          3D

 18 16  0  0  0  0  0  0  0  0999 V2000
    0.0063    1.5124   -0.0104 C   0  0  0  0  0  0  0  0  0  0  0  0
    0.4782    1.8261   -0.8270 H   0  0  0  0  0  0  0  0  0  0  0  0
    0.4714    1.8380    0.8048 H   0  0  0  0  0  0  0  0  0  0  0  0
   -0.9970    1.9385   -0.0180 H   0  0  0  0  0  0  0  0  0  0  0  0
    0.0000    0.0000    0.0000 C   0  0  0  0  0  0  0  0  0  0  0  0
   -1.0941   -0.5981   -0.0000 O   0  0  0  0  0  1  0  0  0  0  0  0
    1.0941   -0.5975    0.0000 O   0  0  0  0  0  0  0  0  0  0  0  0
   -0.0805   -1.2814   -2.7243 C   0  0  0  0  0  0  0  0  0  0  0  0
   -0.4876   -1.0722   -1.8307 H   0  0  0  0  0  0  0  0  0  0  0  0
    0.9185   -1.2250   -2.6463 H   0  0  0  0  0  0  0  0  0  0  0  0
   -0.3602   -2.2937   -3.0162 H   0  0  0  0  0  0  0  0  0  0  0  0
   -0.5514   -0.2475   -3.7283 C   0  0  0  0  0  0  0  0  0  0  0  0
   -0.2706   -0.5290   -4.6382 H   0  0  0  0  0  0  0  0  0  0  0  0
   -1.5389   -0.1690   -3.6738 H   0  0  0  0  0  0  0  0  0  0  0  0
    0.0599    1.1108   -3.4299 C   0  0  0  0  0  0  0  0  0  0  0  0
   -0.1395    1.3549   -2.4761 H   0  0  0  0  0  0  0  0  0  0  0  0
    1.0559    1.0520   -3.5453 H   0  0  0  0  0  0  0  0  0  0  0  0
   -0.3313    1.8870   -4.0875 H   0  0  0  0  0  0  0  0  0  0  0  0
  1  5  1  0
  5  6  1  0
  5  7  2  0
  1  2  1  0
  1  3  1  0
  1  4  1  0
  8 12  1  0
 12 15  1  0
  8  9  1  0
  8 10  1  0
  8 11  1  0
 12 13  1  0
 12 14  1  0
 15 16  1  0
 15 17  1  0
 15 18  1  0
M  CHG  1   6  -1
M  END
>  <PDB_ID>  (1369) 
pdb3gjx

>  <RESIDUE_NAME>  (1369) 
ASP   LYS

>  <FRAG_NAME>  (1369) 
ACET   PRPA

>  <FRAG_ATOM_NUM>  (1369) 
fragi: 7  fragj: 11

>  <atom.prop.CHAIN_ID>  (1369) 
A A A A A A A Z Z Z Z Z Z Z Z Z Z Z

>  <atom.prop.IS_HEAVY_ATOM>  (1369) 
1 0 0 0 1 1 1 1 0 0 0 1 0 0 1 0 0 0

>  <DIFUSE_FUNC_ATOM>  (1369) 
atom 6   atom 7   

>  <FINAL_SINGLE_POINT_ENERGY>  (1369) 
0

>  <NONCOV_INTER_ENERGY_QM>  (1369) 
0

>  <FF_Energy>  (1369) 
18.7

>  <QM_Energy>  (1369) 
0.82

>  <source>  (1369) 
ACET_PRPA_14

>  <Index>  (1369) 
26281

$$$$
ACET-pdb4ead-A-GLU-6:PRPA-pdb4ead-A-LEU-3
     RDKit          3D

 18 16  0  0  0  0  0  0  0  0999 V2000
    0.0200    1.5164    0.0135 C   0  0  0  0  0  0  0  0  0  0  0  0
    0.3993    1.8153   -0.8461 H   0  0  0  0  0  0  0  0  0  0  0  0
    0.5781    1.7982    0.7763 H   0  0  0  0  0  0  0  0  0  0  0  0
   -0.9685    1.9617    0.1259 H   0  0  0  0  0  0  0  0  0  0  0  0
    0.0000    0.0000    0.0000 C   0  0  0  0  0  0  0  0  0  0  0  0
   -1.0999   -0.6093   -0.0000 O   0  0  0  0  0  1  0  0  0  0  0  0
    1.0999   -0.5906    0.0000 O   0  0  0  0  0  0  0  0  0  0  0  0
   -1.5078    0.4284    3.1689 C   0  0  0  0  0  0  0  0  0  0  0  0
   -1.4736   -0.4940    2.7914 H   0  0  0  0  0  0  0  0  0  0  0  0
   -1.5786    1.0957    2.4330 H   0  0  0  0  0  0  0  0  0  0  0  0
   -2.4073    0.5057    3.7796 H   0  0  0  0  0  0  0  0  0  0  0  0
   -0.1786    0.6774    3.8843 C   0  0  0  0  0  0  0  0  0  0  0  0
   -0.3650    0.9732    4.8218 H   0  0  0  0  0  0  0  0  0  0  0  0
    0.4250   -0.2300    3.9042 H   0  0  0  0  0  0  0  0  0  0  0  0
    0.5822    1.8182    3.2248 C   0  0  0  0  0  0  0  0  0  0  0  0
    0.0334    2.6536    3.2646 H   0  0  0  0  0  0  0  0  0  0  0  0
    1.4475    1.9659    3.7056 H   0  0  0  0  0  0  0  0  0  0  0  0
    0.7685    1.5875    2.2685 H   0  0  0  0  0  0  0  0  0  0  0  0
  1  5  1  0
  5  6  1  0
  5  7  2  0
  1  2  1  0
  1  3  1  0
  1  4  1  0
  8 12  1  0
 12 15  1  0
  8  9  1  0
  8 10  1  0
  8 11  1  0
 12 13  1  0
 12 14  1  0
 15 16  1  0
 15 17  1  0
 15 18  1  0
M  CHG  1   6  -1
M  END
>  <PDB_ID>  (1370) 
pdb4ead

>  <RESIDUE_NAME>  (1370) 
GLU   LEU

>  <FRAG_NAME>  (1370) 
ACET   PRPA

>  <FRAG_ATOM_NUM>  (1370) 
fragi: 7  fragj: 11

>  <atom.prop.CHAIN_ID>  (1370) 
A A A A A A A Z Z Z Z Z Z Z Z Z Z Z

>  <atom.prop.IS_HEAVY_ATOM>  (1370) 
1 0 0 0 1 1 1 1 0 0 0 1 0 0 1 0 0 0

>  <DIFUSE_FUNC_ATOM>  (1370) 
atom 6   atom 7   

>  <FINAL_SINGLE_POINT_ENERGY>  (1370) 
0

>  <NONCOV_INTER_ENERGY_QM>  (1370) 
0

>  <FF_Energy>  (1370) 
23.75

>  <QM_Energy>  (1370) 
1.51

>  <source>  (1370) 
ACET_PRPA_14

>  <Index>  (1370) 
27512

$$$$
ACET-pdb3gxa-E-GLU-231:PRPA-pdb3gxa-E-ARG-156
     RDKit          3D

 18 16  0  0  0  0  0  0  0  0999 V2000
    0.0134    1.5216    0.0170 C   0  0  0  0  0  0  0  0  0  0  0  0
   -0.6731    1.8296   -0.6105 H   0  0  0  0  0  0  0  0  0  0  0  0
    0.9149    1.8110   -0.2353 H   0  0  0  0  0  0  0  0  0  0  0  0
   -0.2154    1.9248    1.0036 H   0  0  0  0  0  0  0  0  0  0  0  0
    0.0000    0.0000    0.0000 C   0  0  0  0  0  0  0  0  0  0  0  0
   -1.0990   -0.6011    0.0000 O   0  0  0  0  0  1  0  0  0  0  0  0
    1.0990   -0.5873   -0.0000 O   0  0  0  0  0  0  0  0  0  0  0  0
    4.1532   -2.5548    0.5478 C   0  0  0  0  0  0  0  0  0  0  0  0
    4.4537   -3.0947    1.3283 H   0  0  0  0  0  0  0  0  0  0  0  0
    3.5980   -1.7879    0.8550 H   0  0  0  0  0  0  0  0  0  0  0  0
    5.0383   -2.1553    0.0526 H   0  0  0  0  0  0  0  0  0  0  0  0
    3.3076   -3.4293   -0.3407 C   0  0  0  0  0  0  0  0  0  0  0  0
    3.4307   -3.1649   -1.2895 H   0  0  0  0  0  0  0  0  0  0  0  0
    3.5548   -4.3824   -0.2095 H   0  0  0  0  0  0  0  0  0  0  0  0
    1.8447   -3.2687    0.0107 C   0  0  0  0  0  0  0  0  0  0  0  0
    1.6992   -2.3204    0.3009 H   0  0  0  0  0  0  0  0  0  0  0  0
    1.3076   -3.4441   -0.8176 H   0  0  0  0  0  0  0  0  0  0  0  0
    1.5215   -3.9445    0.8025 H   0  0  0  0  0  0  0  0  0  0  0  0
  1  5  1  0
  5  6  1  0
  5  7  2  0
  1  2  1  0
  1  3  1  0
  1  4  1  0
  8 12  1  0
 12 15  1  0
  8  9  1  0
  8 10  1  0
  8 11  1  0
 12 13  1  0
 12 14  1  0
 15 16  1  0
 15 17  1  0
 15 18  1  0
M  CHG  1   6  -1
M  END
>  <PDB_ID>  (1371) 
pdb3gxa

>  <RESIDUE_NAME>  (1371) 
GLU   ARG

>  <FRAG_NAME>  (1371) 
ACET   PRPA

>  <FRAG_ATOM_NUM>  (1371) 
fragi: 7  fragj: 11

>  <atom.prop.CHAIN_ID>  (1371) 
A A A A A A A Z Z Z Z Z Z Z Z Z Z Z

>  <atom.prop.IS_HEAVY_ATOM>  (1371) 
1 0 0 0 1 1 1 1 0 0 0 1 0 0 1 0 0 0

>  <DIFUSE_FUNC_ATOM>  (1371) 
atom 6   atom 7   

>  <FINAL_SINGLE_POINT_ENERGY>  (1371) 
0

>  <NONCOV_INTER_ENERGY_QM>  (1371) 
0

>  <FF_Energy>  (1371) 
18.61

>  <QM_Energy>  (1371) 
-0.21

>  <source>  (1371) 
ACET_PRPA_14

>  <Index>  (1371) 
28496

$$$$
ACET-pdb3gxa-D-GLU-273:PRPA-pdb3gxa-E-ARG-202
     RDKit          3D

 18 16  0  0  0  0  0  0  0  0999 V2000
   -0.0124    1.5109    0.0038 C   0  0  0  0  0  0  0  0  0  0  0  0
    0.8756    1.8164   -0.2733 H   0  0  0  0  0  0  0  0  0  0  0  0
   -0.2536    1.8043    0.9058 H   0  0  0  0  0  0  0  0  0  0  0  0
   -0.7481    1.9041   -0.6977 H   0  0  0  0  0  0  0  0  0  0  0  0
    0.0000    0.0000    0.0000 C   0  0  0  0  0  0  0  0  0  0  0  0
   -1.1025   -0.5933    0.0000 O   0  0  0  0  0  1  0  0  0  0  0  0
    1.1025   -0.5930   -0.0000 O   0  0  0  0  0  0  0  0  0  0  0  0
    3.8725   -2.4601   -1.9086 C   0  0  0  0  0  0  0  0  0  0  0  0
    3.0325   -2.5777   -1.3318 H   0  0  0  0  0  0  0  0  0  0  0  0
    4.7442   -2.7133   -1.3051 H   0  0  0  0  0  0  0  0  0  0  0  0
    3.7465   -3.0493   -2.8169 H   0  0  0  0  0  0  0  0  0  0  0  0
    3.9015   -0.9774   -2.2586 C   0  0  0  0  0  0  0  0  0  0  0  0
    4.7806   -0.7634   -2.6593 H   0  0  0  0  0  0  0  0  0  0  0  0
    3.1660   -0.7873   -2.8940 H   0  0  0  0  0  0  0  0  0  0  0  0
    3.7109   -0.0747   -1.0372 C   0  0  0  0  0  0  0  0  0  0  0  0
    2.8916   -0.3558   -0.5453 H   0  0  0  0  0  0  0  0  0  0  0  0
    4.5083   -0.1500   -0.4459 H   0  0  0  0  0  0  0  0  0  0  0  0
    3.5963    0.9707   -1.3237 H   0  0  0  0  0  0  0  0  0  0  0  0
  1  5  1  0
  5  6  1  0
  5  7  2  0
  1  2  1  0
  1  3  1  0
  1  4  1  0
  8 12  1  0
 12 15  1  0
  8  9  1  0
  8 10  1  0
  8 11  1  0
 12 13  1  0
 12 14  1  0
 15 16  1  0
 15 17  1  0
 15 18  1  0
M  CHG  1   6  -1
M  END
>  <PDB_ID>  (1372) 
pdb3gxa

>  <RESIDUE_NAME>  (1372) 
GLU   ARG

>  <FRAG_NAME>  (1372) 
ACET   PRPA

>  <FRAG_ATOM_NUM>  (1372) 
fragi: 7  fragj: 11

>  <atom.prop.CHAIN_ID>  (1372) 
A A A A A A A Z Z Z Z Z Z Z Z Z Z Z

>  <atom.prop.IS_HEAVY_ATOM>  (1372) 
1 0 0 0 1 1 1 1 0 0 0 1 0 0 1 0 0 0

>  <DIFUSE_FUNC_ATOM>  (1372) 
atom 6   atom 7   

>  <FINAL_SINGLE_POINT_ENERGY>  (1372) 
0

>  <NONCOV_INTER_ENERGY_QM>  (1372) 
0

>  <FF_Energy>  (1372) 
14.8

>  <QM_Energy>  (1372) 
-1.69

>  <source>  (1372) 
ACET_PRPA_14

>  <Index>  (1372) 
29127

$$$$
ACET-pdb3gxa-D-GLU-273:PRPA-pdb3gxa-E-ARG-202
     RDKit          3D

 18 16  0  0  0  0  0  0  0  0999 V2000
   -0.0124    1.5109    0.0038 C   0  0  0  0  0  0  0  0  0  0  0  0
    0.8756    1.8164   -0.2733 H   0  0  0  0  0  0  0  0  0  0  0  0
   -0.2536    1.8043    0.9058 H   0  0  0  0  0  0  0  0  0  0  0  0
   -0.7481    1.9041   -0.6977 H   0  0  0  0  0  0  0  0  0  0  0  0
    0.0000    0.0000    0.0000 C   0  0  0  0  0  0  0  0  0  0  0  0
   -1.1025   -0.5933    0.0000 O   0  0  0  0  0  1  0  0  0  0  0  0
    1.1025   -0.5930   -0.0000 O   0  0  0  0  0  0  0  0  0  0  0  0
    3.9015   -0.9774   -2.2586 C   0  0  0  0  0  0  0  0  0  0  0  0
    4.7806   -0.7634   -2.6593 H   0  0  0  0  0  0  0  0  0  0  0  0
    3.1660   -0.7873   -2.8940 H   0  0  0  0  0  0  0  0  0  0  0  0
    3.8808   -2.0380   -2.0082 H   0  0  0  0  0  0  0  0  0  0  0  0
    3.7109   -0.0747   -1.0372 C   0  0  0  0  0  0  0  0  0  0  0  0
    2.8916   -0.3558   -0.5453 H   0  0  0  0  0  0  0  0  0  0  0  0
    4.5083   -0.1500   -0.4459 H   0  0  0  0  0  0  0  0  0  0  0  0
    3.5508    1.3857   -1.4374 C   0  0  0  0  0  0  0  0  0  0  0  0
    2.8060    1.4427   -2.1049 H   0  0  0  0  0  0  0  0  0  0  0  0
    3.2981    1.9034   -0.6170 H   0  0  0  0  0  0  0  0  0  0  0  0
    4.4529    1.8184   -1.8700 H   0  0  0  0  0  0  0  0  0  0  0  0
  1  5  1  0
  5  6  1  0
  5  7  2  0
  1  2  1  0
  1  3  1  0
  1  4  1  0
  8 12  1  0
 12 15  1  0
  8  9  1  0
  8 10  1  0
  8 11  1  0
 12 13  1  0
 12 14  1  0
 15 16  1  0
 15 17  1  0
 15 18  1  0
M  CHG  1   6  -1
M  END
>  <PDB_ID>  (1373) 
pdb3gxa

>  <RESIDUE_NAME>  (1373) 
GLU   ARG

>  <FRAG_NAME>  (1373) 
ACET   PRPA

>  <FRAG_ATOM_NUM>  (1373) 
fragi: 7  fragj: 11

>  <atom.prop.CHAIN_ID>  (1373) 
A A A A A A A Z Z Z Z Z Z Z Z Z Z Z

>  <atom.prop.IS_HEAVY_ATOM>  (1373) 
1 0 0 0 1 1 1 1 0 0 0 1 0 0 1 0 0 0

>  <DIFUSE_FUNC_ATOM>  (1373) 
atom 6   atom 7   

>  <FINAL_SINGLE_POINT_ENERGY>  (1373) 
0

>  <NONCOV_INTER_ENERGY_QM>  (1373) 
0

>  <FF_Energy>  (1373) 
17.26

>  <QM_Energy>  (1373) 
-2.04

>  <source>  (1373) 
ACET_PRPA_14

>  <Index>  (1373) 
29137

$$$$
ACET-pdb4ehq-A-GLU-104:PRPA-pdb4ehq-A-LYS-94
     RDKit          3D

 18 16  0  0  0  0  0  0  0  0999 V2000
    0.0101    1.5155    0.0094 C   0  0  0  0  0  0  0  0  0  0  0  0
    0.7648    1.8142   -0.5482 H   0  0  0  0  0  0  0  0  0  0  0  0
    0.1059    1.8090    0.9450 H   0  0  0  0  0  0  0  0  0  0  0  0
   -0.9009    1.9590   -0.3927 H   0  0  0  0  0  0  0  0  0  0  0  0
    0.0000    0.0000    0.0000 C   0  0  0  0  0  0  0  0  0  0  0  0
   -1.0916   -0.6061   -0.0000 O   0  0  0  0  0  1  0  0  0  0  0  0
    1.0916   -0.5996    0.0000 O   0  0  0  0  0  0  0  0  0  0  0  0
    2.6873   -0.1458   -3.4994 C   0  0  0  0  0  0  0  0  0  0  0  0
    2.8916   -0.1358   -4.4994 H   0  0  0  0  0  0  0  0  0  0  0  0
    1.6519   -0.4572   -3.3605 H   0  0  0  0  0  0  0  0  0  0  0  0
    3.4229   -0.7821   -3.0075 H   0  0  0  0  0  0  0  0  0  0  0  0
    2.8638    1.3337   -3.1286 C   0  0  0  0  0  0  0  0  0  0  0  0
    3.7544    1.6321   -3.4789 H   0  0  0  0  0  0  0  0  0  0  0  0
    2.1412    1.8531   -3.5932 H   0  0  0  0  0  0  0  0  0  0  0  0
    2.8015    1.6321   -1.6527 C   0  0  0  0  0  0  0  0  0  0  0  0
    1.9168    1.3396   -1.2895 H   0  0  0  0  0  0  0  0  0  0  0  0
    3.5340    1.1436   -1.1805 H   0  0  0  0  0  0  0  0  0  0  0  0
    2.9175    2.6985   -1.4594 H   0  0  0  0  0  0  0  0  0  0  0  0
  1  5  1  0
  5  6  1  0
  5  7  2  0
  1  2  1  0
  1  3  1  0
  1  4  1  0
  8 12  1  0
 12 15  1  0
  8  9  1  0
  8 10  1  0
  8 11  1  0
 12 13  1  0
 12 14  1  0
 15 16  1  0
 15 17  1  0
 15 18  1  0
M  CHG  1   6  -1
M  END
>  <PDB_ID>  (1374) 
pdb4ehq

>  <RESIDUE_NAME>  (1374) 
GLU   LYS

>  <FRAG_NAME>  (1374) 
ACET   PRPA

>  <FRAG_ATOM_NUM>  (1374) 
fragi: 7  fragj: 11

>  <atom.prop.CHAIN_ID>  (1374) 
A A A A A A A Z Z Z Z Z Z Z Z Z Z Z

>  <atom.prop.IS_HEAVY_ATOM>  (1374) 
1 0 0 0 1 1 1 1 0 0 0 1 0 0 1 0 0 0

>  <DIFUSE_FUNC_ATOM>  (1374) 
atom 6   atom 7   

>  <FINAL_SINGLE_POINT_ENERGY>  (1374) 
0

>  <NONCOV_INTER_ENERGY_QM>  (1374) 
0

>  <FF_Energy>  (1374) 
43.36

>  <QM_Energy>  (1374) 
4.25

>  <source>  (1374) 
ACET_PRPA_14

>  <Index>  (1374) 
30366

$$$$
ACET-pdb4ehq-A-GLU-104:PRPA-pdb4ehq-A-LYS-94
     RDKit          3D

 18 16  0  0  0  0  0  0  0  0999 V2000
    0.0101    1.5155    0.0094 C   0  0  0  0  0  0  0  0  0  0  0  0
    0.7648    1.8142   -0.5482 H   0  0  0  0  0  0  0  0  0  0  0  0
    0.1059    1.8090    0.9450 H   0  0  0  0  0  0  0  0  0  0  0  0
   -0.9009    1.9590   -0.3927 H   0  0  0  0  0  0  0  0  0  0  0  0
    0.0000    0.0000    0.0000 C   0  0  0  0  0  0  0  0  0  0  0  0
   -1.0916   -0.6061   -0.0000 O   0  0  0  0  0  1  0  0  0  0  0  0
    1.0916   -0.5996    0.0000 O   0  0  0  0  0  0  0  0  0  0  0  0
    2.8015    1.6321   -1.6527 C   0  0  0  0  0  0  0  0  0  0  0  0
    1.9168    1.3396   -1.2895 H   0  0  0  0  0  0  0  0  0  0  0  0
    3.5340    1.1436   -1.1805 H   0  0  0  0  0  0  0  0  0  0  0  0
    2.8465    1.4162   -2.7202 H   0  0  0  0  0  0  0  0  0  0  0  0
    2.9643    3.1282   -1.3815 C   0  0  0  0  0  0  0  0  0  0  0  0
    3.7630    3.4562   -1.8705 H   0  0  0  0  0  0  0  0  0  0  0  0
    2.1460    3.5997   -1.6854 H   0  0  0  0  0  0  0  0  0  0  0  0
    3.1587    3.3992    0.1075 C   0  0  0  0  0  0  0  0  0  0  0  0
    2.8940    2.5765    0.6214 H   0  0  0  0  0  0  0  0  0  0  0  0
    4.1334    3.5821    0.2778 H   0  0  0  0  0  0  0  0  0  0  0  0
    2.5683    4.2465    0.4562 H   0  0  0  0  0  0  0  0  0  0  0  0
  1  5  1  0
  5  6  1  0
  5  7  2  0
  1  2  1  0
  1  3  1  0
  1  4  1  0
  8 12  1  0
 12 15  1  0
  8  9  1  0
  8 10  1  0
  8 11  1  0
 12 13  1  0
 12 14  1  0
 15 16  1  0
 15 17  1  0
 15 18  1  0
M  CHG  1   6  -1
M  END
>  <PDB_ID>  (1375) 
pdb4ehq

>  <RESIDUE_NAME>  (1375) 
GLU   LYS

>  <FRAG_NAME>  (1375) 
ACET   PRPA

>  <FRAG_ATOM_NUM>  (1375) 
fragi: 7  fragj: 11

>  <atom.prop.CHAIN_ID>  (1375) 
A A A A A A A Z Z Z Z Z Z Z Z Z Z Z

>  <atom.prop.IS_HEAVY_ATOM>  (1375) 
1 0 0 0 1 1 1 1 0 0 0 1 0 0 1 0 0 0

>  <DIFUSE_FUNC_ATOM>  (1375) 
atom 6   atom 7   

>  <FINAL_SINGLE_POINT_ENERGY>  (1375) 
0

>  <NONCOV_INTER_ENERGY_QM>  (1375) 
0

>  <FF_Energy>  (1375) 
42.84

>  <QM_Energy>  (1375) 
3.44

>  <source>  (1375) 
ACET_PRPA_14

>  <Index>  (1375) 
30399

$$$$
ACET-pdb3gxa-F-GLU-231:PRPA-pdb3gxa-F-ARG-156
     RDKit          3D

 18 16  0  0  0  0  0  0  0  0999 V2000
   -0.0005    1.5192    0.0126 C   0  0  0  0  0  0  0  0  0  0  0  0
   -0.5292    1.8190   -0.7561 H   0  0  0  0  0  0  0  0  0  0  0  0
    0.9332    1.8129   -0.0318 H   0  0  0  0  0  0  0  0  0  0  0  0
   -0.4507    1.9172    0.9221 H   0  0  0  0  0  0  0  0  0  0  0  0
    0.0000    0.0000    0.0000 C   0  0  0  0  0  0  0  0  0  0  0  0
   -1.1031   -0.5961    0.0000 O   0  0  0  0  0  1  0  0  0  0  0  0
    1.1031   -0.5890   -0.0000 O   0  0  0  0  0  0  0  0  0  0  0  0
    3.9422   -2.2943    1.2754 C   0  0  0  0  0  0  0  0  0  0  0  0
    4.0986   -2.7802    2.1374 H   0  0  0  0  0  0  0  0  0  0  0  0
    3.2678   -1.5690    1.4255 H   0  0  0  0  0  0  0  0  0  0  0  0
    4.8802   -1.8246    0.9795 H   0  0  0  0  0  0  0  0  0  0  0  0
    3.3706   -3.2723    0.2782 C   0  0  0  0  0  0  0  0  0  0  0  0
    3.6602   -3.0333   -0.6354 H   0  0  0  0  0  0  0  0  0  0  0  0
    3.6402   -4.1928    0.5134 H   0  0  0  0  0  0  0  0  0  0  0  0
    1.8432   -3.2054    0.3207 C   0  0  0  0  0  0  0  0  0  0  0  0
    1.5867   -2.2508    0.4999 H   0  0  0  0  0  0  0  0  0  0  0  0
    1.5043   -3.4656   -0.5883 H   0  0  0  0  0  0  0  0  0  0  0  0
    1.3939   -3.8509    1.0753 H   0  0  0  0  0  0  0  0  0  0  0  0
  1  5  1  0
  5  6  1  0
  5  7  2  0
  1  2  1  0
  1  3  1  0
  1  4  1  0
  8 12  1  0
 12 15  1  0
  8  9  1  0
  8 10  1  0
  8 11  1  0
 12 13  1  0
 12 14  1  0
 15 16  1  0
 15 17  1  0
 15 18  1  0
M  CHG  1   6  -1
M  END
>  <PDB_ID>  (1376) 
pdb3gxa

>  <RESIDUE_NAME>  (1376) 
GLU   ARG

>  <FRAG_NAME>  (1376) 
ACET   PRPA

>  <FRAG_ATOM_NUM>  (1376) 
fragi: 7  fragj: 11

>  <atom.prop.CHAIN_ID>  (1376) 
A A A A A A A Z Z Z Z Z Z Z Z Z Z Z

>  <atom.prop.IS_HEAVY_ATOM>  (1376) 
1 0 0 0 1 1 1 1 0 0 0 1 0 0 1 0 0 0

>  <DIFUSE_FUNC_ATOM>  (1376) 
atom 6   atom 7   

>  <FINAL_SINGLE_POINT_ENERGY>  (1376) 
0

>  <NONCOV_INTER_ENERGY_QM>  (1376) 
0

>  <FF_Energy>  (1376) 
27.67

>  <QM_Energy>  (1376) 
0.57

>  <source>  (1376) 
ACET_PRPA_14

>  <Index>  (1376) 
30525

$$$$
ACET-pdb4egw-A-GLU-40:PRPA-pdb4egw-A-ILE-5
     RDKit          3D

 18 16  0  0  0  0  0  0  0  0999 V2000
    0.0050    1.5318    0.0230 C   0  0  0  0  0  0  0  0  0  0  0  0
   -0.1383    1.8401   -0.8975 H   0  0  0  0  0  0  0  0  0  0  0  0
    0.8722    1.8175    0.3848 H   0  0  0  0  0  0  0  0  0  0  0  0
   -0.7810    1.9550    0.6485 H   0  0  0  0  0  0  0  0  0  0  0  0
    0.0000    0.0000    0.0000 C   0  0  0  0  0  0  0  0  0  0  0  0
   -1.1019   -0.6015   -0.0000 O   0  0  0  0  0  1  0  0  0  0  0  0
    1.1019   -0.6023   -0.0000 O   0  0  0  0  0  0  0  0  0  0  0  0
    0.4850   -2.3719    4.4492 C   0  0  0  0  0  0  0  0  0  0  0  0
   -0.3747   -2.0940    4.9311 H   0  0  0  0  0  0  0  0  0  0  0  0
    1.1451   -2.7657    5.2220 H   0  0  0  0  0  0  0  0  0  0  0  0
    0.1872   -3.0674    3.6646 H   0  0  0  0  0  0  0  0  0  0  0  0
    0.9953   -1.0459    3.8473 C   0  0  0  0  0  0  0  0  0  0  0  0
    1.0200   -0.3696    4.5733 H   0  0  0  0  0  0  0  0  0  0  0  0
    2.0014   -1.1585    3.4435 H   0  0  0  0  0  0  0  0  0  0  0  0
    0.0289   -0.5451    2.7657 C   0  0  0  0  0  0  0  0  0  0  0  0
    0.0810    0.4573    2.7297 H   0  0  0  0  0  0  0  0  0  0  0  0
    0.3371   -0.9004    1.8776 H   0  0  0  0  0  0  0  0  0  0  0  0
   -1.0157   -0.8276    2.8964 H   0  0  0  0  0  0  0  0  0  0  0  0
  1  5  1  0
  5  6  1  0
  5  7  2  0
  1  2  1  0
  1  3  1  0
  1  4  1  0
  8 12  1  0
 12 15  1  0
  8  9  1  0
  8 10  1  0
  8 11  1  0
 12 13  1  0
 12 14  1  0
 15 16  1  0
 15 17  1  0
 15 18  1  0
M  CHG  1   6  -1
M  END
>  <PDB_ID>  (1377) 
pdb4egw

>  <RESIDUE_NAME>  (1377) 
GLU   ILE

>  <FRAG_NAME>  (1377) 
ACET   PRPA

>  <FRAG_ATOM_NUM>  (1377) 
fragi: 7  fragj: 11

>  <atom.prop.CHAIN_ID>  (1377) 
A A A A A A A Z Z Z Z Z Z Z Z Z Z Z

>  <atom.prop.IS_HEAVY_ATOM>  (1377) 
1 0 0 0 1 1 1 1 0 0 0 1 0 0 1 0 0 0

>  <DIFUSE_FUNC_ATOM>  (1377) 
atom 6   atom 7   

>  <FINAL_SINGLE_POINT_ENERGY>  (1377) 
0

>  <NONCOV_INTER_ENERGY_QM>  (1377) 
0

>  <FF_Energy>  (1377) 
18.96

>  <QM_Energy>  (1377) 
0.84

>  <source>  (1377) 
ACET_PRPA_14

>  <Index>  (1377) 
30533

$$$$
ACET-pdb4egw-A-GLU-40:PRPA-pdb4egw-A-ILE-5
     RDKit          3D

 18 16  0  0  0  0  0  0  0  0999 V2000
    0.0050    1.5318    0.0230 C   0  0  0  0  0  0  0  0  0  0  0  0
   -0.1383    1.8401   -0.8975 H   0  0  0  0  0  0  0  0  0  0  0  0
    0.8722    1.8175    0.3848 H   0  0  0  0  0  0  0  0  0  0  0  0
   -0.7810    1.9550    0.6485 H   0  0  0  0  0  0  0  0  0  0  0  0
    0.0000    0.0000    0.0000 C   0  0  0  0  0  0  0  0  0  0  0  0
   -1.1019   -0.6015   -0.0000 O   0  0  0  0  0  1  0  0  0  0  0  0
    1.1019   -0.6023   -0.0000 O   0  0  0  0  0  0  0  0  0  0  0  0
    0.9953   -1.0459    3.8473 C   0  0  0  0  0  0  0  0  0  0  0  0
    1.0200   -0.3696    4.5733 H   0  0  0  0  0  0  0  0  0  0  0  0
    0.6348   -1.9826    4.2724 H   0  0  0  0  0  0  0  0  0  0  0  0
    2.0014   -1.1585    3.4435 H   0  0  0  0  0  0  0  0  0  0  0  0
    0.0289   -0.5451    2.7657 C   0  0  0  0  0  0  0  0  0  0  0  0
    0.0810    0.4573    2.7297 H   0  0  0  0  0  0  0  0  0  0  0  0
    0.3371   -0.9004    1.8776 H   0  0  0  0  0  0  0  0  0  0  0  0
   -1.4461   -0.9440    2.9503 C   0  0  0  0  0  0  0  0  0  0  0  0
   -1.7697   -0.5753    3.8164 H   0  0  0  0  0  0  0  0  0  0  0  0
   -1.9739   -0.5674    2.1965 H   0  0  0  0  0  0  0  0  0  0  0  0
   -1.5091   -1.9369    2.9534 H   0  0  0  0  0  0  0  0  0  0  0  0
  1  5  1  0
  5  6  1  0
  5  7  2  0
  1  2  1  0
  1  3  1  0
  1  4  1  0
  8 12  1  0
 12 15  1  0
  8  9  1  0
  8 10  1  0
  8 11  1  0
 12 13  1  0
 12 14  1  0
 15 16  1  0
 15 17  1  0
 15 18  1  0
M  CHG  1   6  -1
M  END
>  <PDB_ID>  (1378) 
pdb4egw

>  <RESIDUE_NAME>  (1378) 
GLU   ILE

>  <FRAG_NAME>  (1378) 
ACET   PRPA

>  <FRAG_ATOM_NUM>  (1378) 
fragi: 7  fragj: 11

>  <atom.prop.CHAIN_ID>  (1378) 
A A A A A A A Z Z Z Z Z Z Z Z Z Z Z

>  <atom.prop.IS_HEAVY_ATOM>  (1378) 
1 0 0 0 1 1 1 1 0 0 0 1 0 0 1 0 0 0

>  <DIFUSE_FUNC_ATOM>  (1378) 
atom 6   atom 7   

>  <FINAL_SINGLE_POINT_ENERGY>  (1378) 
0

>  <NONCOV_INTER_ENERGY_QM>  (1378) 
0

>  <FF_Energy>  (1378) 
21.71

>  <QM_Energy>  (1378) 
0.19

>  <source>  (1378) 
ACET_PRPA_14

>  <Index>  (1378) 
30541

$$$$
ACET-pdb4egw-A-GLU-40:PRPA-pdb4egw-A-ILE-5
     RDKit          3D

 18 16  0  0  0  0  0  0  0  0999 V2000
    0.0050    1.5318    0.0230 C   0  0  0  0  0  0  0  0  0  0  0  0
   -0.1383    1.8401   -0.8975 H   0  0  0  0  0  0  0  0  0  0  0  0
    0.8722    1.8175    0.3848 H   0  0  0  0  0  0  0  0  0  0  0  0
   -0.7810    1.9550    0.6485 H   0  0  0  0  0  0  0  0  0  0  0  0
    0.0000    0.0000    0.0000 C   0  0  0  0  0  0  0  0  0  0  0  0
   -1.1019   -0.6015   -0.0000 O   0  0  0  0  0  1  0  0  0  0  0  0
    1.1019   -0.6023   -0.0000 O   0  0  0  0  0  0  0  0  0  0  0  0
    0.0289   -0.5451    2.7657 C   0  0  0  0  0  0  0  0  0  0  0  0
    0.0810    0.4573    2.7297 H   0  0  0  0  0  0  0  0  0  0  0  0
    0.3371   -0.9004    1.8776 H   0  0  0  0  0  0  0  0  0  0  0  0
   -1.0157   -0.8276    2.8964 H   0  0  0  0  0  0  0  0  0  0  0  0
    0.9953   -1.0459    3.8473 C   0  0  0  0  0  0  0  0  0  0  0  0
    1.0200   -0.3696    4.5733 H   0  0  0  0  0  0  0  0  0  0  0  0
    0.6348   -1.9826    4.2724 H   0  0  0  0  0  0  0  0  0  0  0  0
    2.3943   -1.2024    3.2857 C   0  0  0  0  0  0  0  0  0  0  0  0
    2.7214   -0.3211    2.9462 H   0  0  0  0  0  0  0  0  0  0  0  0
    3.0098   -1.5294    4.0024 H   0  0  0  0  0  0  0  0  0  0  0  0
    2.3839   -1.8614    2.5347 H   0  0  0  0  0  0  0  0  0  0  0  0
  1  5  1  0
  5  6  1  0
  5  7  2  0
  1  2  1  0
  1  3  1  0
  1  4  1  0
  8 12  1  0
 12 15  1  0
  8  9  1  0
  8 10  1  0
  8 11  1  0
 12 13  1  0
 12 14  1  0
 15 16  1  0
 15 17  1  0
 15 18  1  0
M  CHG  1   6  -1
M  END
>  <PDB_ID>  (1379) 
pdb4egw

>  <RESIDUE_NAME>  (1379) 
GLU   ILE

>  <FRAG_NAME>  (1379) 
ACET   PRPA

>  <FRAG_ATOM_NUM>  (1379) 
fragi: 7  fragj: 11

>  <atom.prop.CHAIN_ID>  (1379) 
A A A A A A A Z Z Z Z Z Z Z Z Z Z Z

>  <atom.prop.IS_HEAVY_ATOM>  (1379) 
1 0 0 0 1 1 1 1 0 0 0 1 0 0 1 0 0 0

>  <DIFUSE_FUNC_ATOM>  (1379) 
atom 6   atom 7   

>  <FINAL_SINGLE_POINT_ENERGY>  (1379) 
0

>  <NONCOV_INTER_ENERGY_QM>  (1379) 
0

>  <FF_Energy>  (1379) 
19.01

>  <QM_Energy>  (1379) 
0.84

>  <source>  (1379) 
ACET_PRPA_14

>  <Index>  (1379) 
30548

$$$$
ACET-pdb3hju-A-ASP-69:PRPA-pdb3hju-A-LYS-42
     RDKit          3D

 18 16  0  0  0  0  0  0  0  0999 V2000
   -0.0032    1.5140    0.0369 C   0  0  0  0  0  0  0  0  0  0  0  0
    0.5110    1.8516   -0.7406 H   0  0  0  0  0  0  0  0  0  0  0  0
    0.4056    1.8125    0.8878 H   0  0  0  0  0  0  0  0  0  0  0  0
   -1.0142    1.9176   -0.0187 H   0  0  0  0  0  0  0  0  0  0  0  0
    0.0000    0.0000    0.0000 C   0  0  0  0  0  0  0  0  0  0  0  0
   -1.1059   -0.6187   -0.0000 O   0  0  0  0  0  1  0  0  0  0  0  0
    1.1059   -0.5975    0.0000 O   0  0  0  0  0  0  0  0  0  0  0  0
    3.2147    3.5662    0.2197 C   0  0  0  0  0  0  0  0  0  0  0  0
    4.0675    3.2135    0.5931 H   0  0  0  0  0  0  0  0  0  0  0  0
    2.4383    3.1034    0.6356 H   0  0  0  0  0  0  0  0  0  0  0  0
    3.1484    4.6354    0.4208 H   0  0  0  0  0  0  0  0  0  0  0  0
    3.1966    3.2366   -1.3292 C   0  0  0  0  0  0  0  0  0  0  0  0
    2.5715    3.8655   -1.7623 H   0  0  0  0  0  0  0  0  0  0  0  0
    4.1160    3.3428   -1.6702 H   0  0  0  0  0  0  0  0  0  0  0  0
    2.7240    1.7906   -1.6002 C   0  0  0  0  0  0  0  0  0  0  0  0
    3.0885    1.1960   -0.8812 H   0  0  0  0  0  0  0  0  0  0  0  0
    1.7229    1.7706   -1.5688 H   0  0  0  0  0  0  0  0  0  0  0  0
    3.0559    1.4196   -2.5699 H   0  0  0  0  0  0  0  0  0  0  0  0
  1  5  1  0
  5  6  1  0
  5  7  2  0
  1  2  1  0
  1  3  1  0
  1  4  1  0
  8 12  1  0
 12 15  1  0
  8  9  1  0
  8 10  1  0
  8 11  1  0
 12 13  1  0
 12 14  1  0
 15 16  1  0
 15 17  1  0
 15 18  1  0
M  CHG  1   6  -1
M  END
>  <PDB_ID>  (1380) 
pdb3hju

>  <RESIDUE_NAME>  (1380) 
ASP   LYS

>  <FRAG_NAME>  (1380) 
ACET   PRPA

>  <FRAG_ATOM_NUM>  (1380) 
fragi: 7  fragj: 11

>  <atom.prop.CHAIN_ID>  (1380) 
A A A A A A A Z Z Z Z Z Z Z Z Z Z Z

>  <atom.prop.IS_HEAVY_ATOM>  (1380) 
1 0 0 0 1 1 1 1 0 0 0 1 0 0 1 0 0 0

>  <DIFUSE_FUNC_ATOM>  (1380) 
atom 6   atom 7   

>  <FINAL_SINGLE_POINT_ENERGY>  (1380) 
0

>  <NONCOV_INTER_ENERGY_QM>  (1380) 
0

>  <FF_Energy>  (1380) 
34.96

>  <QM_Energy>  (1380) 
3.72

>  <source>  (1380) 
ACET_PRPA_14

>  <Index>  (1380) 
31424

$$$$
ACET-pdb3hl4-A-GLU-187:PRPA-pdb3hl4-A-LYS-183
     RDKit          3D

 18 16  0  0  0  0  0  0  0  0999 V2000
    0.0753    1.5328    0.0072 C   0  0  0  0  0  0  0  0  0  0  0  0
    0.2797    1.8216   -0.9179 H   0  0  0  0  0  0  0  0  0  0  0  0
    0.8031    1.7884    0.6276 H   0  0  0  0  0  0  0  0  0  0  0  0
   -0.8321    2.0464    0.3247 H   0  0  0  0  0  0  0  0  0  0  0  0
    0.0000    0.0000    0.0000 C   0  0  0  0  0  0  0  0  0  0  0  0
   -1.1256   -0.6139    0.0000 O   0  0  0  0  0  1  0  0  0  0  0  0
    1.1256   -0.6012   -0.0000 O   0  0  0  0  0  0  0  0  0  0  0  0
   -0.0881   -2.0668    2.8215 C   0  0  0  0  0  0  0  0  0  0  0  0
   -1.0165   -2.1726    2.4704 H   0  0  0  0  0  0  0  0  0  0  0  0
    0.2320   -1.1370    2.6532 H   0  0  0  0  0  0  0  0  0  0  0  0
   -0.1339   -2.2030    3.9020 H   0  0  0  0  0  0  0  0  0  0  0  0
    0.8270   -3.0577    2.1845 C   0  0  0  0  0  0  0  0  0  0  0  0
    1.7674   -2.7164    2.2387 H   0  0  0  0  0  0  0  0  0  0  0  0
    0.7624   -3.9283    2.6766 H   0  0  0  0  0  0  0  0  0  0  0  0
    0.4777   -3.2854    0.7547 C   0  0  0  0  0  0  0  0  0  0  0  0
   -0.4151   -3.6977    0.6805 H   0  0  0  0  0  0  0  0  0  0  0  0
    0.5317   -2.4403    0.2477 H   0  0  0  0  0  0  0  0  0  0  0  0
    1.2131   -3.9789    0.3467 H   0  0  0  0  0  0  0  0  0  0  0  0
  1  5  1  0
  5  6  1  0
  5  7  2  0
  1  2  1  0
  1  3  1  0
  1  4  1  0
  8 12  1  0
 12 15  1  0
  8  9  1  0
  8 10  1  0
  8 11  1  0
 12 13  1  0
 12 14  1  0
 15 16  1  0
 15 17  1  0
 15 18  1  0
M  CHG  1   6  -1
M  END
>  <PDB_ID>  (1381) 
pdb3hl4

>  <RESIDUE_NAME>  (1381) 
GLU   LYS

>  <FRAG_NAME>  (1381) 
ACET   PRPA

>  <FRAG_ATOM_NUM>  (1381) 
fragi: 7  fragj: 11

>  <atom.prop.CHAIN_ID>  (1381) 
A A A A A A A Z Z Z Z Z Z Z Z Z Z Z

>  <atom.prop.IS_HEAVY_ATOM>  (1381) 
1 0 0 0 1 1 1 1 0 0 0 1 0 0 1 0 0 0

>  <DIFUSE_FUNC_ATOM>  (1381) 
atom 6   atom 7   

>  <FINAL_SINGLE_POINT_ENERGY>  (1381) 
0

>  <NONCOV_INTER_ENERGY_QM>  (1381) 
0

>  <FF_Energy>  (1381) 
12.82

>  <QM_Energy>  (1381) 
-2.55

>  <source>  (1381) 
ACET_PRPA_14

>  <Index>  (1381) 
31474

$$$$
ACET-pdb3hi7-A-GLU-90:PRPA-pdb3hi7-A-ARG-84
     RDKit          3D

 18 16  0  0  0  0  0  0  0  0999 V2000
    0.2509    1.5314    0.0147 C   0  0  0  0  0  0  0  0  0  0  0  0
    0.7449    1.7495   -0.8026 H   0  0  0  0  0  0  0  0  0  0  0  0
    0.7565    1.7309    0.8290 H   0  0  0  0  0  0  0  0  0  0  0  0
   -0.6663    2.1203    0.0267 H   0  0  0  0  0  0  0  0  0  0  0  0
    0.0000    0.0000    0.0000 C   0  0  0  0  0  0  0  0  0  0  0  0
   -1.0866   -0.5109    0.0000 O   0  0  0  0  0  1  0  0  0  0  0  0
    1.0866   -0.6208   -0.0000 O   0  0  0  0  0  0  0  0  0  0  0  0
    1.7579    5.9648    0.4325 C   0  0  0  0  0  0  0  0  0  0  0  0
    2.5830    5.6897   -0.0688 H   0  0  0  0  0  0  0  0  0  0  0  0
    1.8936    6.9800    0.8053 H   0  0  0  0  0  0  0  0  0  0  0  0
    0.9072    5.9208   -0.2475 H   0  0  0  0  0  0  0  0  0  0  0  0
    1.5829    4.9579    1.5724 C   0  0  0  0  0  0  0  0  0  0  0  0
    2.2014    5.2033    2.3074 H   0  0  0  0  0  0  0  0  0  0  0  0
    0.6405    4.9908    1.8798 H   0  0  0  0  0  0  0  0  0  0  0  0
    1.8926    3.5082    1.1662 C   0  0  0  0  0  0  0  0  0  0  0  0
    1.3710    3.2831    0.3508 H   0  0  0  0  0  0  0  0  0  0  0  0
    2.8668    3.4228    0.9918 H   0  0  0  0  0  0  0  0  0  0  0  0
    1.6171    2.8142    1.9602 H   0  0  0  0  0  0  0  0  0  0  0  0
  1  5  1  0
  5  6  1  0
  5  7  2  0
  1  2  1  0
  1  3  1  0
  1  4  1  0
  8 12  1  0
 12 15  1  0
  8  9  1  0
  8 10  1  0
  8 11  1  0
 12 13  1  0
 12 14  1  0
 15 16  1  0
 15 17  1  0
 15 18  1  0
M  CHG  1   6  -1
M  END
>  <PDB_ID>  (1382) 
pdb3hi7

>  <RESIDUE_NAME>  (1382) 
GLU   ARG

>  <FRAG_NAME>  (1382) 
ACET   PRPA

>  <FRAG_ATOM_NUM>  (1382) 
fragi: 7  fragj: 11

>  <atom.prop.CHAIN_ID>  (1382) 
A A A A A A A Z Z Z Z Z Z Z Z Z Z Z

>  <atom.prop.IS_HEAVY_ATOM>  (1382) 
1 0 0 0 1 1 1 1 0 0 0 1 0 0 1 0 0 0

>  <DIFUSE_FUNC_ATOM>  (1382) 
atom 6   atom 7   

>  <FINAL_SINGLE_POINT_ENERGY>  (1382) 
0

>  <NONCOV_INTER_ENERGY_QM>  (1382) 
0

>  <FF_Energy>  (1382) 
31.75

>  <QM_Energy>  (1382) 
10.06

>  <source>  (1382) 
ACET_PRPA_14

>  <Index>  (1382) 
31908

$$$$
ACET-pdb4eir-A-ASP-117:PRPA-pdb4eir-A-VAL-121
     RDKit          3D

 18 16  0  0  0  0  0  0  0  0999 V2000
    0.0402    1.5205   -0.0288 C   0  0  0  0  0  0  0  0  0  0  0  0
    0.2923    1.7959   -0.9231 H   0  0  0  0  0  0  0  0  0  0  0  0
    0.7165    1.8082    0.6043 H   0  0  0  0  0  0  0  0  0  0  0  0
   -0.9085    1.9862    0.2377 H   0  0  0  0  0  0  0  0  0  0  0  0
    0.0000    0.0000    0.0000 C   0  0  0  0  0  0  0  0  0  0  0  0
   -1.0985   -0.6007    0.0000 O   0  0  0  0  0  1  0  0  0  0  0  0
    1.0985   -0.5965   -0.0000 O   0  0  0  0  0  0  0  0  0  0  0  0
   -1.1372   -2.6172    3.1024 C   0  0  0  0  0  0  0  0  0  0  0  0
   -1.5958   -3.1654    3.7648 H   0  0  0  0  0  0  0  0  0  0  0  0
   -1.9019   -2.3643    2.3680 H   0  0  0  0  0  0  0  0  0  0  0  0
   -0.8299   -1.7464    3.6814 H   0  0  0  0  0  0  0  0  0  0  0  0
    0.0313   -3.4167    2.5162 C   0  0  0  0  0  0  0  0  0  0  0  0
   -0.2674   -4.3463    2.3188 H   0  0  0  0  0  0  0  0  0  0  0  0
    0.8368   -3.5285    3.2419 H   0  0  0  0  0  0  0  0  0  0  0  0
    0.5200   -2.8941    1.1892 C   0  0  0  0  0  0  0  0  0  0  0  0
   -0.1024   -3.0200    0.4579 H   0  0  0  0  0  0  0  0  0  0  0  0
    1.3217   -3.3737    0.9713 H   0  0  0  0  0  0  0  0  0  0  0  0
    0.7129   -1.9620    1.2807 H   0  0  0  0  0  0  0  0  0  0  0  0
  1  5  1  0
  5  6  1  0
  5  7  2  0
  1  2  1  0
  1  3  1  0
  1  4  1  0
  8 12  1  0
 12 15  1  0
  8  9  1  0
  8 10  1  0
  8 11  1  0
 12 13  1  0
 12 14  1  0
 15 16  1  0
 15 17  1  0
 15 18  1  0
M  CHG  1   6  -1
M  END
>  <PDB_ID>  (1383) 
pdb4eir

>  <RESIDUE_NAME>  (1383) 
ASP   VAL

>  <FRAG_NAME>  (1383) 
ACET   PRPA

>  <FRAG_ATOM_NUM>  (1383) 
fragi: 7  fragj: 11

>  <atom.prop.CHAIN_ID>  (1383) 
A A A A A A A Z Z Z Z Z Z Z Z Z Z Z

>  <atom.prop.IS_HEAVY_ATOM>  (1383) 
1 0 0 0 1 1 1 1 0 0 0 1 0 0 1 0 0 0

>  <DIFUSE_FUNC_ATOM>  (1383) 
atom 6   atom 7   

>  <FINAL_SINGLE_POINT_ENERGY>  (1383) 
0

>  <NONCOV_INTER_ENERGY_QM>  (1383) 
0

>  <FF_Energy>  (1383) 
18.91

>  <QM_Energy>  (1383) 
3.35

>  <source>  (1383) 
ACET_PRPA_14

>  <Index>  (1383) 
32209

$$$$
ACET-pdb3hiy-A-GLU-357:PRPA-pdb3hiy-A-ARG-170
     RDKit          3D

 18 16  0  0  0  0  0  0  0  0999 V2000
   -0.0120    1.5050   -0.0244 C   0  0  0  0  0  0  0  0  0  0  0  0
    0.9105    1.8113   -0.1524 H   0  0  0  0  0  0  0  0  0  0  0  0
   -0.4008    1.8160    0.8195 H   0  0  0  0  0  0  0  0  0  0  0  0
   -0.6182    1.8887   -0.8451 H   0  0  0  0  0  0  0  0  0  0  0  0
    0.0000    0.0000    0.0000 C   0  0  0  0  0  0  0  0  0  0  0  0
   -1.0981   -0.5907   -0.0000 O   0  0  0  0  0  1  0  0  0  0  0  0
    1.0981   -0.5913    0.0000 O   0  0  0  0  0  0  0  0  0  0  0  0
   -1.4618   -4.2301    0.6418 C   0  0  0  0  0  0  0  0  0  0  0  0
   -0.6332   -4.2341    1.2307 H   0  0  0  0  0  0  0  0  0  0  0  0
   -1.6990   -5.2615    0.3808 H   0  0  0  0  0  0  0  0  0  0  0  0
   -2.2595   -3.7115    1.1735 H   0  0  0  0  0  0  0  0  0  0  0  0
   -1.0822   -3.4146   -0.6141 C   0  0  0  0  0  0  0  0  0  0  0  0
   -1.8152   -3.5300   -1.2883 H   0  0  0  0  0  0  0  0  0  0  0  0
   -1.0324   -2.4483   -0.3507 H   0  0  0  0  0  0  0  0  0  0  0  0
    0.2415   -3.7842   -1.2910 C   0  0  0  0  0  0  0  0  0  0  0  0
    0.1296   -4.6389   -1.8004 H   0  0  0  0  0  0  0  0  0  0  0  0
    0.5082   -3.0548   -1.9233 H   0  0  0  0  0  0  0  0  0  0  0  0
    1.0636   -3.9260   -0.5896 H   0  0  0  0  0  0  0  0  0  0  0  0
  1  5  1  0
  5  6  1  0
  5  7  2  0
  1  2  1  0
  1  3  1  0
  1  4  1  0
  8 12  1  0
 12 15  1  0
  8  9  1  0
  8 10  1  0
  8 11  1  0
 12 13  1  0
 12 14  1  0
 15 16  1  0
 15 17  1  0
 15 18  1  0
M  CHG  1   6  -1
M  END
>  <PDB_ID>  (1384) 
pdb3hiy

>  <RESIDUE_NAME>  (1384) 
GLU   ARG

>  <FRAG_NAME>  (1384) 
ACET   PRPA

>  <FRAG_ATOM_NUM>  (1384) 
fragi: 7  fragj: 11

>  <atom.prop.CHAIN_ID>  (1384) 
A A A A A A A Z Z Z Z Z Z Z Z Z Z Z

>  <atom.prop.IS_HEAVY_ATOM>  (1384) 
1 0 0 0 1 1 1 1 0 0 0 1 0 0 1 0 0 0

>  <DIFUSE_FUNC_ATOM>  (1384) 
atom 6   atom 7   

>  <FINAL_SINGLE_POINT_ENERGY>  (1384) 
0

>  <NONCOV_INTER_ENERGY_QM>  (1384) 
0

>  <FF_Energy>  (1384) 
16.68

>  <QM_Energy>  (1384) 
-2.57

>  <source>  (1384) 
ACET_PRPA_14

>  <Index>  (1384) 
32594

$$$$
ACET-pdb3hiy-A-GLU-357:PRPA-pdb3hiy-A-ARG-170
     RDKit          3D

 18 16  0  0  0  0  0  0  0  0999 V2000
   -0.0120    1.5050   -0.0244 C   0  0  0  0  0  0  0  0  0  0  0  0
    0.9105    1.8113   -0.1524 H   0  0  0  0  0  0  0  0  0  0  0  0
   -0.4008    1.8160    0.8195 H   0  0  0  0  0  0  0  0  0  0  0  0
   -0.6182    1.8887   -0.8451 H   0  0  0  0  0  0  0  0  0  0  0  0
    0.0000    0.0000    0.0000 C   0  0  0  0  0  0  0  0  0  0  0  0
   -1.0981   -0.5907   -0.0000 O   0  0  0  0  0  1  0  0  0  0  0  0
    1.0981   -0.5913    0.0000 O   0  0  0  0  0  0  0  0  0  0  0  0
   -1.0822   -3.4146   -0.6141 C   0  0  0  0  0  0  0  0  0  0  0  0
   -1.8152   -3.5300   -1.2883 H   0  0  0  0  0  0  0  0  0  0  0  0
   -1.0324   -2.4483   -0.3507 H   0  0  0  0  0  0  0  0  0  0  0  0
   -1.3501   -3.9900    0.2720 H   0  0  0  0  0  0  0  0  0  0  0  0
    0.2415   -3.7842   -1.2910 C   0  0  0  0  0  0  0  0  0  0  0  0
    0.1296   -4.6389   -1.8004 H   0  0  0  0  0  0  0  0  0  0  0  0
    0.5082   -3.0548   -1.9233 H   0  0  0  0  0  0  0  0  0  0  0  0
    1.4083   -3.9854   -0.2954 C   0  0  0  0  0  0  0  0  0  0  0  0
    1.1174   -4.6692    0.3697 H   0  0  0  0  0  0  0  0  0  0  0  0
    2.1873   -4.3282   -0.8165 H   0  0  0  0  0  0  0  0  0  0  0  0
    1.6874   -3.0669    0.2208 H   0  0  0  0  0  0  0  0  0  0  0  0
  1  5  1  0
  5  6  1  0
  5  7  2  0
  1  2  1  0
  1  3  1  0
  1  4  1  0
  8 12  1  0
 12 15  1  0
  8  9  1  0
  8 10  1  0
  8 11  1  0
 12 13  1  0
 12 14  1  0
 15 16  1  0
 15 17  1  0
 15 18  1  0
M  CHG  1   6  -1
M  END
>  <PDB_ID>  (1385) 
pdb3hiy

>  <RESIDUE_NAME>  (1385) 
GLU   ARG

>  <FRAG_NAME>  (1385) 
ACET   PRPA

>  <FRAG_ATOM_NUM>  (1385) 
fragi: 7  fragj: 11

>  <atom.prop.CHAIN_ID>  (1385) 
A A A A A A A Z Z Z Z Z Z Z Z Z Z Z

>  <atom.prop.IS_HEAVY_ATOM>  (1385) 
1 0 0 0 1 1 1 1 0 0 0 1 0 0 1 0 0 0

>  <DIFUSE_FUNC_ATOM>  (1385) 
atom 6   atom 7   

>  <FINAL_SINGLE_POINT_ENERGY>  (1385) 
0

>  <NONCOV_INTER_ENERGY_QM>  (1385) 
0

>  <FF_Energy>  (1385) 
14.54

>  <QM_Energy>  (1385) 
-2.69

>  <source>  (1385) 
ACET_PRPA_14

>  <Index>  (1385) 
32603

$$$$
ACET-pdb4epl-A-GLU-58:PRPA-pdb4epl-A-LYS-29
     RDKit          3D

 18 16  0  0  0  0  0  0  0  0999 V2000
   -0.0057    1.5224    0.0043 C   0  0  0  0  0  0  0  0  0  0  0  0
    0.3819    1.8209   -0.8450 H   0  0  0  0  0  0  0  0  0  0  0  0
    0.5132    1.8165    0.7817 H   0  0  0  0  0  0  0  0  0  0  0  0
   -1.0123    1.9325    0.0858 H   0  0  0  0  0  0  0  0  0  0  0  0
    0.0000    0.0000    0.0000 C   0  0  0  0  0  0  0  0  0  0  0  0
   -1.1003   -0.5941   -0.0000 O   0  0  0  0  0  1  0  0  0  0  0  0
    1.1003   -0.6022   -0.0000 O   0  0  0  0  0  0  0  0  0  0  0  0
   -1.6612   -1.9551    4.3169 C   0  0  0  0  0  0  0  0  0  0  0  0
   -1.1395   -1.1735    3.9439 H   0  0  0  0  0  0  0  0  0  0  0  0
   -0.9556   -2.7025    4.6799 H   0  0  0  0  0  0  0  0  0  0  0  0
   -2.3141   -1.5942    5.1117 H   0  0  0  0  0  0  0  0  0  0  0  0
   -2.4726   -2.5047    3.1406 C   0  0  0  0  0  0  0  0  0  0  0  0
   -2.7572   -3.4316    3.3636 H   0  0  0  0  0  0  0  0  0  0  0  0
   -3.2699   -1.9218    3.0125 H   0  0  0  0  0  0  0  0  0  0  0  0
   -1.6935   -2.5462    1.8289 C   0  0  0  0  0  0  0  0  0  0  0  0
   -1.6083   -1.6124    1.4722 H   0  0  0  0  0  0  0  0  0  0  0  0
   -0.7778   -2.9131    2.0067 H   0  0  0  0  0  0  0  0  0  0  0  0
   -2.1832   -3.1664    1.0782 H   0  0  0  0  0  0  0  0  0  0  0  0
  1  5  1  0
  5  6  1  0
  5  7  2  0
  1  2  1  0
  1  3  1  0
  1  4  1  0
  8 12  1  0
 12 15  1  0
  8  9  1  0
  8 10  1  0
  8 11  1  0
 12 13  1  0
 12 14  1  0
 15 16  1  0
 15 17  1  0
 15 18  1  0
M  CHG  1   6  -1
M  END
>  <PDB_ID>  (1386) 
pdb4epl

>  <RESIDUE_NAME>  (1386) 
GLU   LYS

>  <FRAG_NAME>  (1386) 
ACET   PRPA

>  <FRAG_ATOM_NUM>  (1386) 
fragi: 7  fragj: 11

>  <atom.prop.CHAIN_ID>  (1386) 
A A A A A A A Z Z Z Z Z Z Z Z Z Z Z

>  <atom.prop.IS_HEAVY_ATOM>  (1386) 
1 0 0 0 1 1 1 1 0 0 0 1 0 0 1 0 0 0

>  <DIFUSE_FUNC_ATOM>  (1386) 
atom 6   atom 7   

>  <FINAL_SINGLE_POINT_ENERGY>  (1386) 
0

>  <NONCOV_INTER_ENERGY_QM>  (1386) 
0

>  <FF_Energy>  (1386) 
18.87

>  <QM_Energy>  (1386) 
1.08

>  <source>  (1386) 
ACET_PRPA_14

>  <Index>  (1386) 
34092

$$$$
ACET-pdb3hql-A-GLU-118:PRPA-pdb3hql-A-LYS-103
     RDKit          3D

 18 16  0  0  0  0  0  0  0  0999 V2000
    0.1712    1.4834    0.0137 C   0  0  0  0  0  0  0  0  0  0  0  0
    0.6909    1.7401   -0.8041 H   0  0  0  0  0  0  0  0  0  0  0  0
    0.7032    1.7237    0.8280 H   0  0  0  0  0  0  0  0  0  0  0  0
   -0.7387    2.0835    0.0255 H   0  0  0  0  0  0  0  0  0  0  0  0
    0.0000    0.0000    0.0000 C   0  0  0  0  0  0  0  0  0  0  0  0
   -1.0898   -0.5592   -0.0000 O   0  0  0  0  0  1  0  0  0  0  0  0
    1.0898   -0.6072   -0.0000 O   0  0  0  0  0  0  0  0  0  0  0  0
    1.6531    3.7101   -3.0624 C   0  0  0  0  0  0  0  0  0  0  0  0
    1.1578    4.1482   -2.3228 H   0  0  0  0  0  0  0  0  0  0  0  0
    1.1387    3.9081   -4.0028 H   0  0  0  0  0  0  0  0  0  0  0  0
    2.6435    4.1583   -3.1413 H   0  0  0  0  0  0  0  0  0  0  0  0
    1.7506    2.2006   -2.8496 C   0  0  0  0  0  0  0  0  0  0  0  0
    2.3105    1.8120   -3.5869 H   0  0  0  0  0  0  0  0  0  0  0  0
    2.2111    2.0335   -1.9728 H   0  0  0  0  0  0  0  0  0  0  0  0
    0.4131    1.4390   -2.8276 C   0  0  0  0  0  0  0  0  0  0  0  0
   -0.1945    1.8698   -2.1720 H   0  0  0  0  0  0  0  0  0  0  0  0
    0.0174    1.4510   -3.7360 H   0  0  0  0  0  0  0  0  0  0  0  0
    0.5679    0.4023   -2.5290 H   0  0  0  0  0  0  0  0  0  0  0  0
  1  5  1  0
  5  6  1  0
  5  7  2  0
  1  2  1  0
  1  3  1  0
  1  4  1  0
  8 12  1  0
 12 15  1  0
  8  9  1  0
  8 10  1  0
  8 11  1  0
 12 13  1  0
 12 14  1  0
 15 16  1  0
 15 17  1  0
 15 18  1  0
M  CHG  1   6  -1
M  END
>  <PDB_ID>  (1387) 
pdb3hql

>  <RESIDUE_NAME>  (1387) 
GLU   LYS

>  <FRAG_NAME>  (1387) 
ACET   PRPA

>  <FRAG_ATOM_NUM>  (1387) 
fragi: 7  fragj: 11

>  <atom.prop.CHAIN_ID>  (1387) 
A A A A A A A Z Z Z Z Z Z Z Z Z Z Z

>  <atom.prop.IS_HEAVY_ATOM>  (1387) 
1 0 0 0 1 1 1 1 0 0 0 1 0 0 1 0 0 0

>  <DIFUSE_FUNC_ATOM>  (1387) 
atom 6   atom 7   

>  <FINAL_SINGLE_POINT_ENERGY>  (1387) 
0

>  <NONCOV_INTER_ENERGY_QM>  (1387) 
0

>  <FF_Energy>  (1387) 
34.51

>  <QM_Energy>  (1387) 
5.64

>  <source>  (1387) 
ACET_PRPA_14

>  <Index>  (1387) 
34102

$$$$
ACET-pdb4e8c-A-GLU-369:PRPA-pdb4e8c-A-LYS-483
     RDKit          3D

 18 16  0  0  0  0  0  0  0  0999 V2000
   -0.0021    1.5173   -0.0056 C   0  0  0  0  0  0  0  0  0  0  0  0
    0.6177    1.8108   -0.7080 H   0  0  0  0  0  0  0  0  0  0  0  0
    0.2754    1.8167    0.8882 H   0  0  0  0  0  0  0  0  0  0  0  0
   -0.9875    1.9312   -0.2193 H   0  0  0  0  0  0  0  0  0  0  0  0
    0.0000    0.0000    0.0000 C   0  0  0  0  0  0  0  0  0  0  0  0
   -1.0949   -0.5943   -0.0000 O   0  0  0  0  0  1  0  0  0  0  0  0
    1.0949   -0.5970   -0.0000 O   0  0  0  0  0  0  0  0  0  0  0  0
    2.9061    1.8723   -2.0795 C   0  0  0  0  0  0  0  0  0  0  0  0
    2.1138    1.8444   -1.4768 H   0  0  0  0  0  0  0  0  0  0  0  0
    2.6415    1.6198   -3.0051 H   0  0  0  0  0  0  0  0  0  0  0  0
    3.3189    2.8811   -2.0848 H   0  0  0  0  0  0  0  0  0  0  0  0
    3.9413    0.8772   -1.5750 C   0  0  0  0  0  0  0  0  0  0  0  0
    4.7453    0.9230   -2.1637 H   0  0  0  0  0  0  0  0  0  0  0  0
    4.1906    1.1177   -0.6401 H   0  0  0  0  0  0  0  0  0  0  0  0
    3.4167   -0.5507   -1.5836 C   0  0  0  0  0  0  0  0  0  0  0  0
    4.0531   -1.1338   -1.0664 H   0  0  0  0  0  0  0  0  0  0  0  0
    2.5222   -0.5709   -1.1246 H   0  0  0  0  0  0  0  0  0  0  0  0
    3.3086   -0.9471   -2.5932 H   0  0  0  0  0  0  0  0  0  0  0  0
  1  5  1  0
  5  6  1  0
  5  7  2  0
  1  2  1  0
  1  3  1  0
  1  4  1  0
  8 12  1  0
 12 15  1  0
  8  9  1  0
  8 10  1  0
  8 11  1  0
 12 13  1  0
 12 14  1  0
 15 16  1  0
 15 17  1  0
 15 18  1  0
M  CHG  1   6  -1
M  END
>  <PDB_ID>  (1388) 
pdb4e8c

>  <RESIDUE_NAME>  (1388) 
GLU   LYS

>  <FRAG_NAME>  (1388) 
ACET   PRPA

>  <FRAG_ATOM_NUM>  (1388) 
fragi: 7  fragj: 11

>  <atom.prop.CHAIN_ID>  (1388) 
A A A A A A A Z Z Z Z Z Z Z Z Z Z Z

>  <atom.prop.IS_HEAVY_ATOM>  (1388) 
1 0 0 0 1 1 1 1 0 0 0 1 0 0 1 0 0 0

>  <DIFUSE_FUNC_ATOM>  (1388) 
atom 6   atom 7   

>  <FINAL_SINGLE_POINT_ENERGY>  (1388) 
0

>  <NONCOV_INTER_ENERGY_QM>  (1388) 
0

>  <FF_Energy>  (1388) 
30.45

>  <QM_Energy>  (1388) 
1.29

>  <source>  (1388) 
ACET_PRPA_14

>  <Index>  (1388) 
34412

$$$$
ACET-pdb3h5r-C-GLU-259:PRPA-pdb3h5r-C-LYS-262
     RDKit          3D

 18 16  0  0  0  0  0  0  0  0999 V2000
   -0.0115    1.5335   -0.0211 C   0  0  0  0  0  0  0  0  0  0  0  0
   -0.8828    1.8117   -0.3782 H   0  0  0  0  0  0  0  0  0  0  0  0
    0.7351    1.8207   -0.5918 H   0  0  0  0  0  0  0  0  0  0  0  0
    0.1157    1.9763    0.9668 H   0  0  0  0  0  0  0  0  0  0  0  0
    0.0000    0.0000    0.0000 C   0  0  0  0  0  0  0  0  0  0  0  0
   -1.0966   -0.5960   -0.0000 O   0  0  0  0  0  1  0  0  0  0  0  0
    1.0966   -0.6094    0.0000 O   0  0  0  0  0  0  0  0  0  0  0  0
    4.7988    1.7987   -0.9365 C   0  0  0  0  0  0  0  0  0  0  0  0
    5.0598    0.8414   -1.0623 H   0  0  0  0  0  0  0  0  0  0  0  0
    4.4551    1.9293   -0.0056 H   0  0  0  0  0  0  0  0  0  0  0  0
    5.6923    2.4115   -1.0558 H   0  0  0  0  0  0  0  0  0  0  0  0
    3.6742    2.1193   -1.9112 C   0  0  0  0  0  0  0  0  0  0  0  0
    3.4017    3.0747   -1.7894 H   0  0  0  0  0  0  0  0  0  0  0  0
    4.0055    1.9869   -2.8457 H   0  0  0  0  0  0  0  0  0  0  0  0
    2.4655    1.2302   -1.6852 C   0  0  0  0  0  0  0  0  0  0  0  0
    2.7424    0.2756   -1.8046 H   0  0  0  0  0  0  0  0  0  0  0  0
    2.1375    1.3644   -0.7489 H   0  0  0  0  0  0  0  0  0  0  0  0
    1.6500    1.4460   -2.3757 H   0  0  0  0  0  0  0  0  0  0  0  0
  1  5  1  0
  5  6  1  0
  5  7  2  0
  1  2  1  0
  1  3  1  0
  1  4  1  0
  8 12  1  0
 12 15  1  0
  8  9  1  0
  8 10  1  0
  8 11  1  0
 12 13  1  0
 12 14  1  0
 15 16  1  0
 15 17  1  0
 15 18  1  0
M  CHG  1   6  -1
M  END
>  <PDB_ID>  (1389) 
pdb3h5r

>  <RESIDUE_NAME>  (1389) 
GLU   LYS

>  <FRAG_NAME>  (1389) 
ACET   PRPA

>  <FRAG_ATOM_NUM>  (1389) 
fragi: 7  fragj: 11

>  <atom.prop.CHAIN_ID>  (1389) 
A A A A A A A Z Z Z Z Z Z Z Z Z Z Z

>  <atom.prop.IS_HEAVY_ATOM>  (1389) 
1 0 0 0 1 1 1 1 0 0 0 1 0 0 1 0 0 0

>  <DIFUSE_FUNC_ATOM>  (1389) 
atom 6   atom 7   

>  <FINAL_SINGLE_POINT_ENERGY>  (1389) 
0

>  <NONCOV_INTER_ENERGY_QM>  (1389) 
0

>  <FF_Energy>  (1389) 
45.71

>  <QM_Energy>  (1389) 
8.43

>  <source>  (1389) 
ACET_PRPA_14

>  <Index>  (1389) 
34472

$$$$
ACET-pdb4epu-A-GLU-381:PRPA-pdb4epu-A-GLN-466
     RDKit          3D

 18 16  0  0  0  0  0  0  0  0999 V2000
   -0.0002    1.5162   -0.0028 C   0  0  0  0  0  0  0  0  0  0  0  0
   -0.5923    1.8116   -0.7300 H   0  0  0  0  0  0  0  0  0  0  0  0
    0.9284    1.8123   -0.1370 H   0  0  0  0  0  0  0  0  0  0  0  0
   -0.3656    1.9423    0.9315 H   0  0  0  0  0  0  0  0  0  0  0  0
    0.0000    0.0000    0.0000 C   0  0  0  0  0  0  0  0  0  0  0  0
   -1.1045   -0.5936    0.0000 O   0  0  0  0  0  1  0  0  0  0  0  0
    1.1045   -0.5943    0.0000 O   0  0  0  0  0  0  0  0  0  0  0  0
    2.5347   -4.6902   -0.8281 C   0  0  0  0  0  0  0  0  0  0  0  0
    1.6800   -4.7958   -0.2816 H   0  0  0  0  0  0  0  0  0  0  0  0
    3.3536   -5.1086   -0.2428 H   0  0  0  0  0  0  0  0  0  0  0  0
    2.3686   -5.1729   -1.7912 H   0  0  0  0  0  0  0  0  0  0  0  0
    2.7769   -3.1959   -1.0498 C   0  0  0  0  0  0  0  0  0  0  0  0
    3.6766   -3.0766   -1.4745 H   0  0  0  0  0  0  0  0  0  0  0  0
    2.0726   -2.8458   -1.6734 H   0  0  0  0  0  0  0  0  0  0  0  0
    2.7395   -2.3646    0.2211 C   0  0  0  0  0  0  0  0  0  0  0  0
    1.8249   -2.4295    0.6199 H   0  0  0  0  0  0  0  0  0  0  0  0
    3.4108   -2.7322    0.8645 H   0  0  0  0  0  0  0  0  0  0  0  0
    2.9666   -1.3137    0.0422 H   0  0  0  0  0  0  0  0  0  0  0  0
  1  5  1  0
  5  6  1  0
  5  7  2  0
  1  2  1  0
  1  3  1  0
  1  4  1  0
  8 12  1  0
 12 15  1  0
  8  9  1  0
  8 10  1  0
  8 11  1  0
 12 13  1  0
 12 14  1  0
 15 16  1  0
 15 17  1  0
 15 18  1  0
M  CHG  1   6  -1
M  END
>  <PDB_ID>  (1390) 
pdb4epu

>  <RESIDUE_NAME>  (1390) 
GLU   GLN

>  <FRAG_NAME>  (1390) 
ACET   PRPA

>  <FRAG_ATOM_NUM>  (1390) 
fragi: 7  fragj: 11

>  <atom.prop.CHAIN_ID>  (1390) 
A A A A A A A Z Z Z Z Z Z Z Z Z Z Z

>  <atom.prop.IS_HEAVY_ATOM>  (1390) 
1 0 0 0 1 1 1 1 0 0 0 1 0 0 1 0 0 0

>  <DIFUSE_FUNC_ATOM>  (1390) 
atom 6   atom 7   

>  <FINAL_SINGLE_POINT_ENERGY>  (1390) 
0

>  <NONCOV_INTER_ENERGY_QM>  (1390) 
0

>  <FF_Energy>  (1390) 
26.29

>  <QM_Energy>  (1390) 
6.68

>  <source>  (1390) 
ACET_PRPA_14

>  <Index>  (1390) 
34994

$$$$
ACET-pdb3hhs-A-GLU-446:PRPA-pdb3hhs-A-GLN-452
     RDKit          3D

 18 16  0  0  0  0  0  0  0  0999 V2000
   -0.0083    1.4980   -0.0386 C   0  0  0  0  0  0  0  0  0  0  0  0
   -0.3213    1.7791   -0.9334 H   0  0  0  0  0  0  0  0  0  0  0  0
    0.9128    1.8126    0.1340 H   0  0  0  0  0  0  0  0  0  0  0  0
   -0.6645    1.9518    0.7041 H   0  0  0  0  0  0  0  0  0  0  0  0
    0.0000    0.0000    0.0000 C   0  0  0  0  0  0  0  0  0  0  0  0
   -1.1176   -0.5845    0.0000 O   0  0  0  0  0  1  0  0  0  0  0  0
    1.1176   -0.5922    0.0000 O   0  0  0  0  0  0  0  0  0  0  0  0
    3.9070    2.5837   -0.8912 C   0  0  0  0  0  0  0  0  0  0  0  0
    3.0762    2.4496   -0.2793 H   0  0  0  0  0  0  0  0  0  0  0  0
    3.5854    3.1763   -1.7476 H   0  0  0  0  0  0  0  0  0  0  0  0
    4.7128    2.9582   -0.2599 H   0  0  0  0  0  0  0  0  0  0  0  0
    4.3285    1.1700   -1.2673 C   0  0  0  0  0  0  0  0  0  0  0  0
    4.0488    1.0005   -2.2104 H   0  0  0  0  0  0  0  0  0  0  0  0
    5.3231    1.1101   -1.1959 H   0  0  0  0  0  0  0  0  0  0  0  0
    3.7136    0.1597   -0.3857 C   0  0  0  0  0  0  0  0  0  0  0  0
    3.6785    0.5081    0.5684 H   0  0  0  0  0  0  0  0  0  0  0  0
    2.7539   -0.0128   -0.6733 H   0  0  0  0  0  0  0  0  0  0  0  0
    4.2134   -0.8084   -0.3504 H   0  0  0  0  0  0  0  0  0  0  0  0
  1  5  1  0
  5  6  1  0
  5  7  2  0
  1  2  1  0
  1  3  1  0
  1  4  1  0
  8 12  1  0
 12 15  1  0
  8  9  1  0
  8 10  1  0
  8 11  1  0
 12 13  1  0
 12 14  1  0
 15 16  1  0
 15 17  1  0
 15 18  1  0
M  CHG  1   6  -1
M  END
>  <PDB_ID>  (1391) 
pdb3hhs

>  <RESIDUE_NAME>  (1391) 
GLU   GLN

>  <FRAG_NAME>  (1391) 
ACET   PRPA

>  <FRAG_ATOM_NUM>  (1391) 
fragi: 7  fragj: 11

>  <atom.prop.CHAIN_ID>  (1391) 
A A A A A A A Z Z Z Z Z Z Z Z Z Z Z

>  <atom.prop.IS_HEAVY_ATOM>  (1391) 
1 0 0 0 1 1 1 1 0 0 0 1 0 0 1 0 0 0

>  <DIFUSE_FUNC_ATOM>  (1391) 
atom 6   atom 7   

>  <FINAL_SINGLE_POINT_ENERGY>  (1391) 
0

>  <NONCOV_INTER_ENERGY_QM>  (1391) 
0

>  <FF_Energy>  (1391) 
18.15

>  <QM_Energy>  (1391) 
1.58

>  <source>  (1391) 
ACET_PRPA_14

>  <Index>  (1391) 
35551

$$$$
ACET-pdb4es5-A-GLU-343:PRPA-pdb4es5-A-LYS-353
     RDKit          3D

 18 16  0  0  0  0  0  0  0  0999 V2000
    0.0127    1.4947   -0.0583 C   0  0  0  0  0  0  0  0  0  0  0  0
    0.4943    1.7632   -0.8798 H   0  0  0  0  0  0  0  0  0  0  0  0
    0.4764    1.8269    0.7509 H   0  0  0  0  0  0  0  0  0  0  0  0
   -0.9813    1.9409   -0.0877 H   0  0  0  0  0  0  0  0  0  0  0  0
    0.0000    0.0000    0.0000 C   0  0  0  0  0  0  0  0  0  0  0  0
   -1.1209   -0.5843   -0.0000 O   0  0  0  0  0  1  0  0  0  0  0  0
    1.1209   -0.6177    0.0000 O   0  0  0  0  0  0  0  0  0  0  0  0
    0.4244   -1.4823   -2.5567 C   0  0  0  0  0  0  0  0  0  0  0  0
    1.2800   -0.9369   -2.5203 H   0  0  0  0  0  0  0  0  0  0  0  0
   -0.2649   -0.9944   -1.9940 H   0  0  0  0  0  0  0  0  0  0  0  0
    0.0769   -1.5611   -3.5868 H   0  0  0  0  0  0  0  0  0  0  0  0
    0.6885   -2.8159   -1.9286 C   0  0  0  0  0  0  0  0  0  0  0  0
    0.3252   -2.8058   -0.9885 H   0  0  0  0  0  0  0  0  0  0  0  0
    0.1919   -3.5220   -2.4503 H   0  0  0  0  0  0  0  0  0  0  0  0
    2.1241   -3.1627   -1.8899 C   0  0  0  0  0  0  0  0  0  0  0  0
    2.5234   -3.0631   -2.7875 H   0  0  0  0  0  0  0  0  0  0  0  0
    2.5920   -2.6060   -1.2212 H   0  0  0  0  0  0  0  0  0  0  0  0
    2.1767   -4.2085   -1.5870 H   0  0  0  0  0  0  0  0  0  0  0  0
  1  5  1  0
  5  6  1  0
  5  7  2  0
  1  2  1  0
  1  3  1  0
  1  4  1  0
  8 12  1  0
 12 15  1  0
  8  9  1  0
  8 10  1  0
  8 11  1  0
 12 13  1  0
 12 14  1  0
 15 16  1  0
 15 17  1  0
 15 18  1  0
M  CHG  1   6  -1
M  END
>  <PDB_ID>  (1392) 
pdb4es5

>  <RESIDUE_NAME>  (1392) 
GLU   LYS

>  <FRAG_NAME>  (1392) 
ACET   PRPA

>  <FRAG_ATOM_NUM>  (1392) 
fragi: 7  fragj: 11

>  <atom.prop.CHAIN_ID>  (1392) 
A A A A A A A Z Z Z Z Z Z Z Z Z Z Z

>  <atom.prop.IS_HEAVY_ATOM>  (1392) 
1 0 0 0 1 1 1 1 0 0 0 1 0 0 1 0 0 0

>  <DIFUSE_FUNC_ATOM>  (1392) 
atom 6   atom 7   

>  <FINAL_SINGLE_POINT_ENERGY>  (1392) 
0

>  <NONCOV_INTER_ENERGY_QM>  (1392) 
0

>  <FF_Energy>  (1392) 
11.8

>  <QM_Energy>  (1392) 
-3.66

>  <source>  (1392) 
ACET_PRPA_14

>  <Index>  (1392) 
36173

$$$$
ACET-pdb4egq-B-ASP-284:PRPA-pdb4egq-B-LEU-32
     RDKit          3D

 18 16  0  0  0  0  0  0  0  0999 V2000
    0.0390    1.5171   -0.0189 C   0  0  0  0  0  0  0  0  0  0  0  0
    0.5344    1.8120   -0.8358 H   0  0  0  0  0  0  0  0  0  0  0  0
    0.5229    1.8323    0.7961 H   0  0  0  0  0  0  0  0  0  0  0  0
   -0.9444    1.9871   -0.0318 H   0  0  0  0  0  0  0  0  0  0  0  0
    0.0000    0.0000    0.0000 C   0  0  0  0  0  0  0  0  0  0  0  0
   -1.0951   -0.5983   -0.0000 O   0  0  0  0  0  1  0  0  0  0  0  0
    1.0951   -0.5861   -0.0000 O   0  0  0  0  0  0  0  0  0  0  0  0
   -4.3053   -3.5491   -0.8571 C   0  0  0  0  0  0  0  0  0  0  0  0
   -4.9287   -3.0766   -1.4669 H   0  0  0  0  0  0  0  0  0  0  0  0
   -4.3825   -3.2027    0.0677 H   0  0  0  0  0  0  0  0  0  0  0  0
   -4.5819   -4.6034   -0.8453 H   0  0  0  0  0  0  0  0  0  0  0  0
   -2.8740   -3.2460   -1.3427 C   0  0  0  0  0  0  0  0  0  0  0  0
   -2.7653   -3.6125   -2.2633 H   0  0  0  0  0  0  0  0  0  0  0  0
   -2.1218   -3.7489   -0.7349 H   0  0  0  0  0  0  0  0  0  0  0  0
   -2.6364   -1.7457   -1.3571 C   0  0  0  0  0  0  0  0  0  0  0  0
   -2.7543   -1.3781   -0.4339 H   0  0  0  0  0  0  0  0  0  0  0  0
   -1.7060   -1.5559   -1.6732 H   0  0  0  0  0  0  0  0  0  0  0  0
   -3.2922   -1.3080   -1.9745 H   0  0  0  0  0  0  0  0  0  0  0  0
  1  5  1  0
  5  6  1  0
  5  7  2  0
  1  2  1  0
  1  3  1  0
  1  4  1  0
  8 12  1  0
 12 15  1  0
  8  9  1  0
  8 10  1  0
  8 11  1  0
 12 13  1  0
 12 14  1  0
 15 16  1  0
 15 17  1  0
 15 18  1  0
M  CHG  1   6  -1
M  END
>  <PDB_ID>  (1393) 
pdb4egq

>  <RESIDUE_NAME>  (1393) 
ASP   LEU

>  <FRAG_NAME>  (1393) 
ACET   PRPA

>  <FRAG_ATOM_NUM>  (1393) 
fragi: 7  fragj: 11

>  <atom.prop.CHAIN_ID>  (1393) 
A A A A A A A Z Z Z Z Z Z Z Z Z Z Z

>  <atom.prop.IS_HEAVY_ATOM>  (1393) 
1 0 0 0 1 1 1 1 0 0 0 1 0 0 1 0 0 0

>  <DIFUSE_FUNC_ATOM>  (1393) 
atom 6   atom 7   

>  <FINAL_SINGLE_POINT_ENERGY>  (1393) 
0

>  <NONCOV_INTER_ENERGY_QM>  (1393) 
0

>  <FF_Energy>  (1393) 
42.27

>  <QM_Energy>  (1393) 
10.96

>  <source>  (1393) 
ACET_PRPA_14

>  <Index>  (1393) 
36501

$$$$
ACET-pdb4egq-B-ASP-284:PRPA-pdb4egq-B-LEU-32
     RDKit          3D

 18 16  0  0  0  0  0  0  0  0999 V2000
    0.0390    1.5171   -0.0189 C   0  0  0  0  0  0  0  0  0  0  0  0
    0.5344    1.8120   -0.8358 H   0  0  0  0  0  0  0  0  0  0  0  0
    0.5229    1.8323    0.7961 H   0  0  0  0  0  0  0  0  0  0  0  0
   -0.9444    1.9871   -0.0318 H   0  0  0  0  0  0  0  0  0  0  0  0
    0.0000    0.0000    0.0000 C   0  0  0  0  0  0  0  0  0  0  0  0
   -1.0951   -0.5983   -0.0000 O   0  0  0  0  0  1  0  0  0  0  0  0
    1.0951   -0.5861   -0.0000 O   0  0  0  0  0  0  0  0  0  0  0  0
   -2.6364   -1.7457   -1.3571 C   0  0  0  0  0  0  0  0  0  0  0  0
   -2.7543   -1.3781   -0.4339 H   0  0  0  0  0  0  0  0  0  0  0  0
   -1.7060   -1.5559   -1.6732 H   0  0  0  0  0  0  0  0  0  0  0  0
   -3.2922   -1.3080   -1.9745 H   0  0  0  0  0  0  0  0  0  0  0  0
   -2.8740   -3.2460   -1.3427 C   0  0  0  0  0  0  0  0  0  0  0  0
   -2.7653   -3.6125   -2.2633 H   0  0  0  0  0  0  0  0  0  0  0  0
   -3.8860   -3.4603   -0.9994 H   0  0  0  0  0  0  0  0  0  0  0  0
   -1.8192   -3.9513   -0.4903 C   0  0  0  0  0  0  0  0  0  0  0  0
   -1.9629   -4.9399   -0.5362 H   0  0  0  0  0  0  0  0  0  0  0  0
   -0.9084   -3.7285   -0.8380 H   0  0  0  0  0  0  0  0  0  0  0  0
   -1.8994   -3.6442    0.4578 H   0  0  0  0  0  0  0  0  0  0  0  0
  1  5  1  0
  5  6  1  0
  5  7  2  0
  1  2  1  0
  1  3  1  0
  1  4  1  0
  8 12  1  0
 12 15  1  0
  8  9  1  0
  8 10  1  0
  8 11  1  0
 12 13  1  0
 12 14  1  0
 15 16  1  0
 15 17  1  0
 15 18  1  0
M  CHG  1   6  -1
M  END
>  <PDB_ID>  (1394) 
pdb4egq

>  <RESIDUE_NAME>  (1394) 
ASP   LEU

>  <FRAG_NAME>  (1394) 
ACET   PRPA

>  <FRAG_ATOM_NUM>  (1394) 
fragi: 7  fragj: 11

>  <atom.prop.CHAIN_ID>  (1394) 
A A A A A A A Z Z Z Z Z Z Z Z Z Z Z

>  <atom.prop.IS_HEAVY_ATOM>  (1394) 
1 0 0 0 1 1 1 1 0 0 0 1 0 0 1 0 0 0

>  <DIFUSE_FUNC_ATOM>  (1394) 
atom 6   atom 7   

>  <FINAL_SINGLE_POINT_ENERGY>  (1394) 
0

>  <NONCOV_INTER_ENERGY_QM>  (1394) 
0

>  <FF_Energy>  (1394) 
42.72

>  <QM_Energy>  (1394) 
10.85

>  <source>  (1394) 
ACET_PRPA_14

>  <Index>  (1394) 
36507

$$$$
ACET-pdb3hn6-A-ASP-177:PRPA-pdb3hn6-A-LYS-180
     RDKit          3D

 18 16  0  0  0  0  0  0  0  0999 V2000
    0.0380    1.5355   -0.0226 C   0  0  0  0  0  0  0  0  0  0  0  0
   -0.0232    1.8387   -0.9660 H   0  0  0  0  0  0  0  0  0  0  0  0
    0.8919    1.8363    0.3854 H   0  0  0  0  0  0  0  0  0  0  0  0
   -0.7785    1.9995    0.5306 H   0  0  0  0  0  0  0  0  0  0  0  0
    0.0000    0.0000    0.0000 C   0  0  0  0  0  0  0  0  0  0  0  0
   -1.1002   -0.6128   -0.0000 O   0  0  0  0  0  1  0  0  0  0  0  0
    1.1002   -0.6017    0.0000 O   0  0  0  0  0  0  0  0  0  0  0  0
    2.1658   -0.7076    4.2209 C   0  0  0  0  0  0  0  0  0  0  0  0
    2.8167   -1.4727    4.1080 H   0  0  0  0  0  0  0  0  0  0  0  0
    1.1898   -1.0085    3.8402 H   0  0  0  0  0  0  0  0  0  0  0  0
    2.1336   -0.4459    5.2785 H   0  0  0  0  0  0  0  0  0  0  0  0
    2.7478    0.4386    3.3634 C   0  0  0  0  0  0  0  0  0  0  0  0
    2.1176    1.2102    3.4183 H   0  0  0  0  0  0  0  0  0  0  0  0
    3.6288    0.6955    3.7568 H   0  0  0  0  0  0  0  0  0  0  0  0
    2.9542    0.0853    1.8998 C   0  0  0  0  0  0  0  0  0  0  0  0
    3.5868   -0.6878    1.8373 H   0  0  0  0  0  0  0  0  0  0  0  0
    2.0750   -0.1718    1.4983 H   0  0  0  0  0  0  0  0  0  0  0  0
    3.3664    0.9257    1.3412 H   0  0  0  0  0  0  0  0  0  0  0  0
  1  5  1  0
  5  6  1  0
  5  7  2  0
  1  2  1  0
  1  3  1  0
  1  4  1  0
  8 12  1  0
 12 15  1  0
  8  9  1  0
  8 10  1  0
  8 11  1  0
 12 13  1  0
 12 14  1  0
 15 16  1  0
 15 17  1  0
 15 18  1  0
M  CHG  1   6  -1
M  END
>  <PDB_ID>  (1395) 
pdb3hn6

>  <RESIDUE_NAME>  (1395) 
ASP   LYS

>  <FRAG_NAME>  (1395) 
ACET   PRPA

>  <FRAG_ATOM_NUM>  (1395) 
fragi: 7  fragj: 11

>  <atom.prop.CHAIN_ID>  (1395) 
A A A A A A A Z Z Z Z Z Z Z Z Z Z Z

>  <atom.prop.IS_HEAVY_ATOM>  (1395) 
1 0 0 0 1 1 1 1 0 0 0 1 0 0 1 0 0 0

>  <DIFUSE_FUNC_ATOM>  (1395) 
atom 6   atom 7   

>  <FINAL_SINGLE_POINT_ENERGY>  (1395) 
0

>  <NONCOV_INTER_ENERGY_QM>  (1395) 
0

>  <FF_Energy>  (1395) 
22.03

>  <QM_Energy>  (1395) 
1.73

>  <source>  (1395) 
ACET_PRPA_14

>  <Index>  (1395) 
36695

$$$$
ACET-pdb3hn6-A-GLU-175:PRPA-pdb3hn6-A-LYS-180
     RDKit          3D

 18 16  0  0  0  0  0  0  0  0999 V2000
    0.0127    1.5552    0.0030 C   0  0  0  0  0  0  0  0  0  0  0  0
    0.2192    1.8452   -0.9086 H   0  0  0  0  0  0  0  0  0  0  0  0
    0.6860    1.8382    0.6554 H   0  0  0  0  0  0  0  0  0  0  0  0
   -0.9392    2.0032    0.2883 H   0  0  0  0  0  0  0  0  0  0  0  0
    0.0000    0.0000    0.0000 C   0  0  0  0  0  0  0  0  0  0  0  0
   -1.1014   -0.6110    0.0000 O   0  0  0  0  0  1  0  0  0  0  0  0
    1.1014   -0.6140    0.0000 O   0  0  0  0  0  0  0  0  0  0  0  0
   -1.6783   -0.6008    4.4795 C   0  0  0  0  0  0  0  0  0  0  0  0
   -1.4146   -1.5582    4.6047 H   0  0  0  0  0  0  0  0  0  0  0  0
   -2.6538   -0.4970    4.6741 H   0  0  0  0  0  0  0  0  0  0  0  0
   -1.1086    0.0179    5.1729 H   0  0  0  0  0  0  0  0  0  0  0  0
   -1.4180   -0.2030    3.0381 C   0  0  0  0  0  0  0  0  0  0  0  0
   -1.6809    0.7544    2.9165 H   0  0  0  0  0  0  0  0  0  0  0  0
   -0.4414   -0.3078    2.8454 H   0  0  0  0  0  0  0  0  0  0  0  0
   -2.1970   -1.0477    2.0520 C   0  0  0  0  0  0  0  0  0  0  0  0
   -2.9683   -1.4745    2.5253 H   0  0  0  0  0  0  0  0  0  0  0  0
   -2.5403   -0.4608    1.3184 H   0  0  0  0  0  0  0  0  0  0  0  0
   -1.5624   -1.8240    1.6247 H   0  0  0  0  0  0  0  0  0  0  0  0
  1  5  1  0
  5  6  1  0
  5  7  2  0
  1  2  1  0
  1  3  1  0
  1  4  1  0
  8 12  1  0
 12 15  1  0
  8  9  1  0
  8 10  1  0
  8 11  1  0
 12 13  1  0
 12 14  1  0
 15 16  1  0
 15 17  1  0
 15 18  1  0
M  CHG  1   6  -1
M  END
>  <PDB_ID>  (1396) 
pdb3hn6

>  <RESIDUE_NAME>  (1396) 
GLU   LYS

>  <FRAG_NAME>  (1396) 
ACET   PRPA

>  <FRAG_ATOM_NUM>  (1396) 
fragi: 7  fragj: 11

>  <atom.prop.CHAIN_ID>  (1396) 
A A A A A A A Z Z Z Z Z Z Z Z Z Z Z

>  <atom.prop.IS_HEAVY_ATOM>  (1396) 
1 0 0 0 1 1 1 1 0 0 0 1 0 0 1 0 0 0

>  <DIFUSE_FUNC_ATOM>  (1396) 
atom 6   atom 7   

>  <FINAL_SINGLE_POINT_ENERGY>  (1396) 
0

>  <NONCOV_INTER_ENERGY_QM>  (1396) 
0

>  <FF_Energy>  (1396) 
33.86

>  <QM_Energy>  (1396) 
8.58

>  <source>  (1396) 
ACET_PRPA_14

>  <Index>  (1396) 
36700

$$$$
ACET-pdb4edb-C-GLU-223:PRPA-pdb4edb-C-LYS-218
     RDKit          3D

 18 16  0  0  0  0  0  0  0  0999 V2000
    0.0018    1.5143    0.0152 C   0  0  0  0  0  0  0  0  0  0  0  0
    0.9368    1.8112    0.0853 H   0  0  0  0  0  0  0  0  0  0  0  0
   -0.5389    1.8046    0.7840 H   0  0  0  0  0  0  0  0  0  0  0  0
   -0.4268    1.9470   -0.8888 H   0  0  0  0  0  0  0  0  0  0  0  0
    0.0000    0.0000    0.0000 C   0  0  0  0  0  0  0  0  0  0  0  0
   -1.0977   -0.5961   -0.0000 O   0  0  0  0  0  1  0  0  0  0  0  0
    1.0977   -0.5934   -0.0000 O   0  0  0  0  0  0  0  0  0  0  0  0
   -2.2326    2.0291    2.5893 C   0  0  0  0  0  0  0  0  0  0  0  0
   -1.7550    1.9290    1.7002 H   0  0  0  0  0  0  0  0  0  0  0  0
   -3.2564    2.3537    2.4034 H   0  0  0  0  0  0  0  0  0  0  0  0
   -2.1843    1.0760    3.1160 H   0  0  0  0  0  0  0  0  0  0  0  0
   -1.4477    3.1102    3.3548 C   0  0  0  0  0  0  0  0  0  0  0  0
   -1.5758    3.9824    2.8763 H   0  0  0  0  0  0  0  0  0  0  0  0
   -1.8401    3.1829    4.2757 H   0  0  0  0  0  0  0  0  0  0  0  0
    0.0539    2.8591    3.4941 C   0  0  0  0  0  0  0  0  0  0  0  0
    0.3883    2.4240    2.6550 H   0  0  0  0  0  0  0  0  0  0  0  0
    0.5198    3.7376    3.6166 H   0  0  0  0  0  0  0  0  0  0  0  0
    0.2878    2.2150    4.3418 H   0  0  0  0  0  0  0  0  0  0  0  0
  1  5  1  0
  5  6  1  0
  5  7  2  0
  1  2  1  0
  1  3  1  0
  1  4  1  0
  8 12  1  0
 12 15  1  0
  8  9  1  0
  8 10  1  0
  8 11  1  0
 12 13  1  0
 12 14  1  0
 15 16  1  0
 15 17  1  0
 15 18  1  0
M  CHG  1   6  -1
M  END
>  <PDB_ID>  (1397) 
pdb4edb

>  <RESIDUE_NAME>  (1397) 
GLU   LYS

>  <FRAG_NAME>  (1397) 
ACET   PRPA

>  <FRAG_ATOM_NUM>  (1397) 
fragi: 7  fragj: 11

>  <atom.prop.CHAIN_ID>  (1397) 
A A A A A A A Z Z Z Z Z Z Z Z Z Z Z

>  <atom.prop.IS_HEAVY_ATOM>  (1397) 
1 0 0 0 1 1 1 1 0 0 0 1 0 0 1 0 0 0

>  <DIFUSE_FUNC_ATOM>  (1397) 
atom 6   atom 7   

>  <FINAL_SINGLE_POINT_ENERGY>  (1397) 
0

>  <NONCOV_INTER_ENERGY_QM>  (1397) 
0

>  <FF_Energy>  (1397) 
20.82

>  <QM_Energy>  (1397) 
2.31

>  <source>  (1397) 
ACET_PRPA_14

>  <Index>  (1397) 
37273

$$$$
ACET-pdb4exq-A-GLU-107:PRPA-pdb4exq-A-LEU-183
     RDKit          3D

 18 16  0  0  0  0  0  0  0  0999 V2000
    0.1837    1.4875    0.0142 C   0  0  0  0  0  0  0  0  0  0  0  0
    0.7005    1.7388   -0.8032 H   0  0  0  0  0  0  0  0  0  0  0  0
    0.7122    1.7213    0.8299 H   0  0  0  0  0  0  0  0  0  0  0  0
   -0.7273    2.0859    0.0263 H   0  0  0  0  0  0  0  0  0  0  0  0
    0.0000    0.0000    0.0000 C   0  0  0  0  0  0  0  0  0  0  0  0
   -1.0893   -0.5545    0.0000 O   0  0  0  0  0  1  0  0  0  0  0  0
    1.0893   -0.6107   -0.0000 O   0  0  0  0  0  0  0  0  0  0  0  0
    3.3563    3.3898   -0.7376 C   0  0  0  0  0  0  0  0  0  0  0  0
    2.8004    4.1831   -0.4983 H   0  0  0  0  0  0  0  0  0  0  0  0
    3.0306    2.5866   -0.2411 H   0  0  0  0  0  0  0  0  0  0  0  0
    4.3118    3.5635   -0.5109 H   0  0  0  0  0  0  0  0  0  0  0  0
    3.2366    3.1289   -2.2487 C   0  0  0  0  0  0  0  0  0  0  0  0
    3.7940    2.3418   -2.4867 H   0  0  0  0  0  0  0  0  0  0  0  0
    3.5900    4.0014   -2.7983 H   0  0  0  0  0  0  0  0  0  0  0  0
    1.7883    2.8726   -2.6253 C   0  0  0  0  0  0  0  0  0  0  0  0
    1.7217    2.7034   -3.6093 H   0  0  0  0  0  0  0  0  0  0  0  0
    1.4480    2.0727   -2.1278 H   0  0  0  0  0  0  0  0  0  0  0  0
    1.2325    3.6712   -2.3873 H   0  0  0  0  0  0  0  0  0  0  0  0
  1  5  1  0
  5  6  1  0
  5  7  2  0
  1  2  1  0
  1  3  1  0
  1  4  1  0
  8 12  1  0
 12 15  1  0
  8  9  1  0
  8 10  1  0
  8 11  1  0
 12 13  1  0
 12 14  1  0
 15 16  1  0
 15 17  1  0
 15 18  1  0
M  CHG  1   6  -1
M  END
>  <PDB_ID>  (1398) 
pdb4exq

>  <RESIDUE_NAME>  (1398) 
GLU   LEU

>  <FRAG_NAME>  (1398) 
ACET   PRPA

>  <FRAG_ATOM_NUM>  (1398) 
fragi: 7  fragj: 11

>  <atom.prop.CHAIN_ID>  (1398) 
A A A A A A A Z Z Z Z Z Z Z Z Z Z Z

>  <atom.prop.IS_HEAVY_ATOM>  (1398) 
1 0 0 0 1 1 1 1 0 0 0 1 0 0 1 0 0 0

>  <DIFUSE_FUNC_ATOM>  (1398) 
atom 6   atom 7   

>  <FINAL_SINGLE_POINT_ENERGY>  (1398) 
0

>  <NONCOV_INTER_ENERGY_QM>  (1398) 
0

>  <FF_Energy>  (1398) 
16.85

>  <QM_Energy>  (1398) 
1.81

>  <source>  (1398) 
ACET_PRPA_14

>  <Index>  (1398) 
40159

$$$$
ACET-pdb3i3l-A-GLU-117:PRPA-pdb3i3l-A-LEU-59
     RDKit          3D

 18 16  0  0  0  0  0  0  0  0999 V2000
    0.0079    1.5141   -0.0423 C   0  0  0  0  0  0  0  0  0  0  0  0
   -0.0439    1.7754   -0.9909 H   0  0  0  0  0  0  0  0  0  0  0  0
    0.8513    1.8088    0.3744 H   0  0  0  0  0  0  0  0  0  0  0  0
   -0.8347    1.9450    0.4985 H   0  0  0  0  0  0  0  0  0  0  0  0
    0.0000    0.0000    0.0000 C   0  0  0  0  0  0  0  0  0  0  0  0
   -1.1144   -0.5686   -0.0000 O   0  0  0  0  0  1  0  0  0  0  0  0
    1.1144   -0.6001    0.0000 O   0  0  0  0  0  0  0  0  0  0  0  0
   -1.3160    2.1404   -5.3578 C   0  0  0  0  0  0  0  0  0  0  0  0
   -1.0032    2.7835   -6.0042 H   0  0  0  0  0  0  0  0  0  0  0  0
   -2.2530    2.1799   -5.1429 H   0  0  0  0  0  0  0  0  0  0  0  0
   -1.0752    1.1380   -5.7117 H   0  0  0  0  0  0  0  0  0  0  0  0
   -0.5340    2.3820   -4.0553 C   0  0  0  0  0  0  0  0  0  0  0  0
    0.2414    1.7544   -4.0370 H   0  0  0  0  0  0  0  0  0  0  0  0
   -0.1931    3.4169   -4.0293 H   0  0  0  0  0  0  0  0  0  0  0  0
   -1.3915    2.1013   -2.9376 C   0  0  0  0  0  0  0  0  0  0  0  0
   -1.7182    1.1395   -2.9446 H   0  0  0  0  0  0  0  0  0  0  0  0
   -0.9161    2.2471   -2.0521 H   0  0  0  0  0  0  0  0  0  0  0  0
   -2.2149    2.6953   -2.9355 H   0  0  0  0  0  0  0  0  0  0  0  0
  1  5  1  0
  5  6  1  0
  5  7  2  0
  1  2  1  0
  1  3  1  0
  1  4  1  0
  8 12  1  0
 12 15  1  0
  8  9  1  0
  8 10  1  0
  8 11  1  0
 12 13  1  0
 12 14  1  0
 15 16  1  0
 15 17  1  0
 15 18  1  0
M  CHG  1   6  -1
M  END
>  <PDB_ID>  (1399) 
pdb3i3l

>  <RESIDUE_NAME>  (1399) 
GLU   LEU

>  <FRAG_NAME>  (1399) 
ACET   PRPA

>  <FRAG_ATOM_NUM>  (1399) 
fragi: 7  fragj: 11

>  <atom.prop.CHAIN_ID>  (1399) 
A A A A A A A Z Z Z Z Z Z Z Z Z Z Z

>  <atom.prop.IS_HEAVY_ATOM>  (1399) 
1 0 0 0 1 1 1 1 0 0 0 1 0 0 1 0 0 0

>  <DIFUSE_FUNC_ATOM>  (1399) 
atom 6   atom 7   

>  <FINAL_SINGLE_POINT_ENERGY>  (1399) 
0

>  <NONCOV_INTER_ENERGY_QM>  (1399) 
0

>  <FF_Energy>  (1399) 
39.93

>  <QM_Energy>  (1399) 
4.46

>  <source>  (1399) 
ACET_PRPA_15

>  <Index>  (1399) 
3116

$$$$
ACET-pdb3i4t-A-GLU-183:PRPA-pdb3i4t-A-GLU-169
     RDKit          3D

 18 16  0  0  0  0  0  0  0  0999 V2000
    0.1813    1.4864    0.0152 C   0  0  0  0  0  0  0  0  0  0  0  0
    0.6998    1.7379   -0.8017 H   0  0  0  0  0  0  0  0  0  0  0  0
    0.7109    1.7200    0.8305 H   0  0  0  0  0  0  0  0  0  0  0  0
   -0.7294    2.0852    0.0272 H   0  0  0  0  0  0  0  0  0  0  0  0
    0.0000    0.0000    0.0000 C   0  0  0  0  0  0  0  0  0  0  0  0
   -1.0890   -0.5557    0.0000 O   0  0  0  0  0  1  0  0  0  0  0  0
    1.0890   -0.6109    0.0000 O   0  0  0  0  0  0  0  0  0  0  0  0
    3.1682    3.3287   -2.2678 C   0  0  0  0  0  0  0  0  0  0  0  0
    3.6878    4.1953   -2.2875 H   0  0  0  0  0  0  0  0  0  0  0  0
    2.3770    3.3684   -3.0164 H   0  0  0  0  0  0  0  0  0  0  0  0
    3.8516    2.4943   -2.4253 H   0  0  0  0  0  0  0  0  0  0  0  0
    2.6021    3.2885   -0.8430 C   0  0  0  0  0  0  0  0  0  0  0  0
    2.0544    2.4570   -0.7639 H   0  0  0  0  0  0  0  0  0  0  0  0
    3.3774    3.2402   -0.2152 H   0  0  0  0  0  0  0  0  0  0  0  0
    1.7286    4.4517   -0.3984 C   0  0  0  0  0  0  0  0  0  0  0  0
    1.9122    5.2199   -1.0104 H   0  0  0  0  0  0  0  0  0  0  0  0
    0.7751    4.1698   -0.4914 H   0  0  0  0  0  0  0  0  0  0  0  0
    1.8743    4.8003    0.6240 H   0  0  0  0  0  0  0  0  0  0  0  0
  1  5  1  0
  5  6  1  0
  5  7  2  0
  1  2  1  0
  1  3  1  0
  1  4  1  0
  8 12  1  0
 12 15  1  0
  8  9  1  0
  8 10  1  0
  8 11  1  0
 12 13  1  0
 12 14  1  0
 15 16  1  0
 15 17  1  0
 15 18  1  0
M  CHG  1   6  -1
M  END
>  <PDB_ID>  (1400) 
pdb3i4t

>  <RESIDUE_NAME>  (1400) 
GLU   GLU

>  <FRAG_NAME>  (1400) 
ACET   PRPA

>  <FRAG_ATOM_NUM>  (1400) 
fragi: 7  fragj: 11

>  <atom.prop.CHAIN_ID>  (1400) 
A A A A A A A Z Z Z Z Z Z Z Z Z Z Z

>  <atom.prop.IS_HEAVY_ATOM>  (1400) 
1 0 0 0 1 1 1 1 0 0 0 1 0 0 1 0 0 0

>  <DIFUSE_FUNC_ATOM>  (1400) 
atom 6   atom 7   

>  <FINAL_SINGLE_POINT_ENERGY>  (1400) 
0

>  <NONCOV_INTER_ENERGY_QM>  (1400) 
0

>  <FF_Energy>  (1400) 
28.66

>  <QM_Energy>  (1400) 
3.52

>  <source>  (1400) 
ACET_PRPA_15

>  <Index>  (1400) 
3399

$$$$
ACET-pdb4f0q-A-GLU-97:PRPA-pdb4f0q-A-LYS-93
     RDKit          3D

 18 16  0  0  0  0  0  0  0  0999 V2000
    0.1715    1.4855    0.0119 C   0  0  0  0  0  0  0  0  0  0  0  0
    0.6904    1.7406   -0.8061 H   0  0  0  0  0  0  0  0  0  0  0  0
    0.7020    1.7259    0.8260 H   0  0  0  0  0  0  0  0  0  0  0  0
   -0.7391    2.0846    0.0228 H   0  0  0  0  0  0  0  0  0  0  0  0
    0.0000    0.0000    0.0000 C   0  0  0  0  0  0  0  0  0  0  0  0
   -1.0897   -0.5583   -0.0000 O   0  0  0  0  0  1  0  0  0  0  0  0
    1.0897   -0.6063   -0.0000 O   0  0  0  0  0  0  0  0  0  0  0  0
    4.5529    2.5198   -1.9032 C   0  0  0  0  0  0  0  0  0  0  0  0
    5.2243    2.5337   -2.6900 H   0  0  0  0  0  0  0  0  0  0  0  0
    4.6382    1.5554   -1.4024 H   0  0  0  0  0  0  0  0  0  0  0  0
    4.7171    3.4161   -1.3052 H   0  0  0  0  0  0  0  0  0  0  0  0
    3.2070    2.6201   -2.6354 C   0  0  0  0  0  0  0  0  0  0  0  0
    2.7817    3.4893   -2.3825 H   0  0  0  0  0  0  0  0  0  0  0  0
    3.3896    2.6145   -3.6190 H   0  0  0  0  0  0  0  0  0  0  0  0
    2.2276    1.4987   -2.3228 C   0  0  0  0  0  0  0  0  0  0  0  0
    2.6438    0.6230   -2.5769 H   0  0  0  0  0  0  0  0  0  0  0  0
    2.0354    1.4987   -1.3402 H   0  0  0  0  0  0  0  0  0  0  0  0
    1.2915    1.6170   -2.8683 H   0  0  0  0  0  0  0  0  0  0  0  0
  1  5  1  0
  5  6  1  0
  5  7  2  0
  1  2  1  0
  1  3  1  0
  1  4  1  0
  8 12  1  0
 12 15  1  0
  8  9  1  0
  8 10  1  0
  8 11  1  0
 12 13  1  0
 12 14  1  0
 15 16  1  0
 15 17  1  0
 15 18  1  0
M  CHG  1   6  -1
M  END
>  <PDB_ID>  (1401) 
pdb4f0q

>  <RESIDUE_NAME>  (1401) 
GLU   LYS

>  <FRAG_NAME>  (1401) 
ACET   PRPA

>  <FRAG_ATOM_NUM>  (1401) 
fragi: 7  fragj: 11

>  <atom.prop.CHAIN_ID>  (1401) 
A A A A A A A Z Z Z Z Z Z Z Z Z Z Z

>  <atom.prop.IS_HEAVY_ATOM>  (1401) 
1 0 0 0 1 1 1 1 0 0 0 1 0 0 1 0 0 0

>  <DIFUSE_FUNC_ATOM>  (1401) 
atom 6   atom 7   

>  <FINAL_SINGLE_POINT_ENERGY>  (1401) 
0

>  <NONCOV_INTER_ENERGY_QM>  (1401) 
0

>  <FF_Energy>  (1401) 
42.78

>  <QM_Energy>  (1401) 
6.01

>  <source>  (1401) 
ACET_PRPA_15

>  <Index>  (1401) 
3562

$$$$
ACET-pdb3i2b-A-ASP-102:PRPA-pdb3i2b-A-LYS-29
     RDKit          3D

 18 16  0  0  0  0  0  0  0  0999 V2000
    0.0515    1.5113   -0.0166 C   0  0  0  0  0  0  0  0  0  0  0  0
    0.5312    1.8136   -0.8334 H   0  0  0  0  0  0  0  0  0  0  0  0
    0.5201    1.8328    0.7987 H   0  0  0  0  0  0  0  0  0  0  0  0
   -0.9330    1.9789   -0.0287 H   0  0  0  0  0  0  0  0  0  0  0  0
    0.0000    0.0000    0.0000 C   0  0  0  0  0  0  0  0  0  0  0  0
   -1.0947   -0.5993   -0.0000 O   0  0  0  0  0  1  0  0  0  0  0  0
    1.0947   -0.5947    0.0000 O   0  0  0  0  0  0  0  0  0  0  0  0
   -2.4011    0.6007    4.5031 C   0  0  0  0  0  0  0  0  0  0  0  0
   -3.0940   -0.1023    4.6727 H   0  0  0  0  0  0  0  0  0  0  0  0
   -2.8459    1.4248    4.1495 H   0  0  0  0  0  0  0  0  0  0  0  0
   -1.9034    0.8414    5.4425 H   0  0  0  0  0  0  0  0  0  0  0  0
   -1.4220    0.0869    3.4660 C   0  0  0  0  0  0  0  0  0  0  0  0
   -0.7293    0.7902    3.3005 H   0  0  0  0  0  0  0  0  0  0  0  0
   -0.9773   -0.7370    3.8217 H   0  0  0  0  0  0  0  0  0  0  0  0
   -2.0887   -0.2541    2.1525 C   0  0  0  0  0  0  0  0  0  0  0  0
   -3.0812   -0.2218    2.2703 H   0  0  0  0  0  0  0  0  0  0  0  0
   -1.8155    0.4174    1.4616 H   0  0  0  0  0  0  0  0  0  0  0  0
   -1.7984   -1.2503    1.8187 H   0  0  0  0  0  0  0  0  0  0  0  0
  1  5  1  0
  5  6  1  0
  5  7  2  0
  1  2  1  0
  1  3  1  0
  1  4  1  0
  8 12  1  0
 12 15  1  0
  8  9  1  0
  8 10  1  0
  8 11  1  0
 12 13  1  0
 12 14  1  0
 15 16  1  0
 15 17  1  0
 15 18  1  0
M  CHG  1   6  -1
M  END
>  <PDB_ID>  (1402) 
pdb3i2b

>  <RESIDUE_NAME>  (1402) 
ASP   LYS

>  <FRAG_NAME>  (1402) 
ACET   PRPA

>  <FRAG_ATOM_NUM>  (1402) 
fragi: 7  fragj: 11

>  <atom.prop.CHAIN_ID>  (1402) 
A A A A A A A Z Z Z Z Z Z Z Z Z Z Z

>  <atom.prop.IS_HEAVY_ATOM>  (1402) 
1 0 0 0 1 1 1 1 0 0 0 1 0 0 1 0 0 0

>  <DIFUSE_FUNC_ATOM>  (1402) 
atom 6   atom 7   

>  <FINAL_SINGLE_POINT_ENERGY>  (1402) 
0

>  <NONCOV_INTER_ENERGY_QM>  (1402) 
0

>  <FF_Energy>  (1402) 
36.6

>  <QM_Energy>  (1402) 
12.52

>  <source>  (1402) 
ACET_PRPA_15

>  <Index>  (1402) 
4574

$$$$
ACET-pdb4f2d-B-GLU-132:PRPA-pdb4f2d-A-VAL-190
     RDKit          3D

 18 16  0  0  0  0  0  0  0  0999 V2000
    0.0594    1.5184   -0.0154 C   0  0  0  0  0  0  0  0  0  0  0  0
    0.6442    1.7868   -0.7744 H   0  0  0  0  0  0  0  0  0  0  0  0
    0.4593    1.8098    0.8474 H   0  0  0  0  0  0  0  0  0  0  0  0
   -0.8951    2.0315   -0.1325 H   0  0  0  0  0  0  0  0  0  0  0  0
    0.0000    0.0000    0.0000 C   0  0  0  0  0  0  0  0  0  0  0  0
   -1.0890   -0.6055   -0.0000 O   0  0  0  0  0  1  0  0  0  0  0  0
    1.0890   -0.6020   -0.0000 O   0  0  0  0  0  0  0  0  0  0  0  0
   -3.2205   -3.6863    0.5067 C   0  0  0  0  0  0  0  0  0  0  0  0
   -3.4718   -4.0446    1.4223 H   0  0  0  0  0  0  0  0  0  0  0  0
   -2.1339   -3.6104    0.4667 H   0  0  0  0  0  0  0  0  0  0  0  0
   -3.6337   -4.3613   -0.2426 H   0  0  0  0  0  0  0  0  0  0  0  0
   -3.8893   -2.3178    0.2958 C   0  0  0  0  0  0  0  0  0  0  0  0
   -3.7976   -2.0794   -0.6655 H   0  0  0  0  0  0  0  0  0  0  0  0
   -4.9566   -2.3820    0.5074 H   0  0  0  0  0  0  0  0  0  0  0  0
   -3.2519   -1.2673    1.1773 C   0  0  0  0  0  0  0  0  0  0  0  0
   -3.4948   -1.4396    2.1331 H   0  0  0  0  0  0  0  0  0  0  0  0
   -2.2561   -1.3043    1.0753 H   0  0  0  0  0  0  0  0  0  0  0  0
   -3.5808   -0.3604    0.9088 H   0  0  0  0  0  0  0  0  0  0  0  0
  1  5  1  0
  5  6  1  0
  5  7  2  0
  1  2  1  0
  1  3  1  0
  1  4  1  0
  8 12  1  0
 12 15  1  0
  8  9  1  0
  8 10  1  0
  8 11  1  0
 12 13  1  0
 12 14  1  0
 15 16  1  0
 15 17  1  0
 15 18  1  0
M  CHG  1   6  -1
M  END
>  <PDB_ID>  (1403) 
pdb4f2d

>  <RESIDUE_NAME>  (1403) 
GLU   VAL

>  <FRAG_NAME>  (1403) 
ACET   PRPA

>  <FRAG_ATOM_NUM>  (1403) 
fragi: 7  fragj: 11

>  <atom.prop.CHAIN_ID>  (1403) 
A A A A A A A Z Z Z Z Z Z Z Z Z Z Z

>  <atom.prop.IS_HEAVY_ATOM>  (1403) 
1 0 0 0 1 1 1 1 0 0 0 1 0 0 1 0 0 0

>  <DIFUSE_FUNC_ATOM>  (1403) 
atom 6   atom 7   

>  <FINAL_SINGLE_POINT_ENERGY>  (1403) 
0

>  <NONCOV_INTER_ENERGY_QM>  (1403) 
0

>  <FF_Energy>  (1403) 
49.58

>  <QM_Energy>  (1403) 
4.21

>  <source>  (1403) 
ACET_PRPA_15

>  <Index>  (1403) 
4983

$$$$
ACET-pdb4f2d-B-GLU-132:PRPA-pdb4f2d-A-VAL-190
     RDKit          3D

 18 16  0  0  0  0  0  0  0  0999 V2000
    0.0594    1.5184   -0.0154 C   0  0  0  0  0  0  0  0  0  0  0  0
    0.6442    1.7868   -0.7744 H   0  0  0  0  0  0  0  0  0  0  0  0
    0.4593    1.8098    0.8474 H   0  0  0  0  0  0  0  0  0  0  0  0
   -0.8951    2.0315   -0.1325 H   0  0  0  0  0  0  0  0  0  0  0  0
    0.0000    0.0000    0.0000 C   0  0  0  0  0  0  0  0  0  0  0  0
   -1.0890   -0.6055   -0.0000 O   0  0  0  0  0  1  0  0  0  0  0  0
    1.0890   -0.6020   -0.0000 O   0  0  0  0  0  0  0  0  0  0  0  0
   -5.3793   -2.4075    0.5912 C   0  0  0  0  0  0  0  0  0  0  0  0
   -5.6676   -1.5998    1.1061 H   0  0  0  0  0  0  0  0  0  0  0  0
   -5.8881   -2.4532   -0.2682 H   0  0  0  0  0  0  0  0  0  0  0  0
   -5.5646   -3.2284    1.1311 H   0  0  0  0  0  0  0  0  0  0  0  0
   -3.8893   -2.3178    0.2958 C   0  0  0  0  0  0  0  0  0  0  0  0
   -3.7976   -2.0794   -0.6655 H   0  0  0  0  0  0  0  0  0  0  0  0
   -3.4152   -3.2879    0.4453 H   0  0  0  0  0  0  0  0  0  0  0  0
   -3.2519   -1.2673    1.1773 C   0  0  0  0  0  0  0  0  0  0  0  0
   -3.4948   -1.4396    2.1331 H   0  0  0  0  0  0  0  0  0  0  0  0
   -2.2561   -1.3043    1.0753 H   0  0  0  0  0  0  0  0  0  0  0  0
   -3.5808   -0.3604    0.9088 H   0  0  0  0  0  0  0  0  0  0  0  0
  1  5  1  0
  5  6  1  0
  5  7  2  0
  1  2  1  0
  1  3  1  0
  1  4  1  0
  8 12  1  0
 12 15  1  0
  8  9  1  0
  8 10  1  0
  8 11  1  0
 12 13  1  0
 12 14  1  0
 15 16  1  0
 15 17  1  0
 15 18  1  0
M  CHG  1   6  -1
M  END
>  <PDB_ID>  (1404) 
pdb4f2d

>  <RESIDUE_NAME>  (1404) 
GLU   VAL

>  <FRAG_NAME>  (1404) 
ACET   PRPA

>  <FRAG_ATOM_NUM>  (1404) 
fragi: 7  fragj: 11

>  <atom.prop.CHAIN_ID>  (1404) 
A A A A A A A Z Z Z Z Z Z Z Z Z Z Z

>  <atom.prop.IS_HEAVY_ATOM>  (1404) 
1 0 0 0 1 1 1 1 0 0 0 1 0 0 1 0 0 0

>  <DIFUSE_FUNC_ATOM>  (1404) 
atom 6   atom 7   

>  <FINAL_SINGLE_POINT_ENERGY>  (1404) 
0

>  <NONCOV_INTER_ENERGY_QM>  (1404) 
0

>  <FF_Energy>  (1404) 
48.98

>  <QM_Energy>  (1404) 
5.35

>  <source>  (1404) 
ACET_PRPA_15

>  <Index>  (1404) 
4996

$$$$
ACET-pdb4fbn-A-ASP-615:PRPA-pdb4fbn-A-LYS-620
     RDKit          3D

 18 16  0  0  0  0  0  0  0  0999 V2000
    0.0011    1.5196    0.0005 C   0  0  0  0  0  0  0  0  0  0  0  0
   -0.7516    1.8417   -0.5744 H   0  0  0  0  0  0  0  0  0  0  0  0
    0.8687    1.8405   -0.3792 H   0  0  0  0  0  0  0  0  0  0  0  0
   -0.1169    1.9768    0.9829 H   0  0  0  0  0  0  0  0  0  0  0  0
    0.0000    0.0000    0.0000 C   0  0  0  0  0  0  0  0  0  0  0  0
   -1.0971   -0.5933    0.0000 O   0  0  0  0  0  1  0  0  0  0  0  0
    1.0971   -0.5919    0.0000 O   0  0  0  0  0  0  0  0  0  0  0  0
    1.0272   -4.0870    0.6503 C   0  0  0  0  0  0  0  0  0  0  0  0
    1.4585   -3.2047    0.8183 H   0  0  0  0  0  0  0  0  0  0  0  0
    1.4695   -4.5429   -0.1180 H   0  0  0  0  0  0  0  0  0  0  0  0
    1.1765   -4.7057    1.5352 H   0  0  0  0  0  0  0  0  0  0  0  0
   -0.4363   -3.8511    0.2977 C   0  0  0  0  0  0  0  0  0  0  0  0
   -0.8757   -4.7322    0.1273 H   0  0  0  0  0  0  0  0  0  0  0  0
   -0.8858   -3.3942    1.0635 H   0  0  0  0  0  0  0  0  0  0  0  0
   -0.5712   -2.9850   -0.9424 C   0  0  0  0  0  0  0  0  0  0  0  0
   -0.1272   -2.1063   -0.7702 H   0  0  0  0  0  0  0  0  0  0  0  0
   -0.1180   -3.4440   -1.7063 H   0  0  0  0  0  0  0  0  0  0  0  0
   -1.6116   -2.8036   -1.2121 H   0  0  0  0  0  0  0  0  0  0  0  0
  1  5  1  0
  5  6  1  0
  5  7  2  0
  1  2  1  0
  1  3  1  0
  1  4  1  0
  8 12  1  0
 12 15  1  0
  8  9  1  0
  8 10  1  0
  8 11  1  0
 12 13  1  0
 12 14  1  0
 15 16  1  0
 15 17  1  0
 15 18  1  0
M  CHG  1   6  -1
M  END
>  <PDB_ID>  (1405) 
pdb4fbn

>  <RESIDUE_NAME>  (1405) 
ASP   LYS

>  <FRAG_NAME>  (1405) 
ACET   PRPA

>  <FRAG_ATOM_NUM>  (1405) 
fragi: 7  fragj: 11

>  <atom.prop.CHAIN_ID>  (1405) 
A A A A A A A Z Z Z Z Z Z Z Z Z Z Z

>  <atom.prop.IS_HEAVY_ATOM>  (1405) 
1 0 0 0 1 1 1 1 0 0 0 1 0 0 1 0 0 0

>  <DIFUSE_FUNC_ATOM>  (1405) 
atom 6   atom 7   

>  <FINAL_SINGLE_POINT_ENERGY>  (1405) 
0

>  <NONCOV_INTER_ENERGY_QM>  (1405) 
0

>  <FF_Energy>  (1405) 
22.72

>  <QM_Energy>  (1405) 
2.22

>  <source>  (1405) 
ACET_PRPA_15

>  <Index>  (1405) 
5234

$$$$
ACET-pdb4ewt-B-GLU-52:PRPA-pdb4ewt-B-VAL-55
     RDKit          3D

 18 16  0  0  0  0  0  0  0  0999 V2000
   -0.0026    1.5195   -0.0040 C   0  0  0  0  0  0  0  0  0  0  0  0
    0.1176    1.8165    0.9248 H   0  0  0  0  0  0  0  0  0  0  0  0
   -0.8631    1.8115   -0.3799 H   0  0  0  0  0  0  0  0  0  0  0  0
    0.8008    1.9407   -0.6082 H   0  0  0  0  0  0  0  0  0  0  0  0
    0.0000    0.0000    0.0000 C   0  0  0  0  0  0  0  0  0  0  0  0
   -1.0989   -0.5981    0.0000 O   0  0  0  0  0  1  0  0  0  0  0  0
    1.0989   -0.5987    0.0000 O   0  0  0  0  0  0  0  0  0  0  0  0
    5.7703   -0.5275   -1.5553 C   0  0  0  0  0  0  0  0  0  0  0  0
    6.0229   -0.9543   -0.6606 H   0  0  0  0  0  0  0  0  0  0  0  0
    5.9872    0.5386   -1.4880 H   0  0  0  0  0  0  0  0  0  0  0  0
    6.3172   -1.0444   -2.3439 H   0  0  0  0  0  0  0  0  0  0  0  0
    4.3306   -0.7218   -2.0353 C   0  0  0  0  0  0  0  0  0  0  0  0
    4.2404   -0.2404   -2.9107 H   0  0  0  0  0  0  0  0  0  0  0  0
    4.1070   -1.7743   -2.2098 H   0  0  0  0  0  0  0  0  0  0  0  0
    3.3566   -0.1361   -1.0902 C   0  0  0  0  0  0  0  0  0  0  0  0
    2.4171   -0.3843   -1.3545 H   0  0  0  0  0  0  0  0  0  0  0  0
    3.5254   -0.4734   -0.1563 H   0  0  0  0  0  0  0  0  0  0  0  0
    3.4314    0.8684   -1.0854 H   0  0  0  0  0  0  0  0  0  0  0  0
  1  5  1  0
  5  6  1  0
  5  7  2  0
  1  2  1  0
  1  3  1  0
  1  4  1  0
  8 12  1  0
 12 15  1  0
  8  9  1  0
  8 10  1  0
  8 11  1  0
 12 13  1  0
 12 14  1  0
 15 16  1  0
 15 17  1  0
 15 18  1  0
M  CHG  1   6  -1
M  END
>  <PDB_ID>  (1406) 
pdb4ewt

>  <RESIDUE_NAME>  (1406) 
GLU   VAL

>  <FRAG_NAME>  (1406) 
ACET   PRPA

>  <FRAG_ATOM_NUM>  (1406) 
fragi: 7  fragj: 11

>  <atom.prop.CHAIN_ID>  (1406) 
A A A A A A A Z Z Z Z Z Z Z Z Z Z Z

>  <atom.prop.IS_HEAVY_ATOM>  (1406) 
1 0 0 0 1 1 1 1 0 0 0 1 0 0 1 0 0 0

>  <DIFUSE_FUNC_ATOM>  (1406) 
atom 6   atom 7   

>  <FINAL_SINGLE_POINT_ENERGY>  (1406) 
0

>  <NONCOV_INTER_ENERGY_QM>  (1406) 
0

>  <FF_Energy>  (1406) 
20.03

>  <QM_Energy>  (1406) 
5.0

>  <source>  (1406) 
ACET_PRPA_15

>  <Index>  (1406) 
5585

$$$$
ACET-pdb4ewt-B-GLU-52:PRPA-pdb4ewt-B-VAL-55
     RDKit          3D

 18 16  0  0  0  0  0  0  0  0999 V2000
   -0.0026    1.5195   -0.0040 C   0  0  0  0  0  0  0  0  0  0  0  0
    0.1176    1.8165    0.9248 H   0  0  0  0  0  0  0  0  0  0  0  0
   -0.8631    1.8115   -0.3799 H   0  0  0  0  0  0  0  0  0  0  0  0
    0.8008    1.9407   -0.6082 H   0  0  0  0  0  0  0  0  0  0  0  0
    0.0000    0.0000    0.0000 C   0  0  0  0  0  0  0  0  0  0  0  0
   -1.0989   -0.5981    0.0000 O   0  0  0  0  0  1  0  0  0  0  0  0
    1.0989   -0.5987    0.0000 O   0  0  0  0  0  0  0  0  0  0  0  0
    4.0262   -2.1544   -2.2729 C   0  0  0  0  0  0  0  0  0  0  0  0
    4.6305   -2.5300   -2.9845 H   0  0  0  0  0  0  0  0  0  0  0  0
    4.1582   -2.6882   -1.4301 H   0  0  0  0  0  0  0  0  0  0  0  0
    3.0728   -2.2676   -2.5740 H   0  0  0  0  0  0  0  0  0  0  0  0
    4.3306   -0.7218   -2.0353 C   0  0  0  0  0  0  0  0  0  0  0  0
    4.2404   -0.2404   -2.9107 H   0  0  0  0  0  0  0  0  0  0  0  0
    5.3563   -0.5833   -1.6933 H   0  0  0  0  0  0  0  0  0  0  0  0
    3.3566   -0.1361   -1.0902 C   0  0  0  0  0  0  0  0  0  0  0  0
    2.4171   -0.3843   -1.3545 H   0  0  0  0  0  0  0  0  0  0  0  0
    3.5254   -0.4734   -0.1563 H   0  0  0  0  0  0  0  0  0  0  0  0
    3.4314    0.8684   -1.0854 H   0  0  0  0  0  0  0  0  0  0  0  0
  1  5  1  0
  5  6  1  0
  5  7  2  0
  1  2  1  0
  1  3  1  0
  1  4  1  0
  8 12  1  0
 12 15  1  0
  8  9  1  0
  8 10  1  0
  8 11  1  0
 12 13  1  0
 12 14  1  0
 15 16  1  0
 15 17  1  0
 15 18  1  0
M  CHG  1   6  -1
M  END
>  <PDB_ID>  (1407) 
pdb4ewt

>  <RESIDUE_NAME>  (1407) 
GLU   VAL

>  <FRAG_NAME>  (1407) 
ACET   PRPA

>  <FRAG_ATOM_NUM>  (1407) 
fragi: 7  fragj: 11

>  <atom.prop.CHAIN_ID>  (1407) 
A A A A A A A Z Z Z Z Z Z Z Z Z Z Z

>  <atom.prop.IS_HEAVY_ATOM>  (1407) 
1 0 0 0 1 1 1 1 0 0 0 1 0 0 1 0 0 0

>  <DIFUSE_FUNC_ATOM>  (1407) 
atom 6   atom 7   

>  <FINAL_SINGLE_POINT_ENERGY>  (1407) 
0

>  <NONCOV_INTER_ENERGY_QM>  (1407) 
0

>  <FF_Energy>  (1407) 
20.24

>  <QM_Energy>  (1407) 
4.56

>  <source>  (1407) 
ACET_PRPA_15

>  <Index>  (1407) 
5590

$$$$
ACET-pdb4f7k-A-ASP-264:PRPA-pdb4f7k-A-ARG-202
     RDKit          3D

 18 16  0  0  0  0  0  0  0  0999 V2000
   -0.0518    1.4684    0.0362 C   0  0  0  0  0  0  0  0  0  0  0  0
    0.6171    1.8502   -0.6019 H   0  0  0  0  0  0  0  0  0  0  0  0
    0.1470    1.7961    0.9600 H   0  0  0  0  0  0  0  0  0  0  0  0
   -1.0256    1.8708   -0.2430 H   0  0  0  0  0  0  0  0  0  0  0  0
    0.0000    0.0000    0.0000 C   0  0  0  0  0  0  0  0  0  0  0  0
   -1.0737   -0.6376    0.0000 O   0  0  0  0  0  1  0  0  0  0  0  0
    1.0737   -0.6394   -0.0000 O   0  0  0  0  0  0  0  0  0  0  0  0
   -4.5676   -1.6745   -0.3736 C   0  0  0  0  0  0  0  0  0  0  0  0
   -4.1667   -0.8527    0.0418 H   0  0  0  0  0  0  0  0  0  0  0  0
   -4.2419   -2.4813    0.1278 H   0  0  0  0  0  0  0  0  0  0  0  0
   -5.6501   -1.6183   -0.2586 H   0  0  0  0  0  0  0  0  0  0  0  0
   -4.0528   -1.7742   -1.8009 C   0  0  0  0  0  0  0  0  0  0  0  0
   -4.5994   -2.4238   -2.3074 H   0  0  0  0  0  0  0  0  0  0  0  0
   -4.0718   -0.8810   -2.2239 H   0  0  0  0  0  0  0  0  0  0  0  0
   -2.6109   -2.2665   -1.7934 C   0  0  0  0  0  0  0  0  0  0  0  0
   -2.1978   -2.0264   -2.6641 H   0  0  0  0  0  0  0  0  0  0  0  0
   -2.1355   -1.8154   -1.0465 H   0  0  0  0  0  0  0  0  0  0  0  0
   -2.5578   -3.3463   -1.6552 H   0  0  0  0  0  0  0  0  0  0  0  0
  1  5  1  0
  5  6  1  0
  5  7  2  0
  1  2  1  0
  1  3  1  0
  1  4  1  0
  8 12  1  0
 12 15  1  0
  8  9  1  0
  8 10  1  0
  8 11  1  0
 12 13  1  0
 12 14  1  0
 15 16  1  0
 15 17  1  0
 15 18  1  0
M  CHG  1   6  -1
M  END
>  <PDB_ID>  (1408) 
pdb4f7k

>  <RESIDUE_NAME>  (1408) 
ASP   ARG

>  <FRAG_NAME>  (1408) 
ACET   PRPA

>  <FRAG_ATOM_NUM>  (1408) 
fragi: 7  fragj: 11

>  <atom.prop.CHAIN_ID>  (1408) 
A A A A A A A Z Z Z Z Z Z Z Z Z Z Z

>  <atom.prop.IS_HEAVY_ATOM>  (1408) 
1 0 0 0 1 1 1 1 0 0 0 1 0 0 1 0 0 0

>  <DIFUSE_FUNC_ATOM>  (1408) 
atom 6   atom 7   

>  <FINAL_SINGLE_POINT_ENERGY>  (1408) 
0

>  <NONCOV_INTER_ENERGY_QM>  (1408) 
0

>  <FF_Energy>  (1408) 
13.6

>  <QM_Energy>  (1408) 
-2.15

>  <source>  (1408) 
ACET_PRPA_15

>  <Index>  (1408) 
6846

$$$$
ACET-pdb3idu-B-GLU-496:PRPA-pdb3idu-B-LYS-463
     RDKit          3D

 18 16  0  0  0  0  0  0  0  0999 V2000
   -0.0061    1.5182    0.0184 C   0  0  0  0  0  0  0  0  0  0  0  0
   -0.0798    1.8018    0.9564 H   0  0  0  0  0  0  0  0  0  0  0  0
   -0.7713    1.8169   -0.5221 H   0  0  0  0  0  0  0  0  0  0  0  0
    0.9024    1.9500   -0.4014 H   0  0  0  0  0  0  0  0  0  0  0  0
    0.0000    0.0000    0.0000 C   0  0  0  0  0  0  0  0  0  0  0  0
   -1.0958   -0.5929   -0.0000 O   0  0  0  0  0  1  0  0  0  0  0  0
    1.0958   -0.6000    0.0000 O   0  0  0  0  0  0  0  0  0  0  0  0
   -1.7239    4.1970   -3.2083 C   0  0  0  0  0  0  0  0  0  0  0  0
   -0.9895    4.4709   -2.5537 H   0  0  0  0  0  0  0  0  0  0  0  0
   -2.6794    4.2123   -2.6840 H   0  0  0  0  0  0  0  0  0  0  0  0
   -1.6842    4.8608   -4.0719 H   0  0  0  0  0  0  0  0  0  0  0  0
   -1.4143    2.7749   -3.6865 C   0  0  0  0  0  0  0  0  0  0  0  0
   -1.9086    2.6221   -4.5431 H   0  0  0  0  0  0  0  0  0  0  0  0
   -0.4292    2.7144   -3.8594 H   0  0  0  0  0  0  0  0  0  0  0  0
   -1.7978    1.6809   -2.7101 C   0  0  0  0  0  0  0  0  0  0  0  0
   -1.4647    1.9232   -1.7978 H   0  0  0  0  0  0  0  0  0  0  0  0
   -2.7946    1.5938   -2.6868 H   0  0  0  0  0  0  0  0  0  0  0  0
   -1.3680    0.7209   -2.9964 H   0  0  0  0  0  0  0  0  0  0  0  0
  1  5  1  0
  5  6  1  0
  5  7  2  0
  1  2  1  0
  1  3  1  0
  1  4  1  0
  8 12  1  0
 12 15  1  0
  8  9  1  0
  8 10  1  0
  8 11  1  0
 12 13  1  0
 12 14  1  0
 15 16  1  0
 15 17  1  0
 15 18  1  0
M  CHG  1   6  -1
M  END
>  <PDB_ID>  (1409) 
pdb3idu

>  <RESIDUE_NAME>  (1409) 
GLU   LYS

>  <FRAG_NAME>  (1409) 
ACET   PRPA

>  <FRAG_ATOM_NUM>  (1409) 
fragi: 7  fragj: 11

>  <atom.prop.CHAIN_ID>  (1409) 
A A A A A A A Z Z Z Z Z Z Z Z Z Z Z

>  <atom.prop.IS_HEAVY_ATOM>  (1409) 
1 0 0 0 1 1 1 1 0 0 0 1 0 0 1 0 0 0

>  <DIFUSE_FUNC_ATOM>  (1409) 
atom 6   atom 7   

>  <FINAL_SINGLE_POINT_ENERGY>  (1409) 
0

>  <NONCOV_INTER_ENERGY_QM>  (1409) 
0

>  <FF_Energy>  (1409) 
37.78

>  <QM_Energy>  (1409) 
3.77

>  <source>  (1409) 
ACET_PRPA_15

>  <Index>  (1409) 
8516

$$$$
ACET-pdb3idu-B-GLU-496:PRPA-pdb3idu-B-LYS-463
     RDKit          3D

 18 16  0  0  0  0  0  0  0  0999 V2000
   -0.0061    1.5182    0.0184 C   0  0  0  0  0  0  0  0  0  0  0  0
   -0.0798    1.8018    0.9564 H   0  0  0  0  0  0  0  0  0  0  0  0
   -0.7713    1.8169   -0.5221 H   0  0  0  0  0  0  0  0  0  0  0  0
    0.9024    1.9500   -0.4014 H   0  0  0  0  0  0  0  0  0  0  0  0
    0.0000    0.0000    0.0000 C   0  0  0  0  0  0  0  0  0  0  0  0
   -1.0958   -0.5929   -0.0000 O   0  0  0  0  0  1  0  0  0  0  0  0
    1.0958   -0.6000    0.0000 O   0  0  0  0  0  0  0  0  0  0  0  0
   -1.4143    2.7749   -3.6865 C   0  0  0  0  0  0  0  0  0  0  0  0
   -1.9086    2.6221   -4.5431 H   0  0  0  0  0  0  0  0  0  0  0  0
   -0.4292    2.7144   -3.8594 H   0  0  0  0  0  0  0  0  0  0  0  0
   -1.6345    3.7867   -3.3462 H   0  0  0  0  0  0  0  0  0  0  0  0
   -1.7978    1.6809   -2.7101 C   0  0  0  0  0  0  0  0  0  0  0  0
   -1.4647    1.9232   -1.7978 H   0  0  0  0  0  0  0  0  0  0  0  0
   -2.7946    1.5938   -2.6868 H   0  0  0  0  0  0  0  0  0  0  0  0
   -1.1984    0.3420   -3.1094 C   0  0  0  0  0  0  0  0  0  0  0  0
   -0.2043    0.4120   -3.0853 H   0  0  0  0  0  0  0  0  0  0  0  0
   -1.5079   -0.3553   -2.4683 H   0  0  0  0  0  0  0  0  0  0  0  0
   -1.4975    0.0431   -4.1140 H   0  0  0  0  0  0  0  0  0  0  0  0
  1  5  1  0
  5  6  1  0
  5  7  2  0
  1  2  1  0
  1  3  1  0
  1  4  1  0
  8 12  1  0
 12 15  1  0
  8  9  1  0
  8 10  1  0
  8 11  1  0
 12 13  1  0
 12 14  1  0
 15 16  1  0
 15 17  1  0
 15 18  1  0
M  CHG  1   6  -1
M  END
>  <PDB_ID>  (1410) 
pdb3idu

>  <RESIDUE_NAME>  (1410) 
GLU   LYS

>  <FRAG_NAME>  (1410) 
ACET   PRPA

>  <FRAG_ATOM_NUM>  (1410) 
fragi: 7  fragj: 11

>  <atom.prop.CHAIN_ID>  (1410) 
A A A A A A A Z Z Z Z Z Z Z Z Z Z Z

>  <atom.prop.IS_HEAVY_ATOM>  (1410) 
1 0 0 0 1 1 1 1 0 0 0 1 0 0 1 0 0 0

>  <DIFUSE_FUNC_ATOM>  (1410) 
atom 6   atom 7   

>  <FINAL_SINGLE_POINT_ENERGY>  (1410) 
0

>  <NONCOV_INTER_ENERGY_QM>  (1410) 
0

>  <FF_Energy>  (1410) 
44.94

>  <QM_Energy>  (1410) 
1.7

>  <source>  (1410) 
ACET_PRPA_15

>  <Index>  (1410) 
8519

$$$$
ACET-pdb3idu-B-GLU-496:PRPA-pdb3idu-B-LYS-463
     RDKit          3D

 18 16  0  0  0  0  0  0  0  0999 V2000
   -0.0061    1.5182    0.0184 C   0  0  0  0  0  0  0  0  0  0  0  0
   -0.0798    1.8018    0.9564 H   0  0  0  0  0  0  0  0  0  0  0  0
   -0.7713    1.8169   -0.5221 H   0  0  0  0  0  0  0  0  0  0  0  0
    0.9024    1.9500   -0.4014 H   0  0  0  0  0  0  0  0  0  0  0  0
    0.0000    0.0000    0.0000 C   0  0  0  0  0  0  0  0  0  0  0  0
   -1.0958   -0.5929   -0.0000 O   0  0  0  0  0  1  0  0  0  0  0  0
    1.0958   -0.6000    0.0000 O   0  0  0  0  0  0  0  0  0  0  0  0
   -1.7978    1.6809   -2.7101 C   0  0  0  0  0  0  0  0  0  0  0  0
   -1.4647    1.9232   -1.7978 H   0  0  0  0  0  0  0  0  0  0  0  0
   -2.7946    1.5938   -2.6868 H   0  0  0  0  0  0  0  0  0  0  0  0
   -1.5220    2.4676   -3.4123 H   0  0  0  0  0  0  0  0  0  0  0  0
   -1.1984    0.3420   -3.1094 C   0  0  0  0  0  0  0  0  0  0  0  0
   -0.2043    0.4120   -3.0853 H   0  0  0  0  0  0  0  0  0  0  0  0
   -1.5079   -0.3553   -2.4683 H   0  0  0  0  0  0  0  0  0  0  0  0
   -1.6172   -0.0764   -4.5158 C   0  0  0  0  0  0  0  0  0  0  0  0
   -2.6137   -0.1588   -4.5478 H   0  0  0  0  0  0  0  0  0  0  0  0
   -1.3217    0.6243   -5.1657 H   0  0  0  0  0  0  0  0  0  0  0  0
   -1.1723   -1.0312   -4.7963 H   0  0  0  0  0  0  0  0  0  0  0  0
  1  5  1  0
  5  6  1  0
  5  7  2  0
  1  2  1  0
  1  3  1  0
  1  4  1  0
  8 12  1  0
 12 15  1  0
  8  9  1  0
  8 10  1  0
  8 11  1  0
 12 13  1  0
 12 14  1  0
 15 16  1  0
 15 17  1  0
 15 18  1  0
M  CHG  1   6  -1
M  END
>  <PDB_ID>  (1411) 
pdb3idu

>  <RESIDUE_NAME>  (1411) 
GLU   LYS

>  <FRAG_NAME>  (1411) 
ACET   PRPA

>  <FRAG_ATOM_NUM>  (1411) 
fragi: 7  fragj: 11

>  <atom.prop.CHAIN_ID>  (1411) 
A A A A A A A Z Z Z Z Z Z Z Z Z Z Z

>  <atom.prop.IS_HEAVY_ATOM>  (1411) 
1 0 0 0 1 1 1 1 0 0 0 1 0 0 1 0 0 0

>  <DIFUSE_FUNC_ATOM>  (1411) 
atom 6   atom 7   

>  <FINAL_SINGLE_POINT_ENERGY>  (1411) 
0

>  <NONCOV_INTER_ENERGY_QM>  (1411) 
0

>  <FF_Energy>  (1411) 
38.44

>  <QM_Energy>  (1411) 
1.9

>  <source>  (1411) 
ACET_PRPA_15

>  <Index>  (1411) 
8522

$$$$
ACET-pdb4e2q-F-ASP-224:PRPA-pdb4e2q-F-ARG-286
     RDKit          3D

 18 16  0  0  0  0  0  0  0  0999 V2000
   -0.0187    1.5097    0.0090 C   0  0  0  0  0  0  0  0  0  0  0  0
    0.8748    1.8447   -0.2634 H   0  0  0  0  0  0  0  0  0  0  0  0
   -0.2463    1.8244    0.9222 H   0  0  0  0  0  0  0  0  0  0  0  0
   -0.7561    1.9189   -0.6818 H   0  0  0  0  0  0  0  0  0  0  0  0
    0.0000    0.0000    0.0000 C   0  0  0  0  0  0  0  0  0  0  0  0
   -1.1031   -0.5831    0.0000 O   0  0  0  0  0  1  0  0  0  0  0  0
    1.1031   -0.5978   -0.0000 O   0  0  0  0  0  0  0  0  0  0  0  0
   -4.4304   -0.6606   -0.6200 C   0  0  0  0  0  0  0  0  0  0  0  0
   -3.8399   -0.0271   -1.1078 H   0  0  0  0  0  0  0  0  0  0  0  0
   -5.0693   -0.1009    0.0630 H   0  0  0  0  0  0  0  0  0  0  0  0
   -5.0861   -1.1575   -1.3350 H   0  0  0  0  0  0  0  0  0  0  0  0
   -3.6130   -1.7220    0.1054 C   0  0  0  0  0  0  0  0  0  0  0  0
   -2.8574   -1.2844    0.5597 H   0  0  0  0  0  0  0  0  0  0  0  0
   -4.2000   -2.1958    0.7382 H   0  0  0  0  0  0  0  0  0  0  0  0
   -3.0438   -2.7523   -0.8708 C   0  0  0  0  0  0  0  0  0  0  0  0
   -3.4781   -3.6403   -0.7015 H   0  0  0  0  0  0  0  0  0  0  0  0
   -3.2472   -2.4631   -1.8085 H   0  0  0  0  0  0  0  0  0  0  0  0
   -1.9649   -2.8782   -0.7809 H   0  0  0  0  0  0  0  0  0  0  0  0
  1  5  1  0
  5  6  1  0
  5  7  2  0
  1  2  1  0
  1  3  1  0
  1  4  1  0
  8 12  1  0
 12 15  1  0
  8  9  1  0
  8 10  1  0
  8 11  1  0
 12 13  1  0
 12 14  1  0
 15 16  1  0
 15 17  1  0
 15 18  1  0
M  CHG  1   6  -1
M  END
>  <PDB_ID>  (1412) 
pdb4e2q

>  <RESIDUE_NAME>  (1412) 
ASP   ARG

>  <FRAG_NAME>  (1412) 
ACET   PRPA

>  <FRAG_ATOM_NUM>  (1412) 
fragi: 7  fragj: 11

>  <atom.prop.CHAIN_ID>  (1412) 
A A A A A A A Z Z Z Z Z Z Z Z Z Z Z

>  <atom.prop.IS_HEAVY_ATOM>  (1412) 
1 0 0 0 1 1 1 1 0 0 0 1 0 0 1 0 0 0

>  <DIFUSE_FUNC_ATOM>  (1412) 
atom 6   atom 7   

>  <FINAL_SINGLE_POINT_ENERGY>  (1412) 
0

>  <NONCOV_INTER_ENERGY_QM>  (1412) 
0

>  <FF_Energy>  (1412) 
12.5

>  <QM_Energy>  (1412) 
-2.96

>  <source>  (1412) 
ACET_PRPA_15

>  <Index>  (1412) 
8591

$$$$
ACET-pdb4fdd-A-GLU-122:PRPA-pdb4fdd-A-LYS-92
     RDKit          3D

 18 16  0  0  0  0  0  0  0  0999 V2000
    0.0307    1.5243   -0.0165 C   0  0  0  0  0  0  0  0  0  0  0  0
    0.4537    1.7995   -0.8685 H   0  0  0  0  0  0  0  0  0  0  0  0
    0.5743    1.8143    0.7592 H   0  0  0  0  0  0  0  0  0  0  0  0
   -0.9476    2.0003    0.0507 H   0  0  0  0  0  0  0  0  0  0  0  0
    0.0000    0.0000    0.0000 C   0  0  0  0  0  0  0  0  0  0  0  0
   -1.0965   -0.6040    0.0000 O   0  0  0  0  0  1  0  0  0  0  0  0
    1.0965   -0.6019   -0.0000 O   0  0  0  0  0  0  0  0  0  0  0  0
    3.6649   -1.9377    2.5958 C   0  0  0  0  0  0  0  0  0  0  0  0
    3.8237   -0.9698    2.5092 H   0  0  0  0  0  0  0  0  0  0  0  0
    3.9653   -2.4343    1.8010 H   0  0  0  0  0  0  0  0  0  0  0  0
    4.1867   -2.3125    3.4764 H   0  0  0  0  0  0  0  0  0  0  0  0
    2.1823   -2.1823    2.8066 C   0  0  0  0  0  0  0  0  0  0  0  0
    2.0665   -2.7869    3.6066 H   0  0  0  0  0  0  0  0  0  0  0  0
    1.7360   -1.3009    3.0138 H   0  0  0  0  0  0  0  0  0  0  0  0
    1.4699   -2.8116    1.6254 C   0  0  0  0  0  0  0  0  0  0  0  0
    1.5197   -2.1944    0.8444 H   0  0  0  0  0  0  0  0  0  0  0  0
    1.9080   -3.6788    1.4015 H   0  0  0  0  0  0  0  0  0  0  0  0
    0.4231   -2.9943    1.8683 H   0  0  0  0  0  0  0  0  0  0  0  0
  1  5  1  0
  5  6  1  0
  5  7  2  0
  1  2  1  0
  1  3  1  0
  1  4  1  0
  8 12  1  0
 12 15  1  0
  8  9  1  0
  8 10  1  0
  8 11  1  0
 12 13  1  0
 12 14  1  0
 15 16  1  0
 15 17  1  0
 15 18  1  0
M  CHG  1   6  -1
M  END
>  <PDB_ID>  (1413) 
pdb4fdd

>  <RESIDUE_NAME>  (1413) 
GLU   LYS

>  <FRAG_NAME>  (1413) 
ACET   PRPA

>  <FRAG_ATOM_NUM>  (1413) 
fragi: 7  fragj: 11

>  <atom.prop.CHAIN_ID>  (1413) 
A A A A A A A Z Z Z Z Z Z Z Z Z Z Z

>  <atom.prop.IS_HEAVY_ATOM>  (1413) 
1 0 0 0 1 1 1 1 0 0 0 1 0 0 1 0 0 0

>  <DIFUSE_FUNC_ATOM>  (1413) 
atom 6   atom 7   

>  <FINAL_SINGLE_POINT_ENERGY>  (1413) 
0

>  <NONCOV_INTER_ENERGY_QM>  (1413) 
0

>  <FF_Energy>  (1413) 
20.23

>  <QM_Energy>  (1413) 
-0.39

>  <source>  (1413) 
ACET_PRPA_15

>  <Index>  (1413) 
10014

$$$$
ACET-pdb4fdd-A-GLU-122:PRPA-pdb4fdd-A-ILE-117
     RDKit          3D

 18 16  0  0  0  0  0  0  0  0999 V2000
    0.0307    1.5243   -0.0165 C   0  0  0  0  0  0  0  0  0  0  0  0
    0.4537    1.7995   -0.8685 H   0  0  0  0  0  0  0  0  0  0  0  0
    0.5743    1.8143    0.7592 H   0  0  0  0  0  0  0  0  0  0  0  0
   -0.9476    2.0003    0.0507 H   0  0  0  0  0  0  0  0  0  0  0  0
    0.0000    0.0000    0.0000 C   0  0  0  0  0  0  0  0  0  0  0  0
   -1.0965   -0.6040    0.0000 O   0  0  0  0  0  1  0  0  0  0  0  0
    1.0965   -0.6019   -0.0000 O   0  0  0  0  0  0  0  0  0  0  0  0
    3.0217    4.6546   -0.5051 C   0  0  0  0  0  0  0  0  0  0  0  0
    3.1897    4.4753   -1.4721 H   0  0  0  0  0  0  0  0  0  0  0  0
    3.4735    5.6202   -0.2781 H   0  0  0  0  0  0  0  0  0  0  0  0
    1.9402    4.7348   -0.3950 H   0  0  0  0  0  0  0  0  0  0  0  0
    3.6656    3.5291    0.3258 C   0  0  0  0  0  0  0  0  0  0  0  0
    3.8790    3.8923    1.2211 H   0  0  0  0  0  0  0  0  0  0  0  0
    4.5990    3.2210   -0.1453 H   0  0  0  0  0  0  0  0  0  0  0  0
    2.7544    2.3281    0.4206 C   0  0  0  0  0  0  0  0  0  0  0  0
    3.1898    1.6139    0.9699 H   0  0  0  0  0  0  0  0  0  0  0  0
    1.8907    2.5910    0.8509 H   0  0  0  0  0  0  0  0  0  0  0  0
    2.5684    1.9699   -0.4945 H   0  0  0  0  0  0  0  0  0  0  0  0
  1  5  1  0
  5  6  1  0
  5  7  2  0
  1  2  1  0
  1  3  1  0
  1  4  1  0
  8 12  1  0
 12 15  1  0
  8  9  1  0
  8 10  1  0
  8 11  1  0
 12 13  1  0
 12 14  1  0
 15 16  1  0
 15 17  1  0
 15 18  1  0
M  CHG  1   6  -1
M  END
>  <PDB_ID>  (1414) 
pdb4fdd

>  <RESIDUE_NAME>  (1414) 
GLU   ILE

>  <FRAG_NAME>  (1414) 
ACET   PRPA

>  <FRAG_ATOM_NUM>  (1414) 
fragi: 7  fragj: 11

>  <atom.prop.CHAIN_ID>  (1414) 
A A A A A A A Z Z Z Z Z Z Z Z Z Z Z

>  <atom.prop.IS_HEAVY_ATOM>  (1414) 
1 0 0 0 1 1 1 1 0 0 0 1 0 0 1 0 0 0

>  <DIFUSE_FUNC_ATOM>  (1414) 
atom 6   atom 7   

>  <FINAL_SINGLE_POINT_ENERGY>  (1414) 
0

>  <NONCOV_INTER_ENERGY_QM>  (1414) 
0

>  <FF_Energy>  (1414) 
29.94

>  <QM_Energy>  (1414) 
7.41

>  <source>  (1414) 
ACET_PRPA_15

>  <Index>  (1414) 
10316

$$$$
ACET-pdb4fdd-A-GLU-122:PRPA-pdb4fdd-A-ILE-117
     RDKit          3D

 18 16  0  0  0  0  0  0  0  0999 V2000
    0.0307    1.5243   -0.0165 C   0  0  0  0  0  0  0  0  0  0  0  0
    0.4537    1.7995   -0.8685 H   0  0  0  0  0  0  0  0  0  0  0  0
    0.5743    1.8143    0.7592 H   0  0  0  0  0  0  0  0  0  0  0  0
   -0.9476    2.0003    0.0507 H   0  0  0  0  0  0  0  0  0  0  0  0
    0.0000    0.0000    0.0000 C   0  0  0  0  0  0  0  0  0  0  0  0
   -1.0965   -0.6040    0.0000 O   0  0  0  0  0  1  0  0  0  0  0  0
    1.0965   -0.6019   -0.0000 O   0  0  0  0  0  0  0  0  0  0  0  0
    4.9774    3.0961   -0.3362 C   0  0  0  0  0  0  0  0  0  0  0  0
    4.7571    2.6172   -1.1889 H   0  0  0  0  0  0  0  0  0  0  0  0
    5.4968    3.9222   -0.5688 H   0  0  0  0  0  0  0  0  0  0  0  0
    5.6061    2.4516    0.2782 H   0  0  0  0  0  0  0  0  0  0  0  0
    3.6656    3.5291    0.3258 C   0  0  0  0  0  0  0  0  0  0  0  0
    3.8790    3.8923    1.2211 H   0  0  0  0  0  0  0  0  0  0  0  0
    3.2099    4.3257   -0.2623 H   0  0  0  0  0  0  0  0  0  0  0  0
    2.7544    2.3281    0.4206 C   0  0  0  0  0  0  0  0  0  0  0  0
    3.1898    1.6139    0.9699 H   0  0  0  0  0  0  0  0  0  0  0  0
    1.8907    2.5910    0.8509 H   0  0  0  0  0  0  0  0  0  0  0  0
    2.5684    1.9699   -0.4945 H   0  0  0  0  0  0  0  0  0  0  0  0
  1  5  1  0
  5  6  1  0
  5  7  2  0
  1  2  1  0
  1  3  1  0
  1  4  1  0
  8 12  1  0
 12 15  1  0
  8  9  1  0
  8 10  1  0
  8 11  1  0
 12 13  1  0
 12 14  1  0
 15 16  1  0
 15 17  1  0
 15 18  1  0
M  CHG  1   6  -1
M  END
>  <PDB_ID>  (1415) 
pdb4fdd

>  <RESIDUE_NAME>  (1415) 
GLU   ILE

>  <FRAG_NAME>  (1415) 
ACET   PRPA

>  <FRAG_ATOM_NUM>  (1415) 
fragi: 7  fragj: 11

>  <atom.prop.CHAIN_ID>  (1415) 
A A A A A A A Z Z Z Z Z Z Z Z Z Z Z

>  <atom.prop.IS_HEAVY_ATOM>  (1415) 
1 0 0 0 1 1 1 1 0 0 0 1 0 0 1 0 0 0

>  <DIFUSE_FUNC_ATOM>  (1415) 
atom 6   atom 7   

>  <FINAL_SINGLE_POINT_ENERGY>  (1415) 
0

>  <NONCOV_INTER_ENERGY_QM>  (1415) 
0

>  <FF_Energy>  (1415) 
30.09

>  <QM_Energy>  (1415) 
7.7

>  <source>  (1415) 
ACET_PRPA_15

>  <Index>  (1415) 
10326

$$$$
ACET-pdb3hrx-D-GLU-245:PRPA-pdb3hrx-D-ARG-241
     RDKit          3D

 18 16  0  0  0  0  0  0  0  0999 V2000
    0.0019    1.5166   -0.0084 C   0  0  0  0  0  0  0  0  0  0  0  0
   -0.3340    1.8109   -0.8842 H   0  0  0  0  0  0  0  0  0  0  0  0
    0.9248    1.8144    0.1556 H   0  0  0  0  0  0  0  0  0  0  0  0
   -0.6374    1.9466    0.7626 H   0  0  0  0  0  0  0  0  0  0  0  0
    0.0000    0.0000    0.0000 C   0  0  0  0  0  0  0  0  0  0  0  0
   -1.0969   -0.5958    0.0000 O   0  0  0  0  0  1  0  0  0  0  0  0
    1.0969   -0.5970   -0.0000 O   0  0  0  0  0  0  0  0  0  0  0  0
    4.2901    0.4725    2.6057 C   0  0  0  0  0  0  0  0  0  0  0  0
    4.5475    1.0002    1.7908 H   0  0  0  0  0  0  0  0  0  0  0  0
    5.0365    0.6356    3.3832 H   0  0  0  0  0  0  0  0  0  0  0  0
    3.3103    0.8108    2.9431 H   0  0  0  0  0  0  0  0  0  0  0  0
    4.2395   -1.0061    2.2310 C   0  0  0  0  0  0  0  0  0  0  0  0
    4.8388   -1.1490    1.4376 H   0  0  0  0  0  0  0  0  0  0  0  0
    4.5955   -1.5386    3.0046 H   0  0  0  0  0  0  0  0  0  0  0  0
    2.8644   -1.5590    1.8809 C   0  0  0  0  0  0  0  0  0  0  0  0
    2.2559   -1.4339    2.6678 H   0  0  0  0  0  0  0  0  0  0  0  0
    2.4992   -1.0461    1.1008 H   0  0  0  0  0  0  0  0  0  0  0  0
    2.9006   -2.6176    1.6237 H   0  0  0  0  0  0  0  0  0  0  0  0
  1  5  1  0
  5  6  1  0
  5  7  2  0
  1  2  1  0
  1  3  1  0
  1  4  1  0
  8 12  1  0
 12 15  1  0
  8  9  1  0
  8 10  1  0
  8 11  1  0
 12 13  1  0
 12 14  1  0
 15 16  1  0
 15 17  1  0
 15 18  1  0
M  CHG  1   6  -1
M  END
>  <PDB_ID>  (1416) 
pdb3hrx

>  <RESIDUE_NAME>  (1416) 
GLU   ARG

>  <FRAG_NAME>  (1416) 
ACET   PRPA

>  <FRAG_ATOM_NUM>  (1416) 
fragi: 7  fragj: 11

>  <atom.prop.CHAIN_ID>  (1416) 
A A A A A A A Z Z Z Z Z Z Z Z Z Z Z

>  <atom.prop.IS_HEAVY_ATOM>  (1416) 
1 0 0 0 1 1 1 1 0 0 0 1 0 0 1 0 0 0

>  <DIFUSE_FUNC_ATOM>  (1416) 
atom 6   atom 7   

>  <FINAL_SINGLE_POINT_ENERGY>  (1416) 
0

>  <NONCOV_INTER_ENERGY_QM>  (1416) 
0

>  <FF_Energy>  (1416) 
21.46

>  <QM_Energy>  (1416) 
0.9

>  <source>  (1416) 
ACET_PRPA_15

>  <Index>  (1416) 
10601

$$$$
ACET-pdb3ihi-A-ASP-104:PRPA-pdb3ihi-A-ARG-101
     RDKit          3D

 18 16  0  0  0  0  0  0  0  0999 V2000
    0.0488    1.5355   -0.0468 C   0  0  0  0  0  0  0  0  0  0  0  0
    0.6319    1.8058   -0.8037 H   0  0  0  0  0  0  0  0  0  0  0  0
    0.4191    1.8623    0.8136 H   0  0  0  0  0  0  0  0  0  0  0  0
   -0.9304    1.9917   -0.1920 H   0  0  0  0  0  0  0  0  0  0  0  0
    0.0000    0.0000    0.0000 C   0  0  0  0  0  0  0  0  0  0  0  0
   -1.0701   -0.6393    0.0000 O   0  0  0  0  0  1  0  0  0  0  0  0
    1.0701   -0.6161    0.0000 O   0  0  0  0  0  0  0  0  0  0  0  0
    1.0635   -1.5672   -3.2758 C   0  0  0  0  0  0  0  0  0  0  0  0
    0.5936   -1.7985   -2.3849 H   0  0  0  0  0  0  0  0  0  0  0  0
    1.1080   -2.4698   -3.8852 H   0  0  0  0  0  0  0  0  0  0  0  0
    0.5576   -0.7032   -3.7068 H   0  0  0  0  0  0  0  0  0  0  0  0
    2.4750   -1.0547   -3.0516 C   0  0  0  0  0  0  0  0  0  0  0  0
    3.0635   -1.4370   -3.7876 H   0  0  0  0  0  0  0  0  0  0  0  0
    2.4620   -0.0465   -3.1804 H   0  0  0  0  0  0  0  0  0  0  0  0
    3.1274   -1.3462   -1.7380 C   0  0  0  0  0  0  0  0  0  0  0  0
    3.9790   -0.8018   -1.6705 H   0  0  0  0  0  0  0  0  0  0  0  0
    2.5118   -1.0372   -0.9939 H   0  0  0  0  0  0  0  0  0  0  0  0
    3.3583   -2.4030   -1.6042 H   0  0  0  0  0  0  0  0  0  0  0  0
  1  5  1  0
  5  6  1  0
  5  7  2  0
  1  2  1  0
  1  3  1  0
  1  4  1  0
  8 12  1  0
 12 15  1  0
  8  9  1  0
  8 10  1  0
  8 11  1  0
 12 13  1  0
 12 14  1  0
 15 16  1  0
 15 17  1  0
 15 18  1  0
M  CHG  1   6  -1
M  END
>  <PDB_ID>  (1417) 
pdb3ihi

>  <RESIDUE_NAME>  (1417) 
ASP   ARG

>  <FRAG_NAME>  (1417) 
ACET   PRPA

>  <FRAG_ATOM_NUM>  (1417) 
fragi: 7  fragj: 11

>  <atom.prop.CHAIN_ID>  (1417) 
A A A A A A A Z Z Z Z Z Z Z Z Z Z Z

>  <atom.prop.IS_HEAVY_ATOM>  (1417) 
1 0 0 0 1 1 1 1 0 0 0 1 0 0 1 0 0 0

>  <DIFUSE_FUNC_ATOM>  (1417) 
atom 6   atom 7   

>  <FINAL_SINGLE_POINT_ENERGY>  (1417) 
0

>  <NONCOV_INTER_ENERGY_QM>  (1417) 
0

>  <FF_Energy>  (1417) 
27.13

>  <QM_Energy>  (1417) 
-1.65

>  <source>  (1417) 
ACET_PRPA_15

>  <Index>  (1417) 
11255

$$$$
ACET-pdb4foj-A-GLU-483:PRPA-pdb4foj-A-LEU-459
     RDKit          3D

 18 16  0  0  0  0  0  0  0  0999 V2000
   -0.0078    1.5145    0.1141 C   0  0  0  0  0  0  0  0  0  0  0  0
    0.8430    1.7867    0.5475 H   0  0  0  0  0  0  0  0  0  0  0  0
   -0.7835    1.7679    0.6802 H   0  0  0  0  0  0  0  0  0  0  0  0
   -0.0900    2.0570   -0.8278 H   0  0  0  0  0  0  0  0  0  0  0  0
    0.0000    0.0000    0.0000 C   0  0  0  0  0  0  0  0  0  0  0  0
   -1.0955   -0.5969   -0.0000 O   0  0  0  0  0  1  0  0  0  0  0  0
    1.0955   -0.6107    0.0000 O   0  0  0  0  0  0  0  0  0  0  0  0
   -3.3298    0.3710    3.7101 C   0  0  0  0  0  0  0  0  0  0  0  0
   -3.5223   -0.4969    4.1519 H   0  0  0  0  0  0  0  0  0  0  0  0
   -3.5565    0.3324    2.7457 H   0  0  0  0  0  0  0  0  0  0  0  0
   -3.9377    1.1437    4.1810 H   0  0  0  0  0  0  0  0  0  0  0  0
   -1.8688    0.6272    3.8259 C   0  0  0  0  0  0  0  0  0  0  0  0
   -1.6535    1.0653    4.6924 H   0  0  0  0  0  0  0  0  0  0  0  0
   -1.3315   -0.3206    3.7925 H   0  0  0  0  0  0  0  0  0  0  0  0
   -1.4559    1.5904    2.7238 C   0  0  0  0  0  0  0  0  0  0  0  0
   -1.9603    2.4488    2.8226 H   0  0  0  0  0  0  0  0  0  0  0  0
   -0.4736    1.7731    2.7884 H   0  0  0  0  0  0  0  0  0  0  0  0
   -1.6606    1.1859    1.8314 H   0  0  0  0  0  0  0  0  0  0  0  0
  1  5  1  0
  5  6  1  0
  5  7  2  0
  1  2  1  0
  1  3  1  0
  1  4  1  0
  8 12  1  0
 12 15  1  0
  8  9  1  0
  8 10  1  0
  8 11  1  0
 12 13  1  0
 12 14  1  0
 15 16  1  0
 15 17  1  0
 15 18  1  0
M  CHG  1   6  -1
M  END
>  <PDB_ID>  (1418) 
pdb4foj

>  <RESIDUE_NAME>  (1418) 
GLU   LEU

>  <FRAG_NAME>  (1418) 
ACET   PRPA

>  <FRAG_ATOM_NUM>  (1418) 
fragi: 7  fragj: 11

>  <atom.prop.CHAIN_ID>  (1418) 
A A A A A A A Z Z Z Z Z Z Z Z Z Z Z

>  <atom.prop.IS_HEAVY_ATOM>  (1418) 
1 0 0 0 1 1 1 1 0 0 0 1 0 0 1 0 0 0

>  <DIFUSE_FUNC_ATOM>  (1418) 
atom 6   atom 7   

>  <FINAL_SINGLE_POINT_ENERGY>  (1418) 
0

>  <NONCOV_INTER_ENERGY_QM>  (1418) 
0

>  <FF_Energy>  (1418) 
26.79

>  <QM_Energy>  (1418) 
3.87

>  <source>  (1418) 
ACET_PRPA_15

>  <Index>  (1418) 
12329

$$$$
ACET-pdb4fc5-F-GLU-266:PRPA-pdb4fc5-A-VAL-252
     RDKit          3D

 18 16  0  0  0  0  0  0  0  0999 V2000
    0.0240    1.5213    0.0373 C   0  0  0  0  0  0  0  0  0  0  0  0
    0.9771    1.7934    0.0647 H   0  0  0  0  0  0  0  0  0  0  0  0
   -0.4447    1.7962    0.8668 H   0  0  0  0  0  0  0  0  0  0  0  0
   -0.4560    1.9987   -0.8170 H   0  0  0  0  0  0  0  0  0  0  0  0
    0.0000    0.0000    0.0000 C   0  0  0  0  0  0  0  0  0  0  0  0
   -1.0834   -0.6102    0.0000 O   0  0  0  0  0  1  0  0  0  0  0  0
    1.0834   -0.5968    0.0000 O   0  0  0  0  0  0  0  0  0  0  0  0
   -2.2835    3.8605    4.3732 C   0  0  0  0  0  0  0  0  0  0  0  0
   -2.6842    3.4696    5.2016 H   0  0  0  0  0  0  0  0  0  0  0  0
   -2.1840    4.8490    4.4856 H   0  0  0  0  0  0  0  0  0  0  0  0
   -2.8795    3.6719    3.5929 H   0  0  0  0  0  0  0  0  0  0  0  0
   -0.9149    3.2376    4.1281 C   0  0  0  0  0  0  0  0  0  0  0  0
   -0.9774    2.2872    4.4073 H   0  0  0  0  0  0  0  0  0  0  0  0
   -0.1711    3.7264    4.7572 H   0  0  0  0  0  0  0  0  0  0  0  0
   -0.5042    3.3537    2.6497 C   0  0  0  0  0  0  0  0  0  0  0  0
    0.4452    3.6547    2.6021 H   0  0  0  0  0  0  0  0  0  0  0  0
   -0.6036    2.4612    2.2174 H   0  0  0  0  0  0  0  0  0  0  0  0
   -1.0973    4.0188    2.2027 H   0  0  0  0  0  0  0  0  0  0  0  0
  1  5  1  0
  5  6  1  0
  5  7  2  0
  1  2  1  0
  1  3  1  0
  1  4  1  0
  8 12  1  0
 12 15  1  0
  8  9  1  0
  8 10  1  0
  8 11  1  0
 12 13  1  0
 12 14  1  0
 15 16  1  0
 15 17  1  0
 15 18  1  0
M  CHG  1   6  -1
M  END
>  <PDB_ID>  (1419) 
pdb4fc5

>  <RESIDUE_NAME>  (1419) 
GLU   VAL

>  <FRAG_NAME>  (1419) 
ACET   PRPA

>  <FRAG_ATOM_NUM>  (1419) 
fragi: 7  fragj: 11

>  <atom.prop.CHAIN_ID>  (1419) 
A A A A A A A Z Z Z Z Z Z Z Z Z Z Z

>  <atom.prop.IS_HEAVY_ATOM>  (1419) 
1 0 0 0 1 1 1 1 0 0 0 1 0 0 1 0 0 0

>  <DIFUSE_FUNC_ATOM>  (1419) 
atom 6   atom 7   

>  <FINAL_SINGLE_POINT_ENERGY>  (1419) 
0

>  <NONCOV_INTER_ENERGY_QM>  (1419) 
0

>  <FF_Energy>  (1419) 
25.04

>  <QM_Energy>  (1419) 
4.31

>  <source>  (1419) 
ACET_PRPA_15

>  <Index>  (1419) 
12889

$$$$
ACET-pdb3hwk-C-ASP-288:PRPA-pdb3hwk-C-VAL-291
     RDKit          3D

 18 16  0  0  0  0  0  0  0  0999 V2000
   -0.0260    1.5312   -0.0039 C   0  0  0  0  0  0  0  0  0  0  0  0
   -0.9169    1.8320    0.3190 H   0  0  0  0  0  0  0  0  0  0  0  0
    0.1314    1.8469   -0.9327 H   0  0  0  0  0  0  0  0  0  0  0  0
    0.7324    1.9802    0.6374 H   0  0  0  0  0  0  0  0  0  0  0  0
    0.0000    0.0000    0.0000 C   0  0  0  0  0  0  0  0  0  0  0  0
   -1.0908   -0.6071   -0.0000 O   0  0  0  0  0  1  0  0  0  0  0  0
    1.0908   -0.6060   -0.0000 O   0  0  0  0  0  0  0  0  0  0  0  0
    2.3052    1.3121   -4.4725 C   0  0  0  0  0  0  0  0  0  0  0  0
    1.6155    0.6973   -4.9174 H   0  0  0  0  0  0  0  0  0  0  0  0
    2.7473    0.7654   -3.6397 H   0  0  0  0  0  0  0  0  0  0  0  0
    2.9963    1.6430   -5.2477 H   0  0  0  0  0  0  0  0  0  0  0  0
    1.4379    2.5114   -3.9769 C   0  0  0  0  0  0  0  0  0  0  0  0
    1.9933    3.0211   -3.3247 H   0  0  0  0  0  0  0  0  0  0  0  0
    1.1919    3.1834   -4.7991 H   0  0  0  0  0  0  0  0  0  0  0  0
    0.1751    2.0029   -3.3497 C   0  0  0  0  0  0  0  0  0  0  0  0
    0.2718    1.9873   -2.3502 H   0  0  0  0  0  0  0  0  0  0  0  0
   -0.5932    2.6008   -3.5953 H   0  0  0  0  0  0  0  0  0  0  0  0
   -0.0166    1.0728   -3.6747 H   0  0  0  0  0  0  0  0  0  0  0  0
  1  5  1  0
  5  6  1  0
  5  7  2  0
  1  2  1  0
  1  3  1  0
  1  4  1  0
  8 12  1  0
 12 15  1  0
  8  9  1  0
  8 10  1  0
  8 11  1  0
 12 13  1  0
 12 14  1  0
 15 16  1  0
 15 17  1  0
 15 18  1  0
M  CHG  1   6  -1
M  END
>  <PDB_ID>  (1420) 
pdb3hwk

>  <RESIDUE_NAME>  (1420) 
ASP   VAL

>  <FRAG_NAME>  (1420) 
ACET   PRPA

>  <FRAG_ATOM_NUM>  (1420) 
fragi: 7  fragj: 11

>  <atom.prop.CHAIN_ID>  (1420) 
A A A A A A A Z Z Z Z Z Z Z Z Z Z Z

>  <atom.prop.IS_HEAVY_ATOM>  (1420) 
1 0 0 0 1 1 1 1 0 0 0 1 0 0 1 0 0 0

>  <DIFUSE_FUNC_ATOM>  (1420) 
atom 6   atom 7   

>  <FINAL_SINGLE_POINT_ENERGY>  (1420) 
0

>  <NONCOV_INTER_ENERGY_QM>  (1420) 
0

>  <FF_Energy>  (1420) 
45.71

>  <QM_Energy>  (1420) 
3.88

>  <source>  (1420) 
ACET_PRPA_15

>  <Index>  (1420) 
13816

$$$$
ACET-pdb3hwk-C-ASP-288:PRPA-pdb3hwk-C-VAL-291
     RDKit          3D

 18 16  0  0  0  0  0  0  0  0999 V2000
   -0.0260    1.5312   -0.0039 C   0  0  0  0  0  0  0  0  0  0  0  0
   -0.9169    1.8320    0.3190 H   0  0  0  0  0  0  0  0  0  0  0  0
    0.1314    1.8469   -0.9327 H   0  0  0  0  0  0  0  0  0  0  0  0
    0.7324    1.9802    0.6374 H   0  0  0  0  0  0  0  0  0  0  0  0
    0.0000    0.0000    0.0000 C   0  0  0  0  0  0  0  0  0  0  0  0
   -1.0908   -0.6071   -0.0000 O   0  0  0  0  0  1  0  0  0  0  0  0
    1.0908   -0.6060   -0.0000 O   0  0  0  0  0  0  0  0  0  0  0  0
    1.0977    3.4407   -5.1140 C   0  0  0  0  0  0  0  0  0  0  0  0
    0.1078    3.5948   -5.1439 H   0  0  0  0  0  0  0  0  0  0  0  0
    1.5621    4.3204   -4.9871 H   0  0  0  0  0  0  0  0  0  0  0  0
    1.3926    3.0384   -5.9834 H   0  0  0  0  0  0  0  0  0  0  0  0
    1.4379    2.5114   -3.9769 C   0  0  0  0  0  0  0  0  0  0  0  0
    1.9933    3.0211   -3.3247 H   0  0  0  0  0  0  0  0  0  0  0  0
    2.0436    1.6738   -4.3231 H   0  0  0  0  0  0  0  0  0  0  0  0
    0.1751    2.0029   -3.3497 C   0  0  0  0  0  0  0  0  0  0  0  0
    0.2718    1.9873   -2.3502 H   0  0  0  0  0  0  0  0  0  0  0  0
   -0.5932    2.6008   -3.5953 H   0  0  0  0  0  0  0  0  0  0  0  0
   -0.0166    1.0728   -3.6747 H   0  0  0  0  0  0  0  0  0  0  0  0
  1  5  1  0
  5  6  1  0
  5  7  2  0
  1  2  1  0
  1  3  1  0
  1  4  1  0
  8 12  1  0
 12 15  1  0
  8  9  1  0
  8 10  1  0
  8 11  1  0
 12 13  1  0
 12 14  1  0
 15 16  1  0
 15 17  1  0
 15 18  1  0
M  CHG  1   6  -1
M  END
>  <PDB_ID>  (1421) 
pdb3hwk

>  <RESIDUE_NAME>  (1421) 
ASP   VAL

>  <FRAG_NAME>  (1421) 
ACET   PRPA

>  <FRAG_ATOM_NUM>  (1421) 
fragi: 7  fragj: 11

>  <atom.prop.CHAIN_ID>  (1421) 
A A A A A A A Z Z Z Z Z Z Z Z Z Z Z

>  <atom.prop.IS_HEAVY_ATOM>  (1421) 
1 0 0 0 1 1 1 1 0 0 0 1 0 0 1 0 0 0

>  <DIFUSE_FUNC_ATOM>  (1421) 
atom 6   atom 7   

>  <FINAL_SINGLE_POINT_ENERGY>  (1421) 
0

>  <NONCOV_INTER_ENERGY_QM>  (1421) 
0

>  <FF_Energy>  (1421) 
45.6

>  <QM_Energy>  (1421) 
4.54

>  <source>  (1421) 
ACET_PRPA_15

>  <Index>  (1421) 
13829

$$$$
ACET-pdb4fc5-B-ASP-139:PRPA-pdb4fc5-B-ARG-119
     RDKit          3D

 18 16  0  0  0  0  0  0  0  0999 V2000
   -0.0278    1.5129   -0.0091 C   0  0  0  0  0  0  0  0  0  0  0  0
   -0.6548    1.8266    0.6983 H   0  0  0  0  0  0  0  0  0  0  0  0
   -0.3376    1.8231   -0.9030 H   0  0  0  0  0  0  0  0  0  0  0  0
    0.9465    1.9622    0.1830 H   0  0  0  0  0  0  0  0  0  0  0  0
    0.0000    0.0000    0.0000 C   0  0  0  0  0  0  0  0  0  0  0  0
   -1.0841   -0.6106    0.0000 O   0  0  0  0  0  1  0  0  0  0  0  0
    1.0841   -0.5924   -0.0000 O   0  0  0  0  0  0  0  0  0  0  0  0
   -3.1233   -3.5447    0.6507 C   0  0  0  0  0  0  0  0  0  0  0  0
   -3.5910   -3.0716    1.4106 H   0  0  0  0  0  0  0  0  0  0  0  0
   -3.2820   -4.5356    0.7582 H   0  0  0  0  0  0  0  0  0  0  0  0
   -3.6009   -3.2314   -0.2776 H   0  0  0  0  0  0  0  0  0  0  0  0
   -1.6416   -3.2901    0.7800 C   0  0  0  0  0  0  0  0  0  0  0  0
   -1.1540   -3.7912    0.0840 H   0  0  0  0  0  0  0  0  0  0  0  0
   -1.4626   -2.3211    0.7224 H   0  0  0  0  0  0  0  0  0  0  0  0
   -1.1824   -3.7802    2.1335 C   0  0  0  0  0  0  0  0  0  0  0  0
   -1.9320   -3.6616    2.7800 H   0  0  0  0  0  0  0  0  0  0  0  0
   -0.9517   -4.7479    2.0538 H   0  0  0  0  0  0  0  0  0  0  0  0
   -0.3104   -3.2323    2.4909 H   0  0  0  0  0  0  0  0  0  0  0  0
  1  5  1  0
  5  6  1  0
  5  7  2  0
  1  2  1  0
  1  3  1  0
  1  4  1  0
  8 12  1  0
 12 15  1  0
  8  9  1  0
  8 10  1  0
  8 11  1  0
 12 13  1  0
 12 14  1  0
 15 16  1  0
 15 17  1  0
 15 18  1  0
M  CHG  1   6  -1
M  END
>  <PDB_ID>  (1422) 
pdb4fc5

>  <RESIDUE_NAME>  (1422) 
ASP   ARG

>  <FRAG_NAME>  (1422) 
ACET   PRPA

>  <FRAG_ATOM_NUM>  (1422) 
fragi: 7  fragj: 11

>  <atom.prop.CHAIN_ID>  (1422) 
A A A A A A A Z Z Z Z Z Z Z Z Z Z Z

>  <atom.prop.IS_HEAVY_ATOM>  (1422) 
1 0 0 0 1 1 1 1 0 0 0 1 0 0 1 0 0 0

>  <DIFUSE_FUNC_ATOM>  (1422) 
atom 6   atom 7   

>  <FINAL_SINGLE_POINT_ENERGY>  (1422) 
0

>  <NONCOV_INTER_ENERGY_QM>  (1422) 
0

>  <FF_Energy>  (1422) 
16.51

>  <QM_Energy>  (1422) 
-0.89

>  <source>  (1422) 
ACET_PRPA_15

>  <Index>  (1422) 
14299

$$$$
ACET-pdb3itf-A-GLU-92:PRPA-pdb3itf-B-LYS-115
     RDKit          3D

 18 16  0  0  0  0  0  0  0  0999 V2000
    0.0068    1.5120    0.0219 C   0  0  0  0  0  0  0  0  0  0  0  0
    0.9228    1.8058    0.2262 H   0  0  0  0  0  0  0  0  0  0  0  0
   -0.6386    1.8055    0.7038 H   0  0  0  0  0  0  0  0  0  0  0  0
   -0.2835    1.9527   -0.9319 H   0  0  0  0  0  0  0  0  0  0  0  0
    0.0000    0.0000    0.0000 C   0  0  0  0  0  0  0  0  0  0  0  0
   -1.1055   -0.5994    0.0000 O   0  0  0  0  0  1  0  0  0  0  0  0
    1.1055   -0.5745    0.0000 O   0  0  0  0  0  0  0  0  0  0  0  0
   -5.6834   -1.3219    0.4683 C   0  0  0  0  0  0  0  0  0  0  0  0
   -5.7662   -1.8430    1.3294 H   0  0  0  0  0  0  0  0  0  0  0  0
   -5.7794   -1.9749   -0.2969 H   0  0  0  0  0  0  0  0  0  0  0  0
   -6.5174   -0.6219    0.4181 H   0  0  0  0  0  0  0  0  0  0  0  0
   -4.3516   -0.7038    0.4077 C   0  0  0  0  0  0  0  0  0  0  0  0
   -4.1841   -0.3260   -0.4929 H   0  0  0  0  0  0  0  0  0  0  0  0
   -4.2566   -0.0099    1.1075 H   0  0  0  0  0  0  0  0  0  0  0  0
   -3.3315   -1.7913    0.6686 C   0  0  0  0  0  0  0  0  0  0  0  0
   -2.4537   -1.3713    0.8570 H   0  0  0  0  0  0  0  0  0  0  0  0
   -3.6341   -2.3420    1.4355 H   0  0  0  0  0  0  0  0  0  0  0  0
   -3.2346   -2.4324   -0.2077 H   0  0  0  0  0  0  0  0  0  0  0  0
  1  5  1  0
  5  6  1  0
  5  7  2  0
  1  2  1  0
  1  3  1  0
  1  4  1  0
  8 12  1  0
 12 15  1  0
  8  9  1  0
  8 10  1  0
  8 11  1  0
 12 13  1  0
 12 14  1  0
 15 16  1  0
 15 17  1  0
 15 18  1  0
M  CHG  1   6  -1
M  END
>  <PDB_ID>  (1423) 
pdb3itf

>  <RESIDUE_NAME>  (1423) 
GLU   LYS

>  <FRAG_NAME>  (1423) 
ACET   PRPA

>  <FRAG_ATOM_NUM>  (1423) 
fragi: 7  fragj: 11

>  <atom.prop.CHAIN_ID>  (1423) 
A A A A A A A Z Z Z Z Z Z Z Z Z Z Z

>  <atom.prop.IS_HEAVY_ATOM>  (1423) 
1 0 0 0 1 1 1 1 0 0 0 1 0 0 1 0 0 0

>  <DIFUSE_FUNC_ATOM>  (1423) 
atom 6   atom 7   

>  <FINAL_SINGLE_POINT_ENERGY>  (1423) 
0

>  <NONCOV_INTER_ENERGY_QM>  (1423) 
0

>  <FF_Energy>  (1423) 
35.87

>  <QM_Energy>  (1423) 
2.58

>  <source>  (1423) 
ACET_PRPA_15

>  <Index>  (1423) 
17858

$$$$
ACET-pdb3ivp-A-GLU-19:PRPA-pdb3ivp-A-LYS-23
     RDKit          3D

 18 16  0  0  0  0  0  0  0  0999 V2000
    0.0322    1.5210    0.0422 C   0  0  0  0  0  0  0  0  0  0  0  0
    0.9793    1.7928    0.0656 H   0  0  0  0  0  0  0  0  0  0  0  0
   -0.4503    1.8009    0.8547 H   0  0  0  0  0  0  0  0  0  0  0  0
   -0.4405    1.9867   -0.8226 H   0  0  0  0  0  0  0  0  0  0  0  0
    0.0000    0.0000    0.0000 C   0  0  0  0  0  0  0  0  0  0  0  0
   -1.1078   -0.6001   -0.0000 O   0  0  0  0  0  1  0  0  0  0  0  0
    1.1078   -0.6012   -0.0000 O   0  0  0  0  0  0  0  0  0  0  0  0
    2.6372   -3.5521   -1.2738 C   0  0  0  0  0  0  0  0  0  0  0  0
    3.5563   -3.3244   -1.0039 H   0  0  0  0  0  0  0  0  0  0  0  0
    2.3725   -2.9924   -2.1708 H   0  0  0  0  0  0  0  0  0  0  0  0
    2.6066   -4.5974   -1.5811 H   0  0  0  0  0  0  0  0  0  0  0  0
    1.6636   -3.3305   -0.1160 C   0  0  0  0  0  0  0  0  0  0  0  0
    1.6909   -2.3986    0.1546 H   0  0  0  0  0  0  0  0  0  0  0  0
    0.7813   -3.6481   -0.3721 H   0  0  0  0  0  0  0  0  0  0  0  0
    2.1364   -4.1890    1.1074 C   0  0  0  0  0  0  0  0  0  0  0  0
    1.9902   -5.1405    0.8895 H   0  0  0  0  0  0  0  0  0  0  0  0
    3.0898   -3.9945    1.2697 H   0  0  0  0  0  0  0  0  0  0  0  0
    1.5547   -3.9235    1.9902 H   0  0  0  0  0  0  0  0  0  0  0  0
  1  5  1  0
  5  6  1  0
  5  7  2  0
  1  2  1  0
  1  3  1  0
  1  4  1  0
  8 12  1  0
 12 15  1  0
  8  9  1  0
  8 10  1  0
  8 11  1  0
 12 13  1  0
 12 14  1  0
 15 16  1  0
 15 17  1  0
 15 18  1  0
M  CHG  1   6  -1
M  END
>  <PDB_ID>  (1424) 
pdb3ivp

>  <RESIDUE_NAME>  (1424) 
GLU   LYS

>  <FRAG_NAME>  (1424) 
ACET   PRPA

>  <FRAG_ATOM_NUM>  (1424) 
fragi: 7  fragj: 11

>  <atom.prop.CHAIN_ID>  (1424) 
A A A A A A A Z Z Z Z Z Z Z Z Z Z Z

>  <atom.prop.IS_HEAVY_ATOM>  (1424) 
1 0 0 0 1 1 1 1 0 0 0 1 0 0 1 0 0 0

>  <DIFUSE_FUNC_ATOM>  (1424) 
atom 6   atom 7   

>  <FINAL_SINGLE_POINT_ENERGY>  (1424) 
0

>  <NONCOV_INTER_ENERGY_QM>  (1424) 
0

>  <FF_Energy>  (1424) 
16.87

>  <QM_Energy>  (1424) 
-0.14

>  <source>  (1424) 
ACET_PRPA_15

>  <Index>  (1424) 
18951

$$$$
ACET-pdb3hwk-E-GLU-320:PRPA-pdb3hwk-E-LEU-317
     RDKit          3D

 18 16  0  0  0  0  0  0  0  0999 V2000
    0.1730    1.4847    0.0154 C   0  0  0  0  0  0  0  0  0  0  0  0
    0.6919    1.7413   -0.8013 H   0  0  0  0  0  0  0  0  0  0  0  0
    0.7039    1.7224    0.8309 H   0  0  0  0  0  0  0  0  0  0  0  0
   -0.7378    2.0834    0.0281 H   0  0  0  0  0  0  0  0  0  0  0  0
    0.0000    0.0000    0.0000 C   0  0  0  0  0  0  0  0  0  0  0  0
   -1.0899   -0.5582   -0.0000 O   0  0  0  0  0  1  0  0  0  0  0  0
    1.0899   -0.6072   -0.0000 O   0  0  0  0  0  0  0  0  0  0  0  0
    3.3007    0.9120   -0.5874 C   0  0  0  0  0  0  0  0  0  0  0  0
    2.4732    0.5821   -0.1185 H   0  0  0  0  0  0  0  0  0  0  0  0
    3.1643    0.7749   -1.6601 H   0  0  0  0  0  0  0  0  0  0  0  0
    3.4438    1.9634   -0.3382 H   0  0  0  0  0  0  0  0  0  0  0  0
    4.4821    0.0865   -0.0868 C   0  0  0  0  0  0  0  0  0  0  0  0
    4.5975   -0.6969   -0.7182 H   0  0  0  0  0  0  0  0  0  0  0  0
    5.3110    0.6625   -0.1592 H   0  0  0  0  0  0  0  0  0  0  0  0
    4.4622   -0.4874    1.3323 C   0  0  0  0  0  0  0  0  0  0  0  0
    4.3899    0.2709    1.9893 H   0  0  0  0  0  0  0  0  0  0  0  0
    3.6304   -1.1746    1.4870 H   0  0  0  0  0  0  0  0  0  0  0  0
    5.4052   -0.9948    1.5357 H   0  0  0  0  0  0  0  0  0  0  0  0
  1  5  1  0
  5  6  1  0
  5  7  2  0
  1  2  1  0
  1  3  1  0
  1  4  1  0
  8 12  1  0
 12 15  1  0
  8  9  1  0
  8 10  1  0
  8 11  1  0
 12 13  1  0
 12 14  1  0
 15 16  1  0
 15 17  1  0
 15 18  1  0
M  CHG  1   6  -1
M  END
>  <PDB_ID>  (1425) 
pdb3hwk

>  <RESIDUE_NAME>  (1425) 
GLU   LEU

>  <FRAG_NAME>  (1425) 
ACET   PRPA

>  <FRAG_ATOM_NUM>  (1425) 
fragi: 7  fragj: 11

>  <atom.prop.CHAIN_ID>  (1425) 
A A A A A A A Z Z Z Z Z Z Z Z Z Z Z

>  <atom.prop.IS_HEAVY_ATOM>  (1425) 
1 0 0 0 1 1 1 1 0 0 0 1 0 0 1 0 0 0

>  <DIFUSE_FUNC_ATOM>  (1425) 
atom 6   atom 7   

>  <FINAL_SINGLE_POINT_ENERGY>  (1425) 
0

>  <NONCOV_INTER_ENERGY_QM>  (1425) 
0

>  <FF_Energy>  (1425) 
26.82

>  <QM_Energy>  (1425) 
1.57

>  <source>  (1425) 
ACET_PRPA_15

>  <Index>  (1425) 
19410

$$$$
ACET-pdb3iuy-A-GLU-386:PRPA-pdb3iuy-A-LYS-389
     RDKit          3D

 18 16  0  0  0  0  0  0  0  0999 V2000
    0.0420    1.5383   -0.0124 C   0  0  0  0  0  0  0  0  0  0  0  0
    0.2776    1.8204   -0.9216 H   0  0  0  0  0  0  0  0  0  0  0  0
    0.7037    1.8213    0.6539 H   0  0  0  0  0  0  0  0  0  0  0  0
   -0.9093    2.0047    0.2438 H   0  0  0  0  0  0  0  0  0  0  0  0
    0.0000    0.0000    0.0000 C   0  0  0  0  0  0  0  0  0  0  0  0
   -1.1033   -0.6122    0.0000 O   0  0  0  0  0  1  0  0  0  0  0  0
    1.1033   -0.6143   -0.0000 O   0  0  0  0  0  0  0  0  0  0  0  0
   -5.2519    0.7170   -0.2487 C   0  0  0  0  0  0  0  0  0  0  0  0
   -4.5529    1.2040    0.2748 H   0  0  0  0  0  0  0  0  0  0  0  0
   -5.6641    0.0086    0.3241 H   0  0  0  0  0  0  0  0  0  0  0  0
   -6.0296    1.4279   -0.5278 H   0  0  0  0  0  0  0  0  0  0  0  0
   -4.5702    0.0349   -1.4302 C   0  0  0  0  0  0  0  0  0  0  0  0
   -5.2586   -0.4627   -1.9586 H   0  0  0  0  0  0  0  0  0  0  0  0
   -4.1461    0.7321   -2.0079 H   0  0  0  0  0  0  0  0  0  0  0  0
   -3.4994   -0.9425   -0.9710 C   0  0  0  0  0  0  0  0  0  0  0  0
   -2.8155   -0.4410   -0.4402 H   0  0  0  0  0  0  0  0  0  0  0  0
   -3.9269   -1.6368   -0.3917 H   0  0  0  0  0  0  0  0  0  0  0  0
   -3.0016   -1.4392   -1.8039 H   0  0  0  0  0  0  0  0  0  0  0  0
  1  5  1  0
  5  6  1  0
  5  7  2  0
  1  2  1  0
  1  3  1  0
  1  4  1  0
  8 12  1  0
 12 15  1  0
  8  9  1  0
  8 10  1  0
  8 11  1  0
 12 13  1  0
 12 14  1  0
 15 16  1  0
 15 17  1  0
 15 18  1  0
M  CHG  1   6  -1
M  END
>  <PDB_ID>  (1426) 
pdb3iuy

>  <RESIDUE_NAME>  (1426) 
GLU   LYS

>  <FRAG_NAME>  (1426) 
ACET   PRPA

>  <FRAG_ATOM_NUM>  (1426) 
fragi: 7  fragj: 11

>  <atom.prop.CHAIN_ID>  (1426) 
A A A A A A A Z Z Z Z Z Z Z Z Z Z Z

>  <atom.prop.IS_HEAVY_ATOM>  (1426) 
1 0 0 0 1 1 1 1 0 0 0 1 0 0 1 0 0 0

>  <DIFUSE_FUNC_ATOM>  (1426) 
atom 6   atom 7   

>  <FINAL_SINGLE_POINT_ENERGY>  (1426) 
0

>  <NONCOV_INTER_ENERGY_QM>  (1426) 
0

>  <FF_Energy>  (1426) 
35.28

>  <QM_Energy>  (1426) 
3.97

>  <source>  (1426) 
ACET_PRPA_15

>  <Index>  (1426) 
20033

$$$$
ACET-pdb3iuy-A-GLU-396:PRPA-pdb3iuy-A-LEU-391
     RDKit          3D

 18 16  0  0  0  0  0  0  0  0999 V2000
    0.2305    1.5179    0.0143 C   0  0  0  0  0  0  0  0  0  0  0  0
    0.7382    1.7398   -0.8036 H   0  0  0  0  0  0  0  0  0  0  0  0
    0.7498    1.7222    0.8290 H   0  0  0  0  0  0  0  0  0  0  0  0
   -0.6847    2.1097    0.0260 H   0  0  0  0  0  0  0  0  0  0  0  0
    0.0000    0.0000    0.0000 C   0  0  0  0  0  0  0  0  0  0  0  0
   -1.0870   -0.5248    0.0000 O   0  0  0  0  0  1  0  0  0  0  0  0
    1.0870   -0.6172   -0.0000 O   0  0  0  0  0  0  0  0  0  0  0  0
    4.5367   -0.4260    3.0730 C   0  0  0  0  0  0  0  0  0  0  0  0
    5.0765   -0.1763    2.2518 H   0  0  0  0  0  0  0  0  0  0  0  0
    5.1856   -0.7837    3.7634 H   0  0  0  0  0  0  0  0  0  0  0  0
    4.1034    0.4910    3.4725 H   0  0  0  0  0  0  0  0  0  0  0  0
    3.6298   -1.6049    2.6642 C   0  0  0  0  0  0  0  0  0  0  0  0
    4.0363   -2.0663    1.8715 H   0  0  0  0  0  0  0  0  0  0  0  0
    3.5037   -2.3295    3.4687 H   0  0  0  0  0  0  0  0  0  0  0  0
    2.2454   -1.1166    2.0853 C   0  0  0  0  0  0  0  0  0  0  0  0
    2.4272   -0.5583    1.2863 H   0  0  0  0  0  0  0  0  0  0  0  0
    1.7146   -1.9188    1.8433 H   0  0  0  0  0  0  0  0  0  0  0  0
    1.7885   -0.5882    2.7890 H   0  0  0  0  0  0  0  0  0  0  0  0
  1  5  1  0
  5  6  1  0
  5  7  2  0
  1  2  1  0
  1  3  1  0
  1  4  1  0
  8 12  1  0
 12 15  1  0
  8  9  1  0
  8 10  1  0
  8 11  1  0
 12 13  1  0
 12 14  1  0
 15 16  1  0
 15 17  1  0
 15 18  1  0
M  CHG  1   6  -1
M  END
>  <PDB_ID>  (1427) 
pdb3iuy

>  <RESIDUE_NAME>  (1427) 
GLU   LEU

>  <FRAG_NAME>  (1427) 
ACET   PRPA

>  <FRAG_ATOM_NUM>  (1427) 
fragi: 7  fragj: 11

>  <atom.prop.CHAIN_ID>  (1427) 
A A A A A A A Z Z Z Z Z Z Z Z Z Z Z

>  <atom.prop.IS_HEAVY_ATOM>  (1427) 
1 0 0 0 1 1 1 1 0 0 0 1 0 0 1 0 0 0

>  <DIFUSE_FUNC_ATOM>  (1427) 
atom 6   atom 7   

>  <FINAL_SINGLE_POINT_ENERGY>  (1427) 
0

>  <NONCOV_INTER_ENERGY_QM>  (1427) 
0

>  <FF_Energy>  (1427) 
31.9

>  <QM_Energy>  (1427) 
7.2

>  <source>  (1427) 
ACET_PRPA_15

>  <Index>  (1427) 
20064

$$$$
ACET-pdb4g91-C-GLU-108:PRPA-pdb4g91-B-ARG-131
     RDKit          3D

 18 16  0  0  0  0  0  0  0  0999 V2000
    0.0184    1.5191    0.0122 C   0  0  0  0  0  0  0  0  0  0  0  0
    0.7016    1.8112   -0.6303 H   0  0  0  0  0  0  0  0  0  0  0  0
    0.2228    1.8041    0.9302 H   0  0  0  0  0  0  0  0  0  0  0  0
   -0.9370    1.9549   -0.2799 H   0  0  0  0  0  0  0  0  0  0  0  0
    0.0000    0.0000    0.0000 C   0  0  0  0  0  0  0  0  0  0  0  0
   -1.0934   -0.6092    0.0000 O   0  0  0  0  0  1  0  0  0  0  0  0
    1.0934   -0.5903   -0.0000 O   0  0  0  0  0  0  0  0  0  0  0  0
    4.6464   -1.3830   -3.3784 C   0  0  0  0  0  0  0  0  0  0  0  0
    4.4928   -1.8693   -4.2308 H   0  0  0  0  0  0  0  0  0  0  0  0
    5.0365   -1.9895   -2.6964 H   0  0  0  0  0  0  0  0  0  0  0  0
    5.3617   -0.5830   -3.5692 H   0  0  0  0  0  0  0  0  0  0  0  0
    3.3026   -0.8903   -2.8626 C   0  0  0  0  0  0  0  0  0  0  0  0
    3.4335   -0.0256   -2.3696 H   0  0  0  0  0  0  0  0  0  0  0  0
    2.6885   -0.7291   -3.6401 H   0  0  0  0  0  0  0  0  0  0  0  0
    2.6239   -1.8713   -1.9225 C   0  0  0  0  0  0  0  0  0  0  0  0
    3.3214   -2.2358   -1.2983 H   0  0  0  0  0  0  0  0  0  0  0  0
    1.9420   -1.3642   -1.3867 H   0  0  0  0  0  0  0  0  0  0  0  0
    2.1326   -2.7007   -2.4314 H   0  0  0  0  0  0  0  0  0  0  0  0
  1  5  1  0
  5  6  1  0
  5  7  2  0
  1  2  1  0
  1  3  1  0
  1  4  1  0
  8 12  1  0
 12 15  1  0
  8  9  1  0
  8 10  1  0
  8 11  1  0
 12 13  1  0
 12 14  1  0
 15 16  1  0
 15 17  1  0
 15 18  1  0
M  CHG  1   6  -1
M  END
>  <PDB_ID>  (1428) 
pdb4g91

>  <RESIDUE_NAME>  (1428) 
GLU   ARG

>  <FRAG_NAME>  (1428) 
ACET   PRPA

>  <FRAG_ATOM_NUM>  (1428) 
fragi: 7  fragj: 11

>  <atom.prop.CHAIN_ID>  (1428) 
A A A A A A A Z Z Z Z Z Z Z Z Z Z Z

>  <atom.prop.IS_HEAVY_ATOM>  (1428) 
1 0 0 0 1 1 1 1 0 0 0 1 0 0 1 0 0 0

>  <DIFUSE_FUNC_ATOM>  (1428) 
atom 6   atom 7   

>  <FINAL_SINGLE_POINT_ENERGY>  (1428) 
0

>  <NONCOV_INTER_ENERGY_QM>  (1428) 
0

>  <FF_Energy>  (1428) 
26.82

>  <QM_Energy>  (1428) 
0.14

>  <source>  (1428) 
ACET_PRPA_15

>  <Index>  (1428) 
21113

$$$$
ACET-pdb4g2n-A-ASP-104:PRPA-pdb4g2n-A-ARG-162
     RDKit          3D

 18 16  0  0  0  0  0  0  0  0999 V2000
   -0.0029    1.5370    0.0305 C   0  0  0  0  0  0  0  0  0  0  0  0
   -0.2848    1.8693   -0.8585 H   0  0  0  0  0  0  0  0  0  0  0  0
    0.9084    1.8492    0.2545 H   0  0  0  0  0  0  0  0  0  0  0  0
   -0.6894    1.9443    0.7728 H   0  0  0  0  0  0  0  0  0  0  0  0
    0.0000    0.0000    0.0000 C   0  0  0  0  0  0  0  0  0  0  0  0
   -1.0962   -0.6055    0.0000 O   0  0  0  0  0  1  0  0  0  0  0  0
    1.0962   -0.6058    0.0000 O   0  0  0  0  0  0  0  0  0  0  0  0
   -5.1681   -2.4575    0.0079 C   0  0  0  0  0  0  0  0  0  0  0  0
   -5.4268   -1.5953   -0.4120 H   0  0  0  0  0  0  0  0  0  0  0  0
   -4.8761   -2.3143    0.9464 H   0  0  0  0  0  0  0  0  0  0  0  0
   -6.0412   -3.1100    0.0161 H   0  0  0  0  0  0  0  0  0  0  0  0
   -3.9932   -3.0279   -0.7699 C   0  0  0  0  0  0  0  0  0  0  0  0
   -4.1285   -3.9957   -0.9139 H   0  0  0  0  0  0  0  0  0  0  0  0
   -3.8972   -2.5454   -1.6275 H   0  0  0  0  0  0  0  0  0  0  0  0
   -2.7139   -2.8377    0.0305 C   0  0  0  0  0  0  0  0  0  0  0  0
   -2.4183   -1.8899   -0.0780 H   0  0  0  0  0  0  0  0  0  0  0  0
   -2.9211   -3.0181    0.9915 H   0  0  0  0  0  0  0  0  0  0  0  0
   -1.9133   -3.5021   -0.2944 H   0  0  0  0  0  0  0  0  0  0  0  0
  1  5  1  0
  5  6  1  0
  5  7  2  0
  1  2  1  0
  1  3  1  0
  1  4  1  0
  8 12  1  0
 12 15  1  0
  8  9  1  0
  8 10  1  0
  8 11  1  0
 12 13  1  0
 12 14  1  0
 15 16  1  0
 15 17  1  0
 15 18  1  0
M  CHG  1   6  -1
M  END
>  <PDB_ID>  (1429) 
pdb4g2n

>  <RESIDUE_NAME>  (1429) 
ASP   ARG

>  <FRAG_NAME>  (1429) 
ACET   PRPA

>  <FRAG_ATOM_NUM>  (1429) 
fragi: 7  fragj: 11

>  <atom.prop.CHAIN_ID>  (1429) 
A A A A A A A Z Z Z Z Z Z Z Z Z Z Z

>  <atom.prop.IS_HEAVY_ATOM>  (1429) 
1 0 0 0 1 1 1 1 0 0 0 1 0 0 1 0 0 0

>  <DIFUSE_FUNC_ATOM>  (1429) 
atom 6   atom 7   

>  <FINAL_SINGLE_POINT_ENERGY>  (1429) 
0

>  <NONCOV_INTER_ENERGY_QM>  (1429) 
0

>  <FF_Energy>  (1429) 
20.51

>  <QM_Energy>  (1429) 
0.88

>  <source>  (1429) 
ACET_PRPA_15

>  <Index>  (1429) 
22303

$$$$
ACET-pdb3ipv-B-ASP-38:PRPA-pdb3ipv-B-VAL-42
     RDKit          3D

 18 16  0  0  0  0  0  0  0  0999 V2000
    0.0380    1.4815    0.0030 C   0  0  0  0  0  0  0  0  0  0  0  0
    0.2300    1.8135   -0.9202 H   0  0  0  0  0  0  0  0  0  0  0  0
    0.7518    1.7964    0.6265 H   0  0  0  0  0  0  0  0  0  0  0  0
   -0.9007    1.9330    0.3242 H   0  0  0  0  0  0  0  0  0  0  0  0
    0.0000    0.0000    0.0000 C   0  0  0  0  0  0  0  0  0  0  0  0
   -1.1161   -0.6017   -0.0000 O   0  0  0  0  0  1  0  0  0  0  0  0
    1.1161   -0.5710    0.0000 O   0  0  0  0  0  0  0  0  0  0  0  0
   -1.2056   -2.2462    3.3715 C   0  0  0  0  0  0  0  0  0  0  0  0
   -1.5523   -2.9226    4.0049 H   0  0  0  0  0  0  0  0  0  0  0  0
   -2.0123   -1.9986    2.6815 H   0  0  0  0  0  0  0  0  0  0  0  0
   -0.9721   -1.3343    3.9210 H   0  0  0  0  0  0  0  0  0  0  0  0
    0.0149   -2.8380    2.6667 C   0  0  0  0  0  0  0  0  0  0  0  0
    0.7969   -2.2300    2.7998 H   0  0  0  0  0  0  0  0  0  0  0  0
    0.3302   -3.7926    3.0879 H   0  0  0  0  0  0  0  0  0  0  0  0
   -0.2465   -2.9165    1.1704 C   0  0  0  0  0  0  0  0  0  0  0  0
   -0.9579   -2.2586    0.9239 H   0  0  0  0  0  0  0  0  0  0  0  0
    0.5962   -2.7020    0.6760 H   0  0  0  0  0  0  0  0  0  0  0  0
   -0.5478   -3.8408    0.9356 H   0  0  0  0  0  0  0  0  0  0  0  0
  1  5  1  0
  5  6  1  0
  5  7  2  0
  1  2  1  0
  1  3  1  0
  1  4  1  0
  8 12  1  0
 12 15  1  0
  8  9  1  0
  8 10  1  0
  8 11  1  0
 12 13  1  0
 12 14  1  0
 15 16  1  0
 15 17  1  0
 15 18  1  0
M  CHG  1   6  -1
M  END
>  <PDB_ID>  (1430) 
pdb3ipv

>  <RESIDUE_NAME>  (1430) 
ASP   VAL

>  <FRAG_NAME>  (1430) 
ACET   PRPA

>  <FRAG_ATOM_NUM>  (1430) 
fragi: 7  fragj: 11

>  <atom.prop.CHAIN_ID>  (1430) 
A A A A A A A Z Z Z Z Z Z Z Z Z Z Z

>  <atom.prop.IS_HEAVY_ATOM>  (1430) 
1 0 0 0 1 1 1 1 0 0 0 1 0 0 1 0 0 0

>  <DIFUSE_FUNC_ATOM>  (1430) 
atom 6   atom 7   

>  <FINAL_SINGLE_POINT_ENERGY>  (1430) 
0

>  <NONCOV_INTER_ENERGY_QM>  (1430) 
0

>  <FF_Energy>  (1430) 
17.78

>  <QM_Energy>  (1430) 
1.28

>  <source>  (1430) 
ACET_PRPA_15

>  <Index>  (1430) 
22837

$$$$
ACET-pdb3ipv-B-ASP-38:PRPA-pdb3ipv-B-VAL-42
     RDKit          3D

 18 16  0  0  0  0  0  0  0  0999 V2000
    0.0380    1.4815    0.0030 C   0  0  0  0  0  0  0  0  0  0  0  0
    0.2300    1.8135   -0.9202 H   0  0  0  0  0  0  0  0  0  0  0  0
    0.7518    1.7964    0.6265 H   0  0  0  0  0  0  0  0  0  0  0  0
   -0.9007    1.9330    0.3242 H   0  0  0  0  0  0  0  0  0  0  0  0
    0.0000    0.0000    0.0000 C   0  0  0  0  0  0  0  0  0  0  0  0
   -1.1161   -0.6017   -0.0000 O   0  0  0  0  0  1  0  0  0  0  0  0
    1.1161   -0.5710    0.0000 O   0  0  0  0  0  0  0  0  0  0  0  0
    0.4771   -4.2377    3.2841 C   0  0  0  0  0  0  0  0  0  0  0  0
    1.0445   -4.0421    4.0691 H   0  0  0  0  0  0  0  0  0  0  0  0
   -0.3385   -4.7314    3.5425 H   0  0  0  0  0  0  0  0  0  0  0  0
    0.9835   -4.7169    2.5843 H   0  0  0  0  0  0  0  0  0  0  0  0
    0.0149   -2.8380    2.6667 C   0  0  0  0  0  0  0  0  0  0  0  0
    0.7969   -2.2300    2.7998 H   0  0  0  0  0  0  0  0  0  0  0  0
   -0.8554   -2.4160    3.1692 H   0  0  0  0  0  0  0  0  0  0  0  0
   -0.2465   -2.9165    1.1704 C   0  0  0  0  0  0  0  0  0  0  0  0
   -0.9579   -2.2586    0.9239 H   0  0  0  0  0  0  0  0  0  0  0  0
    0.5962   -2.7020    0.6760 H   0  0  0  0  0  0  0  0  0  0  0  0
   -0.5478   -3.8408    0.9356 H   0  0  0  0  0  0  0  0  0  0  0  0
  1  5  1  0
  5  6  1  0
  5  7  2  0
  1  2  1  0
  1  3  1  0
  1  4  1  0
  8 12  1  0
 12 15  1  0
  8  9  1  0
  8 10  1  0
  8 11  1  0
 12 13  1  0
 12 14  1  0
 15 16  1  0
 15 17  1  0
 15 18  1  0
M  CHG  1   6  -1
M  END
>  <PDB_ID>  (1431) 
pdb3ipv

>  <RESIDUE_NAME>  (1431) 
ASP   VAL

>  <FRAG_NAME>  (1431) 
ACET   PRPA

>  <FRAG_ATOM_NUM>  (1431) 
fragi: 7  fragj: 11

>  <atom.prop.CHAIN_ID>  (1431) 
A A A A A A A Z Z Z Z Z Z Z Z Z Z Z

>  <atom.prop.IS_HEAVY_ATOM>  (1431) 
1 0 0 0 1 1 1 1 0 0 0 1 0 0 1 0 0 0

>  <DIFUSE_FUNC_ATOM>  (1431) 
atom 6   atom 7   

>  <FINAL_SINGLE_POINT_ENERGY>  (1431) 
0

>  <NONCOV_INTER_ENERGY_QM>  (1431) 
0

>  <FF_Energy>  (1431) 
17.17

>  <QM_Energy>  (1431) 
1.82

>  <source>  (1431) 
ACET_PRPA_15

>  <Index>  (1431) 
22838

$$$$
ACET-pdb3jtn-B-ASP-79:PRPA-pdb3jtn-B-LEU-76
     RDKit          3D

 18 16  0  0  0  0  0  0  0  0999 V2000
    0.0006    1.5042    0.0281 C   0  0  0  0  0  0  0  0  0  0  0  0
    0.6148    1.8170    0.7475 H   0  0  0  0  0  0  0  0  0  0  0  0
   -0.9242    1.8277    0.2047 H   0  0  0  0  0  0  0  0  0  0  0  0
    0.3345    1.9516   -0.9082 H   0  0  0  0  0  0  0  0  0  0  0  0
    0.0000    0.0000    0.0000 C   0  0  0  0  0  0  0  0  0  0  0  0
   -1.1032   -0.5924   -0.0000 O   0  0  0  0  0  1  0  0  0  0  0  0
    1.1032   -0.5824    0.0000 O   0  0  0  0  0  0  0  0  0  0  0  0
    2.9330   -3.9172   -2.4428 C   0  0  0  0  0  0  0  0  0  0  0  0
    2.2487   -4.4767   -2.9193 H   0  0  0  0  0  0  0  0  0  0  0  0
    3.2492   -4.4133   -1.6303 H   0  0  0  0  0  0  0  0  0  0  0  0
    3.7850   -3.7919   -3.1110 H   0  0  0  0  0  0  0  0  0  0  0  0
    2.2330   -2.6601   -1.9613 C   0  0  0  0  0  0  0  0  0  0  0  0
    2.8711   -2.1155   -1.4192 H   0  0  0  0  0  0  0  0  0  0  0  0
    1.8920   -2.0751   -2.8154 H   0  0  0  0  0  0  0  0  0  0  0  0
    1.0704   -3.0721   -1.0766 C   0  0  0  0  0  0  0  0  0  0  0  0
    1.4113   -3.5949   -0.2935 H   0  0  0  0  0  0  0  0  0  0  0  0
    0.5933   -2.2559   -0.7469 H   0  0  0  0  0  0  0  0  0  0  0  0
    0.4327   -3.6392   -1.6004 H   0  0  0  0  0  0  0  0  0  0  0  0
  1  5  1  0
  5  6  1  0
  5  7  2  0
  1  2  1  0
  1  3  1  0
  1  4  1  0
  8 12  1  0
 12 15  1  0
  8  9  1  0
  8 10  1  0
  8 11  1  0
 12 13  1  0
 12 14  1  0
 15 16  1  0
 15 17  1  0
 15 18  1  0
M  CHG  1   6  -1
M  END
>  <PDB_ID>  (1432) 
pdb3jtn

>  <RESIDUE_NAME>  (1432) 
ASP   LEU

>  <FRAG_NAME>  (1432) 
ACET   PRPA

>  <FRAG_ATOM_NUM>  (1432) 
fragi: 7  fragj: 11

>  <atom.prop.CHAIN_ID>  (1432) 
A A A A A A A Z Z Z Z Z Z Z Z Z Z Z

>  <atom.prop.IS_HEAVY_ATOM>  (1432) 
1 0 0 0 1 1 1 1 0 0 0 1 0 0 1 0 0 0

>  <DIFUSE_FUNC_ATOM>  (1432) 
atom 6   atom 7   

>  <FINAL_SINGLE_POINT_ENERGY>  (1432) 
0

>  <NONCOV_INTER_ENERGY_QM>  (1432) 
0

>  <FF_Energy>  (1432) 
17.18

>  <QM_Energy>  (1432) 
0.37

>  <source>  (1432) 
ACET_PRPA_15

>  <Index>  (1432) 
22907

$$$$
ACET-pdb3jtn-B-ASP-79:PRPA-pdb3jtn-B-LEU-76
     RDKit          3D

 18 16  0  0  0  0  0  0  0  0999 V2000
    0.0006    1.5042    0.0281 C   0  0  0  0  0  0  0  0  0  0  0  0
    0.6148    1.8170    0.7475 H   0  0  0  0  0  0  0  0  0  0  0  0
   -0.9242    1.8277    0.2047 H   0  0  0  0  0  0  0  0  0  0  0  0
    0.3345    1.9516   -0.9082 H   0  0  0  0  0  0  0  0  0  0  0  0
    0.0000    0.0000    0.0000 C   0  0  0  0  0  0  0  0  0  0  0  0
   -1.1032   -0.5924   -0.0000 O   0  0  0  0  0  1  0  0  0  0  0  0
    1.1032   -0.5824    0.0000 O   0  0  0  0  0  0  0  0  0  0  0  0
    1.7589   -1.8468   -3.1488 C   0  0  0  0  0  0  0  0  0  0  0  0
    1.1197   -2.3895   -3.6963 H   0  0  0  0  0  0  0  0  0  0  0  0
    1.2974   -1.0178   -2.8280 H   0  0  0  0  0  0  0  0  0  0  0  0
    2.5428   -1.5898   -3.7162 H   0  0  0  0  0  0  0  0  0  0  0  0
    2.2330   -2.6601   -1.9613 C   0  0  0  0  0  0  0  0  0  0  0  0
    2.8711   -2.1155   -1.4192 H   0  0  0  0  0  0  0  0  0  0  0  0
    2.7359   -3.5632   -2.3072 H   0  0  0  0  0  0  0  0  0  0  0  0
    1.0704   -3.0721   -1.0766 C   0  0  0  0  0  0  0  0  0  0  0  0
    1.4113   -3.5949   -0.2935 H   0  0  0  0  0  0  0  0  0  0  0  0
    0.5933   -2.2559   -0.7469 H   0  0  0  0  0  0  0  0  0  0  0  0
    0.4327   -3.6392   -1.6004 H   0  0  0  0  0  0  0  0  0  0  0  0
  1  5  1  0
  5  6  1  0
  5  7  2  0
  1  2  1  0
  1  3  1  0
  1  4  1  0
  8 12  1  0
 12 15  1  0
  8  9  1  0
  8 10  1  0
  8 11  1  0
 12 13  1  0
 12 14  1  0
 15 16  1  0
 15 17  1  0
 15 18  1  0
M  CHG  1   6  -1
M  END
>  <PDB_ID>  (1433) 
pdb3jtn

>  <RESIDUE_NAME>  (1433) 
ASP   LEU

>  <FRAG_NAME>  (1433) 
ACET   PRPA

>  <FRAG_ATOM_NUM>  (1433) 
fragi: 7  fragj: 11

>  <atom.prop.CHAIN_ID>  (1433) 
A A A A A A A Z Z Z Z Z Z Z Z Z Z Z

>  <atom.prop.IS_HEAVY_ATOM>  (1433) 
1 0 0 0 1 1 1 1 0 0 0 1 0 0 1 0 0 0

>  <DIFUSE_FUNC_ATOM>  (1433) 
atom 6   atom 7   

>  <FINAL_SINGLE_POINT_ENERGY>  (1433) 
0

>  <NONCOV_INTER_ENERGY_QM>  (1433) 
0

>  <FF_Energy>  (1433) 
17.77

>  <QM_Energy>  (1433) 
-0.51

>  <source>  (1433) 
ACET_PRPA_15

>  <Index>  (1433) 
22908

$$$$
ACET-pdb4fc5-E-ASP-220:PRPA-pdb4fc5-E-ARG-223
     RDKit          3D

 18 16  0  0  0  0  0  0  0  0999 V2000
   -0.0073    1.4964    0.0169 C   0  0  0  0  0  0  0  0  0  0  0  0
    0.8511    1.8318   -0.3602 H   0  0  0  0  0  0  0  0  0  0  0  0
   -0.1162    1.8124    0.9538 H   0  0  0  0  0  0  0  0  0  0  0  0
   -0.8201    1.9167   -0.5753 H   0  0  0  0  0  0  0  0  0  0  0  0
    0.0000    0.0000    0.0000 C   0  0  0  0  0  0  0  0  0  0  0  0
   -1.1035   -0.5858    0.0000 O   0  0  0  0  0  1  0  0  0  0  0  0
    1.1035   -0.5884   -0.0000 O   0  0  0  0  0  0  0  0  0  0  0  0
   -1.8981   -1.1418    3.2964 C   0  0  0  0  0  0  0  0  0  0  0  0
   -1.6229   -2.0226    3.7032 H   0  0  0  0  0  0  0  0  0  0  0  0
   -2.4940   -1.3414    2.4059 H   0  0  0  0  0  0  0  0  0  0  0  0
   -2.4625   -0.5764    4.0381 H   0  0  0  0  0  0  0  0  0  0  0  0
   -0.6516   -0.3532    2.9020 C   0  0  0  0  0  0  0  0  0  0  0  0
   -0.5325   -0.4400    1.9071 H   0  0  0  0  0  0  0  0  0  0  0  0
   -0.8150    0.6142    3.1212 H   0  0  0  0  0  0  0  0  0  0  0  0
    0.6375   -0.7730    3.5668 C   0  0  0  0  0  0  0  0  0  0  0  0
    0.5238   -1.6685    3.9889 H   0  0  0  0  0  0  0  0  0  0  0  0
    1.3701   -0.8044    2.8920 H   0  0  0  0  0  0  0  0  0  0  0  0
    0.9288   -0.0681    4.3455 H   0  0  0  0  0  0  0  0  0  0  0  0
  1  5  1  0
  5  6  1  0
  5  7  2  0
  1  2  1  0
  1  3  1  0
  1  4  1  0
  8 12  1  0
 12 15  1  0
  8  9  1  0
  8 10  1  0
  8 11  1  0
 12 13  1  0
 12 14  1  0
 15 16  1  0
 15 17  1  0
 15 18  1  0
M  CHG  1   6  -1
M  END
>  <PDB_ID>  (1434) 
pdb4fc5

>  <RESIDUE_NAME>  (1434) 
ASP   ARG

>  <FRAG_NAME>  (1434) 
ACET   PRPA

>  <FRAG_ATOM_NUM>  (1434) 
fragi: 7  fragj: 11

>  <atom.prop.CHAIN_ID>  (1434) 
A A A A A A A Z Z Z Z Z Z Z Z Z Z Z

>  <atom.prop.IS_HEAVY_ATOM>  (1434) 
1 0 0 0 1 1 1 1 0 0 0 1 0 0 1 0 0 0

>  <DIFUSE_FUNC_ATOM>  (1434) 
atom 6   atom 7   

>  <FINAL_SINGLE_POINT_ENERGY>  (1434) 
0

>  <NONCOV_INTER_ENERGY_QM>  (1434) 
0

>  <FF_Energy>  (1434) 
26.96

>  <QM_Energy>  (1434) 
-1.11

>  <source>  (1434) 
ACET_PRPA_15

>  <Index>  (1434) 
23567

$$$$
ACET-pdb4fc5-E-ASP-220:PRPA-pdb4fc5-E-ARG-223
     RDKit          3D

 18 16  0  0  0  0  0  0  0  0999 V2000
   -0.0073    1.4964    0.0169 C   0  0  0  0  0  0  0  0  0  0  0  0
    0.8511    1.8318   -0.3602 H   0  0  0  0  0  0  0  0  0  0  0  0
   -0.1162    1.8124    0.9538 H   0  0  0  0  0  0  0  0  0  0  0  0
   -0.8201    1.9167   -0.5753 H   0  0  0  0  0  0  0  0  0  0  0  0
    0.0000    0.0000    0.0000 C   0  0  0  0  0  0  0  0  0  0  0  0
   -1.1035   -0.5858    0.0000 O   0  0  0  0  0  1  0  0  0  0  0  0
    1.1035   -0.5884   -0.0000 O   0  0  0  0  0  0  0  0  0  0  0  0
   -0.6516   -0.3532    2.9020 C   0  0  0  0  0  0  0  0  0  0  0  0
   -0.5325   -0.4400    1.9071 H   0  0  0  0  0  0  0  0  0  0  0  0
   -0.8150    0.6142    3.1212 H   0  0  0  0  0  0  0  0  0  0  0  0
   -1.5414   -0.9162    3.1836 H   0  0  0  0  0  0  0  0  0  0  0  0
    0.6375   -0.7730    3.5668 C   0  0  0  0  0  0  0  0  0  0  0  0
    0.5238   -1.6685    3.9889 H   0  0  0  0  0  0  0  0  0  0  0  0
    1.3701   -0.8044    2.8920 H   0  0  0  0  0  0  0  0  0  0  0  0
    1.0440    0.2107    4.6535 C   0  0  0  0  0  0  0  0  0  0  0  0
    0.5506    1.0641    4.5001 H   0  0  0  0  0  0  0  0  0  0  0  0
    0.7839   -0.1785    5.5348 H   0  0  0  0  0  0  0  0  0  0  0  0
    2.1154    0.4107    4.6516 H   0  0  0  0  0  0  0  0  0  0  0  0
  1  5  1  0
  5  6  1  0
  5  7  2  0
  1  2  1  0
  1  3  1  0
  1  4  1  0
  8 12  1  0
 12 15  1  0
  8  9  1  0
  8 10  1  0
  8 11  1  0
 12 13  1  0
 12 14  1  0
 15 16  1  0
 15 17  1  0
 15 18  1  0
M  CHG  1   6  -1
M  END
>  <PDB_ID>  (1435) 
pdb4fc5

>  <RESIDUE_NAME>  (1435) 
ASP   ARG

>  <FRAG_NAME>  (1435) 
ACET   PRPA

>  <FRAG_ATOM_NUM>  (1435) 
fragi: 7  fragj: 11

>  <atom.prop.CHAIN_ID>  (1435) 
A A A A A A A Z Z Z Z Z Z Z Z Z Z Z

>  <atom.prop.IS_HEAVY_ATOM>  (1435) 
1 0 0 0 1 1 1 1 0 0 0 1 0 0 1 0 0 0

>  <DIFUSE_FUNC_ATOM>  (1435) 
atom 6   atom 7   

>  <FINAL_SINGLE_POINT_ENERGY>  (1435) 
0

>  <NONCOV_INTER_ENERGY_QM>  (1435) 
0

>  <FF_Energy>  (1435) 
23.21

>  <QM_Energy>  (1435) 
0.78

>  <source>  (1435) 
ACET_PRPA_15

>  <Index>  (1435) 
23573

$$$$
ACET-pdb3jxv-A-GLU-345:PRPA-pdb3jxv-A-LYS-278
     RDKit          3D

 18 16  0  0  0  0  0  0  0  0999 V2000
    0.0367    1.5150    0.0766 C   0  0  0  0  0  0  0  0  0  0  0  0
   -0.7673    1.8203    0.5160 H   0  0  0  0  0  0  0  0  0  0  0  0
    0.1831    1.8642   -0.8116 H   0  0  0  0  0  0  0  0  0  0  0  0
    0.8800    1.8296    0.6913 H   0  0  0  0  0  0  0  0  0  0  0  0
    0.0000    0.0000    0.0000 C   0  0  0  0  0  0  0  0  0  0  0  0
   -1.0897   -0.5497   -0.0000 O   0  0  0  0  0  1  0  0  0  0  0  0
    1.0897   -0.6304   -0.0000 O   0  0  0  0  0  0  0  0  0  0  0  0
   -4.9697   -2.3882    0.1613 C   0  0  0  0  0  0  0  0  0  0  0  0
   -4.6748   -1.9670   -0.6624 H   0  0  0  0  0  0  0  0  0  0  0  0
   -5.3299   -1.7763    0.8213 H   0  0  0  0  0  0  0  0  0  0  0  0
   -5.7061   -3.1594   -0.0647 H   0  0  0  0  0  0  0  0  0  0  0  0
   -3.7865   -3.1508    0.7809 C   0  0  0  0  0  0  0  0  0  0  0  0
   -3.8798   -3.0709    1.7890 H   0  0  0  0  0  0  0  0  0  0  0  0
   -3.9104   -4.1305    0.5462 H   0  0  0  0  0  0  0  0  0  0  0  0
   -2.4826   -2.6911    0.3560 C   0  0  0  0  0  0  0  0  0  0  0  0
   -2.4814   -1.6323    0.3542 H   0  0  0  0  0  0  0  0  0  0  0  0
   -1.7854   -2.8897    1.1280 H   0  0  0  0  0  0  0  0  0  0  0  0
   -2.0419   -3.0258   -0.5830 H   0  0  0  0  0  0  0  0  0  0  0  0
  1  5  1  0
  5  6  1  0
  5  7  2  0
  1  2  1  0
  1  3  1  0
  1  4  1  0
  8 12  1  0
 12 15  1  0
  8  9  1  0
  8 10  1  0
  8 11  1  0
 12 13  1  0
 12 14  1  0
 15 16  1  0
 15 17  1  0
 15 18  1  0
M  CHG  1   6  -1
M  END
>  <PDB_ID>  (1436) 
pdb3jxv

>  <RESIDUE_NAME>  (1436) 
GLU   LYS

>  <FRAG_NAME>  (1436) 
ACET   PRPA

>  <FRAG_ATOM_NUM>  (1436) 
fragi: 7  fragj: 11

>  <atom.prop.CHAIN_ID>  (1436) 
A A A A A A A Z Z Z Z Z Z Z Z Z Z Z

>  <atom.prop.IS_HEAVY_ATOM>  (1436) 
1 0 0 0 1 1 1 1 0 0 0 1 0 0 1 0 0 0

>  <DIFUSE_FUNC_ATOM>  (1436) 
atom 6   atom 7   

>  <FINAL_SINGLE_POINT_ENERGY>  (1436) 
0

>  <NONCOV_INTER_ENERGY_QM>  (1436) 
0

>  <FF_Energy>  (1436) 
31.82

>  <QM_Energy>  (1436) 
4.9

>  <source>  (1436) 
ACET_PRPA_15

>  <Index>  (1436) 
24981

$$$$
ACET-pdb3jyl-A-ASP-196:PRPA-pdb3jyl-A-LYS-199
     RDKit          3D

 18 16  0  0  0  0  0  0  0  0999 V2000
   -0.0050    1.5137    0.0257 C   0  0  0  0  0  0  0  0  0  0  0  0
    0.1560    1.8507   -0.8947 H   0  0  0  0  0  0  0  0  0  0  0  0
    0.7083    1.8267    0.6404 H   0  0  0  0  0  0  0  0  0  0  0  0
   -0.9534    1.9233    0.3732 H   0  0  0  0  0  0  0  0  0  0  0  0
    0.0000    0.0000    0.0000 C   0  0  0  0  0  0  0  0  0  0  0  0
   -1.0947   -0.5991    0.0000 O   0  0  0  0  0  1  0  0  0  0  0  0
    1.0947   -0.5956    0.0000 O   0  0  0  0  0  0  0  0  0  0  0  0
    2.8006    1.0014    2.7920 C   0  0  0  0  0  0  0  0  0  0  0  0
    2.0723    1.5662    2.4651 H   0  0  0  0  0  0  0  0  0  0  0  0
    3.5859    1.5113    3.0741 H   0  0  0  0  0  0  0  0  0  0  0  0
    2.4401    0.4123    3.6353 H   0  0  0  0  0  0  0  0  0  0  0  0
    3.2225    0.0585    1.6567 C   0  0  0  0  0  0  0  0  0  0  0  0
    3.9372   -0.5640    2.0075 H   0  0  0  0  0  0  0  0  0  0  0  0
    2.4251   -0.5023    1.3942 H   0  0  0  0  0  0  0  0  0  0  0  0
    3.7522    0.7706    0.4246 C   0  0  0  0  0  0  0  0  0  0  0  0
    3.0520    1.3673    0.0674 H   0  0  0  0  0  0  0  0  0  0  0  0
    4.5689    1.2700    0.6628 H   0  0  0  0  0  0  0  0  0  0  0  0
    4.0062    0.0392   -0.3426 H   0  0  0  0  0  0  0  0  0  0  0  0
  1  5  1  0
  5  6  1  0
  5  7  2  0
  1  2  1  0
  1  3  1  0
  1  4  1  0
  8 12  1  0
 12 15  1  0
  8  9  1  0
  8 10  1  0
  8 11  1  0
 12 13  1  0
 12 14  1  0
 15 16  1  0
 15 17  1  0
 15 18  1  0
M  CHG  1   6  -1
M  END
>  <PDB_ID>  (1437) 
pdb3jyl

>  <RESIDUE_NAME>  (1437) 
ASP   LYS

>  <FRAG_NAME>  (1437) 
ACET   PRPA

>  <FRAG_ATOM_NUM>  (1437) 
fragi: 7  fragj: 11

>  <atom.prop.CHAIN_ID>  (1437) 
A A A A A A A Z Z Z Z Z Z Z Z Z Z Z

>  <atom.prop.IS_HEAVY_ATOM>  (1437) 
1 0 0 0 1 1 1 1 0 0 0 1 0 0 1 0 0 0

>  <DIFUSE_FUNC_ATOM>  (1437) 
atom 6   atom 7   

>  <FINAL_SINGLE_POINT_ENERGY>  (1437) 
0

>  <NONCOV_INTER_ENERGY_QM>  (1437) 
0

>  <FF_Energy>  (1437) 
14.39

>  <QM_Energy>  (1437) 
-0.92

>  <source>  (1437) 
ACET_PRPA_15

>  <Index>  (1437) 
26452

$$$$
ACET-pdb3jyl-A-ASP-196:PRPA-pdb3jyl-A-LYS-199
     RDKit          3D

 18 16  0  0  0  0  0  0  0  0999 V2000
   -0.0050    1.5137    0.0257 C   0  0  0  0  0  0  0  0  0  0  0  0
    0.1560    1.8507   -0.8947 H   0  0  0  0  0  0  0  0  0  0  0  0
    0.7083    1.8267    0.6404 H   0  0  0  0  0  0  0  0  0  0  0  0
   -0.9534    1.9233    0.3732 H   0  0  0  0  0  0  0  0  0  0  0  0
    0.0000    0.0000    0.0000 C   0  0  0  0  0  0  0  0  0  0  0  0
   -1.0947   -0.5991    0.0000 O   0  0  0  0  0  1  0  0  0  0  0  0
    1.0947   -0.5956    0.0000 O   0  0  0  0  0  0  0  0  0  0  0  0
    3.2225    0.0585    1.6567 C   0  0  0  0  0  0  0  0  0  0  0  0
    3.9372   -0.5640    2.0075 H   0  0  0  0  0  0  0  0  0  0  0  0
    2.4251   -0.5023    1.3942 H   0  0  0  0  0  0  0  0  0  0  0  0
    2.9229    0.7281    2.4629 H   0  0  0  0  0  0  0  0  0  0  0  0
    3.7522    0.7706    0.4246 C   0  0  0  0  0  0  0  0  0  0  0  0
    3.0520    1.3673    0.0674 H   0  0  0  0  0  0  0  0  0  0  0  0
    4.5689    1.2700    0.6628 H   0  0  0  0  0  0  0  0  0  0  0  0
    4.1086   -0.2559   -0.6521 C   0  0  0  0  0  0  0  0  0  0  0  0
    4.7223   -0.9471   -0.2481 H   0  0  0  0  0  0  0  0  0  0  0  0
    3.2632   -0.7238   -0.9437 H   0  0  0  0  0  0  0  0  0  0  0  0
    4.5923    0.1801   -1.5262 H   0  0  0  0  0  0  0  0  0  0  0  0
  1  5  1  0
  5  6  1  0
  5  7  2  0
  1  2  1  0
  1  3  1  0
  1  4  1  0
  8 12  1  0
 12 15  1  0
  8  9  1  0
  8 10  1  0
  8 11  1  0
 12 13  1  0
 12 14  1  0
 15 16  1  0
 15 17  1  0
 15 18  1  0
M  CHG  1   6  -1
M  END
>  <PDB_ID>  (1438) 
pdb3jyl

>  <RESIDUE_NAME>  (1438) 
ASP   LYS

>  <FRAG_NAME>  (1438) 
ACET   PRPA

>  <FRAG_ATOM_NUM>  (1438) 
fragi: 7  fragj: 11

>  <atom.prop.CHAIN_ID>  (1438) 
A A A A A A A Z Z Z Z Z Z Z Z Z Z Z

>  <atom.prop.IS_HEAVY_ATOM>  (1438) 
1 0 0 0 1 1 1 1 0 0 0 1 0 0 1 0 0 0

>  <DIFUSE_FUNC_ATOM>  (1438) 
atom 6   atom 7   

>  <FINAL_SINGLE_POINT_ENERGY>  (1438) 
0

>  <NONCOV_INTER_ENERGY_QM>  (1438) 
0

>  <FF_Energy>  (1438) 
14.17

>  <QM_Energy>  (1438) 
-2.03

>  <source>  (1438) 
ACET_PRPA_15

>  <Index>  (1438) 
26453

$$$$
ACET-pdb3iwp-A-GLU-220:PRPA-pdb3iwp-A-LEU-27
     RDKit          3D

 18 16  0  0  0  0  0  0  0  0999 V2000
    0.0616    1.5447   -0.0607 C   0  0  0  0  0  0  0  0  0  0  0  0
   -0.3066    1.8135   -0.9351 H   0  0  0  0  0  0  0  0  0  0  0  0
    1.0113    1.7986    0.0282 H   0  0  0  0  0  0  0  0  0  0  0  0
   -0.5034    2.0565    0.7183 H   0  0  0  0  0  0  0  0  0  0  0  0
    0.0000    0.0000    0.0000 C   0  0  0  0  0  0  0  0  0  0  0  0
   -1.0869   -0.6296    0.0000 O   0  0  0  0  0  1  0  0  0  0  0  0
    1.0869   -0.5957   -0.0000 O   0  0  0  0  0  0  0  0  0  0  0  0
   -0.6862    2.3355   -3.2021 C   0  0  0  0  0  0  0  0  0  0  0  0
    0.3047    2.2912   -3.3810 H   0  0  0  0  0  0  0  0  0  0  0  0
   -0.8336    2.2322   -2.2117 H   0  0  0  0  0  0  0  0  0  0  0  0
   -1.0316    3.3289   -3.4882 H   0  0  0  0  0  0  0  0  0  0  0  0
   -1.3181    1.1305   -3.8788 C   0  0  0  0  0  0  0  0  0  0  0  0
   -1.5473    1.3639   -4.8231 H   0  0  0  0  0  0  0  0  0  0  0  0
   -2.2571    0.8703   -3.3902 H   0  0  0  0  0  0  0  0  0  0  0  0
   -0.3506   -0.0512   -3.8774 C   0  0  0  0  0  0  0  0  0  0  0  0
   -0.1210   -0.2898   -2.9347 H   0  0  0  0  0  0  0  0  0  0  0  0
   -0.7818   -0.8336   -4.3261 H   0  0  0  0  0  0  0  0  0  0  0  0
    0.4809    0.2005   -4.3705 H   0  0  0  0  0  0  0  0  0  0  0  0
  1  5  1  0
  5  6  1  0
  5  7  2  0
  1  2  1  0
  1  3  1  0
  1  4  1  0
  8 12  1  0
 12 15  1  0
  8  9  1  0
  8 10  1  0
  8 11  1  0
 12 13  1  0
 12 14  1  0
 15 16  1  0
 15 17  1  0
 15 18  1  0
M  CHG  1   6  -1
M  END
>  <PDB_ID>  (1439) 
pdb3iwp

>  <RESIDUE_NAME>  (1439) 
GLU   LEU

>  <FRAG_NAME>  (1439) 
ACET   PRPA

>  <FRAG_ATOM_NUM>  (1439) 
fragi: 7  fragj: 11

>  <atom.prop.CHAIN_ID>  (1439) 
A A A A A A A Z Z Z Z Z Z Z Z Z Z Z

>  <atom.prop.IS_HEAVY_ATOM>  (1439) 
1 0 0 0 1 1 1 1 0 0 0 1 0 0 1 0 0 0

>  <DIFUSE_FUNC_ATOM>  (1439) 
atom 6   atom 7   

>  <FINAL_SINGLE_POINT_ENERGY>  (1439) 
0

>  <NONCOV_INTER_ENERGY_QM>  (1439) 
0

>  <FF_Energy>  (1439) 
41.54

>  <QM_Energy>  (1439) 
2.85

>  <source>  (1439) 
ACET_PRPA_15

>  <Index>  (1439) 
26865

$$$$
ACET-pdb3iwp-A-GLU-220:PRPA-pdb3iwp-A-LEU-27
     RDKit          3D

 18 16  0  0  0  0  0  0  0  0999 V2000
    0.0616    1.5447   -0.0607 C   0  0  0  0  0  0  0  0  0  0  0  0
   -0.3066    1.8135   -0.9351 H   0  0  0  0  0  0  0  0  0  0  0  0
    1.0113    1.7986    0.0282 H   0  0  0  0  0  0  0  0  0  0  0  0
   -0.5034    2.0565    0.7183 H   0  0  0  0  0  0  0  0  0  0  0  0
    0.0000    0.0000    0.0000 C   0  0  0  0  0  0  0  0  0  0  0  0
   -1.0869   -0.6296    0.0000 O   0  0  0  0  0  1  0  0  0  0  0  0
    1.0869   -0.5957   -0.0000 O   0  0  0  0  0  0  0  0  0  0  0  0
   -0.6862    2.3355   -3.2021 C   0  0  0  0  0  0  0  0  0  0  0  0
    0.3047    2.2912   -3.3810 H   0  0  0  0  0  0  0  0  0  0  0  0
   -0.8336    2.2322   -2.2117 H   0  0  0  0  0  0  0  0  0  0  0  0
   -1.0316    3.3289   -3.4882 H   0  0  0  0  0  0  0  0  0  0  0  0
   -1.3181    1.1305   -3.8788 C   0  0  0  0  0  0  0  0  0  0  0  0
   -1.5473    1.3639   -4.8231 H   0  0  0  0  0  0  0  0  0  0  0  0
   -0.6276    0.2871   -3.8778 H   0  0  0  0  0  0  0  0  0  0  0  0
   -2.6277    0.7676   -3.1975 C   0  0  0  0  0  0  0  0  0  0  0  0
   -3.2608    1.5408   -3.2533 H   0  0  0  0  0  0  0  0  0  0  0  0
   -3.0334   -0.0268   -3.6526 H   0  0  0  0  0  0  0  0  0  0  0  0
   -2.4557    0.5475   -2.2361 H   0  0  0  0  0  0  0  0  0  0  0  0
  1  5  1  0
  5  6  1  0
  5  7  2  0
  1  2  1  0
  1  3  1  0
  1  4  1  0
  8 12  1  0
 12 15  1  0
  8  9  1  0
  8 10  1  0
  8 11  1  0
 12 13  1  0
 12 14  1  0
 15 16  1  0
 15 17  1  0
 15 18  1  0
M  CHG  1   6  -1
M  END
>  <PDB_ID>  (1440) 
pdb3iwp

>  <RESIDUE_NAME>  (1440) 
GLU   LEU

>  <FRAG_NAME>  (1440) 
ACET   PRPA

>  <FRAG_ATOM_NUM>  (1440) 
fragi: 7  fragj: 11

>  <atom.prop.CHAIN_ID>  (1440) 
A A A A A A A Z Z Z Z Z Z Z Z Z Z Z

>  <atom.prop.IS_HEAVY_ATOM>  (1440) 
1 0 0 0 1 1 1 1 0 0 0 1 0 0 1 0 0 0

>  <DIFUSE_FUNC_ATOM>  (1440) 
atom 6   atom 7   

>  <FINAL_SINGLE_POINT_ENERGY>  (1440) 
0

>  <NONCOV_INTER_ENERGY_QM>  (1440) 
0

>  <FF_Energy>  (1440) 
41.55

>  <QM_Energy>  (1440) 
2.91

>  <source>  (1440) 
ACET_PRPA_15

>  <Index>  (1440) 
26866

$$$$
ACET-pdb3jva-A-GLU-212:PRPA-pdb3jva-A-LYS-185
     RDKit          3D

 18 16  0  0  0  0  0  0  0  0999 V2000
   -0.0012    1.5081   -0.0206 C   0  0  0  0  0  0  0  0  0  0  0  0
   -0.1137    1.7966   -0.9557 H   0  0  0  0  0  0  0  0  0  0  0  0
    0.8553    1.8148    0.3576 H   0  0  0  0  0  0  0  0  0  0  0  0
   -0.8081    1.9447    0.5679 H   0  0  0  0  0  0  0  0  0  0  0  0
    0.0000    0.0000    0.0000 C   0  0  0  0  0  0  0  0  0  0  0  0
   -1.0975   -0.5926   -0.0000 O   0  0  0  0  0  1  0  0  0  0  0  0
    1.0975   -0.5908    0.0000 O   0  0  0  0  0  0  0  0  0  0  0  0
   -0.6739   -0.6762    4.9566 C   0  0  0  0  0  0  0  0  0  0  0  0
    0.1665   -0.6324    5.4991 H   0  0  0  0  0  0  0  0  0  0  0  0
   -0.9499   -1.6340    4.8560 H   0  0  0  0  0  0  0  0  0  0  0  0
   -1.4582   -0.1558    5.5064 H   0  0  0  0  0  0  0  0  0  0  0  0
   -0.3829   -0.1146    3.5776 C   0  0  0  0  0  0  0  0  0  0  0  0
   -1.2038   -0.1838    3.0118 H   0  0  0  0  0  0  0  0  0  0  0  0
   -0.1111    0.8427    3.6598 H   0  0  0  0  0  0  0  0  0  0  0  0
    0.7475   -0.8850    2.8904 C   0  0  0  0  0  0  0  0  0  0  0  0
    0.5495   -1.8618    2.9503 H   0  0  0  0  0  0  0  0  0  0  0  0
    0.7867   -0.6069    1.9328 H   0  0  0  0  0  0  0  0  0  0  0  0
    1.7207   -0.7001    3.3454 H   0  0  0  0  0  0  0  0  0  0  0  0
  1  5  1  0
  5  6  1  0
  5  7  2  0
  1  2  1  0
  1  3  1  0
  1  4  1  0
  8 12  1  0
 12 15  1  0
  8  9  1  0
  8 10  1  0
  8 11  1  0
 12 13  1  0
 12 14  1  0
 15 16  1  0
 15 17  1  0
 15 18  1  0
M  CHG  1   6  -1
M  END
>  <PDB_ID>  (1441) 
pdb3jva

>  <RESIDUE_NAME>  (1441) 
GLU   LYS

>  <FRAG_NAME>  (1441) 
ACET   PRPA

>  <FRAG_ATOM_NUM>  (1441) 
fragi: 7  fragj: 11

>  <atom.prop.CHAIN_ID>  (1441) 
A A A A A A A Z Z Z Z Z Z Z Z Z Z Z

>  <atom.prop.IS_HEAVY_ATOM>  (1441) 
1 0 0 0 1 1 1 1 0 0 0 1 0 0 1 0 0 0

>  <DIFUSE_FUNC_ATOM>  (1441) 
atom 6   atom 7   

>  <FINAL_SINGLE_POINT_ENERGY>  (1441) 
0

>  <NONCOV_INTER_ENERGY_QM>  (1441) 
0

>  <FF_Energy>  (1441) 
15.31

>  <QM_Energy>  (1441) 
-0.62

>  <source>  (1441) 
ACET_PRPA_15

>  <Index>  (1441) 
28568

$$$$
ACET-pdb4gr2-B-ASP-57:PRPA-pdb4gr2-B-LYS-60
     RDKit          3D

 18 16  0  0  0  0  0  0  0  0999 V2000
    0.0506    1.5576    0.0313 C   0  0  0  0  0  0  0  0  0  0  0  0
    0.6913    1.8547   -0.6647 H   0  0  0  0  0  0  0  0  0  0  0  0
    0.3557    1.8332    0.9321 H   0  0  0  0  0  0  0  0  0  0  0  0
   -0.9128    2.0282   -0.1653 H   0  0  0  0  0  0  0  0  0  0  0  0
    0.0000    0.0000    0.0000 C   0  0  0  0  0  0  0  0  0  0  0  0
   -1.0894   -0.6253   -0.0000 O   0  0  0  0  0  1  0  0  0  0  0  0
    1.0894   -0.6185    0.0000 O   0  0  0  0  0  0  0  0  0  0  0  0
   -0.7507   -1.0966    4.1435 C   0  0  0  0  0  0  0  0  0  0  0  0
   -0.4633   -1.9721    4.5249 H   0  0  0  0  0  0  0  0  0  0  0  0
   -1.5330   -1.2723    3.4051 H   0  0  0  0  0  0  0  0  0  0  0  0
   -1.1643   -0.4792    4.9409 H   0  0  0  0  0  0  0  0  0  0  0  0
    0.4888   -0.4294    3.5230 C   0  0  0  0  0  0  0  0  0  0  0  0
    0.2103    0.4508    3.1476 H   0  0  0  0  0  0  0  0  0  0  0  0
    1.1609   -0.2949    4.2461 H   0  0  0  0  0  0  0  0  0  0  0  0
    1.1356   -1.2447    2.4102 C   0  0  0  0  0  0  0  0  0  0  0  0
    1.4200   -2.1285    2.7776 H   0  0  0  0  0  0  0  0  0  0  0  0
    0.4700   -1.3835    1.6788 H   0  0  0  0  0  0  0  0  0  0  0  0
    2.0079   -0.7343    2.0019 H   0  0  0  0  0  0  0  0  0  0  0  0
  1  5  1  0
  5  6  1  0
  5  7  2  0
  1  2  1  0
  1  3  1  0
  1  4  1  0
  8 12  1  0
 12 15  1  0
  8  9  1  0
  8 10  1  0
  8 11  1  0
 12 13  1  0
 12 14  1  0
 15 16  1  0
 15 17  1  0
 15 18  1  0
M  CHG  1   6  -1
M  END
>  <PDB_ID>  (1442) 
pdb4gr2

>  <RESIDUE_NAME>  (1442) 
ASP   LYS

>  <FRAG_NAME>  (1442) 
ACET   PRPA

>  <FRAG_ATOM_NUM>  (1442) 
fragi: 7  fragj: 11

>  <atom.prop.CHAIN_ID>  (1442) 
A A A A A A A Z Z Z Z Z Z Z Z Z Z Z

>  <atom.prop.IS_HEAVY_ATOM>  (1442) 
1 0 0 0 1 1 1 1 0 0 0 1 0 0 1 0 0 0

>  <DIFUSE_FUNC_ATOM>  (1442) 
atom 6   atom 7   

>  <FINAL_SINGLE_POINT_ENERGY>  (1442) 
0

>  <NONCOV_INTER_ENERGY_QM>  (1442) 
0

>  <FF_Energy>  (1442) 
27.94

>  <QM_Energy>  (1442) 
6.46

>  <source>  (1442) 
ACET_PRPA_15

>  <Index>  (1442) 
29247

$$$$
ACET-pdb4gqo-A-GLU-333:PRPA-pdb4gqo-A-LYS-120
     RDKit          3D

 18 16  0  0  0  0  0  0  0  0999 V2000
   -0.0123    1.5297   -0.0393 C   0  0  0  0  0  0  0  0  0  0  0  0
    0.2953    1.8061   -0.9280 H   0  0  0  0  0  0  0  0  0  0  0  0
    0.5718    1.8488    0.6809 H   0  0  0  0  0  0  0  0  0  0  0  0
   -1.0045    1.9524    0.1187 H   0  0  0  0  0  0  0  0  0  0  0  0
    0.0000    0.0000    0.0000 C   0  0  0  0  0  0  0  0  0  0  0  0
   -1.0982   -0.5933    0.0000 O   0  0  0  0  0  1  0  0  0  0  0  0
    1.0982   -0.6089   -0.0000 O   0  0  0  0  0  0  0  0  0  0  0  0
    0.2835   -0.2614   -3.2501 C   0  0  0  0  0  0  0  0  0  0  0  0
    0.8679    0.2944   -2.6442 H   0  0  0  0  0  0  0  0  0  0  0  0
   -0.5968    0.2189   -3.3610 H   0  0  0  0  0  0  0  0  0  0  0  0
    0.7652   -0.3287   -4.2255 H   0  0  0  0  0  0  0  0  0  0  0  0
    0.0257   -1.6118   -2.5797 C   0  0  0  0  0  0  0  0  0  0  0  0
    0.8996   -2.0827   -2.4652 H   0  0  0  0  0  0  0  0  0  0  0  0
   -0.3886   -1.4510   -1.6854 H   0  0  0  0  0  0  0  0  0  0  0  0
   -0.9031   -2.5046   -3.3912 C   0  0  0  0  0  0  0  0  0  0  0  0
   -1.0669   -3.3506   -2.8797 H   0  0  0  0  0  0  0  0  0  0  0  0
   -1.7757   -2.0280   -3.5235 H   0  0  0  0  0  0  0  0  0  0  0  0
   -0.4759   -2.7484   -4.3638 H   0  0  0  0  0  0  0  0  0  0  0  0
  1  5  1  0
  5  6  1  0
  5  7  2  0
  1  2  1  0
  1  3  1  0
  1  4  1  0
  8 12  1  0
 12 15  1  0
  8  9  1  0
  8 10  1  0
  8 11  1  0
 12 13  1  0
 12 14  1  0
 15 16  1  0
 15 17  1  0
 15 18  1  0
M  CHG  1   6  -1
M  END
>  <PDB_ID>  (1443) 
pdb4gqo

>  <RESIDUE_NAME>  (1443) 
GLU   LYS

>  <FRAG_NAME>  (1443) 
ACET   PRPA

>  <FRAG_ATOM_NUM>  (1443) 
fragi: 7  fragj: 11

>  <atom.prop.CHAIN_ID>  (1443) 
A A A A A A A Z Z Z Z Z Z Z Z Z Z Z

>  <atom.prop.IS_HEAVY_ATOM>  (1443) 
1 0 0 0 1 1 1 1 0 0 0 1 0 0 1 0 0 0

>  <DIFUSE_FUNC_ATOM>  (1443) 
atom 6   atom 7   

>  <FINAL_SINGLE_POINT_ENERGY>  (1443) 
0

>  <NONCOV_INTER_ENERGY_QM>  (1443) 
0

>  <FF_Energy>  (1443) 
13.45

>  <QM_Energy>  (1443) 
-2.99

>  <source>  (1443) 
ACET_PRPA_15

>  <Index>  (1443) 
31560

$$$$
ACET-pdb3k2q-A-ASP-118:PRPA-pdb3k2q-A-LYS-122
     RDKit          3D

 18 16  0  0  0  0  0  0  0  0999 V2000
    0.0003    1.5200   -0.0134 C   0  0  0  0  0  0  0  0  0  0  0  0
    0.8345    1.8415    0.4185 H   0  0  0  0  0  0  0  0  0  0  0  0
   -0.7965    1.8433    0.4823 H   0  0  0  0  0  0  0  0  0  0  0  0
   -0.0386    1.9311   -1.0222 H   0  0  0  0  0  0  0  0  0  0  0  0
    0.0000    0.0000    0.0000 C   0  0  0  0  0  0  0  0  0  0  0  0
   -1.1014   -0.5956   -0.0000 O   0  0  0  0  0  1  0  0  0  0  0  0
    1.1014   -0.5993    0.0000 O   0  0  0  0  0  0  0  0  0  0  0  0
   -2.0420   -2.7002   -3.2249 C   0  0  0  0  0  0  0  0  0  0  0  0
   -1.3132   -3.3143   -3.5224 H   0  0  0  0  0  0  0  0  0  0  0  0
   -1.6546   -1.8226   -2.9518 H   0  0  0  0  0  0  0  0  0  0  0  0
   -2.7351   -2.5432   -4.0513 H   0  0  0  0  0  0  0  0  0  0  0  0
   -2.7497   -3.3199   -2.0298 C   0  0  0  0  0  0  0  0  0  0  0  0
   -3.6167   -2.8484   -1.8845 H   0  0  0  0  0  0  0  0  0  0  0  0
   -2.9161   -4.2857   -2.2145 H   0  0  0  0  0  0  0  0  0  0  0  0
   -1.9252   -3.2139   -0.7404 C   0  0  0  0  0  0  0  0  0  0  0  0
   -1.8166   -2.2353   -0.5094 H   0  0  0  0  0  0  0  0  0  0  0  0
   -2.4463   -3.6483    0.0106 H   0  0  0  0  0  0  0  0  0  0  0  0
   -0.9396   -3.6754   -0.8000 H   0  0  0  0  0  0  0  0  0  0  0  0
  1  5  1  0
  5  6  1  0
  5  7  2  0
  1  2  1  0
  1  3  1  0
  1  4  1  0
  8 12  1  0
 12 15  1  0
  8  9  1  0
  8 10  1  0
  8 11  1  0
 12 13  1  0
 12 14  1  0
 15 16  1  0
 15 17  1  0
 15 18  1  0
M  CHG  1   6  -1
M  END
>  <PDB_ID>  (1444) 
pdb3k2q

>  <RESIDUE_NAME>  (1444) 
ASP   LYS

>  <FRAG_NAME>  (1444) 
ACET   PRPA

>  <FRAG_ATOM_NUM>  (1444) 
fragi: 7  fragj: 11

>  <atom.prop.CHAIN_ID>  (1444) 
A A A A A A A Z Z Z Z Z Z Z Z Z Z Z

>  <atom.prop.IS_HEAVY_ATOM>  (1444) 
1 0 0 0 1 1 1 1 0 0 0 1 0 0 1 0 0 0

>  <DIFUSE_FUNC_ATOM>  (1444) 
atom 6   atom 7   

>  <FINAL_SINGLE_POINT_ENERGY>  (1444) 
0

>  <NONCOV_INTER_ENERGY_QM>  (1444) 
0

>  <FF_Energy>  (1444) 
17.65

>  <QM_Energy>  (1444) 
-0.61

>  <source>  (1444) 
ACET_PRPA_15

>  <Index>  (1444) 
31690

$$$$
ACET-pdb3k6c-A-GLU-69:PRPA-pdb3k6c-A-ARG-73
     RDKit          3D

 18 16  0  0  0  0  0  0  0  0999 V2000
    0.0409    1.5444   -0.0286 C   0  0  0  0  0  0  0  0  0  0  0  0
    0.4572    1.8165   -0.8781 H   0  0  0  0  0  0  0  0  0  0  0  0
    0.5639    1.8426    0.7505 H   0  0  0  0  0  0  0  0  0  0  0  0
   -0.9306    2.0354    0.0260 H   0  0  0  0  0  0  0  0  0  0  0  0
    0.0000    0.0000    0.0000 C   0  0  0  0  0  0  0  0  0  0  0  0
   -1.0846   -0.6080    0.0000 O   0  0  0  0  0  1  0  0  0  0  0  0
    1.0846   -0.6265    0.0000 O   0  0  0  0  0  0  0  0  0  0  0  0
    2.3226   -0.0520    4.8457 C   0  0  0  0  0  0  0  0  0  0  0  0
    2.5166    0.7813    5.3361 H   0  0  0  0  0  0  0  0  0  0  0  0
    3.1300   -0.6050    4.7314 H   0  0  0  0  0  0  0  0  0  0  0  0
    1.6053   -0.6254    5.4328 H   0  0  0  0  0  0  0  0  0  0  0  0
    1.7707    0.2906    3.4983 C   0  0  0  0  0  0  0  0  0  0  0  0
    0.8923   -0.2257    3.3592 H   0  0  0  0  0  0  0  0  0  0  0  0
    1.5011    1.2826    3.4942 H   0  0  0  0  0  0  0  0  0  0  0  0
    2.6407    0.0451    2.3314 C   0  0  0  0  0  0  0  0  0  0  0  0
    3.2001   -0.7695    2.5052 H   0  0  0  0  0  0  0  0  0  0  0  0
    2.0669   -0.1186    1.5251 H   0  0  0  0  0  0  0  0  0  0  0  0
    3.3022    0.8865    2.1253 H   0  0  0  0  0  0  0  0  0  0  0  0
  1  5  1  0
  5  6  1  0
  5  7  2  0
  1  2  1  0
  1  3  1  0
  1  4  1  0
  8 12  1  0
 12 15  1  0
  8  9  1  0
  8 10  1  0
  8 11  1  0
 12 13  1  0
 12 14  1  0
 15 16  1  0
 15 17  1  0
 15 18  1  0
M  CHG  1   6  -1
M  END
>  <PDB_ID>  (1445) 
pdb3k6c

>  <RESIDUE_NAME>  (1445) 
GLU   ARG

>  <FRAG_NAME>  (1445) 
ACET   PRPA

>  <FRAG_ATOM_NUM>  (1445) 
fragi: 7  fragj: 11

>  <atom.prop.CHAIN_ID>  (1445) 
A A A A A A A Z Z Z Z Z Z Z Z Z Z Z

>  <atom.prop.IS_HEAVY_ATOM>  (1445) 
1 0 0 0 1 1 1 1 0 0 0 1 0 0 1 0 0 0

>  <DIFUSE_FUNC_ATOM>  (1445) 
atom 6   atom 7   

>  <FINAL_SINGLE_POINT_ENERGY>  (1445) 
0

>  <NONCOV_INTER_ENERGY_QM>  (1445) 
0

>  <FF_Energy>  (1445) 
14.63

>  <QM_Energy>  (1445) 
-1.42

>  <source>  (1445) 
ACET_PRPA_15

>  <Index>  (1445) 
32799

$$$$
ACET-pdb4h0o-A-ASP-142:PRPA-pdb4h0o-A-LEU-174
     RDKit          3D

 18 16  0  0  0  0  0  0  0  0999 V2000
   -0.0024    1.5164   -0.0001 C   0  0  0  0  0  0  0  0  0  0  0  0
    0.6586    1.8377   -0.6680 H   0  0  0  0  0  0  0  0  0  0  0  0
    0.2353    1.8376    0.9088 H   0  0  0  0  0  0  0  0  0  0  0  0
   -0.9745    1.9345   -0.2617 H   0  0  0  0  0  0  0  0  0  0  0  0
    0.0000    0.0000    0.0000 C   0  0  0  0  0  0  0  0  0  0  0  0
   -1.0976   -0.5965   -0.0000 O   0  0  0  0  0  1  0  0  0  0  0  0
    1.0976   -0.5941   -0.0000 O   0  0  0  0  0  0  0  0  0  0  0  0
   -4.1122   -1.4510    1.7031 C   0  0  0  0  0  0  0  0  0  0  0  0
   -3.2091   -1.7685    1.9841 H   0  0  0  0  0  0  0  0  0  0  0  0
   -4.7419   -2.2208    1.6457 H   0  0  0  0  0  0  0  0  0  0  0  0
   -4.4820   -0.7723    2.4715 H   0  0  0  0  0  0  0  0  0  0  0  0
   -3.9715   -0.8700    0.2946 C   0  0  0  0  0  0  0  0  0  0  0  0
   -3.4423   -0.0224    0.3443 H   0  0  0  0  0  0  0  0  0  0  0  0
   -4.9467   -0.5954   -0.1075 H   0  0  0  0  0  0  0  0  0  0  0  0
   -3.2655   -1.8540   -0.6249 C   0  0  0  0  0  0  0  0  0  0  0  0
   -3.7943   -2.7023   -0.6776 H   0  0  0  0  0  0  0  0  0  0  0  0
   -3.1827   -1.4580   -1.5398 H   0  0  0  0  0  0  0  0  0  0  0  0
   -2.3527   -2.0529   -0.2657 H   0  0  0  0  0  0  0  0  0  0  0  0
  1  5  1  0
  5  6  1  0
  5  7  2  0
  1  2  1  0
  1  3  1  0
  1  4  1  0
  8 12  1  0
 12 15  1  0
  8  9  1  0
  8 10  1  0
  8 11  1  0
 12 13  1  0
 12 14  1  0
 15 16  1  0
 15 17  1  0
 15 18  1  0
M  CHG  1   6  -1
M  END
>  <PDB_ID>  (1446) 
pdb4h0o

>  <RESIDUE_NAME>  (1446) 
ASP   LEU

>  <FRAG_NAME>  (1446) 
ACET   PRPA

>  <FRAG_ATOM_NUM>  (1446) 
fragi: 7  fragj: 11

>  <atom.prop.CHAIN_ID>  (1446) 
A A A A A A A Z Z Z Z Z Z Z Z Z Z Z

>  <atom.prop.IS_HEAVY_ATOM>  (1446) 
1 0 0 0 1 1 1 1 0 0 0 1 0 0 1 0 0 0

>  <DIFUSE_FUNC_ATOM>  (1446) 
atom 6   atom 7   

>  <FINAL_SINGLE_POINT_ENERGY>  (1446) 
0

>  <NONCOV_INTER_ENERGY_QM>  (1446) 
0

>  <FF_Energy>  (1446) 
18.17

>  <QM_Energy>  (1446) 
0.09

>  <source>  (1446) 
ACET_PRPA_15

>  <Index>  (1446) 
36308

$$$$
ACET-pdb4h0o-A-ASP-142:PRPA-pdb4h0o-A-LEU-174
     RDKit          3D

 18 16  0  0  0  0  0  0  0  0999 V2000
   -0.0024    1.5164   -0.0001 C   0  0  0  0  0  0  0  0  0  0  0  0
    0.6586    1.8377   -0.6680 H   0  0  0  0  0  0  0  0  0  0  0  0
    0.2353    1.8376    0.9088 H   0  0  0  0  0  0  0  0  0  0  0  0
   -0.9745    1.9345   -0.2617 H   0  0  0  0  0  0  0  0  0  0  0  0
    0.0000    0.0000    0.0000 C   0  0  0  0  0  0  0  0  0  0  0  0
   -1.0976   -0.5965   -0.0000 O   0  0  0  0  0  1  0  0  0  0  0  0
    1.0976   -0.5941   -0.0000 O   0  0  0  0  0  0  0  0  0  0  0  0
   -3.2655   -1.8540   -0.6249 C   0  0  0  0  0  0  0  0  0  0  0  0
   -3.7943   -2.7023   -0.6776 H   0  0  0  0  0  0  0  0  0  0  0  0
   -3.1827   -1.4580   -1.5398 H   0  0  0  0  0  0  0  0  0  0  0  0
   -2.3527   -2.0529   -0.2657 H   0  0  0  0  0  0  0  0  0  0  0  0
   -3.9715   -0.8700    0.2946 C   0  0  0  0  0  0  0  0  0  0  0  0
   -3.4423   -0.0224    0.3443 H   0  0  0  0  0  0  0  0  0  0  0  0
   -4.0718   -1.2839    1.2980 H   0  0  0  0  0  0  0  0  0  0  0  0
   -5.3322   -0.4868   -0.2664 C   0  0  0  0  0  0  0  0  0  0  0  0
   -5.7572    0.1989    0.3250 H   0  0  0  0  0  0  0  0  0  0  0  0
   -5.2213   -0.1092   -1.1865 H   0  0  0  0  0  0  0  0  0  0  0  0
   -5.9182   -1.2975   -0.3087 H   0  0  0  0  0  0  0  0  0  0  0  0
  1  5  1  0
  5  6  1  0
  5  7  2  0
  1  2  1  0
  1  3  1  0
  1  4  1  0
  8 12  1  0
 12 15  1  0
  8  9  1  0
  8 10  1  0
  8 11  1  0
 12 13  1  0
 12 14  1  0
 15 16  1  0
 15 17  1  0
 15 18  1  0
M  CHG  1   6  -1
M  END
>  <PDB_ID>  (1447) 
pdb4h0o

>  <RESIDUE_NAME>  (1447) 
ASP   LEU

>  <FRAG_NAME>  (1447) 
ACET   PRPA

>  <FRAG_ATOM_NUM>  (1447) 
fragi: 7  fragj: 11

>  <atom.prop.CHAIN_ID>  (1447) 
A A A A A A A Z Z Z Z Z Z Z Z Z Z Z

>  <atom.prop.IS_HEAVY_ATOM>  (1447) 
1 0 0 0 1 1 1 1 0 0 0 1 0 0 1 0 0 0

>  <DIFUSE_FUNC_ATOM>  (1447) 
atom 6   atom 7   

>  <FINAL_SINGLE_POINT_ENERGY>  (1447) 
0

>  <NONCOV_INTER_ENERGY_QM>  (1447) 
0

>  <FF_Energy>  (1447) 
17.53

>  <QM_Energy>  (1447) 
1.31

>  <source>  (1447) 
ACET_PRPA_15

>  <Index>  (1447) 
36340

$$$$
ACET-pdb4h7w-A-GLU-174:PRPA-pdb4h7w-A-LYS-159
     RDKit          3D

 18 16  0  0  0  0  0  0  0  0999 V2000
   -0.0797    1.5106   -0.1707 C   0  0  0  0  0  0  0  0  0  0  0  0
   -0.2285    1.6957   -1.1177 H   0  0  0  0  0  0  0  0  0  0  0  0
    0.7516    1.8932    0.1730 H   0  0  0  0  0  0  0  0  0  0  0  0
   -0.9092    1.9384    0.3923 H   0  0  0  0  0  0  0  0  0  0  0  0
    0.0000    0.0000    0.0000 C   0  0  0  0  0  0  0  0  0  0  0  0
   -1.0471   -0.6559   -0.0000 O   0  0  0  0  0  1  0  0  0  0  0  0
    1.0471   -0.5743    0.0000 O   0  0  0  0  0  0  0  0  0  0  0  0
   -2.3657   -0.2325    3.4489 C   0  0  0  0  0  0  0  0  0  0  0  0
   -3.0680    0.3850    2.9694 H   0  0  0  0  0  0  0  0  0  0  0  0
   -1.5109   -0.0944    2.8547 H   0  0  0  0  0  0  0  0  0  0  0  0
   -2.1791    0.1327    4.4588 H   0  0  0  0  0  0  0  0  0  0  0  0
   -2.8083   -1.6230    3.2634 C   0  0  0  0  0  0  0  0  0  0  0  0
   -2.1005   -2.2414    3.4872 H   0  0  0  0  0  0  0  0  0  0  0  0
   -3.6506   -1.7782    3.7084 H   0  0  0  0  0  0  0  0  0  0  0  0
   -3.0482   -1.7048    1.7551 C   0  0  0  0  0  0  0  0  0  0  0  0
   -3.6465   -0.8981    1.4982 H   0  0  0  0  0  0  0  0  0  0  0  0
   -2.1430   -1.5017    1.2916 H   0  0  0  0  0  0  0  0  0  0  0  0
   -3.4728   -2.6244    1.3526 H   0  0  0  0  0  0  0  0  0  0  0  0
  1  5  1  0
  5  6  1  0
  5  7  2  0
  1  2  1  0
  1  3  1  0
  1  4  1  0
  8 12  1  0
 12 15  1  0
  8  9  1  0
  8 10  1  0
  8 11  1  0
 12 13  1  0
 12 14  1  0
 15 16  1  0
 15 17  1  0
 15 18  1  0
M  CHG  1   6  -1
M  END
>  <PDB_ID>  (1448) 
pdb4h7w

>  <RESIDUE_NAME>  (1448) 
GLU   LYS

>  <FRAG_NAME>  (1448) 
ACET   PRPA

>  <FRAG_ATOM_NUM>  (1448) 
fragi: 7  fragj: 11

>  <atom.prop.CHAIN_ID>  (1448) 
A A A A A A A Z Z Z Z Z Z Z Z Z Z Z

>  <atom.prop.IS_HEAVY_ATOM>  (1448) 
1 0 0 0 1 1 1 1 0 0 0 1 0 0 1 0 0 0

>  <DIFUSE_FUNC_ATOM>  (1448) 
atom 6   atom 7   

>  <FINAL_SINGLE_POINT_ENERGY>  (1448) 
0

>  <NONCOV_INTER_ENERGY_QM>  (1448) 
0

>  <FF_Energy>  (1448) 
12.79

>  <QM_Energy>  (1448) 
-2.22

>  <source>  (1448) 
ACET_PRPA_15

>  <Index>  (1448) 
36771

$$$$
ACET-pdb3iwp-G-GLU-167:PRPA-pdb3iwp-G-PRO-141
     RDKit          3D

 18 16  0  0  0  0  0  0  0  0999 V2000
    0.0112    1.5324    0.0169 C   0  0  0  0  0  0  0  0  0  0  0  0
    0.8537    1.8165    0.4357 H   0  0  0  0  0  0  0  0  0  0  0  0
   -0.7762    1.8266    0.5252 H   0  0  0  0  0  0  0  0  0  0  0  0
   -0.0397    1.9784   -0.9765 H   0  0  0  0  0  0  0  0  0  0  0  0
    0.0000    0.0000    0.0000 C   0  0  0  0  0  0  0  0  0  0  0  0
   -1.0875   -0.6179   -0.0000 O   0  0  0  0  0  1  0  0  0  0  0  0
    1.0875   -0.5919    0.0000 O   0  0  0  0  0  0  0  0  0  0  0  0
    3.6411   -1.2954   -0.4615 C   0  0  0  0  0  0  0  0  0  0  0  0
    2.7692   -1.2455    0.0695 H   0  0  0  0  0  0  0  0  0  0  0  0
    4.3939   -1.8429    0.1057 H   0  0  0  0  0  0  0  0  0  0  0  0
    3.4510   -1.6811   -1.4631 H   0  0  0  0  0  0  0  0  0  0  0  0
    4.1965    0.1319   -0.5217 C   0  0  0  0  0  0  0  0  0  0  0  0
    4.0056    0.5483   -1.4145 H   0  0  0  0  0  0  0  0  0  0  0  0
    3.7890    0.7012    0.1962 H   0  0  0  0  0  0  0  0  0  0  0  0
    5.6722   -0.0214   -0.3096 C   0  0  0  0  0  0  0  0  0  0  0  0
    6.1390   -0.1604   -1.1937 H   0  0  0  0  0  0  0  0  0  0  0  0
    6.0516    0.8126    0.1147 H   0  0  0  0  0  0  0  0  0  0  0  0
    5.8035   -0.8854    0.3419 H   0  0  0  0  0  0  0  0  0  0  0  0
  1  5  1  0
  5  6  1  0
  5  7  2  0
  1  2  1  0
  1  3  1  0
  1  4  1  0
  8 12  1  0
 12 15  1  0
  8  9  1  0
  8 10  1  0
  8 11  1  0
 12 13  1  0
 12 14  1  0
 15 16  1  0
 15 17  1  0
 15 18  1  0
M  CHG  1   6  -1
M  END
>  <PDB_ID>  (1449) 
pdb3iwp

>  <RESIDUE_NAME>  (1449) 
GLU   PRO

>  <FRAG_NAME>  (1449) 
ACET   PRPA

>  <FRAG_ATOM_NUM>  (1449) 
fragi: 7  fragj: 11

>  <atom.prop.CHAIN_ID>  (1449) 
A A A A A A A Z Z Z Z Z Z Z Z Z Z Z

>  <atom.prop.IS_HEAVY_ATOM>  (1449) 
1 0 0 0 1 1 1 1 0 0 0 1 0 0 1 0 0 0

>  <DIFUSE_FUNC_ATOM>  (1449) 
atom 6   atom 7   

>  <FINAL_SINGLE_POINT_ENERGY>  (1449) 
0

>  <NONCOV_INTER_ENERGY_QM>  (1449) 
0

>  <FF_Energy>  (1449) 
27.81

>  <QM_Energy>  (1449) 
0.74

>  <source>  (1449) 
ACET_PRPA_15

>  <Index>  (1449) 
38317

$$$$
ACET-pdb3iwp-H-GLU-220:PRPA-pdb3iwp-H-LEU-27
     RDKit          3D

 18 16  0  0  0  0  0  0  0  0999 V2000
    0.0135    1.5120   -0.0028 C   0  0  0  0  0  0  0  0  0  0  0  0
   -0.3691    1.8120   -0.8609 H   0  0  0  0  0  0  0  0  0  0  0  0
    0.9510    1.8016    0.1000 H   0  0  0  0  0  0  0  0  0  0  0  0
   -0.5724    1.9507    0.8050 H   0  0  0  0  0  0  0  0  0  0  0  0
    0.0000    0.0000    0.0000 C   0  0  0  0  0  0  0  0  0  0  0  0
   -1.0970   -0.5958   -0.0000 O   0  0  0  0  0  1  0  0  0  0  0  0
    1.0970   -0.5955   -0.0000 O   0  0  0  0  0  0  0  0  0  0  0  0
    1.1188    4.3995   -2.8289 C   0  0  0  0  0  0  0  0  0  0  0  0
    1.3075    4.5877   -3.8005 H   0  0  0  0  0  0  0  0  0  0  0  0
    1.8949    4.8697   -2.2250 H   0  0  0  0  0  0  0  0  0  0  0  0
    0.1307    4.7954   -2.5946 H   0  0  0  0  0  0  0  0  0  0  0  0
    1.1752    2.8779   -2.6353 C   0  0  0  0  0  0  0  0  0  0  0  0
    2.1524    2.6362   -2.4295 H   0  0  0  0  0  0  0  0  0  0  0  0
    0.6553    2.6642   -1.7772 H   0  0  0  0  0  0  0  0  0  0  0  0
    0.6948    1.8780   -3.6976 C   0  0  0  0  0  0  0  0  0  0  0  0
    0.9786    2.1986   -4.5959 H   0  0  0  0  0  0  0  0  0  0  0  0
    1.1337    0.8984   -3.5078 H   0  0  0  0  0  0  0  0  0  0  0  0
   -0.3920    1.8092   -3.7438 H   0  0  0  0  0  0  0  0  0  0  0  0
  1  5  1  0
  5  6  1  0
  5  7  2  0
  1  2  1  0
  1  3  1  0
  1  4  1  0
  8 12  1  0
 12 15  1  0
  8  9  1  0
  8 10  1  0
  8 11  1  0
 12 13  1  0
 12 14  1  0
 15 16  1  0
 15 17  1  0
 15 18  1  0
M  CHG  1   6  -1
M  END
>  <PDB_ID>  (1450) 
pdb3iwp

>  <RESIDUE_NAME>  (1450) 
GLU   LEU

>  <FRAG_NAME>  (1450) 
ACET   PRPA

>  <FRAG_ATOM_NUM>  (1450) 
fragi: 7  fragj: 11

>  <atom.prop.CHAIN_ID>  (1450) 
A A A A A A A Z Z Z Z Z Z Z Z Z Z Z

>  <atom.prop.IS_HEAVY_ATOM>  (1450) 
1 0 0 0 1 1 1 1 0 0 0 1 0 0 1 0 0 0

>  <DIFUSE_FUNC_ATOM>  (1450) 
atom 6   atom 7   

>  <FINAL_SINGLE_POINT_ENERGY>  (1450) 
0

>  <NONCOV_INTER_ENERGY_QM>  (1450) 
0

>  <FF_Energy>  (1450) 
18.32

>  <QM_Energy>  (1450) 
2.95

>  <source>  (1450) 
ACET_PRPA_16

>  <Index>  (1450) 
664

$$$$
ACET-pdb3kjs-A-GLU-149:PRPA-pdb3kjs-A-ARG-60
     RDKit          3D

 18 16  0  0  0  0  0  0  0  0999 V2000
    0.0030    1.5099    0.0120 C   0  0  0  0  0  0  0  0  0  0  0  0
    0.9329    1.8085   -0.0974 H   0  0  0  0  0  0  0  0  0  0  0  0
   -0.3843    1.8030    0.8667 H   0  0  0  0  0  0  0  0  0  0  0  0
   -0.5903    1.9363   -0.7969 H   0  0  0  0  0  0  0  0  0  0  0  0
    0.0000    0.0000    0.0000 C   0  0  0  0  0  0  0  0  0  0  0  0
   -1.0934   -0.6028    0.0000 O   0  0  0  0  0  1  0  0  0  0  0  0
    1.0934   -0.5924   -0.0000 O   0  0  0  0  0  0  0  0  0  0  0  0
    3.0945   -3.4055    0.4467 C   0  0  0  0  0  0  0  0  0  0  0  0
    4.0529   -3.4989    0.1174 H   0  0  0  0  0  0  0  0  0  0  0  0
    2.4699   -3.0712   -0.3818 H   0  0  0  0  0  0  0  0  0  0  0  0
    2.7714   -4.3632    0.8548 H   0  0  0  0  0  0  0  0  0  0  0  0
    3.1187   -2.3453    1.5369 C   0  0  0  0  0  0  0  0  0  0  0  0
    2.2068   -2.2857    1.9339 H   0  0  0  0  0  0  0  0  0  0  0  0
    3.7747   -2.6282    2.2320 H   0  0  0  0  0  0  0  0  0  0  0  0
    3.5110   -0.9788    1.0441 C   0  0  0  0  0  0  0  0  0  0  0  0
    4.1796   -1.0719    0.3069 H   0  0  0  0  0  0  0  0  0  0  0  0
    2.7001   -0.5060    0.7002 H   0  0  0  0  0  0  0  0  0  0  0  0
    3.9503   -0.3849    1.8456 H   0  0  0  0  0  0  0  0  0  0  0  0
  1  5  1  0
  5  6  1  0
  5  7  2  0
  1  2  1  0
  1  3  1  0
  1  4  1  0
  8 12  1  0
 12 15  1  0
  8  9  1  0
  8 10  1  0
  8 11  1  0
 12 13  1  0
 12 14  1  0
 15 16  1  0
 15 17  1  0
 15 18  1  0
M  CHG  1   6  -1
M  END
>  <PDB_ID>  (1451) 
pdb3kjs

>  <RESIDUE_NAME>  (1451) 
GLU   ARG

>  <FRAG_NAME>  (1451) 
ACET   PRPA

>  <FRAG_ATOM_NUM>  (1451) 
fragi: 7  fragj: 11

>  <atom.prop.CHAIN_ID>  (1451) 
A A A A A A A Z Z Z Z Z Z Z Z Z Z Z

>  <atom.prop.IS_HEAVY_ATOM>  (1451) 
1 0 0 0 1 1 1 1 0 0 0 1 0 0 1 0 0 0

>  <DIFUSE_FUNC_ATOM>  (1451) 
atom 6   atom 7   

>  <FINAL_SINGLE_POINT_ENERGY>  (1451) 
0

>  <NONCOV_INTER_ENERGY_QM>  (1451) 
0

>  <FF_Energy>  (1451) 
40.39

>  <QM_Energy>  (1451) 
0.59

>  <source>  (1451) 
ACET_PRPA_16

>  <Index>  (1451) 
947

$$$$
ACET-pdb4hdj-A-ASP-233:PRPA-pdb4hdj-A-ARG-182
     RDKit          3D

 18 16  0  0  0  0  0  0  0  0999 V2000
    0.0322    1.5136   -0.0228 C   0  0  0  0  0  0  0  0  0  0  0  0
    0.4712    1.8122   -0.8675 H   0  0  0  0  0  0  0  0  0  0  0  0
    0.5555    1.8352    0.7627 H   0  0  0  0  0  0  0  0  0  0  0  0
   -0.9562    1.9709    0.0217 H   0  0  0  0  0  0  0  0  0  0  0  0
    0.0000    0.0000    0.0000 C   0  0  0  0  0  0  0  0  0  0  0  0
   -1.0951   -0.6173    0.0000 O   0  0  0  0  0  1  0  0  0  0  0  0
    1.0951   -0.5963   -0.0000 O   0  0  0  0  0  0  0  0  0  0  0  0
   -2.8695   -0.6210    3.1048 C   0  0  0  0  0  0  0  0  0  0  0  0
   -2.1473   -0.1537    2.5610 H   0  0  0  0  0  0  0  0  0  0  0  0
   -2.4169   -0.9848    3.9396 H   0  0  0  0  0  0  0  0  0  0  0  0
   -3.5847    0.1377    3.4226 H   0  0  0  0  0  0  0  0  0  0  0  0
   -3.3856   -1.7580    2.3184 C   0  0  0  0  0  0  0  0  0  0  0  0
   -3.6549   -2.4913    2.8983 H   0  0  0  0  0  0  0  0  0  0  0  0
   -4.0777   -1.4691    1.6983 H   0  0  0  0  0  0  0  0  0  0  0  0
   -2.1913   -2.2223    1.5009 C   0  0  0  0  0  0  0  0  0  0  0  0
   -2.5168   -2.4354    0.5871 H   0  0  0  0  0  0  0  0  0  0  0  0
   -1.5379   -1.4741    1.4734 H   0  0  0  0  0  0  0  0  0  0  0  0
   -1.7421   -3.1032    1.9597 H   0  0  0  0  0  0  0  0  0  0  0  0
  1  5  1  0
  5  6  1  0
  5  7  2  0
  1  2  1  0
  1  3  1  0
  1  4  1  0
  8 12  1  0
 12 15  1  0
  8  9  1  0
  8 10  1  0
  8 11  1  0
 12 13  1  0
 12 14  1  0
 15 16  1  0
 15 17  1  0
 15 18  1  0
M  CHG  1   6  -1
M  END
>  <PDB_ID>  (1452) 
pdb4hdj

>  <RESIDUE_NAME>  (1452) 
ASP   ARG

>  <FRAG_NAME>  (1452) 
ACET   PRPA

>  <FRAG_ATOM_NUM>  (1452) 
fragi: 7  fragj: 11

>  <atom.prop.CHAIN_ID>  (1452) 
A A A A A A A Z Z Z Z Z Z Z Z Z Z Z

>  <atom.prop.IS_HEAVY_ATOM>  (1452) 
1 0 0 0 1 1 1 1 0 0 0 1 0 0 1 0 0 0

>  <DIFUSE_FUNC_ATOM>  (1452) 
atom 6   atom 7   

>  <FINAL_SINGLE_POINT_ENERGY>  (1452) 
0

>  <NONCOV_INTER_ENERGY_QM>  (1452) 
0

>  <FF_Energy>  (1452) 
47.38

>  <QM_Energy>  (1452) 
7.24

>  <source>  (1452) 
ACET_PRPA_16

>  <Index>  (1452) 
1286

$$$$
ACET-pdb3iwp-I-GLU-220:PRPA-pdb3iwp-I-LEU-27
     RDKit          3D

 18 16  0  0  0  0  0  0  0  0999 V2000
    0.0082    1.5145    0.0034 C   0  0  0  0  0  0  0  0  0  0  0  0
    0.0557    1.8165   -0.9309 H   0  0  0  0  0  0  0  0  0  0  0  0
    0.7839    1.8085    0.5299 H   0  0  0  0  0  0  0  0  0  0  0  0
   -0.8882    1.9427    0.4519 H   0  0  0  0  0  0  0  0  0  0  0  0
    0.0000    0.0000    0.0000 C   0  0  0  0  0  0  0  0  0  0  0  0
   -1.0930   -0.6056    0.0000 O   0  0  0  0  0  1  0  0  0  0  0  0
    1.0930   -0.5899   -0.0000 O   0  0  0  0  0  0  0  0  0  0  0  0
   -0.1054    1.9133   -3.3928 C   0  0  0  0  0  0  0  0  0  0  0  0
   -0.0625    1.9039   -2.3812 H   0  0  0  0  0  0  0  0  0  0  0  0
   -0.9063    1.3618   -3.6709 H   0  0  0  0  0  0  0  0  0  0  0  0
   -0.2932    2.9414   -3.7020 H   0  0  0  0  0  0  0  0  0  0  0  0
    1.1431    1.1738   -3.8986 C   0  0  0  0  0  0  0  0  0  0  0  0
    1.9591    1.6620   -3.5903 H   0  0  0  0  0  0  0  0  0  0  0  0
    1.2132    1.1774   -4.9864 H   0  0  0  0  0  0  0  0  0  0  0  0
    1.1895   -0.2693   -3.3613 C   0  0  0  0  0  0  0  0  0  0  0  0
    0.3773   -0.7581   -3.6714 H   0  0  0  0  0  0  0  0  0  0  0  0
    2.0094   -0.7188   -3.7076 H   0  0  0  0  0  0  0  0  0  0  0  0
    1.2112   -0.2441   -2.3645 H   0  0  0  0  0  0  0  0  0  0  0  0
  1  5  1  0
  5  6  1  0
  5  7  2  0
  1  2  1  0
  1  3  1  0
  1  4  1  0
  8 12  1  0
 12 15  1  0
  8  9  1  0
  8 10  1  0
  8 11  1  0
 12 13  1  0
 12 14  1  0
 15 16  1  0
 15 17  1  0
 15 18  1  0
M  CHG  1   6  -1
M  END
>  <PDB_ID>  (1453) 
pdb3iwp

>  <RESIDUE_NAME>  (1453) 
GLU   LEU

>  <FRAG_NAME>  (1453) 
ACET   PRPA

>  <FRAG_ATOM_NUM>  (1453) 
fragi: 7  fragj: 11

>  <atom.prop.CHAIN_ID>  (1453) 
A A A A A A A Z Z Z Z Z Z Z Z Z Z Z

>  <atom.prop.IS_HEAVY_ATOM>  (1453) 
1 0 0 0 1 1 1 1 0 0 0 1 0 0 1 0 0 0

>  <DIFUSE_FUNC_ATOM>  (1453) 
atom 6   atom 7   

>  <FINAL_SINGLE_POINT_ENERGY>  (1453) 
0

>  <NONCOV_INTER_ENERGY_QM>  (1453) 
0

>  <FF_Energy>  (1453) 
36.67

>  <QM_Energy>  (1453) 
1.46

>  <source>  (1453) 
ACET_PRPA_16

>  <Index>  (1453) 
1604

$$$$
ACET-pdb3iwp-I-GLU-220:PRPA-pdb3iwp-I-LEU-27
     RDKit          3D

 18 16  0  0  0  0  0  0  0  0999 V2000
    0.0082    1.5145    0.0034 C   0  0  0  0  0  0  0  0  0  0  0  0
    0.0557    1.8165   -0.9309 H   0  0  0  0  0  0  0  0  0  0  0  0
    0.7839    1.8085    0.5299 H   0  0  0  0  0  0  0  0  0  0  0  0
   -0.8882    1.9427    0.4519 H   0  0  0  0  0  0  0  0  0  0  0  0
    0.0000    0.0000    0.0000 C   0  0  0  0  0  0  0  0  0  0  0  0
   -1.0930   -0.6056    0.0000 O   0  0  0  0  0  1  0  0  0  0  0  0
    1.0930   -0.5899   -0.0000 O   0  0  0  0  0  0  0  0  0  0  0  0
   -0.3699    3.3619   -3.8285 C   0  0  0  0  0  0  0  0  0  0  0  0
   -0.2374    3.3201   -4.8366 H   0  0  0  0  0  0  0  0  0  0  0  0
    0.3677    4.0521   -3.4189 H   0  0  0  0  0  0  0  0  0  0  0  0
   -1.4041    3.6447   -3.6321 H   0  0  0  0  0  0  0  0  0  0  0  0
   -0.1054    1.9133   -3.3928 C   0  0  0  0  0  0  0  0  0  0  0  0
   -0.0625    1.9039   -2.3812 H   0  0  0  0  0  0  0  0  0  0  0  0
   -0.9063    1.3618   -3.6709 H   0  0  0  0  0  0  0  0  0  0  0  0
    1.1431    1.1738   -3.8986 C   0  0  0  0  0  0  0  0  0  0  0  0
    1.9591    1.6620   -3.5903 H   0  0  0  0  0  0  0  0  0  0  0  0
    1.1759    0.1528   -3.5185 H   0  0  0  0  0  0  0  0  0  0  0  0
    1.2132    1.1774   -4.9864 H   0  0  0  0  0  0  0  0  0  0  0  0
  1  5  1  0
  5  6  1  0
  5  7  2  0
  1  2  1  0
  1  3  1  0
  1  4  1  0
  8 12  1  0
 12 15  1  0
  8  9  1  0
  8 10  1  0
  8 11  1  0
 12 13  1  0
 12 14  1  0
 15 16  1  0
 15 17  1  0
 15 18  1  0
M  CHG  1   6  -1
M  END
>  <PDB_ID>  (1454) 
pdb3iwp

>  <RESIDUE_NAME>  (1454) 
GLU   LEU

>  <FRAG_NAME>  (1454) 
ACET   PRPA

>  <FRAG_ATOM_NUM>  (1454) 
fragi: 7  fragj: 11

>  <atom.prop.CHAIN_ID>  (1454) 
A A A A A A A Z Z Z Z Z Z Z Z Z Z Z

>  <atom.prop.IS_HEAVY_ATOM>  (1454) 
1 0 0 0 1 1 1 1 0 0 0 1 0 0 1 0 0 0

>  <DIFUSE_FUNC_ATOM>  (1454) 
atom 6   atom 7   

>  <FINAL_SINGLE_POINT_ENERGY>  (1454) 
0

>  <NONCOV_INTER_ENERGY_QM>  (1454) 
0

>  <FF_Energy>  (1454) 
42.5

>  <QM_Energy>  (1454) 
2.67

>  <source>  (1454) 
ACET_PRPA_16

>  <Index>  (1454) 
1607

$$$$
ACET-pdb3kvd-D-GLU-157:PRPA-pdb3kvd-D-ARG-145
     RDKit          3D

 18 16  0  0  0  0  0  0  0  0999 V2000
   -0.0414    1.5433    0.0491 C   0  0  0  0  0  0  0  0  0  0  0  0
   -0.4710    1.7800    0.9094 H   0  0  0  0  0  0  0  0  0  0  0  0
   -0.6023    1.8276   -0.7163 H   0  0  0  0  0  0  0  0  0  0  0  0
    0.9363    2.0209   -0.0147 H   0  0  0  0  0  0  0  0  0  0  0  0
    0.0000    0.0000    0.0000 C   0  0  0  0  0  0  0  0  0  0  0  0
   -1.0849   -0.6273   -0.0000 O   0  0  0  0  0  1  0  0  0  0  0  0
    1.0849   -0.5940    0.0000 O   0  0  0  0  0  0  0  0  0  0  0  0
    3.9261    1.0079    2.7680 C   0  0  0  0  0  0  0  0  0  0  0  0
    4.5435    0.2299    2.7289 H   0  0  0  0  0  0  0  0  0  0  0  0
    3.0020    0.7063    2.9747 H   0  0  0  0  0  0  0  0  0  0  0  0
    4.2586    1.6717    3.5659 H   0  0  0  0  0  0  0  0  0  0  0  0
    3.9097    1.6642    1.3954 C   0  0  0  0  0  0  0  0  0  0  0  0
    3.4497    2.5432    1.4337 H   0  0  0  0  0  0  0  0  0  0  0  0
    4.8338    1.7667    1.0469 H   0  0  0  0  0  0  0  0  0  0  0  0
    3.1231    0.7919    0.3223 C   0  0  0  0  0  0  0  0  0  0  0  0
    2.2098    0.6702    0.6743 H   0  0  0  0  0  0  0  0  0  0  0  0
    3.1249    1.3121   -0.5168 H   0  0  0  0  0  0  0  0  0  0  0  0
    3.5987   -0.1763    0.1660 H   0  0  0  0  0  0  0  0  0  0  0  0
  1  5  1  0
  5  6  1  0
  5  7  2  0
  1  2  1  0
  1  3  1  0
  1  4  1  0
  8 12  1  0
 12 15  1  0
  8  9  1  0
  8 10  1  0
  8 11  1  0
 12 13  1  0
 12 14  1  0
 15 16  1  0
 15 17  1  0
 15 18  1  0
M  CHG  1   6  -1
M  END
>  <PDB_ID>  (1455) 
pdb3kvd

>  <RESIDUE_NAME>  (1455) 
GLU   ARG

>  <FRAG_NAME>  (1455) 
ACET   PRPA

>  <FRAG_ATOM_NUM>  (1455) 
fragi: 7  fragj: 11

>  <atom.prop.CHAIN_ID>  (1455) 
A A A A A A A Z Z Z Z Z Z Z Z Z Z Z

>  <atom.prop.IS_HEAVY_ATOM>  (1455) 
1 0 0 0 1 1 1 1 0 0 0 1 0 0 1 0 0 0

>  <DIFUSE_FUNC_ATOM>  (1455) 
atom 6   atom 7   

>  <FINAL_SINGLE_POINT_ENERGY>  (1455) 
0

>  <NONCOV_INTER_ENERGY_QM>  (1455) 
0

>  <FF_Energy>  (1455) 
37.72

>  <QM_Energy>  (1455) 
9.95

>  <source>  (1455) 
ACET_PRPA_16

>  <Index>  (1455) 
3542

$$$$
ACET-pdb3kvp-C-GLU-57:PRPA-pdb3kvp-C-LYS-41
     RDKit          3D

 18 16  0  0  0  0  0  0  0  0999 V2000
    0.0054    1.5331   -0.0037 C   0  0  0  0  0  0  0  0  0  0  0  0
    0.8290    1.8212    0.4415 H   0  0  0  0  0  0  0  0  0  0  0  0
   -0.8031    1.8260    0.4651 H   0  0  0  0  0  0  0  0  0  0  0  0
   -0.0071    1.9450   -1.0128 H   0  0  0  0  0  0  0  0  0  0  0  0
    0.0000    0.0000    0.0000 C   0  0  0  0  0  0  0  0  0  0  0  0
   -1.1036   -0.6004    0.0000 O   0  0  0  0  0  1  0  0  0  0  0  0
    1.1036   -0.5989    0.0000 O   0  0  0  0  0  0  0  0  0  0  0  0
    3.5887    3.4669    1.6010 C   0  0  0  0  0  0  0  0  0  0  0  0
    2.8600    3.6858    0.9628 H   0  0  0  0  0  0  0  0  0  0  0  0
    4.5179    3.3270    1.0487 H   0  0  0  0  0  0  0  0  0  0  0  0
    3.7475    4.3128    2.2698 H   0  0  0  0  0  0  0  0  0  0  0  0
    3.2653    2.2196    2.4115 C   0  0  0  0  0  0  0  0  0  0  0  0
    4.0701    1.9724    2.9473 H   0  0  0  0  0  0  0  0  0  0  0  0
    2.5057    2.4300    3.0251 H   0  0  0  0  0  0  0  0  0  0  0  0
    2.8716    1.0126    1.5652 C   0  0  0  0  0  0  0  0  0  0  0  0
    1.9111    1.1043    1.2944 H   0  0  0  0  0  0  0  0  0  0  0  0
    3.4450    0.9883    0.7453 H   0  0  0  0  0  0  0  0  0  0  0  0
    2.9952    0.0752    2.1075 H   0  0  0  0  0  0  0  0  0  0  0  0
  1  5  1  0
  5  6  1  0
  5  7  2  0
  1  2  1  0
  1  3  1  0
  1  4  1  0
  8 12  1  0
 12 15  1  0
  8  9  1  0
  8 10  1  0
  8 11  1  0
 12 13  1  0
 12 14  1  0
 15 16  1  0
 15 17  1  0
 15 18  1  0
M  CHG  1   6  -1
M  END
>  <PDB_ID>  (1456) 
pdb3kvp

>  <RESIDUE_NAME>  (1456) 
GLU   LYS

>  <FRAG_NAME>  (1456) 
ACET   PRPA

>  <FRAG_ATOM_NUM>  (1456) 
fragi: 7  fragj: 11

>  <atom.prop.CHAIN_ID>  (1456) 
A A A A A A A Z Z Z Z Z Z Z Z Z Z Z

>  <atom.prop.IS_HEAVY_ATOM>  (1456) 
1 0 0 0 1 1 1 1 0 0 0 1 0 0 1 0 0 0

>  <DIFUSE_FUNC_ATOM>  (1456) 
atom 6   atom 7   

>  <FINAL_SINGLE_POINT_ENERGY>  (1456) 
0

>  <NONCOV_INTER_ENERGY_QM>  (1456) 
0

>  <FF_Energy>  (1456) 
22.09

>  <QM_Energy>  (1456) 
3.93

>  <source>  (1456) 
ACET_PRPA_16

>  <Index>  (1456) 
4164

$$$$
ACET-pdb3kvp-C-GLU-57:PRPA-pdb3kvp-C-LYS-41
     RDKit          3D

 18 16  0  0  0  0  0  0  0  0999 V2000
    0.0054    1.5331   -0.0037 C   0  0  0  0  0  0  0  0  0  0  0  0
    0.8290    1.8212    0.4415 H   0  0  0  0  0  0  0  0  0  0  0  0
   -0.8031    1.8260    0.4651 H   0  0  0  0  0  0  0  0  0  0  0  0
   -0.0071    1.9450   -1.0128 H   0  0  0  0  0  0  0  0  0  0  0  0
    0.0000    0.0000    0.0000 C   0  0  0  0  0  0  0  0  0  0  0  0
   -1.1036   -0.6004    0.0000 O   0  0  0  0  0  1  0  0  0  0  0  0
    1.1036   -0.5989    0.0000 O   0  0  0  0  0  0  0  0  0  0  0  0
    3.2653    2.2196    2.4115 C   0  0  0  0  0  0  0  0  0  0  0  0
    4.0701    1.9724    2.9473 H   0  0  0  0  0  0  0  0  0  0  0  0
    2.5057    2.4300    3.0251 H   0  0  0  0  0  0  0  0  0  0  0  0
    3.4968    3.1128    1.8311 H   0  0  0  0  0  0  0  0  0  0  0  0
    2.8716    1.0126    1.5652 C   0  0  0  0  0  0  0  0  0  0  0  0
    1.9111    1.1043    1.2944 H   0  0  0  0  0  0  0  0  0  0  0  0
    3.4450    0.9883    0.7453 H   0  0  0  0  0  0  0  0  0  0  0  0
    3.0446   -0.2996    2.3243 C   0  0  0  0  0  0  0  0  0  0  0  0
    2.6024   -0.2215    3.2074 H   0  0  0  0  0  0  0  0  0  0  0  0
    2.6498   -1.0352    1.7922 H   0  0  0  0  0  0  0  0  0  0  0  0
    4.1003   -0.5185    2.4849 H   0  0  0  0  0  0  0  0  0  0  0  0
  1  5  1  0
  5  6  1  0
  5  7  2  0
  1  2  1  0
  1  3  1  0
  1  4  1  0
  8 12  1  0
 12 15  1  0
  8  9  1  0
  8 10  1  0
  8 11  1  0
 12 13  1  0
 12 14  1  0
 15 16  1  0
 15 17  1  0
 15 18  1  0
M  CHG  1   6  -1
M  END
>  <PDB_ID>  (1457) 
pdb3kvp

>  <RESIDUE_NAME>  (1457) 
GLU   LYS

>  <FRAG_NAME>  (1457) 
ACET   PRPA

>  <FRAG_ATOM_NUM>  (1457) 
fragi: 7  fragj: 11

>  <atom.prop.CHAIN_ID>  (1457) 
A A A A A A A Z Z Z Z Z Z Z Z Z Z Z

>  <atom.prop.IS_HEAVY_ATOM>  (1457) 
1 0 0 0 1 1 1 1 0 0 0 1 0 0 1 0 0 0

>  <DIFUSE_FUNC_ATOM>  (1457) 
atom 6   atom 7   

>  <FINAL_SINGLE_POINT_ENERGY>  (1457) 
0

>  <NONCOV_INTER_ENERGY_QM>  (1457) 
0

>  <FF_Energy>  (1457) 
26.28

>  <QM_Energy>  (1457) 
1.9

>  <source>  (1457) 
ACET_PRPA_16

>  <Index>  (1457) 
4169

$$$$
ACET-pdb3kvp-C-GLU-57:PRPA-pdb3kvp-C-LYS-41
     RDKit          3D

 18 16  0  0  0  0  0  0  0  0999 V2000
    0.0054    1.5331   -0.0037 C   0  0  0  0  0  0  0  0  0  0  0  0
    0.8290    1.8212    0.4415 H   0  0  0  0  0  0  0  0  0  0  0  0
   -0.8031    1.8260    0.4651 H   0  0  0  0  0  0  0  0  0  0  0  0
   -0.0071    1.9450   -1.0128 H   0  0  0  0  0  0  0  0  0  0  0  0
    0.0000    0.0000    0.0000 C   0  0  0  0  0  0  0  0  0  0  0  0
   -1.1036   -0.6004    0.0000 O   0  0  0  0  0  1  0  0  0  0  0  0
    1.1036   -0.5989    0.0000 O   0  0  0  0  0  0  0  0  0  0  0  0
    2.8716    1.0126    1.5652 C   0  0  0  0  0  0  0  0  0  0  0  0
    1.9111    1.1043    1.2944 H   0  0  0  0  0  0  0  0  0  0  0  0
    3.4450    0.9883    0.7453 H   0  0  0  0  0  0  0  0  0  0  0  0
    3.1528    1.8748    2.1697 H   0  0  0  0  0  0  0  0  0  0  0  0
    3.0446   -0.2996    2.3243 C   0  0  0  0  0  0  0  0  0  0  0  0
    2.6024   -0.2215    3.2074 H   0  0  0  0  0  0  0  0  0  0  0  0
    2.6498   -1.0352    1.7922 H   0  0  0  0  0  0  0  0  0  0  0  0
    4.5282   -0.6073    2.5501 C   0  0  0  0  0  0  0  0  0  0  0  0
    5.0096   -0.5230    1.6756 H   0  0  0  0  0  0  0  0  0  0  0  0
    4.9006    0.0632    3.1956 H   0  0  0  0  0  0  0  0  0  0  0  0
    4.6770   -1.6111    2.9480 H   0  0  0  0  0  0  0  0  0  0  0  0
  1  5  1  0
  5  6  1  0
  5  7  2  0
  1  2  1  0
  1  3  1  0
  1  4  1  0
  8 12  1  0
 12 15  1  0
  8  9  1  0
  8 10  1  0
  8 11  1  0
 12 13  1  0
 12 14  1  0
 15 16  1  0
 15 17  1  0
 15 18  1  0
M  CHG  1   6  -1
M  END
>  <PDB_ID>  (1458) 
pdb3kvp

>  <RESIDUE_NAME>  (1458) 
GLU   LYS

>  <FRAG_NAME>  (1458) 
ACET   PRPA

>  <FRAG_ATOM_NUM>  (1458) 
fragi: 7  fragj: 11

>  <atom.prop.CHAIN_ID>  (1458) 
A A A A A A A Z Z Z Z Z Z Z Z Z Z Z

>  <atom.prop.IS_HEAVY_ATOM>  (1458) 
1 0 0 0 1 1 1 1 0 0 0 1 0 0 1 0 0 0

>  <DIFUSE_FUNC_ATOM>  (1458) 
atom 6   atom 7   

>  <FINAL_SINGLE_POINT_ENERGY>  (1458) 
0

>  <NONCOV_INTER_ENERGY_QM>  (1458) 
0

>  <FF_Energy>  (1458) 
23.77

>  <QM_Energy>  (1458) 
1.95

>  <source>  (1458) 
ACET_PRPA_16

>  <Index>  (1458) 
4173

$$$$
ACET-pdb3kke-B-GLU-311:PRPA-pdb3kke-B-ARG-316
     RDKit          3D

 18 16  0  0  0  0  0  0  0  0999 V2000
    0.0227    1.5064   -0.1165 C   0  0  0  0  0  0  0  0  0  0  0  0
   -0.5667    1.7513   -0.8809 H   0  0  0  0  0  0  0  0  0  0  0  0
    0.9626    1.7715   -0.3093 H   0  0  0  0  0  0  0  0  0  0  0  0
   -0.3167    2.0435    0.7691 H   0  0  0  0  0  0  0  0  0  0  0  0
    0.0000    0.0000    0.0000 C   0  0  0  0  0  0  0  0  0  0  0  0
   -1.1094   -0.5810   -0.0000 O   0  0  0  0  0  1  0  0  0  0  0  0
    1.1094   -0.6066    0.0000 O   0  0  0  0  0  0  0  0  0  0  0  0
    1.3428    5.7974   -0.3491 C   0  0  0  0  0  0  0  0  0  0  0  0
    0.7815    5.2877    0.3005 H   0  0  0  0  0  0  0  0  0  0  0  0
    0.7816    6.0912   -1.1205 H   0  0  0  0  0  0  0  0  0  0  0  0
    1.7130    6.6897    0.1559 H   0  0  0  0  0  0  0  0  0  0  0  0
    2.4222    4.8637   -0.8785 C   0  0  0  0  0  0  0  0  0  0  0  0
    2.9886    5.3614   -1.5342 H   0  0  0  0  0  0  0  0  0  0  0  0
    2.9881    4.5563   -0.1139 H   0  0  0  0  0  0  0  0  0  0  0  0
    1.8326    3.6717   -1.5516 C   0  0  0  0  0  0  0  0  0  0  0  0
    1.2665    3.1766   -0.8932 H   0  0  0  0  0  0  0  0  0  0  0  0
    1.2656    3.9816   -2.3155 H   0  0  0  0  0  0  0  0  0  0  0  0
    2.6008    2.9991   -1.9332 H   0  0  0  0  0  0  0  0  0  0  0  0
  1  5  1  0
  5  6  1  0
  5  7  2  0
  1  2  1  0
  1  3  1  0
  1  4  1  0
  8 12  1  0
 12 15  1  0
  8  9  1  0
  8 10  1  0
  8 11  1  0
 12 13  1  0
 12 14  1  0
 15 16  1  0
 15 17  1  0
 15 18  1  0
M  CHG  1   6  -1
M  END
>  <PDB_ID>  (1459) 
pdb3kke

>  <RESIDUE_NAME>  (1459) 
GLU   ARG

>  <FRAG_NAME>  (1459) 
ACET   PRPA

>  <FRAG_ATOM_NUM>  (1459) 
fragi: 7  fragj: 11

>  <atom.prop.CHAIN_ID>  (1459) 
A A A A A A A Z Z Z Z Z Z Z Z Z Z Z

>  <atom.prop.IS_HEAVY_ATOM>  (1459) 
1 0 0 0 1 1 1 1 0 0 0 1 0 0 1 0 0 0

>  <DIFUSE_FUNC_ATOM>  (1459) 
atom 6   atom 7   

>  <FINAL_SINGLE_POINT_ENERGY>  (1459) 
0

>  <NONCOV_INTER_ENERGY_QM>  (1459) 
0

>  <FF_Energy>  (1459) 
22.81

>  <QM_Energy>  (1459) 
4.63

>  <source>  (1459) 
ACET_PRPA_16

>  <Index>  (1459) 
5242

$$$$
ACET-pdb3kxq-A-GLU-61:PRPA-pdb3kxq-A-LEU-58
     RDKit          3D

 18 16  0  0  0  0  0  0  0  0999 V2000
    0.1798    1.4860    0.0139 C   0  0  0  0  0  0  0  0  0  0  0  0
    0.6986    1.7379   -0.8034 H   0  0  0  0  0  0  0  0  0  0  0  0
    0.7091    1.7209    0.8290 H   0  0  0  0  0  0  0  0  0  0  0  0
   -0.7312    2.0844    0.0255 H   0  0  0  0  0  0  0  0  0  0  0  0
    0.0000    0.0000    0.0000 C   0  0  0  0  0  0  0  0  0  0  0  0
   -1.0892   -0.5566    0.0000 O   0  0  0  0  0  1  0  0  0  0  0  0
    1.0892   -0.6098    0.0000 O   0  0  0  0  0  0  0  0  0  0  0  0
    1.7557    0.2781    2.5383 C   0  0  0  0  0  0  0  0  0  0  0  0
    1.4907    0.1687    1.5617 H   0  0  0  0  0  0  0  0  0  0  0  0
    2.7070   -0.2340    2.6831 H   0  0  0  0  0  0  0  0  0  0  0  0
    1.7804    1.3420    2.7741 H   0  0  0  0  0  0  0  0  0  0  0  0
    0.6730   -0.3326    3.4484 C   0  0  0  0  0  0  0  0  0  0  0  0
    1.1685   -0.6599    4.3144 H   0  0  0  0  0  0  0  0  0  0  0  0
    0.1044    0.4714    3.8082 H   0  0  0  0  0  0  0  0  0  0  0  0
   -0.3384   -1.4390    3.1032 C   0  0  0  0  0  0  0  0  0  0  0  0
   -0.9271   -1.1019    2.3424 H   0  0  0  0  0  0  0  0  0  0  0  0
    0.1069   -2.3944    2.8258 H   0  0  0  0  0  0  0  0  0  0  0  0
   -0.9531   -1.5749    3.9930 H   0  0  0  0  0  0  0  0  0  0  0  0
  1  5  1  0
  5  6  1  0
  5  7  2  0
  1  2  1  0
  1  3  1  0
  1  4  1  0
  8 12  1  0
 12 15  1  0
  8  9  1  0
  8 10  1  0
  8 11  1  0
 12 13  1  0
 12 14  1  0
 15 16  1  0
 15 17  1  0
 15 18  1  0
M  CHG  1   6  -1
M  END
>  <PDB_ID>  (1460) 
pdb3kxq

>  <RESIDUE_NAME>  (1460) 
GLU   LEU

>  <FRAG_NAME>  (1460) 
ACET   PRPA

>  <FRAG_ATOM_NUM>  (1460) 
fragi: 7  fragj: 11

>  <atom.prop.CHAIN_ID>  (1460) 
A A A A A A A Z Z Z Z Z Z Z Z Z Z Z

>  <atom.prop.IS_HEAVY_ATOM>  (1460) 
1 0 0 0 1 1 1 1 0 0 0 1 0 0 1 0 0 0

>  <DIFUSE_FUNC_ATOM>  (1460) 
atom 6   atom 7   

>  <FINAL_SINGLE_POINT_ENERGY>  (1460) 
0

>  <NONCOV_INTER_ENERGY_QM>  (1460) 
0

>  <FF_Energy>  (1460) 
43.26

>  <QM_Energy>  (1460) 
2.85

>  <source>  (1460) 
ACET_PRPA_16

>  <Index>  (1460) 
5350

$$$$
ACET-pdb4hsq-A-GLU-447:PRPA-pdb4hsq-A-VAL-331
     RDKit          3D

 18 16  0  0  0  0  0  0  0  0999 V2000
    0.0212    1.5166    0.0313 C   0  0  0  0  0  0  0  0  0  0  0  0
    0.7815    1.8115   -0.5410 H   0  0  0  0  0  0  0  0  0  0  0  0
    0.1820    1.7881    0.9766 H   0  0  0  0  0  0  0  0  0  0  0  0
   -0.8846    2.0108   -0.3199 H   0  0  0  0  0  0  0  0  0  0  0  0
    0.0000    0.0000    0.0000 C   0  0  0  0  0  0  0  0  0  0  0  0
   -1.1020   -0.5962    0.0000 O   0  0  0  0  0  1  0  0  0  0  0  0
    1.1020   -0.5921   -0.0000 O   0  0  0  0  0  0  0  0  0  0  0  0
    2.6062    2.8611   -1.3623 C   0  0  0  0  0  0  0  0  0  0  0  0
    2.3758    3.7548   -0.9741 H   0  0  0  0  0  0  0  0  0  0  0  0
    1.7609    2.3582   -1.5545 H   0  0  0  0  0  0  0  0  0  0  0  0
    3.1518    2.3455   -0.6991 H   0  0  0  0  0  0  0  0  0  0  0  0
    3.3929    3.0456   -2.6398 C   0  0  0  0  0  0  0  0  0  0  0  0
    4.3499    3.1944   -2.3839 H   0  0  0  0  0  0  0  0  0  0  0  0
    3.0700    3.9233   -3.1998 H   0  0  0  0  0  0  0  0  0  0  0  0
    3.3973    1.7693   -3.4972 C   0  0  0  0  0  0  0  0  0  0  0  0
    2.4626    1.4308   -3.5764 H   0  0  0  0  0  0  0  0  0  0  0  0
    3.7592    1.9887   -4.3997 H   0  0  0  0  0  0  0  0  0  0  0  0
    3.9732    1.0854   -3.0544 H   0  0  0  0  0  0  0  0  0  0  0  0
  1  5  1  0
  5  6  1  0
  5  7  2  0
  1  2  1  0
  1  3  1  0
  1  4  1  0
  8 12  1  0
 12 15  1  0
  8  9  1  0
  8 10  1  0
  8 11  1  0
 12 13  1  0
 12 14  1  0
 15 16  1  0
 15 17  1  0
 15 18  1  0
M  CHG  1   6  -1
M  END
>  <PDB_ID>  (1461) 
pdb4hsq

>  <RESIDUE_NAME>  (1461) 
GLU   VAL

>  <FRAG_NAME>  (1461) 
ACET   PRPA

>  <FRAG_ATOM_NUM>  (1461) 
fragi: 7  fragj: 11

>  <atom.prop.CHAIN_ID>  (1461) 
A A A A A A A Z Z Z Z Z Z Z Z Z Z Z

>  <atom.prop.IS_HEAVY_ATOM>  (1461) 
1 0 0 0 1 1 1 1 0 0 0 1 0 0 1 0 0 0

>  <DIFUSE_FUNC_ATOM>  (1461) 
atom 6   atom 7   

>  <FINAL_SINGLE_POINT_ENERGY>  (1461) 
0

>  <NONCOV_INTER_ENERGY_QM>  (1461) 
0

>  <FF_Energy>  (1461) 
27.07

>  <QM_Energy>  (1461) 
4.27

>  <source>  (1461) 
ACET_PRPA_16

>  <Index>  (1461) 
7131

$$$$
ACET-pdb4hnx-A-GLU-190:PRPA-pdb4hnx-A-LYS-187
     RDKit          3D

 18 16  0  0  0  0  0  0  0  0999 V2000
    0.1805    1.4868    0.0155 C   0  0  0  0  0  0  0  0  0  0  0  0
    0.6985    1.7397   -0.8016 H   0  0  0  0  0  0  0  0  0  0  0  0
    0.7103    1.7210    0.8311 H   0  0  0  0  0  0  0  0  0  0  0  0
   -0.7300    2.0860    0.0282 H   0  0  0  0  0  0  0  0  0  0  0  0
    0.0000    0.0000    0.0000 C   0  0  0  0  0  0  0  0  0  0  0  0
   -1.0894   -0.5545   -0.0000 O   0  0  0  0  0  1  0  0  0  0  0  0
    1.0894   -0.6092    0.0000 O   0  0  0  0  0  0  0  0  0  0  0  0
    2.7528    0.8994    1.7610 C   0  0  0  0  0  0  0  0  0  0  0  0
    2.1785    0.6672    0.9692 H   0  0  0  0  0  0  0  0  0  0  0  0
    3.5484    1.5694    1.4352 H   0  0  0  0  0  0  0  0  0  0  0  0
    2.1329    1.3864    2.5136 H   0  0  0  0  0  0  0  0  0  0  0  0
    3.3118   -0.4233    2.3078 C   0  0  0  0  0  0  0  0  0  0  0  0
    4.2481   -0.2600    2.6191 H   0  0  0  0  0  0  0  0  0  0  0  0
    2.7484   -0.7001    3.0876 H   0  0  0  0  0  0  0  0  0  0  0  0
    3.3383   -1.5794    1.3053 C   0  0  0  0  0  0  0  0  0  0  0  0
    3.3212   -2.4443    1.8115 H   0  0  0  0  0  0  0  0  0  0  0  0
    2.5234   -1.5223    0.7257 H   0  0  0  0  0  0  0  0  0  0  0  0
    4.2262   -1.5556    0.6735 H   0  0  0  0  0  0  0  0  0  0  0  0
  1  5  1  0
  5  6  1  0
  5  7  2  0
  1  2  1  0
  1  3  1  0
  1  4  1  0
  8 12  1  0
 12 15  1  0
  8  9  1  0
  8 10  1  0
  8 11  1  0
 12 13  1  0
 12 14  1  0
 15 16  1  0
 15 17  1  0
 15 18  1  0
M  CHG  1   6  -1
M  END
>  <PDB_ID>  (1462) 
pdb4hnx

>  <RESIDUE_NAME>  (1462) 
GLU   LYS

>  <FRAG_NAME>  (1462) 
ACET   PRPA

>  <FRAG_ATOM_NUM>  (1462) 
fragi: 7  fragj: 11

>  <atom.prop.CHAIN_ID>  (1462) 
A A A A A A A Z Z Z Z Z Z Z Z Z Z Z

>  <atom.prop.IS_HEAVY_ATOM>  (1462) 
1 0 0 0 1 1 1 1 0 0 0 1 0 0 1 0 0 0

>  <DIFUSE_FUNC_ATOM>  (1462) 
atom 6   atom 7   

>  <FINAL_SINGLE_POINT_ENERGY>  (1462) 
0

>  <NONCOV_INTER_ENERGY_QM>  (1462) 
0

>  <FF_Energy>  (1462) 
40.82

>  <QM_Energy>  (1462) 
3.25

>  <source>  (1462) 
ACET_PRPA_16

>  <Index>  (1462) 
8047

$$$$
ACET-pdb4hnx-A-GLU-190:PRPA-pdb4hnx-A-LYS-187
     RDKit          3D

 18 16  0  0  0  0  0  0  0  0999 V2000
    0.1805    1.4868    0.0155 C   0  0  0  0  0  0  0  0  0  0  0  0
    0.6985    1.7397   -0.8016 H   0  0  0  0  0  0  0  0  0  0  0  0
    0.7103    1.7210    0.8311 H   0  0  0  0  0  0  0  0  0  0  0  0
   -0.7300    2.0860    0.0282 H   0  0  0  0  0  0  0  0  0  0  0  0
    0.0000    0.0000    0.0000 C   0  0  0  0  0  0  0  0  0  0  0  0
   -1.0894   -0.5545   -0.0000 O   0  0  0  0  0  1  0  0  0  0  0  0
    1.0894   -0.6092    0.0000 O   0  0  0  0  0  0  0  0  0  0  0  0
    3.3118   -0.4233    2.3078 C   0  0  0  0  0  0  0  0  0  0  0  0
    4.2481   -0.2600    2.6191 H   0  0  0  0  0  0  0  0  0  0  0  0
    2.7484   -0.7001    3.0876 H   0  0  0  0  0  0  0  0  0  0  0  0
    2.9153    0.5149    1.9198 H   0  0  0  0  0  0  0  0  0  0  0  0
    3.3383   -1.5794    1.3053 C   0  0  0  0  0  0  0  0  0  0  0  0
    3.3212   -2.4443    1.8115 H   0  0  0  0  0  0  0  0  0  0  0  0
    2.5234   -1.5223    0.7257 H   0  0  0  0  0  0  0  0  0  0  0  0
    4.5764   -1.5462    0.4242 C   0  0  0  0  0  0  0  0  0  0  0  0
    4.5572   -0.7186   -0.1299 H   0  0  0  0  0  0  0  0  0  0  0  0
    5.3869   -1.5514    1.0033 H   0  0  0  0  0  0  0  0  0  0  0  0
    4.6255   -2.4059   -0.2439 H   0  0  0  0  0  0  0  0  0  0  0  0
  1  5  1  0
  5  6  1  0
  5  7  2  0
  1  2  1  0
  1  3  1  0
  1  4  1  0
  8 12  1  0
 12 15  1  0
  8  9  1  0
  8 10  1  0
  8 11  1  0
 12 13  1  0
 12 14  1  0
 15 16  1  0
 15 17  1  0
 15 18  1  0
M  CHG  1   6  -1
M  END
>  <PDB_ID>  (1463) 
pdb4hnx

>  <RESIDUE_NAME>  (1463) 
GLU   LYS

>  <FRAG_NAME>  (1463) 
ACET   PRPA

>  <FRAG_ATOM_NUM>  (1463) 
fragi: 7  fragj: 11

>  <atom.prop.CHAIN_ID>  (1463) 
A A A A A A A Z Z Z Z Z Z Z Z Z Z Z

>  <atom.prop.IS_HEAVY_ATOM>  (1463) 
1 0 0 0 1 1 1 1 0 0 0 1 0 0 1 0 0 0

>  <DIFUSE_FUNC_ATOM>  (1463) 
atom 6   atom 7   

>  <FINAL_SINGLE_POINT_ENERGY>  (1463) 
0

>  <NONCOV_INTER_ENERGY_QM>  (1463) 
0

>  <FF_Energy>  (1463) 
23.34

>  <QM_Energy>  (1463) 
-1.33

>  <source>  (1463) 
ACET_PRPA_16

>  <Index>  (1463) 
8052

$$$$
ACET-pdb4hwd-D-ASP-215:PRPA-pdb4hwd-B-ARG-150
     RDKit          3D

 18 16  0  0  0  0  0  0  0  0999 V2000
    0.0147    1.5140    0.0279 C   0  0  0  0  0  0  0  0  0  0  0  0
    0.8742    1.8346   -0.3585 H   0  0  0  0  0  0  0  0  0  0  0  0
   -0.0739    1.8195    0.9697 H   0  0  0  0  0  0  0  0  0  0  0  0
   -0.7974    1.9593   -0.5468 H   0  0  0  0  0  0  0  0  0  0  0  0
    0.0000    0.0000    0.0000 C   0  0  0  0  0  0  0  0  0  0  0  0
   -1.0993   -0.5933    0.0000 O   0  0  0  0  0  1  0  0  0  0  0  0
    1.0993   -0.5925   -0.0000 O   0  0  0  0  0  0  0  0  0  0  0  0
    3.7000   -2.5026    2.0899 C   0  0  0  0  0  0  0  0  0  0  0  0
    3.8592   -3.2695    2.7117 H   0  0  0  0  0  0  0  0  0  0  0  0
    2.8527   -2.0369    2.3459 H   0  0  0  0  0  0  0  0  0  0  0  0
    4.5221   -1.7966    2.2073 H   0  0  0  0  0  0  0  0  0  0  0  0
    3.5246   -3.0621    0.6871 C   0  0  0  0  0  0  0  0  0  0  0  0
    3.9417   -2.4555    0.0290 H   0  0  0  0  0  0  0  0  0  0  0  0
    3.9075   -3.9704    0.6386 H   0  0  0  0  0  0  0  0  0  0  0  0
    2.0297   -3.1618    0.3583 C   0  0  0  0  0  0  0  0  0  0  0  0
    1.6013   -2.3025    0.6362 H   0  0  0  0  0  0  0  0  0  0  0  0
    1.9459   -3.2729   -0.6321 H   0  0  0  0  0  0  0  0  0  0  0  0
    1.5379   -3.9942    0.8617 H   0  0  0  0  0  0  0  0  0  0  0  0
  1  5  1  0
  5  6  1  0
  5  7  2  0
  1  2  1  0
  1  3  1  0
  1  4  1  0
  8 12  1  0
 12 15  1  0
  8  9  1  0
  8 10  1  0
  8 11  1  0
 12 13  1  0
 12 14  1  0
 15 16  1  0
 15 17  1  0
 15 18  1  0
M  CHG  1   6  -1
M  END
>  <PDB_ID>  (1464) 
pdb4hwd

>  <RESIDUE_NAME>  (1464) 
ASP   ARG

>  <FRAG_NAME>  (1464) 
ACET   PRPA

>  <FRAG_ATOM_NUM>  (1464) 
fragi: 7  fragj: 11

>  <atom.prop.CHAIN_ID>  (1464) 
A A A A A A A Z Z Z Z Z Z Z Z Z Z Z

>  <atom.prop.IS_HEAVY_ATOM>  (1464) 
1 0 0 0 1 1 1 1 0 0 0 1 0 0 1 0 0 0

>  <DIFUSE_FUNC_ATOM>  (1464) 
atom 6   atom 7   

>  <FINAL_SINGLE_POINT_ENERGY>  (1464) 
0

>  <NONCOV_INTER_ENERGY_QM>  (1464) 
0

>  <FF_Energy>  (1464) 
15.69

>  <QM_Energy>  (1464) 
-0.1

>  <source>  (1464) 
ACET_PRPA_16

>  <Index>  (1464) 
8762

$$$$
ACET-pdb4hz4-A-GLU-212:PRPA-pdb4hz4-A-LEU-115
     RDKit          3D

 18 16  0  0  0  0  0  0  0  0999 V2000
   -0.0154    1.5174    0.0198 C   0  0  0  0  0  0  0  0  0  0  0  0
    0.3199    1.8277   -0.8463 H   0  0  0  0  0  0  0  0  0  0  0  0
    0.5406    1.8081    0.7715 H   0  0  0  0  0  0  0  0  0  0  0  0
   -1.0225    1.9096    0.1609 H   0  0  0  0  0  0  0  0  0  0  0  0
    0.0000    0.0000    0.0000 C   0  0  0  0  0  0  0  0  0  0  0  0
   -1.1084   -0.5885   -0.0000 O   0  0  0  0  0  1  0  0  0  0  0  0
    1.1084   -0.5978   -0.0000 O   0  0  0  0  0  0  0  0  0  0  0  0
    4.3534    1.0187    3.1258 C   0  0  0  0  0  0  0  0  0  0  0  0
    3.6853    1.4010    3.7971 H   0  0  0  0  0  0  0  0  0  0  0  0
    5.2023    1.5758    3.2190 H   0  0  0  0  0  0  0  0  0  0  0  0
    4.5947    0.0078    3.4543 H   0  0  0  0  0  0  0  0  0  0  0  0
    3.7920    1.2928    1.7365 C   0  0  0  0  0  0  0  0  0  0  0  0
    4.3215    0.7749    1.0636 H   0  0  0  0  0  0  0  0  0  0  0  0
    3.8907    2.3550    1.5131 H   0  0  0  0  0  0  0  0  0  0  0  0
    2.3394    0.8771    1.6672 C   0  0  0  0  0  0  0  0  0  0  0  0
    1.8066    1.3937    2.3405 H   0  0  0  0  0  0  0  0  0  0  0  0
    1.9771    1.0606    0.7509 H   0  0  0  0  0  0  0  0  0  0  0  0
    2.2571   -0.1018    1.8638 H   0  0  0  0  0  0  0  0  0  0  0  0
  1  5  1  0
  5  6  1  0
  5  7  2  0
  1  2  1  0
  1  3  1  0
  1  4  1  0
  8 12  1  0
 12 15  1  0
  8  9  1  0
  8 10  1  0
  8 11  1  0
 12 13  1  0
 12 14  1  0
 15 16  1  0
 15 17  1  0
 15 18  1  0
M  CHG  1   6  -1
M  END
>  <PDB_ID>  (1465) 
pdb4hz4

>  <RESIDUE_NAME>  (1465) 
GLU   LEU

>  <FRAG_NAME>  (1465) 
ACET   PRPA

>  <FRAG_ATOM_NUM>  (1465) 
fragi: 7  fragj: 11

>  <atom.prop.CHAIN_ID>  (1465) 
A A A A A A A Z Z Z Z Z Z Z Z Z Z Z

>  <atom.prop.IS_HEAVY_ATOM>  (1465) 
1 0 0 0 1 1 1 1 0 0 0 1 0 0 1 0 0 0

>  <DIFUSE_FUNC_ATOM>  (1465) 
atom 6   atom 7   

>  <FINAL_SINGLE_POINT_ENERGY>  (1465) 
0

>  <NONCOV_INTER_ENERGY_QM>  (1465) 
0

>  <FF_Energy>  (1465) 
43.9

>  <QM_Energy>  (1465) 
13.57

>  <source>  (1465) 
ACET_PRPA_16

>  <Index>  (1465) 
10134

$$$$
ACET-pdb4hz4-A-GLU-212:PRPA-pdb4hz4-A-LEU-115
     RDKit          3D

 18 16  0  0  0  0  0  0  0  0999 V2000
   -0.0154    1.5174    0.0198 C   0  0  0  0  0  0  0  0  0  0  0  0
    0.3199    1.8277   -0.8463 H   0  0  0  0  0  0  0  0  0  0  0  0
    0.5406    1.8081    0.7715 H   0  0  0  0  0  0  0  0  0  0  0  0
   -1.0225    1.9096    0.1609 H   0  0  0  0  0  0  0  0  0  0  0  0
    0.0000    0.0000    0.0000 C   0  0  0  0  0  0  0  0  0  0  0  0
   -1.1084   -0.5885   -0.0000 O   0  0  0  0  0  1  0  0  0  0  0  0
    1.1084   -0.5978   -0.0000 O   0  0  0  0  0  0  0  0  0  0  0  0
    2.3394    0.8771    1.6672 C   0  0  0  0  0  0  0  0  0  0  0  0
    1.8066    1.3937    2.3405 H   0  0  0  0  0  0  0  0  0  0  0  0
    1.9771    1.0606    0.7509 H   0  0  0  0  0  0  0  0  0  0  0  0
    2.2571   -0.1018    1.8638 H   0  0  0  0  0  0  0  0  0  0  0  0
    3.7920    1.2928    1.7365 C   0  0  0  0  0  0  0  0  0  0  0  0
    4.3215    0.7749    1.0636 H   0  0  0  0  0  0  0  0  0  0  0  0
    4.1938    1.0967    2.7306 H   0  0  0  0  0  0  0  0  0  0  0  0
    3.9290    2.7677    1.4264 C   0  0  0  0  0  0  0  0  0  0  0  0
    4.8954    3.0314    1.4538 H   0  0  0  0  0  0  0  0  0  0  0  0
    3.5620    2.9572    0.5140 H   0  0  0  0  0  0  0  0  0  0  0  0
    3.4215    3.3045    2.1030 H   0  0  0  0  0  0  0  0  0  0  0  0
  1  5  1  0
  5  6  1  0
  5  7  2  0
  1  2  1  0
  1  3  1  0
  1  4  1  0
  8 12  1  0
 12 15  1  0
  8  9  1  0
  8 10  1  0
  8 11  1  0
 12 13  1  0
 12 14  1  0
 15 16  1  0
 15 17  1  0
 15 18  1  0
M  CHG  1   6  -1
M  END
>  <PDB_ID>  (1466) 
pdb4hz4

>  <RESIDUE_NAME>  (1466) 
GLU   LEU

>  <FRAG_NAME>  (1466) 
ACET   PRPA

>  <FRAG_ATOM_NUM>  (1466) 
fragi: 7  fragj: 11

>  <atom.prop.CHAIN_ID>  (1466) 
A A A A A A A Z Z Z Z Z Z Z Z Z Z Z

>  <atom.prop.IS_HEAVY_ATOM>  (1466) 
1 0 0 0 1 1 1 1 0 0 0 1 0 0 1 0 0 0

>  <DIFUSE_FUNC_ATOM>  (1466) 
atom 6   atom 7   

>  <FINAL_SINGLE_POINT_ENERGY>  (1466) 
0

>  <NONCOV_INTER_ENERGY_QM>  (1466) 
0

>  <FF_Energy>  (1466) 
43.58

>  <QM_Energy>  (1466) 
13.28

>  <source>  (1466) 
ACET_PRPA_16

>  <Index>  (1466) 
10149

$$$$
ACET-pdb4i0n-A-ASP-194:PRPA-pdb4i0n-A-GLN-191
     RDKit          3D

 18 16  0  0  0  0  0  0  0  0999 V2000
    0.0504    1.5155   -0.0196 C   0  0  0  0  0  0  0  0  0  0  0  0
   -0.7972    1.8707    0.3679 H   0  0  0  0  0  0  0  0  0  0  0  0
    0.1476    1.8229   -0.9625 H   0  0  0  0  0  0  0  0  0  0  0  0
    0.8781    1.9335    0.5534 H   0  0  0  0  0  0  0  0  0  0  0  0
    0.0000    0.0000    0.0000 C   0  0  0  0  0  0  0  0  0  0  0  0
   -1.0952   -0.5961   -0.0000 O   0  0  0  0  0  1  0  0  0  0  0  0
    1.0952   -0.5919   -0.0000 O   0  0  0  0  0  0  0  0  0  0  0  0
   -0.3908   -4.7469    1.9118 C   0  0  0  0  0  0  0  0  0  0  0  0
    0.5686   -4.9969    1.9890 H   0  0  0  0  0  0  0  0  0  0  0  0
   -0.9847   -5.6545    2.0200 H   0  0  0  0  0  0  0  0  0  0  0  0
   -0.6335   -4.0845    2.7428 H   0  0  0  0  0  0  0  0  0  0  0  0
   -0.5784   -4.0504    0.5650 C   0  0  0  0  0  0  0  0  0  0  0  0
   -0.3972   -4.6889   -0.1636 H   0  0  0  0  0  0  0  0  0  0  0  0
   -1.4921   -3.6816    0.5093 H   0  0  0  0  0  0  0  0  0  0  0  0
    0.4130   -2.8708    0.4114 C   0  0  0  0  0  0  0  0  0  0  0  0
    0.1642   -2.1688    1.0853 H   0  0  0  0  0  0  0  0  0  0  0  0
    1.3336   -3.2118    0.6243 H   0  0  0  0  0  0  0  0  0  0  0  0
    0.4265   -2.4162   -0.5793 H   0  0  0  0  0  0  0  0  0  0  0  0
  1  5  1  0
  5  6  1  0
  5  7  2  0
  1  2  1  0
  1  3  1  0
  1  4  1  0
  8 12  1  0
 12 15  1  0
  8  9  1  0
  8 10  1  0
  8 11  1  0
 12 13  1  0
 12 14  1  0
 15 16  1  0
 15 17  1  0
 15 18  1  0
M  CHG  1   6  -1
M  END
>  <PDB_ID>  (1467) 
pdb4i0n

>  <RESIDUE_NAME>  (1467) 
ASP   GLN

>  <FRAG_NAME>  (1467) 
ACET   PRPA

>  <FRAG_ATOM_NUM>  (1467) 
fragi: 7  fragj: 11

>  <atom.prop.CHAIN_ID>  (1467) 
A A A A A A A Z Z Z Z Z Z Z Z Z Z Z

>  <atom.prop.IS_HEAVY_ATOM>  (1467) 
1 0 0 0 1 1 1 1 0 0 0 1 0 0 1 0 0 0

>  <DIFUSE_FUNC_ATOM>  (1467) 
atom 6   atom 7   

>  <FINAL_SINGLE_POINT_ENERGY>  (1467) 
0

>  <NONCOV_INTER_ENERGY_QM>  (1467) 
0

>  <FF_Energy>  (1467) 
32.36

>  <QM_Energy>  (1467) 
10.93

>  <source>  (1467) 
ACET_PRPA_16

>  <Index>  (1467) 
10999

$$$$
ACET-pdb4hyr-A-GLU-85:PRPA-pdb4hyr-A-ILE-66
     RDKit          3D

 18 16  0  0  0  0  0  0  0  0999 V2000
   -0.0295    1.5087   -0.1747 C   0  0  0  0  0  0  0  0  0  0  0  0
    0.8623    1.7899   -0.4745 H   0  0  0  0  0  0  0  0  0  0  0  0
   -0.2763    1.9016    0.6908 H   0  0  0  0  0  0  0  0  0  0  0  0
   -0.7583    1.8285   -0.9195 H   0  0  0  0  0  0  0  0  0  0  0  0
    0.0000    0.0000    0.0000 C   0  0  0  0  0  0  0  0  0  0  0  0
   -1.0984   -0.5868   -0.0000 O   0  0  0  0  0  1  0  0  0  0  0  0
    1.0984   -0.6064    0.0000 O   0  0  0  0  0  0  0  0  0  0  0  0
    1.8476    5.5253    3.0343 C   0  0  0  0  0  0  0  0  0  0  0  0
    1.2818    6.2269    2.6266 H   0  0  0  0  0  0  0  0  0  0  0  0
    2.0719    5.8354    4.0549 H   0  0  0  0  0  0  0  0  0  0  0  0
    2.7531    5.4477    2.4327 H   0  0  0  0  0  0  0  0  0  0  0  0
    1.0582    4.2226    3.0636 C   0  0  0  0  0  0  0  0  0  0  0  0
    1.5636    3.5592    3.6117 H   0  0  0  0  0  0  0  0  0  0  0  0
    0.1798    4.3991    3.5054 H   0  0  0  0  0  0  0  0  0  0  0  0
    0.8086    3.6465    1.6969 C   0  0  0  0  0  0  0  0  0  0  0  0
    1.6823    3.4579    1.2478 H   0  0  0  0  0  0  0  0  0  0  0  0
    0.2887    2.7964    1.7807 H   0  0  0  0  0  0  0  0  0  0  0  0
    0.2876    4.3001    1.1471 H   0  0  0  0  0  0  0  0  0  0  0  0
  1  5  1  0
  5  6  1  0
  5  7  2  0
  1  2  1  0
  1  3  1  0
  1  4  1  0
  8 12  1  0
 12 15  1  0
  8  9  1  0
  8 10  1  0
  8 11  1  0
 12 13  1  0
 12 14  1  0
 15 16  1  0
 15 17  1  0
 15 18  1  0
M  CHG  1   6  -1
M  END
>  <PDB_ID>  (1468) 
pdb4hyr

>  <RESIDUE_NAME>  (1468) 
GLU   ILE

>  <FRAG_NAME>  (1468) 
ACET   PRPA

>  <FRAG_ATOM_NUM>  (1468) 
fragi: 7  fragj: 11

>  <atom.prop.CHAIN_ID>  (1468) 
A A A A A A A Z Z Z Z Z Z Z Z Z Z Z

>  <atom.prop.IS_HEAVY_ATOM>  (1468) 
1 0 0 0 1 1 1 1 0 0 0 1 0 0 1 0 0 0

>  <DIFUSE_FUNC_ATOM>  (1468) 
atom 6   atom 7   

>  <FINAL_SINGLE_POINT_ENERGY>  (1468) 
0

>  <NONCOV_INTER_ENERGY_QM>  (1468) 
0

>  <FF_Energy>  (1468) 
28.53

>  <QM_Energy>  (1468) 
6.38

>  <source>  (1468) 
ACET_PRPA_16

>  <Index>  (1468) 
12297

$$$$
ACET-pdb3lcu-A-GLU-267:PRPA-pdb3lcu-A-ARG-108
     RDKit          3D

 18 16  0  0  0  0  0  0  0  0999 V2000
   -0.0217    1.5236    0.0225 C   0  0  0  0  0  0  0  0  0  0  0  0
    0.8191    1.8392   -0.3672 H   0  0  0  0  0  0  0  0  0  0  0  0
   -0.1417    1.8052    0.9519 H   0  0  0  0  0  0  0  0  0  0  0  0
   -0.8420    1.9354   -0.5653 H   0  0  0  0  0  0  0  0  0  0  0  0
    0.0000    0.0000    0.0000 C   0  0  0  0  0  0  0  0  0  0  0  0
   -1.0944   -0.5913    0.0000 O   0  0  0  0  0  1  0  0  0  0  0  0
    1.0944   -0.6126   -0.0000 O   0  0  0  0  0  0  0  0  0  0  0  0
   -3.6903   -3.4446    1.3075 C   0  0  0  0  0  0  0  0  0  0  0  0
   -3.0355   -2.9393    1.8738 H   0  0  0  0  0  0  0  0  0  0  0  0
   -3.6567   -4.4143    1.5558 H   0  0  0  0  0  0  0  0  0  0  0  0
   -4.6898   -3.0719    1.5313 H   0  0  0  0  0  0  0  0  0  0  0  0
   -3.2441   -3.3198   -0.1479 C   0  0  0  0  0  0  0  0  0  0  0  0
   -3.5097   -4.1249   -0.6489 H   0  0  0  0  0  0  0  0  0  0  0  0
   -3.6174   -2.4985   -0.5415 H   0  0  0  0  0  0  0  0  0  0  0  0
   -1.7077   -3.2137   -0.2012 C   0  0  0  0  0  0  0  0  0  0  0  0
   -1.4347   -3.3532   -1.1268 H   0  0  0  0  0  0  0  0  0  0  0  0
   -1.4615   -2.3396    0.1540 H   0  0  0  0  0  0  0  0  0  0  0  0
   -1.3200   -4.0088    0.4356 H   0  0  0  0  0  0  0  0  0  0  0  0
  1  5  1  0
  5  6  1  0
  5  7  2  0
  1  2  1  0
  1  3  1  0
  1  4  1  0
  8 12  1  0
 12 15  1  0
  8  9  1  0
  8 10  1  0
  8 11  1  0
 12 13  1  0
 12 14  1  0
 15 16  1  0
 15 17  1  0
 15 18  1  0
M  CHG  1   6  -1
M  END
>  <PDB_ID>  (1469) 
pdb3lcu

>  <RESIDUE_NAME>  (1469) 
GLU   ARG

>  <FRAG_NAME>  (1469) 
ACET   PRPA

>  <FRAG_ATOM_NUM>  (1469) 
fragi: 7  fragj: 11

>  <atom.prop.CHAIN_ID>  (1469) 
A A A A A A A Z Z Z Z Z Z Z Z Z Z Z

>  <atom.prop.IS_HEAVY_ATOM>  (1469) 
1 0 0 0 1 1 1 1 0 0 0 1 0 0 1 0 0 0

>  <DIFUSE_FUNC_ATOM>  (1469) 
atom 6   atom 7   

>  <FINAL_SINGLE_POINT_ENERGY>  (1469) 
0

>  <NONCOV_INTER_ENERGY_QM>  (1469) 
0

>  <FF_Energy>  (1469) 
30.2

>  <QM_Energy>  (1469) 
1.25

>  <source>  (1469) 
ACET_PRPA_16

>  <Index>  (1469) 
14171

$$$$
ACET-pdb3le1-A-GLU-7:PRPA-pdb3le1-A-VAL-60
     RDKit          3D

 18 16  0  0  0  0  0  0  0  0999 V2000
    0.1778    1.4858    0.0156 C   0  0  0  0  0  0  0  0  0  0  0  0
    0.6956    1.7400   -0.8020 H   0  0  0  0  0  0  0  0  0  0  0  0
    0.7077    1.7218    0.8302 H   0  0  0  0  0  0  0  0  0  0  0  0
   -0.7332    2.0841    0.0275 H   0  0  0  0  0  0  0  0  0  0  0  0
    0.0000    0.0000    0.0000 C   0  0  0  0  0  0  0  0  0  0  0  0
   -1.0890   -0.5565    0.0000 O   0  0  0  0  0  1  0  0  0  0  0  0
    1.0890   -0.6085   -0.0000 O   0  0  0  0  0  0  0  0  0  0  0  0
    1.9389    4.9040   -2.7279 C   0  0  0  0  0  0  0  0  0  0  0  0
    1.2507    4.9710   -2.0117 H   0  0  0  0  0  0  0  0  0  0  0  0
    1.4396    4.6855   -3.6718 H   0  0  0  0  0  0  0  0  0  0  0  0
    2.4179    5.8783   -2.8246 H   0  0  0  0  0  0  0  0  0  0  0  0
    2.9831    3.8254   -2.4252 C   0  0  0  0  0  0  0  0  0  0  0  0
    3.6723    3.8549   -3.1445 H   0  0  0  0  0  0  0  0  0  0  0  0
    3.4969    4.0365   -1.4873 H   0  0  0  0  0  0  0  0  0  0  0  0
    2.3261    2.4513   -2.3954 C   0  0  0  0  0  0  0  0  0  0  0  0
    3.0301    1.7519   -2.2770 H   0  0  0  0  0  0  0  0  0  0  0  0
    1.6801    2.4121   -1.6336 H   0  0  0  0  0  0  0  0  0  0  0  0
    1.8415    2.2995   -3.2569 H   0  0  0  0  0  0  0  0  0  0  0  0
  1  5  1  0
  5  6  1  0
  5  7  2  0
  1  2  1  0
  1  3  1  0
  1  4  1  0
  8 12  1  0
 12 15  1  0
  8  9  1  0
  8 10  1  0
  8 11  1  0
 12 13  1  0
 12 14  1  0
 15 16  1  0
 15 17  1  0
 15 18  1  0
M  CHG  1   6  -1
M  END
>  <PDB_ID>  (1470) 
pdb3le1

>  <RESIDUE_NAME>  (1470) 
GLU   VAL

>  <FRAG_NAME>  (1470) 
ACET   PRPA

>  <FRAG_ATOM_NUM>  (1470) 
fragi: 7  fragj: 11

>  <atom.prop.CHAIN_ID>  (1470) 
A A A A A A A Z Z Z Z Z Z Z Z Z Z Z

>  <atom.prop.IS_HEAVY_ATOM>  (1470) 
1 0 0 0 1 1 1 1 0 0 0 1 0 0 1 0 0 0

>  <DIFUSE_FUNC_ATOM>  (1470) 
atom 6   atom 7   

>  <FINAL_SINGLE_POINT_ENERGY>  (1470) 
0

>  <NONCOV_INTER_ENERGY_QM>  (1470) 
0

>  <FF_Energy>  (1470) 
38.58

>  <QM_Energy>  (1470) 
4.38

>  <source>  (1470) 
ACET_PRPA_16

>  <Index>  (1470) 
14390

$$$$
ACET-pdb3lcz-C-GLU-21:PRPA-pdb3lcz-C-PRO-27
     RDKit          3D

 18 16  0  0  0  0  0  0  0  0999 V2000
   -0.0011    1.5163    0.0029 C   0  0  0  0  0  0  0  0  0  0  0  0
   -0.7170    1.8130    0.6073 H   0  0  0  0  0  0  0  0  0  0  0  0
   -0.1469    1.8153   -0.9221 H   0  0  0  0  0  0  0  0  0  0  0  0
    0.9393    1.9399    0.3554 H   0  0  0  0  0  0  0  0  0  0  0  0
    0.0000    0.0000    0.0000 C   0  0  0  0  0  0  0  0  0  0  0  0
   -1.0967   -0.5965    0.0000 O   0  0  0  0  0  1  0  0  0  0  0  0
    1.0967   -0.5945   -0.0000 O   0  0  0  0  0  0  0  0  0  0  0  0
    3.0936   -3.5246    2.2268 C   0  0  0  0  0  0  0  0  0  0  0  0
    3.2231   -4.4946    1.9881 H   0  0  0  0  0  0  0  0  0  0  0  0
    2.4871   -3.4735    3.0285 H   0  0  0  0  0  0  0  0  0  0  0  0
    4.0539   -3.0591    2.4484 H   0  0  0  0  0  0  0  0  0  0  0  0
    2.5530   -2.7574    1.0908 C   0  0  0  0  0  0  0  0  0  0  0  0
    2.9098   -3.1076    0.2158 H   0  0  0  0  0  0  0  0  0  0  0  0
    1.5470   -2.8107    1.0650 H   0  0  0  0  0  0  0  0  0  0  0  0
    3.0019   -1.3408    1.3160 C   0  0  0  0  0  0  0  0  0  0  0  0
    3.1424   -0.8588    0.4520 H   0  0  0  0  0  0  0  0  0  0  0  0
    2.3482   -0.8337    1.8783 H   0  0  0  0  0  0  0  0  0  0  0  0
    3.9476   -1.4625    1.8441 H   0  0  0  0  0  0  0  0  0  0  0  0
  1  5  1  0
  5  6  1  0
  5  7  2  0
  1  2  1  0
  1  3  1  0
  1  4  1  0
  8 12  1  0
 12 15  1  0
  8  9  1  0
  8 10  1  0
  8 11  1  0
 12 13  1  0
 12 14  1  0
 15 16  1  0
 15 17  1  0
 15 18  1  0
M  CHG  1   6  -1
M  END
>  <PDB_ID>  (1471) 
pdb3lcz

>  <RESIDUE_NAME>  (1471) 
GLU   PRO

>  <FRAG_NAME>  (1471) 
ACET   PRPA

>  <FRAG_ATOM_NUM>  (1471) 
fragi: 7  fragj: 11

>  <atom.prop.CHAIN_ID>  (1471) 
A A A A A A A Z Z Z Z Z Z Z Z Z Z Z

>  <atom.prop.IS_HEAVY_ATOM>  (1471) 
1 0 0 0 1 1 1 1 0 0 0 1 0 0 1 0 0 0

>  <DIFUSE_FUNC_ATOM>  (1471) 
atom 6   atom 7   

>  <FINAL_SINGLE_POINT_ENERGY>  (1471) 
0

>  <NONCOV_INTER_ENERGY_QM>  (1471) 
0

>  <FF_Energy>  (1471) 
21.29

>  <QM_Energy>  (1471) 
3.2

>  <source>  (1471) 
ACET_PRPA_16

>  <Index>  (1471) 
14490

$$$$
ACET-pdb3leq-A-ASP-27:PRPA-pdb3leq-A-ARG-104
     RDKit          3D

 18 16  0  0  0  0  0  0  0  0999 V2000
    0.0349    1.5343    0.0176 C   0  0  0  0  0  0  0  0  0  0  0  0
    0.6848    1.8379   -0.6711 H   0  0  0  0  0  0  0  0  0  0  0  0
    0.3244    1.8277    0.9214 H   0  0  0  0  0  0  0  0  0  0  0  0
   -0.9327    1.9874   -0.1984 H   0  0  0  0  0  0  0  0  0  0  0  0
    0.0000    0.0000    0.0000 C   0  0  0  0  0  0  0  0  0  0  0  0
   -1.0977   -0.6231   -0.0000 O   0  0  0  0  0  1  0  0  0  0  0  0
    1.0977   -0.5912    0.0000 O   0  0  0  0  0  0  0  0  0  0  0  0
    1.5685   -2.4156   -2.9337 C   0  0  0  0  0  0  0  0  0  0  0  0
    2.1680   -2.2160   -2.1634 H   0  0  0  0  0  0  0  0  0  0  0  0
    1.2338   -1.4790   -3.3797 H   0  0  0  0  0  0  0  0  0  0  0  0
    2.1361   -2.9682   -3.6824 H   0  0  0  0  0  0  0  0  0  0  0  0
    0.3530   -3.2302   -2.4665 C   0  0  0  0  0  0  0  0  0  0  0  0
   -0.2170   -3.4225   -3.2692 H   0  0  0  0  0  0  0  0  0  0  0  0
    0.6886   -4.0972   -2.0905 H   0  0  0  0  0  0  0  0  0  0  0  0
   -0.5238   -2.5695   -1.4146 C   0  0  0  0  0  0  0  0  0  0  0  0
    0.0312   -2.3791   -0.6021 H   0  0  0  0  0  0  0  0  0  0  0  0
   -0.8744   -1.7056   -1.7818 H   0  0  0  0  0  0  0  0  0  0  0  0
   -1.3653   -3.2011   -1.1300 H   0  0  0  0  0  0  0  0  0  0  0  0
  1  5  1  0
  5  6  1  0
  5  7  2  0
  1  2  1  0
  1  3  1  0
  1  4  1  0
  8 12  1  0
 12 15  1  0
  8  9  1  0
  8 10  1  0
  8 11  1  0
 12 13  1  0
 12 14  1  0
 15 16  1  0
 15 17  1  0
 15 18  1  0
M  CHG  1   6  -1
M  END
>  <PDB_ID>  (1472) 
pdb3leq

>  <RESIDUE_NAME>  (1472) 
ASP   ARG

>  <FRAG_NAME>  (1472) 
ACET   PRPA

>  <FRAG_ATOM_NUM>  (1472) 
fragi: 7  fragj: 11

>  <atom.prop.CHAIN_ID>  (1472) 
A A A A A A A Z Z Z Z Z Z Z Z Z Z Z

>  <atom.prop.IS_HEAVY_ATOM>  (1472) 
1 0 0 0 1 1 1 1 0 0 0 1 0 0 1 0 0 0

>  <DIFUSE_FUNC_ATOM>  (1472) 
atom 6   atom 7   

>  <FINAL_SINGLE_POINT_ENERGY>  (1472) 
0

>  <NONCOV_INTER_ENERGY_QM>  (1472) 
0

>  <FF_Energy>  (1472) 
23.75

>  <QM_Energy>  (1472) 
5.99

>  <source>  (1472) 
ACET_PRPA_16

>  <Index>  (1472) 
14952

$$$$
ACET-pdb3leq-A-ASP-27:PRPA-pdb3leq-A-ARG-104
     RDKit          3D

 18 16  0  0  0  0  0  0  0  0999 V2000
    0.0349    1.5343    0.0176 C   0  0  0  0  0  0  0  0  0  0  0  0
    0.6848    1.8379   -0.6711 H   0  0  0  0  0  0  0  0  0  0  0  0
    0.3244    1.8277    0.9214 H   0  0  0  0  0  0  0  0  0  0  0  0
   -0.9327    1.9874   -0.1984 H   0  0  0  0  0  0  0  0  0  0  0  0
    0.0000    0.0000    0.0000 C   0  0  0  0  0  0  0  0  0  0  0  0
   -1.0977   -0.6231   -0.0000 O   0  0  0  0  0  1  0  0  0  0  0  0
    1.0977   -0.5912    0.0000 O   0  0  0  0  0  0  0  0  0  0  0  0
    0.3530   -3.2302   -2.4665 C   0  0  0  0  0  0  0  0  0  0  0  0
   -0.2170   -3.4225   -3.2692 H   0  0  0  0  0  0  0  0  0  0  0  0
    0.6886   -4.0972   -2.0905 H   0  0  0  0  0  0  0  0  0  0  0  0
    1.2156   -2.6521   -2.7980 H   0  0  0  0  0  0  0  0  0  0  0  0
   -0.5238   -2.5695   -1.4146 C   0  0  0  0  0  0  0  0  0  0  0  0
    0.0312   -2.3791   -0.6021 H   0  0  0  0  0  0  0  0  0  0  0  0
   -0.8744   -1.7056   -1.7818 H   0  0  0  0  0  0  0  0  0  0  0  0
   -1.6706   -3.4302   -1.0267 C   0  0  0  0  0  0  0  0  0  0  0  0
   -2.2246   -3.6178   -1.8393 H   0  0  0  0  0  0  0  0  0  0  0  0
   -1.3192   -4.2931   -0.6597 H   0  0  0  0  0  0  0  0  0  0  0  0
   -2.3015   -2.9594   -0.2727 H   0  0  0  0  0  0  0  0  0  0  0  0
  1  5  1  0
  5  6  1  0
  5  7  2  0
  1  2  1  0
  1  3  1  0
  1  4  1  0
  8 12  1  0
 12 15  1  0
  8  9  1  0
  8 10  1  0
  8 11  1  0
 12 13  1  0
 12 14  1  0
 15 16  1  0
 15 17  1  0
 15 18  1  0
M  CHG  1   6  -1
M  END
>  <PDB_ID>  (1473) 
pdb3leq

>  <RESIDUE_NAME>  (1473) 
ASP   ARG

>  <FRAG_NAME>  (1473) 
ACET   PRPA

>  <FRAG_ATOM_NUM>  (1473) 
fragi: 7  fragj: 11

>  <atom.prop.CHAIN_ID>  (1473) 
A A A A A A A Z Z Z Z Z Z Z Z Z Z Z

>  <atom.prop.IS_HEAVY_ATOM>  (1473) 
1 0 0 0 1 1 1 1 0 0 0 1 0 0 1 0 0 0

>  <DIFUSE_FUNC_ATOM>  (1473) 
atom 6   atom 7   

>  <FINAL_SINGLE_POINT_ENERGY>  (1473) 
0

>  <NONCOV_INTER_ENERGY_QM>  (1473) 
0

>  <FF_Energy>  (1473) 
22.37

>  <QM_Energy>  (1473) 
5.44

>  <source>  (1473) 
ACET_PRPA_16

>  <Index>  (1473) 
14961

$$$$
ACET-pdb4ich-A-GLU-96:PRPA-pdb4ich-A-ARG-100
     RDKit          3D

 18 16  0  0  0  0  0  0  0  0999 V2000
    0.0102    1.5068   -0.0386 C   0  0  0  0  0  0  0  0  0  0  0  0
    0.2708    1.7822   -0.9452 H   0  0  0  0  0  0  0  0  0  0  0  0
    0.6470    1.8196    0.6426 H   0  0  0  0  0  0  0  0  0  0  0  0
   -0.9672    1.9360    0.1813 H   0  0  0  0  0  0  0  0  0  0  0  0
    0.0000    0.0000    0.0000 C   0  0  0  0  0  0  0  0  0  0  0  0
   -1.1057   -0.5853   -0.0000 O   0  0  0  0  0  1  0  0  0  0  0  0
    1.1057   -0.5915   -0.0000 O   0  0  0  0  0  0  0  0  0  0  0  0
    2.1693   -1.4343    4.3213 C   0  0  0  0  0  0  0  0  0  0  0  0
    1.9427   -0.4726    4.2833 H   0  0  0  0  0  0  0  0  0  0  0  0
    3.1097   -1.5713    4.5952 H   0  0  0  0  0  0  0  0  0  0  0  0
    1.5182   -1.9188    5.0488 H   0  0  0  0  0  0  0  0  0  0  0  0
    2.0065   -2.0094    2.9076 C   0  0  0  0  0  0  0  0  0  0  0  0
    2.1973   -3.0078    2.9348 H   0  0  0  0  0  0  0  0  0  0  0  0
    1.0376   -1.9023    2.6189 H   0  0  0  0  0  0  0  0  0  0  0  0
    2.8862   -1.3996    1.8070 C   0  0  0  0  0  0  0  0  0  0  0  0
    3.1768   -2.1461    1.2056 H   0  0  0  0  0  0  0  0  0  0  0  0
    2.3162   -0.7606    1.2865 H   0  0  0  0  0  0  0  0  0  0  0  0
    3.7631   -0.8773    2.1896 H   0  0  0  0  0  0  0  0  0  0  0  0
  1  5  1  0
  5  6  1  0
  5  7  2  0
  1  2  1  0
  1  3  1  0
  1  4  1  0
  8 12  1  0
 12 15  1  0
  8  9  1  0
  8 10  1  0
  8 11  1  0
 12 13  1  0
 12 14  1  0
 15 16  1  0
 15 17  1  0
 15 18  1  0
M  CHG  1   6  -1
M  END
>  <PDB_ID>  (1474) 
pdb4ich

>  <RESIDUE_NAME>  (1474) 
GLU   ARG

>  <FRAG_NAME>  (1474) 
ACET   PRPA

>  <FRAG_ATOM_NUM>  (1474) 
fragi: 7  fragj: 11

>  <atom.prop.CHAIN_ID>  (1474) 
A A A A A A A Z Z Z Z Z Z Z Z Z Z Z

>  <atom.prop.IS_HEAVY_ATOM>  (1474) 
1 0 0 0 1 1 1 1 0 0 0 1 0 0 1 0 0 0

>  <DIFUSE_FUNC_ATOM>  (1474) 
atom 6   atom 7   

>  <FINAL_SINGLE_POINT_ENERGY>  (1474) 
0

>  <NONCOV_INTER_ENERGY_QM>  (1474) 
0

>  <FF_Energy>  (1474) 
34.49

>  <QM_Energy>  (1474) 
1.03

>  <source>  (1474) 
ACET_PRPA_16

>  <Index>  (1474) 
15108

$$$$
ACET-pdb3leh-A-GLU-28:PRPA-pdb3leh-A-LYS-32
     RDKit          3D

 18 16  0  0  0  0  0  0  0  0999 V2000
    0.1784    1.4863    0.0144 C   0  0  0  0  0  0  0  0  0  0  0  0
    0.6970    1.7391   -0.8030 H   0  0  0  0  0  0  0  0  0  0  0  0
    0.7078    1.7219    0.8292 H   0  0  0  0  0  0  0  0  0  0  0  0
   -0.7324    2.0850    0.0257 H   0  0  0  0  0  0  0  0  0  0  0  0
    0.0000    0.0000    0.0000 C   0  0  0  0  0  0  0  0  0  0  0  0
   -1.0889   -0.5560   -0.0000 O   0  0  0  0  0  1  0  0  0  0  0  0
    1.0889   -0.6091    0.0000 O   0  0  0  0  0  0  0  0  0  0  0  0
    3.1066   -2.0994   -0.0445 C   0  0  0  0  0  0  0  0  0  0  0  0
    3.8103   -2.6943   -0.4730 H   0  0  0  0  0  0  0  0  0  0  0  0
    2.1616   -2.2577   -0.5641 H   0  0  0  0  0  0  0  0  0  0  0  0
    3.0750   -2.3212    1.0223 H   0  0  0  0  0  0  0  0  0  0  0  0
    3.5704   -0.6514   -0.2024 C   0  0  0  0  0  0  0  0  0  0  0  0
    4.2617   -0.6155   -0.9117 H   0  0  0  0  0  0  0  0  0  0  0  0
    2.7876   -0.0927   -0.4421 H   0  0  0  0  0  0  0  0  0  0  0  0
    4.1846   -0.0790    1.0877 C   0  0  0  0  0  0  0  0  0  0  0  0
    3.9625   -0.6884    1.8452 H   0  0  0  0  0  0  0  0  0  0  0  0
    5.1740   -0.0238    0.9744 H   0  0  0  0  0  0  0  0  0  0  0  0
    3.7953    0.9155    1.3060 H   0  0  0  0  0  0  0  0  0  0  0  0
  1  5  1  0
  5  6  1  0
  5  7  2  0
  1  2  1  0
  1  3  1  0
  1  4  1  0
  8 12  1  0
 12 15  1  0
  8  9  1  0
  8 10  1  0
  8 11  1  0
 12 13  1  0
 12 14  1  0
 15 16  1  0
 15 17  1  0
 15 18  1  0
M  CHG  1   6  -1
M  END
>  <PDB_ID>  (1475) 
pdb3leh

>  <RESIDUE_NAME>  (1475) 
GLU   LYS

>  <FRAG_NAME>  (1475) 
ACET   PRPA

>  <FRAG_ATOM_NUM>  (1475) 
fragi: 7  fragj: 11

>  <atom.prop.CHAIN_ID>  (1475) 
A A A A A A A Z Z Z Z Z Z Z Z Z Z Z

>  <atom.prop.IS_HEAVY_ATOM>  (1475) 
1 0 0 0 1 1 1 1 0 0 0 1 0 0 1 0 0 0

>  <DIFUSE_FUNC_ATOM>  (1475) 
atom 6   atom 7   

>  <FINAL_SINGLE_POINT_ENERGY>  (1475) 
0

>  <NONCOV_INTER_ENERGY_QM>  (1475) 
0

>  <FF_Energy>  (1475) 
49.05

>  <QM_Energy>  (1475) 
8.22

>  <source>  (1475) 
ACET_PRPA_16

>  <Index>  (1475) 
15240

$$$$
ACET-pdb3leh-A-GLU-28:PRPA-pdb3leh-A-LYS-32
     RDKit          3D

 18 16  0  0  0  0  0  0  0  0999 V2000
    0.1784    1.4863    0.0144 C   0  0  0  0  0  0  0  0  0  0  0  0
    0.6970    1.7391   -0.8030 H   0  0  0  0  0  0  0  0  0  0  0  0
    0.7078    1.7219    0.8292 H   0  0  0  0  0  0  0  0  0  0  0  0
   -0.7324    2.0850    0.0257 H   0  0  0  0  0  0  0  0  0  0  0  0
    0.0000    0.0000    0.0000 C   0  0  0  0  0  0  0  0  0  0  0  0
   -1.0889   -0.5560   -0.0000 O   0  0  0  0  0  1  0  0  0  0  0  0
    1.0889   -0.6091    0.0000 O   0  0  0  0  0  0  0  0  0  0  0  0
    3.5704   -0.6514   -0.2024 C   0  0  0  0  0  0  0  0  0  0  0  0
    4.2617   -0.6155   -0.9117 H   0  0  0  0  0  0  0  0  0  0  0  0
    2.7876   -0.0927   -0.4421 H   0  0  0  0  0  0  0  0  0  0  0  0
    3.2397   -1.6839   -0.0898 H   0  0  0  0  0  0  0  0  0  0  0  0
    4.1846   -0.0790    1.0877 C   0  0  0  0  0  0  0  0  0  0  0  0
    3.9625   -0.6884    1.8452 H   0  0  0  0  0  0  0  0  0  0  0  0
    5.1740   -0.0238    0.9744 H   0  0  0  0  0  0  0  0  0  0  0  0
    3.6393    1.3142    1.3935 C   0  0  0  0  0  0  0  0  0  0  0  0
    4.2930    1.9899    1.0788 H   0  0  0  0  0  0  0  0  0  0  0  0
    2.7668    1.4254    0.9368 H   0  0  0  0  0  0  0  0  0  0  0  0
    3.4904    1.4468    2.4651 H   0  0  0  0  0  0  0  0  0  0  0  0
  1  5  1  0
  5  6  1  0
  5  7  2  0
  1  2  1  0
  1  3  1  0
  1  4  1  0
  8 12  1  0
 12 15  1  0
  8  9  1  0
  8 10  1  0
  8 11  1  0
 12 13  1  0
 12 14  1  0
 15 16  1  0
 15 17  1  0
 15 18  1  0
M  CHG  1   6  -1
M  END
>  <PDB_ID>  (1476) 
pdb3leh

>  <RESIDUE_NAME>  (1476) 
GLU   LYS

>  <FRAG_NAME>  (1476) 
ACET   PRPA

>  <FRAG_ATOM_NUM>  (1476) 
fragi: 7  fragj: 11

>  <atom.prop.CHAIN_ID>  (1476) 
A A A A A A A Z Z Z Z Z Z Z Z Z Z Z

>  <atom.prop.IS_HEAVY_ATOM>  (1476) 
1 0 0 0 1 1 1 1 0 0 0 1 0 0 1 0 0 0

>  <DIFUSE_FUNC_ATOM>  (1476) 
atom 6   atom 7   

>  <FINAL_SINGLE_POINT_ENERGY>  (1476) 
0

>  <NONCOV_INTER_ENERGY_QM>  (1476) 
0

>  <FF_Energy>  (1476) 
32.54

>  <QM_Energy>  (1476) 
5.77

>  <source>  (1476) 
ACET_PRPA_16

>  <Index>  (1476) 
15245

$$$$
ACET-pdb3la4-A-GLU-264:PRPA-pdb3la4-A-ILE-148
     RDKit          3D

 18 16  0  0  0  0  0  0  0  0999 V2000
    0.1526    1.4836    0.0145 C   0  0  0  0  0  0  0  0  0  0  0  0
    0.6730    1.7489   -0.8031 H   0  0  0  0  0  0  0  0  0  0  0  0
    0.6849    1.7316    0.8292 H   0  0  0  0  0  0  0  0  0  0  0  0
   -0.7579    2.0826    0.0261 H   0  0  0  0  0  0  0  0  0  0  0  0
    0.0000    0.0000    0.0000 C   0  0  0  0  0  0  0  0  0  0  0  0
   -1.0901   -0.5642    0.0000 O   0  0  0  0  0  1  0  0  0  0  0  0
    1.0901   -0.5977   -0.0000 O   0  0  0  0  0  0  0  0  0  0  0  0
    4.3174    3.4864    0.2992 C   0  0  0  0  0  0  0  0  0  0  0  0
    4.8308    2.8551   -0.2634 H   0  0  0  0  0  0  0  0  0  0  0  0
    5.0166    4.2236    0.6938 H   0  0  0  0  0  0  0  0  0  0  0  0
    3.8308    2.9386    1.1061 H   0  0  0  0  0  0  0  0  0  0  0  0
    3.2861    4.1874   -0.5820 C   0  0  0  0  0  0  0  0  0  0  0  0
    2.8376    4.8995   -0.0448 H   0  0  0  0  0  0  0  0  0  0  0  0
    3.7646    4.6178   -1.3462 H   0  0  0  0  0  0  0  0  0  0  0  0
    2.2208    3.2564   -1.1434 C   0  0  0  0  0  0  0  0  0  0  0  0
    1.7275    2.8303   -0.3877 H   0  0  0  0  0  0  0  0  0  0  0  0
    1.5883    3.7851   -1.7048 H   0  0  0  0  0  0  0  0  0  0  0  0
    2.6606    2.5538   -1.6991 H   0  0  0  0  0  0  0  0  0  0  0  0
  1  5  1  0
  5  6  1  0
  5  7  2  0
  1  2  1  0
  1  3  1  0
  1  4  1  0
  8 12  1  0
 12 15  1  0
  8  9  1  0
  8 10  1  0
  8 11  1  0
 12 13  1  0
 12 14  1  0
 15 16  1  0
 15 17  1  0
 15 18  1  0
M  CHG  1   6  -1
M  END
>  <PDB_ID>  (1477) 
pdb3la4

>  <RESIDUE_NAME>  (1477) 
GLU   ILE

>  <FRAG_NAME>  (1477) 
ACET   PRPA

>  <FRAG_ATOM_NUM>  (1477) 
fragi: 7  fragj: 11

>  <atom.prop.CHAIN_ID>  (1477) 
A A A A A A A Z Z Z Z Z Z Z Z Z Z Z

>  <atom.prop.IS_HEAVY_ATOM>  (1477) 
1 0 0 0 1 1 1 1 0 0 0 1 0 0 1 0 0 0

>  <DIFUSE_FUNC_ATOM>  (1477) 
atom 6   atom 7   

>  <FINAL_SINGLE_POINT_ENERGY>  (1477) 
0

>  <NONCOV_INTER_ENERGY_QM>  (1477) 
0

>  <FF_Energy>  (1477) 
34.15

>  <QM_Energy>  (1477) 
8.35

>  <source>  (1477) 
ACET_PRPA_16

>  <Index>  (1477) 
16694

$$$$
ACET-pdb3lfm-A-GLU-137:PRPA-pdb3lfm-A-PRO-119
     RDKit          3D

 18 16  0  0  0  0  0  0  0  0999 V2000
   -0.0032    1.5247    0.0236 C   0  0  0  0  0  0  0  0  0  0  0  0
    0.9154    1.8279   -0.1603 H   0  0  0  0  0  0  0  0  0  0  0  0
   -0.3136    1.8079    0.9143 H   0  0  0  0  0  0  0  0  0  0  0  0
   -0.6593    1.9765   -0.7205 H   0  0  0  0  0  0  0  0  0  0  0  0
    0.0000    0.0000    0.0000 C   0  0  0  0  0  0  0  0  0  0  0  0
   -1.1021   -0.5994   -0.0000 O   0  0  0  0  0  1  0  0  0  0  0  0
    1.1021   -0.5989   -0.0000 O   0  0  0  0  0  0  0  0  0  0  0  0
    4.1766    2.0511   -0.4474 C   0  0  0  0  0  0  0  0  0  0  0  0
    3.9081    1.1887   -0.8688 H   0  0  0  0  0  0  0  0  0  0  0  0
    4.4207    1.9033    0.5066 H   0  0  0  0  0  0  0  0  0  0  0  0
    5.0026    2.5073   -0.9931 H   0  0  0  0  0  0  0  0  0  0  0  0
    3.1114    3.0709   -0.5810 C   0  0  0  0  0  0  0  0  0  0  0  0
    2.2214    2.6951   -0.3619 H   0  0  0  0  0  0  0  0  0  0  0  0
    3.3061    3.8707   -0.0300 H   0  0  0  0  0  0  0  0  0  0  0  0
    3.1943    3.4116   -2.0608 C   0  0  0  0  0  0  0  0  0  0  0  0
    2.7397    2.7229   -2.6128 H   0  0  0  0  0  0  0  0  0  0  0  0
    2.8129    4.3116   -2.2435 H   0  0  0  0  0  0  0  0  0  0  0  0
    4.2701    3.4025   -2.2360 H   0  0  0  0  0  0  0  0  0  0  0  0
  1  5  1  0
  5  6  1  0
  5  7  2  0
  1  2  1  0
  1  3  1  0
  1  4  1  0
  8 12  1  0
 12 15  1  0
  8  9  1  0
  8 10  1  0
  8 11  1  0
 12 13  1  0
 12 14  1  0
 15 16  1  0
 15 17  1  0
 15 18  1  0
M  CHG  1   6  -1
M  END
>  <PDB_ID>  (1478) 
pdb3lfm

>  <RESIDUE_NAME>  (1478) 
GLU   PRO

>  <FRAG_NAME>  (1478) 
ACET   PRPA

>  <FRAG_ATOM_NUM>  (1478) 
fragi: 7  fragj: 11

>  <atom.prop.CHAIN_ID>  (1478) 
A A A A A A A Z Z Z Z Z Z Z Z Z Z Z

>  <atom.prop.IS_HEAVY_ATOM>  (1478) 
1 0 0 0 1 1 1 1 0 0 0 1 0 0 1 0 0 0

>  <DIFUSE_FUNC_ATOM>  (1478) 
atom 6   atom 7   

>  <FINAL_SINGLE_POINT_ENERGY>  (1478) 
0

>  <NONCOV_INTER_ENERGY_QM>  (1478) 
0

>  <FF_Energy>  (1478) 
15.75

>  <QM_Energy>  (1478) 
0.47

>  <source>  (1478) 
ACET_PRPA_16

>  <Index>  (1478) 
17197

$$$$
ACET-pdb3ldk-A-ASP-207:PRPA-pdb3ldk-A-VAL-210
     RDKit          3D

 18 16  0  0  0  0  0  0  0  0999 V2000
   -0.0021    1.5173   -0.0007 C   0  0  0  0  0  0  0  0  0  0  0  0
    0.9185    1.8387    0.1899 H   0  0  0  0  0  0  0  0  0  0  0  0
   -0.6322    1.8374    0.6969 H   0  0  0  0  0  0  0  0  0  0  0  0
   -0.3142    1.9402   -0.9557 H   0  0  0  0  0  0  0  0  0  0  0  0
    0.0000    0.0000    0.0000 C   0  0  0  0  0  0  0  0  0  0  0  0
   -1.0998   -0.5932    0.0000 O   0  0  0  0  0  1  0  0  0  0  0  0
    1.0998   -0.5997   -0.0000 O   0  0  0  0  0  0  0  0  0  0  0  0
    3.7552    2.9375    0.9273 C   0  0  0  0  0  0  0  0  0  0  0  0
    4.4539    2.9111    1.6449 H   0  0  0  0  0  0  0  0  0  0  0  0
    2.9532    3.5980    1.2569 H   0  0  0  0  0  0  0  0  0  0  0  0
    4.2149    3.3385    0.0240 H   0  0  0  0  0  0  0  0  0  0  0  0
    3.2269    1.5137    0.6375 C   0  0  0  0  0  0  0  0  0  0  0  0
    2.5041    1.5944   -0.0395 H   0  0  0  0  0  0  0  0  0  0  0  0
    4.0136    0.9015    0.1967 H   0  0  0  0  0  0  0  0  0  0  0  0
    2.7230    0.8812    1.9267 C   0  0  0  0  0  0  0  0  0  0  0  0
    1.8507    0.4250    1.7516 H   0  0  0  0  0  0  0  0  0  0  0  0
    3.3926    0.2134    2.2505 H   0  0  0  0  0  0  0  0  0  0  0  0
    2.5967    1.5934    2.6168 H   0  0  0  0  0  0  0  0  0  0  0  0
  1  5  1  0
  5  6  1  0
  5  7  2  0
  1  2  1  0
  1  3  1  0
  1  4  1  0
  8 12  1  0
 12 15  1  0
  8  9  1  0
  8 10  1  0
  8 11  1  0
 12 13  1  0
 12 14  1  0
 15 16  1  0
 15 17  1  0
 15 18  1  0
M  CHG  1   6  -1
M  END
>  <PDB_ID>  (1479) 
pdb3ldk

>  <RESIDUE_NAME>  (1479) 
ASP   VAL

>  <FRAG_NAME>  (1479) 
ACET   PRPA

>  <FRAG_ATOM_NUM>  (1479) 
fragi: 7  fragj: 11

>  <atom.prop.CHAIN_ID>  (1479) 
A A A A A A A Z Z Z Z Z Z Z Z Z Z Z

>  <atom.prop.IS_HEAVY_ATOM>  (1479) 
1 0 0 0 1 1 1 1 0 0 0 1 0 0 1 0 0 0

>  <DIFUSE_FUNC_ATOM>  (1479) 
atom 6   atom 7   

>  <FINAL_SINGLE_POINT_ENERGY>  (1479) 
0

>  <NONCOV_INTER_ENERGY_QM>  (1479) 
0

>  <FF_Energy>  (1479) 
18.49

>  <QM_Energy>  (1479) 
1.18

>  <source>  (1479) 
ACET_PRPA_16

>  <Index>  (1479) 
17450

$$$$
ACET-pdb4iff-B-GLU-9:PRPA-pdb4iff-A-ARG-33
     RDKit          3D

 18 16  0  0  0  0  0  0  0  0999 V2000
    0.0108    1.5123   -0.0245 C   0  0  0  0  0  0  0  0  0  0  0  0
   -0.0644    1.7962   -0.9649 H   0  0  0  0  0  0  0  0  0  0  0  0
    0.8568    1.8112    0.3822 H   0  0  0  0  0  0  0  0  0  0  0  0
   -0.8129    1.9586    0.5327 H   0  0  0  0  0  0  0  0  0  0  0  0
    0.0000    0.0000    0.0000 C   0  0  0  0  0  0  0  0  0  0  0  0
   -1.0964   -0.6004   -0.0000 O   0  0  0  0  0  1  0  0  0  0  0  0
    1.0964   -0.5968   -0.0000 O   0  0  0  0  0  0  0  0  0  0  0  0
   -2.5531   -4.4548    0.3157 C   0  0  0  0  0  0  0  0  0  0  0  0
   -1.7682   -4.2119    0.8849 H   0  0  0  0  0  0  0  0  0  0  0  0
   -2.4323   -5.3823   -0.0381 H   0  0  0  0  0  0  0  0  0  0  0  0
   -3.4453   -4.4415    0.9418 H   0  0  0  0  0  0  0  0  0  0  0  0
   -2.5664   -3.4957   -0.8923 C   0  0  0  0  0  0  0  0  0  0  0  0
   -2.9246   -3.9712   -1.6882 H   0  0  0  0  0  0  0  0  0  0  0  0
   -3.1287   -2.7038   -0.6788 H   0  0  0  0  0  0  0  0  0  0  0  0
   -1.1463   -2.9810   -1.2496 C   0  0  0  0  0  0  0  0  0  0  0  0
   -1.2068   -2.5611   -2.1340 H   0  0  0  0  0  0  0  0  0  0  0  0
   -0.8867   -2.3468   -0.5467 H   0  0  0  0  0  0  0  0  0  0  0  0
   -0.4716   -3.8368   -1.2703 H   0  0  0  0  0  0  0  0  0  0  0  0
  1  5  1  0
  5  6  1  0
  5  7  2  0
  1  2  1  0
  1  3  1  0
  1  4  1  0
  8 12  1  0
 12 15  1  0
  8  9  1  0
  8 10  1  0
  8 11  1  0
 12 13  1  0
 12 14  1  0
 15 16  1  0
 15 17  1  0
 15 18  1  0
M  CHG  1   6  -1
M  END
>  <PDB_ID>  (1480) 
pdb4iff

>  <RESIDUE_NAME>  (1480) 
GLU   ARG

>  <FRAG_NAME>  (1480) 
ACET   PRPA

>  <FRAG_ATOM_NUM>  (1480) 
fragi: 7  fragj: 11

>  <atom.prop.CHAIN_ID>  (1480) 
A A A A A A A Z Z Z Z Z Z Z Z Z Z Z

>  <atom.prop.IS_HEAVY_ATOM>  (1480) 
1 0 0 0 1 1 1 1 0 0 0 1 0 0 1 0 0 0

>  <DIFUSE_FUNC_ATOM>  (1480) 
atom 6   atom 7   

>  <FINAL_SINGLE_POINT_ENERGY>  (1480) 
0

>  <NONCOV_INTER_ENERGY_QM>  (1480) 
0

>  <FF_Energy>  (1480) 
23.36

>  <QM_Energy>  (1480) 
0.6

>  <source>  (1480) 
ACET_PRPA_16

>  <Index>  (1480) 
17626

$$$$
ACET-pdb3ler-A-GLU-146:PRPA-pdb3ler-A-PRO-140
     RDKit          3D

 18 16  0  0  0  0  0  0  0  0999 V2000
   -0.0248    1.5283    0.0298 C   0  0  0  0  0  0  0  0  0  0  0  0
    0.4274    1.8495   -0.7738 H   0  0  0  0  0  0  0  0  0  0  0  0
    0.4042    1.8168    0.8581 H   0  0  0  0  0  0  0  0  0  0  0  0
   -1.0401    1.9248    0.0226 H   0  0  0  0  0  0  0  0  0  0  0  0
    0.0000    0.0000    0.0000 C   0  0  0  0  0  0  0  0  0  0  0  0
   -1.0939   -0.5852    0.0000 O   0  0  0  0  0  1  0  0  0  0  0  0
    1.0939   -0.6221   -0.0000 O   0  0  0  0  0  0  0  0  0  0  0  0
   -5.5008   -1.8012    0.5128 C   0  0  0  0  0  0  0  0  0  0  0  0
   -5.6845   -0.9576    1.0341 H   0  0  0  0  0  0  0  0  0  0  0  0
   -5.0990   -2.5787    1.1625 H   0  0  0  0  0  0  0  0  0  0  0  0
   -6.4003   -2.1458    0.0025 H   0  0  0  0  0  0  0  0  0  0  0  0
   -4.3859   -1.5846   -0.5141 C   0  0  0  0  0  0  0  0  0  0  0  0
   -4.6342   -2.0294   -1.3905 H   0  0  0  0  0  0  0  0  0  0  0  0
   -4.2759   -0.5948   -0.6994 H   0  0  0  0  0  0  0  0  0  0  0  0
   -3.1920   -2.1650    0.0709 C   0  0  0  0  0  0  0  0  0  0  0  0
   -2.6003   -2.5906   -0.6631 H   0  0  0  0  0  0  0  0  0  0  0  0
   -2.5961   -1.4264    0.4815 H   0  0  0  0  0  0  0  0  0  0  0  0
   -3.4668   -2.9041    0.8234 H   0  0  0  0  0  0  0  0  0  0  0  0
  1  5  1  0
  5  6  1  0
  5  7  2  0
  1  2  1  0
  1  3  1  0
  1  4  1  0
  8 12  1  0
 12 15  1  0
  8  9  1  0
  8 10  1  0
  8 11  1  0
 12 13  1  0
 12 14  1  0
 15 16  1  0
 15 17  1  0
 15 18  1  0
M  CHG  1   6  -1
M  END
>  <PDB_ID>  (1481) 
pdb3ler

>  <RESIDUE_NAME>  (1481) 
GLU   PRO

>  <FRAG_NAME>  (1481) 
ACET   PRPA

>  <FRAG_ATOM_NUM>  (1481) 
fragi: 7  fragj: 11

>  <atom.prop.CHAIN_ID>  (1481) 
A A A A A A A Z Z Z Z Z Z Z Z Z Z Z

>  <atom.prop.IS_HEAVY_ATOM>  (1481) 
1 0 0 0 1 1 1 1 0 0 0 1 0 0 1 0 0 0

>  <DIFUSE_FUNC_ATOM>  (1481) 
atom 6   atom 7   

>  <FINAL_SINGLE_POINT_ENERGY>  (1481) 
0

>  <NONCOV_INTER_ENERGY_QM>  (1481) 
0

>  <FF_Energy>  (1481) 
32.55

>  <QM_Energy>  (1481) 
2.17

>  <source>  (1481) 
ACET_PRPA_16

>  <Index>  (1481) 
19400

$$$$
ACET-pdb3ler-A-GLU-146:PRPA-pdb3ler-A-PRO-140
     RDKit          3D

 18 16  0  0  0  0  0  0  0  0999 V2000
   -0.0248    1.5283    0.0298 C   0  0  0  0  0  0  0  0  0  0  0  0
    0.4274    1.8495   -0.7738 H   0  0  0  0  0  0  0  0  0  0  0  0
    0.4042    1.8168    0.8581 H   0  0  0  0  0  0  0  0  0  0  0  0
   -1.0401    1.9248    0.0226 H   0  0  0  0  0  0  0  0  0  0  0  0
    0.0000    0.0000    0.0000 C   0  0  0  0  0  0  0  0  0  0  0  0
   -1.0939   -0.5852    0.0000 O   0  0  0  0  0  1  0  0  0  0  0  0
    1.0939   -0.6221   -0.0000 O   0  0  0  0  0  0  0  0  0  0  0  0
   -4.3859   -1.5846   -0.5141 C   0  0  0  0  0  0  0  0  0  0  0  0
   -4.6342   -2.0294   -1.3905 H   0  0  0  0  0  0  0  0  0  0  0  0
   -4.2759   -0.5948   -0.6994 H   0  0  0  0  0  0  0  0  0  0  0  0
   -5.1796   -1.7388    0.2169 H   0  0  0  0  0  0  0  0  0  0  0  0
   -3.1920   -2.1650    0.0709 C   0  0  0  0  0  0  0  0  0  0  0  0
   -2.6003   -2.5906   -0.6631 H   0  0  0  0  0  0  0  0  0  0  0  0
   -2.5961   -1.4264    0.4815 H   0  0  0  0  0  0  0  0  0  0  0  0
   -3.5606   -3.1564    1.0803 C   0  0  0  0  0  0  0  0  0  0  0  0
   -3.4867   -4.1010    0.7381 H   0  0  0  0  0  0  0  0  0  0  0  0
   -3.0034   -3.0805    1.9175 H   0  0  0  0  0  0  0  0  0  0  0  0
   -4.6014   -2.9222    1.3037 H   0  0  0  0  0  0  0  0  0  0  0  0
  1  5  1  0
  5  6  1  0
  5  7  2  0
  1  2  1  0
  1  3  1  0
  1  4  1  0
  8 12  1  0
 12 15  1  0
  8  9  1  0
  8 10  1  0
  8 11  1  0
 12 13  1  0
 12 14  1  0
 15 16  1  0
 15 17  1  0
 15 18  1  0
M  CHG  1   6  -1
M  END
>  <PDB_ID>  (1482) 
pdb3ler

>  <RESIDUE_NAME>  (1482) 
GLU   PRO

>  <FRAG_NAME>  (1482) 
ACET   PRPA

>  <FRAG_ATOM_NUM>  (1482) 
fragi: 7  fragj: 11

>  <atom.prop.CHAIN_ID>  (1482) 
A A A A A A A Z Z Z Z Z Z Z Z Z Z Z

>  <atom.prop.IS_HEAVY_ATOM>  (1482) 
1 0 0 0 1 1 1 1 0 0 0 1 0 0 1 0 0 0

>  <DIFUSE_FUNC_ATOM>  (1482) 
atom 6   atom 7   

>  <FINAL_SINGLE_POINT_ENERGY>  (1482) 
0

>  <NONCOV_INTER_ENERGY_QM>  (1482) 
0

>  <FF_Energy>  (1482) 
36.74

>  <QM_Energy>  (1482) 
2.22

>  <source>  (1482) 
ACET_PRPA_16

>  <Index>  (1482) 
19401

$$$$
ACET-pdb3lk7-A-GLU-104:PRPA-pdb3lk7-A-LYS-177
     RDKit          3D

 18 16  0  0  0  0  0  0  0  0999 V2000
    0.0244    1.5304   -0.0320 C   0  0  0  0  0  0  0  0  0  0  0  0
    0.4466    1.8022   -0.8823 H   0  0  0  0  0  0  0  0  0  0  0  0
    0.5512    1.8346    0.7468 H   0  0  0  0  0  0  0  0  0  0  0  0
   -0.9556    2.0048    0.0208 H   0  0  0  0  0  0  0  0  0  0  0  0
    0.0000    0.0000    0.0000 C   0  0  0  0  0  0  0  0  0  0  0  0
   -1.0990   -0.6211   -0.0000 O   0  0  0  0  0  1  0  0  0  0  0  0
    1.0990   -0.6110    0.0000 O   0  0  0  0  0  0  0  0  0  0  0  0
    0.1723   -2.7920   -2.8619 C   0  0  0  0  0  0  0  0  0  0  0  0
   -0.0857   -3.2993   -3.6786 H   0  0  0  0  0  0  0  0  0  0  0  0
   -0.6290   -2.0944   -2.6184 H   0  0  0  0  0  0  0  0  0  0  0  0
    0.2839   -3.4846   -2.0277 H   0  0  0  0  0  0  0  0  0  0  0  0
    1.4831   -2.0455   -3.1548 C   0  0  0  0  0  0  0  0  0  0  0  0
    1.9251   -2.4905   -3.9312 H   0  0  0  0  0  0  0  0  0  0  0  0
    1.2544   -1.1026   -3.3928 H   0  0  0  0  0  0  0  0  0  0  0  0
    2.4645   -2.0239   -1.9915 C   0  0  0  0  0  0  0  0  0  0  0  0
    2.0318   -1.5763   -1.2083 H   0  0  0  0  0  0  0  0  0  0  0  0
    2.7029   -2.9637   -1.7474 H   0  0  0  0  0  0  0  0  0  0  0  0
    3.3758   -1.4834   -2.2474 H   0  0  0  0  0  0  0  0  0  0  0  0
  1  5  1  0
  5  6  1  0
  5  7  2  0
  1  2  1  0
  1  3  1  0
  1  4  1  0
  8 12  1  0
 12 15  1  0
  8  9  1  0
  8 10  1  0
  8 11  1  0
 12 13  1  0
 12 14  1  0
 15 16  1  0
 15 17  1  0
 15 18  1  0
M  CHG  1   6  -1
M  END
>  <PDB_ID>  (1483) 
pdb3lk7

>  <RESIDUE_NAME>  (1483) 
GLU   LYS

>  <FRAG_NAME>  (1483) 
ACET   PRPA

>  <FRAG_ATOM_NUM>  (1483) 
fragi: 7  fragj: 11

>  <atom.prop.CHAIN_ID>  (1483) 
A A A A A A A Z Z Z Z Z Z Z Z Z Z Z

>  <atom.prop.IS_HEAVY_ATOM>  (1483) 
1 0 0 0 1 1 1 1 0 0 0 1 0 0 1 0 0 0

>  <DIFUSE_FUNC_ATOM>  (1483) 
atom 6   atom 7   

>  <FINAL_SINGLE_POINT_ENERGY>  (1483) 
0

>  <NONCOV_INTER_ENERGY_QM>  (1483) 
0

>  <FF_Energy>  (1483) 
26.14

>  <QM_Energy>  (1483) 
-0.99

>  <source>  (1483) 
ACET_PRPA_16

>  <Index>  (1483) 
20214

$$$$
ACET-pdb3lk7-A-GLU-104:PRPA-pdb3lk7-A-LYS-177
     RDKit          3D

 18 16  0  0  0  0  0  0  0  0999 V2000
    0.0244    1.5304   -0.0320 C   0  0  0  0  0  0  0  0  0  0  0  0
    0.4466    1.8022   -0.8823 H   0  0  0  0  0  0  0  0  0  0  0  0
    0.5512    1.8346    0.7468 H   0  0  0  0  0  0  0  0  0  0  0  0
   -0.9556    2.0048    0.0208 H   0  0  0  0  0  0  0  0  0  0  0  0
    0.0000    0.0000    0.0000 C   0  0  0  0  0  0  0  0  0  0  0  0
   -1.0990   -0.6211   -0.0000 O   0  0  0  0  0  1  0  0  0  0  0  0
    1.0990   -0.6110    0.0000 O   0  0  0  0  0  0  0  0  0  0  0  0
    1.4831   -2.0455   -3.1548 C   0  0  0  0  0  0  0  0  0  0  0  0
    1.9251   -2.4905   -3.9312 H   0  0  0  0  0  0  0  0  0  0  0  0
    1.2544   -1.1026   -3.3928 H   0  0  0  0  0  0  0  0  0  0  0  0
    0.5533   -2.5751   -2.9471 H   0  0  0  0  0  0  0  0  0  0  0  0
    2.4645   -2.0239   -1.9915 C   0  0  0  0  0  0  0  0  0  0  0  0
    2.0318   -1.5763   -1.2083 H   0  0  0  0  0  0  0  0  0  0  0  0
    2.7029   -2.9637   -1.7474 H   0  0  0  0  0  0  0  0  0  0  0  0
    3.7351   -1.2702   -2.3484 C   0  0  0  0  0  0  0  0  0  0  0  0
    4.1637   -1.7186   -3.1335 H   0  0  0  0  0  0  0  0  0  0  0  0
    3.4931   -0.3307   -2.5937 H   0  0  0  0  0  0  0  0  0  0  0  0
    4.4509   -1.2438   -1.5267 H   0  0  0  0  0  0  0  0  0  0  0  0
  1  5  1  0
  5  6  1  0
  5  7  2  0
  1  2  1  0
  1  3  1  0
  1  4  1  0
  8 12  1  0
 12 15  1  0
  8  9  1  0
  8 10  1  0
  8 11  1  0
 12 13  1  0
 12 14  1  0
 15 16  1  0
 15 17  1  0
 15 18  1  0
M  CHG  1   6  -1
M  END
>  <PDB_ID>  (1484) 
pdb3lk7

>  <RESIDUE_NAME>  (1484) 
GLU   LYS

>  <FRAG_NAME>  (1484) 
ACET   PRPA

>  <FRAG_ATOM_NUM>  (1484) 
fragi: 7  fragj: 11

>  <atom.prop.CHAIN_ID>  (1484) 
A A A A A A A Z Z Z Z Z Z Z Z Z Z Z

>  <atom.prop.IS_HEAVY_ATOM>  (1484) 
1 0 0 0 1 1 1 1 0 0 0 1 0 0 1 0 0 0

>  <DIFUSE_FUNC_ATOM>  (1484) 
atom 6   atom 7   

>  <FINAL_SINGLE_POINT_ENERGY>  (1484) 
0

>  <NONCOV_INTER_ENERGY_QM>  (1484) 
0

>  <FF_Energy>  (1484) 
30.39

>  <QM_Energy>  (1484) 
-0.65

>  <source>  (1484) 
ACET_PRPA_16

>  <Index>  (1484) 
20230

$$$$
ACET-pdb3lk7-A-GLU-104:PRPA-pdb3lk7-A-LYS-177
     RDKit          3D

 18 16  0  0  0  0  0  0  0  0999 V2000
    0.0244    1.5304   -0.0320 C   0  0  0  0  0  0  0  0  0  0  0  0
    0.4466    1.8022   -0.8823 H   0  0  0  0  0  0  0  0  0  0  0  0
    0.5512    1.8346    0.7468 H   0  0  0  0  0  0  0  0  0  0  0  0
   -0.9556    2.0048    0.0208 H   0  0  0  0  0  0  0  0  0  0  0  0
    0.0000    0.0000    0.0000 C   0  0  0  0  0  0  0  0  0  0  0  0
   -1.0990   -0.6211   -0.0000 O   0  0  0  0  0  1  0  0  0  0  0  0
    1.0990   -0.6110    0.0000 O   0  0  0  0  0  0  0  0  0  0  0  0
    2.4645   -2.0239   -1.9915 C   0  0  0  0  0  0  0  0  0  0  0  0
    2.0318   -1.5763   -1.2083 H   0  0  0  0  0  0  0  0  0  0  0  0
    2.7029   -2.9637   -1.7474 H   0  0  0  0  0  0  0  0  0  0  0  0
    1.7617   -2.0394   -2.8246 H   0  0  0  0  0  0  0  0  0  0  0  0
    3.7351   -1.2702   -2.3484 C   0  0  0  0  0  0  0  0  0  0  0  0
    4.1637   -1.7186   -3.1335 H   0  0  0  0  0  0  0  0  0  0  0  0
    3.4931   -0.3307   -2.5937 H   0  0  0  0  0  0  0  0  0  0  0  0
    4.7278   -1.2337   -1.2089 C   0  0  0  0  0  0  0  0  0  0  0  0
    4.3066   -0.7829   -0.4213 H   0  0  0  0  0  0  0  0  0  0  0  0
    4.9783   -2.1698   -0.9611 H   0  0  0  0  0  0  0  0  0  0  0  0
    5.6252   -0.6870   -1.4985 H   0  0  0  0  0  0  0  0  0  0  0  0
  1  5  1  0
  5  6  1  0
  5  7  2  0
  1  2  1  0
  1  3  1  0
  1  4  1  0
  8 12  1  0
 12 15  1  0
  8  9  1  0
  8 10  1  0
  8 11  1  0
 12 13  1  0
 12 14  1  0
 15 16  1  0
 15 17  1  0
 15 18  1  0
M  CHG  1   6  -1
M  END
>  <PDB_ID>  (1485) 
pdb3lk7

>  <RESIDUE_NAME>  (1485) 
GLU   LYS

>  <FRAG_NAME>  (1485) 
ACET   PRPA

>  <FRAG_ATOM_NUM>  (1485) 
fragi: 7  fragj: 11

>  <atom.prop.CHAIN_ID>  (1485) 
A A A A A A A Z Z Z Z Z Z Z Z Z Z Z

>  <atom.prop.IS_HEAVY_ATOM>  (1485) 
1 0 0 0 1 1 1 1 0 0 0 1 0 0 1 0 0 0

>  <DIFUSE_FUNC_ATOM>  (1485) 
atom 6   atom 7   

>  <FINAL_SINGLE_POINT_ENERGY>  (1485) 
0

>  <NONCOV_INTER_ENERGY_QM>  (1485) 
0

>  <FF_Energy>  (1485) 
26.1

>  <QM_Energy>  (1485) 
-0.57

>  <source>  (1485) 
ACET_PRPA_16

>  <Index>  (1485) 
20241

$$$$
ACET-pdb3lo0-A-GLU-154:PRPA-pdb3lo0-A-VAL-95
     RDKit          3D

 18 16  0  0  0  0  0  0  0  0999 V2000
    0.1772    1.4845    0.0131 C   0  0  0  0  0  0  0  0  0  0  0  0
    0.6961    1.7384   -0.8037 H   0  0  0  0  0  0  0  0  0  0  0  0
    0.7076    1.7215    0.8281 H   0  0  0  0  0  0  0  0  0  0  0  0
   -0.7331    2.0839    0.0248 H   0  0  0  0  0  0  0  0  0  0  0  0
    0.0000    0.0000    0.0000 C   0  0  0  0  0  0  0  0  0  0  0  0
   -1.0892   -0.5569   -0.0000 O   0  0  0  0  0  1  0  0  0  0  0  0
    1.0892   -0.6092    0.0000 O   0  0  0  0  0  0  0  0  0  0  0  0
   -2.8684    1.0732    4.1927 C   0  0  0  0  0  0  0  0  0  0  0  0
   -2.7120    0.3586    4.8847 H   0  0  0  0  0  0  0  0  0  0  0  0
   -3.5885    1.7795    4.6059 H   0  0  0  0  0  0  0  0  0  0  0  0
   -1.9158    1.5576    3.9784 H   0  0  0  0  0  0  0  0  0  0  0  0
   -3.4439    0.4277    2.9262 C   0  0  0  0  0  0  0  0  0  0  0  0
   -3.7456    1.1519    2.3152 H   0  0  0  0  0  0  0  0  0  0  0  0
   -4.2589   -0.2401    3.2051 H   0  0  0  0  0  0  0  0  0  0  0  0
   -2.3464   -0.3542    2.1600 C   0  0  0  0  0  0  0  0  0  0  0  0
   -2.7617   -1.1516    1.7316 H   0  0  0  0  0  0  0  0  0  0  0  0
   -1.9538    0.2420    1.4666 H   0  0  0  0  0  0  0  0  0  0  0  0
   -1.6449   -0.6374    2.8068 H   0  0  0  0  0  0  0  0  0  0  0  0
  1  5  1  0
  5  6  1  0
  5  7  2  0
  1  2  1  0
  1  3  1  0
  1  4  1  0
  8 12  1  0
 12 15  1  0
  8  9  1  0
  8 10  1  0
  8 11  1  0
 12 13  1  0
 12 14  1  0
 15 16  1  0
 15 17  1  0
 15 18  1  0
M  CHG  1   6  -1
M  END
>  <PDB_ID>  (1486) 
pdb3lo0

>  <RESIDUE_NAME>  (1486) 
GLU   VAL

>  <FRAG_NAME>  (1486) 
ACET   PRPA

>  <FRAG_ATOM_NUM>  (1486) 
fragi: 7  fragj: 11

>  <atom.prop.CHAIN_ID>  (1486) 
A A A A A A A Z Z Z Z Z Z Z Z Z Z Z

>  <atom.prop.IS_HEAVY_ATOM>  (1486) 
1 0 0 0 1 1 1 1 0 0 0 1 0 0 1 0 0 0

>  <DIFUSE_FUNC_ATOM>  (1486) 
atom 6   atom 7   

>  <FINAL_SINGLE_POINT_ENERGY>  (1486) 
0

>  <NONCOV_INTER_ENERGY_QM>  (1486) 
0

>  <FF_Energy>  (1486) 
25.58

>  <QM_Energy>  (1486) 
6.16

>  <source>  (1486) 
ACET_PRPA_16

>  <Index>  (1486) 
21104

$$$$
ACET-pdb3lo0-A-GLU-154:PRPA-pdb3lo0-A-VAL-95
     RDKit          3D

 18 16  0  0  0  0  0  0  0  0999 V2000
    0.1772    1.4845    0.0131 C   0  0  0  0  0  0  0  0  0  0  0  0
    0.6961    1.7384   -0.8037 H   0  0  0  0  0  0  0  0  0  0  0  0
    0.7076    1.7215    0.8281 H   0  0  0  0  0  0  0  0  0  0  0  0
   -0.7331    2.0839    0.0248 H   0  0  0  0  0  0  0  0  0  0  0  0
    0.0000    0.0000    0.0000 C   0  0  0  0  0  0  0  0  0  0  0  0
   -1.0892   -0.5569   -0.0000 O   0  0  0  0  0  1  0  0  0  0  0  0
    1.0892   -0.6092    0.0000 O   0  0  0  0  0  0  0  0  0  0  0  0
   -2.3464   -0.3542    2.1600 C   0  0  0  0  0  0  0  0  0  0  0  0
   -2.7617   -1.1516    1.7316 H   0  0  0  0  0  0  0  0  0  0  0  0
   -1.9538    0.2420    1.4666 H   0  0  0  0  0  0  0  0  0  0  0  0
   -1.6449   -0.6374    2.8068 H   0  0  0  0  0  0  0  0  0  0  0  0
   -3.4439    0.4277    2.9262 C   0  0  0  0  0  0  0  0  0  0  0  0
   -3.7456    1.1519    2.3152 H   0  0  0  0  0  0  0  0  0  0  0  0
   -3.0349    0.8864    3.8264 H   0  0  0  0  0  0  0  0  0  0  0  0
   -4.5739   -0.4982    3.3129 C   0  0  0  0  0  0  0  0  0  0  0  0
   -4.4780   -0.7621    4.2742 H   0  0  0  0  0  0  0  0  0  0  0  0
   -5.4503   -0.0309    3.1824 H   0  0  0  0  0  0  0  0  0  0  0  0
   -4.5463   -1.3190    2.7391 H   0  0  0  0  0  0  0  0  0  0  0  0
  1  5  1  0
  5  6  1  0
  5  7  2  0
  1  2  1  0
  1  3  1  0
  1  4  1  0
  8 12  1  0
 12 15  1  0
  8  9  1  0
  8 10  1  0
  8 11  1  0
 12 13  1  0
 12 14  1  0
 15 16  1  0
 15 17  1  0
 15 18  1  0
M  CHG  1   6  -1
M  END
>  <PDB_ID>  (1487) 
pdb3lo0

>  <RESIDUE_NAME>  (1487) 
GLU   VAL

>  <FRAG_NAME>  (1487) 
ACET   PRPA

>  <FRAG_ATOM_NUM>  (1487) 
fragi: 7  fragj: 11

>  <atom.prop.CHAIN_ID>  (1487) 
A A A A A A A Z Z Z Z Z Z Z Z Z Z Z

>  <atom.prop.IS_HEAVY_ATOM>  (1487) 
1 0 0 0 1 1 1 1 0 0 0 1 0 0 1 0 0 0

>  <DIFUSE_FUNC_ATOM>  (1487) 
atom 6   atom 7   

>  <FINAL_SINGLE_POINT_ENERGY>  (1487) 
0

>  <NONCOV_INTER_ENERGY_QM>  (1487) 
0

>  <FF_Energy>  (1487) 
25.58

>  <QM_Energy>  (1487) 
6.54

>  <source>  (1487) 
ACET_PRPA_16

>  <Index>  (1487) 
21118

$$$$
ACET-pdb3lw7-A-GLU-65:PRPA-pdb3lw7-A-LYS-61
     RDKit          3D

 18 16  0  0  0  0  0  0  0  0999 V2000
    0.1888    1.4876    0.0140 C   0  0  0  0  0  0  0  0  0  0  0  0
    0.7054    1.7357   -0.8034 H   0  0  0  0  0  0  0  0  0  0  0  0
    0.7166    1.7196    0.8286 H   0  0  0  0  0  0  0  0  0  0  0  0
   -0.7223    2.0858    0.0254 H   0  0  0  0  0  0  0  0  0  0  0  0
    0.0000    0.0000    0.0000 C   0  0  0  0  0  0  0  0  0  0  0  0
   -1.0886   -0.5529   -0.0000 O   0  0  0  0  0  1  0  0  0  0  0  0
    1.0886   -0.6129    0.0000 O   0  0  0  0  0  0  0  0  0  0  0  0
    3.0142   -0.5220    2.7920 C   0  0  0  0  0  0  0  0  0  0  0  0
    2.1011   -0.2498    2.4708 H   0  0  0  0  0  0  0  0  0  0  0  0
    3.7038    0.0078    2.2872 H   0  0  0  0  0  0  0  0  0  0  0  0
    3.0966   -0.2822    3.8520 H   0  0  0  0  0  0  0  0  0  0  0  0
    3.2178   -2.0018    2.4989 C   0  0  0  0  0  0  0  0  0  0  0  0
    4.1715   -2.2264    2.6238 H   0  0  0  0  0  0  0  0  0  0  0  0
    2.6392   -2.5319    3.0988 H   0  0  0  0  0  0  0  0  0  0  0  0
    2.8306   -2.3031    1.0565 C   0  0  0  0  0  0  0  0  0  0  0  0
    1.8724   -2.0236    0.9117 H   0  0  0  0  0  0  0  0  0  0  0  0
    3.4117   -1.7533    0.4411 H   0  0  0  0  0  0  0  0  0  0  0  0
    2.9348   -3.3553    0.7920 H   0  0  0  0  0  0  0  0  0  0  0  0
  1  5  1  0
  5  6  1  0
  5  7  2  0
  1  2  1  0
  1  3  1  0
  1  4  1  0
  8 12  1  0
 12 15  1  0
  8  9  1  0
  8 10  1  0
  8 11  1  0
 12 13  1  0
 12 14  1  0
 15 16  1  0
 15 17  1  0
 15 18  1  0
M  CHG  1   6  -1
M  END
>  <PDB_ID>  (1488) 
pdb3lw7

>  <RESIDUE_NAME>  (1488) 
GLU   LYS

>  <FRAG_NAME>  (1488) 
ACET   PRPA

>  <FRAG_ATOM_NUM>  (1488) 
fragi: 7  fragj: 11

>  <atom.prop.CHAIN_ID>  (1488) 
A A A A A A A Z Z Z Z Z Z Z Z Z Z Z

>  <atom.prop.IS_HEAVY_ATOM>  (1488) 
1 0 0 0 1 1 1 1 0 0 0 1 0 0 1 0 0 0

>  <DIFUSE_FUNC_ATOM>  (1488) 
atom 6   atom 7   

>  <FINAL_SINGLE_POINT_ENERGY>  (1488) 
0

>  <NONCOV_INTER_ENERGY_QM>  (1488) 
0

>  <FF_Energy>  (1488) 
21.74

>  <QM_Energy>  (1488) 
0.89

>  <source>  (1488) 
ACET_PRPA_16

>  <Index>  (1488) 
25360

$$$$
ACET-pdb4ixj-A-GLU-54:PRPA-pdb4ixj-A-LYS-57
     RDKit          3D

 18 16  0  0  0  0  0  0  0  0999 V2000
    0.0054    1.5149   -0.0039 C   0  0  0  0  0  0  0  0  0  0  0  0
    0.6878    1.8113    0.6384 H   0  0  0  0  0  0  0  0  0  0  0  0
   -0.8966    1.8151    0.2461 H   0  0  0  0  0  0  0  0  0  0  0  0
    0.2499    1.9323   -0.9807 H   0  0  0  0  0  0  0  0  0  0  0  0
    0.0000    0.0000    0.0000 C   0  0  0  0  0  0  0  0  0  0  0  0
   -1.1015   -0.5970   -0.0000 O   0  0  0  0  0  1  0  0  0  0  0  0
    1.1015   -0.5941    0.0000 O   0  0  0  0  0  0  0  0  0  0  0  0
   -3.8873    2.5216    1.7293 C   0  0  0  0  0  0  0  0  0  0  0  0
   -4.1396    2.2189    2.6438 H   0  0  0  0  0  0  0  0  0  0  0  0
   -4.0656    1.7080    1.0262 H   0  0  0  0  0  0  0  0  0  0  0  0
   -4.5237    3.3587    1.4426 H   0  0  0  0  0  0  0  0  0  0  0  0
   -2.4207    2.9401    1.7156 C   0  0  0  0  0  0  0  0  0  0  0  0
   -1.9499    2.4555    2.4638 H   0  0  0  0  0  0  0  0  0  0  0  0
   -2.0172    2.6374    0.8428 H   0  0  0  0  0  0  0  0  0  0  0  0
   -2.1462    4.4273    1.8708 C   0  0  0  0  0  0  0  0  0  0  0  0
   -2.8025    4.9395    1.3311 H   0  0  0  0  0  0  0  0  0  0  0  0
   -2.2090    4.6744    2.8288 H   0  0  0  0  0  0  0  0  0  0  0  0
   -1.1420    4.6544    1.5127 H   0  0  0  0  0  0  0  0  0  0  0  0
  1  5  1  0
  5  6  1  0
  5  7  2  0
  1  2  1  0
  1  3  1  0
  1  4  1  0
  8 12  1  0
 12 15  1  0
  8  9  1  0
  8 10  1  0
  8 11  1  0
 12 13  1  0
 12 14  1  0
 15 16  1  0
 15 17  1  0
 15 18  1  0
M  CHG  1   6  -1
M  END
>  <PDB_ID>  (1489) 
pdb4ixj

>  <RESIDUE_NAME>  (1489) 
GLU   LYS

>  <FRAG_NAME>  (1489) 
ACET   PRPA

>  <FRAG_ATOM_NUM>  (1489) 
fragi: 7  fragj: 11

>  <atom.prop.CHAIN_ID>  (1489) 
A A A A A A A Z Z Z Z Z Z Z Z Z Z Z

>  <atom.prop.IS_HEAVY_ATOM>  (1489) 
1 0 0 0 1 1 1 1 0 0 0 1 0 0 1 0 0 0

>  <DIFUSE_FUNC_ATOM>  (1489) 
atom 6   atom 7   

>  <FINAL_SINGLE_POINT_ENERGY>  (1489) 
0

>  <NONCOV_INTER_ENERGY_QM>  (1489) 
0

>  <FF_Energy>  (1489) 
27.9

>  <QM_Energy>  (1489) 
3.02

>  <source>  (1489) 
ACET_PRPA_16

>  <Index>  (1489) 
26455

$$$$
ACET-pdb4i2n-F-GLU-79:PRPA-pdb4i2n-F-PRO-265
     RDKit          3D

 18 16  0  0  0  0  0  0  0  0999 V2000
   -0.0088    1.5085   -0.0104 C   0  0  0  0  0  0  0  0  0  0  0  0
    0.1461    1.8022   -0.9336 H   0  0  0  0  0  0  0  0  0  0  0  0
    0.6897    1.8152    0.6062 H   0  0  0  0  0  0  0  0  0  0  0  0
   -0.9655    1.9108    0.3229 H   0  0  0  0  0  0  0  0  0  0  0  0
    0.0000    0.0000    0.0000 C   0  0  0  0  0  0  0  0  0  0  0  0
   -1.0977   -0.5914    0.0000 O   0  0  0  0  0  1  0  0  0  0  0  0
    1.0977   -0.5978    0.0000 O   0  0  0  0  0  0  0  0  0  0  0  0
    4.2512    0.6826    0.1598 C   0  0  0  0  0  0  0  0  0  0  0  0
    5.2338    0.7995    0.0245 H   0  0  0  0  0  0  0  0  0  0  0  0
    3.9654    1.1630    0.9857 H   0  0  0  0  0  0  0  0  0  0  0  0
    3.6992    1.0469   -0.7067 H   0  0  0  0  0  0  0  0  0  0  0  0
    3.8752   -0.7399    0.2013 C   0  0  0  0  0  0  0  0  0  0  0  0
    4.5004   -1.2667    0.7645 H   0  0  0  0  0  0  0  0  0  0  0  0
    2.9394   -0.8600    0.5110 H   0  0  0  0  0  0  0  0  0  0  0  0
    4.0076   -1.1435   -1.2546 C   0  0  0  0  0  0  0  0  0  0  0  0
    4.9572   -1.3100   -1.4964 H   0  0  0  0  0  0  0  0  0  0  0  0
    3.4545   -1.9457   -1.4569 H   0  0  0  0  0  0  0  0  0  0  0  0
    3.6226   -0.2650   -1.7723 H   0  0  0  0  0  0  0  0  0  0  0  0
  1  5  1  0
  5  6  1  0
  5  7  2  0
  1  2  1  0
  1  3  1  0
  1  4  1  0
  8 12  1  0
 12 15  1  0
  8  9  1  0
  8 10  1  0
  8 11  1  0
 12 13  1  0
 12 14  1  0
 15 16  1  0
 15 17  1  0
 15 18  1  0
M  CHG  1   6  -1
M  END
>  <PDB_ID>  (1490) 
pdb4i2n

>  <RESIDUE_NAME>  (1490) 
GLU   PRO

>  <FRAG_NAME>  (1490) 
ACET   PRPA

>  <FRAG_ATOM_NUM>  (1490) 
fragi: 7  fragj: 11

>  <atom.prop.CHAIN_ID>  (1490) 
A A A A A A A Z Z Z Z Z Z Z Z Z Z Z

>  <atom.prop.IS_HEAVY_ATOM>  (1490) 
1 0 0 0 1 1 1 1 0 0 0 1 0 0 1 0 0 0

>  <DIFUSE_FUNC_ATOM>  (1490) 
atom 6   atom 7   

>  <FINAL_SINGLE_POINT_ENERGY>  (1490) 
0

>  <NONCOV_INTER_ENERGY_QM>  (1490) 
0

>  <FF_Energy>  (1490) 
13.87

>  <QM_Energy>  (1490) 
-2.54

>  <source>  (1490) 
ACET_PRPA_16

>  <Index>  (1490) 
26889

$$$$
ACET-pdb3lwt-X-GLU-116:PRPA-pdb3lwt-X-LYS-120
     RDKit          3D

 18 16  0  0  0  0  0  0  0  0999 V2000
    0.0091    1.5512    0.0083 C   0  0  0  0  0  0  0  0  0  0  0  0
   -0.0953    1.8398   -0.9214 H   0  0  0  0  0  0  0  0  0  0  0  0
    0.8636    1.8271    0.3999 H   0  0  0  0  0  0  0  0  0  0  0  0
   -0.8014    1.9770    0.5998 H   0  0  0  0  0  0  0  0  0  0  0  0
    0.0000    0.0000    0.0000 C   0  0  0  0  0  0  0  0  0  0  0  0
   -1.1132   -0.5943    0.0000 O   0  0  0  0  0  1  0  0  0  0  0  0
    1.1132   -0.6052   -0.0000 O   0  0  0  0  0  0  0  0  0  0  0  0
    3.8469   -0.2471    2.0160 C   0  0  0  0  0  0  0  0  0  0  0  0
    4.2425   -1.1394    1.8177 H   0  0  0  0  0  0  0  0  0  0  0  0
    2.8643   -0.2637    1.8540 H   0  0  0  0  0  0  0  0  0  0  0  0
    4.0621    0.0489    3.0427 H   0  0  0  0  0  0  0  0  0  0  0  0
    4.4683    0.7720    1.0018 C   0  0  0  0  0  0  0  0  0  0  0  0
    4.3799    1.6660    1.3852 H   0  0  0  0  0  0  0  0  0  0  0  0
    5.3953    0.5083    0.8426 H   0  0  0  0  0  0  0  0  0  0  0  0
    3.6828    0.6873   -0.2876 C   0  0  0  0  0  0  0  0  0  0  0  0
    4.1480    0.0536   -0.9160 H   0  0  0  0  0  0  0  0  0  0  0  0
    2.7642    0.3237   -0.0921 H   0  0  0  0  0  0  0  0  0  0  0  0
    3.5801    1.6557   -0.7771 H   0  0  0  0  0  0  0  0  0  0  0  0
  1  5  1  0
  5  6  1  0
  5  7  2  0
  1  2  1  0
  1  3  1  0
  1  4  1  0
  8 12  1  0
 12 15  1  0
  8  9  1  0
  8 10  1  0
  8 11  1  0
 12 13  1  0
 12 14  1  0
 15 16  1  0
 15 17  1  0
 15 18  1  0
M  CHG  1   6  -1
M  END
>  <PDB_ID>  (1491) 
pdb3lwt

>  <RESIDUE_NAME>  (1491) 
GLU   LYS

>  <FRAG_NAME>  (1491) 
ACET   PRPA

>  <FRAG_ATOM_NUM>  (1491) 
fragi: 7  fragj: 11

>  <atom.prop.CHAIN_ID>  (1491) 
A A A A A A A Z Z Z Z Z Z Z Z Z Z Z

>  <atom.prop.IS_HEAVY_ATOM>  (1491) 
1 0 0 0 1 1 1 1 0 0 0 1 0 0 1 0 0 0

>  <DIFUSE_FUNC_ATOM>  (1491) 
atom 6   atom 7   

>  <FINAL_SINGLE_POINT_ENERGY>  (1491) 
0

>  <NONCOV_INTER_ENERGY_QM>  (1491) 
0

>  <FF_Energy>  (1491) 
13.17

>  <QM_Energy>  (1491) 
-2.03

>  <source>  (1491) 
ACET_PRPA_16

>  <Index>  (1491) 
27152

$$$$
ACET-pdb4ic6-C-ASP-404:PRPA-pdb4ic6-C-LYS-429
     RDKit          3D

 18 16  0  0  0  0  0  0  0  0999 V2000
   -0.0084    1.5157   -0.0130 C   0  0  0  0  0  0  0  0  0  0  0  0
    0.8925    1.8395   -0.2741 H   0  0  0  0  0  0  0  0  0  0  0  0
   -0.2522    1.8431    0.8902 H   0  0  0  0  0  0  0  0  0  0  0  0
   -0.7293    1.9205   -0.7232 H   0  0  0  0  0  0  0  0  0  0  0  0
    0.0000    0.0000    0.0000 C   0  0  0  0  0  0  0  0  0  0  0  0
   -1.1002   -0.5969   -0.0000 O   0  0  0  0  0  1  0  0  0  0  0  0
    1.1002   -0.5956   -0.0000 O   0  0  0  0  0  0  0  0  0  0  0  0
   -2.9694   -2.2199   -2.9515 C   0  0  0  0  0  0  0  0  0  0  0  0
   -2.6010   -3.1367   -3.1142 H   0  0  0  0  0  0  0  0  0  0  0  0
   -2.4571   -1.5564   -3.5009 H   0  0  0  0  0  0  0  0  0  0  0  0
   -4.0149   -2.2001   -3.2590 H   0  0  0  0  0  0  0  0  0  0  0  0
   -2.8059   -1.8752   -1.4823 C   0  0  0  0  0  0  0  0  0  0  0  0
   -3.3711   -2.5019   -0.9417 H   0  0  0  0  0  0  0  0  0  0  0  0
   -1.8443   -1.9960   -1.2286 H   0  0  0  0  0  0  0  0  0  0  0  0
   -3.2152   -0.4583   -1.1664 C   0  0  0  0  0  0  0  0  0  0  0  0
   -2.6517    0.1737   -1.7000 H   0  0  0  0  0  0  0  0  0  0  0  0
   -4.1776   -0.3304   -1.4120 H   0  0  0  0  0  0  0  0  0  0  0  0
   -3.0857   -0.2452   -0.1053 H   0  0  0  0  0  0  0  0  0  0  0  0
  1  5  1  0
  5  6  1  0
  5  7  2  0
  1  2  1  0
  1  3  1  0
  1  4  1  0
  8 12  1  0
 12 15  1  0
  8  9  1  0
  8 10  1  0
  8 11  1  0
 12 13  1  0
 12 14  1  0
 15 16  1  0
 15 17  1  0
 15 18  1  0
M  CHG  1   6  -1
M  END
>  <PDB_ID>  (1492) 
pdb4ic6

>  <RESIDUE_NAME>  (1492) 
ASP   LYS

>  <FRAG_NAME>  (1492) 
ACET   PRPA

>  <FRAG_ATOM_NUM>  (1492) 
fragi: 7  fragj: 11

>  <atom.prop.CHAIN_ID>  (1492) 
A A A A A A A Z Z Z Z Z Z Z Z Z Z Z

>  <atom.prop.IS_HEAVY_ATOM>  (1492) 
1 0 0 0 1 1 1 1 0 0 0 1 0 0 1 0 0 0

>  <DIFUSE_FUNC_ATOM>  (1492) 
atom 6   atom 7   

>  <FINAL_SINGLE_POINT_ENERGY>  (1492) 
0

>  <NONCOV_INTER_ENERGY_QM>  (1492) 
0

>  <FF_Energy>  (1492) 
34.5

>  <QM_Energy>  (1492) 
8.02

>  <source>  (1492) 
ACET_PRPA_16

>  <Index>  (1492) 
27999

$$$$
ACET-pdb3lzl-B-ASP-134:PRPA-pdb3lzl-A-ILE-25
     RDKit          3D

 18 16  0  0  0  0  0  0  0  0999 V2000
   -0.0767    1.4694   -0.0783 C   0  0  0  0  0  0  0  0  0  0  0  0
    0.8149    1.8640    0.1281 H   0  0  0  0  0  0  0  0  0  0  0  0
   -0.7552    1.8064    0.5685 H   0  0  0  0  0  0  0  0  0  0  0  0
   -0.3677    1.8135   -1.0708 H   0  0  0  0  0  0  0  0  0  0  0  0
    0.0000    0.0000    0.0000 C   0  0  0  0  0  0  0  0  0  0  0  0
   -1.1176   -0.5812    0.0000 O   0  0  0  0  0  1  0  0  0  0  0  0
    1.1176   -0.5781    0.0000 O   0  0  0  0  0  0  0  0  0  0  0  0
   -1.5877   -1.0434    3.7013 C   0  0  0  0  0  0  0  0  0  0  0  0
   -0.8466   -0.4768    3.3526 H   0  0  0  0  0  0  0  0  0  0  0  0
   -1.4139   -1.1677    4.7702 H   0  0  0  0  0  0  0  0  0  0  0  0
   -2.5018   -0.4676    3.5558 H   0  0  0  0  0  0  0  0  0  0  0  0
   -1.6934   -2.4385    3.0423 C   0  0  0  0  0  0  0  0  0  0  0  0
   -2.4960   -2.8913    3.4104 H   0  0  0  0  0  0  0  0  0  0  0  0
   -0.8228   -3.0446    3.2931 H   0  0  0  0  0  0  0  0  0  0  0  0
   -1.8549   -2.3285    1.5721 C   0  0  0  0  0  0  0  0  0  0  0  0
   -1.9767   -3.2381    1.1616 H   0  0  0  0  0  0  0  0  0  0  0  0
   -2.6591   -1.7692    1.3463 H   0  0  0  0  0  0  0  0  0  0  0  0
   -1.0448   -1.8998    1.1589 H   0  0  0  0  0  0  0  0  0  0  0  0
  1  5  1  0
  5  6  1  0
  5  7  2  0
  1  2  1  0
  1  3  1  0
  1  4  1  0
  8 12  1  0
 12 15  1  0
  8  9  1  0
  8 10  1  0
  8 11  1  0
 12 13  1  0
 12 14  1  0
 15 16  1  0
 15 17  1  0
 15 18  1  0
M  CHG  1   6  -1
M  END
>  <PDB_ID>  (1493) 
pdb3lzl

>  <RESIDUE_NAME>  (1493) 
ASP   ILE

>  <FRAG_NAME>  (1493) 
ACET   PRPA

>  <FRAG_ATOM_NUM>  (1493) 
fragi: 7  fragj: 11

>  <atom.prop.CHAIN_ID>  (1493) 
A A A A A A A Z Z Z Z Z Z Z Z Z Z Z

>  <atom.prop.IS_HEAVY_ATOM>  (1493) 
1 0 0 0 1 1 1 1 0 0 0 1 0 0 1 0 0 0

>  <DIFUSE_FUNC_ATOM>  (1493) 
atom 6   atom 7   

>  <FINAL_SINGLE_POINT_ENERGY>  (1493) 
0

>  <NONCOV_INTER_ENERGY_QM>  (1493) 
0

>  <FF_Energy>  (1493) 
48.69

>  <QM_Energy>  (1493) 
8.53

>  <source>  (1493) 
ACET_PRPA_16

>  <Index>  (1493) 
28538

$$$$
ACET-pdb3lzl-B-ASP-134:PRPA-pdb3lzl-A-ILE-25
     RDKit          3D

 18 16  0  0  0  0  0  0  0  0999 V2000
   -0.0767    1.4694   -0.0783 C   0  0  0  0  0  0  0  0  0  0  0  0
    0.8149    1.8640    0.1281 H   0  0  0  0  0  0  0  0  0  0  0  0
   -0.7552    1.8064    0.5685 H   0  0  0  0  0  0  0  0  0  0  0  0
   -0.3677    1.8135   -1.0708 H   0  0  0  0  0  0  0  0  0  0  0  0
    0.0000    0.0000    0.0000 C   0  0  0  0  0  0  0  0  0  0  0  0
   -1.1176   -0.5812    0.0000 O   0  0  0  0  0  1  0  0  0  0  0  0
    1.1176   -0.5781    0.0000 O   0  0  0  0  0  0  0  0  0  0  0  0
   -0.4630   -3.2952    3.3968 C   0  0  0  0  0  0  0  0  0  0  0  0
   -0.5121   -3.5129    4.3693 H   0  0  0  0  0  0  0  0  0  0  0  0
   -0.5238   -4.1432    2.8735 H   0  0  0  0  0  0  0  0  0  0  0  0
    0.4835   -2.8011    3.1773 H   0  0  0  0  0  0  0  0  0  0  0  0
   -1.6934   -2.4385    3.0423 C   0  0  0  0  0  0  0  0  0  0  0  0
   -2.4960   -2.8913    3.4104 H   0  0  0  0  0  0  0  0  0  0  0  0
   -1.6189   -1.4553    3.5068 H   0  0  0  0  0  0  0  0  0  0  0  0
   -1.8549   -2.3285    1.5721 C   0  0  0  0  0  0  0  0  0  0  0  0
   -1.9767   -3.2381    1.1616 H   0  0  0  0  0  0  0  0  0  0  0  0
   -2.6591   -1.7692    1.3463 H   0  0  0  0  0  0  0  0  0  0  0  0
   -1.0448   -1.8998    1.1589 H   0  0  0  0  0  0  0  0  0  0  0  0
  1  5  1  0
  5  6  1  0
  5  7  2  0
  1  2  1  0
  1  3  1  0
  1  4  1  0
  8 12  1  0
 12 15  1  0
  8  9  1  0
  8 10  1  0
  8 11  1  0
 12 13  1  0
 12 14  1  0
 15 16  1  0
 15 17  1  0
 15 18  1  0
M  CHG  1   6  -1
M  END
>  <PDB_ID>  (1494) 
pdb3lzl

>  <RESIDUE_NAME>  (1494) 
ASP   ILE

>  <FRAG_NAME>  (1494) 
ACET   PRPA

>  <FRAG_ATOM_NUM>  (1494) 
fragi: 7  fragj: 11

>  <atom.prop.CHAIN_ID>  (1494) 
A A A A A A A Z Z Z Z Z Z Z Z Z Z Z

>  <atom.prop.IS_HEAVY_ATOM>  (1494) 
1 0 0 0 1 1 1 1 0 0 0 1 0 0 1 0 0 0

>  <DIFUSE_FUNC_ATOM>  (1494) 
atom 6   atom 7   

>  <FINAL_SINGLE_POINT_ENERGY>  (1494) 
0

>  <NONCOV_INTER_ENERGY_QM>  (1494) 
0

>  <FF_Energy>  (1494) 
48.38

>  <QM_Energy>  (1494) 
9.03

>  <source>  (1494) 
ACET_PRPA_16

>  <Index>  (1494) 
28573

$$$$
ACET-pdb3lxq-A-GLU-241:PRPA-pdb3lxq-A-LYS-246
     RDKit          3D

 18 16  0  0  0  0  0  0  0  0999 V2000
    0.0023    1.5300   -0.0027 C   0  0  0  0  0  0  0  0  0  0  0  0
    0.3238    1.8252    0.8744 H   0  0  0  0  0  0  0  0  0  0  0  0
   -0.9138    1.8252   -0.1899 H   0  0  0  0  0  0  0  0  0  0  0  0
    0.6591    1.9496   -0.7647 H   0  0  0  0  0  0  0  0  0  0  0  0
    0.0000    0.0000    0.0000 C   0  0  0  0  0  0  0  0  0  0  0  0
   -1.0957   -0.6047    0.0000 O   0  0  0  0  0  1  0  0  0  0  0  0
    1.0957   -0.6064   -0.0000 O   0  0  0  0  0  0  0  0  0  0  0  0
    2.5946   -0.0819    3.1903 C   0  0  0  0  0  0  0  0  0  0  0  0
    1.9207    0.3139    2.5531 H   0  0  0  0  0  0  0  0  0  0  0  0
    3.5318    0.4673    3.1001 H   0  0  0  0  0  0  0  0  0  0  0  0
    2.1949   -0.0177    4.2024 H   0  0  0  0  0  0  0  0  0  0  0  0
    2.8115   -1.5512    2.8057 C   0  0  0  0  0  0  0  0  0  0  0  0
    3.4903   -1.9385    3.4314 H   0  0  0  0  0  0  0  0  0  0  0  0
    1.9419   -2.0338    2.9249 H   0  0  0  0  0  0  0  0  0  0  0  0
    3.2927   -1.7762    1.3800 C   0  0  0  0  0  0  0  0  0  0  0  0
    2.6160   -1.3966    0.7453 H   0  0  0  0  0  0  0  0  0  0  0  0
    4.1653   -1.3012    1.2519 H   0  0  0  0  0  0  0  0  0  0  0  0
    3.4285   -2.8352    1.1607 H   0  0  0  0  0  0  0  0  0  0  0  0
  1  5  1  0
  5  6  1  0
  5  7  2  0
  1  2  1  0
  1  3  1  0
  1  4  1  0
  8 12  1  0
 12 15  1  0
  8  9  1  0
  8 10  1  0
  8 11  1  0
 12 13  1  0
 12 14  1  0
 15 16  1  0
 15 17  1  0
 15 18  1  0
M  CHG  1   6  -1
M  END
>  <PDB_ID>  (1495) 
pdb3lxq

>  <RESIDUE_NAME>  (1495) 
GLU   LYS

>  <FRAG_NAME>  (1495) 
ACET   PRPA

>  <FRAG_ATOM_NUM>  (1495) 
fragi: 7  fragj: 11

>  <atom.prop.CHAIN_ID>  (1495) 
A A A A A A A Z Z Z Z Z Z Z Z Z Z Z

>  <atom.prop.IS_HEAVY_ATOM>  (1495) 
1 0 0 0 1 1 1 1 0 0 0 1 0 0 1 0 0 0

>  <DIFUSE_FUNC_ATOM>  (1495) 
atom 6   atom 7   

>  <FINAL_SINGLE_POINT_ENERGY>  (1495) 
0

>  <NONCOV_INTER_ENERGY_QM>  (1495) 
0

>  <FF_Energy>  (1495) 
17.01

>  <QM_Energy>  (1495) 
-2.62

>  <source>  (1495) 
ACET_PRPA_16

>  <Index>  (1495) 
28648

$$$$
ACET-pdb3lxq-A-GLU-241:PRPA-pdb3lxq-A-LYS-246
     RDKit          3D

 18 16  0  0  0  0  0  0  0  0999 V2000
    0.0023    1.5300   -0.0027 C   0  0  0  0  0  0  0  0  0  0  0  0
    0.3238    1.8252    0.8744 H   0  0  0  0  0  0  0  0  0  0  0  0
   -0.9138    1.8252   -0.1899 H   0  0  0  0  0  0  0  0  0  0  0  0
    0.6591    1.9496   -0.7647 H   0  0  0  0  0  0  0  0  0  0  0  0
    0.0000    0.0000    0.0000 C   0  0  0  0  0  0  0  0  0  0  0  0
   -1.0957   -0.6047    0.0000 O   0  0  0  0  0  1  0  0  0  0  0  0
    1.0957   -0.6064   -0.0000 O   0  0  0  0  0  0  0  0  0  0  0  0
    2.8115   -1.5512    2.8057 C   0  0  0  0  0  0  0  0  0  0  0  0
    3.4903   -1.9385    3.4314 H   0  0  0  0  0  0  0  0  0  0  0  0
    1.9419   -2.0338    2.9249 H   0  0  0  0  0  0  0  0  0  0  0  0
    2.6574   -0.5073    3.0790 H   0  0  0  0  0  0  0  0  0  0  0  0
    3.2927   -1.7762    1.3800 C   0  0  0  0  0  0  0  0  0  0  0  0
    2.6160   -1.3966    0.7453 H   0  0  0  0  0  0  0  0  0  0  0  0
    4.1653   -1.3012    1.2519 H   0  0  0  0  0  0  0  0  0  0  0  0
    3.4814   -3.2484    1.0751 C   0  0  0  0  0  0  0  0  0  0  0  0
    4.1564   -3.6250    1.7123 H   0  0  0  0  0  0  0  0  0  0  0  0
    2.6071   -3.7196    1.2038 H   0  0  0  0  0  0  0  0  0  0  0  0
    3.8265   -3.4270    0.0566 H   0  0  0  0  0  0  0  0  0  0  0  0
  1  5  1  0
  5  6  1  0
  5  7  2  0
  1  2  1  0
  1  3  1  0
  1  4  1  0
  8 12  1  0
 12 15  1  0
  8  9  1  0
  8 10  1  0
  8 11  1  0
 12 13  1  0
 12 14  1  0
 15 16  1  0
 15 17  1  0
 15 18  1  0
M  CHG  1   6  -1
M  END
>  <PDB_ID>  (1496) 
pdb3lxq

>  <RESIDUE_NAME>  (1496) 
GLU   LYS

>  <FRAG_NAME>  (1496) 
ACET   PRPA

>  <FRAG_ATOM_NUM>  (1496) 
fragi: 7  fragj: 11

>  <atom.prop.CHAIN_ID>  (1496) 
A A A A A A A Z Z Z Z Z Z Z Z Z Z Z

>  <atom.prop.IS_HEAVY_ATOM>  (1496) 
1 0 0 0 1 1 1 1 0 0 0 1 0 0 1 0 0 0

>  <DIFUSE_FUNC_ATOM>  (1496) 
atom 6   atom 7   

>  <FINAL_SINGLE_POINT_ENERGY>  (1496) 
0

>  <NONCOV_INTER_ENERGY_QM>  (1496) 
0

>  <FF_Energy>  (1496) 
19.8

>  <QM_Energy>  (1496) 
-1.64

>  <source>  (1496) 
ACET_PRPA_16

>  <Index>  (1496) 
28654

$$$$
ACET-pdb3lxq-A-GLU-241:PRPA-pdb3lxq-A-LYS-246
     RDKit          3D

 18 16  0  0  0  0  0  0  0  0999 V2000
    0.0023    1.5300   -0.0027 C   0  0  0  0  0  0  0  0  0  0  0  0
    0.3238    1.8252    0.8744 H   0  0  0  0  0  0  0  0  0  0  0  0
   -0.9138    1.8252   -0.1899 H   0  0  0  0  0  0  0  0  0  0  0  0
    0.6591    1.9496   -0.7647 H   0  0  0  0  0  0  0  0  0  0  0  0
    0.0000    0.0000    0.0000 C   0  0  0  0  0  0  0  0  0  0  0  0
   -1.0957   -0.6047    0.0000 O   0  0  0  0  0  1  0  0  0  0  0  0
    1.0957   -0.6064   -0.0000 O   0  0  0  0  0  0  0  0  0  0  0  0
    3.2927   -1.7762    1.3800 C   0  0  0  0  0  0  0  0  0  0  0  0
    2.6160   -1.3966    0.7453 H   0  0  0  0  0  0  0  0  0  0  0  0
    4.1653   -1.3012    1.2519 H   0  0  0  0  0  0  0  0  0  0  0  0
    2.9480   -1.6150    2.4015 H   0  0  0  0  0  0  0  0  0  0  0  0
    3.4814   -3.2484    1.0751 C   0  0  0  0  0  0  0  0  0  0  0  0
    4.1564   -3.6250    1.7123 H   0  0  0  0  0  0  0  0  0  0  0  0
    2.6071   -3.7196    1.2038 H   0  0  0  0  0  0  0  0  0  0  0  0
    3.9598   -3.4959   -0.3368 C   0  0  0  0  0  0  0  0  0  0  0  0
    3.2876   -3.1269   -0.9808 H   0  0  0  0  0  0  0  0  0  0  0  0
    4.8361   -3.0329   -0.4737 H   0  0  0  0  0  0  0  0  0  0  0  0
    4.0850   -4.5628   -0.5214 H   0  0  0  0  0  0  0  0  0  0  0  0
  1  5  1  0
  5  6  1  0
  5  7  2  0
  1  2  1  0
  1  3  1  0
  1  4  1  0
  8 12  1  0
 12 15  1  0
  8  9  1  0
  8 10  1  0
  8 11  1  0
 12 13  1  0
 12 14  1  0
 15 16  1  0
 15 17  1  0
 15 18  1  0
M  CHG  1   6  -1
M  END
>  <PDB_ID>  (1497) 
pdb3lxq

>  <RESIDUE_NAME>  (1497) 
GLU   LYS

>  <FRAG_NAME>  (1497) 
ACET   PRPA

>  <FRAG_ATOM_NUM>  (1497) 
fragi: 7  fragj: 11

>  <atom.prop.CHAIN_ID>  (1497) 
A A A A A A A Z Z Z Z Z Z Z Z Z Z Z

>  <atom.prop.IS_HEAVY_ATOM>  (1497) 
1 0 0 0 1 1 1 1 0 0 0 1 0 0 1 0 0 0

>  <DIFUSE_FUNC_ATOM>  (1497) 
atom 6   atom 7   

>  <FINAL_SINGLE_POINT_ENERGY>  (1497) 
0

>  <NONCOV_INTER_ENERGY_QM>  (1497) 
0

>  <FF_Energy>  (1497) 
16.92

>  <QM_Energy>  (1497) 
-1.31

>  <source>  (1497) 
ACET_PRPA_16

>  <Index>  (1497) 
28657

$$$$
ACET-pdb3lyu-F-GLU-97:PRPA-pdb3lyu-A-LEU-90
     RDKit          3D

 18 16  0  0  0  0  0  0  0  0999 V2000
   -0.0022    1.4953    0.0089 C   0  0  0  0  0  0  0  0  0  0  0  0
    0.9057    1.7991   -0.2194 H   0  0  0  0  0  0  0  0  0  0  0  0
   -0.2747    1.7902    0.9074 H   0  0  0  0  0  0  0  0  0  0  0  0
   -0.7002    1.9058   -0.7207 H   0  0  0  0  0  0  0  0  0  0  0  0
    0.0000    0.0000    0.0000 C   0  0  0  0  0  0  0  0  0  0  0  0
   -1.1064   -0.5920   -0.0000 O   0  0  0  0  0  1  0  0  0  0  0  0
    1.1064   -0.5767    0.0000 O   0  0  0  0  0  0  0  0  0  0  0  0
   -2.5989   -2.4748    2.7477 C   0  0  0  0  0  0  0  0  0  0  0  0
   -2.6218   -1.5271    2.4164 H   0  0  0  0  0  0  0  0  0  0  0  0
   -3.4018   -2.9619    2.3940 H   0  0  0  0  0  0  0  0  0  0  0  0
   -2.6387   -2.4691    3.7504 H   0  0  0  0  0  0  0  0  0  0  0  0
   -1.3402   -3.1521    2.2862 C   0  0  0  0  0  0  0  0  0  0  0  0
   -1.3063   -4.0807    2.6301 H   0  0  0  0  0  0  0  0  0  0  0  0
   -0.4917   -2.5982    2.6880 H   0  0  0  0  0  0  0  0  0  0  0  0
   -1.3050   -3.2060    0.7622 C   0  0  0  0  0  0  0  0  0  0  0  0
   -0.4632   -3.6572    0.4643 H   0  0  0  0  0  0  0  0  0  0  0  0
   -2.0954   -3.7205    0.4286 H   0  0  0  0  0  0  0  0  0  0  0  0
   -1.3324   -2.2755    0.3954 H   0  0  0  0  0  0  0  0  0  0  0  0
  1  5  1  0
  5  6  1  0
  5  7  2  0
  1  2  1  0
  1  3  1  0
  1  4  1  0
  8 12  1  0
 12 15  1  0
  8  9  1  0
  8 10  1  0
  8 11  1  0
 12 13  1  0
 12 14  1  0
 15 16  1  0
 15 17  1  0
 15 18  1  0
M  CHG  1   6  -1
M  END
>  <PDB_ID>  (1498) 
pdb3lyu

>  <RESIDUE_NAME>  (1498) 
GLU   LEU

>  <FRAG_NAME>  (1498) 
ACET   PRPA

>  <FRAG_ATOM_NUM>  (1498) 
fragi: 7  fragj: 11

>  <atom.prop.CHAIN_ID>  (1498) 
A A A A A A A Z Z Z Z Z Z Z Z Z Z Z

>  <atom.prop.IS_HEAVY_ATOM>  (1498) 
1 0 0 0 1 1 1 1 0 0 0 1 0 0 1 0 0 0

>  <DIFUSE_FUNC_ATOM>  (1498) 
atom 6   atom 7   

>  <FINAL_SINGLE_POINT_ENERGY>  (1498) 
0

>  <NONCOV_INTER_ENERGY_QM>  (1498) 
0

>  <FF_Energy>  (1498) 
41.0

>  <QM_Energy>  (1498) 
1.29

>  <source>  (1498) 
ACET_PRPA_16

>  <Index>  (1498) 
29528

$$$$
ACET-pdb3m20-C-ASP-11:PRPA-pdb3m20-C-LYS-14
     RDKit          3D

 18 16  0  0  0  0  0  0  0  0999 V2000
    0.0288    1.5218   -0.0299 C   0  0  0  0  0  0  0  0  0  0  0  0
   -0.2624    1.8283   -0.9310 H   0  0  0  0  0  0  0  0  0  0  0  0
    0.9566    1.8269    0.1543 H   0  0  0  0  0  0  0  0  0  0  0  0
   -0.6282    1.9812    0.7086 H   0  0  0  0  0  0  0  0  0  0  0  0
    0.0000    0.0000    0.0000 C   0  0  0  0  0  0  0  0  0  0  0  0
   -1.0991   -0.5946   -0.0000 O   0  0  0  0  0  1  0  0  0  0  0  0
    1.0991   -0.6028   -0.0000 O   0  0  0  0  0  0  0  0  0  0  0  0
   -2.5084   -1.5981    3.0597 C   0  0  0  0  0  0  0  0  0  0  0  0
   -2.4821   -0.6047    3.1390 H   0  0  0  0  0  0  0  0  0  0  0  0
   -2.5805   -2.0084    3.9670 H   0  0  0  0  0  0  0  0  0  0  0  0
   -3.3975   -1.8711    2.4914 H   0  0  0  0  0  0  0  0  0  0  0  0
   -1.2022   -2.0613    2.4267 C   0  0  0  0  0  0  0  0  0  0  0  0
   -1.3277   -2.9829    2.0561 H   0  0  0  0  0  0  0  0  0  0  0  0
   -0.9585   -1.4366    1.6830 H   0  0  0  0  0  0  0  0  0  0  0  0
   -0.0549   -2.0926    3.4363 C   0  0  0  0  0  0  0  0  0  0  0  0
   -0.0883   -1.2641    3.9856 H   0  0  0  0  0  0  0  0  0  0  0  0
   -0.1559   -2.8956    4.0146 H   0  0  0  0  0  0  0  0  0  0  0  0
    0.9179   -2.1418    2.9473 H   0  0  0  0  0  0  0  0  0  0  0  0
  1  5  1  0
  5  6  1  0
  5  7  2  0
  1  2  1  0
  1  3  1  0
  1  4  1  0
  8 12  1  0
 12 15  1  0
  8  9  1  0
  8 10  1  0
  8 11  1  0
 12 13  1  0
 12 14  1  0
 15 16  1  0
 15 17  1  0
 15 18  1  0
M  CHG  1   6  -1
M  END
>  <PDB_ID>  (1499) 
pdb3m20

>  <RESIDUE_NAME>  (1499) 
ASP   LYS

>  <FRAG_NAME>  (1499) 
ACET   PRPA

>  <FRAG_ATOM_NUM>  (1499) 
fragi: 7  fragj: 11

>  <atom.prop.CHAIN_ID>  (1499) 
A A A A A A A Z Z Z Z Z Z Z Z Z Z Z

>  <atom.prop.IS_HEAVY_ATOM>  (1499) 
1 0 0 0 1 1 1 1 0 0 0 1 0 0 1 0 0 0

>  <DIFUSE_FUNC_ATOM>  (1499) 
atom 6   atom 7   

>  <FINAL_SINGLE_POINT_ENERGY>  (1499) 
0

>  <NONCOV_INTER_ENERGY_QM>  (1499) 
0

>  <FF_Energy>  (1499) 
18.74

>  <QM_Energy>  (1499) 
-0.62

>  <source>  (1499) 
ACET_PRPA_16

>  <Index>  (1499) 
29782

$$$$
ACET-pdb3m20-C-ASP-11:PRPA-pdb3m20-C-LYS-14
     RDKit          3D

 18 16  0  0  0  0  0  0  0  0999 V2000
    0.0288    1.5218   -0.0299 C   0  0  0  0  0  0  0  0  0  0  0  0
   -0.2624    1.8283   -0.9310 H   0  0  0  0  0  0  0  0  0  0  0  0
    0.9566    1.8269    0.1543 H   0  0  0  0  0  0  0  0  0  0  0  0
   -0.6282    1.9812    0.7086 H   0  0  0  0  0  0  0  0  0  0  0  0
    0.0000    0.0000    0.0000 C   0  0  0  0  0  0  0  0  0  0  0  0
   -1.0991   -0.5946   -0.0000 O   0  0  0  0  0  1  0  0  0  0  0  0
    1.0991   -0.6028   -0.0000 O   0  0  0  0  0  0  0  0  0  0  0  0
   -1.2022   -2.0613    2.4267 C   0  0  0  0  0  0  0  0  0  0  0  0
   -1.3277   -2.9829    2.0561 H   0  0  0  0  0  0  0  0  0  0  0  0
   -0.9585   -1.4366    1.6830 H   0  0  0  0  0  0  0  0  0  0  0  0
   -2.1367   -1.7298    2.8795 H   0  0  0  0  0  0  0  0  0  0  0  0
   -0.0549   -2.0926    3.4363 C   0  0  0  0  0  0  0  0  0  0  0  0
   -0.0883   -1.2641    3.9856 H   0  0  0  0  0  0  0  0  0  0  0  0
   -0.1559   -2.8956    4.0146 H   0  0  0  0  0  0  0  0  0  0  0  0
    1.3128   -2.1618    2.7489 C   0  0  0  0  0  0  0  0  0  0  0  0
    1.4819   -1.2816    2.2774 H   0  0  0  0  0  0  0  0  0  0  0  0
    2.0264   -2.2674    3.4596 H   0  0  0  0  0  0  0  0  0  0  0  0
    1.4169   -2.9714    2.0264 H   0  0  0  0  0  0  0  0  0  0  0  0
  1  5  1  0
  5  6  1  0
  5  7  2  0
  1  2  1  0
  1  3  1  0
  1  4  1  0
  8 12  1  0
 12 15  1  0
  8  9  1  0
  8 10  1  0
  8 11  1  0
 12 13  1  0
 12 14  1  0
 15 16  1  0
 15 17  1  0
 15 18  1  0
M  CHG  1   6  -1
M  END
>  <PDB_ID>  (1500) 
pdb3m20

>  <RESIDUE_NAME>  (1500) 
ASP   LYS

>  <FRAG_NAME>  (1500) 
ACET   PRPA

>  <FRAG_ATOM_NUM>  (1500) 
fragi: 7  fragj: 11

>  <atom.prop.CHAIN_ID>  (1500) 
A A A A A A A Z Z Z Z Z Z Z Z Z Z Z

>  <atom.prop.IS_HEAVY_ATOM>  (1500) 
1 0 0 0 1 1 1 1 0 0 0 1 0 0 1 0 0 0

>  <DIFUSE_FUNC_ATOM>  (1500) 
atom 6   atom 7   

>  <FINAL_SINGLE_POINT_ENERGY>  (1500) 
0

>  <NONCOV_INTER_ENERGY_QM>  (1500) 
0

>  <FF_Energy>  (1500) 
16.97

>  <QM_Energy>  (1500) 
-0.04

>  <source>  (1500) 
ACET_PRPA_16

>  <Index>  (1500) 
29789

$$$$
ACET-pdb4j1q-A-ASP-148:PRPA-pdb4j1q-A-ILE-151
     RDKit          3D

 18 16  0  0  0  0  0  0  0  0999 V2000
    0.0151    1.5092    0.0063 C   0  0  0  0  0  0  0  0  0  0  0  0
    0.4307    1.8330   -0.8376 H   0  0  0  0  0  0  0  0  0  0  0  0
    0.5362    1.8260    0.7918 H   0  0  0  0  0  0  0  0  0  0  0  0
   -0.9824    1.9436    0.0725 H   0  0  0  0  0  0  0  0  0  0  0  0
    0.0000    0.0000    0.0000 C   0  0  0  0  0  0  0  0  0  0  0  0
   -1.1084   -0.5936   -0.0000 O   0  0  0  0  0  1  0  0  0  0  0  0
    1.1084   -0.5909    0.0000 O   0  0  0  0  0  0  0  0  0  0  0  0
    3.4283    2.8704    3.8848 C   0  0  0  0  0  0  0  0  0  0  0  0
    3.6464    3.8146    3.7043 H   0  0  0  0  0  0  0  0  0  0  0  0
    3.0064    2.8131    4.8883 H   0  0  0  0  0  0  0  0  0  0  0  0
    4.2973    2.2189    3.7930 H   0  0  0  0  0  0  0  0  0  0  0  0
    2.3637    2.4217    2.8746 C   0  0  0  0  0  0  0  0  0  0  0  0
    2.3142    1.4189    2.8972 H   0  0  0  0  0  0  0  0  0  0  0  0
    1.4748    2.7785    3.1816 H   0  0  0  0  0  0  0  0  0  0  0  0
    2.5975    2.8698    1.4478 C   0  0  0  0  0  0  0  0  0  0  0  0
    3.4693    2.5045    1.1248 H   0  0  0  0  0  0  0  0  0  0  0  0
    1.8575    2.5313    0.8689 H   0  0  0  0  0  0  0  0  0  0  0  0
    2.6198    3.8676    1.4137 H   0  0  0  0  0  0  0  0  0  0  0  0
  1  5  1  0
  5  6  1  0
  5  7  2  0
  1  2  1  0
  1  3  1  0
  1  4  1  0
  8 12  1  0
 12 15  1  0
  8  9  1  0
  8 10  1  0
  8 11  1  0
 12 13  1  0
 12 14  1  0
 15 16  1  0
 15 17  1  0
 15 18  1  0
M  CHG  1   6  -1
M  END
>  <PDB_ID>  (1501) 
pdb4j1q

>  <RESIDUE_NAME>  (1501) 
ASP   ILE

>  <FRAG_NAME>  (1501) 
ACET   PRPA

>  <FRAG_ATOM_NUM>  (1501) 
fragi: 7  fragj: 11

>  <atom.prop.CHAIN_ID>  (1501) 
A A A A A A A Z Z Z Z Z Z Z Z Z Z Z

>  <atom.prop.IS_HEAVY_ATOM>  (1501) 
1 0 0 0 1 1 1 1 0 0 0 1 0 0 1 0 0 0

>  <DIFUSE_FUNC_ATOM>  (1501) 
atom 6   atom 7   

>  <FINAL_SINGLE_POINT_ENERGY>  (1501) 
0

>  <NONCOV_INTER_ENERGY_QM>  (1501) 
0

>  <FF_Energy>  (1501) 
29.48

>  <QM_Energy>  (1501) 
3.64

>  <source>  (1501) 
ACET_PRPA_16

>  <Index>  (1501) 
30033

$$$$
ACET-pdb3maz-A-GLU-189:PRPA-pdb3maz-A-LYS-185
     RDKit          3D

 18 16  0  0  0  0  0  0  0  0999 V2000
   -0.0341    1.5277   -0.0177 C   0  0  0  0  0  0  0  0  0  0  0  0
   -0.6502    1.8143    0.6991 H   0  0  0  0  0  0  0  0  0  0  0  0
   -0.3647    1.8015   -0.9080 H   0  0  0  0  0  0  0  0  0  0  0  0
    0.9332    2.0008    0.1514 H   0  0  0  0  0  0  0  0  0  0  0  0
    0.0000    0.0000    0.0000 C   0  0  0  0  0  0  0  0  0  0  0  0
   -1.1068   -0.5944   -0.0000 O   0  0  0  0  0  1  0  0  0  0  0  0
    1.1068   -0.6059   -0.0000 O   0  0  0  0  0  0  0  0  0  0  0  0
   -1.9484   -0.9410   -3.1569 C   0  0  0  0  0  0  0  0  0  0  0  0
   -1.1233   -0.7126   -2.6353 H   0  0  0  0  0  0  0  0  0  0  0  0
   -2.6952   -0.3369   -2.8703 H   0  0  0  0  0  0  0  0  0  0  0  0
   -1.7526   -0.7879   -4.2181 H   0  0  0  0  0  0  0  0  0  0  0  0
   -2.3477   -2.3991   -2.8172 C   0  0  0  0  0  0  0  0  0  0  0  0
   -3.1712   -2.6221   -3.3137 H   0  0  0  0  0  0  0  0  0  0  0  0
   -1.6013   -2.9944   -3.0622 H   0  0  0  0  0  0  0  0  0  0  0  0
   -2.6243   -2.5516   -1.3104 C   0  0  0  0  0  0  0  0  0  0  0  0
   -1.8633   -2.1093   -0.7990 H   0  0  0  0  0  0  0  0  0  0  0  0
   -3.4696   -2.0299   -1.0852 H   0  0  0  0  0  0  0  0  0  0  0  0
   -2.7396   -3.5720   -0.9452 H   0  0  0  0  0  0  0  0  0  0  0  0
  1  5  1  0
  5  6  1  0
  5  7  2  0
  1  2  1  0
  1  3  1  0
  1  4  1  0
  8 12  1  0
 12 15  1  0
  8  9  1  0
  8 10  1  0
  8 11  1  0
 12 13  1  0
 12 14  1  0
 15 16  1  0
 15 17  1  0
 15 18  1  0
M  CHG  1   6  -1
M  END
>  <PDB_ID>  (1502) 
pdb3maz

>  <RESIDUE_NAME>  (1502) 
GLU   LYS

>  <FRAG_NAME>  (1502) 
ACET   PRPA

>  <FRAG_ATOM_NUM>  (1502) 
fragi: 7  fragj: 11

>  <atom.prop.CHAIN_ID>  (1502) 
A A A A A A A Z Z Z Z Z Z Z Z Z Z Z

>  <atom.prop.IS_HEAVY_ATOM>  (1502) 
1 0 0 0 1 1 1 1 0 0 0 1 0 0 1 0 0 0

>  <DIFUSE_FUNC_ATOM>  (1502) 
atom 6   atom 7   

>  <FINAL_SINGLE_POINT_ENERGY>  (1502) 
0

>  <NONCOV_INTER_ENERGY_QM>  (1502) 
0

>  <FF_Energy>  (1502) 
16.87

>  <QM_Energy>  (1502) 
-1.58

>  <source>  (1502) 
ACET_PRPA_16

>  <Index>  (1502) 
32002

$$$$
ACET-pdb3m6u-A-GLU-27:PRPA-pdb3m6u-A-LYS-23
     RDKit          3D

 18 16  0  0  0  0  0  0  0  0999 V2000
    0.1737    1.4848    0.0166 C   0  0  0  0  0  0  0  0  0  0  0  0
    0.6929    1.7416   -0.7999 H   0  0  0  0  0  0  0  0  0  0  0  0
    0.7043    1.7220    0.8315 H   0  0  0  0  0  0  0  0  0  0  0  0
   -0.7370    2.0835    0.0291 H   0  0  0  0  0  0  0  0  0  0  0  0
    0.0000    0.0000    0.0000 C   0  0  0  0  0  0  0  0  0  0  0  0
   -1.0893   -0.5588   -0.0000 O   0  0  0  0  0  1  0  0  0  0  0  0
    1.0893   -0.6076   -0.0000 O   0  0  0  0  0  0  0  0  0  0  0  0
   -4.6163   -1.6603   -0.1884 C   0  0  0  0  0  0  0  0  0  0  0  0
   -4.8699   -0.8511    0.3532 H   0  0  0  0  0  0  0  0  0  0  0  0
   -5.5157   -2.0806   -0.6383 H   0  0  0  0  0  0  0  0  0  0  0  0
   -3.9038   -1.3553   -0.9548 H   0  0  0  0  0  0  0  0  0  0  0  0
   -3.9699   -2.6590    0.7726 C   0  0  0  0  0  0  0  0  0  0  0  0
   -4.6323   -2.8931    1.4759 H   0  0  0  0  0  0  0  0  0  0  0  0
   -3.7136   -3.4711    0.2570 H   0  0  0  0  0  0  0  0  0  0  0  0
   -2.7137   -2.1177    1.4635 C   0  0  0  0  0  0  0  0  0  0  0  0
   -2.0430   -1.8745    0.7646 H   0  0  0  0  0  0  0  0  0  0  0  0
   -2.9613   -1.3060    1.9896 H   0  0  0  0  0  0  0  0  0  0  0  0
   -2.2783   -2.8594    2.1331 H   0  0  0  0  0  0  0  0  0  0  0  0
  1  5  1  0
  5  6  1  0
  5  7  2  0
  1  2  1  0
  1  3  1  0
  1  4  1  0
  8 12  1  0
 12 15  1  0
  8  9  1  0
  8 10  1  0
  8 11  1  0
 12 13  1  0
 12 14  1  0
 15 16  1  0
 15 17  1  0
 15 18  1  0
M  CHG  1   6  -1
M  END
>  <PDB_ID>  (1503) 
pdb3m6u

>  <RESIDUE_NAME>  (1503) 
GLU   LYS

>  <FRAG_NAME>  (1503) 
ACET   PRPA

>  <FRAG_ATOM_NUM>  (1503) 
fragi: 7  fragj: 11

>  <atom.prop.CHAIN_ID>  (1503) 
A A A A A A A Z Z Z Z Z Z Z Z Z Z Z

>  <atom.prop.IS_HEAVY_ATOM>  (1503) 
1 0 0 0 1 1 1 1 0 0 0 1 0 0 1 0 0 0

>  <DIFUSE_FUNC_ATOM>  (1503) 
atom 6   atom 7   

>  <FINAL_SINGLE_POINT_ENERGY>  (1503) 
0

>  <NONCOV_INTER_ENERGY_QM>  (1503) 
0

>  <FF_Energy>  (1503) 
29.71

>  <QM_Energy>  (1503) 
1.57

>  <source>  (1503) 
ACET_PRPA_16

>  <Index>  (1503) 
32820

$$$$
ACET-pdb3m6u-A-GLU-27:PRPA-pdb3m6u-A-LYS-23
     RDKit          3D

 18 16  0  0  0  0  0  0  0  0999 V2000
    0.1737    1.4848    0.0166 C   0  0  0  0  0  0  0  0  0  0  0  0
    0.6929    1.7416   -0.7999 H   0  0  0  0  0  0  0  0  0  0  0  0
    0.7043    1.7220    0.8315 H   0  0  0  0  0  0  0  0  0  0  0  0
   -0.7370    2.0835    0.0291 H   0  0  0  0  0  0  0  0  0  0  0  0
    0.0000    0.0000    0.0000 C   0  0  0  0  0  0  0  0  0  0  0  0
   -1.0893   -0.5588   -0.0000 O   0  0  0  0  0  1  0  0  0  0  0  0
    1.0893   -0.6076   -0.0000 O   0  0  0  0  0  0  0  0  0  0  0  0
   -3.9699   -2.6590    0.7726 C   0  0  0  0  0  0  0  0  0  0  0  0
   -4.6323   -2.8931    1.4759 H   0  0  0  0  0  0  0  0  0  0  0  0
   -3.7136   -3.4711    0.2570 H   0  0  0  0  0  0  0  0  0  0  0  0
   -4.4307   -1.9472    0.0876 H   0  0  0  0  0  0  0  0  0  0  0  0
   -2.7137   -2.1177    1.4635 C   0  0  0  0  0  0  0  0  0  0  0  0
   -2.0430   -1.8745    0.7646 H   0  0  0  0  0  0  0  0  0  0  0  0
   -2.9613   -1.3060    1.9896 H   0  0  0  0  0  0  0  0  0  0  0  0
   -2.1073   -3.1510    2.3963 C   0  0  0  0  0  0  0  0  0  0  0  0
   -2.7571   -3.3511    3.1235 H   0  0  0  0  0  0  0  0  0  0  0  0
   -1.9052   -3.9760    1.8783 H   0  0  0  0  0  0  0  0  0  0  0  0
   -1.1829   -2.7904    2.8476 H   0  0  0  0  0  0  0  0  0  0  0  0
  1  5  1  0
  5  6  1  0
  5  7  2  0
  1  2  1  0
  1  3  1  0
  1  4  1  0
  8 12  1  0
 12 15  1  0
  8  9  1  0
  8 10  1  0
  8 11  1  0
 12 13  1  0
 12 14  1  0
 15 16  1  0
 15 17  1  0
 15 18  1  0
M  CHG  1   6  -1
M  END
>  <PDB_ID>  (1504) 
pdb3m6u

>  <RESIDUE_NAME>  (1504) 
GLU   LYS

>  <FRAG_NAME>  (1504) 
ACET   PRPA

>  <FRAG_ATOM_NUM>  (1504) 
fragi: 7  fragj: 11

>  <atom.prop.CHAIN_ID>  (1504) 
A A A A A A A Z Z Z Z Z Z Z Z Z Z Z

>  <atom.prop.IS_HEAVY_ATOM>  (1504) 
1 0 0 0 1 1 1 1 0 0 0 1 0 0 1 0 0 0

>  <DIFUSE_FUNC_ATOM>  (1504) 
atom 6   atom 7   

>  <FINAL_SINGLE_POINT_ENERGY>  (1504) 
0

>  <NONCOV_INTER_ENERGY_QM>  (1504) 
0

>  <FF_Energy>  (1504) 
33.56

>  <QM_Energy>  (1504) 
1.9

>  <source>  (1504) 
ACET_PRPA_16

>  <Index>  (1504) 
32829

$$$$
ACET-pdb3m6u-A-GLU-27:PRPA-pdb3m6u-A-LYS-23
     RDKit          3D

 18 16  0  0  0  0  0  0  0  0999 V2000
    0.1737    1.4848    0.0166 C   0  0  0  0  0  0  0  0  0  0  0  0
    0.6929    1.7416   -0.7999 H   0  0  0  0  0  0  0  0  0  0  0  0
    0.7043    1.7220    0.8315 H   0  0  0  0  0  0  0  0  0  0  0  0
   -0.7370    2.0835    0.0291 H   0  0  0  0  0  0  0  0  0  0  0  0
    0.0000    0.0000    0.0000 C   0  0  0  0  0  0  0  0  0  0  0  0
   -1.0893   -0.5588   -0.0000 O   0  0  0  0  0  1  0  0  0  0  0  0
    1.0893   -0.6076   -0.0000 O   0  0  0  0  0  0  0  0  0  0  0  0
   -2.7137   -2.1177    1.4635 C   0  0  0  0  0  0  0  0  0  0  0  0
   -2.0430   -1.8745    0.7646 H   0  0  0  0  0  0  0  0  0  0  0  0
   -2.9613   -1.3060    1.9896 H   0  0  0  0  0  0  0  0  0  0  0  0
   -3.6072   -2.5027    0.9720 H   0  0  0  0  0  0  0  0  0  0  0  0
   -2.1073   -3.1510    2.3963 C   0  0  0  0  0  0  0  0  0  0  0  0
   -2.7571   -3.3511    3.1235 H   0  0  0  0  0  0  0  0  0  0  0  0
   -1.9052   -3.9760    1.8783 H   0  0  0  0  0  0  0  0  0  0  0  0
   -0.8173   -2.6477    3.0260 C   0  0  0  0  0  0  0  0  0  0  0  0
   -0.1284   -2.5310    2.3083 H   0  0  0  0  0  0  0  0  0  0  0  0
   -0.9912   -1.7611    3.4604 H   0  0  0  0  0  0  0  0  0  0  0  0
   -0.4393   -3.3445    3.7741 H   0  0  0  0  0  0  0  0  0  0  0  0
  1  5  1  0
  5  6  1  0
  5  7  2  0
  1  2  1  0
  1  3  1  0
  1  4  1  0
  8 12  1  0
 12 15  1  0
  8  9  1  0
  8 10  1  0
  8 11  1  0
 12 13  1  0
 12 14  1  0
 15 16  1  0
 15 17  1  0
 15 18  1  0
M  CHG  1   6  -1
M  END
>  <PDB_ID>  (1505) 
pdb3m6u

>  <RESIDUE_NAME>  (1505) 
GLU   LYS

>  <FRAG_NAME>  (1505) 
ACET   PRPA

>  <FRAG_ATOM_NUM>  (1505) 
fragi: 7  fragj: 11

>  <atom.prop.CHAIN_ID>  (1505) 
A A A A A A A Z Z Z Z Z Z Z Z Z Z Z

>  <atom.prop.IS_HEAVY_ATOM>  (1505) 
1 0 0 0 1 1 1 1 0 0 0 1 0 0 1 0 0 0

>  <DIFUSE_FUNC_ATOM>  (1505) 
atom 6   atom 7   

>  <FINAL_SINGLE_POINT_ENERGY>  (1505) 
0

>  <NONCOV_INTER_ENERGY_QM>  (1505) 
0

>  <FF_Energy>  (1505) 
29.5

>  <QM_Energy>  (1505) 
0.88

>  <source>  (1505) 
ACET_PRPA_16

>  <Index>  (1505) 
32839

$$$$
ACET-pdb3mc1-A-GLU-61:PRPA-pdb3mc1-A-LYS-50
     RDKit          3D

 18 16  0  0  0  0  0  0  0  0999 V2000
   -0.0037    1.5167   -0.0199 C   0  0  0  0  0  0  0  0  0  0  0  0
   -0.3100    1.8008   -0.9086 H   0  0  0  0  0  0  0  0  0  0  0  0
    0.9106    1.8176    0.1764 H   0  0  0  0  0  0  0  0  0  0  0  0
   -0.6743    1.9416    0.7270 H   0  0  0  0  0  0  0  0  0  0  0  0
    0.0000    0.0000    0.0000 C   0  0  0  0  0  0  0  0  0  0  0  0
   -1.0967   -0.6009   -0.0000 O   0  0  0  0  0  1  0  0  0  0  0  0
    1.0967   -0.5927    0.0000 O   0  0  0  0  0  0  0  0  0  0  0  0
    4.0235   -3.2320    3.3210 C   0  0  0  0  0  0  0  0  0  0  0  0
    4.8639   -2.8106    2.9869 H   0  0  0  0  0  0  0  0  0  0  0  0
    3.8948   -4.1211    2.8855 H   0  0  0  0  0  0  0  0  0  0  0  0
    4.1282   -3.3929    4.3939 H   0  0  0  0  0  0  0  0  0  0  0  0
    2.8564   -2.3388    2.9445 C   0  0  0  0  0  0  0  0  0  0  0  0
    2.0016   -2.7909    3.2011 H   0  0  0  0  0  0  0  0  0  0  0  0
    2.9358   -1.4708    3.4347 H   0  0  0  0  0  0  0  0  0  0  0  0
    2.8357   -2.0604    1.4518 C   0  0  0  0  0  0  0  0  0  0  0  0
    2.8320   -2.9266    0.9592 H   0  0  0  0  0  0  0  0  0  0  0  0
    2.0186   -1.5368    1.2291 H   0  0  0  0  0  0  0  0  0  0  0  0
    3.7062   -1.4884    1.1304 H   0  0  0  0  0  0  0  0  0  0  0  0
  1  5  1  0
  5  6  1  0
  5  7  2  0
  1  2  1  0
  1  3  1  0
  1  4  1  0
  8 12  1  0
 12 15  1  0
  8  9  1  0
  8 10  1  0
  8 11  1  0
 12 13  1  0
 12 14  1  0
 15 16  1  0
 15 17  1  0
 15 18  1  0
M  CHG  1   6  -1
M  END
>  <PDB_ID>  (1506) 
pdb3mc1

>  <RESIDUE_NAME>  (1506) 
GLU   LYS

>  <FRAG_NAME>  (1506) 
ACET   PRPA

>  <FRAG_ATOM_NUM>  (1506) 
fragi: 7  fragj: 11

>  <atom.prop.CHAIN_ID>  (1506) 
A A A A A A A Z Z Z Z Z Z Z Z Z Z Z

>  <atom.prop.IS_HEAVY_ATOM>  (1506) 
1 0 0 0 1 1 1 1 0 0 0 1 0 0 1 0 0 0

>  <DIFUSE_FUNC_ATOM>  (1506) 
atom 6   atom 7   

>  <FINAL_SINGLE_POINT_ENERGY>  (1506) 
0

>  <NONCOV_INTER_ENERGY_QM>  (1506) 
0

>  <FF_Energy>  (1506) 
27.68

>  <QM_Energy>  (1506) 
1.74

>  <source>  (1506) 
ACET_PRPA_16

>  <Index>  (1506) 
33789

$$$$
ACET-pdb3mc1-A-GLU-61:PRPA-pdb3mc1-A-LYS-50
     RDKit          3D

 18 16  0  0  0  0  0  0  0  0999 V2000
   -0.0037    1.5167   -0.0199 C   0  0  0  0  0  0  0  0  0  0  0  0
   -0.3100    1.8008   -0.9086 H   0  0  0  0  0  0  0  0  0  0  0  0
    0.9106    1.8176    0.1764 H   0  0  0  0  0  0  0  0  0  0  0  0
   -0.6743    1.9416    0.7270 H   0  0  0  0  0  0  0  0  0  0  0  0
    0.0000    0.0000    0.0000 C   0  0  0  0  0  0  0  0  0  0  0  0
   -1.0967   -0.6009   -0.0000 O   0  0  0  0  0  1  0  0  0  0  0  0
    1.0967   -0.5927    0.0000 O   0  0  0  0  0  0  0  0  0  0  0  0
    2.8564   -2.3388    2.9445 C   0  0  0  0  0  0  0  0  0  0  0  0
    2.0016   -2.7909    3.2011 H   0  0  0  0  0  0  0  0  0  0  0  0
    2.9358   -1.4708    3.4347 H   0  0  0  0  0  0  0  0  0  0  0  0
    3.6949   -2.9805    3.2150 H   0  0  0  0  0  0  0  0  0  0  0  0
    2.8357   -2.0604    1.4518 C   0  0  0  0  0  0  0  0  0  0  0  0
    2.8320   -2.9266    0.9592 H   0  0  0  0  0  0  0  0  0  0  0  0
    2.0186   -1.5368    1.2291 H   0  0  0  0  0  0  0  0  0  0  0  0
    4.0574   -1.2577    1.0006 C   0  0  0  0  0  0  0  0  0  0  0  0
    4.0425   -0.3642    1.4529 H   0  0  0  0  0  0  0  0  0  0  0  0
    4.8867   -1.7497    1.2740 H   0  0  0  0  0  0  0  0  0  0  0  0
    4.0716   -1.1096   -0.0792 H   0  0  0  0  0  0  0  0  0  0  0  0
  1  5  1  0
  5  6  1  0
  5  7  2  0
  1  2  1  0
  1  3  1  0
  1  4  1  0
  8 12  1  0
 12 15  1  0
  8  9  1  0
  8 10  1  0
  8 11  1  0
 12 13  1  0
 12 14  1  0
 15 16  1  0
 15 17  1  0
 15 18  1  0
M  CHG  1   6  -1
M  END
>  <PDB_ID>  (1507) 
pdb3mc1

>  <RESIDUE_NAME>  (1507) 
GLU   LYS

>  <FRAG_NAME>  (1507) 
ACET   PRPA

>  <FRAG_ATOM_NUM>  (1507) 
fragi: 7  fragj: 11

>  <atom.prop.CHAIN_ID>  (1507) 
A A A A A A A Z Z Z Z Z Z Z Z Z Z Z

>  <atom.prop.IS_HEAVY_ATOM>  (1507) 
1 0 0 0 1 1 1 1 0 0 0 1 0 0 1 0 0 0

>  <DIFUSE_FUNC_ATOM>  (1507) 
atom 6   atom 7   

>  <FINAL_SINGLE_POINT_ENERGY>  (1507) 
0

>  <NONCOV_INTER_ENERGY_QM>  (1507) 
0

>  <FF_Energy>  (1507) 
32.47

>  <QM_Energy>  (1507) 
0.64

>  <source>  (1507) 
ACET_PRPA_16

>  <Index>  (1507) 
33791

$$$$
ACET-pdb4ja7-A-GLU-333:PRPA-pdb4ja7-A-VAL-161
     RDKit          3D

 18 16  0  0  0  0  0  0  0  0999 V2000
    0.0130    1.5222    0.0097 C   0  0  0  0  0  0  0  0  0  0  0  0
    0.4765    1.8130   -0.8021 H   0  0  0  0  0  0  0  0  0  0  0  0
    0.4662    1.8030    0.8302 H   0  0  0  0  0  0  0  0  0  0  0  0
   -0.9982    1.9290    0.0051 H   0  0  0  0  0  0  0  0  0  0  0  0
    0.0000    0.0000    0.0000 C   0  0  0  0  0  0  0  0  0  0  0  0
   -1.0906   -0.6097    0.0000 O   0  0  0  0  0  1  0  0  0  0  0  0
    1.0906   -0.5881   -0.0000 O   0  0  0  0  0  0  0  0  0  0  0  0
    1.6570   -3.7308    1.3483 C   0  0  0  0  0  0  0  0  0  0  0  0
    2.6053   -4.1111    1.3625 H   0  0  0  0  0  0  0  0  0  0  0  0
    1.4522   -3.3933    0.3323 H   0  0  0  0  0  0  0  0  0  0  0  0
    0.9911   -4.5032    1.7333 H   0  0  0  0  0  0  0  0  0  0  0  0
    1.8473   -2.5744    2.3699 C   0  0  0  0  0  0  0  0  0  0  0  0
    0.9524   -2.1781    2.5347 H   0  0  0  0  0  0  0  0  0  0  0  0
    2.2116   -2.9703    3.3179 H   0  0  0  0  0  0  0  0  0  0  0  0
    2.8758   -1.5605    1.8724 C   0  0  0  0  0  0  0  0  0  0  0  0
    3.5692   -2.0359    1.3330 H   0  0  0  0  0  0  0  0  0  0  0  0
    2.4153   -0.8780    1.3061 H   0  0  0  0  0  0  0  0  0  0  0  0
    3.3037   -1.1159    2.6583 H   0  0  0  0  0  0  0  0  0  0  0  0
  1  5  1  0
  5  6  1  0
  5  7  2  0
  1  2  1  0
  1  3  1  0
  1  4  1  0
  8 12  1  0
 12 15  1  0
  8  9  1  0
  8 10  1  0
  8 11  1  0
 12 13  1  0
 12 14  1  0
 15 16  1  0
 15 17  1  0
 15 18  1  0
M  CHG  1   6  -1
M  END
>  <PDB_ID>  (1508) 
pdb4ja7

>  <RESIDUE_NAME>  (1508) 
GLU   VAL

>  <FRAG_NAME>  (1508) 
ACET   PRPA

>  <FRAG_ATOM_NUM>  (1508) 
fragi: 7  fragj: 11

>  <atom.prop.CHAIN_ID>  (1508) 
A A A A A A A Z Z Z Z Z Z Z Z Z Z Z

>  <atom.prop.IS_HEAVY_ATOM>  (1508) 
1 0 0 0 1 1 1 1 0 0 0 1 0 0 1 0 0 0

>  <DIFUSE_FUNC_ATOM>  (1508) 
atom 6   atom 7   

>  <FINAL_SINGLE_POINT_ENERGY>  (1508) 
0

>  <NONCOV_INTER_ENERGY_QM>  (1508) 
0

>  <FF_Energy>  (1508) 
17.71

>  <QM_Energy>  (1508) 
-1.77

>  <source>  (1508) 
ACET_PRPA_16

>  <Index>  (1508) 
33874

$$$$
ACET-pdb3lpl-A-GLU-522:PRPA-pdb3lpl-B-LEU-264
     RDKit          3D

 18 16  0  0  0  0  0  0  0  0999 V2000
    0.0215    1.5078    0.0261 C   0  0  0  0  0  0  0  0  0  0  0  0
   -0.7062    1.8204   -0.5512 H   0  0  0  0  0  0  0  0  0  0  0  0
    0.9049    1.7932   -0.2898 H   0  0  0  0  0  0  0  0  0  0  0  0
   -0.1367    1.8839    1.0368 H   0  0  0  0  0  0  0  0  0  0  0  0
    0.0000    0.0000    0.0000 C   0  0  0  0  0  0  0  0  0  0  0  0
   -1.1026   -0.5984   -0.0000 O   0  0  0  0  0  1  0  0  0  0  0  0
    1.1026   -0.5842    0.0000 O   0  0  0  0  0  0  0  0  0  0  0  0
   -3.9934    0.0240   -2.7425 C   0  0  0  0  0  0  0  0  0  0  0  0
   -3.3184    0.0216   -3.5069 H   0  0  0  0  0  0  0  0  0  0  0  0
   -3.7910    0.8493   -2.1796 H   0  0  0  0  0  0  0  0  0  0  0  0
   -4.9792    0.1695   -3.1844 H   0  0  0  0  0  0  0  0  0  0  0  0
   -3.6745   -1.1972   -1.8684 C   0  0  0  0  0  0  0  0  0  0  0  0
   -4.2555   -1.9567   -2.1380 H   0  0  0  0  0  0  0  0  0  0  0  0
   -3.8829   -0.9609   -0.8249 H   0  0  0  0  0  0  0  0  0  0  0  0
   -2.1897   -1.6135   -2.0574 C   0  0  0  0  0  0  0  0  0  0  0  0
   -1.6084   -0.8512   -1.7899 H   0  0  0  0  0  0  0  0  0  0  0  0
   -2.0055   -2.4047   -1.4827 H   0  0  0  0  0  0  0  0  0  0  0  0
   -2.0416   -1.8405   -3.0147 H   0  0  0  0  0  0  0  0  0  0  0  0
  1  5  1  0
  5  6  1  0
  5  7  2  0
  1  2  1  0
  1  3  1  0
  1  4  1  0
  8 12  1  0
 12 15  1  0
  8  9  1  0
  8 10  1  0
  8 11  1  0
 12 13  1  0
 12 14  1  0
 15 16  1  0
 15 17  1  0
 15 18  1  0
M  CHG  1   6  -1
M  END
>  <PDB_ID>  (1509) 
pdb3lpl

>  <RESIDUE_NAME>  (1509) 
GLU   LEU

>  <FRAG_NAME>  (1509) 
ACET   PRPA

>  <FRAG_ATOM_NUM>  (1509) 
fragi: 7  fragj: 11

>  <atom.prop.CHAIN_ID>  (1509) 
A A A A A A A Z Z Z Z Z Z Z Z Z Z Z

>  <atom.prop.IS_HEAVY_ATOM>  (1509) 
1 0 0 0 1 1 1 1 0 0 0 1 0 0 1 0 0 0

>  <DIFUSE_FUNC_ATOM>  (1509) 
atom 6   atom 7   

>  <FINAL_SINGLE_POINT_ENERGY>  (1509) 
0

>  <NONCOV_INTER_ENERGY_QM>  (1509) 
0

>  <FF_Energy>  (1509) 
24.24

>  <QM_Energy>  (1509) 
3.77

>  <source>  (1509) 
ACET_PRPA_16

>  <Index>  (1509) 
34869

$$$$
ACET-pdb3lpl-B-ASP-415:PRPA-pdb3lpl-B-ARG-418
     RDKit          3D

 18 16  0  0  0  0  0  0  0  0999 V2000
    0.0146    1.5480   -0.0289 C   0  0  0  0  0  0  0  0  0  0  0  0
    0.0336    1.8403   -0.9744 H   0  0  0  0  0  0  0  0  0  0  0  0
    0.8169    1.8599    0.4577 H   0  0  0  0  0  0  0  0  0  0  0  0
   -0.8620    1.9906    0.4441 H   0  0  0  0  0  0  0  0  0  0  0  0
    0.0000    0.0000    0.0000 C   0  0  0  0  0  0  0  0  0  0  0  0
   -1.1066   -0.6067   -0.0000 O   0  0  0  0  0  1  0  0  0  0  0  0
    1.1066   -0.6097    0.0000 O   0  0  0  0  0  0  0  0  0  0  0  0
   -1.9808   -1.2619    3.2994 C   0  0  0  0  0  0  0  0  0  0  0  0
   -2.0185   -2.2573    3.3032 H   0  0  0  0  0  0  0  0  0  0  0  0
   -2.1938   -0.9153    2.3903 H   0  0  0  0  0  0  0  0  0  0  0  0
   -2.7344   -0.8890    3.9931 H   0  0  0  0  0  0  0  0  0  0  0  0
   -0.5598   -0.8425    3.6413 C   0  0  0  0  0  0  0  0  0  0  0  0
   -0.5025    0.1520    3.6619 H   0  0  0  0  0  0  0  0  0  0  0  0
   -0.3063   -1.2184    4.5273 H   0  0  0  0  0  0  0  0  0  0  0  0
    0.4310   -1.3548    2.6088 C   0  0  0  0  0  0  0  0  0  0  0  0
    0.3591   -2.3485    2.5771 H   0  0  0  0  0  0  0  0  0  0  0  0
    0.1834   -0.9661    1.7246 H   0  0  0  0  0  0  0  0  0  0  0  0
    1.4561   -1.0752    2.8517 H   0  0  0  0  0  0  0  0  0  0  0  0
  1  5  1  0
  5  6  1  0
  5  7  2  0
  1  2  1  0
  1  3  1  0
  1  4  1  0
  8 12  1  0
 12 15  1  0
  8  9  1  0
  8 10  1  0
  8 11  1  0
 12 13  1  0
 12 14  1  0
 15 16  1  0
 15 17  1  0
 15 18  1  0
M  CHG  1   6  -1
M  END
>  <PDB_ID>  (1510) 
pdb3lpl

>  <RESIDUE_NAME>  (1510) 
ASP   ARG

>  <FRAG_NAME>  (1510) 
ACET   PRPA

>  <FRAG_ATOM_NUM>  (1510) 
fragi: 7  fragj: 11

>  <atom.prop.CHAIN_ID>  (1510) 
A A A A A A A Z Z Z Z Z Z Z Z Z Z Z

>  <atom.prop.IS_HEAVY_ATOM>  (1510) 
1 0 0 0 1 1 1 1 0 0 0 1 0 0 1 0 0 0

>  <DIFUSE_FUNC_ATOM>  (1510) 
atom 6   atom 7   

>  <FINAL_SINGLE_POINT_ENERGY>  (1510) 
0

>  <NONCOV_INTER_ENERGY_QM>  (1510) 
0

>  <FF_Energy>  (1510) 
31.65

>  <QM_Energy>  (1510) 
2.73

>  <source>  (1510) 
ACET_PRPA_16

>  <Index>  (1510) 
35952

$$$$
ACET-pdb3mez-B-ASP-70:PRPA-pdb3mez-B-VAL-81
     RDKit          3D

 18 16  0  0  0  0  0  0  0  0999 V2000
   -0.0037    1.5090   -0.0180 C   0  0  0  0  0  0  0  0  0  0  0  0
    0.9360    1.8346   -0.0910 H   0  0  0  0  0  0  0  0  0  0  0  0
   -0.4142    1.8432    0.8264 H   0  0  0  0  0  0  0  0  0  0  0  0
   -0.5658    1.9334   -0.8500 H   0  0  0  0  0  0  0  0  0  0  0  0
    0.0000    0.0000    0.0000 C   0  0  0  0  0  0  0  0  0  0  0  0
   -1.0520   -0.5769    0.0000 O   0  0  0  0  0  1  0  0  0  0  0  0
    1.0520   -0.6012    0.0000 O   0  0  0  0  0  0  0  0  0  0  0  0
   -3.3793   -1.6458   -1.0627 C   0  0  0  0  0  0  0  0  0  0  0  0
   -2.4605   -1.4429   -0.6900 H   0  0  0  0  0  0  0  0  0  0  0  0
   -3.5464   -2.6363   -0.9398 H   0  0  0  0  0  0  0  0  0  0  0  0
   -3.3514   -1.4627   -2.0576 H   0  0  0  0  0  0  0  0  0  0  0  0
   -4.4033   -0.8503   -0.4070 C   0  0  0  0  0  0  0  0  0  0  0  0
   -5.1973   -1.4389   -0.2340 H   0  0  0  0  0  0  0  0  0  0  0  0
   -4.7311   -0.0470   -1.0668 H   0  0  0  0  0  0  0  0  0  0  0  0
   -3.8602   -0.3260    0.8275 C   0  0  0  0  0  0  0  0  0  0  0  0
   -4.1118   -0.9086    1.6169 H   0  0  0  0  0  0  0  0  0  0  0  0
   -2.8487   -0.2775    0.7930 H   0  0  0  0  0  0  0  0  0  0  0  0
   -4.2055    0.6079    1.0139 H   0  0  0  0  0  0  0  0  0  0  0  0
  1  5  1  0
  5  6  1  0
  5  7  2  0
  1  2  1  0
  1  3  1  0
  1  4  1  0
  8 12  1  0
 12 15  1  0
  8  9  1  0
  8 10  1  0
  8 11  1  0
 12 13  1  0
 12 14  1  0
 15 16  1  0
 15 17  1  0
 15 18  1  0
M  CHG  1   6  -1
M  END
>  <PDB_ID>  (1511) 
pdb3mez

>  <RESIDUE_NAME>  (1511) 
ASP   VAL

>  <FRAG_NAME>  (1511) 
ACET   PRPA

>  <FRAG_ATOM_NUM>  (1511) 
fragi: 7  fragj: 11

>  <atom.prop.CHAIN_ID>  (1511) 
A A A A A A A Z Z Z Z Z Z Z Z Z Z Z

>  <atom.prop.IS_HEAVY_ATOM>  (1511) 
1 0 0 0 1 1 1 1 0 0 0 1 0 0 1 0 0 0

>  <DIFUSE_FUNC_ATOM>  (1511) 
atom 6   atom 7   

>  <FINAL_SINGLE_POINT_ENERGY>  (1511) 
0

>  <NONCOV_INTER_ENERGY_QM>  (1511) 
0

>  <FF_Energy>  (1511) 
36.65

>  <QM_Energy>  (1511) 
0.34

>  <source>  (1511) 
ACET_PRPA_16

>  <Index>  (1511) 
37483

$$$$
ACET-pdb3mes-A-ASP-142:PRPA-pdb3mes-A-ARG-128
     RDKit          3D

 18 16  0  0  0  0  0  0  0  0999 V2000
    0.0053    1.5187    0.0105 C   0  0  0  0  0  0  0  0  0  0  0  0
    0.7198    1.8403   -0.6004 H   0  0  0  0  0  0  0  0  0  0  0  0
    0.1743    1.8315    0.9376 H   0  0  0  0  0  0  0  0  0  0  0  0
   -0.9393    1.9491   -0.3223 H   0  0  0  0  0  0  0  0  0  0  0  0
    0.0000    0.0000    0.0000 C   0  0  0  0  0  0  0  0  0  0  0  0
   -1.0978   -0.5959    0.0000 O   0  0  0  0  0  1  0  0  0  0  0  0
    1.0978   -0.6005    0.0000 O   0  0  0  0  0  0  0  0  0  0  0  0
    5.4509   -2.7605   -0.8782 C   0  0  0  0  0  0  0  0  0  0  0  0
    5.5746   -3.7150   -0.6309 H   0  0  0  0  0  0  0  0  0  0  0  0
    5.7905   -2.1680   -0.1571 H   0  0  0  0  0  0  0  0  0  0  0  0
    6.0280   -2.5648   -1.7819 H   0  0  0  0  0  0  0  0  0  0  0  0
    3.9597   -2.5024   -1.0377 C   0  0  0  0  0  0  0  0  0  0  0  0
    3.8207   -1.6451   -1.5251 H   0  0  0  0  0  0  0  0  0  0  0  0
    3.5446   -3.2550   -1.5407 H   0  0  0  0  0  0  0  0  0  0  0  0
    3.2659   -2.3972    0.3139 C   0  0  0  0  0  0  0  0  0  0  0  0
    3.8813   -1.9238    0.9404 H   0  0  0  0  0  0  0  0  0  0  0  0
    2.4325   -1.8625    0.1901 H   0  0  0  0  0  0  0  0  0  0  0  0
    3.0110   -3.3734    0.7263 H   0  0  0  0  0  0  0  0  0  0  0  0
  1  5  1  0
  5  6  1  0
  5  7  2  0
  1  2  1  0
  1  3  1  0
  1  4  1  0
  8 12  1  0
 12 15  1  0
  8  9  1  0
  8 10  1  0
  8 11  1  0
 12 13  1  0
 12 14  1  0
 15 16  1  0
 15 17  1  0
 15 18  1  0
M  CHG  1   6  -1
M  END
>  <PDB_ID>  (1512) 
pdb3mes

>  <RESIDUE_NAME>  (1512) 
ASP   ARG

>  <FRAG_NAME>  (1512) 
ACET   PRPA

>  <FRAG_ATOM_NUM>  (1512) 
fragi: 7  fragj: 11

>  <atom.prop.CHAIN_ID>  (1512) 
A A A A A A A Z Z Z Z Z Z Z Z Z Z Z

>  <atom.prop.IS_HEAVY_ATOM>  (1512) 
1 0 0 0 1 1 1 1 0 0 0 1 0 0 1 0 0 0

>  <DIFUSE_FUNC_ATOM>  (1512) 
atom 6   atom 7   

>  <FINAL_SINGLE_POINT_ENERGY>  (1512) 
0

>  <NONCOV_INTER_ENERGY_QM>  (1512) 
0

>  <FF_Energy>  (1512) 
19.18

>  <QM_Energy>  (1512) 
-1.39

>  <source>  (1512) 
ACET_PRPA_16

>  <Index>  (1512) 
37791

$$$$
ACET-pdb4jox-A-GLU-5:PRPA-pdb4jox-A-GLN-105
     RDKit          3D

 18 16  0  0  0  0  0  0  0  0999 V2000
    0.0013    1.5162   -0.0007 C   0  0  0  0  0  0  0  0  0  0  0  0
   -0.2304    1.8124   -0.9077 H   0  0  0  0  0  0  0  0  0  0  0  0
    0.8961    1.8109    0.2744 H   0  0  0  0  0  0  0  0  0  0  0  0
   -0.7290    1.9310    0.6940 H   0  0  0  0  0  0  0  0  0  0  0  0
    0.0000    0.0000    0.0000 C   0  0  0  0  0  0  0  0  0  0  0  0
   -1.0955   -0.5997   -0.0000 O   0  0  0  0  0  1  0  0  0  0  0  0
    1.0955   -0.5935    0.0000 O   0  0  0  0  0  0  0  0  0  0  0  0
    2.3943    1.4813    3.7171 C   0  0  0  0  0  0  0  0  0  0  0  0
    1.7414    1.9757    3.2022 H   0  0  0  0  0  0  0  0  0  0  0  0
    3.3272    2.0450    3.7258 H   0  0  0  0  0  0  0  0  0  0  0  0
    2.1121    1.5550    4.7674 H   0  0  0  0  0  0  0  0  0  0  0  0
    2.5479    0.0022    3.3377 C   0  0  0  0  0  0  0  0  0  0  0  0
    3.2764   -0.4033    3.9201 H   0  0  0  0  0  0  0  0  0  0  0  0
    1.6823   -0.4796    3.5723 H   0  0  0  0  0  0  0  0  0  0  0  0
    2.8806   -0.3254    1.8854 C   0  0  0  0  0  0  0  0  0  0  0  0
    2.1164   -0.0568    1.3105 H   0  0  0  0  0  0  0  0  0  0  0  0
    3.7033    0.1652    1.6238 H   0  0  0  0  0  0  0  0  0  0  0  0
    3.0574   -1.3916    1.7437 H   0  0  0  0  0  0  0  0  0  0  0  0
  1  5  1  0
  5  6  1  0
  5  7  2  0
  1  2  1  0
  1  3  1  0
  1  4  1  0
  8 12  1  0
 12 15  1  0
  8  9  1  0
  8 10  1  0
  8 11  1  0
 12 13  1  0
 12 14  1  0
 15 16  1  0
 15 17  1  0
 15 18  1  0
M  CHG  1   6  -1
M  END
>  <PDB_ID>  (1513) 
pdb4jox

>  <RESIDUE_NAME>  (1513) 
GLU   GLN

>  <FRAG_NAME>  (1513) 
ACET   PRPA

>  <FRAG_ATOM_NUM>  (1513) 
fragi: 7  fragj: 11

>  <atom.prop.CHAIN_ID>  (1513) 
A A A A A A A Z Z Z Z Z Z Z Z Z Z Z

>  <atom.prop.IS_HEAVY_ATOM>  (1513) 
1 0 0 0 1 1 1 1 0 0 0 1 0 0 1 0 0 0

>  <DIFUSE_FUNC_ATOM>  (1513) 
atom 6   atom 7   

>  <FINAL_SINGLE_POINT_ENERGY>  (1513) 
0

>  <NONCOV_INTER_ENERGY_QM>  (1513) 
0

>  <FF_Energy>  (1513) 
44.03

>  <QM_Energy>  (1513) 
4.99

>  <source>  (1513) 
ACET_PRPA_16

>  <Index>  (1513) 
39048

$$$$
ACET-pdb3mn2-A-GLU-318:PRPA-pdb3mn2-A-LYS-315
     RDKit          3D

 18 16  0  0  0  0  0  0  0  0999 V2000
   -0.0093    1.5083   -0.0020 C   0  0  0  0  0  0  0  0  0  0  0  0
   -0.9469    1.8046    0.0751 H   0  0  0  0  0  0  0  0  0  0  0  0
    0.4011    1.8105   -0.8466 H   0  0  0  0  0  0  0  0  0  0  0  0
    0.5515    1.9470    0.8233 H   0  0  0  0  0  0  0  0  0  0  0  0
    0.0000    0.0000    0.0000 C   0  0  0  0  0  0  0  0  0  0  0  0
   -1.0980   -0.5936    0.0000 O   0  0  0  0  0  1  0  0  0  0  0  0
    1.0980   -0.5933    0.0000 O   0  0  0  0  0  0  0  0  0  0  0  0
    0.9466    3.4347   -3.0525 C   0  0  0  0  0  0  0  0  0  0  0  0
    1.0870    3.7398   -4.0032 H   0  0  0  0  0  0  0  0  0  0  0  0
    1.8078    2.8405   -2.7468 H   0  0  0  0  0  0  0  0  0  0  0  0
    0.8249    4.3113   -2.4163 H   0  0  0  0  0  0  0  0  0  0  0  0
   -0.3399    2.6232   -2.9392 C   0  0  0  0  0  0  0  0  0  0  0  0
   -0.4443    2.3388   -1.9800 H   0  0  0  0  0  0  0  0  0  0  0  0
   -1.1096    3.2269   -3.1782 H   0  0  0  0  0  0  0  0  0  0  0  0
   -0.4118    1.3917   -3.8108 C   0  0  0  0  0  0  0  0  0  0  0  0
   -0.1023    1.6172   -4.7321 H   0  0  0  0  0  0  0  0  0  0  0  0
    0.1655    0.6754   -3.4253 H   0  0  0  0  0  0  0  0  0  0  0  0
   -1.4342    1.0187   -3.8708 H   0  0  0  0  0  0  0  0  0  0  0  0
  1  5  1  0
  5  6  1  0
  5  7  2  0
  1  2  1  0
  1  3  1  0
  1  4  1  0
  8 12  1  0
 12 15  1  0
  8  9  1  0
  8 10  1  0
  8 11  1  0
 12 13  1  0
 12 14  1  0
 15 16  1  0
 15 17  1  0
 15 18  1  0
M  CHG  1   6  -1
M  END
>  <PDB_ID>  (1514) 
pdb3mn2

>  <RESIDUE_NAME>  (1514) 
GLU   LYS

>  <FRAG_NAME>  (1514) 
ACET   PRPA

>  <FRAG_ATOM_NUM>  (1514) 
fragi: 7  fragj: 11

>  <atom.prop.CHAIN_ID>  (1514) 
A A A A A A A Z Z Z Z Z Z Z Z Z Z Z

>  <atom.prop.IS_HEAVY_ATOM>  (1514) 
1 0 0 0 1 1 1 1 0 0 0 1 0 0 1 0 0 0

>  <DIFUSE_FUNC_ATOM>  (1514) 
atom 6   atom 7   

>  <FINAL_SINGLE_POINT_ENERGY>  (1514) 
0

>  <NONCOV_INTER_ENERGY_QM>  (1514) 
0

>  <FF_Energy>  (1514) 
35.99

>  <QM_Energy>  (1514) 
3.86

>  <source>  (1514) 
ACET_PRPA_16

>  <Index>  (1514) 
39384

$$$$
ACET-pdb3mn2-A-GLU-318:PRPA-pdb3mn2-A-LYS-315
     RDKit          3D

 18 16  0  0  0  0  0  0  0  0999 V2000
   -0.0093    1.5083   -0.0020 C   0  0  0  0  0  0  0  0  0  0  0  0
   -0.9469    1.8046    0.0751 H   0  0  0  0  0  0  0  0  0  0  0  0
    0.4011    1.8105   -0.8466 H   0  0  0  0  0  0  0  0  0  0  0  0
    0.5515    1.9470    0.8233 H   0  0  0  0  0  0  0  0  0  0  0  0
    0.0000    0.0000    0.0000 C   0  0  0  0  0  0  0  0  0  0  0  0
   -1.0980   -0.5936    0.0000 O   0  0  0  0  0  1  0  0  0  0  0  0
    1.0980   -0.5933    0.0000 O   0  0  0  0  0  0  0  0  0  0  0  0
   -0.3399    2.6232   -2.9392 C   0  0  0  0  0  0  0  0  0  0  0  0
   -0.4443    2.3388   -1.9800 H   0  0  0  0  0  0  0  0  0  0  0  0
   -1.1096    3.2269   -3.1782 H   0  0  0  0  0  0  0  0  0  0  0  0
    0.5795    3.2031   -3.0201 H   0  0  0  0  0  0  0  0  0  0  0  0
   -0.4118    1.3917   -3.8108 C   0  0  0  0  0  0  0  0  0  0  0  0
   -0.1023    1.6172   -4.7321 H   0  0  0  0  0  0  0  0  0  0  0  0
    0.1655    0.6754   -3.4253 H   0  0  0  0  0  0  0  0  0  0  0  0
   -1.8463    0.8685   -3.8950 C   0  0  0  0  0  0  0  0  0  0  0  0
   -2.4658    1.6509   -3.9755 H   0  0  0  0  0  0  0  0  0  0  0  0
   -1.9288    0.2949   -4.7102 H   0  0  0  0  0  0  0  0  0  0  0  0
   -2.1377    0.2810   -3.0243 H   0  0  0  0  0  0  0  0  0  0  0  0
  1  5  1  0
  5  6  1  0
  5  7  2  0
  1  2  1  0
  1  3  1  0
  1  4  1  0
  8 12  1  0
 12 15  1  0
  8  9  1  0
  8 10  1  0
  8 11  1  0
 12 13  1  0
 12 14  1  0
 15 16  1  0
 15 17  1  0
 15 18  1  0
M  CHG  1   6  -1
M  END
>  <PDB_ID>  (1515) 
pdb3mn2

>  <RESIDUE_NAME>  (1515) 
GLU   LYS

>  <FRAG_NAME>  (1515) 
ACET   PRPA

>  <FRAG_ATOM_NUM>  (1515) 
fragi: 7  fragj: 11

>  <atom.prop.CHAIN_ID>  (1515) 
A A A A A A A Z Z Z Z Z Z Z Z Z Z Z

>  <atom.prop.IS_HEAVY_ATOM>  (1515) 
1 0 0 0 1 1 1 1 0 0 0 1 0 0 1 0 0 0

>  <DIFUSE_FUNC_ATOM>  (1515) 
atom 6   atom 7   

>  <FINAL_SINGLE_POINT_ENERGY>  (1515) 
0

>  <NONCOV_INTER_ENERGY_QM>  (1515) 
0

>  <FF_Energy>  (1515) 
31.1

>  <QM_Energy>  (1515) 
3.76

>  <source>  (1515) 
ACET_PRPA_16

>  <Index>  (1515) 
39392

$$$$
ACET-pdb4jo0-A-GLU-11:PRPA-pdb4jo0-A-ARG-163
     RDKit          3D

 18 16  0  0  0  0  0  0  0  0999 V2000
    0.0106    1.5442    0.0209 C   0  0  0  0  0  0  0  0  0  0  0  0
    0.6522    1.8195    0.7145 H   0  0  0  0  0  0  0  0  0  0  0  0
   -0.9057    1.8364    0.2276 H   0  0  0  0  0  0  0  0  0  0  0  0
    0.3111    2.0008   -0.9221 H   0  0  0  0  0  0  0  0  0  0  0  0
    0.0000    0.0000    0.0000 C   0  0  0  0  0  0  0  0  0  0  0  0
   -1.0810   -0.6221    0.0000 O   0  0  0  0  0  1  0  0  0  0  0  0
    1.0810   -0.6372    0.0000 O   0  0  0  0  0  0  0  0  0  0  0  0
   -5.8953    0.1888    0.1489 C   0  0  0  0  0  0  0  0  0  0  0  0
   -6.2435   -0.5752    0.6662 H   0  0  0  0  0  0  0  0  0  0  0  0
   -5.9212    0.0146   -0.8215 H   0  0  0  0  0  0  0  0  0  0  0  0
   -6.5122    1.0619    0.3611 H   0  0  0  0  0  0  0  0  0  0  0  0
   -4.4565    0.4199    0.5518 C   0  0  0  0  0  0  0  0  0  0  0  0
   -3.9972    0.9780   -0.1430 H   0  0  0  0  0  0  0  0  0  0  0  0
   -4.4263    0.9000    1.4316 H   0  0  0  0  0  0  0  0  0  0  0  0
   -3.6741   -0.8774    0.7014 C   0  0  0  0  0  0  0  0  0  0  0  0
   -4.0207   -1.5132    0.0441 H   0  0  0  0  0  0  0  0  0  0  0  0
   -2.7260   -0.6703    0.5746 H   0  0  0  0  0  0  0  0  0  0  0  0
   -3.8579   -1.2333    1.7151 H   0  0  0  0  0  0  0  0  0  0  0  0
  1  5  1  0
  5  6  1  0
  5  7  2  0
  1  2  1  0
  1  3  1  0
  1  4  1  0
  8 12  1  0
 12 15  1  0
  8  9  1  0
  8 10  1  0
  8 11  1  0
 12 13  1  0
 12 14  1  0
 15 16  1  0
 15 17  1  0
 15 18  1  0
M  CHG  1   6  -1
M  END
>  <PDB_ID>  (1516) 
pdb4jo0

>  <RESIDUE_NAME>  (1516) 
GLU   ARG

>  <FRAG_NAME>  (1516) 
ACET   PRPA

>  <FRAG_ATOM_NUM>  (1516) 
fragi: 7  fragj: 11

>  <atom.prop.CHAIN_ID>  (1516) 
A A A A A A A Z Z Z Z Z Z Z Z Z Z Z

>  <atom.prop.IS_HEAVY_ATOM>  (1516) 
1 0 0 0 1 1 1 1 0 0 0 1 0 0 1 0 0 0

>  <DIFUSE_FUNC_ATOM>  (1516) 
atom 6   atom 7   

>  <FINAL_SINGLE_POINT_ENERGY>  (1516) 
0

>  <NONCOV_INTER_ENERGY_QM>  (1516) 
0

>  <FF_Energy>  (1516) 
41.21

>  <QM_Energy>  (1516) 
1.45

>  <source>  (1516) 
ACET_PRPA_17

>  <Index>  (1516) 
793

$$$$
ACET-pdb3mkq-A-ASP-292:PRPA-pdb3mkq-A-ARG-15
     RDKit          3D

 18 16  0  0  0  0  0  0  0  0999 V2000
    0.0109    1.5232    0.0349 C   0  0  0  0  0  0  0  0  0  0  0  0
    0.9108    1.8421   -0.2439 H   0  0  0  0  0  0  0  0  0  0  0  0
   -0.1917    1.8219    0.9598 H   0  0  0  0  0  0  0  0  0  0  0  0
   -0.7247    1.9732   -0.6318 H   0  0  0  0  0  0  0  0  0  0  0  0
    0.0000    0.0000    0.0000 C   0  0  0  0  0  0  0  0  0  0  0  0
   -1.1019   -0.5969   -0.0000 O   0  0  0  0  0  1  0  0  0  0  0  0
    1.1019   -0.5981    0.0000 O   0  0  0  0  0  0  0  0  0  0  0  0
   -4.8212    1.1835   -0.3451 C   0  0  0  0  0  0  0  0  0  0  0  0
   -4.0953    1.1838    0.3391 H   0  0  0  0  0  0  0  0  0  0  0  0
   -5.6893    0.9439    0.0821 H   0  0  0  0  0  0  0  0  0  0  0  0
   -4.9085    2.1928   -0.7474 H   0  0  0  0  0  0  0  0  0  0  0  0
   -4.4971    0.1323   -1.3806 C   0  0  0  0  0  0  0  0  0  0  0  0
   -5.3411   -0.2141   -1.7818 H   0  0  0  0  0  0  0  0  0  0  0  0
   -3.9205    0.5290   -2.0908 H   0  0  0  0  0  0  0  0  0  0  0  0
   -3.7530   -1.0323   -0.7638 C   0  0  0  0  0  0  0  0  0  0  0  0
   -3.4535   -1.6409   -1.5075 H   0  0  0  0  0  0  0  0  0  0  0  0
   -2.9369   -0.6697   -0.3001 H   0  0  0  0  0  0  0  0  0  0  0  0
   -4.3405   -1.6088   -0.0492 H   0  0  0  0  0  0  0  0  0  0  0  0
  1  5  1  0
  5  6  1  0
  5  7  2  0
  1  2  1  0
  1  3  1  0
  1  4  1  0
  8 12  1  0
 12 15  1  0
  8  9  1  0
  8 10  1  0
  8 11  1  0
 12 13  1  0
 12 14  1  0
 15 16  1  0
 15 17  1  0
 15 18  1  0
M  CHG  1   6  -1
M  END
>  <PDB_ID>  (1517) 
pdb3mkq

>  <RESIDUE_NAME>  (1517) 
ASP   ARG

>  <FRAG_NAME>  (1517) 
ACET   PRPA

>  <FRAG_ATOM_NUM>  (1517) 
fragi: 7  fragj: 11

>  <atom.prop.CHAIN_ID>  (1517) 
A A A A A A A Z Z Z Z Z Z Z Z Z Z Z

>  <atom.prop.IS_HEAVY_ATOM>  (1517) 
1 0 0 0 1 1 1 1 0 0 0 1 0 0 1 0 0 0

>  <DIFUSE_FUNC_ATOM>  (1517) 
atom 6   atom 7   

>  <FINAL_SINGLE_POINT_ENERGY>  (1517) 
0

>  <NONCOV_INTER_ENERGY_QM>  (1517) 
0

>  <FF_Energy>  (1517) 
17.89

>  <QM_Energy>  (1517) 
-0.65

>  <source>  (1517) 
ACET_PRPA_17

>  <Index>  (1517) 
1625

$$$$
ACET-pdb3men-D-GLU-96:PRPA-pdb3men-A-LEU-238
     RDKit          3D

 18 16  0  0  0  0  0  0  0  0999 V2000
    0.1885    1.4880    0.0116 C   0  0  0  0  0  0  0  0  0  0  0  0
    0.7053    1.7349   -0.8063 H   0  0  0  0  0  0  0  0  0  0  0  0
    0.7176    1.7204    0.8254 H   0  0  0  0  0  0  0  0  0  0  0  0
   -0.7224    2.0866    0.0224 H   0  0  0  0  0  0  0  0  0  0  0  0
    0.0000    0.0000    0.0000 C   0  0  0  0  0  0  0  0  0  0  0  0
   -1.0888   -0.5520    0.0000 O   0  0  0  0  0  1  0  0  0  0  0  0
    1.0888   -0.6135   -0.0000 O   0  0  0  0  0  0  0  0  0  0  0  0
   -1.5508   -1.9025   -2.8673 C   0  0  0  0  0  0  0  0  0  0  0  0
   -2.2781   -1.7955   -3.5424 H   0  0  0  0  0  0  0  0  0  0  0  0
   -1.1378   -1.0148   -2.6732 H   0  0  0  0  0  0  0  0  0  0  0  0
   -0.8554   -2.5287   -3.2173 H   0  0  0  0  0  0  0  0  0  0  0  0
   -2.1424   -2.4769   -1.5749 C   0  0  0  0  0  0  0  0  0  0  0  0
   -1.4062   -2.5622   -0.8880 H   0  0  0  0  0  0  0  0  0  0  0  0
   -2.6136   -3.4508   -1.7085 H   0  0  0  0  0  0  0  0  0  0  0  0
   -3.2008   -1.4972   -0.9728 C   0  0  0  0  0  0  0  0  0  0  0  0
   -3.5040   -1.8610   -0.0992 H   0  0  0  0  0  0  0  0  0  0  0  0
   -2.7722   -0.6087   -0.8504 H   0  0  0  0  0  0  0  0  0  0  0  0
   -3.9645   -1.4316   -1.6066 H   0  0  0  0  0  0  0  0  0  0  0  0
  1  5  1  0
  5  6  1  0
  5  7  2  0
  1  2  1  0
  1  3  1  0
  1  4  1  0
  8 12  1  0
 12 15  1  0
  8  9  1  0
  8 10  1  0
  8 11  1  0
 12 13  1  0
 12 14  1  0
 15 16  1  0
 15 17  1  0
 15 18  1  0
M  CHG  1   6  -1
M  END
>  <PDB_ID>  (1518) 
pdb3men

>  <RESIDUE_NAME>  (1518) 
GLU   LEU

>  <FRAG_NAME>  (1518) 
ACET   PRPA

>  <FRAG_ATOM_NUM>  (1518) 
fragi: 7  fragj: 11

>  <atom.prop.CHAIN_ID>  (1518) 
A A A A A A A Z Z Z Z Z Z Z Z Z Z Z

>  <atom.prop.IS_HEAVY_ATOM>  (1518) 
1 0 0 0 1 1 1 1 0 0 0 1 0 0 1 0 0 0

>  <DIFUSE_FUNC_ATOM>  (1518) 
atom 6   atom 7   

>  <FINAL_SINGLE_POINT_ENERGY>  (1518) 
0

>  <NONCOV_INTER_ENERGY_QM>  (1518) 
0

>  <FF_Energy>  (1518) 
29.33

>  <QM_Energy>  (1518) 
2.91

>  <source>  (1518) 
ACET_PRPA_17

>  <Index>  (1518) 
1757

$$$$
ACET-pdb3mlt-A-GLU-202:PRPA-pdb3mlt-A-LYS-114
     RDKit          3D

 18 16  0  0  0  0  0  0  0  0999 V2000
    0.0082    1.4987    0.0065 C   0  0  0  0  0  0  0  0  0  0  0  0
   -0.8464    1.8036   -0.3809 H   0  0  0  0  0  0  0  0  0  0  0  0
    0.7794    1.7944   -0.5326 H   0  0  0  0  0  0  0  0  0  0  0  0
    0.1035    1.9092    1.0116 H   0  0  0  0  0  0  0  0  0  0  0  0
    0.0000    0.0000    0.0000 C   0  0  0  0  0  0  0  0  0  0  0  0
   -1.0912   -0.5994    0.0000 O   0  0  0  0  0  1  0  0  0  0  0  0
    1.0912   -0.5928    0.0000 O   0  0  0  0  0  0  0  0  0  0  0  0
    2.7768   -3.1842   -1.8244 C   0  0  0  0  0  0  0  0  0  0  0  0
    3.7266   -2.9086   -1.9232 H   0  0  0  0  0  0  0  0  0  0  0  0
    2.1879   -2.6127   -2.3833 H   0  0  0  0  0  0  0  0  0  0  0  0
    2.6689   -4.2246   -2.1310 H   0  0  0  0  0  0  0  0  0  0  0  0
    2.3684   -3.0159   -0.3521 C   0  0  0  0  0  0  0  0  0  0  0  0
    1.4163   -2.7301   -0.3160 H   0  0  0  0  0  0  0  0  0  0  0  0
    2.4858   -3.8871    0.1137 H   0  0  0  0  0  0  0  0  0  0  0  0
    3.2194   -1.9598    0.3732 C   0  0  0  0  0  0  0  0  0  0  0  0
    4.1797   -2.1057    0.1401 H   0  0  0  0  0  0  0  0  0  0  0  0
    2.9349   -1.0525    0.0670 H   0  0  0  0  0  0  0  0  0  0  0  0
    3.1024   -2.0224    1.4550 H   0  0  0  0  0  0  0  0  0  0  0  0
  1  5  1  0
  5  6  1  0
  5  7  2  0
  1  2  1  0
  1  3  1  0
  1  4  1  0
  8 12  1  0
 12 15  1  0
  8  9  1  0
  8 10  1  0
  8 11  1  0
 12 13  1  0
 12 14  1  0
 15 16  1  0
 15 17  1  0
 15 18  1  0
M  CHG  1   6  -1
M  END
>  <PDB_ID>  (1519) 
pdb3mlt

>  <RESIDUE_NAME>  (1519) 
GLU   LYS

>  <FRAG_NAME>  (1519) 
ACET   PRPA

>  <FRAG_ATOM_NUM>  (1519) 
fragi: 7  fragj: 11

>  <atom.prop.CHAIN_ID>  (1519) 
A A A A A A A Z Z Z Z Z Z Z Z Z Z Z

>  <atom.prop.IS_HEAVY_ATOM>  (1519) 
1 0 0 0 1 1 1 1 0 0 0 1 0 0 1 0 0 0

>  <DIFUSE_FUNC_ATOM>  (1519) 
atom 6   atom 7   

>  <FINAL_SINGLE_POINT_ENERGY>  (1519) 
0

>  <NONCOV_INTER_ENERGY_QM>  (1519) 
0

>  <FF_Energy>  (1519) 
24.98

>  <QM_Energy>  (1519) 
1.7

>  <source>  (1519) 
ACET_PRPA_17

>  <Index>  (1519) 
1957

$$$$
ACET-pdb3mkq-A-ASP-75:PRPA-pdb3mkq-A-PRO-57
     RDKit          3D

 18 16  0  0  0  0  0  0  0  0999 V2000
   -0.0210    1.5316    0.0186 C   0  0  0  0  0  0  0  0  0  0  0  0
    0.6690    1.8638   -0.6064 H   0  0  0  0  0  0  0  0  0  0  0  0
    0.1539    1.8377    0.9420 H   0  0  0  0  0  0  0  0  0  0  0  0
   -0.9842    1.9337   -0.2955 H   0  0  0  0  0  0  0  0  0  0  0  0
    0.0000    0.0000    0.0000 C   0  0  0  0  0  0  0  0  0  0  0  0
   -1.0968   -0.5991   -0.0000 O   0  0  0  0  0  1  0  0  0  0  0  0
    1.0968   -0.6077   -0.0000 O   0  0  0  0  0  0  0  0  0  0  0  0
    2.4849    0.0906   -4.1979 C   0  0  0  0  0  0  0  0  0  0  0  0
    3.0249    0.0546   -5.0607 H   0  0  0  0  0  0  0  0  0  0  0  0
    2.7585    0.9714   -3.6170 H   0  0  0  0  0  0  0  0  0  0  0  0
    1.4190    0.0172   -4.4137 H   0  0  0  0  0  0  0  0  0  0  0  0
    2.9884   -1.0766   -3.3434 C   0  0  0  0  0  0  0  0  0  0  0  0
    2.3432   -1.8408   -3.3693 H   0  0  0  0  0  0  0  0  0  0  0  0
    3.8848   -1.3876   -3.6569 H   0  0  0  0  0  0  0  0  0  0  0  0
    3.0805   -0.5048   -1.9517 C   0  0  0  0  0  0  0  0  0  0  0  0
    2.1867   -0.5264   -1.5077 H   0  0  0  0  0  0  0  0  0  0  0  0
    3.7402   -1.0200   -1.4086 H   0  0  0  0  0  0  0  0  0  0  0  0
    3.4163    0.5204   -2.1076 H   0  0  0  0  0  0  0  0  0  0  0  0
  1  5  1  0
  5  6  1  0
  5  7  2  0
  1  2  1  0
  1  3  1  0
  1  4  1  0
  8 12  1  0
 12 15  1  0
  8  9  1  0
  8 10  1  0
  8 11  1  0
 12 13  1  0
 12 14  1  0
 15 16  1  0
 15 17  1  0
 15 18  1  0
M  CHG  1   6  -1
M  END
>  <PDB_ID>  (1520) 
pdb3mkq

>  <RESIDUE_NAME>  (1520) 
ASP   PRO

>  <FRAG_NAME>  (1520) 
ACET   PRPA

>  <FRAG_ATOM_NUM>  (1520) 
fragi: 7  fragj: 11

>  <atom.prop.CHAIN_ID>  (1520) 
A A A A A A A Z Z Z Z Z Z Z Z Z Z Z

>  <atom.prop.IS_HEAVY_ATOM>  (1520) 
1 0 0 0 1 1 1 1 0 0 0 1 0 0 1 0 0 0

>  <DIFUSE_FUNC_ATOM>  (1520) 
atom 6   atom 7   

>  <FINAL_SINGLE_POINT_ENERGY>  (1520) 
0

>  <NONCOV_INTER_ENERGY_QM>  (1520) 
0

>  <FF_Energy>  (1520) 
18.19

>  <QM_Energy>  (1520) 
0.29

>  <source>  (1520) 
ACET_PRPA_17

>  <Index>  (1520) 
1962

$$$$
ACET-pdb3mkq-A-ASP-75:PRPA-pdb3mkq-A-PRO-57
     RDKit          3D

 18 16  0  0  0  0  0  0  0  0999 V2000
   -0.0210    1.5316    0.0186 C   0  0  0  0  0  0  0  0  0  0  0  0
    0.6690    1.8638   -0.6064 H   0  0  0  0  0  0  0  0  0  0  0  0
    0.1539    1.8377    0.9420 H   0  0  0  0  0  0  0  0  0  0  0  0
   -0.9842    1.9337   -0.2955 H   0  0  0  0  0  0  0  0  0  0  0  0
    0.0000    0.0000    0.0000 C   0  0  0  0  0  0  0  0  0  0  0  0
   -1.0968   -0.5991   -0.0000 O   0  0  0  0  0  1  0  0  0  0  0  0
    1.0968   -0.6077   -0.0000 O   0  0  0  0  0  0  0  0  0  0  0  0
    2.9884   -1.0766   -3.3434 C   0  0  0  0  0  0  0  0  0  0  0  0
    2.3432   -1.8408   -3.3693 H   0  0  0  0  0  0  0  0  0  0  0  0
    3.8848   -1.3876   -3.6569 H   0  0  0  0  0  0  0  0  0  0  0  0
    2.6301   -0.2460   -3.9515 H   0  0  0  0  0  0  0  0  0  0  0  0
    3.0805   -0.5048   -1.9517 C   0  0  0  0  0  0  0  0  0  0  0  0
    2.1867   -0.5264   -1.5077 H   0  0  0  0  0  0  0  0  0  0  0  0
    3.7402   -1.0200   -1.4086 H   0  0  0  0  0  0  0  0  0  0  0  0
    3.5450    0.9132   -2.1673 C   0  0  0  0  0  0  0  0  0  0  0  0
    3.2615    1.5062   -1.4202 H   0  0  0  0  0  0  0  0  0  0  0  0
    4.5339    0.9590   -2.2856 H   0  0  0  0  0  0  0  0  0  0  0  0
    3.0333    1.1843   -3.0908 H   0  0  0  0  0  0  0  0  0  0  0  0
  1  5  1  0
  5  6  1  0
  5  7  2  0
  1  2  1  0
  1  3  1  0
  1  4  1  0
  8 12  1  0
 12 15  1  0
  8  9  1  0
  8 10  1  0
  8 11  1  0
 12 13  1  0
 12 14  1  0
 15 16  1  0
 15 17  1  0
 15 18  1  0
M  CHG  1   6  -1
M  END
>  <PDB_ID>  (1521) 
pdb3mkq

>  <RESIDUE_NAME>  (1521) 
ASP   PRO

>  <FRAG_NAME>  (1521) 
ACET   PRPA

>  <FRAG_ATOM_NUM>  (1521) 
fragi: 7  fragj: 11

>  <atom.prop.CHAIN_ID>  (1521) 
A A A A A A A Z Z Z Z Z Z Z Z Z Z Z

>  <atom.prop.IS_HEAVY_ATOM>  (1521) 
1 0 0 0 1 1 1 1 0 0 0 1 0 0 1 0 0 0

>  <DIFUSE_FUNC_ATOM>  (1521) 
atom 6   atom 7   

>  <FINAL_SINGLE_POINT_ENERGY>  (1521) 
0

>  <NONCOV_INTER_ENERGY_QM>  (1521) 
0

>  <FF_Energy>  (1521) 
20.5

>  <QM_Energy>  (1521) 
-0.51

>  <source>  (1521) 
ACET_PRPA_17

>  <Index>  (1521) 
1965

$$$$
ACET-pdb3mtl-A-ASP-253:PRPA-pdb3mtl-A-LYS-245
     RDKit          3D

 18 16  0  0  0  0  0  0  0  0999 V2000
    0.0083    1.5265    0.0474 C   0  0  0  0  0  0  0  0  0  0  0  0
   -0.6026    1.8253    0.7812 H   0  0  0  0  0  0  0  0  0  0  0  0
   -0.3284    1.8740   -0.8275 H   0  0  0  0  0  0  0  0  0  0  0  0
    0.9851    1.9753    0.2283 H   0  0  0  0  0  0  0  0  0  0  0  0
    0.0000    0.0000    0.0000 C   0  0  0  0  0  0  0  0  0  0  0  0
   -1.0998   -0.5871   -0.0000 O   0  0  0  0  0  1  0  0  0  0  0  0
    1.0998   -0.6077   -0.0000 O   0  0  0  0  0  0  0  0  0  0  0  0
   -4.4242   -2.2024    1.7621 C   0  0  0  0  0  0  0  0  0  0  0  0
   -3.5025   -2.5621    1.9291 H   0  0  0  0  0  0  0  0  0  0  0  0
   -4.9456   -2.8733    1.2303 H   0  0  0  0  0  0  0  0  0  0  0  0
   -4.9211   -2.0455    2.7194 H   0  0  0  0  0  0  0  0  0  0  0  0
   -4.3046   -0.9131    0.9420 C   0  0  0  0  0  0  0  0  0  0  0  0
   -5.2287   -0.5597    0.7839 H   0  0  0  0  0  0  0  0  0  0  0  0
   -3.7846   -0.2478    1.4814 H   0  0  0  0  0  0  0  0  0  0  0  0
   -3.6235   -1.1227   -0.3735 C   0  0  0  0  0  0  0  0  0  0  0  0
   -2.6981   -1.4761   -0.2198 H   0  0  0  0  0  0  0  0  0  0  0  0
   -4.1406   -1.7864   -0.9176 H   0  0  0  0  0  0  0  0  0  0  0  0
   -3.5562   -0.1869   -0.9284 H   0  0  0  0  0  0  0  0  0  0  0  0
  1  5  1  0
  5  6  1  0
  5  7  2  0
  1  2  1  0
  1  3  1  0
  1  4  1  0
  8 12  1  0
 12 15  1  0
  8  9  1  0
  8 10  1  0
  8 11  1  0
 12 13  1  0
 12 14  1  0
 15 16  1  0
 15 17  1  0
 15 18  1  0
M  CHG  1   6  -1
M  END
>  <PDB_ID>  (1522) 
pdb3mtl

>  <RESIDUE_NAME>  (1522) 
ASP   LYS

>  <FRAG_NAME>  (1522) 
ACET   PRPA

>  <FRAG_ATOM_NUM>  (1522) 
fragi: 7  fragj: 11

>  <atom.prop.CHAIN_ID>  (1522) 
A A A A A A A Z Z Z Z Z Z Z Z Z Z Z

>  <atom.prop.IS_HEAVY_ATOM>  (1522) 
1 0 0 0 1 1 1 1 0 0 0 1 0 0 1 0 0 0

>  <DIFUSE_FUNC_ATOM>  (1522) 
atom 6   atom 7   

>  <FINAL_SINGLE_POINT_ENERGY>  (1522) 
0

>  <NONCOV_INTER_ENERGY_QM>  (1522) 
0

>  <FF_Energy>  (1522) 
24.8

>  <QM_Energy>  (1522) 
2.22

>  <source>  (1522) 
ACET_PRPA_17

>  <Index>  (1522) 
2710

$$$$
ACET-pdb3mc2-A-GLU-671:PRPA-pdb3mc2-A-ARG-307
     RDKit          3D

 18 16  0  0  0  0  0  0  0  0999 V2000
    0.0051    1.5284   -0.0055 C   0  0  0  0  0  0  0  0  0  0  0  0
    0.9387    1.8166   -0.0338 H   0  0  0  0  0  0  0  0  0  0  0  0
   -0.4650    1.8246    0.7986 H   0  0  0  0  0  0  0  0  0  0  0  0
   -0.5093    1.9312   -0.8781 H   0  0  0  0  0  0  0  0  0  0  0  0
    0.0000    0.0000    0.0000 C   0  0  0  0  0  0  0  0  0  0  0  0
   -1.0908   -0.6072   -0.0000 O   0  0  0  0  0  1  0  0  0  0  0  0
    1.0908   -0.6005    0.0000 O   0  0  0  0  0  0  0  0  0  0  0  0
    1.0402   -1.7192   -4.5227 C   0  0  0  0  0  0  0  0  0  0  0  0
    1.5498   -2.6139   -4.5865 H   0  0  0  0  0  0  0  0  0  0  0  0
    1.6294   -0.9547   -5.0292 H   0  0  0  0  0  0  0  0  0  0  0  0
    0.0268   -1.8804   -4.8903 H   0  0  0  0  0  0  0  0  0  0  0  0
    0.9664   -1.3781   -3.0274 C   0  0  0  0  0  0  0  0  0  0  0  0
    0.5781   -0.4758   -2.9290 H   0  0  0  0  0  0  0  0  0  0  0  0
    0.4137   -2.0601   -2.5757 H   0  0  0  0  0  0  0  0  0  0  0  0
    2.3507   -1.3697   -2.3457 C   0  0  0  0  0  0  0  0  0  0  0  0
    2.9633   -0.7535   -2.8516 H   0  0  0  0  0  0  0  0  0  0  0  0
    2.2533   -1.0230   -1.4072 H   0  0  0  0  0  0  0  0  0  0  0  0
    2.8379   -2.3430   -2.2869 H   0  0  0  0  0  0  0  0  0  0  0  0
  1  5  1  0
  5  6  1  0
  5  7  2  0
  1  2  1  0
  1  3  1  0
  1  4  1  0
  8 12  1  0
 12 15  1  0
  8  9  1  0
  8 10  1  0
  8 11  1  0
 12 13  1  0
 12 14  1  0
 15 16  1  0
 15 17  1  0
 15 18  1  0
M  CHG  1   6  -1
M  END
>  <PDB_ID>  (1523) 
pdb3mc2

>  <RESIDUE_NAME>  (1523) 
GLU   ARG

>  <FRAG_NAME>  (1523) 
ACET   PRPA

>  <FRAG_ATOM_NUM>  (1523) 
fragi: 7  fragj: 11

>  <atom.prop.CHAIN_ID>  (1523) 
A A A A A A A Z Z Z Z Z Z Z Z Z Z Z

>  <atom.prop.IS_HEAVY_ATOM>  (1523) 
1 0 0 0 1 1 1 1 0 0 0 1 0 0 1 0 0 0

>  <DIFUSE_FUNC_ATOM>  (1523) 
atom 6   atom 7   

>  <FINAL_SINGLE_POINT_ENERGY>  (1523) 
0

>  <NONCOV_INTER_ENERGY_QM>  (1523) 
0

>  <FF_Energy>  (1523) 
17.74

>  <QM_Energy>  (1523) 
-1.35

>  <source>  (1523) 
ACET_PRPA_17

>  <Index>  (1523) 
3497

$$$$
ACET-pdb3mc2-A-GLU-671:PRPA-pdb3mc2-A-ARG-307
     RDKit          3D

 18 16  0  0  0  0  0  0  0  0999 V2000
    0.0051    1.5284   -0.0055 C   0  0  0  0  0  0  0  0  0  0  0  0
    0.9387    1.8166   -0.0338 H   0  0  0  0  0  0  0  0  0  0  0  0
   -0.4650    1.8246    0.7986 H   0  0  0  0  0  0  0  0  0  0  0  0
   -0.5093    1.9312   -0.8781 H   0  0  0  0  0  0  0  0  0  0  0  0
    0.0000    0.0000    0.0000 C   0  0  0  0  0  0  0  0  0  0  0  0
   -1.0908   -0.6072   -0.0000 O   0  0  0  0  0  1  0  0  0  0  0  0
    1.0908   -0.6005    0.0000 O   0  0  0  0  0  0  0  0  0  0  0  0
    0.9664   -1.3781   -3.0274 C   0  0  0  0  0  0  0  0  0  0  0  0
    0.5781   -0.4758   -2.9290 H   0  0  0  0  0  0  0  0  0  0  0  0
    0.4137   -2.0601   -2.5757 H   0  0  0  0  0  0  0  0  0  0  0  0
    1.0188   -1.6203   -4.0889 H   0  0  0  0  0  0  0  0  0  0  0  0
    2.3507   -1.3697   -2.3457 C   0  0  0  0  0  0  0  0  0  0  0  0
    2.9633   -0.7535   -2.8516 H   0  0  0  0  0  0  0  0  0  0  0  0
    2.2533   -1.0230   -1.4072 H   0  0  0  0  0  0  0  0  0  0  0  0
    3.0429   -2.7525   -2.2620 C   0  0  0  0  0  0  0  0  0  0  0  0
    3.3110   -3.0109   -3.1458 H   0  0  0  0  0  0  0  0  0  0  0  0
    3.7342   -2.7041   -1.5977 H   0  0  0  0  0  0  0  0  0  0  0  0
    2.2586   -3.4250   -1.9148 H   0  0  0  0  0  0  0  0  0  0  0  0
  1  5  1  0
  5  6  1  0
  5  7  2  0
  1  2  1  0
  1  3  1  0
  1  4  1  0
  8 12  1  0
 12 15  1  0
  8  9  1  0
  8 10  1  0
  8 11  1  0
 12 13  1  0
 12 14  1  0
 15 16  1  0
 15 17  1  0
 15 18  1  0
M  CHG  1   6  -1
M  END
>  <PDB_ID>  (1524) 
pdb3mc2

>  <RESIDUE_NAME>  (1524) 
GLU   ARG

>  <FRAG_NAME>  (1524) 
ACET   PRPA

>  <FRAG_ATOM_NUM>  (1524) 
fragi: 7  fragj: 11

>  <atom.prop.CHAIN_ID>  (1524) 
A A A A A A A Z Z Z Z Z Z Z Z Z Z Z

>  <atom.prop.IS_HEAVY_ATOM>  (1524) 
1 0 0 0 1 1 1 1 0 0 0 1 0 0 1 0 0 0

>  <DIFUSE_FUNC_ATOM>  (1524) 
atom 6   atom 7   

>  <FINAL_SINGLE_POINT_ENERGY>  (1524) 
0

>  <NONCOV_INTER_ENERGY_QM>  (1524) 
0

>  <FF_Energy>  (1524) 
20.0

>  <QM_Energy>  (1524) 
-1.48

>  <source>  (1524) 
ACET_PRPA_17

>  <Index>  (1524) 
3499

$$$$
ACET-pdb4jyj-A-GLU-11:PRPA-pdb4jyj-A-VAL-20
     RDKit          3D

 18 16  0  0  0  0  0  0  0  0999 V2000
    0.2890    1.5200    0.0137 C   0  0  0  0  0  0  0  0  0  0  0  0
    0.7805    1.7252   -0.8036 H   0  0  0  0  0  0  0  0  0  0  0  0
    0.7931    1.7067    0.8288 H   0  0  0  0  0  0  0  0  0  0  0  0
   -0.6268    2.1110    0.0260 H   0  0  0  0  0  0  0  0  0  0  0  0
    0.0000    0.0000    0.0000 C   0  0  0  0  0  0  0  0  0  0  0  0
   -1.0842   -0.5071   -0.0000 O   0  0  0  0  0  1  0  0  0  0  0  0
    1.0842   -0.6447    0.0000 O   0  0  0  0  0  0  0  0  0  0  0  0
    4.5247   -1.1089    0.9386 C   0  0  0  0  0  0  0  0  0  0  0  0
    3.8247   -1.5826    0.4006 H   0  0  0  0  0  0  0  0  0  0  0  0
    5.4312   -1.3761    0.6068 H   0  0  0  0  0  0  0  0  0  0  0  0
    4.4353   -1.3755    1.9005 H   0  0  0  0  0  0  0  0  0  0  0  0
    4.3508    0.3860    0.8034 C   0  0  0  0  0  0  0  0  0  0  0  0
    4.3801    0.6035   -0.1706 H   0  0  0  0  0  0  0  0  0  0  0  0
    5.1691    0.9267    1.2788 H   0  0  0  0  0  0  0  0  0  0  0  0
    3.0168    0.7777    1.4213 C   0  0  0  0  0  0  0  0  0  0  0  0
    2.3063    0.7495    0.7185 H   0  0  0  0  0  0  0  0  0  0  0  0
    2.7911    0.1358    2.1544 H   0  0  0  0  0  0  0  0  0  0  0  0
    3.0846    1.7029    1.7937 H   0  0  0  0  0  0  0  0  0  0  0  0
  1  5  1  0
  5  6  1  0
  5  7  2  0
  1  2  1  0
  1  3  1  0
  1  4  1  0
  8 12  1  0
 12 15  1  0
  8  9  1  0
  8 10  1  0
  8 11  1  0
 12 13  1  0
 12 14  1  0
 15 16  1  0
 15 17  1  0
 15 18  1  0
M  CHG  1   6  -1
M  END
>  <PDB_ID>  (1525) 
pdb4jyj

>  <RESIDUE_NAME>  (1525) 
GLU   VAL

>  <FRAG_NAME>  (1525) 
ACET   PRPA

>  <FRAG_ATOM_NUM>  (1525) 
fragi: 7  fragj: 11

>  <atom.prop.CHAIN_ID>  (1525) 
A A A A A A A Z Z Z Z Z Z Z Z Z Z Z

>  <atom.prop.IS_HEAVY_ATOM>  (1525) 
1 0 0 0 1 1 1 1 0 0 0 1 0 0 1 0 0 0

>  <DIFUSE_FUNC_ATOM>  (1525) 
atom 6   atom 7   

>  <FINAL_SINGLE_POINT_ENERGY>  (1525) 
0

>  <NONCOV_INTER_ENERGY_QM>  (1525) 
0

>  <FF_Energy>  (1525) 
18.45

>  <QM_Energy>  (1525) 
2.39

>  <source>  (1525) 
ACET_PRPA_17

>  <Index>  (1525) 
3534

$$$$
ACET-pdb3msy-A-ASP-58:PRPA-pdb3msy-A-PRO-29
     RDKit          3D

 18 16  0  0  0  0  0  0  0  0999 V2000
    0.0200    1.5317    0.0308 C   0  0  0  0  0  0  0  0  0  0  0  0
    0.9142    1.8413   -0.2716 H   0  0  0  0  0  0  0  0  0  0  0  0
   -0.1561    1.8302    0.9604 H   0  0  0  0  0  0  0  0  0  0  0  0
   -0.7304    1.9839   -0.6177 H   0  0  0  0  0  0  0  0  0  0  0  0
    0.0000    0.0000    0.0000 C   0  0  0  0  0  0  0  0  0  0  0  0
   -1.0950   -0.6141    0.0000 O   0  0  0  0  0  1  0  0  0  0  0  0
    1.0950   -0.5995    0.0000 O   0  0  0  0  0  0  0  0  0  0  0  0
   -0.7272    0.8615    4.0756 C   0  0  0  0  0  0  0  0  0  0  0  0
   -0.5727    1.5345    3.3572 H   0  0  0  0  0  0  0  0  0  0  0  0
   -0.6210    1.2867    4.9699 H   0  0  0  0  0  0  0  0  0  0  0  0
   -1.7172    0.4161    3.9769 H   0  0  0  0  0  0  0  0  0  0  0  0
    0.1628   -0.3093    3.9226 C   0  0  0  0  0  0  0  0  0  0  0  0
    1.0880   -0.0422    3.7040 H   0  0  0  0  0  0  0  0  0  0  0  0
    0.1329   -0.8995    4.7133 H   0  0  0  0  0  0  0  0  0  0  0  0
   -0.4724   -1.0306    2.7088 C   0  0  0  0  0  0  0  0  0  0  0  0
   -0.1754   -0.6111    1.8616 H   0  0  0  0  0  0  0  0  0  0  0  0
   -0.2463   -1.9963    2.7222 H   0  0  0  0  0  0  0  0  0  0  0  0
   -1.5385   -0.8740    2.8726 H   0  0  0  0  0  0  0  0  0  0  0  0
  1  5  1  0
  5  6  1  0
  5  7  2  0
  1  2  1  0
  1  3  1  0
  1  4  1  0
  8 12  1  0
 12 15  1  0
  8  9  1  0
  8 10  1  0
  8 11  1  0
 12 13  1  0
 12 14  1  0
 15 16  1  0
 15 17  1  0
 15 18  1  0
M  CHG  1   6  -1
M  END
>  <PDB_ID>  (1526) 
pdb3msy

>  <RESIDUE_NAME>  (1526) 
ASP   PRO

>  <FRAG_NAME>  (1526) 
ACET   PRPA

>  <FRAG_ATOM_NUM>  (1526) 
fragi: 7  fragj: 11

>  <atom.prop.CHAIN_ID>  (1526) 
A A A A A A A Z Z Z Z Z Z Z Z Z Z Z

>  <atom.prop.IS_HEAVY_ATOM>  (1526) 
1 0 0 0 1 1 1 1 0 0 0 1 0 0 1 0 0 0

>  <DIFUSE_FUNC_ATOM>  (1526) 
atom 6   atom 7   

>  <FINAL_SINGLE_POINT_ENERGY>  (1526) 
0

>  <NONCOV_INTER_ENERGY_QM>  (1526) 
0

>  <FF_Energy>  (1526) 
30.2

>  <QM_Energy>  (1526) 
3.36

>  <source>  (1526) 
ACET_PRPA_17

>  <Index>  (1526) 
4422

$$$$
ACET-pdb3mzy-A-ASP-63:PRPA-pdb3mzy-A-LYS-66
     RDKit          3D

 18 16  0  0  0  0  0  0  0  0999 V2000
    0.0204    1.5158    0.0265 C   0  0  0  0  0  0  0  0  0  0  0  0
    0.9648    1.8243   -0.0218 H   0  0  0  0  0  0  0  0  0  0  0  0
   -0.4024    1.8280    0.8709 H   0  0  0  0  0  0  0  0  0  0  0  0
   -0.5216    1.9644   -0.8060 H   0  0  0  0  0  0  0  0  0  0  0  0
    0.0000    0.0000    0.0000 C   0  0  0  0  0  0  0  0  0  0  0  0
   -1.0994   -0.5985    0.0000 O   0  0  0  0  0  1  0  0  0  0  0  0
    1.0994   -0.5909   -0.0000 O   0  0  0  0  0  0  0  0  0  0  0  0
   -0.3715    0.4436    3.1331 C   0  0  0  0  0  0  0  0  0  0  0  0
   -0.3645   -0.3000    3.8038 H   0  0  0  0  0  0  0  0  0  0  0  0
   -0.6775    0.0886    2.2485 H   0  0  0  0  0  0  0  0  0  0  0  0
   -1.0677    1.2136    3.4657 H   0  0  0  0  0  0  0  0  0  0  0  0
    1.0381    0.9877    2.9869 C   0  0  0  0  0  0  0  0  0  0  0  0
    1.0258    1.7317    2.3173 H   0  0  0  0  0  0  0  0  0  0  0  0
    1.3387    1.3430    3.8726 H   0  0  0  0  0  0  0  0  0  0  0  0
    2.0223   -0.0624    2.5257 C   0  0  0  0  0  0  0  0  0  0  0  0
    2.0419   -0.8080    3.1924 H   0  0  0  0  0  0  0  0  0  0  0  0
    1.7298   -0.4198    1.6382 H   0  0  0  0  0  0  0  0  0  0  0  0
    3.0219    0.3618    2.4310 H   0  0  0  0  0  0  0  0  0  0  0  0
  1  5  1  0
  5  6  1  0
  5  7  2  0
  1  2  1  0
  1  3  1  0
  1  4  1  0
  8 12  1  0
 12 15  1  0
  8  9  1  0
  8 10  1  0
  8 11  1  0
 12 13  1  0
 12 14  1  0
 15 16  1  0
 15 17  1  0
 15 18  1  0
M  CHG  1   6  -1
M  END
>  <PDB_ID>  (1527) 
pdb3mzy

>  <RESIDUE_NAME>  (1527) 
ASP   LYS

>  <FRAG_NAME>  (1527) 
ACET   PRPA

>  <FRAG_ATOM_NUM>  (1527) 
fragi: 7  fragj: 11

>  <atom.prop.CHAIN_ID>  (1527) 
A A A A A A A Z Z Z Z Z Z Z Z Z Z Z

>  <atom.prop.IS_HEAVY_ATOM>  (1527) 
1 0 0 0 1 1 1 1 0 0 0 1 0 0 1 0 0 0

>  <DIFUSE_FUNC_ATOM>  (1527) 
atom 6   atom 7   

>  <FINAL_SINGLE_POINT_ENERGY>  (1527) 
0

>  <NONCOV_INTER_ENERGY_QM>  (1527) 
0

>  <FF_Energy>  (1527) 
44.33

>  <QM_Energy>  (1527) 
2.68

>  <source>  (1527) 
ACET_PRPA_17

>  <Index>  (1527) 
5229

$$$$
ACET-pdb3mmy-C-GLU-203:PRPA-pdb3mmy-C-ARG-206
     RDKit          3D

 18 16  0  0  0  0  0  0  0  0999 V2000
    0.0133    1.5123   -0.0021 C   0  0  0  0  0  0  0  0  0  0  0  0
    0.9049    1.7955   -0.3037 H   0  0  0  0  0  0  0  0  0  0  0  0
   -0.1801    1.8056    0.9161 H   0  0  0  0  0  0  0  0  0  0  0  0
   -0.7387    1.9226   -0.6759 H   0  0  0  0  0  0  0  0  0  0  0  0
    0.0000    0.0000    0.0000 C   0  0  0  0  0  0  0  0  0  0  0  0
   -1.0977   -0.6006    0.0000 O   0  0  0  0  0  1  0  0  0  0  0  0
    1.0977   -0.5861   -0.0000 O   0  0  0  0  0  0  0  0  0  0  0  0
    3.8417   -1.3794    3.0869 C   0  0  0  0  0  0  0  0  0  0  0  0
    4.5182   -1.5407    2.3890 H   0  0  0  0  0  0  0  0  0  0  0  0
    3.8764   -2.0613    3.7967 H   0  0  0  0  0  0  0  0  0  0  0  0
    4.0370   -0.4054    3.5358 H   0  0  0  0  0  0  0  0  0  0  0  0
    2.4684   -1.4295    2.4433 C   0  0  0  0  0  0  0  0  0  0  0  0
    1.7765   -1.5993    3.1506 H   0  0  0  0  0  0  0  0  0  0  0  0
    2.2751   -0.5470    2.0063 H   0  0  0  0  0  0  0  0  0  0  0  0
    2.3500   -2.5108    1.3960 C   0  0  0  0  0  0  0  0  0  0  0  0
    1.7489   -2.1821    0.6724 H   0  0  0  0  0  0  0  0  0  0  0  0
    3.2589   -2.6915    1.0293 H   0  0  0  0  0  0  0  0  0  0  0  0
    1.9409   -3.4310    1.8131 H   0  0  0  0  0  0  0  0  0  0  0  0
  1  5  1  0
  5  6  1  0
  5  7  2  0
  1  2  1  0
  1  3  1  0
  1  4  1  0
  8 12  1  0
 12 15  1  0
  8  9  1  0
  8 10  1  0
  8 11  1  0
 12 13  1  0
 12 14  1  0
 15 16  1  0
 15 17  1  0
 15 18  1  0
M  CHG  1   6  -1
M  END
>  <PDB_ID>  (1528) 
pdb3mmy

>  <RESIDUE_NAME>  (1528) 
GLU   ARG

>  <FRAG_NAME>  (1528) 
ACET   PRPA

>  <FRAG_ATOM_NUM>  (1528) 
fragi: 7  fragj: 11

>  <atom.prop.CHAIN_ID>  (1528) 
A A A A A A A Z Z Z Z Z Z Z Z Z Z Z

>  <atom.prop.IS_HEAVY_ATOM>  (1528) 
1 0 0 0 1 1 1 1 0 0 0 1 0 0 1 0 0 0

>  <DIFUSE_FUNC_ATOM>  (1528) 
atom 6   atom 7   

>  <FINAL_SINGLE_POINT_ENERGY>  (1528) 
0

>  <NONCOV_INTER_ENERGY_QM>  (1528) 
0

>  <FF_Energy>  (1528) 
22.94

>  <QM_Energy>  (1528) 
-0.12

>  <source>  (1528) 
ACET_PRPA_17

>  <Index>  (1528) 
7000

$$$$
ACET-pdb3mc2-B-GLU-671:PRPA-pdb3mc2-B-ARG-307
     RDKit          3D

 18 16  0  0  0  0  0  0  0  0999 V2000
   -0.0062    1.5179   -0.0002 C   0  0  0  0  0  0  0  0  0  0  0  0
    0.9251    1.8192   -0.0104 H   0  0  0  0  0  0  0  0  0  0  0  0
   -0.4941    1.8136    0.7958 H   0  0  0  0  0  0  0  0  0  0  0  0
   -0.5059    1.9241   -0.8797 H   0  0  0  0  0  0  0  0  0  0  0  0
    0.0000    0.0000    0.0000 C   0  0  0  0  0  0  0  0  0  0  0  0
   -1.0898   -0.6087    0.0000 O   0  0  0  0  0  1  0  0  0  0  0  0
    1.0898   -0.5981   -0.0000 O   0  0  0  0  0  0  0  0  0  0  0  0
    1.0314   -1.7222   -4.5845 C   0  0  0  0  0  0  0  0  0  0  0  0
    1.5183   -2.6133   -4.7164 H   0  0  0  0  0  0  0  0  0  0  0  0
    1.6178   -0.9359   -5.0598 H   0  0  0  0  0  0  0  0  0  0  0  0
    0.0139   -1.8330   -4.9593 H   0  0  0  0  0  0  0  0  0  0  0  0
    0.9779   -1.4851   -3.0605 C   0  0  0  0  0  0  0  0  0  0  0  0
    0.5319   -0.6079   -2.8965 H   0  0  0  0  0  0  0  0  0  0  0  0
    0.4433   -2.2193   -2.6492 H   0  0  0  0  0  0  0  0  0  0  0  0
    2.3490   -1.4513   -2.3465 C   0  0  0  0  0  0  0  0  0  0  0  0
    2.9480   -0.8228   -2.8492 H   0  0  0  0  0  0  0  0  0  0  0  0
    2.2094   -1.0973   -1.4186 H   0  0  0  0  0  0  0  0  0  0  0  0
    2.8213   -2.4320   -2.2898 H   0  0  0  0  0  0  0  0  0  0  0  0
  1  5  1  0
  5  6  1  0
  5  7  2  0
  1  2  1  0
  1  3  1  0
  1  4  1  0
  8 12  1  0
 12 15  1  0
  8  9  1  0
  8 10  1  0
  8 11  1  0
 12 13  1  0
 12 14  1  0
 15 16  1  0
 15 17  1  0
 15 18  1  0
M  CHG  1   6  -1
M  END
>  <PDB_ID>  (1529) 
pdb3mc2

>  <RESIDUE_NAME>  (1529) 
GLU   ARG

>  <FRAG_NAME>  (1529) 
ACET   PRPA

>  <FRAG_ATOM_NUM>  (1529) 
fragi: 7  fragj: 11

>  <atom.prop.CHAIN_ID>  (1529) 
A A A A A A A Z Z Z Z Z Z Z Z Z Z Z

>  <atom.prop.IS_HEAVY_ATOM>  (1529) 
1 0 0 0 1 1 1 1 0 0 0 1 0 0 1 0 0 0

>  <DIFUSE_FUNC_ATOM>  (1529) 
atom 6   atom 7   

>  <FINAL_SINGLE_POINT_ENERGY>  (1529) 
0

>  <NONCOV_INTER_ENERGY_QM>  (1529) 
0

>  <FF_Energy>  (1529) 
16.44

>  <QM_Energy>  (1529) 
-1.8

>  <source>  (1529) 
ACET_PRPA_17

>  <Index>  (1529) 
7133

$$$$
ACET-pdb3mc2-B-GLU-671:PRPA-pdb3mc2-B-ARG-307
     RDKit          3D

 18 16  0  0  0  0  0  0  0  0999 V2000
   -0.0062    1.5179   -0.0002 C   0  0  0  0  0  0  0  0  0  0  0  0
    0.9251    1.8192   -0.0104 H   0  0  0  0  0  0  0  0  0  0  0  0
   -0.4941    1.8136    0.7958 H   0  0  0  0  0  0  0  0  0  0  0  0
   -0.5059    1.9241   -0.8797 H   0  0  0  0  0  0  0  0  0  0  0  0
    0.0000    0.0000    0.0000 C   0  0  0  0  0  0  0  0  0  0  0  0
   -1.0898   -0.6087    0.0000 O   0  0  0  0  0  1  0  0  0  0  0  0
    1.0898   -0.5981   -0.0000 O   0  0  0  0  0  0  0  0  0  0  0  0
    0.9779   -1.4851   -3.0605 C   0  0  0  0  0  0  0  0  0  0  0  0
    0.5319   -0.6079   -2.8965 H   0  0  0  0  0  0  0  0  0  0  0  0
    0.4433   -2.2193   -2.6492 H   0  0  0  0  0  0  0  0  0  0  0  0
    1.0157   -1.6526   -4.1369 H   0  0  0  0  0  0  0  0  0  0  0  0
    2.3490   -1.4513   -2.3465 C   0  0  0  0  0  0  0  0  0  0  0  0
    2.9480   -0.8228   -2.8492 H   0  0  0  0  0  0  0  0  0  0  0  0
    2.2094   -1.0973   -1.4186 H   0  0  0  0  0  0  0  0  0  0  0  0
    2.9933   -2.7894   -2.2692 C   0  0  0  0  0  0  0  0  0  0  0  0
    3.3741   -3.0256   -3.1767 H   0  0  0  0  0  0  0  0  0  0  0  0
    3.7647   -2.7460   -1.6153 H   0  0  0  0  0  0  0  0  0  0  0  0
    2.3414   -3.6064   -1.9598 H   0  0  0  0  0  0  0  0  0  0  0  0
  1  5  1  0
  5  6  1  0
  5  7  2  0
  1  2  1  0
  1  3  1  0
  1  4  1  0
  8 12  1  0
 12 15  1  0
  8  9  1  0
  8 10  1  0
  8 11  1  0
 12 13  1  0
 12 14  1  0
 15 16  1  0
 15 17  1  0
 15 18  1  0
M  CHG  1   6  -1
M  END
>  <PDB_ID>  (1530) 
pdb3mc2

>  <RESIDUE_NAME>  (1530) 
GLU   ARG

>  <FRAG_NAME>  (1530) 
ACET   PRPA

>  <FRAG_ATOM_NUM>  (1530) 
fragi: 7  fragj: 11

>  <atom.prop.CHAIN_ID>  (1530) 
A A A A A A A Z Z Z Z Z Z Z Z Z Z Z

>  <atom.prop.IS_HEAVY_ATOM>  (1530) 
1 0 0 0 1 1 1 1 0 0 0 1 0 0 1 0 0 0

>  <DIFUSE_FUNC_ATOM>  (1530) 
atom 6   atom 7   

>  <FINAL_SINGLE_POINT_ENERGY>  (1530) 
0

>  <NONCOV_INTER_ENERGY_QM>  (1530) 
0

>  <FF_Energy>  (1530) 
19.73

>  <QM_Energy>  (1530) 
-1.7

>  <source>  (1530) 
ACET_PRPA_17

>  <Index>  (1530) 
7136

$$$$
ACET-pdb3n07-A-ASP-98:PRPA-pdb3n07-A-GLN-101
     RDKit          3D

 18 16  0  0  0  0  0  0  0  0999 V2000
    0.0024    1.5192    0.0301 C   0  0  0  0  0  0  0  0  0  0  0  0
   -0.3716    1.8544   -0.8258 H   0  0  0  0  0  0  0  0  0  0  0  0
    0.9349    1.8341    0.1525 H   0  0  0  0  0  0  0  0  0  0  0  0
   -0.6013    1.9210    0.8439 H   0  0  0  0  0  0  0  0  0  0  0  0
    0.0000    0.0000    0.0000 C   0  0  0  0  0  0  0  0  0  0  0  0
   -1.1030   -0.6005    0.0000 O   0  0  0  0  0  1  0  0  0  0  0  0
    1.1030   -0.5936   -0.0000 O   0  0  0  0  0  0  0  0  0  0  0  0
    2.6183   -2.9006    3.1453 C   0  0  0  0  0  0  0  0  0  0  0  0
    2.9518   -3.7599    2.7257 H   0  0  0  0  0  0  0  0  0  0  0  0
    1.5776   -2.7697    2.8489 H   0  0  0  0  0  0  0  0  0  0  0  0
    2.7473   -2.9877    4.2242 H   0  0  0  0  0  0  0  0  0  0  0  0
    3.5001   -1.7602    2.6127 C   0  0  0  0  0  0  0  0  0  0  0  0
    3.1991   -0.8978    3.0439 H   0  0  0  0  0  0  0  0  0  0  0  0
    4.4528   -1.9348    2.8996 H   0  0  0  0  0  0  0  0  0  0  0  0
    3.4921   -1.5609    1.1052 C   0  0  0  0  0  0  0  0  0  0  0  0
    2.6591   -1.0554    0.8483 H   0  0  0  0  0  0  0  0  0  0  0  0
    4.2909   -1.0037    0.8464 H   0  0  0  0  0  0  0  0  0  0  0  0
    3.5199   -2.4793    0.5189 H   0  0  0  0  0  0  0  0  0  0  0  0
  1  5  1  0
  5  6  1  0
  5  7  2  0
  1  2  1  0
  1  3  1  0
  1  4  1  0
  8 12  1  0
 12 15  1  0
  8  9  1  0
  8 10  1  0
  8 11  1  0
 12 13  1  0
 12 14  1  0
 15 16  1  0
 15 17  1  0
 15 18  1  0
M  CHG  1   6  -1
M  END
>  <PDB_ID>  (1531) 
pdb3n07

>  <RESIDUE_NAME>  (1531) 
ASP   GLN

>  <FRAG_NAME>  (1531) 
ACET   PRPA

>  <FRAG_ATOM_NUM>  (1531) 
fragi: 7  fragj: 11

>  <atom.prop.CHAIN_ID>  (1531) 
A A A A A A A Z Z Z Z Z Z Z Z Z Z Z

>  <atom.prop.IS_HEAVY_ATOM>  (1531) 
1 0 0 0 1 1 1 1 0 0 0 1 0 0 1 0 0 0

>  <DIFUSE_FUNC_ATOM>  (1531) 
atom 6   atom 7   

>  <FINAL_SINGLE_POINT_ENERGY>  (1531) 
0

>  <NONCOV_INTER_ENERGY_QM>  (1531) 
0

>  <FF_Energy>  (1531) 
21.96

>  <QM_Energy>  (1531) 
-0.28

>  <source>  (1531) 
ACET_PRPA_17

>  <Index>  (1531) 
8234

$$$$
ACET-pdb3n52-C-GLU-6:PRPA-pdb3n52-A-LEU-15
     RDKit          3D

 18 16  0  0  0  0  0  0  0  0999 V2000
    0.2338    1.4974    0.0156 C   0  0  0  0  0  0  0  0  0  0  0  0
    0.7419    1.7270   -0.8009 H   0  0  0  0  0  0  0  0  0  0  0  0
    0.7534    1.7070    0.8312 H   0  0  0  0  0  0  0  0  0  0  0  0
   -0.6789    2.0932    0.0283 H   0  0  0  0  0  0  0  0  0  0  0  0
    0.0000    0.0000    0.0000 C   0  0  0  0  0  0  0  0  0  0  0  0
   -1.0864   -0.5354   -0.0000 O   0  0  0  0  0  1  0  0  0  0  0  0
    1.0864   -0.6307   -0.0000 O   0  0  0  0  0  0  0  0  0  0  0  0
    1.2114   -1.5644    4.0972 C   0  0  0  0  0  0  0  0  0  0  0  0
    0.7451   -0.9368    4.7388 H   0  0  0  0  0  0  0  0  0  0  0  0
    2.0733   -1.8646    4.5323 H   0  0  0  0  0  0  0  0  0  0  0  0
    0.5780   -2.4419    3.9673 H   0  0  0  0  0  0  0  0  0  0  0  0
    1.6237   -0.6986    2.8641 C   0  0  0  0  0  0  0  0  0  0  0  0
    2.1585    0.0635    3.2118 H   0  0  0  0  0  0  0  0  0  0  0  0
    0.8148   -0.3073    2.2472 H   0  0  0  0  0  0  0  0  0  0  0  0
    2.3809   -1.5396    1.9790 C   0  0  0  0  0  0  0  0  0  0  0  0
    1.8396   -2.3388    1.6629 H   0  0  0  0  0  0  0  0  0  0  0  0
    2.6835   -1.0381    1.1495 H   0  0  0  0  0  0  0  0  0  0  0  0
    3.2161   -1.9042    2.4275 H   0  0  0  0  0  0  0  0  0  0  0  0
  1  5  1  0
  5  6  1  0
  5  7  2  0
  1  2  1  0
  1  3  1  0
  1  4  1  0
  8 12  1  0
 12 15  1  0
  8  9  1  0
  8 10  1  0
  8 11  1  0
 12 13  1  0
 12 14  1  0
 15 16  1  0
 15 17  1  0
 15 18  1  0
M  CHG  1   6  -1
M  END
>  <PDB_ID>  (1532) 
pdb3n52

>  <RESIDUE_NAME>  (1532) 
GLU   LEU

>  <FRAG_NAME>  (1532) 
ACET   PRPA

>  <FRAG_ATOM_NUM>  (1532) 
fragi: 7  fragj: 11

>  <atom.prop.CHAIN_ID>  (1532) 
A A A A A A A Z Z Z Z Z Z Z Z Z Z Z

>  <atom.prop.IS_HEAVY_ATOM>  (1532) 
1 0 0 0 1 1 1 1 0 0 0 1 0 0 1 0 0 0

>  <DIFUSE_FUNC_ATOM>  (1532) 
atom 6   atom 7   

>  <FINAL_SINGLE_POINT_ENERGY>  (1532) 
0

>  <NONCOV_INTER_ENERGY_QM>  (1532) 
0

>  <FF_Energy>  (1532) 
18.67

>  <QM_Energy>  (1532) 
2.13

>  <source>  (1532) 
ACET_PRPA_17

>  <Index>  (1532) 
8440

$$$$
ACET-pdb4k92-A-GLU-408:PRPA-pdb4k92-A-ARG-444
     RDKit          3D

 18 16  0  0  0  0  0  0  0  0999 V2000
    0.0073    1.5133   -0.0050 C   0  0  0  0  0  0  0  0  0  0  0  0
    0.5603    1.8061   -0.7656 H   0  0  0  0  0  0  0  0  0  0  0  0
    0.3784    1.8119    0.8575 H   0  0  0  0  0  0  0  0  0  0  0  0
   -0.9876    1.9437   -0.1188 H   0  0  0  0  0  0  0  0  0  0  0  0
    0.0000    0.0000    0.0000 C   0  0  0  0  0  0  0  0  0  0  0  0
   -1.1072   -0.5859   -0.0000 O   0  0  0  0  0  1  0  0  0  0  0  0
    1.1072   -0.5922   -0.0000 O   0  0  0  0  0  0  0  0  0  0  0  0
    1.5818   -1.5084    3.7792 C   0  0  0  0  0  0  0  0  0  0  0  0
    2.0572   -1.4004    2.9092 H   0  0  0  0  0  0  0  0  0  0  0  0
    1.6160   -2.4618    4.0681 H   0  0  0  0  0  0  0  0  0  0  0  0
    2.1055   -0.9109    4.5254 H   0  0  0  0  0  0  0  0  0  0  0  0
    0.1332   -1.1240    3.5810 C   0  0  0  0  0  0  0  0  0  0  0  0
   -0.3865   -1.3331    4.4022 H   0  0  0  0  0  0  0  0  0  0  0  0
    0.0682   -0.1552    3.3679 H   0  0  0  0  0  0  0  0  0  0  0  0
   -0.4796   -1.9018    2.4249 C   0  0  0  0  0  0  0  0  0  0  0  0
   -1.4505   -2.0005    2.5996 H   0  0  0  0  0  0  0  0  0  0  0  0
   -0.3197   -1.3898    1.5913 H   0  0  0  0  0  0  0  0  0  0  0  0
   -0.0235   -2.8880    2.3389 H   0  0  0  0  0  0  0  0  0  0  0  0
  1  5  1  0
  5  6  1  0
  5  7  2  0
  1  2  1  0
  1  3  1  0
  1  4  1  0
  8 12  1  0
 12 15  1  0
  8  9  1  0
  8 10  1  0
  8 11  1  0
 12 13  1  0
 12 14  1  0
 15 16  1  0
 15 17  1  0
 15 18  1  0
M  CHG  1   6  -1
M  END
>  <PDB_ID>  (1533) 
pdb4k92

>  <RESIDUE_NAME>  (1533) 
GLU   ARG

>  <FRAG_NAME>  (1533) 
ACET   PRPA

>  <FRAG_ATOM_NUM>  (1533) 
fragi: 7  fragj: 11

>  <atom.prop.CHAIN_ID>  (1533) 
A A A A A A A Z Z Z Z Z Z Z Z Z Z Z

>  <atom.prop.IS_HEAVY_ATOM>  (1533) 
1 0 0 0 1 1 1 1 0 0 0 1 0 0 1 0 0 0

>  <DIFUSE_FUNC_ATOM>  (1533) 
atom 6   atom 7   

>  <FINAL_SINGLE_POINT_ENERGY>  (1533) 
0

>  <NONCOV_INTER_ENERGY_QM>  (1533) 
0

>  <FF_Energy>  (1533) 
19.65

>  <QM_Energy>  (1533) 
0.22

>  <source>  (1533) 
ACET_PRPA_17

>  <Index>  (1533) 
8491

$$$$
ACET-pdb3n4g-C-GLU-79:PRPA-pdb3n4g-A-LEU-118
     RDKit          3D

 18 16  0  0  0  0  0  0  0  0999 V2000
    0.0097    1.5345    0.0154 C   0  0  0  0  0  0  0  0  0  0  0  0
   -0.2207    1.8262    0.9385 H   0  0  0  0  0  0  0  0  0  0  0  0
   -0.6834    1.8437   -0.6269 H   0  0  0  0  0  0  0  0  0  0  0  0
    0.9444    2.0258   -0.2547 H   0  0  0  0  0  0  0  0  0  0  0  0
    0.0000    0.0000    0.0000 C   0  0  0  0  0  0  0  0  0  0  0  0
   -1.0980   -0.5735    0.0000 O   0  0  0  0  0  1  0  0  0  0  0  0
    1.0980   -0.5940    0.0000 O   0  0  0  0  0  0  0  0  0  0  0  0
   -4.0054    2.3212   -3.7344 C   0  0  0  0  0  0  0  0  0  0  0  0
   -4.3576    1.3699   -3.7618 H   0  0  0  0  0  0  0  0  0  0  0  0
   -3.2955    2.4003   -4.4536 H   0  0  0  0  0  0  0  0  0  0  0  0
   -4.8272    2.9803   -4.0143 H   0  0  0  0  0  0  0  0  0  0  0  0
   -3.2991    2.4959   -2.3874 C   0  0  0  0  0  0  0  0  0  0  0  0
   -3.9862    2.6030   -1.6718 H   0  0  0  0  0  0  0  0  0  0  0  0
   -2.7043    3.4086   -2.3539 H   0  0  0  0  0  0  0  0  0  0  0  0
   -2.4373    1.2769   -2.0839 C   0  0  0  0  0  0  0  0  0  0  0  0
   -1.7499    1.1673   -2.8022 H   0  0  0  0  0  0  0  0  0  0  0  0
   -1.9808    1.4017   -1.2028 H   0  0  0  0  0  0  0  0  0  0  0  0
   -3.0144    0.4608   -2.0473 H   0  0  0  0  0  0  0  0  0  0  0  0
  1  5  1  0
  5  6  1  0
  5  7  2  0
  1  2  1  0
  1  3  1  0
  1  4  1  0
  8 12  1  0
 12 15  1  0
  8  9  1  0
  8 10  1  0
  8 11  1  0
 12 13  1  0
 12 14  1  0
 15 16  1  0
 15 17  1  0
 15 18  1  0
M  CHG  1   6  -1
M  END
>  <PDB_ID>  (1534) 
pdb3n4g

>  <RESIDUE_NAME>  (1534) 
GLU   LEU

>  <FRAG_NAME>  (1534) 
ACET   PRPA

>  <FRAG_ATOM_NUM>  (1534) 
fragi: 7  fragj: 11

>  <atom.prop.CHAIN_ID>  (1534) 
A A A A A A A Z Z Z Z Z Z Z Z Z Z Z

>  <atom.prop.IS_HEAVY_ATOM>  (1534) 
1 0 0 0 1 1 1 1 0 0 0 1 0 0 1 0 0 0

>  <DIFUSE_FUNC_ATOM>  (1534) 
atom 6   atom 7   

>  <FINAL_SINGLE_POINT_ENERGY>  (1534) 
0

>  <NONCOV_INTER_ENERGY_QM>  (1534) 
0

>  <FF_Energy>  (1534) 
32.43

>  <QM_Energy>  (1534) 
3.75

>  <source>  (1534) 
ACET_PRPA_17

>  <Index>  (1534) 
9497

$$$$
ACET-pdb3n2o-A-GLU-553:PRPA-pdb3n2o-A-LEU-67
     RDKit          3D

 18 16  0  0  0  0  0  0  0  0999 V2000
    0.0314    1.5016   -0.0018 C   0  0  0  0  0  0  0  0  0  0  0  0
    0.8221    1.7782   -0.5256 H   0  0  0  0  0  0  0  0  0  0  0  0
    0.1036    1.7946    0.9394 H   0  0  0  0  0  0  0  0  0  0  0  0
   -0.8617    1.9417   -0.4455 H   0  0  0  0  0  0  0  0  0  0  0  0
    0.0000    0.0000    0.0000 C   0  0  0  0  0  0  0  0  0  0  0  0
   -1.0885   -0.5998    0.0000 O   0  0  0  0  0  1  0  0  0  0  0  0
    1.0885   -0.5904   -0.0000 O   0  0  0  0  0  0  0  0  0  0  0  0
    5.7944    0.6058   -0.1581 C   0  0  0  0  0  0  0  0  0  0  0  0
    5.8679    1.5784   -0.1735 H   0  0  0  0  0  0  0  0  0  0  0  0
    5.5329    0.2165   -1.0116 H   0  0  0  0  0  0  0  0  0  0  0  0
    6.7649    0.1954    0.1207 H   0  0  0  0  0  0  0  0  0  0  0  0
    4.7268    0.2356    0.8716 C   0  0  0  0  0  0  0  0  0  0  0  0
    4.8985   -0.6930    1.2150 H   0  0  0  0  0  0  0  0  0  0  0  0
    4.7072    0.9126    1.7256 H   0  0  0  0  0  0  0  0  0  0  0  0
    3.3866    0.1685    0.2131 C   0  0  0  0  0  0  0  0  0  0  0  0
    3.3909   -0.5250   -0.5147 H   0  0  0  0  0  0  0  0  0  0  0  0
    2.6802   -0.0749    0.8856 H   0  0  0  0  0  0  0  0  0  0  0  0
    3.1534    1.0587   -0.1917 H   0  0  0  0  0  0  0  0  0  0  0  0
  1  5  1  0
  5  6  1  0
  5  7  2  0
  1  2  1  0
  1  3  1  0
  1  4  1  0
  8 12  1  0
 12 15  1  0
  8  9  1  0
  8 10  1  0
  8 11  1  0
 12 13  1  0
 12 14  1  0
 15 16  1  0
 15 17  1  0
 15 18  1  0
M  CHG  1   6  -1
M  END
>  <PDB_ID>  (1535) 
pdb3n2o

>  <RESIDUE_NAME>  (1535) 
GLU   LEU

>  <FRAG_NAME>  (1535) 
ACET   PRPA

>  <FRAG_ATOM_NUM>  (1535) 
fragi: 7  fragj: 11

>  <atom.prop.CHAIN_ID>  (1535) 
A A A A A A A Z Z Z Z Z Z Z Z Z Z Z

>  <atom.prop.IS_HEAVY_ATOM>  (1535) 
1 0 0 0 1 1 1 1 0 0 0 1 0 0 1 0 0 0

>  <DIFUSE_FUNC_ATOM>  (1535) 
atom 6   atom 7   

>  <FINAL_SINGLE_POINT_ENERGY>  (1535) 
0

>  <NONCOV_INTER_ENERGY_QM>  (1535) 
0

>  <FF_Energy>  (1535) 
28.27

>  <QM_Energy>  (1535) 
8.01

>  <source>  (1535) 
ACET_PRPA_17

>  <Index>  (1535) 
11595

$$$$
ACET-pdb3n2o-A-GLU-553:PRPA-pdb3n2o-A-LEU-67
     RDKit          3D

 18 16  0  0  0  0  0  0  0  0999 V2000
    0.0314    1.5016   -0.0018 C   0  0  0  0  0  0  0  0  0  0  0  0
    0.8221    1.7782   -0.5256 H   0  0  0  0  0  0  0  0  0  0  0  0
    0.1036    1.7946    0.9394 H   0  0  0  0  0  0  0  0  0  0  0  0
   -0.8617    1.9417   -0.4455 H   0  0  0  0  0  0  0  0  0  0  0  0
    0.0000    0.0000    0.0000 C   0  0  0  0  0  0  0  0  0  0  0  0
   -1.0885   -0.5998    0.0000 O   0  0  0  0  0  1  0  0  0  0  0  0
    1.0885   -0.5904   -0.0000 O   0  0  0  0  0  0  0  0  0  0  0  0
    4.6985    1.2093    2.1000 C   0  0  0  0  0  0  0  0  0  0  0  0
    4.5080    2.1246    1.7673 H   0  0  0  0  0  0  0  0  0  0  0  0
    3.9854    0.9063    2.7209 H   0  0  0  0  0  0  0  0  0  0  0  0
    5.5860    1.1765    2.5436 H   0  0  0  0  0  0  0  0  0  0  0  0
    4.7268    0.2356    0.8716 C   0  0  0  0  0  0  0  0  0  0  0  0
    4.8985   -0.6930    1.2150 H   0  0  0  0  0  0  0  0  0  0  0  0
    5.4879    0.4996    0.1374 H   0  0  0  0  0  0  0  0  0  0  0  0
    3.3866    0.1685    0.2131 C   0  0  0  0  0  0  0  0  0  0  0  0
    3.3909   -0.5250   -0.5147 H   0  0  0  0  0  0  0  0  0  0  0  0
    2.6802   -0.0749    0.8856 H   0  0  0  0  0  0  0  0  0  0  0  0
    3.1534    1.0587   -0.1917 H   0  0  0  0  0  0  0  0  0  0  0  0
  1  5  1  0
  5  6  1  0
  5  7  2  0
  1  2  1  0
  1  3  1  0
  1  4  1  0
  8 12  1  0
 12 15  1  0
  8  9  1  0
  8 10  1  0
  8 11  1  0
 12 13  1  0
 12 14  1  0
 15 16  1  0
 15 17  1  0
 15 18  1  0
M  CHG  1   6  -1
M  END
>  <PDB_ID>  (1536) 
pdb3n2o

>  <RESIDUE_NAME>  (1536) 
GLU   LEU

>  <FRAG_NAME>  (1536) 
ACET   PRPA

>  <FRAG_ATOM_NUM>  (1536) 
fragi: 7  fragj: 11

>  <atom.prop.CHAIN_ID>  (1536) 
A A A A A A A Z Z Z Z Z Z Z Z Z Z Z

>  <atom.prop.IS_HEAVY_ATOM>  (1536) 
1 0 0 0 1 1 1 1 0 0 0 1 0 0 1 0 0 0

>  <DIFUSE_FUNC_ATOM>  (1536) 
atom 6   atom 7   

>  <FINAL_SINGLE_POINT_ENERGY>  (1536) 
0

>  <NONCOV_INTER_ENERGY_QM>  (1536) 
0

>  <FF_Energy>  (1536) 
28.3

>  <QM_Energy>  (1536) 
7.91

>  <source>  (1536) 
ACET_PRPA_17

>  <Index>  (1536) 
11600

$$$$
ACET-pdb3nf5-A-GLU-1035:PRPA-pdb3nf5-A-LYS-967
     RDKit          3D

 18 16  0  0  0  0  0  0  0  0999 V2000
    0.1766    1.4886    0.0144 C   0  0  0  0  0  0  0  0  0  0  0  0
    0.6941    1.7426   -0.8030 H   0  0  0  0  0  0  0  0  0  0  0  0
    0.7063    1.7246    0.8288 H   0  0  0  0  0  0  0  0  0  0  0  0
   -0.7342    2.0873    0.0264 H   0  0  0  0  0  0  0  0  0  0  0  0
    0.0000    0.0000    0.0000 C   0  0  0  0  0  0  0  0  0  0  0  0
   -1.0893   -0.5548   -0.0000 O   0  0  0  0  0  1  0  0  0  0  0  0
    1.0893   -0.6067   -0.0000 O   0  0  0  0  0  0  0  0  0  0  0  0
   -0.8086   -1.7189    4.8200 C   0  0  0  0  0  0  0  0  0  0  0  0
    0.0854   -2.1422    4.9590 H   0  0  0  0  0  0  0  0  0  0  0  0
   -1.5203   -2.4196    4.8484 H   0  0  0  0  0  0  0  0  0  0  0  0
   -0.9850   -1.0304    5.6464 H   0  0  0  0  0  0  0  0  0  0  0  0
   -0.8297   -1.0579    3.4758 C   0  0  0  0  0  0  0  0  0  0  0  0
   -1.7840   -0.8937    3.1902 H   0  0  0  0  0  0  0  0  0  0  0  0
   -0.3622   -0.1646    3.5249 H   0  0  0  0  0  0  0  0  0  0  0  0
   -0.1441   -1.8856    2.3654 C   0  0  0  0  0  0  0  0  0  0  0  0
   -0.4137   -1.5089    1.4829 H   0  0  0  0  0  0  0  0  0  0  0  0
    0.8427   -1.8097    2.4811 H   0  0  0  0  0  0  0  0  0  0  0  0
   -0.4183   -2.9401    2.3934 H   0  0  0  0  0  0  0  0  0  0  0  0
  1  5  1  0
  5  6  1  0
  5  7  2  0
  1  2  1  0
  1  3  1  0
  1  4  1  0
  8 12  1  0
 12 15  1  0
  8  9  1  0
  8 10  1  0
  8 11  1  0
 12 13  1  0
 12 14  1  0
 15 16  1  0
 15 17  1  0
 15 18  1  0
M  CHG  1   6  -1
M  END
>  <PDB_ID>  (1537) 
pdb3nf5

>  <RESIDUE_NAME>  (1537) 
GLU   LYS

>  <FRAG_NAME>  (1537) 
ACET   PRPA

>  <FRAG_ATOM_NUM>  (1537) 
fragi: 7  fragj: 11

>  <atom.prop.CHAIN_ID>  (1537) 
A A A A A A A Z Z Z Z Z Z Z Z Z Z Z

>  <atom.prop.IS_HEAVY_ATOM>  (1537) 
1 0 0 0 1 1 1 1 0 0 0 1 0 0 1 0 0 0

>  <DIFUSE_FUNC_ATOM>  (1537) 
atom 6   atom 7   

>  <FINAL_SINGLE_POINT_ENERGY>  (1537) 
0

>  <NONCOV_INTER_ENERGY_QM>  (1537) 
0

>  <FF_Energy>  (1537) 
23.93

>  <QM_Energy>  (1537) 
0.62

>  <source>  (1537) 
ACET_PRPA_17

>  <Index>  (1537) 
14282

$$$$
ACET-pdb3nf5-A-GLU-1035:PRPA-pdb3nf5-A-LYS-967
     RDKit          3D

 18 16  0  0  0  0  0  0  0  0999 V2000
    0.1766    1.4886    0.0144 C   0  0  0  0  0  0  0  0  0  0  0  0
    0.6941    1.7426   -0.8030 H   0  0  0  0  0  0  0  0  0  0  0  0
    0.7063    1.7246    0.8288 H   0  0  0  0  0  0  0  0  0  0  0  0
   -0.7342    2.0873    0.0264 H   0  0  0  0  0  0  0  0  0  0  0  0
    0.0000    0.0000    0.0000 C   0  0  0  0  0  0  0  0  0  0  0  0
   -1.0893   -0.5548   -0.0000 O   0  0  0  0  0  1  0  0  0  0  0  0
    1.0893   -0.6067   -0.0000 O   0  0  0  0  0  0  0  0  0  0  0  0
   -0.8297   -1.0579    3.4758 C   0  0  0  0  0  0  0  0  0  0  0  0
   -1.7840   -0.8937    3.1902 H   0  0  0  0  0  0  0  0  0  0  0  0
   -0.3622   -0.1646    3.5249 H   0  0  0  0  0  0  0  0  0  0  0  0
   -0.8143   -1.5388    4.4539 H   0  0  0  0  0  0  0  0  0  0  0  0
   -0.1441   -1.8856    2.3654 C   0  0  0  0  0  0  0  0  0  0  0  0
   -0.4137   -1.5089    1.4829 H   0  0  0  0  0  0  0  0  0  0  0  0
    0.8427   -1.8097    2.4811 H   0  0  0  0  0  0  0  0  0  0  0  0
   -0.5288   -3.3652    2.4047 C   0  0  0  0  0  0  0  0  0  0  0  0
    0.0271   -3.8250    3.1007 H   0  0  0  0  0  0  0  0  0  0  0  0
   -1.4960   -3.4410    2.6566 H   0  0  0  0  0  0  0  0  0  0  0  0
   -0.3718   -3.8530    1.4427 H   0  0  0  0  0  0  0  0  0  0  0  0
  1  5  1  0
  5  6  1  0
  5  7  2  0
  1  2  1  0
  1  3  1  0
  1  4  1  0
  8 12  1  0
 12 15  1  0
  8  9  1  0
  8 10  1  0
  8 11  1  0
 12 13  1  0
 12 14  1  0
 15 16  1  0
 15 17  1  0
 15 18  1  0
M  CHG  1   6  -1
M  END
>  <PDB_ID>  (1538) 
pdb3nf5

>  <RESIDUE_NAME>  (1538) 
GLU   LYS

>  <FRAG_NAME>  (1538) 
ACET   PRPA

>  <FRAG_ATOM_NUM>  (1538) 
fragi: 7  fragj: 11

>  <atom.prop.CHAIN_ID>  (1538) 
A A A A A A A Z Z Z Z Z Z Z Z Z Z Z

>  <atom.prop.IS_HEAVY_ATOM>  (1538) 
1 0 0 0 1 1 1 1 0 0 0 1 0 0 1 0 0 0

>  <DIFUSE_FUNC_ATOM>  (1538) 
atom 6   atom 7   

>  <FINAL_SINGLE_POINT_ENERGY>  (1538) 
0

>  <NONCOV_INTER_ENERGY_QM>  (1538) 
0

>  <FF_Energy>  (1538) 
27.37

>  <QM_Energy>  (1538) 
-0.06

>  <source>  (1538) 
ACET_PRPA_17

>  <Index>  (1538) 
14291

$$$$
ACET-pdb4kw2-A-GLU-168:PRPA-pdb4kw2-A-LEU-201
     RDKit          3D

 18 16  0  0  0  0  0  0  0  0999 V2000
    0.1804    1.4863    0.0143 C   0  0  0  0  0  0  0  0  0  0  0  0
    0.6979    1.7383   -0.8028 H   0  0  0  0  0  0  0  0  0  0  0  0
    0.7108    1.7211    0.8299 H   0  0  0  0  0  0  0  0  0  0  0  0
   -0.7304    2.0850    0.0268 H   0  0  0  0  0  0  0  0  0  0  0  0
    0.0000    0.0000    0.0000 C   0  0  0  0  0  0  0  0  0  0  0  0
   -1.0892   -0.5558   -0.0000 O   0  0  0  0  0  1  0  0  0  0  0  0
    1.0892   -0.6107    0.0000 O   0  0  0  0  0  0  0  0  0  0  0  0
    2.6720    2.4263   -3.6187 C   0  0  0  0  0  0  0  0  0  0  0  0
    3.2621    3.2307   -3.8130 H   0  0  0  0  0  0  0  0  0  0  0  0
    1.7146    2.7635   -3.5781 H   0  0  0  0  0  0  0  0  0  0  0  0
    2.7427    1.7613   -4.4794 H   0  0  0  0  0  0  0  0  0  0  0  0
    3.0340    1.9387   -2.2081 C   0  0  0  0  0  0  0  0  0  0  0  0
    2.5498    1.0746   -2.0330 H   0  0  0  0  0  0  0  0  0  0  0  0
    4.1063    1.7839   -2.0885 H   0  0  0  0  0  0  0  0  0  0  0  0
    2.5350    2.9363   -1.1733 C   0  0  0  0  0  0  0  0  0  0  0  0
    1.5407    3.0261   -1.2470 H   0  0  0  0  0  0  0  0  0  0  0  0
    2.7731    2.6139   -0.2560 H   0  0  0  0  0  0  0  0  0  0  0  0
    2.9612    3.8273   -1.3348 H   0  0  0  0  0  0  0  0  0  0  0  0
  1  5  1  0
  5  6  1  0
  5  7  2  0
  1  2  1  0
  1  3  1  0
  1  4  1  0
  8 12  1  0
 12 15  1  0
  8  9  1  0
  8 10  1  0
  8 11  1  0
 12 13  1  0
 12 14  1  0
 15 16  1  0
 15 17  1  0
 15 18  1  0
M  CHG  1   6  -1
M  END
>  <PDB_ID>  (1539) 
pdb4kw2

>  <RESIDUE_NAME>  (1539) 
GLU   LEU

>  <FRAG_NAME>  (1539) 
ACET   PRPA

>  <FRAG_ATOM_NUM>  (1539) 
fragi: 7  fragj: 11

>  <atom.prop.CHAIN_ID>  (1539) 
A A A A A A A Z Z Z Z Z Z Z Z Z Z Z

>  <atom.prop.IS_HEAVY_ATOM>  (1539) 
1 0 0 0 1 1 1 1 0 0 0 1 0 0 1 0 0 0

>  <DIFUSE_FUNC_ATOM>  (1539) 
atom 6   atom 7   

>  <FINAL_SINGLE_POINT_ENERGY>  (1539) 
0

>  <NONCOV_INTER_ENERGY_QM>  (1539) 
0

>  <FF_Energy>  (1539) 
19.17

>  <QM_Energy>  (1539) 
3.45

>  <source>  (1539) 
ACET_PRPA_17

>  <Index>  (1539) 
16858

$$$$
ACET-pdb4kw2-A-GLU-168:PRPA-pdb4kw2-A-LEU-201
     RDKit          3D

 18 16  0  0  0  0  0  0  0  0999 V2000
    0.1804    1.4863    0.0143 C   0  0  0  0  0  0  0  0  0  0  0  0
    0.6979    1.7383   -0.8028 H   0  0  0  0  0  0  0  0  0  0  0  0
    0.7108    1.7211    0.8299 H   0  0  0  0  0  0  0  0  0  0  0  0
   -0.7304    2.0850    0.0268 H   0  0  0  0  0  0  0  0  0  0  0  0
    0.0000    0.0000    0.0000 C   0  0  0  0  0  0  0  0  0  0  0  0
   -1.0892   -0.5558   -0.0000 O   0  0  0  0  0  1  0  0  0  0  0  0
    1.0892   -0.6107    0.0000 O   0  0  0  0  0  0  0  0  0  0  0  0
    4.5282    1.7230   -2.0414 C   0  0  0  0  0  0  0  0  0  0  0  0
    5.0124    2.5837   -2.2047 H   0  0  0  0  0  0  0  0  0  0  0  0
    4.7198    1.4068   -1.1109 H   0  0  0  0  0  0  0  0  0  0  0  0
    4.8440    1.0357   -2.6973 H   0  0  0  0  0  0  0  0  0  0  0  0
    3.0340    1.9387   -2.2081 C   0  0  0  0  0  0  0  0  0  0  0  0
    2.5498    1.0746   -2.0330 H   0  0  0  0  0  0  0  0  0  0  0  0
    2.7771    2.2848   -3.2093 H   0  0  0  0  0  0  0  0  0  0  0  0
    2.5350    2.9363   -1.1733 C   0  0  0  0  0  0  0  0  0  0  0  0
    1.5407    3.0261   -1.2470 H   0  0  0  0  0  0  0  0  0  0  0  0
    2.7731    2.6139   -0.2560 H   0  0  0  0  0  0  0  0  0  0  0  0
    2.9612    3.8273   -1.3348 H   0  0  0  0  0  0  0  0  0  0  0  0
  1  5  1  0
  5  6  1  0
  5  7  2  0
  1  2  1  0
  1  3  1  0
  1  4  1  0
  8 12  1  0
 12 15  1  0
  8  9  1  0
  8 10  1  0
  8 11  1  0
 12 13  1  0
 12 14  1  0
 15 16  1  0
 15 17  1  0
 15 18  1  0
M  CHG  1   6  -1
M  END
>  <PDB_ID>  (1540) 
pdb4kw2

>  <RESIDUE_NAME>  (1540) 
GLU   LEU

>  <FRAG_NAME>  (1540) 
ACET   PRPA

>  <FRAG_ATOM_NUM>  (1540) 
fragi: 7  fragj: 11

>  <atom.prop.CHAIN_ID>  (1540) 
A A A A A A A Z Z Z Z Z Z Z Z Z Z Z

>  <atom.prop.IS_HEAVY_ATOM>  (1540) 
1 0 0 0 1 1 1 1 0 0 0 1 0 0 1 0 0 0

>  <DIFUSE_FUNC_ATOM>  (1540) 
atom 6   atom 7   

>  <FINAL_SINGLE_POINT_ENERGY>  (1540) 
0

>  <NONCOV_INTER_ENERGY_QM>  (1540) 
0

>  <FF_Energy>  (1540) 
19.22

>  <QM_Energy>  (1540) 
3.35

>  <source>  (1540) 
ACET_PRPA_17

>  <Index>  (1540) 
16864

$$$$
ACET-pdb3njb-A-ASP-76:PRPA-pdb3njb-A-VAL-39
     RDKit          3D

 18 16  0  0  0  0  0  0  0  0999 V2000
    0.0256    1.5136   -0.0188 C   0  0  0  0  0  0  0  0  0  0  0  0
    0.5184    1.8165   -0.8360 H   0  0  0  0  0  0  0  0  0  0  0  0
    0.5076    1.8377    0.7957 H   0  0  0  0  0  0  0  0  0  0  0  0
   -0.9579    1.9833   -0.0318 H   0  0  0  0  0  0  0  0  0  0  0  0
    0.0000    0.0000    0.0000 C   0  0  0  0  0  0  0  0  0  0  0  0
   -1.0957   -0.6033    0.0000 O   0  0  0  0  0  1  0  0  0  0  0  0
    1.0957   -0.5797   -0.0000 O   0  0  0  0  0  0  0  0  0  0  0  0
    1.2191   -3.1194    1.9639 C   0  0  0  0  0  0  0  0  0  0  0  0
    0.7839   -2.8036    1.1211 H   0  0  0  0  0  0  0  0  0  0  0  0
    0.6323   -2.7689    2.8130 H   0  0  0  0  0  0  0  0  0  0  0  0
    1.2216   -4.2091    1.9352 H   0  0  0  0  0  0  0  0  0  0  0  0
    2.6393   -2.5304    1.9938 C   0  0  0  0  0  0  0  0  0  0  0  0
    3.1534   -2.9250    1.2445 H   0  0  0  0  0  0  0  0  0  0  0  0
    3.1524   -2.7344    2.9336 H   0  0  0  0  0  0  0  0  0  0  0  0
    2.5870   -1.0066    1.7324 C   0  0  0  0  0  0  0  0  0  0  0  0
    3.2466   -0.5557    2.3261 H   0  0  0  0  0  0  0  0  0  0  0  0
    2.8138   -0.8361    0.7778 H   0  0  0  0  0  0  0  0  0  0  0  0
    1.6687   -0.6778    1.9302 H   0  0  0  0  0  0  0  0  0  0  0  0
  1  5  1  0
  5  6  1  0
  5  7  2  0
  1  2  1  0
  1  3  1  0
  1  4  1  0
  8 12  1  0
 12 15  1  0
  8  9  1  0
  8 10  1  0
  8 11  1  0
 12 13  1  0
 12 14  1  0
 15 16  1  0
 15 17  1  0
 15 18  1  0
M  CHG  1   6  -1
M  END
>  <PDB_ID>  (1541) 
pdb3njb

>  <RESIDUE_NAME>  (1541) 
ASP   VAL

>  <FRAG_NAME>  (1541) 
ACET   PRPA

>  <FRAG_ATOM_NUM>  (1541) 
fragi: 7  fragj: 11

>  <atom.prop.CHAIN_ID>  (1541) 
A A A A A A A Z Z Z Z Z Z Z Z Z Z Z

>  <atom.prop.IS_HEAVY_ATOM>  (1541) 
1 0 0 0 1 1 1 1 0 0 0 1 0 0 1 0 0 0

>  <DIFUSE_FUNC_ATOM>  (1541) 
atom 6   atom 7   

>  <FINAL_SINGLE_POINT_ENERGY>  (1541) 
0

>  <NONCOV_INTER_ENERGY_QM>  (1541) 
0

>  <FF_Energy>  (1541) 
46.1

>  <QM_Energy>  (1541) 
10.81

>  <source>  (1541) 
ACET_PRPA_17

>  <Index>  (1541) 
17938

$$$$
ACET-pdb3njb-A-ASP-76:PRPA-pdb3njb-A-VAL-39
     RDKit          3D

 18 16  0  0  0  0  0  0  0  0999 V2000
    0.0256    1.5136   -0.0188 C   0  0  0  0  0  0  0  0  0  0  0  0
    0.5184    1.8165   -0.8360 H   0  0  0  0  0  0  0  0  0  0  0  0
    0.5076    1.8377    0.7957 H   0  0  0  0  0  0  0  0  0  0  0  0
   -0.9579    1.9833   -0.0318 H   0  0  0  0  0  0  0  0  0  0  0  0
    0.0000    0.0000    0.0000 C   0  0  0  0  0  0  0  0  0  0  0  0
   -1.0957   -0.6033    0.0000 O   0  0  0  0  0  1  0  0  0  0  0  0
    1.0957   -0.5797   -0.0000 O   0  0  0  0  0  0  0  0  0  0  0  0
    2.5870   -1.0066    1.7324 C   0  0  0  0  0  0  0  0  0  0  0  0
    3.2466   -0.5557    2.3261 H   0  0  0  0  0  0  0  0  0  0  0  0
    2.8138   -0.8361    0.7778 H   0  0  0  0  0  0  0  0  0  0  0  0
    1.6687   -0.6778    1.9302 H   0  0  0  0  0  0  0  0  0  0  0  0
    2.6393   -2.5304    1.9938 C   0  0  0  0  0  0  0  0  0  0  0  0
    3.1534   -2.9250    1.2445 H   0  0  0  0  0  0  0  0  0  0  0  0
    1.6326   -2.9479    1.9726 H   0  0  0  0  0  0  0  0  0  0  0  0
    3.3671   -2.8199    3.3270 C   0  0  0  0  0  0  0  0  0  0  0  0
    2.7533   -3.3348    3.9186 H   0  0  0  0  0  0  0  0  0  0  0  0
    4.1872   -3.3507    3.1324 H   0  0  0  0  0  0  0  0  0  0  0  0
    3.6101   -1.9524    3.7520 H   0  0  0  0  0  0  0  0  0  0  0  0
  1  5  1  0
  5  6  1  0
  5  7  2  0
  1  2  1  0
  1  3  1  0
  1  4  1  0
  8 12  1  0
 12 15  1  0
  8  9  1  0
  8 10  1  0
  8 11  1  0
 12 13  1  0
 12 14  1  0
 15 16  1  0
 15 17  1  0
 15 18  1  0
M  CHG  1   6  -1
M  END
>  <PDB_ID>  (1542) 
pdb3njb

>  <RESIDUE_NAME>  (1542) 
ASP   VAL

>  <FRAG_NAME>  (1542) 
ACET   PRPA

>  <FRAG_ATOM_NUM>  (1542) 
fragi: 7  fragj: 11

>  <atom.prop.CHAIN_ID>  (1542) 
A A A A A A A Z Z Z Z Z Z Z Z Z Z Z

>  <atom.prop.IS_HEAVY_ATOM>  (1542) 
1 0 0 0 1 1 1 1 0 0 0 1 0 0 1 0 0 0

>  <DIFUSE_FUNC_ATOM>  (1542) 
atom 6   atom 7   

>  <FINAL_SINGLE_POINT_ENERGY>  (1542) 
0

>  <NONCOV_INTER_ENERGY_QM>  (1542) 
0

>  <FF_Energy>  (1542) 
45.06

>  <QM_Energy>  (1542) 
12.72

>  <source>  (1542) 
ACET_PRPA_17

>  <Index>  (1542) 
17944

$$$$
ACET-pdb3mzs-C-GLU-76:PRPA-pdb3mzs-C-PRO-80
     RDKit          3D

 18 16  0  0  0  0  0  0  0  0999 V2000
   -0.0050    1.5120    0.0112 C   0  0  0  0  0  0  0  0  0  0  0  0
    0.9078    1.8207   -0.1753 H   0  0  0  0  0  0  0  0  0  0  0  0
   -0.3308    1.8082    0.8883 H   0  0  0  0  0  0  0  0  0  0  0  0
   -0.6610    1.9365   -0.7488 H   0  0  0  0  0  0  0  0  0  0  0  0
    0.0000    0.0000    0.0000 C   0  0  0  0  0  0  0  0  0  0  0  0
   -1.1071   -0.5987   -0.0000 O   0  0  0  0  0  1  0  0  0  0  0  0
    1.1071   -0.5766   -0.0000 O   0  0  0  0  0  0  0  0  0  0  0  0
   -5.1281    0.2260    0.7653 C   0  0  0  0  0  0  0  0  0  0  0  0
   -4.8599    1.1333    0.3764 H   0  0  0  0  0  0  0  0  0  0  0  0
   -5.0750    0.2393    1.8540 H   0  0  0  0  0  0  0  0  0  0  0  0
   -6.0920   -0.0736    0.3540 H   0  0  0  0  0  0  0  0  0  0  0  0
   -4.0085   -0.7387    0.3822 C   0  0  0  0  0  0  0  0  0  0  0  0
   -4.3748   -1.6669    0.2488 H   0  0  0  0  0  0  0  0  0  0  0  0
   -3.5689   -0.4452   -0.4740 H   0  0  0  0  0  0  0  0  0  0  0  0
   -3.0664   -0.6901    1.5151 C   0  0  0  0  0  0  0  0  0  0  0  0
   -2.5018   -1.5162    1.5487 H   0  0  0  0  0  0  0  0  0  0  0  0
   -2.4735    0.1139    1.4540 H   0  0  0  0  0  0  0  0  0  0  0  0
   -3.7195   -0.6284    2.3856 H   0  0  0  0  0  0  0  0  0  0  0  0
  1  5  1  0
  5  6  1  0
  5  7  2  0
  1  2  1  0
  1  3  1  0
  1  4  1  0
  8 12  1  0
 12 15  1  0
  8  9  1  0
  8 10  1  0
  8 11  1  0
 12 13  1  0
 12 14  1  0
 15 16  1  0
 15 17  1  0
 15 18  1  0
M  CHG  1   6  -1
M  END
>  <PDB_ID>  (1543) 
pdb3mzs

>  <RESIDUE_NAME>  (1543) 
GLU   PRO

>  <FRAG_NAME>  (1543) 
ACET   PRPA

>  <FRAG_ATOM_NUM>  (1543) 
fragi: 7  fragj: 11

>  <atom.prop.CHAIN_ID>  (1543) 
A A A A A A A Z Z Z Z Z Z Z Z Z Z Z

>  <atom.prop.IS_HEAVY_ATOM>  (1543) 
1 0 0 0 1 1 1 1 0 0 0 1 0 0 1 0 0 0

>  <DIFUSE_FUNC_ATOM>  (1543) 
atom 6   atom 7   

>  <FINAL_SINGLE_POINT_ENERGY>  (1543) 
0

>  <NONCOV_INTER_ENERGY_QM>  (1543) 
0

>  <FF_Energy>  (1543) 
16.96

>  <QM_Energy>  (1543) 
1.81

>  <source>  (1543) 
ACET_PRPA_17

>  <Index>  (1543) 
20202

$$$$
ACET-pdb3nb0-A-GLU-542:PRPA-pdb3nb0-A-GLN-545
     RDKit          3D

 18 16  0  0  0  0  0  0  0  0999 V2000
   -0.0006    1.5203    0.0226 C   0  0  0  0  0  0  0  0  0  0  0  0
    0.8836    1.8223   -0.2822 H   0  0  0  0  0  0  0  0  0  0  0  0
   -0.1955    1.8029    0.9429 H   0  0  0  0  0  0  0  0  0  0  0  0
   -0.7531    1.9560   -0.6347 H   0  0  0  0  0  0  0  0  0  0  0  0
    0.0000    0.0000    0.0000 C   0  0  0  0  0  0  0  0  0  0  0  0
   -1.0987   -0.5943    0.0000 O   0  0  0  0  0  1  0  0  0  0  0  0
    1.0987   -0.5986    0.0000 O   0  0  0  0  0  0  0  0  0  0  0  0
   -2.5677   -2.2808   -2.4707 C   0  0  0  0  0  0  0  0  0  0  0  0
   -2.9452   -3.0869   -2.0057 H   0  0  0  0  0  0  0  0  0  0  0  0
   -1.4903   -2.2643   -2.3063 H   0  0  0  0  0  0  0  0  0  0  0  0
   -2.7888   -2.3811   -3.5333 H   0  0  0  0  0  0  0  0  0  0  0  0
   -3.1910   -1.0055   -1.9114 C   0  0  0  0  0  0  0  0  0  0  0  0
   -2.6694   -0.7240   -1.0996 H   0  0  0  0  0  0  0  0  0  0  0  0
   -3.1170   -0.2814   -2.6065 H   0  0  0  0  0  0  0  0  0  0  0  0
   -4.6397   -1.1405   -1.5203 C   0  0  0  0  0  0  0  0  0  0  0  0
   -5.1921   -1.2458   -2.3469 H   0  0  0  0  0  0  0  0  0  0  0  0
   -4.7474   -1.9472   -0.9402 H   0  0  0  0  0  0  0  0  0  0  0  0
   -5.0004   -0.2697   -0.9728 H   0  0  0  0  0  0  0  0  0  0  0  0
  1  5  1  0
  5  6  1  0
  5  7  2  0
  1  2  1  0
  1  3  1  0
  1  4  1  0
  8 12  1  0
 12 15  1  0
  8  9  1  0
  8 10  1  0
  8 11  1  0
 12 13  1  0
 12 14  1  0
 15 16  1  0
 15 17  1  0
 15 18  1  0
M  CHG  1   6  -1
M  END
>  <PDB_ID>  (1544) 
pdb3nb0

>  <RESIDUE_NAME>  (1544) 
GLU   GLN

>  <FRAG_NAME>  (1544) 
ACET   PRPA

>  <FRAG_ATOM_NUM>  (1544) 
fragi: 7  fragj: 11

>  <atom.prop.CHAIN_ID>  (1544) 
A A A A A A A Z Z Z Z Z Z Z Z Z Z Z

>  <atom.prop.IS_HEAVY_ATOM>  (1544) 
1 0 0 0 1 1 1 1 0 0 0 1 0 0 1 0 0 0

>  <DIFUSE_FUNC_ATOM>  (1544) 
atom 6   atom 7   

>  <FINAL_SINGLE_POINT_ENERGY>  (1544) 
0

>  <NONCOV_INTER_ENERGY_QM>  (1544) 
0

>  <FF_Energy>  (1544) 
13.52

>  <QM_Energy>  (1544) 
-2.28

>  <source>  (1544) 
ACET_PRPA_17

>  <Index>  (1544) 
22963

$$$$
ACET-pdb4l7q-A-GLU-56:PRPA-pdb4l7q-A-LYS-52
     RDKit          3D

 18 16  0  0  0  0  0  0  0  0999 V2000
   -0.0208    1.5710    0.0443 C   0  0  0  0  0  0  0  0  0  0  0  0
    0.3536    1.8391    0.9178 H   0  0  0  0  0  0  0  0  0  0  0  0
   -0.9635    1.8478   -0.0461 H   0  0  0  0  0  0  0  0  0  0  0  0
    0.5494    2.0865   -0.7286 H   0  0  0  0  0  0  0  0  0  0  0  0
    0.0000    0.0000    0.0000 C   0  0  0  0  0  0  0  0  0  0  0  0
   -1.1093   -0.6127   -0.0000 O   0  0  0  0  0  1  0  0  0  0  0  0
    1.1093   -0.6097    0.0000 O   0  0  0  0  0  0  0  0  0  0  0  0
    2.3194    3.1109    3.6489 C   0  0  0  0  0  0  0  0  0  0  0  0
    3.1340    2.5639    3.3986 H   0  0  0  0  0  0  0  0  0  0  0  0
    2.2377    3.1446    4.7353 H   0  0  0  0  0  0  0  0  0  0  0  0
    2.4227    4.1070    3.2184 H   0  0  0  0  0  0  0  0  0  0  0  0
    1.0703    2.4641    3.0891 C   0  0  0  0  0  0  0  0  0  0  0  0
    0.2919    3.0586    3.2999 H   0  0  0  0  0  0  0  0  0  0  0  0
    1.1739    2.4001    2.0944 H   0  0  0  0  0  0  0  0  0  0  0  0
    0.8056    1.1092    3.6369 C   0  0  0  0  0  0  0  0  0  0  0  0
    0.8721    1.1282    4.6343 H   0  0  0  0  0  0  0  0  0  0  0  0
   -0.1078    0.8073    3.3688 H   0  0  0  0  0  0  0  0  0  0  0  0
    1.5388    0.4024    3.2486 H   0  0  0  0  0  0  0  0  0  0  0  0
  1  5  1  0
  5  6  1  0
  5  7  2  0
  1  2  1  0
  1  3  1  0
  1  4  1  0
  8 12  1  0
 12 15  1  0
  8  9  1  0
  8 10  1  0
  8 11  1  0
 12 13  1  0
 12 14  1  0
 15 16  1  0
 15 17  1  0
 15 18  1  0
M  CHG  1   6  -1
M  END
>  <PDB_ID>  (1545) 
pdb4l7q

>  <RESIDUE_NAME>  (1545) 
GLU   LYS

>  <FRAG_NAME>  (1545) 
ACET   PRPA

>  <FRAG_ATOM_NUM>  (1545) 
fragi: 7  fragj: 11

>  <atom.prop.CHAIN_ID>  (1545) 
A A A A A A A Z Z Z Z Z Z Z Z Z Z Z

>  <atom.prop.IS_HEAVY_ATOM>  (1545) 
1 0 0 0 1 1 1 1 0 0 0 1 0 0 1 0 0 0

>  <DIFUSE_FUNC_ATOM>  (1545) 
atom 6   atom 7   

>  <FINAL_SINGLE_POINT_ENERGY>  (1545) 
0

>  <NONCOV_INTER_ENERGY_QM>  (1545) 
0

>  <FF_Energy>  (1545) 
22.6

>  <QM_Energy>  (1545) 
1.74

>  <source>  (1545) 
ACET_PRPA_17

>  <Index>  (1545) 
23033

$$$$
ACET-pdb4l7q-A-GLU-56:PRPA-pdb4l7q-A-LYS-52
     RDKit          3D

 18 16  0  0  0  0  0  0  0  0999 V2000
   -0.0208    1.5710    0.0443 C   0  0  0  0  0  0  0  0  0  0  0  0
    0.3536    1.8391    0.9178 H   0  0  0  0  0  0  0  0  0  0  0  0
   -0.9635    1.8478   -0.0461 H   0  0  0  0  0  0  0  0  0  0  0  0
    0.5494    2.0865   -0.7286 H   0  0  0  0  0  0  0  0  0  0  0  0
    0.0000    0.0000    0.0000 C   0  0  0  0  0  0  0  0  0  0  0  0
   -1.1093   -0.6127   -0.0000 O   0  0  0  0  0  1  0  0  0  0  0  0
    1.1093   -0.6097    0.0000 O   0  0  0  0  0  0  0  0  0  0  0  0
    1.0703    2.4641    3.0891 C   0  0  0  0  0  0  0  0  0  0  0  0
    0.2919    3.0586    3.2999 H   0  0  0  0  0  0  0  0  0  0  0  0
    1.1739    2.4001    2.0944 H   0  0  0  0  0  0  0  0  0  0  0  0
    1.9697    2.9298    3.4921 H   0  0  0  0  0  0  0  0  0  0  0  0
    0.8056    1.1092    3.6369 C   0  0  0  0  0  0  0  0  0  0  0  0
    0.8721    1.1282    4.6343 H   0  0  0  0  0  0  0  0  0  0  0  0
   -0.1078    0.8073    3.3688 H   0  0  0  0  0  0  0  0  0  0  0  0
    1.8165    0.1347    3.1016 C   0  0  0  0  0  0  0  0  0  0  0  0
    1.8943    0.2608    2.1180 H   0  0  0  0  0  0  0  0  0  0  0  0
    2.6914    0.3042    3.5419 H   0  0  0  0  0  0  0  0  0  0  0  0
    1.4987   -0.8866    3.3111 H   0  0  0  0  0  0  0  0  0  0  0  0
  1  5  1  0
  5  6  1  0
  5  7  2  0
  1  2  1  0
  1  3  1  0
  1  4  1  0
  8 12  1  0
 12 15  1  0
  8  9  1  0
  8 10  1  0
  8 11  1  0
 12 13  1  0
 12 14  1  0
 15 16  1  0
 15 17  1  0
 15 18  1  0
M  CHG  1   6  -1
M  END
>  <PDB_ID>  (1546) 
pdb4l7q

>  <RESIDUE_NAME>  (1546) 
GLU   LYS

>  <FRAG_NAME>  (1546) 
ACET   PRPA

>  <FRAG_ATOM_NUM>  (1546) 
fragi: 7  fragj: 11

>  <atom.prop.CHAIN_ID>  (1546) 
A A A A A A A Z Z Z Z Z Z Z Z Z Z Z

>  <atom.prop.IS_HEAVY_ATOM>  (1546) 
1 0 0 0 1 1 1 1 0 0 0 1 0 0 1 0 0 0

>  <DIFUSE_FUNC_ATOM>  (1546) 
atom 6   atom 7   

>  <FINAL_SINGLE_POINT_ENERGY>  (1546) 
0

>  <NONCOV_INTER_ENERGY_QM>  (1546) 
0

>  <FF_Energy>  (1546) 
26.57

>  <QM_Energy>  (1546) 
0.95

>  <source>  (1546) 
ACET_PRPA_17

>  <Index>  (1546) 
23037

$$$$
ACET-pdb3mzs-D-GLU-81:PRPA-pdb3mzs-D-LYS-105
     RDKit          3D

 18 16  0  0  0  0  0  0  0  0999 V2000
    0.0031    1.5440   -0.0395 C   0  0  0  0  0  0  0  0  0  0  0  0
   -0.4484    1.8091   -0.8765 H   0  0  0  0  0  0  0  0  0  0  0  0
    0.9493    1.8277   -0.0331 H   0  0  0  0  0  0  0  0  0  0  0  0
   -0.5089    2.0201    0.7967 H   0  0  0  0  0  0  0  0  0  0  0  0
    0.0000    0.0000    0.0000 C   0  0  0  0  0  0  0  0  0  0  0  0
   -1.1108   -0.6202    0.0000 O   0  0  0  0  0  1  0  0  0  0  0  0
    1.1108   -0.5964   -0.0000 O   0  0  0  0  0  0  0  0  0  0  0  0
    4.6269    0.9334    0.4435 C   0  0  0  0  0  0  0  0  0  0  0  0
    5.3030    0.9735   -0.3055 H   0  0  0  0  0  0  0  0  0  0  0  0
    4.1566    0.0421    0.3901 H   0  0  0  0  0  0  0  0  0  0  0  0
    5.1377    1.0216    1.4023 H   0  0  0  0  0  0  0  0  0  0  0  0
    3.5868    2.0340    0.2017 C   0  0  0  0  0  0  0  0  0  0  0  0
    2.8732    1.9569    0.8667 H   0  0  0  0  0  0  0  0  0  0  0  0
    4.0290    2.9064    0.2087 H   0  0  0  0  0  0  0  0  0  0  0  0
    2.9595    1.8228   -1.2065 C   0  0  0  0  0  0  0  0  0  0  0  0
    2.0538    1.4393   -1.1009 H   0  0  0  0  0  0  0  0  0  0  0  0
    2.9265    2.6922   -1.6781 H   0  0  0  0  0  0  0  0  0  0  0  0
    3.5608    1.1322   -1.7977 H   0  0  0  0  0  0  0  0  0  0  0  0
  1  5  1  0
  5  6  1  0
  5  7  2  0
  1  2  1  0
  1  3  1  0
  1  4  1  0
  8 12  1  0
 12 15  1  0
  8  9  1  0
  8 10  1  0
  8 11  1  0
 12 13  1  0
 12 14  1  0
 15 16  1  0
 15 17  1  0
 15 18  1  0
M  CHG  1   6  -1
M  END
>  <PDB_ID>  (1547) 
pdb3mzs

>  <RESIDUE_NAME>  (1547) 
GLU   LYS

>  <FRAG_NAME>  (1547) 
ACET   PRPA

>  <FRAG_ATOM_NUM>  (1547) 
fragi: 7  fragj: 11

>  <atom.prop.CHAIN_ID>  (1547) 
A A A A A A A Z Z Z Z Z Z Z Z Z Z Z

>  <atom.prop.IS_HEAVY_ATOM>  (1547) 
1 0 0 0 1 1 1 1 0 0 0 1 0 0 1 0 0 0

>  <DIFUSE_FUNC_ATOM>  (1547) 
atom 6   atom 7   

>  <FINAL_SINGLE_POINT_ENERGY>  (1547) 
0

>  <NONCOV_INTER_ENERGY_QM>  (1547) 
0

>  <FF_Energy>  (1547) 
19.35

>  <QM_Energy>  (1547) 
0.82

>  <source>  (1547) 
ACET_PRPA_17

>  <Index>  (1547) 
23543

$$$$
ACET-pdb3ntx-A-ASP-170:PRPA-pdb3ntx-A-GLN-118
     RDKit          3D

 18 16  0  0  0  0  0  0  0  0999 V2000
   -0.0017    1.5136   -0.0011 C   0  0  0  0  0  0  0  0  0  0  0  0
    0.9234    1.8352   -0.1732 H   0  0  0  0  0  0  0  0  0  0  0  0
   -0.3207    1.8359    0.8838 H   0  0  0  0  0  0  0  0  0  0  0  0
   -0.6524    1.9361   -0.7668 H   0  0  0  0  0  0  0  0  0  0  0  0
    0.0000    0.0000    0.0000 C   0  0  0  0  0  0  0  0  0  0  0  0
   -1.0900   -0.5970   -0.0000 O   0  0  0  0  0  1  0  0  0  0  0  0
    1.0900   -0.5938   -0.0000 O   0  0  0  0  0  0  0  0  0  0  0  0
    4.6241   -0.3868   -0.0134 C   0  0  0  0  0  0  0  0  0  0  0  0
    3.9458   -1.0555    0.2992 H   0  0  0  0  0  0  0  0  0  0  0  0
    4.8625    0.2701    0.8231 H   0  0  0  0  0  0  0  0  0  0  0  0
    5.5131   -0.9365   -0.3224 H   0  0  0  0  0  0  0  0  0  0  0  0
    4.1106    0.4522   -1.2084 C   0  0  0  0  0  0  0  0  0  0  0  0
    4.8967    0.8932   -1.6515 H   0  0  0  0  0  0  0  0  0  0  0  0
    3.6733   -0.1660   -1.8697 H   0  0  0  0  0  0  0  0  0  0  0  0
    3.0881    1.5620   -0.8604 C   0  0  0  0  0  0  0  0  0  0  0  0
    2.2472    1.1290   -0.5438 H   0  0  0  0  0  0  0  0  0  0  0  0
    3.4717    2.1291   -0.1347 H   0  0  0  0  0  0  0  0  0  0  0  0
    2.8405    2.2084   -1.7024 H   0  0  0  0  0  0  0  0  0  0  0  0
  1  5  1  0
  5  6  1  0
  5  7  2  0
  1  2  1  0
  1  3  1  0
  1  4  1  0
  8 12  1  0
 12 15  1  0
  8  9  1  0
  8 10  1  0
  8 11  1  0
 12 13  1  0
 12 14  1  0
 15 16  1  0
 15 17  1  0
 15 18  1  0
M  CHG  1   6  -1
M  END
>  <PDB_ID>  (1548) 
pdb3ntx

>  <RESIDUE_NAME>  (1548) 
ASP   GLN

>  <FRAG_NAME>  (1548) 
ACET   PRPA

>  <FRAG_ATOM_NUM>  (1548) 
fragi: 7  fragj: 11

>  <atom.prop.CHAIN_ID>  (1548) 
A A A A A A A Z Z Z Z Z Z Z Z Z Z Z

>  <atom.prop.IS_HEAVY_ATOM>  (1548) 
1 0 0 0 1 1 1 1 0 0 0 1 0 0 1 0 0 0

>  <DIFUSE_FUNC_ATOM>  (1548) 
atom 6   atom 7   

>  <FINAL_SINGLE_POINT_ENERGY>  (1548) 
0

>  <NONCOV_INTER_ENERGY_QM>  (1548) 
0

>  <FF_Energy>  (1548) 
27.11

>  <QM_Energy>  (1548) 
1.54

>  <source>  (1548) 
ACET_PRPA_17

>  <Index>  (1548) 
24265

$$$$
ACET-pdb3nvx-A-ASP-176:PRPA-pdb3nvx-A-PRO-152
     RDKit          3D

 18 16  0  0  0  0  0  0  0  0999 V2000
    0.0039    1.5093    0.0139 C   0  0  0  0  0  0  0  0  0  0  0  0
    0.5921    1.8379   -0.7185 H   0  0  0  0  0  0  0  0  0  0  0  0
    0.3425    1.8240    0.8950 H   0  0  0  0  0  0  0  0  0  0  0  0
   -0.9873    1.9373   -0.1361 H   0  0  0  0  0  0  0  0  0  0  0  0
    0.0000    0.0000    0.0000 C   0  0  0  0  0  0  0  0  0  0  0  0
   -1.0987   -0.5879    0.0000 O   0  0  0  0  0  1  0  0  0  0  0  0
    1.0987   -0.6046   -0.0000 O   0  0  0  0  0  0  0  0  0  0  0  0
   -4.5007   -1.7312    1.9966 C   0  0  0  0  0  0  0  0  0  0  0  0
   -3.8011   -1.4899    2.6809 H   0  0  0  0  0  0  0  0  0  0  0  0
   -4.1993   -2.6161    1.4360 H   0  0  0  0  0  0  0  0  0  0  0  0
   -5.4728   -1.8704    2.4695 H   0  0  0  0  0  0  0  0  0  0  0  0
   -4.6094   -0.6465    0.9187 C   0  0  0  0  0  0  0  0  0  0  0  0
   -5.5747   -0.4619    0.6979 H   0  0  0  0  0  0  0  0  0  0  0  0
   -4.1884    0.2117    1.2352 H   0  0  0  0  0  0  0  0  0  0  0  0
   -3.8847   -1.1846   -0.2780 C   0  0  0  0  0  0  0  0  0  0  0  0
   -4.3136   -0.8331   -1.1275 H   0  0  0  0  0  0  0  0  0  0  0  0
   -2.9229   -0.8609   -0.2722 H   0  0  0  0  0  0  0  0  0  0  0  0
   -3.9404   -2.2717   -0.2232 H   0  0  0  0  0  0  0  0  0  0  0  0
  1  5  1  0
  5  6  1  0
  5  7  2  0
  1  2  1  0
  1  3  1  0
  1  4  1  0
  8 12  1  0
 12 15  1  0
  8  9  1  0
  8 10  1  0
  8 11  1  0
 12 13  1  0
 12 14  1  0
 15 16  1  0
 15 17  1  0
 15 18  1  0
M  CHG  1   6  -1
M  END
>  <PDB_ID>  (1549) 
pdb3nvx

>  <RESIDUE_NAME>  (1549) 
ASP   PRO

>  <FRAG_NAME>  (1549) 
ACET   PRPA

>  <FRAG_ATOM_NUM>  (1549) 
fragi: 7  fragj: 11

>  <atom.prop.CHAIN_ID>  (1549) 
A A A A A A A Z Z Z Z Z Z Z Z Z Z Z

>  <atom.prop.IS_HEAVY_ATOM>  (1549) 
1 0 0 0 1 1 1 1 0 0 0 1 0 0 1 0 0 0

>  <DIFUSE_FUNC_ATOM>  (1549) 
atom 6   atom 7   

>  <FINAL_SINGLE_POINT_ENERGY>  (1549) 
0

>  <NONCOV_INTER_ENERGY_QM>  (1549) 
0

>  <FF_Energy>  (1549) 
17.17

>  <QM_Energy>  (1549) 
-1.81

>  <source>  (1549) 
ACET_PRPA_17

>  <Index>  (1549) 
25395

$$$$
ACET-pdb3nvx-A-ASP-176:PRPA-pdb3nvx-A-PRO-152
     RDKit          3D

 18 16  0  0  0  0  0  0  0  0999 V2000
    0.0039    1.5093    0.0139 C   0  0  0  0  0  0  0  0  0  0  0  0
    0.5921    1.8379   -0.7185 H   0  0  0  0  0  0  0  0  0  0  0  0
    0.3425    1.8240    0.8950 H   0  0  0  0  0  0  0  0  0  0  0  0
   -0.9873    1.9373   -0.1361 H   0  0  0  0  0  0  0  0  0  0  0  0
    0.0000    0.0000    0.0000 C   0  0  0  0  0  0  0  0  0  0  0  0
   -1.0987   -0.5879    0.0000 O   0  0  0  0  0  1  0  0  0  0  0  0
    1.0987   -0.6046   -0.0000 O   0  0  0  0  0  0  0  0  0  0  0  0
   -4.6094   -0.6465    0.9187 C   0  0  0  0  0  0  0  0  0  0  0  0
   -5.5747   -0.4619    0.6979 H   0  0  0  0  0  0  0  0  0  0  0  0
   -4.1884    0.2117    1.2352 H   0  0  0  0  0  0  0  0  0  0  0  0
   -4.5321   -1.4177    1.6851 H   0  0  0  0  0  0  0  0  0  0  0  0
   -3.8847   -1.1846   -0.2780 C   0  0  0  0  0  0  0  0  0  0  0  0
   -4.3136   -0.8331   -1.1275 H   0  0  0  0  0  0  0  0  0  0  0  0
   -2.9229   -0.8609   -0.2722 H   0  0  0  0  0  0  0  0  0  0  0  0
   -3.9603   -2.6597   -0.2036 C   0  0  0  0  0  0  0  0  0  0  0  0
   -4.7561   -3.0232   -0.6961 H   0  0  0  0  0  0  0  0  0  0  0  0
   -3.1303   -3.0999   -0.5612 H   0  0  0  0  0  0  0  0  0  0  0  0
   -4.0590   -2.8566    0.8640 H   0  0  0  0  0  0  0  0  0  0  0  0
  1  5  1  0
  5  6  1  0
  5  7  2  0
  1  2  1  0
  1  3  1  0
  1  4  1  0
  8 12  1  0
 12 15  1  0
  8  9  1  0
  8 10  1  0
  8 11  1  0
 12 13  1  0
 12 14  1  0
 15 16  1  0
 15 17  1  0
 15 18  1  0
M  CHG  1   6  -1
M  END
>  <PDB_ID>  (1550) 
pdb3nvx

>  <RESIDUE_NAME>  (1550) 
ASP   PRO

>  <FRAG_NAME>  (1550) 
ACET   PRPA

>  <FRAG_ATOM_NUM>  (1550) 
fragi: 7  fragj: 11

>  <atom.prop.CHAIN_ID>  (1550) 
A A A A A A A Z Z Z Z Z Z Z Z Z Z Z

>  <atom.prop.IS_HEAVY_ATOM>  (1550) 
1 0 0 0 1 1 1 1 0 0 0 1 0 0 1 0 0 0

>  <DIFUSE_FUNC_ATOM>  (1550) 
atom 6   atom 7   

>  <FINAL_SINGLE_POINT_ENERGY>  (1550) 
0

>  <NONCOV_INTER_ENERGY_QM>  (1550) 
0

>  <FF_Energy>  (1550) 
19.99

>  <QM_Energy>  (1550) 
-2.07

>  <source>  (1550) 
ACET_PRPA_17

>  <Index>  (1550) 
25406

$$$$
ACET-pdb3o59-X-GLU-103:PRPA-pdb3o59-X-VAL-128
     RDKit          3D

 18 16  0  0  0  0  0  0  0  0999 V2000
   -0.0095    1.5345    0.0277 C   0  0  0  0  0  0  0  0  0  0  0  0
   -0.0562    1.8148    0.9714 H   0  0  0  0  0  0  0  0  0  0  0  0
   -0.7969    1.8363   -0.4826 H   0  0  0  0  0  0  0  0  0  0  0  0
    0.8697    2.0055   -0.4119 H   0  0  0  0  0  0  0  0  0  0  0  0
    0.0000    0.0000    0.0000 C   0  0  0  0  0  0  0  0  0  0  0  0
   -1.1227   -0.6176    0.0000 O   0  0  0  0  0  1  0  0  0  0  0  0
    1.1227   -0.5636    0.0000 O   0  0  0  0  0  0  0  0  0  0  0  0
   -2.1708    1.4716    3.3590 C   0  0  0  0  0  0  0  0  0  0  0  0
   -2.4565    1.4364    4.3016 H   0  0  0  0  0  0  0  0  0  0  0  0
   -1.9805    0.4559    3.0121 H   0  0  0  0  0  0  0  0  0  0  0  0
   -3.0144    1.8231    2.7652 H   0  0  0  0  0  0  0  0  0  0  0  0
   -0.9518    2.3701    3.1518 C   0  0  0  0  0  0  0  0  0  0  0  0
   -0.7380    2.3825    2.1752 H   0  0  0  0  0  0  0  0  0  0  0  0
   -1.1602    3.4009    3.4382 H   0  0  0  0  0  0  0  0  0  0  0  0
    0.2823    1.7897    3.8991 C   0  0  0  0  0  0  0  0  0  0  0  0
    1.0440    1.7476    3.2615 H   0  0  0  0  0  0  0  0  0  0  0  0
    0.4985    2.3903    4.6617 H   0  0  0  0  0  0  0  0  0  0  0  0
    0.0509    0.8796    4.2267 H   0  0  0  0  0  0  0  0  0  0  0  0
  1  5  1  0
  5  6  1  0
  5  7  2  0
  1  2  1  0
  1  3  1  0
  1  4  1  0
  8 12  1  0
 12 15  1  0
  8  9  1  0
  8 10  1  0
  8 11  1  0
 12 13  1  0
 12 14  1  0
 15 16  1  0
 15 17  1  0
 15 18  1  0
M  CHG  1   6  -1
M  END
>  <PDB_ID>  (1551) 
pdb3o59

>  <RESIDUE_NAME>  (1551) 
GLU   VAL

>  <FRAG_NAME>  (1551) 
ACET   PRPA

>  <FRAG_ATOM_NUM>  (1551) 
fragi: 7  fragj: 11

>  <atom.prop.CHAIN_ID>  (1551) 
A A A A A A A Z Z Z Z Z Z Z Z Z Z Z

>  <atom.prop.IS_HEAVY_ATOM>  (1551) 
1 0 0 0 1 1 1 1 0 0 0 1 0 0 1 0 0 0

>  <DIFUSE_FUNC_ATOM>  (1551) 
atom 6   atom 7   

>  <FINAL_SINGLE_POINT_ENERGY>  (1551) 
0

>  <NONCOV_INTER_ENERGY_QM>  (1551) 
0

>  <FF_Energy>  (1551) 
31.81

>  <QM_Energy>  (1551) 
1.84

>  <source>  (1551) 
ACET_PRPA_17

>  <Index>  (1551) 
28624

$$$$
ACET-pdb3o59-X-GLU-103:PRPA-pdb3o59-X-VAL-128
     RDKit          3D

 18 16  0  0  0  0  0  0  0  0999 V2000
   -0.0095    1.5345    0.0277 C   0  0  0  0  0  0  0  0  0  0  0  0
   -0.0562    1.8148    0.9714 H   0  0  0  0  0  0  0  0  0  0  0  0
   -0.7969    1.8363   -0.4826 H   0  0  0  0  0  0  0  0  0  0  0  0
    0.8697    2.0055   -0.4119 H   0  0  0  0  0  0  0  0  0  0  0  0
    0.0000    0.0000    0.0000 C   0  0  0  0  0  0  0  0  0  0  0  0
   -1.1227   -0.6176    0.0000 O   0  0  0  0  0  1  0  0  0  0  0  0
    1.1227   -0.5636    0.0000 O   0  0  0  0  0  0  0  0  0  0  0  0
   -1.2442    3.8166    3.5537 C   0  0  0  0  0  0  0  0  0  0  0  0
   -0.4043    4.2435    3.8836 H   0  0  0  0  0  0  0  0  0  0  0  0
   -1.5857    4.3174    2.7597 H   0  0  0  0  0  0  0  0  0  0  0  0
   -1.9326    3.8254    4.2773 H   0  0  0  0  0  0  0  0  0  0  0  0
   -0.9518    2.3701    3.1518 C   0  0  0  0  0  0  0  0  0  0  0  0
   -0.7380    2.3825    2.1752 H   0  0  0  0  0  0  0  0  0  0  0  0
   -1.8210    1.7293    3.2996 H   0  0  0  0  0  0  0  0  0  0  0  0
    0.2823    1.7897    3.8991 C   0  0  0  0  0  0  0  0  0  0  0  0
    1.0440    1.7476    3.2615 H   0  0  0  0  0  0  0  0  0  0  0  0
    0.4985    2.3903    4.6617 H   0  0  0  0  0  0  0  0  0  0  0  0
    0.0509    0.8796    4.2267 H   0  0  0  0  0  0  0  0  0  0  0  0
  1  5  1  0
  5  6  1  0
  5  7  2  0
  1  2  1  0
  1  3  1  0
  1  4  1  0
  8 12  1  0
 12 15  1  0
  8  9  1  0
  8 10  1  0
  8 11  1  0
 12 13  1  0
 12 14  1  0
 15 16  1  0
 15 17  1  0
 15 18  1  0
M  CHG  1   6  -1
M  END
>  <PDB_ID>  (1552) 
pdb3o59

>  <RESIDUE_NAME>  (1552) 
GLU   VAL

>  <FRAG_NAME>  (1552) 
ACET   PRPA

>  <FRAG_ATOM_NUM>  (1552) 
fragi: 7  fragj: 11

>  <atom.prop.CHAIN_ID>  (1552) 
A A A A A A A Z Z Z Z Z Z Z Z Z Z Z

>  <atom.prop.IS_HEAVY_ATOM>  (1552) 
1 0 0 0 1 1 1 1 0 0 0 1 0 0 1 0 0 0

>  <DIFUSE_FUNC_ATOM>  (1552) 
atom 6   atom 7   

>  <FINAL_SINGLE_POINT_ENERGY>  (1552) 
0

>  <NONCOV_INTER_ENERGY_QM>  (1552) 
0

>  <FF_Energy>  (1552) 
31.84

>  <QM_Energy>  (1552) 
2.87

>  <source>  (1552) 
ACET_PRPA_17

>  <Index>  (1552) 
28634

$$$$
ACET-pdb3o2p-A-ASP-247:PRPA-pdb3o2p-A-LYS-243
     RDKit          3D

 18 16  0  0  0  0  0  0  0  0999 V2000
    0.0380    1.5169   -0.0192 C   0  0  0  0  0  0  0  0  0  0  0  0
    0.5315    1.8127   -0.8365 H   0  0  0  0  0  0  0  0  0  0  0  0
    0.5200    1.8343    0.7957 H   0  0  0  0  0  0  0  0  0  0  0  0
   -0.9457    1.9861   -0.0320 H   0  0  0  0  0  0  0  0  0  0  0  0
    0.0000    0.0000    0.0000 C   0  0  0  0  0  0  0  0  0  0  0  0
   -1.0950   -0.5987    0.0000 O   0  0  0  0  0  1  0  0  0  0  0  0
    1.0950   -0.5852    0.0000 O   0  0  0  0  0  0  0  0  0  0  0  0
    0.9279   -2.8511    2.3287 C   0  0  0  0  0  0  0  0  0  0  0  0
    1.6921   -3.4994    2.2413 H   0  0  0  0  0  0  0  0  0  0  0  0
    0.3639   -2.9058    1.4989 H   0  0  0  0  0  0  0  0  0  0  0  0
    0.3174   -3.1543    3.1792 H   0  0  0  0  0  0  0  0  0  0  0  0
    1.4837   -1.4421    2.4611 C   0  0  0  0  0  0  0  0  0  0  0  0
    0.9648   -0.8336    1.8700 H   0  0  0  0  0  0  0  0  0  0  0  0
    1.4081   -1.1522    3.4089 H   0  0  0  0  0  0  0  0  0  0  0  0
    2.9488   -1.3805    2.0523 C   0  0  0  0  0  0  0  0  0  0  0  0
    3.3499   -0.5246    2.4134 H   0  0  0  0  0  0  0  0  0  0  0  0
    3.4384   -2.1529    2.4858 H   0  0  0  0  0  0  0  0  0  0  0  0
    3.1061   -1.4195    0.9745 H   0  0  0  0  0  0  0  0  0  0  0  0
  1  5  1  0
  5  6  1  0
  5  7  2  0
  1  2  1  0
  1  3  1  0
  1  4  1  0
  8 12  1  0
 12 15  1  0
  8  9  1  0
  8 10  1  0
  8 11  1  0
 12 13  1  0
 12 14  1  0
 15 16  1  0
 15 17  1  0
 15 18  1  0
M  CHG  1   6  -1
M  END
>  <PDB_ID>  (1553) 
pdb3o2p

>  <RESIDUE_NAME>  (1553) 
ASP   LYS

>  <FRAG_NAME>  (1553) 
ACET   PRPA

>  <FRAG_ATOM_NUM>  (1553) 
fragi: 7  fragj: 11

>  <atom.prop.CHAIN_ID>  (1553) 
A A A A A A A Z Z Z Z Z Z Z Z Z Z Z

>  <atom.prop.IS_HEAVY_ATOM>  (1553) 
1 0 0 0 1 1 1 1 0 0 0 1 0 0 1 0 0 0

>  <DIFUSE_FUNC_ATOM>  (1553) 
atom 6   atom 7   

>  <FINAL_SINGLE_POINT_ENERGY>  (1553) 
0

>  <NONCOV_INTER_ENERGY_QM>  (1553) 
0

>  <FF_Energy>  (1553) 
27.2

>  <QM_Energy>  (1553) 
0.82

>  <source>  (1553) 
ACET_PRPA_17

>  <Index>  (1553) 
28821

$$$$
ACET-pdb3o6l-H-ASP-73:PRPA-pdb3o6l-H-ARG-76
     RDKit          3D

 18 16  0  0  0  0  0  0  0  0999 V2000
    0.0294    1.5500   -0.0430 C   0  0  0  0  0  0  0  0  0  0  0  0
    0.7182    1.8180   -0.7016 H   0  0  0  0  0  0  0  0  0  0  0  0
    0.2589    1.8707    0.8642 H   0  0  0  0  0  0  0  0  0  0  0  0
   -0.9307    1.9724   -0.3391 H   0  0  0  0  0  0  0  0  0  0  0  0
    0.0000    0.0000    0.0000 C   0  0  0  0  0  0  0  0  0  0  0  0
   -1.1210   -0.6128    0.0000 O   0  0  0  0  0  1  0  0  0  0  0  0
    1.1210   -0.5766   -0.0000 O   0  0  0  0  0  0  0  0  0  0  0  0
    1.3147    0.0192    3.9522 C   0  0  0  0  0  0  0  0  0  0  0  0
    1.4064    0.6235    3.1742 H   0  0  0  0  0  0  0  0  0  0  0  0
    2.0460    0.1609    4.6029 H   0  0  0  0  0  0  0  0  0  0  0  0
    0.3670    0.2349    4.4456 H   0  0  0  0  0  0  0  0  0  0  0  0
    1.3760   -1.3984    3.4671 C   0  0  0  0  0  0  0  0  0  0  0  0
    1.7701   -1.9837    4.1760 H   0  0  0  0  0  0  0  0  0  0  0  0
    0.4562   -1.7209    3.2425 H   0  0  0  0  0  0  0  0  0  0  0  0
    2.2300   -1.5239    2.2267 C   0  0  0  0  0  0  0  0  0  0  0  0
    1.6556   -1.3920    1.4381 H   0  0  0  0  0  0  0  0  0  0  0  0
    2.9502   -0.8542    2.2762 H   0  0  0  0  0  0  0  0  0  0  0  0
    2.6616   -2.5245    2.2021 H   0  0  0  0  0  0  0  0  0  0  0  0
  1  5  1  0
  5  6  1  0
  5  7  2  0
  1  2  1  0
  1  3  1  0
  1  4  1  0
  8 12  1  0
 12 15  1  0
  8  9  1  0
  8 10  1  0
  8 11  1  0
 12 13  1  0
 12 14  1  0
 15 16  1  0
 15 17  1  0
 15 18  1  0
M  CHG  1   6  -1
M  END
>  <PDB_ID>  (1554) 
pdb3o6l

>  <RESIDUE_NAME>  (1554) 
ASP   ARG

>  <FRAG_NAME>  (1554) 
ACET   PRPA

>  <FRAG_ATOM_NUM>  (1554) 
fragi: 7  fragj: 11

>  <atom.prop.CHAIN_ID>  (1554) 
A A A A A A A Z Z Z Z Z Z Z Z Z Z Z

>  <atom.prop.IS_HEAVY_ATOM>  (1554) 
1 0 0 0 1 1 1 1 0 0 0 1 0 0 1 0 0 0

>  <DIFUSE_FUNC_ATOM>  (1554) 
atom 6   atom 7   

>  <FINAL_SINGLE_POINT_ENERGY>  (1554) 
0

>  <NONCOV_INTER_ENERGY_QM>  (1554) 
0

>  <FF_Energy>  (1554) 
44.23

>  <QM_Energy>  (1554) 
2.25

>  <source>  (1554) 
ACET_PRPA_17

>  <Index>  (1554) 
29799

$$$$
ACET-pdb3o38-A-GLU-53:PRPA-pdb3o38-A-VAL-75
     RDKit          3D

 18 16  0  0  0  0  0  0  0  0999 V2000
    0.1849    1.4883    0.0138 C   0  0  0  0  0  0  0  0  0  0  0  0
    0.7021    1.7387   -0.8033 H   0  0  0  0  0  0  0  0  0  0  0  0
    0.7129    1.7214    0.8286 H   0  0  0  0  0  0  0  0  0  0  0  0
   -0.7265    2.0861    0.0255 H   0  0  0  0  0  0  0  0  0  0  0  0
    0.0000    0.0000    0.0000 C   0  0  0  0  0  0  0  0  0  0  0  0
   -1.0889   -0.5538    0.0000 O   0  0  0  0  0  1  0  0  0  0  0  0
    1.0889   -0.6104   -0.0000 O   0  0  0  0  0  0  0  0  0  0  0  0
    4.0058    2.2536   -1.3253 C   0  0  0  0  0  0  0  0  0  0  0  0
    4.9681    2.0119   -1.4003 H   0  0  0  0  0  0  0  0  0  0  0  0
    3.9082    3.1450   -0.8934 H   0  0  0  0  0  0  0  0  0  0  0  0
    3.5178    1.5627   -0.8000 H   0  0  0  0  0  0  0  0  0  0  0  0
    3.3963    2.3203   -2.7490 C   0  0  0  0  0  0  0  0  0  0  0  0
    3.6091    1.4623   -3.1903 H   0  0  0  0  0  0  0  0  0  0  0  0
    3.8722    3.1127   -3.3267 H   0  0  0  0  0  0  0  0  0  0  0  0
    1.8606    2.5090   -2.6946 C   0  0  0  0  0  0  0  0  0  0  0  0
    1.6641    3.3888   -2.2734 H   0  0  0  0  0  0  0  0  0  0  0  0
    1.5048    2.4829   -3.6243 H   0  0  0  0  0  0  0  0  0  0  0  0
    1.4699    1.7704   -2.1536 H   0  0  0  0  0  0  0  0  0  0  0  0
  1  5  1  0
  5  6  1  0
  5  7  2  0
  1  2  1  0
  1  3  1  0
  1  4  1  0
  8 12  1  0
 12 15  1  0
  8  9  1  0
  8 10  1  0
  8 11  1  0
 12 13  1  0
 12 14  1  0
 15 16  1  0
 15 17  1  0
 15 18  1  0
M  CHG  1   6  -1
M  END
>  <PDB_ID>  (1555) 
pdb3o38

>  <RESIDUE_NAME>  (1555) 
GLU   VAL

>  <FRAG_NAME>  (1555) 
ACET   PRPA

>  <FRAG_ATOM_NUM>  (1555) 
fragi: 7  fragj: 11

>  <atom.prop.CHAIN_ID>  (1555) 
A A A A A A A Z Z Z Z Z Z Z Z Z Z Z

>  <atom.prop.IS_HEAVY_ATOM>  (1555) 
1 0 0 0 1 1 1 1 0 0 0 1 0 0 1 0 0 0

>  <DIFUSE_FUNC_ATOM>  (1555) 
atom 6   atom 7   

>  <FINAL_SINGLE_POINT_ENERGY>  (1555) 
0

>  <NONCOV_INTER_ENERGY_QM>  (1555) 
0

>  <FF_Energy>  (1555) 
18.03

>  <QM_Energy>  (1555) 
1.58

>  <source>  (1555) 
ACET_PRPA_17

>  <Index>  (1555) 
30669

$$$$
ACET-pdb3oa6-A-ASP-43:PRPA-pdb3oa6-A-ARG-47
     RDKit          3D

 18 16  0  0  0  0  0  0  0  0999 V2000
    0.0037    1.5118    0.0189 C   0  0  0  0  0  0  0  0  0  0  0  0
   -0.8929    1.8427   -0.2531 H   0  0  0  0  0  0  0  0  0  0  0  0
    0.7011    1.8436   -0.6057 H   0  0  0  0  0  0  0  0  0  0  0  0
    0.2210    1.9259    1.0036 H   0  0  0  0  0  0  0  0  0  0  0  0
    0.0000    0.0000    0.0000 C   0  0  0  0  0  0  0  0  0  0  0  0
   -1.0833   -0.6314   -0.0000 O   0  0  0  0  0  1  0  0  0  0  0  0
    1.0833   -0.5722    0.0000 O   0  0  0  0  0  0  0  0  0  0  0  0
    3.4744   -1.7654   -0.0646 C   0  0  0  0  0  0  0  0  0  0  0  0
    4.1345   -2.5210   -0.0340 H   0  0  0  0  0  0  0  0  0  0  0  0
    2.8288   -1.8516    0.8094 H   0  0  0  0  0  0  0  0  0  0  0  0
    4.0081   -0.8150   -0.0580 H   0  0  0  0  0  0  0  0  0  0  0  0
    2.7302   -1.9050   -1.4032 C   0  0  0  0  0  0  0  0  0  0  0  0
    1.7970   -1.5782   -1.2772 H   0  0  0  0  0  0  0  0  0  0  0  0
    3.1987   -1.3453   -2.0806 H   0  0  0  0  0  0  0  0  0  0  0  0
    2.6537   -3.3395   -1.9542 C   0  0  0  0  0  0  0  0  0  0  0  0
    3.3873   -3.4905   -2.5945 H   0  0  0  0  0  0  0  0  0  0  0  0
    2.6781   -3.9834   -1.2090 H   0  0  0  0  0  0  0  0  0  0  0  0
    1.7146   -3.4882   -2.4871 H   0  0  0  0  0  0  0  0  0  0  0  0
  1  5  1  0
  5  6  1  0
  5  7  2  0
  1  2  1  0
  1  3  1  0
  1  4  1  0
  8 12  1  0
 12 15  1  0
  8  9  1  0
  8 10  1  0
  8 11  1  0
 12 13  1  0
 12 14  1  0
 15 16  1  0
 15 17  1  0
 15 18  1  0
M  CHG  1   6  -1
M  END
>  <PDB_ID>  (1556) 
pdb3oa6

>  <RESIDUE_NAME>  (1556) 
ASP   ARG

>  <FRAG_NAME>  (1556) 
ACET   PRPA

>  <FRAG_ATOM_NUM>  (1556) 
fragi: 7  fragj: 11

>  <atom.prop.CHAIN_ID>  (1556) 
A A A A A A A Z Z Z Z Z Z Z Z Z Z Z

>  <atom.prop.IS_HEAVY_ATOM>  (1556) 
1 0 0 0 1 1 1 1 0 0 0 1 0 0 1 0 0 0

>  <DIFUSE_FUNC_ATOM>  (1556) 
atom 6   atom 7   

>  <FINAL_SINGLE_POINT_ENERGY>  (1556) 
0

>  <NONCOV_INTER_ENERGY_QM>  (1556) 
0

>  <FF_Energy>  (1556) 
48.46

>  <QM_Energy>  (1556) 
5.07

>  <source>  (1556) 
ACET_PRPA_17

>  <Index>  (1556) 
30924

$$$$
ACET-pdb3oa6-A-ASP-43:PRPA-pdb3oa6-A-ARG-47
     RDKit          3D

 18 16  0  0  0  0  0  0  0  0999 V2000
    0.0037    1.5118    0.0189 C   0  0  0  0  0  0  0  0  0  0  0  0
   -0.8929    1.8427   -0.2531 H   0  0  0  0  0  0  0  0  0  0  0  0
    0.7011    1.8436   -0.6057 H   0  0  0  0  0  0  0  0  0  0  0  0
    0.2210    1.9259    1.0036 H   0  0  0  0  0  0  0  0  0  0  0  0
    0.0000    0.0000    0.0000 C   0  0  0  0  0  0  0  0  0  0  0  0
   -1.0833   -0.6314   -0.0000 O   0  0  0  0  0  1  0  0  0  0  0  0
    1.0833   -0.5722    0.0000 O   0  0  0  0  0  0  0  0  0  0  0  0
    2.7302   -1.9050   -1.4032 C   0  0  0  0  0  0  0  0  0  0  0  0
    1.7970   -1.5782   -1.2772 H   0  0  0  0  0  0  0  0  0  0  0  0
    3.1987   -1.3453   -2.0806 H   0  0  0  0  0  0  0  0  0  0  0  0
    3.2577   -1.8060   -0.4544 H   0  0  0  0  0  0  0  0  0  0  0  0
    2.6537   -3.3395   -1.9542 C   0  0  0  0  0  0  0  0  0  0  0  0
    3.3873   -3.4905   -2.5945 H   0  0  0  0  0  0  0  0  0  0  0  0
    2.6781   -3.9834   -1.2090 H   0  0  0  0  0  0  0  0  0  0  0  0
    1.3118   -3.5519   -2.7156 C   0  0  0  0  0  0  0  0  0  0  0  0
    1.4861   -3.3875   -3.6719 H   0  0  0  0  0  0  0  0  0  0  0  0
    1.0233   -4.4800   -2.5494 H   0  0  0  0  0  0  0  0  0  0  0  0
    0.5534   -2.8580   -2.3532 H   0  0  0  0  0  0  0  0  0  0  0  0
  1  5  1  0
  5  6  1  0
  5  7  2  0
  1  2  1  0
  1  3  1  0
  1  4  1  0
  8 12  1  0
 12 15  1  0
  8  9  1  0
  8 10  1  0
  8 11  1  0
 12 13  1  0
 12 14  1  0
 15 16  1  0
 15 17  1  0
 15 18  1  0
M  CHG  1   6  -1
M  END
>  <PDB_ID>  (1557) 
pdb3oa6

>  <RESIDUE_NAME>  (1557) 
ASP   ARG

>  <FRAG_NAME>  (1557) 
ACET   PRPA

>  <FRAG_ATOM_NUM>  (1557) 
fragi: 7  fragj: 11

>  <atom.prop.CHAIN_ID>  (1557) 
A A A A A A A Z Z Z Z Z Z Z Z Z Z Z

>  <atom.prop.IS_HEAVY_ATOM>  (1557) 
1 0 0 0 1 1 1 1 0 0 0 1 0 0 1 0 0 0

>  <DIFUSE_FUNC_ATOM>  (1557) 
atom 6   atom 7   

>  <FINAL_SINGLE_POINT_ENERGY>  (1557) 
0

>  <NONCOV_INTER_ENERGY_QM>  (1557) 
0

>  <FF_Energy>  (1557) 
38.14

>  <QM_Energy>  (1557) 
5.27

>  <source>  (1557) 
ACET_PRPA_17

>  <Index>  (1557) 
30935

$$$$
ACET-pdb3myr-E-GLU-171:PRPA-pdb3myr-E-LEU-179
     RDKit          3D

 18 16  0  0  0  0  0  0  0  0999 V2000
    0.0488    1.5769    0.0812 C   0  0  0  0  0  0  0  0  0  0  0  0
   -0.8071    1.8766   -0.2716 H   0  0  0  0  0  0  0  0  0  0  0  0
    0.8139    1.8355   -0.4626 H   0  0  0  0  0  0  0  0  0  0  0  0
    0.1774    1.8980    1.1148 H   0  0  0  0  0  0  0  0  0  0  0  0
    0.0000    0.0000    0.0000 C   0  0  0  0  0  0  0  0  0  0  0  0
   -1.1139   -0.6422   -0.0000 O   0  0  0  0  0  1  0  0  0  0  0  0
    1.1139   -0.5789    0.0000 O   0  0  0  0  0  0  0  0  0  0  0  0
   -3.7796    3.9066   -1.1156 C   0  0  0  0  0  0  0  0  0  0  0  0
   -3.5123    3.5080   -0.2617 H   0  0  0  0  0  0  0  0  0  0  0  0
   -4.4790    3.3987   -1.5734 H   0  0  0  0  0  0  0  0  0  0  0  0
   -4.1696    4.9036   -0.9108 H   0  0  0  0  0  0  0  0  0  0  0  0
   -2.5430    3.9300   -2.0285 C   0  0  0  0  0  0  0  0  0  0  0  0
   -1.8129    4.4334   -1.5916 H   0  0  0  0  0  0  0  0  0  0  0  0
   -2.7203    4.4041   -2.9939 H   0  0  0  0  0  0  0  0  0  0  0  0
   -2.0357    2.4528   -2.2818 C   0  0  0  0  0  0  0  0  0  0  0  0
   -2.7699    1.9496   -2.7156 H   0  0  0  0  0  0  0  0  0  0  0  0
   -1.2408    2.5016   -2.8714 H   0  0  0  0  0  0  0  0  0  0  0  0
   -1.8035    2.0566   -1.4044 H   0  0  0  0  0  0  0  0  0  0  0  0
  1  5  1  0
  5  6  1  0
  5  7  2  0
  1  2  1  0
  1  3  1  0
  1  4  1  0
  8 12  1  0
 12 15  1  0
  8  9  1  0
  8 10  1  0
  8 11  1  0
 12 13  1  0
 12 14  1  0
 15 16  1  0
 15 17  1  0
 15 18  1  0
M  CHG  1   6  -1
M  END
>  <PDB_ID>  (1558) 
pdb3myr

>  <RESIDUE_NAME>  (1558) 
GLU   LEU

>  <FRAG_NAME>  (1558) 
ACET   PRPA

>  <FRAG_ATOM_NUM>  (1558) 
fragi: 7  fragj: 11

>  <atom.prop.CHAIN_ID>  (1558) 
A A A A A A A Z Z Z Z Z Z Z Z Z Z Z

>  <atom.prop.IS_HEAVY_ATOM>  (1558) 
1 0 0 0 1 1 1 1 0 0 0 1 0 0 1 0 0 0

>  <DIFUSE_FUNC_ATOM>  (1558) 
atom 6   atom 7   

>  <FINAL_SINGLE_POINT_ENERGY>  (1558) 
0

>  <NONCOV_INTER_ENERGY_QM>  (1558) 
0

>  <FF_Energy>  (1558) 
23.32

>  <QM_Energy>  (1558) 
2.74

>  <source>  (1558) 
ACET_PRPA_17

>  <Index>  (1558) 
31070

$$$$
ACET-pdb3no9-C-ASP-190:PRPA-pdb3no9-B-PRO-302
     RDKit          3D

 18 16  0  0  0  0  0  0  0  0999 V2000
    0.0273    1.5186    0.0300 C   0  0  0  0  0  0  0  0  0  0  0  0
    0.8222    1.8333   -0.4797 H   0  0  0  0  0  0  0  0  0  0  0  0
    0.0856    1.8186    0.9767 H   0  0  0  0  0  0  0  0  0  0  0  0
   -0.8586    1.9734   -0.4131 H   0  0  0  0  0  0  0  0  0  0  0  0
    0.0000    0.0000    0.0000 C   0  0  0  0  0  0  0  0  0  0  0  0
   -1.1061   -0.6013   -0.0000 O   0  0  0  0  0  1  0  0  0  0  0  0
    1.1061   -0.5884   -0.0000 O   0  0  0  0  0  0  0  0  0  0  0  0
    3.0641   -3.5445   -2.3935 C   0  0  0  0  0  0  0  0  0  0  0  0
    3.5011   -4.2185   -1.7907 H   0  0  0  0  0  0  0  0  0  0  0  0
    3.4970   -3.5901   -3.2977 H   0  0  0  0  0  0  0  0  0  0  0  0
    1.9940   -3.7372   -2.4702 H   0  0  0  0  0  0  0  0  0  0  0  0
    3.1539   -2.1758   -1.8226 C   0  0  0  0  0  0  0  0  0  0  0  0
    3.1054   -2.2062   -0.8160 H   0  0  0  0  0  0  0  0  0  0  0  0
    4.0239   -1.7384   -2.0825 H   0  0  0  0  0  0  0  0  0  0  0  0
    1.9870   -1.4176   -2.3889 C   0  0  0  0  0  0  0  0  0  0  0  0
    1.6242   -0.7572   -1.7314 H   0  0  0  0  0  0  0  0  0  0  0  0
    2.2331   -0.9422   -3.2349 H   0  0  0  0  0  0  0  0  0  0  0  0
    1.2539   -2.1991   -2.5887 H   0  0  0  0  0  0  0  0  0  0  0  0
  1  5  1  0
  5  6  1  0
  5  7  2  0
  1  2  1  0
  1  3  1  0
  1  4  1  0
  8 12  1  0
 12 15  1  0
  8  9  1  0
  8 10  1  0
  8 11  1  0
 12 13  1  0
 12 14  1  0
 15 16  1  0
 15 17  1  0
 15 18  1  0
M  CHG  1   6  -1
M  END
>  <PDB_ID>  (1559) 
pdb3no9

>  <RESIDUE_NAME>  (1559) 
ASP   PRO

>  <FRAG_NAME>  (1559) 
ACET   PRPA

>  <FRAG_ATOM_NUM>  (1559) 
fragi: 7  fragj: 11

>  <atom.prop.CHAIN_ID>  (1559) 
A A A A A A A Z Z Z Z Z Z Z Z Z Z Z

>  <atom.prop.IS_HEAVY_ATOM>  (1559) 
1 0 0 0 1 1 1 1 0 0 0 1 0 0 1 0 0 0

>  <DIFUSE_FUNC_ATOM>  (1559) 
atom 6   atom 7   

>  <FINAL_SINGLE_POINT_ENERGY>  (1559) 
0

>  <NONCOV_INTER_ENERGY_QM>  (1559) 
0

>  <FF_Energy>  (1559) 
27.91

>  <QM_Energy>  (1559) 
1.53

>  <source>  (1559) 
ACET_PRPA_17

>  <Index>  (1559) 
31359

$$$$
ACET-pdb4m68-A-GLU-227:PRPA-pdb4m68-A-ILE-231
     RDKit          3D

 18 16  0  0  0  0  0  0  0  0999 V2000
    0.0001    1.5175   -0.0058 C   0  0  0  0  0  0  0  0  0  0  0  0
   -0.8408    1.8132   -0.4192 H   0  0  0  0  0  0  0  0  0  0  0  0
    0.7892    1.8122   -0.5121 H   0  0  0  0  0  0  0  0  0  0  0  0
    0.0565    1.9443    0.9956 H   0  0  0  0  0  0  0  0  0  0  0  0
    0.0000    0.0000    0.0000 C   0  0  0  0  0  0  0  0  0  0  0  0
   -1.0970   -0.5997    0.0000 O   0  0  0  0  0  1  0  0  0  0  0  0
    1.0970   -0.5959   -0.0000 O   0  0  0  0  0  0  0  0  0  0  0  0
    3.0991    0.1750   -2.0886 C   0  0  0  0  0  0  0  0  0  0  0  0
    3.5016    0.2523   -1.1830 H   0  0  0  0  0  0  0  0  0  0  0  0
    3.8803    0.4134   -2.8103 H   0  0  0  0  0  0  0  0  0  0  0  0
    2.2599    0.8691   -2.1330 H   0  0  0  0  0  0  0  0  0  0  0  0
    2.5947   -1.2560   -2.2754 C   0  0  0  0  0  0  0  0  0  0  0  0
    1.6073   -1.2278   -2.4158 H   0  0  0  0  0  0  0  0  0  0  0  0
    3.0240   -1.6348   -3.0939 H   0  0  0  0  0  0  0  0  0  0  0  0
    2.8991   -2.1626   -1.1036 C   0  0  0  0  0  0  0  0  0  0  0  0
    2.4659   -1.7982   -0.2806 H   0  0  0  0  0  0  0  0  0  0  0  0
    2.5439   -3.0778   -1.2914 H   0  0  0  0  0  0  0  0  0  0  0  0
    3.8884   -2.2092   -0.9686 H   0  0  0  0  0  0  0  0  0  0  0  0
  1  5  1  0
  5  6  1  0
  5  7  2  0
  1  2  1  0
  1  3  1  0
  1  4  1  0
  8 12  1  0
 12 15  1  0
  8  9  1  0
  8 10  1  0
  8 11  1  0
 12 13  1  0
 12 14  1  0
 15 16  1  0
 15 17  1  0
 15 18  1  0
M  CHG  1   6  -1
M  END
>  <PDB_ID>  (1560) 
pdb4m68

>  <RESIDUE_NAME>  (1560) 
GLU   ILE

>  <FRAG_NAME>  (1560) 
ACET   PRPA

>  <FRAG_ATOM_NUM>  (1560) 
fragi: 7  fragj: 11

>  <atom.prop.CHAIN_ID>  (1560) 
A A A A A A A Z Z Z Z Z Z Z Z Z Z Z

>  <atom.prop.IS_HEAVY_ATOM>  (1560) 
1 0 0 0 1 1 1 1 0 0 0 1 0 0 1 0 0 0

>  <DIFUSE_FUNC_ATOM>  (1560) 
atom 6   atom 7   

>  <FINAL_SINGLE_POINT_ENERGY>  (1560) 
0

>  <NONCOV_INTER_ENERGY_QM>  (1560) 
0

>  <FF_Energy>  (1560) 
27.42

>  <QM_Energy>  (1560) 
0.29

>  <source>  (1560) 
ACET_PRPA_17

>  <Index>  (1560) 
33637

$$$$
ACET-pdb4m6b-A-GLU-108:PRPA-pdb4m6b-A-LYS-111
     RDKit          3D

 18 16  0  0  0  0  0  0  0  0999 V2000
    0.0030    1.5107   -0.0045 C   0  0  0  0  0  0  0  0  0  0  0  0
    0.3005    1.8031   -0.8931 H   0  0  0  0  0  0  0  0  0  0  0  0
    0.6078    1.8065    0.7104 H   0  0  0  0  0  0  0  0  0  0  0  0
   -0.9901    1.9185    0.1839 H   0  0  0  0  0  0  0  0  0  0  0  0
    0.0000    0.0000    0.0000 C   0  0  0  0  0  0  0  0  0  0  0  0
   -1.0839   -0.6033   -0.0000 O   0  0  0  0  0  1  0  0  0  0  0  0
    1.0839   -0.6050    0.0000 O   0  0  0  0  0  0  0  0  0  0  0  0
   -3.4431   -1.9359   -0.9138 C   0  0  0  0  0  0  0  0  0  0  0  0
   -3.3145   -0.9930   -1.1812 H   0  0  0  0  0  0  0  0  0  0  0  0
   -3.6378   -2.0142    0.0513 H   0  0  0  0  0  0  0  0  0  0  0  0
   -4.2472   -2.3843   -1.4972 H   0  0  0  0  0  0  0  0  0  0  0  0
   -2.1620   -2.7047   -1.2152 C   0  0  0  0  0  0  0  0  0  0  0  0
   -2.1483   -2.9338   -2.1827 H   0  0  0  0  0  0  0  0  0  0  0  0
   -1.3823   -2.1316   -0.9841 H   0  0  0  0  0  0  0  0  0  0  0  0
   -2.0825   -3.9846   -0.4087 C   0  0  0  0  0  0  0  0  0  0  0  0
   -3.0135   -4.3374   -0.2611 H   0  0  0  0  0  0  0  0  0  0  0  0
   -1.5605   -4.6687   -0.9291 H   0  0  0  0  0  0  0  0  0  0  0  0
   -1.6028   -3.8342    0.5585 H   0  0  0  0  0  0  0  0  0  0  0  0
  1  5  1  0
  5  6  1  0
  5  7  2  0
  1  2  1  0
  1  3  1  0
  1  4  1  0
  8 12  1  0
 12 15  1  0
  8  9  1  0
  8 10  1  0
  8 11  1  0
 12 13  1  0
 12 14  1  0
 15 16  1  0
 15 17  1  0
 15 18  1  0
M  CHG  1   6  -1
M  END
>  <PDB_ID>  (1561) 
pdb4m6b

>  <RESIDUE_NAME>  (1561) 
GLU   LYS

>  <FRAG_NAME>  (1561) 
ACET   PRPA

>  <FRAG_ATOM_NUM>  (1561) 
fragi: 7  fragj: 11

>  <atom.prop.CHAIN_ID>  (1561) 
A A A A A A A Z Z Z Z Z Z Z Z Z Z Z

>  <atom.prop.IS_HEAVY_ATOM>  (1561) 
1 0 0 0 1 1 1 1 0 0 0 1 0 0 1 0 0 0

>  <DIFUSE_FUNC_ATOM>  (1561) 
atom 6   atom 7   

>  <FINAL_SINGLE_POINT_ENERGY>  (1561) 
0

>  <NONCOV_INTER_ENERGY_QM>  (1561) 
0

>  <FF_Energy>  (1561) 
28.37

>  <QM_Energy>  (1561) 
-0.01

>  <source>  (1561) 
ACET_PRPA_17

>  <Index>  (1561) 
34587

$$$$
ACET-pdb4m59-A-GLU-101:PRPA-pdb4m59-A-LEU-79
     RDKit          3D

 18 16  0  0  0  0  0  0  0  0999 V2000
   -0.0026    1.5179   -0.0034 C   0  0  0  0  0  0  0  0  0  0  0  0
    0.5365    1.8134   -0.7683 H   0  0  0  0  0  0  0  0  0  0  0  0
    0.3673    1.8170    0.8556 H   0  0  0  0  0  0  0  0  0  0  0  0
   -1.0046    1.9336   -0.1093 H   0  0  0  0  0  0  0  0  0  0  0  0
    0.0000    0.0000    0.0000 C   0  0  0  0  0  0  0  0  0  0  0  0
   -1.0970   -0.5928   -0.0000 O   0  0  0  0  0  1  0  0  0  0  0  0
    1.0970   -0.5942    0.0000 O   0  0  0  0  0  0  0  0  0  0  0  0
    2.2709   -0.5424   -4.6449 C   0  0  0  0  0  0  0  0  0  0  0  0
    3.0998   -0.0960   -4.3770 H   0  0  0  0  0  0  0  0  0  0  0  0
    1.6876    0.0211   -5.1907 H   0  0  0  0  0  0  0  0  0  0  0  0
    2.5301   -1.4295   -5.2228 H   0  0  0  0  0  0  0  0  0  0  0  0
    1.5180   -0.9174   -3.3909 C   0  0  0  0  0  0  0  0  0  0  0  0
    0.7275   -1.4761   -3.6399 H   0  0  0  0  0  0  0  0  0  0  0  0
    2.1795   -1.4801   -2.7321 H   0  0  0  0  0  0  0  0  0  0  0  0
    1.1242    0.3245   -2.7420 C   0  0  0  0  0  0  0  0  0  0  0  0
    0.5311    0.8820   -3.3441 H   0  0  0  0  0  0  0  0  0  0  0  0
    0.6107    0.1465   -1.8880 H   0  0  0  0  0  0  0  0  0  0  0  0
    1.9313    0.8872   -2.5027 H   0  0  0  0  0  0  0  0  0  0  0  0
  1  5  1  0
  5  6  1  0
  5  7  2  0
  1  2  1  0
  1  3  1  0
  1  4  1  0
  8 12  1  0
 12 15  1  0
  8  9  1  0
  8 10  1  0
  8 11  1  0
 12 13  1  0
 12 14  1  0
 15 16  1  0
 15 17  1  0
 15 18  1  0
M  CHG  1   6  -1
M  END
>  <PDB_ID>  (1562) 
pdb4m59

>  <RESIDUE_NAME>  (1562) 
GLU   LEU

>  <FRAG_NAME>  (1562) 
ACET   PRPA

>  <FRAG_ATOM_NUM>  (1562) 
fragi: 7  fragj: 11

>  <atom.prop.CHAIN_ID>  (1562) 
A A A A A A A Z Z Z Z Z Z Z Z Z Z Z

>  <atom.prop.IS_HEAVY_ATOM>  (1562) 
1 0 0 0 1 1 1 1 0 0 0 1 0 0 1 0 0 0

>  <DIFUSE_FUNC_ATOM>  (1562) 
atom 6   atom 7   

>  <FINAL_SINGLE_POINT_ENERGY>  (1562) 
0

>  <NONCOV_INTER_ENERGY_QM>  (1562) 
0

>  <FF_Energy>  (1562) 
28.74

>  <QM_Energy>  (1562) 
3.14

>  <source>  (1562) 
ACET_PRPA_17

>  <Index>  (1562) 
35615

$$$$
ACET-pdb4m59-A-GLU-101:PRPA-pdb4m59-A-LEU-79
     RDKit          3D

 18 16  0  0  0  0  0  0  0  0999 V2000
   -0.0026    1.5179   -0.0034 C   0  0  0  0  0  0  0  0  0  0  0  0
    0.5365    1.8134   -0.7683 H   0  0  0  0  0  0  0  0  0  0  0  0
    0.3673    1.8170    0.8556 H   0  0  0  0  0  0  0  0  0  0  0  0
   -1.0046    1.9336   -0.1093 H   0  0  0  0  0  0  0  0  0  0  0  0
    0.0000    0.0000    0.0000 C   0  0  0  0  0  0  0  0  0  0  0  0
   -1.0970   -0.5928   -0.0000 O   0  0  0  0  0  1  0  0  0  0  0  0
    1.0970   -0.5942    0.0000 O   0  0  0  0  0  0  0  0  0  0  0  0
    2.4218   -1.6862   -2.4907 C   0  0  0  0  0  0  0  0  0  0  0  0
    3.2229   -1.1310   -2.2415 H   0  0  0  0  0  0  0  0  0  0  0  0
    1.9393   -1.9464   -1.6477 H   0  0  0  0  0  0  0  0  0  0  0  0
    2.7425   -2.5233   -2.9469 H   0  0  0  0  0  0  0  0  0  0  0  0
    1.5180   -0.9174   -3.3909 C   0  0  0  0  0  0  0  0  0  0  0  0
    0.7275   -1.4761   -3.6399 H   0  0  0  0  0  0  0  0  0  0  0  0
    2.0615   -0.6467   -4.2962 H   0  0  0  0  0  0  0  0  0  0  0  0
    1.1242    0.3245   -2.7420 C   0  0  0  0  0  0  0  0  0  0  0  0
    0.5311    0.8820   -3.3441 H   0  0  0  0  0  0  0  0  0  0  0  0
    0.6107    0.1465   -1.8880 H   0  0  0  0  0  0  0  0  0  0  0  0
    1.9313    0.8872   -2.5027 H   0  0  0  0  0  0  0  0  0  0  0  0
  1  5  1  0
  5  6  1  0
  5  7  2  0
  1  2  1  0
  1  3  1  0
  1  4  1  0
  8 12  1  0
 12 15  1  0
  8  9  1  0
  8 10  1  0
  8 11  1  0
 12 13  1  0
 12 14  1  0
 15 16  1  0
 15 17  1  0
 15 18  1  0
M  CHG  1   6  -1
M  END
>  <PDB_ID>  (1563) 
pdb4m59

>  <RESIDUE_NAME>  (1563) 
GLU   LEU

>  <FRAG_NAME>  (1563) 
ACET   PRPA

>  <FRAG_ATOM_NUM>  (1563) 
fragi: 7  fragj: 11

>  <atom.prop.CHAIN_ID>  (1563) 
A A A A A A A Z Z Z Z Z Z Z Z Z Z Z

>  <atom.prop.IS_HEAVY_ATOM>  (1563) 
1 0 0 0 1 1 1 1 0 0 0 1 0 0 1 0 0 0

>  <DIFUSE_FUNC_ATOM>  (1563) 
atom 6   atom 7   

>  <FINAL_SINGLE_POINT_ENERGY>  (1563) 
0

>  <NONCOV_INTER_ENERGY_QM>  (1563) 
0

>  <FF_Energy>  (1563) 
30.82

>  <QM_Energy>  (1563) 
2.79

>  <source>  (1563) 
ACET_PRPA_17

>  <Index>  (1563) 
35625

$$$$
ACET-pdb4lw2-A-ASP-178:PRPA-pdb4lw2-A-ARG-181
     RDKit          3D

 18 16  0  0  0  0  0  0  0  0999 V2000
    0.0341    1.5624   -0.0979 C   0  0  0  0  0  0  0  0  0  0  0  0
    0.7580    1.8069   -0.7135 H   0  0  0  0  0  0  0  0  0  0  0  0
    0.1722    1.9153    0.8063 H   0  0  0  0  0  0  0  0  0  0  0  0
   -0.9059    1.9525   -0.4884 H   0  0  0  0  0  0  0  0  0  0  0  0
    0.0000    0.0000    0.0000 C   0  0  0  0  0  0  0  0  0  0  0  0
   -1.0992   -0.6659    0.0000 O   0  0  0  0  0  1  0  0  0  0  0  0
    1.0992   -0.5733    0.0000 O   0  0  0  0  0  0  0  0  0  0  0  0
   -0.0889   -0.7646    3.4280 C   0  0  0  0  0  0  0  0  0  0  0  0
   -0.1754   -0.0980    2.7177 H   0  0  0  0  0  0  0  0  0  0  0  0
    0.5103   -0.4835    4.1473 H   0  0  0  0  0  0  0  0  0  0  0  0
   -1.0726   -0.9935    3.8380 H   0  0  0  0  0  0  0  0  0  0  0  0
    0.5439   -2.0407    2.7808 C   0  0  0  0  0  0  0  0  0  0  0  0
    0.5605   -2.7776    3.4644 H   0  0  0  0  0  0  0  0  0  0  0  0
   -0.0308   -2.3325    2.0084 H   0  0  0  0  0  0  0  0  0  0  0  0
    2.0083   -1.8777    2.2350 C   0  0  0  0  0  0  0  0  0  0  0  0
    2.3600   -2.7922    2.0742 H   0  0  0  0  0  0  0  0  0  0  0  0
    1.9430   -1.3717    1.3833 H   0  0  0  0  0  0  0  0  0  0  0  0
    2.6564   -1.3481    2.9334 H   0  0  0  0  0  0  0  0  0  0  0  0
  1  5  1  0
  5  6  1  0
  5  7  2  0
  1  2  1  0
  1  3  1  0
  1  4  1  0
  8 12  1  0
 12 15  1  0
  8  9  1  0
  8 10  1  0
  8 11  1  0
 12 13  1  0
 12 14  1  0
 15 16  1  0
 15 17  1  0
 15 18  1  0
M  CHG  1   6  -1
M  END
>  <PDB_ID>  (1564) 
pdb4lw2

>  <RESIDUE_NAME>  (1564) 
ASP   ARG

>  <FRAG_NAME>  (1564) 
ACET   PRPA

>  <FRAG_ATOM_NUM>  (1564) 
fragi: 7  fragj: 11

>  <atom.prop.CHAIN_ID>  (1564) 
A A A A A A A Z Z Z Z Z Z Z Z Z Z Z

>  <atom.prop.IS_HEAVY_ATOM>  (1564) 
1 0 0 0 1 1 1 1 0 0 0 1 0 0 1 0 0 0

>  <DIFUSE_FUNC_ATOM>  (1564) 
atom 6   atom 7   

>  <FINAL_SINGLE_POINT_ENERGY>  (1564) 
0

>  <NONCOV_INTER_ENERGY_QM>  (1564) 
0

>  <FF_Energy>  (1564) 
47.75

>  <QM_Energy>  (1564) 
-1.76

>  <source>  (1564) 
ACET_PRPA_17

>  <Index>  (1564) 
36072

$$$$
ACET-pdb3oet-A-GLU-34:PRPA-pdb3oet-A-LYS-23
     RDKit          3D

 18 16  0  0  0  0  0  0  0  0999 V2000
    0.2416    1.5220    0.0159 C   0  0  0  0  0  0  0  0  0  0  0  0
    0.7438    1.7424   -0.8010 H   0  0  0  0  0  0  0  0  0  0  0  0
    0.7552    1.7226    0.8307 H   0  0  0  0  0  0  0  0  0  0  0  0
   -0.6739    2.1134    0.0279 H   0  0  0  0  0  0  0  0  0  0  0  0
    0.0000    0.0000    0.0000 C   0  0  0  0  0  0  0  0  0  0  0  0
   -1.0865   -0.5192    0.0000 O   0  0  0  0  0  1  0  0  0  0  0  0
    1.0865   -0.6205   -0.0000 O   0  0  0  0  0  0  0  0  0  0  0  0
   -3.0212   -2.0648   -2.7082 C   0  0  0  0  0  0  0  0  0  0  0  0
   -2.8614   -1.7634   -3.6418 H   0  0  0  0  0  0  0  0  0  0  0  0
   -3.4347   -1.3344   -2.1749 H   0  0  0  0  0  0  0  0  0  0  0  0
   -3.7095   -2.9097   -2.7295 H   0  0  0  0  0  0  0  0  0  0  0  0
   -1.6670   -2.4054   -2.0805 C   0  0  0  0  0  0  0  0  0  0  0  0
   -1.7809   -2.4775   -1.0881 H   0  0  0  0  0  0  0  0  0  0  0  0
   -1.3560   -3.2852   -2.4425 H   0  0  0  0  0  0  0  0  0  0  0  0
   -0.6165   -1.3463   -2.3814 C   0  0  0  0  0  0  0  0  0  0  0  0
   -0.4833   -1.2925   -3.3672 H   0  0  0  0  0  0  0  0  0  0  0  0
   -0.9289   -0.4692   -2.0296 H   0  0  0  0  0  0  0  0  0  0  0  0
    0.3434   -1.5770   -1.9195 H   0  0  0  0  0  0  0  0  0  0  0  0
  1  5  1  0
  5  6  1  0
  5  7  2  0
  1  2  1  0
  1  3  1  0
  1  4  1  0
  8 12  1  0
 12 15  1  0
  8  9  1  0
  8 10  1  0
  8 11  1  0
 12 13  1  0
 12 14  1  0
 15 16  1  0
 15 17  1  0
 15 18  1  0
M  CHG  1   6  -1
M  END
>  <PDB_ID>  (1565) 
pdb3oet

>  <RESIDUE_NAME>  (1565) 
GLU   LYS

>  <FRAG_NAME>  (1565) 
ACET   PRPA

>  <FRAG_ATOM_NUM>  (1565) 
fragi: 7  fragj: 11

>  <atom.prop.CHAIN_ID>  (1565) 
A A A A A A A Z Z Z Z Z Z Z Z Z Z Z

>  <atom.prop.IS_HEAVY_ATOM>  (1565) 
1 0 0 0 1 1 1 1 0 0 0 1 0 0 1 0 0 0

>  <DIFUSE_FUNC_ATOM>  (1565) 
atom 6   atom 7   

>  <FINAL_SINGLE_POINT_ENERGY>  (1565) 
0

>  <NONCOV_INTER_ENERGY_QM>  (1565) 
0

>  <FF_Energy>  (1565) 
24.64

>  <QM_Energy>  (1565) 
3.45

>  <source>  (1565) 
ACET_PRPA_17

>  <Index>  (1565) 
36113

$$$$
ACET-pdb3oei-C-ASP-7:PRPA-pdb3oei-A-ARG-68
     RDKit          3D

 18 16  0  0  0  0  0  0  0  0999 V2000
    0.0221    1.5021   -0.0271 C   0  0  0  0  0  0  0  0  0  0  0  0
    0.7699    1.8255    0.5436 H   0  0  0  0  0  0  0  0  0  0  0  0
   -0.8462    1.8454    0.3141 H   0  0  0  0  0  0  0  0  0  0  0  0
    0.1696    1.8974   -1.0321 H   0  0  0  0  0  0  0  0  0  0  0  0
    0.0000    0.0000    0.0000 C   0  0  0  0  0  0  0  0  0  0  0  0
   -1.0976   -0.5871   -0.0000 O   0  0  0  0  0  1  0  0  0  0  0  0
    1.0976   -0.5879   -0.0000 O   0  0  0  0  0  0  0  0  0  0  0  0
    3.8279   -3.7866    0.3585 C   0  0  0  0  0  0  0  0  0  0  0  0
    4.2409   -3.7826   -0.5628 H   0  0  0  0  0  0  0  0  0  0  0  0
    3.4017   -4.6899    0.5028 H   0  0  0  0  0  0  0  0  0  0  0  0
    4.6368   -3.6847    1.0820 H   0  0  0  0  0  0  0  0  0  0  0  0
    2.7589   -2.7469    0.4023 C   0  0  0  0  0  0  0  0  0  0  0  0
    2.3037   -2.7491    1.2782 H   0  0  0  0  0  0  0  0  0  0  0  0
    3.1275   -1.8577    0.1868 H   0  0  0  0  0  0  0  0  0  0  0  0
    1.7006   -3.0758   -0.6676 C   0  0  0  0  0  0  0  0  0  0  0  0
    1.0639   -2.3150   -0.7006 H   0  0  0  0  0  0  0  0  0  0  0  0
    2.1744   -3.1739   -1.5351 H   0  0  0  0  0  0  0  0  0  0  0  0
    1.1680   -3.9966   -0.4299 H   0  0  0  0  0  0  0  0  0  0  0  0
  1  5  1  0
  5  6  1  0
  5  7  2  0
  1  2  1  0
  1  3  1  0
  1  4  1  0
  8 12  1  0
 12 15  1  0
  8  9  1  0
  8 10  1  0
  8 11  1  0
 12 13  1  0
 12 14  1  0
 15 16  1  0
 15 17  1  0
 15 18  1  0
M  CHG  1   6  -1
M  END
>  <PDB_ID>  (1566) 
pdb3oei

>  <RESIDUE_NAME>  (1566) 
ASP   ARG

>  <FRAG_NAME>  (1566) 
ACET   PRPA

>  <FRAG_ATOM_NUM>  (1566) 
fragi: 7  fragj: 11

>  <atom.prop.CHAIN_ID>  (1566) 
A A A A A A A Z Z Z Z Z Z Z Z Z Z Z

>  <atom.prop.IS_HEAVY_ATOM>  (1566) 
1 0 0 0 1 1 1 1 0 0 0 1 0 0 1 0 0 0

>  <DIFUSE_FUNC_ATOM>  (1566) 
atom 6   atom 7   

>  <FINAL_SINGLE_POINT_ENERGY>  (1566) 
0

>  <NONCOV_INTER_ENERGY_QM>  (1566) 
0

>  <FF_Energy>  (1566) 
23.82

>  <QM_Energy>  (1566) 
1.17

>  <source>  (1566) 
ACET_PRPA_17

>  <Index>  (1566) 
36866

$$$$
ACET-pdb4me2-A-GLU-144:PRPA-pdb4me2-A-ARG-189
     RDKit          3D

 18 16  0  0  0  0  0  0  0  0999 V2000
   -0.0015    1.5137    0.0112 C   0  0  0  0  0  0  0  0  0  0  0  0
    0.9301    1.8136   -0.0890 H   0  0  0  0  0  0  0  0  0  0  0  0
   -0.3932    1.8053    0.8660 H   0  0  0  0  0  0  0  0  0  0  0  0
   -0.5884    1.9448   -0.7999 H   0  0  0  0  0  0  0  0  0  0  0  0
    0.0000    0.0000    0.0000 C   0  0  0  0  0  0  0  0  0  0  0  0
   -1.0971   -0.6016   -0.0000 O   0  0  0  0  0  1  0  0  0  0  0  0
    1.0971   -0.5942   -0.0000 O   0  0  0  0  0  0  0  0  0  0  0  0
    3.6569   -3.4060   -1.2717 C   0  0  0  0  0  0  0  0  0  0  0  0
    4.3404   -2.6883   -1.3722 H   0  0  0  0  0  0  0  0  0  0  0  0
    2.8794   -3.2225   -1.8657 H   0  0  0  0  0  0  0  0  0  0  0  0
    4.1067   -4.3489   -1.5827 H   0  0  0  0  0  0  0  0  0  0  0  0
    3.1624   -3.3883    0.1712 C   0  0  0  0  0  0  0  0  0  0  0  0
    3.4421   -4.2309    0.6294 H   0  0  0  0  0  0  0  0  0  0  0  0
    3.5548   -2.6029    0.6478 H   0  0  0  0  0  0  0  0  0  0  0  0
    1.6386   -3.2828    0.2676 C   0  0  0  0  0  0  0  0  0  0  0  0
    1.3867   -3.3920    1.2315 H   0  0  0  0  0  0  0  0  0  0  0  0
    1.3778   -2.3638   -0.0376 H   0  0  0  0  0  0  0  0  0  0  0  0
    1.1115   -4.0259   -0.3308 H   0  0  0  0  0  0  0  0  0  0  0  0
  1  5  1  0
  5  6  1  0
  5  7  2  0
  1  2  1  0
  1  3  1  0
  1  4  1  0
  8 12  1  0
 12 15  1  0
  8  9  1  0
  8 10  1  0
  8 11  1  0
 12 13  1  0
 12 14  1  0
 15 16  1  0
 15 17  1  0
 15 18  1  0
M  CHG  1   6  -1
M  END
>  <PDB_ID>  (1567) 
pdb4me2

>  <RESIDUE_NAME>  (1567) 
GLU   ARG

>  <FRAG_NAME>  (1567) 
ACET   PRPA

>  <FRAG_ATOM_NUM>  (1567) 
fragi: 7  fragj: 11

>  <atom.prop.CHAIN_ID>  (1567) 
A A A A A A A Z Z Z Z Z Z Z Z Z Z Z

>  <atom.prop.IS_HEAVY_ATOM>  (1567) 
1 0 0 0 1 1 1 1 0 0 0 1 0 0 1 0 0 0

>  <DIFUSE_FUNC_ATOM>  (1567) 
atom 6   atom 7   

>  <FINAL_SINGLE_POINT_ENERGY>  (1567) 
0

>  <NONCOV_INTER_ENERGY_QM>  (1567) 
0

>  <FF_Energy>  (1567) 
29.31

>  <QM_Energy>  (1567) 
0.49

>  <source>  (1567) 
ACET_PRPA_17

>  <Index>  (1567) 
38455

$$$$
ACET-pdb3no9-A-ASP-190:PRPA-pdb3no9-D-PRO-302
     RDKit          3D

 18 16  0  0  0  0  0  0  0  0999 V2000
    0.0197    1.5153    0.0139 C   0  0  0  0  0  0  0  0  0  0  0  0
    0.7864    1.8311   -0.5345 H   0  0  0  0  0  0  0  0  0  0  0  0
    0.1134    1.8271    0.9527 H   0  0  0  0  0  0  0  0  0  0  0  0
   -0.8884    1.9575   -0.3960 H   0  0  0  0  0  0  0  0  0  0  0  0
    0.0000    0.0000    0.0000 C   0  0  0  0  0  0  0  0  0  0  0  0
   -1.1003   -0.6022    0.0000 O   0  0  0  0  0  1  0  0  0  0  0  0
    1.1003   -0.5849    0.0000 O   0  0  0  0  0  0  0  0  0  0  0  0
    2.9788   -3.5549   -2.4070 C   0  0  0  0  0  0  0  0  0  0  0  0
    3.4409   -4.2079   -1.8003 H   0  0  0  0  0  0  0  0  0  0  0  0
    3.3816   -3.6216   -3.3234 H   0  0  0  0  0  0  0  0  0  0  0  0
    1.9083   -3.7570   -2.4426 H   0  0  0  0  0  0  0  0  0  0  0  0
    3.0764   -2.1697   -1.8774 C   0  0  0  0  0  0  0  0  0  0  0  0
    3.0610   -2.1717   -0.8692 H   0  0  0  0  0  0  0  0  0  0  0  0
    3.9350   -1.7340   -2.1778 H   0  0  0  0  0  0  0  0  0  0  0  0
    1.8862   -1.4358   -2.4266 C   0  0  0  0  0  0  0  0  0  0  0  0
    1.5409   -0.7586   -1.7774 H   0  0  0  0  0  0  0  0  0  0  0  0
    2.1006   -0.9848   -3.2947 H   0  0  0  0  0  0  0  0  0  0  0  0
    1.1527   -2.2276   -2.5785 H   0  0  0  0  0  0  0  0  0  0  0  0
  1  5  1  0
  5  6  1  0
  5  7  2  0
  1  2  1  0
  1  3  1  0
  1  4  1  0
  8 12  1  0
 12 15  1  0
  8  9  1  0
  8 10  1  0
  8 11  1  0
 12 13  1  0
 12 14  1  0
 15 16  1  0
 15 17  1  0
 15 18  1  0
M  CHG  1   6  -1
M  END
>  <PDB_ID>  (1568) 
pdb3no9

>  <RESIDUE_NAME>  (1568) 
ASP   PRO

>  <FRAG_NAME>  (1568) 
ACET   PRPA

>  <FRAG_ATOM_NUM>  (1568) 
fragi: 7  fragj: 11

>  <atom.prop.CHAIN_ID>  (1568) 
A A A A A A A Z Z Z Z Z Z Z Z Z Z Z

>  <atom.prop.IS_HEAVY_ATOM>  (1568) 
1 0 0 0 1 1 1 1 0 0 0 1 0 0 1 0 0 0

>  <DIFUSE_FUNC_ATOM>  (1568) 
atom 6   atom 7   

>  <FINAL_SINGLE_POINT_ENERGY>  (1568) 
0

>  <NONCOV_INTER_ENERGY_QM>  (1568) 
0

>  <FF_Energy>  (1568) 
24.23

>  <QM_Energy>  (1568) 
1.16

>  <source>  (1568) 
ACET_PRPA_17

>  <Index>  (1568) 
38994

$$$$
ACET-pdb4lw2-B-ASP-178:PRPA-pdb4lw2-B-ARG-181
     RDKit          3D

 18 16  0  0  0  0  0  0  0  0999 V2000
    0.0719    1.5597    0.0815 C   0  0  0  0  0  0  0  0  0  0  0  0
    0.7389    1.8712   -0.5838 H   0  0  0  0  0  0  0  0  0  0  0  0
    0.3496    1.8068    1.0003 H   0  0  0  0  0  0  0  0  0  0  0  0
   -0.8707    2.0647   -0.1295 H   0  0  0  0  0  0  0  0  0  0  0  0
    0.0000    0.0000    0.0000 C   0  0  0  0  0  0  0  0  0  0  0  0
   -1.1236   -0.6114   -0.0000 O   0  0  0  0  0  1  0  0  0  0  0  0
    1.1236   -0.6446    0.0000 O   0  0  0  0  0  0  0  0  0  0  0  0
   -0.6951   -0.7215    4.3864 C   0  0  0  0  0  0  0  0  0  0  0  0
   -0.4899   -1.6169    4.8123 H   0  0  0  0  0  0  0  0  0  0  0  0
   -1.6170   -0.8143    3.8125 H   0  0  0  0  0  0  0  0  0  0  0  0
   -0.7513    0.0260    5.1778 H   0  0  0  0  0  0  0  0  0  0  0  0
    0.4728   -0.3995    3.4351 C   0  0  0  0  0  0  0  0  0  0  0  0
    0.1873    0.3786    2.8629 H   0  0  0  0  0  0  0  0  0  0  0  0
    1.2505   -0.1050    4.0028 H   0  0  0  0  0  0  0  0  0  0  0  0
    0.9276   -1.5100    2.5420 C   0  0  0  0  0  0  0  0  0  0  0  0
    0.7554   -2.3902    2.9717 H   0  0  0  0  0  0  0  0  0  0  0  0
    0.4639   -1.4572    1.6641 H   0  0  0  0  0  0  0  0  0  0  0  0
    1.9990   -1.4342    2.3564 H   0  0  0  0  0  0  0  0  0  0  0  0
  1  5  1  0
  5  6  1  0
  5  7  2  0
  1  2  1  0
  1  3  1  0
  1  4  1  0
  8 12  1  0
 12 15  1  0
  8  9  1  0
  8 10  1  0
  8 11  1  0
 12 13  1  0
 12 14  1  0
 15 16  1  0
 15 17  1  0
 15 18  1  0
M  CHG  1   6  -1
M  END
>  <PDB_ID>  (1569) 
pdb4lw2

>  <RESIDUE_NAME>  (1569) 
ASP   ARG

>  <FRAG_NAME>  (1569) 
ACET   PRPA

>  <FRAG_ATOM_NUM>  (1569) 
fragi: 7  fragj: 11

>  <atom.prop.CHAIN_ID>  (1569) 
A A A A A A A Z Z Z Z Z Z Z Z Z Z Z

>  <atom.prop.IS_HEAVY_ATOM>  (1569) 
1 0 0 0 1 1 1 1 0 0 0 1 0 0 1 0 0 0

>  <DIFUSE_FUNC_ATOM>  (1569) 
atom 6   atom 7   

>  <FINAL_SINGLE_POINT_ENERGY>  (1569) 
0

>  <NONCOV_INTER_ENERGY_QM>  (1569) 
0

>  <FF_Energy>  (1569) 
16.08

>  <QM_Energy>  (1569) 
0.56

>  <source>  (1569) 
ACET_PRPA_17

>  <Index>  (1569) 
39541

$$$$
ACET-pdb4lw2-B-ASP-178:PRPA-pdb4lw2-B-ARG-181
     RDKit          3D

 18 16  0  0  0  0  0  0  0  0999 V2000
    0.0719    1.5597    0.0815 C   0  0  0  0  0  0  0  0  0  0  0  0
    0.7389    1.8712   -0.5838 H   0  0  0  0  0  0  0  0  0  0  0  0
    0.3496    1.8068    1.0003 H   0  0  0  0  0  0  0  0  0  0  0  0
   -0.8707    2.0647   -0.1295 H   0  0  0  0  0  0  0  0  0  0  0  0
    0.0000    0.0000    0.0000 C   0  0  0  0  0  0  0  0  0  0  0  0
   -1.1236   -0.6114   -0.0000 O   0  0  0  0  0  1  0  0  0  0  0  0
    1.1236   -0.6446    0.0000 O   0  0  0  0  0  0  0  0  0  0  0  0
    0.4728   -0.3995    3.4351 C   0  0  0  0  0  0  0  0  0  0  0  0
    0.1873    0.3786    2.8629 H   0  0  0  0  0  0  0  0  0  0  0  0
    1.2505   -0.1050    4.0028 H   0  0  0  0  0  0  0  0  0  0  0  0
   -0.3536   -0.6273    4.1083 H   0  0  0  0  0  0  0  0  0  0  0  0
    0.9276   -1.5100    2.5420 C   0  0  0  0  0  0  0  0  0  0  0  0
    0.7554   -2.3902    2.9717 H   0  0  0  0  0  0  0  0  0  0  0  0
    0.4639   -1.4572    1.6641 H   0  0  0  0  0  0  0  0  0  0  0  0
    2.4254   -1.4039    2.2825 C   0  0  0  0  0  0  0  0  0  0  0  0
    2.6400   -1.9567    1.4918 H   0  0  0  0  0  0  0  0  0  0  0  0
    2.6429   -0.4518    2.1270 H   0  0  0  0  0  0  0  0  0  0  0  0
    2.9823   -1.7693    3.1454 H   0  0  0  0  0  0  0  0  0  0  0  0
  1  5  1  0
  5  6  1  0
  5  7  2  0
  1  2  1  0
  1  3  1  0
  1  4  1  0
  8 12  1  0
 12 15  1  0
  8  9  1  0
  8 10  1  0
  8 11  1  0
 12 13  1  0
 12 14  1  0
 15 16  1  0
 15 17  1  0
 15 18  1  0
M  CHG  1   6  -1
M  END
>  <PDB_ID>  (1570) 
pdb4lw2

>  <RESIDUE_NAME>  (1570) 
ASP   ARG

>  <FRAG_NAME>  (1570) 
ACET   PRPA

>  <FRAG_ATOM_NUM>  (1570) 
fragi: 7  fragj: 11

>  <atom.prop.CHAIN_ID>  (1570) 
A A A A A A A Z Z Z Z Z Z Z Z Z Z Z

>  <atom.prop.IS_HEAVY_ATOM>  (1570) 
1 0 0 0 1 1 1 1 0 0 0 1 0 0 1 0 0 0

>  <DIFUSE_FUNC_ATOM>  (1570) 
atom 6   atom 7   

>  <FINAL_SINGLE_POINT_ENERGY>  (1570) 
0

>  <NONCOV_INTER_ENERGY_QM>  (1570) 
0

>  <FF_Energy>  (1570) 
21.58

>  <QM_Energy>  (1570) 
-0.79

>  <source>  (1570) 
ACET_PRPA_17

>  <Index>  (1570) 
39553

$$$$
ACET-pdb3ong-A-ASP-532:PRPA-pdb3ong-A-LYS-447
     RDKit          3D

 18 16  0  0  0  0  0  0  0  0999 V2000
    0.0328    1.5157   -0.0187 C   0  0  0  0  0  0  0  0  0  0  0  0
    0.5269    1.8135   -0.8352 H   0  0  0  0  0  0  0  0  0  0  0  0
    0.5158    1.8346    0.7959 H   0  0  0  0  0  0  0  0  0  0  0  0
   -0.9510    1.9846   -0.0316 H   0  0  0  0  0  0  0  0  0  0  0  0
    0.0000    0.0000    0.0000 C   0  0  0  0  0  0  0  0  0  0  0  0
   -1.0955   -0.6010    0.0000 O   0  0  0  0  0  1  0  0  0  0  0  0
    1.0955   -0.5827   -0.0000 O   0  0  0  0  0  0  0  0  0  0  0  0
    1.1654   -4.4245   -1.5647 C   0  0  0  0  0  0  0  0  0  0  0  0
    0.7947   -5.3558   -1.6216 H   0  0  0  0  0  0  0  0  0  0  0  0
    2.1664   -4.4694   -1.6151 H   0  0  0  0  0  0  0  0  0  0  0  0
    0.7981   -3.8509   -2.4157 H   0  0  0  0  0  0  0  0  0  0  0  0
    0.7642   -3.8147   -0.2296 C   0  0  0  0  0  0  0  0  0  0  0  0
   -0.0822   -3.3065   -0.3509 H   0  0  0  0  0  0  0  0  0  0  0  0
    0.6391   -4.5451    0.4331 H   0  0  0  0  0  0  0  0  0  0  0  0
    1.8317   -2.8680    0.2858 C   0  0  0  0  0  0  0  0  0  0  0  0
    2.6098   -3.4034    0.6232 H   0  0  0  0  0  0  0  0  0  0  0  0
    2.1405   -2.2805   -0.4656 H   0  0  0  0  0  0  0  0  0  0  0  0
    1.4568   -2.2398    1.0939 H   0  0  0  0  0  0  0  0  0  0  0  0
  1  5  1  0
  5  6  1  0
  5  7  2  0
  1  2  1  0
  1  3  1  0
  1  4  1  0
  8 12  1  0
 12 15  1  0
  8  9  1  0
  8 10  1  0
  8 11  1  0
 12 13  1  0
 12 14  1  0
 15 16  1  0
 15 17  1  0
 15 18  1  0
M  CHG  1   6  -1
M  END
>  <PDB_ID>  (1571) 
pdb3ong

>  <RESIDUE_NAME>  (1571) 
ASP   LYS

>  <FRAG_NAME>  (1571) 
ACET   PRPA

>  <FRAG_ATOM_NUM>  (1571) 
fragi: 7  fragj: 11

>  <atom.prop.CHAIN_ID>  (1571) 
A A A A A A A Z Z Z Z Z Z Z Z Z Z Z

>  <atom.prop.IS_HEAVY_ATOM>  (1571) 
1 0 0 0 1 1 1 1 0 0 0 1 0 0 1 0 0 0

>  <DIFUSE_FUNC_ATOM>  (1571) 
atom 6   atom 7   

>  <FINAL_SINGLE_POINT_ENERGY>  (1571) 
0

>  <NONCOV_INTER_ENERGY_QM>  (1571) 
0

>  <FF_Energy>  (1571) 
26.47

>  <QM_Energy>  (1571) 
7.64

>  <source>  (1571) 
ACET_PRPA_17

>  <Index>  (1571) 
39603

$$$$
ACET-pdb4mhl-A-GLU-38:PRPA-pdb4mhl-A-ARG-146
     RDKit          3D

 18 16  0  0  0  0  0  0  0  0999 V2000
    0.1756    1.4850    0.0121 C   0  0  0  0  0  0  0  0  0  0  0  0
    0.6953    1.7390   -0.8050 H   0  0  0  0  0  0  0  0  0  0  0  0
    0.7065    1.7224    0.8277 H   0  0  0  0  0  0  0  0  0  0  0  0
   -0.7350    2.0840    0.0237 H   0  0  0  0  0  0  0  0  0  0  0  0
    0.0000    0.0000    0.0000 C   0  0  0  0  0  0  0  0  0  0  0  0
   -1.0890   -0.5581   -0.0000 O   0  0  0  0  0  1  0  0  0  0  0  0
    1.0890   -0.6086    0.0000 O   0  0  0  0  0  0  0  0  0  0  0  0
   -2.9756   -5.0840    1.0493 C   0  0  0  0  0  0  0  0  0  0  0  0
   -2.1938   -5.7203    1.0199 H   0  0  0  0  0  0  0  0  0  0  0  0
   -3.6188   -5.2939    0.1948 H   0  0  0  0  0  0  0  0  0  0  0  0
   -3.5095   -5.2183    1.9900 H   0  0  0  0  0  0  0  0  0  0  0  0
   -2.4406   -3.6517    1.0642 C   0  0  0  0  0  0  0  0  0  0  0  0
   -3.1982   -3.0442    1.3423 H   0  0  0  0  0  0  0  0  0  0  0  0
   -1.7252   -3.5986    1.7749 H   0  0  0  0  0  0  0  0  0  0  0  0
   -1.8639   -3.1260   -0.2212 C   0  0  0  0  0  0  0  0  0  0  0  0
   -2.3688   -3.5224   -1.0048 H   0  0  0  0  0  0  0  0  0  0  0  0
   -1.9862   -2.1208   -0.2590 H   0  0  0  0  0  0  0  0  0  0  0  0
   -0.8045   -3.3385   -0.3646 H   0  0  0  0  0  0  0  0  0  0  0  0
  1  5  1  0
  5  6  1  0
  5  7  2  0
  1  2  1  0
  1  3  1  0
  1  4  1  0
  8 12  1  0
 12 15  1  0
  8  9  1  0
  8 10  1  0
  8 11  1  0
 12 13  1  0
 12 14  1  0
 15 16  1  0
 15 17  1  0
 15 18  1  0
M  CHG  1   6  -1
M  END
>  <PDB_ID>  (1572) 
pdb4mhl

>  <RESIDUE_NAME>  (1572) 
GLU   ARG

>  <FRAG_NAME>  (1572) 
ACET   PRPA

>  <FRAG_ATOM_NUM>  (1572) 
fragi: 7  fragj: 11

>  <atom.prop.CHAIN_ID>  (1572) 
A A A A A A A Z Z Z Z Z Z Z Z Z Z Z

>  <atom.prop.IS_HEAVY_ATOM>  (1572) 
1 0 0 0 1 1 1 1 0 0 0 1 0 0 1 0 0 0

>  <DIFUSE_FUNC_ATOM>  (1572) 
atom 6   atom 7   

>  <FINAL_SINGLE_POINT_ENERGY>  (1572) 
0

>  <NONCOV_INTER_ENERGY_QM>  (1572) 
0

>  <FF_Energy>  (1572) 
24.92

>  <QM_Energy>  (1572) 
2.32

>  <source>  (1572) 
ACET_PRPA_18

>  <Index>  (1572) 
575

$$$$
ACET-pdb4mhl-A-GLU-38:PRPA-pdb4mhl-A-ARG-146
     RDKit          3D

 18 16  0  0  0  0  0  0  0  0999 V2000
    0.1756    1.4850    0.0121 C   0  0  0  0  0  0  0  0  0  0  0  0
    0.6953    1.7390   -0.8050 H   0  0  0  0  0  0  0  0  0  0  0  0
    0.7065    1.7224    0.8277 H   0  0  0  0  0  0  0  0  0  0  0  0
   -0.7350    2.0840    0.0237 H   0  0  0  0  0  0  0  0  0  0  0  0
    0.0000    0.0000    0.0000 C   0  0  0  0  0  0  0  0  0  0  0  0
   -1.0890   -0.5581   -0.0000 O   0  0  0  0  0  1  0  0  0  0  0  0
    1.0890   -0.6086    0.0000 O   0  0  0  0  0  0  0  0  0  0  0  0
   -2.4406   -3.6517    1.0642 C   0  0  0  0  0  0  0  0  0  0  0  0
   -3.1982   -3.0442    1.3423 H   0  0  0  0  0  0  0  0  0  0  0  0
   -1.7252   -3.5986    1.7749 H   0  0  0  0  0  0  0  0  0  0  0  0
   -2.8220   -4.6728    1.0536 H   0  0  0  0  0  0  0  0  0  0  0  0
   -1.8639   -3.1260   -0.2212 C   0  0  0  0  0  0  0  0  0  0  0  0
   -2.3688   -3.5224   -1.0048 H   0  0  0  0  0  0  0  0  0  0  0  0
   -1.9862   -2.1208   -0.2590 H   0  0  0  0  0  0  0  0  0  0  0  0
   -0.3967   -3.4204   -0.4198 C   0  0  0  0  0  0  0  0  0  0  0  0
    0.0763   -3.2318    0.4162 H   0  0  0  0  0  0  0  0  0  0  0  0
   -0.3022   -4.3492   -0.7141 H   0  0  0  0  0  0  0  0  0  0  0  0
   -0.0366   -2.7518   -1.2017 H   0  0  0  0  0  0  0  0  0  0  0  0
  1  5  1  0
  5  6  1  0
  5  7  2  0
  1  2  1  0
  1  3  1  0
  1  4  1  0
  8 12  1  0
 12 15  1  0
  8  9  1  0
  8 10  1  0
  8 11  1  0
 12 13  1  0
 12 14  1  0
 15 16  1  0
 15 17  1  0
 15 18  1  0
M  CHG  1   6  -1
M  END
>  <PDB_ID>  (1573) 
pdb4mhl

>  <RESIDUE_NAME>  (1573) 
GLU   ARG

>  <FRAG_NAME>  (1573) 
ACET   PRPA

>  <FRAG_ATOM_NUM>  (1573) 
fragi: 7  fragj: 11

>  <atom.prop.CHAIN_ID>  (1573) 
A A A A A A A Z Z Z Z Z Z Z Z Z Z Z

>  <atom.prop.IS_HEAVY_ATOM>  (1573) 
1 0 0 0 1 1 1 1 0 0 0 1 0 0 1 0 0 0

>  <DIFUSE_FUNC_ATOM>  (1573) 
atom 6   atom 7   

>  <FINAL_SINGLE_POINT_ENERGY>  (1573) 
0

>  <NONCOV_INTER_ENERGY_QM>  (1573) 
0

>  <FF_Energy>  (1573) 
30.25

>  <QM_Energy>  (1573) 
0.66

>  <source>  (1573) 
ACET_PRPA_18

>  <Index>  (1573) 
579

$$$$
ACET-pdb4mb0-A-GLU-140:PRPA-pdb4mb0-A-ARG-143
     RDKit          3D

 18 16  0  0  0  0  0  0  0  0999 V2000
   -0.0028    1.5147    0.0786 C   0  0  0  0  0  0  0  0  0  0  0  0
    0.9336    1.8146    0.0760 H   0  0  0  0  0  0  0  0  0  0  0  0
   -0.4714    1.7687    0.9061 H   0  0  0  0  0  0  0  0  0  0  0  0
   -0.5135    1.9844   -0.7620 H   0  0  0  0  0  0  0  0  0  0  0  0
    0.0000    0.0000    0.0000 C   0  0  0  0  0  0  0  0  0  0  0  0
   -1.0941   -0.5975   -0.0000 O   0  0  0  0  0  1  0  0  0  0  0  0
    1.0941   -0.6000    0.0000 O   0  0  0  0  0  0  0  0  0  0  0  0
    0.7914    4.1122    2.1738 C   0  0  0  0  0  0  0  0  0  0  0  0
    1.0339    3.7529    1.2700 H   0  0  0  0  0  0  0  0  0  0  0  0
    1.6216    4.1862    2.7297 H   0  0  0  0  0  0  0  0  0  0  0  0
    0.3834    5.1141    2.0407 H   0  0  0  0  0  0  0  0  0  0  0  0
   -0.1339    3.1071    2.8458 C   0  0  0  0  0  0  0  0  0  0  0  0
   -0.3778    3.4490    3.7548 H   0  0  0  0  0  0  0  0  0  0  0  0
   -0.9657    3.0148    2.2948 H   0  0  0  0  0  0  0  0  0  0  0  0
    0.5045    1.7712    2.9835 C   0  0  0  0  0  0  0  0  0  0  0  0
    0.7469    1.4318    2.0747 H   0  0  0  0  0  0  0  0  0  0  0  0
    1.3359    1.8666    3.5352 H   0  0  0  0  0  0  0  0  0  0  0  0
   -0.1554    1.0494    3.4649 H   0  0  0  0  0  0  0  0  0  0  0  0
  1  5  1  0
  5  6  1  0
  5  7  2  0
  1  2  1  0
  1  3  1  0
  1  4  1  0
  8 12  1  0
 12 15  1  0
  8  9  1  0
  8 10  1  0
  8 11  1  0
 12 13  1  0
 12 14  1  0
 15 16  1  0
 15 17  1  0
 15 18  1  0
M  CHG  1   6  -1
M  END
>  <PDB_ID>  (1574) 
pdb4mb0

>  <RESIDUE_NAME>  (1574) 
GLU   ARG

>  <FRAG_NAME>  (1574) 
ACET   PRPA

>  <FRAG_ATOM_NUM>  (1574) 
fragi: 7  fragj: 11

>  <atom.prop.CHAIN_ID>  (1574) 
A A A A A A A Z Z Z Z Z Z Z Z Z Z Z

>  <atom.prop.IS_HEAVY_ATOM>  (1574) 
1 0 0 0 1 1 1 1 0 0 0 1 0 0 1 0 0 0

>  <DIFUSE_FUNC_ATOM>  (1574) 
atom 6   atom 7   

>  <FINAL_SINGLE_POINT_ENERGY>  (1574) 
0

>  <NONCOV_INTER_ENERGY_QM>  (1574) 
0

>  <FF_Energy>  (1574) 
23.36

>  <QM_Energy>  (1574) 
4.08

>  <source>  (1574) 
ACET_PRPA_18

>  <Index>  (1574) 
1251

$$$$
ACET-pdb4mad-A-GLU-50:PRPA-pdb4mad-A-ARG-90
     RDKit          3D

 18 16  0  0  0  0  0  0  0  0999 V2000
    0.0356    1.5205   -0.0332 C   0  0  0  0  0  0  0  0  0  0  0  0
    0.9761    1.7825   -0.1238 H   0  0  0  0  0  0  0  0  0  0  0  0
   -0.3649    1.8336    0.8065 H   0  0  0  0  0  0  0  0  0  0  0  0
   -0.5328    1.9132   -0.8764 H   0  0  0  0  0  0  0  0  0  0  0  0
    0.0000    0.0000    0.0000 C   0  0  0  0  0  0  0  0  0  0  0  0
   -1.0748   -0.5776   -0.0000 O   0  0  0  0  0  1  0  0  0  0  0  0
    1.0748   -0.5751    0.0000 O   0  0  0  0  0  0  0  0  0  0  0  0
    4.2118    0.0463    2.4219 C   0  0  0  0  0  0  0  0  0  0  0  0
    4.0991   -0.5826    1.6576 H   0  0  0  0  0  0  0  0  0  0  0  0
    4.2924   -0.4620    3.2742 H   0  0  0  0  0  0  0  0  0  0  0  0
    5.1356    0.6045    2.2701 H   0  0  0  0  0  0  0  0  0  0  0  0
    2.9687    0.9158    2.5064 C   0  0  0  0  0  0  0  0  0  0  0  0
    3.0384    1.5204    3.3096 H   0  0  0  0  0  0  0  0  0  0  0  0
    2.9098    1.4927    1.6822 H   0  0  0  0  0  0  0  0  0  0  0  0
    1.6699    0.1335    2.6214 C   0  0  0  0  0  0  0  0  0  0  0  0
    0.9145    0.7827    2.5960 H   0  0  0  0  0  0  0  0  0  0  0  0
    1.6131   -0.4868    1.8427 H   0  0  0  0  0  0  0  0  0  0  0  0
    1.6200   -0.4423    3.5456 H   0  0  0  0  0  0  0  0  0  0  0  0
  1  5  1  0
  5  6  1  0
  5  7  2  0
  1  2  1  0
  1  3  1  0
  1  4  1  0
  8 12  1  0
 12 15  1  0
  8  9  1  0
  8 10  1  0
  8 11  1  0
 12 13  1  0
 12 14  1  0
 15 16  1  0
 15 17  1  0
 15 18  1  0
M  CHG  1   6  -1
M  END
>  <PDB_ID>  (1575) 
pdb4mad

>  <RESIDUE_NAME>  (1575) 
GLU   ARG

>  <FRAG_NAME>  (1575) 
ACET   PRPA

>  <FRAG_ATOM_NUM>  (1575) 
fragi: 7  fragj: 11

>  <atom.prop.CHAIN_ID>  (1575) 
A A A A A A A Z Z Z Z Z Z Z Z Z Z Z

>  <atom.prop.IS_HEAVY_ATOM>  (1575) 
1 0 0 0 1 1 1 1 0 0 0 1 0 0 1 0 0 0

>  <DIFUSE_FUNC_ATOM>  (1575) 
atom 6   atom 7   

>  <FINAL_SINGLE_POINT_ENERGY>  (1575) 
0

>  <NONCOV_INTER_ENERGY_QM>  (1575) 
0

>  <FF_Energy>  (1575) 
14.72

>  <QM_Energy>  (1575) 
-0.52

>  <source>  (1575) 
ACET_PRPA_18

>  <Index>  (1575) 
1339

$$$$
ACET-pdb4mcj-B-ASP-53:PRPA-pdb4mcj-B-VAL-58
     RDKit          3D

 18 16  0  0  0  0  0  0  0  0999 V2000
   -0.0073    1.5275    0.0183 C   0  0  0  0  0  0  0  0  0  0  0  0
   -0.0693    1.8582   -0.9186 H   0  0  0  0  0  0  0  0  0  0  0  0
    0.8346    1.8460    0.4410 H   0  0  0  0  0  0  0  0  0  0  0  0
   -0.8397    1.9573    0.5754 H   0  0  0  0  0  0  0  0  0  0  0  0
    0.0000    0.0000    0.0000 C   0  0  0  0  0  0  0  0  0  0  0  0
   -1.1085   -0.6104   -0.0000 O   0  0  0  0  0  1  0  0  0  0  0  0
    1.1085   -0.5897   -0.0000 O   0  0  0  0  0  0  0  0  0  0  0  0
    4.4800    0.3531    1.1963 C   0  0  0  0  0  0  0  0  0  0  0  0
    5.4478    0.4990    0.9656 H   0  0  0  0  0  0  0  0  0  0  0  0
    4.3943   -0.6092    1.7011 H   0  0  0  0  0  0  0  0  0  0  0  0
    4.1686    1.1793    1.8356 H   0  0  0  0  0  0  0  0  0  0  0  0
    3.7162    0.4088   -0.1420 C   0  0  0  0  0  0  0  0  0  0  0  0
    2.7391    0.2520    0.0669 H   0  0  0  0  0  0  0  0  0  0  0  0
    4.0091   -0.4103   -0.7989 H   0  0  0  0  0  0  0  0  0  0  0  0
    3.8184    1.7218   -0.8531 C   0  0  0  0  0  0  0  0  0  0  0  0
    3.1612    1.7571   -1.6120 H   0  0  0  0  0  0  0  0  0  0  0  0
    3.6192    2.4753   -0.2195 H   0  0  0  0  0  0  0  0  0  0  0  0
    4.7433    1.8455   -1.2214 H   0  0  0  0  0  0  0  0  0  0  0  0
  1  5  1  0
  5  6  1  0
  5  7  2  0
  1  2  1  0
  1  3  1  0
  1  4  1  0
  8 12  1  0
 12 15  1  0
  8  9  1  0
  8 10  1  0
  8 11  1  0
 12 13  1  0
 12 14  1  0
 15 16  1  0
 15 17  1  0
 15 18  1  0
M  CHG  1   6  -1
M  END
>  <PDB_ID>  (1576) 
pdb4mcj

>  <RESIDUE_NAME>  (1576) 
ASP   VAL

>  <FRAG_NAME>  (1576) 
ACET   PRPA

>  <FRAG_ATOM_NUM>  (1576) 
fragi: 7  fragj: 11

>  <atom.prop.CHAIN_ID>  (1576) 
A A A A A A A Z Z Z Z Z Z Z Z Z Z Z

>  <atom.prop.IS_HEAVY_ATOM>  (1576) 
1 0 0 0 1 1 1 1 0 0 0 1 0 0 1 0 0 0

>  <DIFUSE_FUNC_ATOM>  (1576) 
atom 6   atom 7   

>  <FINAL_SINGLE_POINT_ENERGY>  (1576) 
0

>  <NONCOV_INTER_ENERGY_QM>  (1576) 
0

>  <FF_Energy>  (1576) 
24.31

>  <QM_Energy>  (1576) 
0.45

>  <source>  (1576) 
ACET_PRPA_18

>  <Index>  (1576) 
1548

$$$$
ACET-pdb4mcj-B-ASP-53:PRPA-pdb4mcj-B-VAL-58
     RDKit          3D

 18 16  0  0  0  0  0  0  0  0999 V2000
   -0.0073    1.5275    0.0183 C   0  0  0  0  0  0  0  0  0  0  0  0
   -0.0693    1.8582   -0.9186 H   0  0  0  0  0  0  0  0  0  0  0  0
    0.8346    1.8460    0.4410 H   0  0  0  0  0  0  0  0  0  0  0  0
   -0.8397    1.9573    0.5754 H   0  0  0  0  0  0  0  0  0  0  0  0
    0.0000    0.0000    0.0000 C   0  0  0  0  0  0  0  0  0  0  0  0
   -1.1085   -0.6104   -0.0000 O   0  0  0  0  0  1  0  0  0  0  0  0
    1.1085   -0.5897   -0.0000 O   0  0  0  0  0  0  0  0  0  0  0  0
    4.4800    0.3531    1.1963 C   0  0  0  0  0  0  0  0  0  0  0  0
    5.4478    0.4990    0.9656 H   0  0  0  0  0  0  0  0  0  0  0  0
    4.3943   -0.6092    1.7011 H   0  0  0  0  0  0  0  0  0  0  0  0
    4.1686    1.1793    1.8356 H   0  0  0  0  0  0  0  0  0  0  0  0
    3.7162    0.4088   -0.1420 C   0  0  0  0  0  0  0  0  0  0  0  0
    2.7391    0.2520    0.0669 H   0  0  0  0  0  0  0  0  0  0  0  0
    3.7906    1.3650   -0.6598 H   0  0  0  0  0  0  0  0  0  0  0  0
    4.1278   -0.7422   -1.0650 C   0  0  0  0  0  0  0  0  0  0  0  0
    4.3403   -0.3742   -1.9681 H   0  0  0  0  0  0  0  0  0  0  0  0
    4.9323   -1.1930   -0.6832 H   0  0  0  0  0  0  0  0  0  0  0  0
    3.3727   -1.3923   -1.1307 H   0  0  0  0  0  0  0  0  0  0  0  0
  1  5  1  0
  5  6  1  0
  5  7  2  0
  1  2  1  0
  1  3  1  0
  1  4  1  0
  8 12  1  0
 12 15  1  0
  8  9  1  0
  8 10  1  0
  8 11  1  0
 12 13  1  0
 12 14  1  0
 15 16  1  0
 15 17  1  0
 15 18  1  0
M  CHG  1   6  -1
M  END
>  <PDB_ID>  (1577) 
pdb4mcj

>  <RESIDUE_NAME>  (1577) 
ASP   VAL

>  <FRAG_NAME>  (1577) 
ACET   PRPA

>  <FRAG_ATOM_NUM>  (1577) 
fragi: 7  fragj: 11

>  <atom.prop.CHAIN_ID>  (1577) 
A A A A A A A Z Z Z Z Z Z Z Z Z Z Z

>  <atom.prop.IS_HEAVY_ATOM>  (1577) 
1 0 0 0 1 1 1 1 0 0 0 1 0 0 1 0 0 0

>  <DIFUSE_FUNC_ATOM>  (1577) 
atom 6   atom 7   

>  <FINAL_SINGLE_POINT_ENERGY>  (1577) 
0

>  <NONCOV_INTER_ENERGY_QM>  (1577) 
0

>  <FF_Energy>  (1577) 
25.14

>  <QM_Energy>  (1577) 
-0.99

>  <source>  (1577) 
ACET_PRPA_18

>  <Index>  (1577) 
1550

$$$$
ACET-pdb4mcj-B-ASP-53:PRPA-pdb4mcj-B-VAL-58
     RDKit          3D

 18 16  0  0  0  0  0  0  0  0999 V2000
   -0.0073    1.5275    0.0183 C   0  0  0  0  0  0  0  0  0  0  0  0
   -0.0693    1.8582   -0.9186 H   0  0  0  0  0  0  0  0  0  0  0  0
    0.8346    1.8460    0.4410 H   0  0  0  0  0  0  0  0  0  0  0  0
   -0.8397    1.9573    0.5754 H   0  0  0  0  0  0  0  0  0  0  0  0
    0.0000    0.0000    0.0000 C   0  0  0  0  0  0  0  0  0  0  0  0
   -1.1085   -0.6104   -0.0000 O   0  0  0  0  0  1  0  0  0  0  0  0
    1.1085   -0.5897   -0.0000 O   0  0  0  0  0  0  0  0  0  0  0  0
    3.8184    1.7218   -0.8531 C   0  0  0  0  0  0  0  0  0  0  0  0
    3.1612    1.7571   -1.6120 H   0  0  0  0  0  0  0  0  0  0  0  0
    3.6192    2.4753   -0.2195 H   0  0  0  0  0  0  0  0  0  0  0  0
    4.7433    1.8455   -1.2214 H   0  0  0  0  0  0  0  0  0  0  0  0
    3.7162    0.4088   -0.1420 C   0  0  0  0  0  0  0  0  0  0  0  0
    2.7391    0.2520    0.0669 H   0  0  0  0  0  0  0  0  0  0  0  0
    4.2561    0.3694    0.8040 H   0  0  0  0  0  0  0  0  0  0  0  0
    4.1278   -0.7422   -1.0650 C   0  0  0  0  0  0  0  0  0  0  0  0
    4.3403   -0.3742   -1.9681 H   0  0  0  0  0  0  0  0  0  0  0  0
    4.9323   -1.1930   -0.6832 H   0  0  0  0  0  0  0  0  0  0  0  0
    3.3727   -1.3923   -1.1307 H   0  0  0  0  0  0  0  0  0  0  0  0
  1  5  1  0
  5  6  1  0
  5  7  2  0
  1  2  1  0
  1  3  1  0
  1  4  1  0
  8 12  1  0
 12 15  1  0
  8  9  1  0
  8 10  1  0
  8 11  1  0
 12 13  1  0
 12 14  1  0
 15 16  1  0
 15 17  1  0
 15 18  1  0
M  CHG  1   6  -1
M  END
>  <PDB_ID>  (1578) 
pdb4mcj

>  <RESIDUE_NAME>  (1578) 
ASP   VAL

>  <FRAG_NAME>  (1578) 
ACET   PRPA

>  <FRAG_ATOM_NUM>  (1578) 
fragi: 7  fragj: 11

>  <atom.prop.CHAIN_ID>  (1578) 
A A A A A A A Z Z Z Z Z Z Z Z Z Z Z

>  <atom.prop.IS_HEAVY_ATOM>  (1578) 
1 0 0 0 1 1 1 1 0 0 0 1 0 0 1 0 0 0

>  <DIFUSE_FUNC_ATOM>  (1578) 
atom 6   atom 7   

>  <FINAL_SINGLE_POINT_ENERGY>  (1578) 
0

>  <NONCOV_INTER_ENERGY_QM>  (1578) 
0

>  <FF_Energy>  (1578) 
24.71

>  <QM_Energy>  (1578) 
-1.46

>  <source>  (1578) 
ACET_PRPA_18

>  <Index>  (1578) 
1552

$$$$
ACET-pdb3osz-A-ASP-187:PRPA-pdb3osz-A-PRO-18
     RDKit          3D

 18 16  0  0  0  0  0  0  0  0999 V2000
   -0.0132    1.5164    0.0050 C   0  0  0  0  0  0  0  0  0  0  0  0
    0.4351    1.8434   -0.8162 H   0  0  0  0  0  0  0  0  0  0  0  0
    0.4552    1.8385    0.8163 H   0  0  0  0  0  0  0  0  0  0  0  0
   -1.0254    1.9206    0.0184 H   0  0  0  0  0  0  0  0  0  0  0  0
    0.0000    0.0000    0.0000 C   0  0  0  0  0  0  0  0  0  0  0  0
   -1.0977   -0.5980    0.0000 O   0  0  0  0  0  1  0  0  0  0  0  0
    1.0977   -0.5945    0.0000 O   0  0  0  0  0  0  0  0  0  0  0  0
    0.5028   -3.2288   -3.7353 C   0  0  0  0  0  0  0  0  0  0  0  0
   -0.2737   -3.6867   -3.3044 H   0  0  0  0  0  0  0  0  0  0  0  0
    1.4336   -3.4823   -3.2278 H   0  0  0  0  0  0  0  0  0  0  0  0
    0.5825   -3.4997   -4.7881 H   0  0  0  0  0  0  0  0  0  0  0  0
    0.4001   -1.7080   -3.5766 C   0  0  0  0  0  0  0  0  0  0  0  0
    0.4238   -1.2500   -4.4696 H   0  0  0  0  0  0  0  0  0  0  0  0
   -0.4448   -1.4498   -3.1016 H   0  0  0  0  0  0  0  0  0  0  0  0
    1.6153   -1.2946   -2.7446 C   0  0  0  0  0  0  0  0  0  0  0  0
    1.9656   -0.4143   -3.0796 H   0  0  0  0  0  0  0  0  0  0  0  0
    1.3403   -1.1871   -1.7843 H   0  0  0  0  0  0  0  0  0  0  0  0
    2.3483   -2.0921   -2.8668 H   0  0  0  0  0  0  0  0  0  0  0  0
  1  5  1  0
  5  6  1  0
  5  7  2  0
  1  2  1  0
  1  3  1  0
  1  4  1  0
  8 12  1  0
 12 15  1  0
  8  9  1  0
  8 10  1  0
  8 11  1  0
 12 13  1  0
 12 14  1  0
 15 16  1  0
 15 17  1  0
 15 18  1  0
M  CHG  1   6  -1
M  END
>  <PDB_ID>  (1579) 
pdb3osz

>  <RESIDUE_NAME>  (1579) 
ASP   PRO

>  <FRAG_NAME>  (1579) 
ACET   PRPA

>  <FRAG_ATOM_NUM>  (1579) 
fragi: 7  fragj: 11

>  <atom.prop.CHAIN_ID>  (1579) 
A A A A A A A Z Z Z Z Z Z Z Z Z Z Z

>  <atom.prop.IS_HEAVY_ATOM>  (1579) 
1 0 0 0 1 1 1 1 0 0 0 1 0 0 1 0 0 0

>  <DIFUSE_FUNC_ATOM>  (1579) 
atom 6   atom 7   

>  <FINAL_SINGLE_POINT_ENERGY>  (1579) 
0

>  <NONCOV_INTER_ENERGY_QM>  (1579) 
0

>  <FF_Energy>  (1579) 
14.28

>  <QM_Energy>  (1579) 
-1.93

>  <source>  (1579) 
ACET_PRPA_18

>  <Index>  (1579) 
2321

$$$$
ACET-pdb3osz-A-ASP-187:PRPA-pdb3osz-A-PRO-18
     RDKit          3D

 18 16  0  0  0  0  0  0  0  0999 V2000
   -0.0132    1.5164    0.0050 C   0  0  0  0  0  0  0  0  0  0  0  0
    0.4351    1.8434   -0.8162 H   0  0  0  0  0  0  0  0  0  0  0  0
    0.4552    1.8385    0.8163 H   0  0  0  0  0  0  0  0  0  0  0  0
   -1.0254    1.9206    0.0184 H   0  0  0  0  0  0  0  0  0  0  0  0
    0.0000    0.0000    0.0000 C   0  0  0  0  0  0  0  0  0  0  0  0
   -1.0977   -0.5980    0.0000 O   0  0  0  0  0  1  0  0  0  0  0  0
    1.0977   -0.5945    0.0000 O   0  0  0  0  0  0  0  0  0  0  0  0
    0.4001   -1.7080   -3.5766 C   0  0  0  0  0  0  0  0  0  0  0  0
    0.4238   -1.2500   -4.4696 H   0  0  0  0  0  0  0  0  0  0  0  0
   -0.4448   -1.4498   -3.1016 H   0  0  0  0  0  0  0  0  0  0  0  0
    0.4731   -2.7898   -3.6895 H   0  0  0  0  0  0  0  0  0  0  0  0
    1.6153   -1.2946   -2.7446 C   0  0  0  0  0  0  0  0  0  0  0  0
    1.9656   -0.4143   -3.0796 H   0  0  0  0  0  0  0  0  0  0  0  0
    1.3403   -1.1871   -1.7843 H   0  0  0  0  0  0  0  0  0  0  0  0
    2.6198   -2.3874   -2.9121 C   0  0  0  0  0  0  0  0  0  0  0  0
    3.1720   -2.2596   -3.7305 H   0  0  0  0  0  0  0  0  0  0  0  0
    3.2086   -2.4750   -2.1121 H   0  0  0  0  0  0  0  0  0  0  0  0
    1.9805   -3.2642   -3.0152 H   0  0  0  0  0  0  0  0  0  0  0  0
  1  5  1  0
  5  6  1  0
  5  7  2  0
  1  2  1  0
  1  3  1  0
  1  4  1  0
  8 12  1  0
 12 15  1  0
  8  9  1  0
  8 10  1  0
  8 11  1  0
 12 13  1  0
 12 14  1  0
 15 16  1  0
 15 17  1  0
 15 18  1  0
M  CHG  1   6  -1
M  END
>  <PDB_ID>  (1580) 
pdb3osz

>  <RESIDUE_NAME>  (1580) 
ASP   PRO

>  <FRAG_NAME>  (1580) 
ACET   PRPA

>  <FRAG_ATOM_NUM>  (1580) 
fragi: 7  fragj: 11

>  <atom.prop.CHAIN_ID>  (1580) 
A A A A A A A Z Z Z Z Z Z Z Z Z Z Z

>  <atom.prop.IS_HEAVY_ATOM>  (1580) 
1 0 0 0 1 1 1 1 0 0 0 1 0 0 1 0 0 0

>  <DIFUSE_FUNC_ATOM>  (1580) 
atom 6   atom 7   

>  <FINAL_SINGLE_POINT_ENERGY>  (1580) 
0

>  <NONCOV_INTER_ENERGY_QM>  (1580) 
0

>  <FF_Energy>  (1580) 
16.38

>  <QM_Energy>  (1580) 
-2.01

>  <source>  (1580) 
ACET_PRPA_18

>  <Index>  (1580) 
2324

$$$$
ACET-pdb4mix-A-GLU-2420:PRPA-pdb4mix-A-VAL-2282
     RDKit          3D

 18 16  0  0  0  0  0  0  0  0999 V2000
    0.1767    1.4865    0.0139 C   0  0  0  0  0  0  0  0  0  0  0  0
    0.6949    1.7401   -0.8039 H   0  0  0  0  0  0  0  0  0  0  0  0
    0.7080    1.7224    0.8285 H   0  0  0  0  0  0  0  0  0  0  0  0
   -0.7341    2.0853    0.0260 H   0  0  0  0  0  0  0  0  0  0  0  0
    0.0000    0.0000    0.0000 C   0  0  0  0  0  0  0  0  0  0  0  0
   -1.0894   -0.5565    0.0000 O   0  0  0  0  0  1  0  0  0  0  0  0
    1.0894   -0.6082   -0.0000 O   0  0  0  0  0  0  0  0  0  0  0  0
    1.3381    0.7478    5.1597 C   0  0  0  0  0  0  0  0  0  0  0  0
    0.4971    0.2007    5.1181 H   0  0  0  0  0  0  0  0  0  0  0  0
    1.0528    1.7856    5.3317 H   0  0  0  0  0  0  0  0  0  0  0  0
    1.9464    0.3749    5.9837 H   0  0  0  0  0  0  0  0  0  0  0  0
    2.1229    0.5807    3.8334 C   0  0  0  0  0  0  0  0  0  0  0  0
    2.9220    1.1798    3.8762 H   0  0  0  0  0  0  0  0  0  0  0  0
    2.4995   -0.4337    3.7012 H   0  0  0  0  0  0  0  0  0  0  0  0
    1.2745    1.0164    2.6555 C   0  0  0  0  0  0  0  0  0  0  0  0
    1.7528    0.8024    1.8032 H   0  0  0  0  0  0  0  0  0  0  0  0
    0.3992    0.5318    2.6780 H   0  0  0  0  0  0  0  0  0  0  0  0
    1.1122    2.0023    2.7088 H   0  0  0  0  0  0  0  0  0  0  0  0
  1  5  1  0
  5  6  1  0
  5  7  2  0
  1  2  1  0
  1  3  1  0
  1  4  1  0
  8 12  1  0
 12 15  1  0
  8  9  1  0
  8 10  1  0
  8 11  1  0
 12 13  1  0
 12 14  1  0
 15 16  1  0
 15 17  1  0
 15 18  1  0
M  CHG  1   6  -1
M  END
>  <PDB_ID>  (1581) 
pdb4mix

>  <RESIDUE_NAME>  (1581) 
GLU   VAL

>  <FRAG_NAME>  (1581) 
ACET   PRPA

>  <FRAG_ATOM_NUM>  (1581) 
fragi: 7  fragj: 11

>  <atom.prop.CHAIN_ID>  (1581) 
A A A A A A A Z Z Z Z Z Z Z Z Z Z Z

>  <atom.prop.IS_HEAVY_ATOM>  (1581) 
1 0 0 0 1 1 1 1 0 0 0 1 0 0 1 0 0 0

>  <DIFUSE_FUNC_ATOM>  (1581) 
atom 6   atom 7   

>  <FINAL_SINGLE_POINT_ENERGY>  (1581) 
0

>  <NONCOV_INTER_ENERGY_QM>  (1581) 
0

>  <FF_Energy>  (1581) 
28.88

>  <QM_Energy>  (1581) 
4.17

>  <source>  (1581) 
ACET_PRPA_18

>  <Index>  (1581) 
3136

$$$$
ACET-pdb4mix-A-GLU-2420:PRPA-pdb4mix-A-VAL-2282
     RDKit          3D

 18 16  0  0  0  0  0  0  0  0999 V2000
    0.1767    1.4865    0.0139 C   0  0  0  0  0  0  0  0  0  0  0  0
    0.6949    1.7401   -0.8039 H   0  0  0  0  0  0  0  0  0  0  0  0
    0.7080    1.7224    0.8285 H   0  0  0  0  0  0  0  0  0  0  0  0
   -0.7341    2.0853    0.0260 H   0  0  0  0  0  0  0  0  0  0  0  0
    0.0000    0.0000    0.0000 C   0  0  0  0  0  0  0  0  0  0  0  0
   -1.0894   -0.5565    0.0000 O   0  0  0  0  0  1  0  0  0  0  0  0
    1.0894   -0.6082   -0.0000 O   0  0  0  0  0  0  0  0  0  0  0  0
    2.6543   -0.8506    3.6469 C   0  0  0  0  0  0  0  0  0  0  0  0
    1.9030   -1.4426    3.3642 H   0  0  0  0  0  0  0  0  0  0  0  0
    3.3646   -0.8459    2.9469 H   0  0  0  0  0  0  0  0  0  0  0  0
    3.0328   -1.1731    4.5113 H   0  0  0  0  0  0  0  0  0  0  0  0
    2.1229    0.5807    3.8334 C   0  0  0  0  0  0  0  0  0  0  0  0
    2.9220    1.1798    3.8762 H   0  0  0  0  0  0  0  0  0  0  0  0
    1.5710    0.6982    4.7660 H   0  0  0  0  0  0  0  0  0  0  0  0
    1.2745    1.0164    2.6555 C   0  0  0  0  0  0  0  0  0  0  0  0
    1.7528    0.8024    1.8032 H   0  0  0  0  0  0  0  0  0  0  0  0
    0.3992    0.5318    2.6780 H   0  0  0  0  0  0  0  0  0  0  0  0
    1.1122    2.0023    2.7088 H   0  0  0  0  0  0  0  0  0  0  0  0
  1  5  1  0
  5  6  1  0
  5  7  2  0
  1  2  1  0
  1  3  1  0
  1  4  1  0
  8 12  1  0
 12 15  1  0
  8  9  1  0
  8 10  1  0
  8 11  1  0
 12 13  1  0
 12 14  1  0
 15 16  1  0
 15 17  1  0
 15 18  1  0
M  CHG  1   6  -1
M  END
>  <PDB_ID>  (1582) 
pdb4mix

>  <RESIDUE_NAME>  (1582) 
GLU   VAL

>  <FRAG_NAME>  (1582) 
ACET   PRPA

>  <FRAG_ATOM_NUM>  (1582) 
fragi: 7  fragj: 11

>  <atom.prop.CHAIN_ID>  (1582) 
A A A A A A A Z Z Z Z Z Z Z Z Z Z Z

>  <atom.prop.IS_HEAVY_ATOM>  (1582) 
1 0 0 0 1 1 1 1 0 0 0 1 0 0 1 0 0 0

>  <DIFUSE_FUNC_ATOM>  (1582) 
atom 6   atom 7   

>  <FINAL_SINGLE_POINT_ENERGY>  (1582) 
0

>  <NONCOV_INTER_ENERGY_QM>  (1582) 
0

>  <FF_Energy>  (1582) 
29.03

>  <QM_Energy>  (1582) 
3.92

>  <source>  (1582) 
ACET_PRPA_18

>  <Index>  (1582) 
3151

$$$$
ACET-pdb3otf-A-GLU-625:PRPA-pdb3otf-A-LYS-645
     RDKit          3D

 18 16  0  0  0  0  0  0  0  0999 V2000
   -0.0124    1.5223    0.0336 C   0  0  0  0  0  0  0  0  0  0  0  0
   -0.2746    1.8315   -0.8561 H   0  0  0  0  0  0  0  0  0  0  0  0
    0.8844    1.8157    0.2927 H   0  0  0  0  0  0  0  0  0  0  0  0
   -0.7302    1.9004    0.7615 H   0  0  0  0  0  0  0  0  0  0  0  0
    0.0000    0.0000    0.0000 C   0  0  0  0  0  0  0  0  0  0  0  0
   -1.1068   -0.6000    0.0000 O   0  0  0  0  0  1  0  0  0  0  0  0
    1.1068   -0.5913    0.0000 O   0  0  0  0  0  0  0  0  0  0  0  0
    2.1259   -3.6874   -1.2760 C   0  0  0  0  0  0  0  0  0  0  0  0
    3.0167   -3.4130   -0.8898 H   0  0  0  0  0  0  0  0  0  0  0  0
    1.8152   -2.9422   -2.0082 H   0  0  0  0  0  0  0  0  0  0  0  0
    2.2354   -4.6757   -1.7225 H   0  0  0  0  0  0  0  0  0  0  0  0
    1.1602   -3.7116   -0.0726 C   0  0  0  0  0  0  0  0  0  0  0  0
    1.0310   -4.6631    0.1961 H   0  0  0  0  0  0  0  0  0  0  0  0
    1.5883   -3.2048    0.6724 H   0  0  0  0  0  0  0  0  0  0  0  0
   -0.2029   -3.0994   -0.3545 C   0  0  0  0  0  0  0  0  0  0  0  0
   -0.0816   -2.1435   -0.6243 H   0  0  0  0  0  0  0  0  0  0  0  0
   -0.6401   -3.6034   -1.0990 H   0  0  0  0  0  0  0  0  0  0  0  0
   -0.8460   -3.1393    0.5247 H   0  0  0  0  0  0  0  0  0  0  0  0
  1  5  1  0
  5  6  1  0
  5  7  2  0
  1  2  1  0
  1  3  1  0
  1  4  1  0
  8 12  1  0
 12 15  1  0
  8  9  1  0
  8 10  1  0
  8 11  1  0
 12 13  1  0
 12 14  1  0
 15 16  1  0
 15 17  1  0
 15 18  1  0
M  CHG  1   6  -1
M  END
>  <PDB_ID>  (1583) 
pdb3otf

>  <RESIDUE_NAME>  (1583) 
GLU   LYS

>  <FRAG_NAME>  (1583) 
ACET   PRPA

>  <FRAG_ATOM_NUM>  (1583) 
fragi: 7  fragj: 11

>  <atom.prop.CHAIN_ID>  (1583) 
A A A A A A A Z Z Z Z Z Z Z Z Z Z Z

>  <atom.prop.IS_HEAVY_ATOM>  (1583) 
1 0 0 0 1 1 1 1 0 0 0 1 0 0 1 0 0 0

>  <DIFUSE_FUNC_ATOM>  (1583) 
atom 6   atom 7   

>  <FINAL_SINGLE_POINT_ENERGY>  (1583) 
0

>  <NONCOV_INTER_ENERGY_QM>  (1583) 
0

>  <FF_Energy>  (1583) 
24.64

>  <QM_Energy>  (1583) 
4.13

>  <source>  (1583) 
ACET_PRPA_18

>  <Index>  (1583) 
3618

$$$$
ACET-pdb3otf-A-GLU-625:PRPA-pdb3otf-A-LYS-645
     RDKit          3D

 18 16  0  0  0  0  0  0  0  0999 V2000
   -0.0124    1.5223    0.0336 C   0  0  0  0  0  0  0  0  0  0  0  0
   -0.2746    1.8315   -0.8561 H   0  0  0  0  0  0  0  0  0  0  0  0
    0.8844    1.8157    0.2927 H   0  0  0  0  0  0  0  0  0  0  0  0
   -0.7302    1.9004    0.7615 H   0  0  0  0  0  0  0  0  0  0  0  0
    0.0000    0.0000    0.0000 C   0  0  0  0  0  0  0  0  0  0  0  0
   -1.1068   -0.6000    0.0000 O   0  0  0  0  0  1  0  0  0  0  0  0
    1.1068   -0.5913    0.0000 O   0  0  0  0  0  0  0  0  0  0  0  0
    1.1602   -3.7116   -0.0726 C   0  0  0  0  0  0  0  0  0  0  0  0
    1.0310   -4.6631    0.1961 H   0  0  0  0  0  0  0  0  0  0  0  0
    1.5883   -3.2048    0.6724 H   0  0  0  0  0  0  0  0  0  0  0  0
    1.8423   -3.6946   -0.9226 H   0  0  0  0  0  0  0  0  0  0  0  0
   -0.2029   -3.0994   -0.3545 C   0  0  0  0  0  0  0  0  0  0  0  0
   -0.0816   -2.1435   -0.6243 H   0  0  0  0  0  0  0  0  0  0  0  0
   -0.6401   -3.6034   -1.0990 H   0  0  0  0  0  0  0  0  0  0  0  0
   -1.0993   -3.1550    0.8709 C   0  0  0  0  0  0  0  0  0  0  0  0
   -1.2168   -4.1114    1.1391 H   0  0  0  0  0  0  0  0  0  0  0  0
   -0.6607   -2.6516    1.6147 H   0  0  0  0  0  0  0  0  0  0  0  0
   -2.0823   -2.7209    0.6887 H   0  0  0  0  0  0  0  0  0  0  0  0
  1  5  1  0
  5  6  1  0
  5  7  2  0
  1  2  1  0
  1  3  1  0
  1  4  1  0
  8 12  1  0
 12 15  1  0
  8  9  1  0
  8 10  1  0
  8 11  1  0
 12 13  1  0
 12 14  1  0
 15 16  1  0
 15 17  1  0
 15 18  1  0
M  CHG  1   6  -1
M  END
>  <PDB_ID>  (1584) 
pdb3otf

>  <RESIDUE_NAME>  (1584) 
GLU   LYS

>  <FRAG_NAME>  (1584) 
ACET   PRPA

>  <FRAG_ATOM_NUM>  (1584) 
fragi: 7  fragj: 11

>  <atom.prop.CHAIN_ID>  (1584) 
A A A A A A A Z Z Z Z Z Z Z Z Z Z Z

>  <atom.prop.IS_HEAVY_ATOM>  (1584) 
1 0 0 0 1 1 1 1 0 0 0 1 0 0 1 0 0 0

>  <DIFUSE_FUNC_ATOM>  (1584) 
atom 6   atom 7   

>  <FINAL_SINGLE_POINT_ENERGY>  (1584) 
0

>  <NONCOV_INTER_ENERGY_QM>  (1584) 
0

>  <FF_Energy>  (1584) 
46.25

>  <QM_Energy>  (1584) 
4.06

>  <source>  (1584) 
ACET_PRPA_18

>  <Index>  (1584) 
3632

$$$$
ACET-pdb3oec-C-ASP-64:PRPA-pdb3oec-C-LYS-228
     RDKit          3D

 18 16  0  0  0  0  0  0  0  0999 V2000
   -0.0132    1.5057   -0.0730 C   0  0  0  0  0  0  0  0  0  0  0  0
    0.9187    1.8404   -0.0525 H   0  0  0  0  0  0  0  0  0  0  0  0
   -0.5369    1.8636    0.6864 H   0  0  0  0  0  0  0  0  0  0  0  0
   -0.4742    1.8623   -0.9940 H   0  0  0  0  0  0  0  0  0  0  0  0
    0.0000    0.0000    0.0000 C   0  0  0  0  0  0  0  0  0  0  0  0
   -1.1013   -0.5898   -0.0000 O   0  0  0  0  0  1  0  0  0  0  0  0
    1.1013   -0.5928    0.0000 O   0  0  0  0  0  0  0  0  0  0  0  0
    1.4678    2.5966    4.5153 C   0  0  0  0  0  0  0  0  0  0  0  0
    1.1717    1.9541    5.2411 H   0  0  0  0  0  0  0  0  0  0  0  0
    0.8029    3.4601    4.5339 H   0  0  0  0  0  0  0  0  0  0  0  0
    2.5114    2.8628    4.6828 H   0  0  0  0  0  0  0  0  0  0  0  0
    1.3580    1.8483    3.1804 C   0  0  0  0  0  0  0  0  0  0  0  0
    1.6220    2.4763    2.4500 H   0  0  0  0  0  0  0  0  0  0  0  0
    1.9936    1.0771    3.2044 H   0  0  0  0  0  0  0  0  0  0  0  0
   -0.0344    1.3144    2.8723 C   0  0  0  0  0  0  0  0  0  0  0  0
   -0.5845    1.3387    3.7078 H   0  0  0  0  0  0  0  0  0  0  0  0
   -0.4594    1.8935    2.1770 H   0  0  0  0  0  0  0  0  0  0  0  0
    0.0032    0.2889    2.5048 H   0  0  0  0  0  0  0  0  0  0  0  0
  1  5  1  0
  5  6  1  0
  5  7  2  0
  1  2  1  0
  1  3  1  0
  1  4  1  0
  8 12  1  0
 12 15  1  0
  8  9  1  0
  8 10  1  0
  8 11  1  0
 12 13  1  0
 12 14  1  0
 15 16  1  0
 15 17  1  0
 15 18  1  0
M  CHG  1   6  -1
M  END
>  <PDB_ID>  (1585) 
pdb3oec

>  <RESIDUE_NAME>  (1585) 
ASP   LYS

>  <FRAG_NAME>  (1585) 
ACET   PRPA

>  <FRAG_ATOM_NUM>  (1585) 
fragi: 7  fragj: 11

>  <atom.prop.CHAIN_ID>  (1585) 
A A A A A A A Z Z Z Z Z Z Z Z Z Z Z

>  <atom.prop.IS_HEAVY_ATOM>  (1585) 
1 0 0 0 1 1 1 1 0 0 0 1 0 0 1 0 0 0

>  <DIFUSE_FUNC_ATOM>  (1585) 
atom 6   atom 7   

>  <FINAL_SINGLE_POINT_ENERGY>  (1585) 
0

>  <NONCOV_INTER_ENERGY_QM>  (1585) 
0

>  <FF_Energy>  (1585) 
34.48

>  <QM_Energy>  (1585) 
4.21

>  <source>  (1585) 
ACET_PRPA_18

>  <Index>  (1585) 
4498

$$$$
ACET-pdb4mb8-B-ASP-241:PRPA-pdb4mb8-B-LYS-221
     RDKit          3D

 18 16  0  0  0  0  0  0  0  0999 V2000
    0.0239    1.5412    0.0080 C   0  0  0  0  0  0  0  0  0  0  0  0
    0.5637    1.8450   -0.7676 H   0  0  0  0  0  0  0  0  0  0  0  0
    0.4359    1.8382    0.8600 H   0  0  0  0  0  0  0  0  0  0  0  0
   -0.9698    1.9824   -0.0688 H   0  0  0  0  0  0  0  0  0  0  0  0
    0.0000    0.0000    0.0000 C   0  0  0  0  0  0  0  0  0  0  0  0
   -1.1062   -0.5996    0.0000 O   0  0  0  0  0  1  0  0  0  0  0  0
    1.1062   -0.6045    0.0000 O   0  0  0  0  0  0  0  0  0  0  0  0
    2.6959    4.3761    1.3201 C   0  0  0  0  0  0  0  0  0  0  0  0
    2.9768    5.1759    1.8524 H   0  0  0  0  0  0  0  0  0  0  0  0
    1.7568    4.5043    0.9989 H   0  0  0  0  0  0  0  0  0  0  0  0
    3.3544    4.2776    0.4571 H   0  0  0  0  0  0  0  0  0  0  0  0
    2.7446    3.1440    2.2221 C   0  0  0  0  0  0  0  0  0  0  0  0
    3.5913    3.1620    2.7386 H   0  0  0  0  0  0  0  0  0  0  0  0
    1.9615    3.1634    2.8299 H   0  0  0  0  0  0  0  0  0  0  0  0
    2.6970    1.8700    1.4021 C   0  0  0  0  0  0  0  0  0  0  0  0
    1.9186    1.9168    0.7675 H   0  0  0  0  0  0  0  0  0  0  0  0
    3.5430    1.7927    0.8650 H   0  0  0  0  0  0  0  0  0  0  0  0
    2.5920    0.9815    2.0248 H   0  0  0  0  0  0  0  0  0  0  0  0
  1  5  1  0
  5  6  1  0
  5  7  2  0
  1  2  1  0
  1  3  1  0
  1  4  1  0
  8 12  1  0
 12 15  1  0
  8  9  1  0
  8 10  1  0
  8 11  1  0
 12 13  1  0
 12 14  1  0
 15 16  1  0
 15 17  1  0
 15 18  1  0
M  CHG  1   6  -1
M  END
>  <PDB_ID>  (1586) 
pdb4mb8

>  <RESIDUE_NAME>  (1586) 
ASP   LYS

>  <FRAG_NAME>  (1586) 
ACET   PRPA

>  <FRAG_ATOM_NUM>  (1586) 
fragi: 7  fragj: 11

>  <atom.prop.CHAIN_ID>  (1586) 
A A A A A A A Z Z Z Z Z Z Z Z Z Z Z

>  <atom.prop.IS_HEAVY_ATOM>  (1586) 
1 0 0 0 1 1 1 1 0 0 0 1 0 0 1 0 0 0

>  <DIFUSE_FUNC_ATOM>  (1586) 
atom 6   atom 7   

>  <FINAL_SINGLE_POINT_ENERGY>  (1586) 
0

>  <NONCOV_INTER_ENERGY_QM>  (1586) 
0

>  <FF_Energy>  (1586) 
43.82

>  <QM_Energy>  (1586) 
7.06

>  <source>  (1586) 
ACET_PRPA_18

>  <Index>  (1586) 
5005

$$$$
ACET-pdb3ozq-A-GLU-340:PRPA-pdb3ozq-A-LYS-160
     RDKit          3D

 18 16  0  0  0  0  0  0  0  0999 V2000
    0.0108    1.5218    0.0065 C   0  0  0  0  0  0  0  0  0  0  0  0
    0.3842    1.8182   -0.8542 H   0  0  0  0  0  0  0  0  0  0  0  0
    0.5622    1.8097    0.7686 H   0  0  0  0  0  0  0  0  0  0  0  0
   -0.9827    1.9563    0.1171 H   0  0  0  0  0  0  0  0  0  0  0  0
    0.0000    0.0000    0.0000 C   0  0  0  0  0  0  0  0  0  0  0  0
   -1.0994   -0.6035    0.0000 O   0  0  0  0  0  1  0  0  0  0  0  0
    1.0994   -0.5977    0.0000 O   0  0  0  0  0  0  0  0  0  0  0  0
    3.5920   -2.5465   -2.8713 C   0  0  0  0  0  0  0  0  0  0  0  0
    4.5841   -2.6533   -2.9808 H   0  0  0  0  0  0  0  0  0  0  0  0
    3.3766   -1.5700   -2.7935 H   0  0  0  0  0  0  0  0  0  0  0  0
    3.1001   -2.9423   -3.7599 H   0  0  0  0  0  0  0  0  0  0  0  0
    3.1556   -3.2530   -1.5991 C   0  0  0  0  0  0  0  0  0  0  0  0
    2.1889   -3.4768   -1.6665 H   0  0  0  0  0  0  0  0  0  0  0  0
    3.6960   -4.0799   -1.4829 H   0  0  0  0  0  0  0  0  0  0  0  0
    3.3591   -2.3695   -0.3651 C   0  0  0  0  0  0  0  0  0  0  0  0
    2.5365   -1.8073   -0.2336 H   0  0  0  0  0  0  0  0  0  0  0  0
    3.4743   -2.9620    0.4386 H   0  0  0  0  0  0  0  0  0  0  0  0
    4.2273   -1.7168   -0.4564 H   0  0  0  0  0  0  0  0  0  0  0  0
  1  5  1  0
  5  6  1  0
  5  7  2  0
  1  2  1  0
  1  3  1  0
  1  4  1  0
  8 12  1  0
 12 15  1  0
  8  9  1  0
  8 10  1  0
  8 11  1  0
 12 13  1  0
 12 14  1  0
 15 16  1  0
 15 17  1  0
 15 18  1  0
M  CHG  1   6  -1
M  END
>  <PDB_ID>  (1587) 
pdb3ozq

>  <RESIDUE_NAME>  (1587) 
GLU   LYS

>  <FRAG_NAME>  (1587) 
ACET   PRPA

>  <FRAG_ATOM_NUM>  (1587) 
fragi: 7  fragj: 11

>  <atom.prop.CHAIN_ID>  (1587) 
A A A A A A A Z Z Z Z Z Z Z Z Z Z Z

>  <atom.prop.IS_HEAVY_ATOM>  (1587) 
1 0 0 0 1 1 1 1 0 0 0 1 0 0 1 0 0 0

>  <DIFUSE_FUNC_ATOM>  (1587) 
atom 6   atom 7   

>  <FINAL_SINGLE_POINT_ENERGY>  (1587) 
0

>  <NONCOV_INTER_ENERGY_QM>  (1587) 
0

>  <FF_Energy>  (1587) 
13.89

>  <QM_Energy>  (1587) 
-2.18

>  <source>  (1587) 
ACET_PRPA_18

>  <Index>  (1587) 
6480

$$$$
ACET-pdb3p2f-A-GLU-18:PRPA-pdb3p2f-A-ILE-64
     RDKit          3D

 18 16  0  0  0  0  0  0  0  0999 V2000
   -0.0077    1.5154   -0.0138 C   0  0  0  0  0  0  0  0  0  0  0  0
    0.1193    1.8059   -0.9416 H   0  0  0  0  0  0  0  0  0  0  0  0
    0.7093    1.8226    0.5805 H   0  0  0  0  0  0  0  0  0  0  0  0
   -0.9504    1.9277    0.3460 H   0  0  0  0  0  0  0  0  0  0  0  0
    0.0000    0.0000    0.0000 C   0  0  0  0  0  0  0  0  0  0  0  0
   -1.0996   -0.5991   -0.0000 O   0  0  0  0  0  1  0  0  0  0  0  0
    1.0996   -0.5921   -0.0000 O   0  0  0  0  0  0  0  0  0  0  0  0
    1.8699    1.1199   -4.4002 C   0  0  0  0  0  0  0  0  0  0  0  0
    2.2636    1.7938   -3.7940 H   0  0  0  0  0  0  0  0  0  0  0  0
    2.6473    0.4000   -4.6558 H   0  0  0  0  0  0  0  0  0  0  0  0
    1.4778    1.5917   -5.3012 H   0  0  0  0  0  0  0  0  0  0  0  0
    0.7486    0.3966   -3.6435 C   0  0  0  0  0  0  0  0  0  0  0  0
    0.3450   -0.2845   -4.2588 H   0  0  0  0  0  0  0  0  0  0  0  0
    1.1629   -0.0913   -2.8704 H   0  0  0  0  0  0  0  0  0  0  0  0
   -0.3439    1.2979   -3.1212 C   0  0  0  0  0  0  0  0  0  0  0  0
   -0.7740    1.7773   -3.8860 H   0  0  0  0  0  0  0  0  0  0  0  0
   -1.0295    0.7484   -2.6445 H   0  0  0  0  0  0  0  0  0  0  0  0
    0.0483    1.9648   -2.4878 H   0  0  0  0  0  0  0  0  0  0  0  0
  1  5  1  0
  5  6  1  0
  5  7  2  0
  1  2  1  0
  1  3  1  0
  1  4  1  0
  8 12  1  0
 12 15  1  0
  8  9  1  0
  8 10  1  0
  8 11  1  0
 12 13  1  0
 12 14  1  0
 15 16  1  0
 15 17  1  0
 15 18  1  0
M  CHG  1   6  -1
M  END
>  <PDB_ID>  (1588) 
pdb3p2f

>  <RESIDUE_NAME>  (1588) 
GLU   ILE

>  <FRAG_NAME>  (1588) 
ACET   PRPA

>  <FRAG_ATOM_NUM>  (1588) 
fragi: 7  fragj: 11

>  <atom.prop.CHAIN_ID>  (1588) 
A A A A A A A Z Z Z Z Z Z Z Z Z Z Z

>  <atom.prop.IS_HEAVY_ATOM>  (1588) 
1 0 0 0 1 1 1 1 0 0 0 1 0 0 1 0 0 0

>  <DIFUSE_FUNC_ATOM>  (1588) 
atom 6   atom 7   

>  <FINAL_SINGLE_POINT_ENERGY>  (1588) 
0

>  <NONCOV_INTER_ENERGY_QM>  (1588) 
0

>  <FF_Energy>  (1588) 
19.96

>  <QM_Energy>  (1588) 
1.11

>  <source>  (1588) 
ACET_PRPA_18

>  <Index>  (1588) 
6664

$$$$
ACET-pdb4mb8-D-GLU-15:PRPA-pdb4mb8-C-LYS-297
     RDKit          3D

 18 16  0  0  0  0  0  0  0  0999 V2000
    0.0067    1.5332    0.0776 C   0  0  0  0  0  0  0  0  0  0  0  0
    0.8432    1.8411   -0.3373 H   0  0  0  0  0  0  0  0  0  0  0  0
   -0.0484    1.7756    1.0289 H   0  0  0  0  0  0  0  0  0  0  0  0
   -0.8289    1.9972   -0.4465 H   0  0  0  0  0  0  0  0  0  0  0  0
    0.0000    0.0000    0.0000 C   0  0  0  0  0  0  0  0  0  0  0  0
   -1.1098   -0.6054    0.0000 O   0  0  0  0  0  1  0  0  0  0  0  0
    1.1098   -0.5973    0.0000 O   0  0  0  0  0  0  0  0  0  0  0  0
    1.9755    0.8495    2.3412 C   0  0  0  0  0  0  0  0  0  0  0  0
    1.1349    1.3917    2.4199 H   0  0  0  0  0  0  0  0  0  0  0  0
    2.1193    0.6120    1.3776 H   0  0  0  0  0  0  0  0  0  0  0  0
    2.8205    1.4368    2.7010 H   0  0  0  0  0  0  0  0  0  0  0  0
    1.7902   -0.4452    3.1352 C   0  0  0  0  0  0  0  0  0  0  0  0
    2.3948   -1.1312    2.7740 H   0  0  0  0  0  0  0  0  0  0  0  0
    1.9588   -0.2645    4.0869 H   0  0  0  0  0  0  0  0  0  0  0  0
    0.3472   -0.9338    2.9784 C   0  0  0  0  0  0  0  0  0  0  0  0
   -0.2791   -0.1807    3.2799 H   0  0  0  0  0  0  0  0  0  0  0  0
    0.1598   -1.0617    1.9786 H   0  0  0  0  0  0  0  0  0  0  0  0
    0.0718   -1.8480    3.5042 H   0  0  0  0  0  0  0  0  0  0  0  0
  1  5  1  0
  5  6  1  0
  5  7  2  0
  1  2  1  0
  1  3  1  0
  1  4  1  0
  8 12  1  0
 12 15  1  0
  8  9  1  0
  8 10  1  0
  8 11  1  0
 12 13  1  0
 12 14  1  0
 15 16  1  0
 15 17  1  0
 15 18  1  0
M  CHG  1   6  -1
M  END
>  <PDB_ID>  (1589) 
pdb4mb8

>  <RESIDUE_NAME>  (1589) 
GLU   LYS

>  <FRAG_NAME>  (1589) 
ACET   PRPA

>  <FRAG_ATOM_NUM>  (1589) 
fragi: 7  fragj: 11

>  <atom.prop.CHAIN_ID>  (1589) 
A A A A A A A Z Z Z Z Z Z Z Z Z Z Z

>  <atom.prop.IS_HEAVY_ATOM>  (1589) 
1 0 0 0 1 1 1 1 0 0 0 1 0 0 1 0 0 0

>  <DIFUSE_FUNC_ATOM>  (1589) 
atom 6   atom 7   

>  <FINAL_SINGLE_POINT_ENERGY>  (1589) 
0

>  <NONCOV_INTER_ENERGY_QM>  (1589) 
0

>  <FF_Energy>  (1589) 
16.6

>  <QM_Energy>  (1589) 
0.5

>  <source>  (1589) 
ACET_PRPA_18

>  <Index>  (1589) 
8341

$$$$
ACET-pdb3p12-B-GLU-63:PRPA-pdb3p12-B-VAL-8
     RDKit          3D

 18 16  0  0  0  0  0  0  0  0999 V2000
    0.0011    1.5173    0.0029 C   0  0  0  0  0  0  0  0  0  0  0  0
    0.8133    1.8044   -0.4791 H   0  0  0  0  0  0  0  0  0  0  0  0
    0.0220    1.8020    0.9484 H   0  0  0  0  0  0  0  0  0  0  0  0
   -0.8772    1.9404   -0.4844 H   0  0  0  0  0  0  0  0  0  0  0  0
    0.0000    0.0000    0.0000 C   0  0  0  0  0  0  0  0  0  0  0  0
   -1.0974   -0.5946   -0.0000 O   0  0  0  0  0  1  0  0  0  0  0  0
    1.0974   -0.5975   -0.0000 O   0  0  0  0  0  0  0  0  0  0  0  0
    1.3552    1.2736    4.3656 C   0  0  0  0  0  0  0  0  0  0  0  0
    1.9365    1.8782    4.9247 H   0  0  0  0  0  0  0  0  0  0  0  0
    1.8610    1.0968    3.4164 H   0  0  0  0  0  0  0  0  0  0  0  0
    1.2125    0.3438    4.9163 H   0  0  0  0  0  0  0  0  0  0  0  0
   -0.0130    1.9506    4.1593 C   0  0  0  0  0  0  0  0  0  0  0  0
    0.1517    2.9092    3.9523 H   0  0  0  0  0  0  0  0  0  0  0  0
   -0.6237    1.8563    5.0572 H   0  0  0  0  0  0  0  0  0  0  0  0
   -0.7253    1.3505    2.9563 C   0  0  0  0  0  0  0  0  0  0  0  0
   -1.2966    2.0480    2.5235 H   0  0  0  0  0  0  0  0  0  0  0  0
   -0.0491    1.0197    2.2981 H   0  0  0  0  0  0  0  0  0  0  0  0
   -1.3003    0.5884    3.2540 H   0  0  0  0  0  0  0  0  0  0  0  0
  1  5  1  0
  5  6  1  0
  5  7  2  0
  1  2  1  0
  1  3  1  0
  1  4  1  0
  8 12  1  0
 12 15  1  0
  8  9  1  0
  8 10  1  0
  8 11  1  0
 12 13  1  0
 12 14  1  0
 15 16  1  0
 15 17  1  0
 15 18  1  0
M  CHG  1   6  -1
M  END
>  <PDB_ID>  (1590) 
pdb3p12

>  <RESIDUE_NAME>  (1590) 
GLU   VAL

>  <FRAG_NAME>  (1590) 
ACET   PRPA

>  <FRAG_ATOM_NUM>  (1590) 
fragi: 7  fragj: 11

>  <atom.prop.CHAIN_ID>  (1590) 
A A A A A A A Z Z Z Z Z Z Z Z Z Z Z

>  <atom.prop.IS_HEAVY_ATOM>  (1590) 
1 0 0 0 1 1 1 1 0 0 0 1 0 0 1 0 0 0

>  <DIFUSE_FUNC_ATOM>  (1590) 
atom 6   atom 7   

>  <FINAL_SINGLE_POINT_ENERGY>  (1590) 
0

>  <NONCOV_INTER_ENERGY_QM>  (1590) 
0

>  <FF_Energy>  (1590) 
25.66

>  <QM_Energy>  (1590) 
4.59

>  <source>  (1590) 
ACET_PRPA_18

>  <Index>  (1590) 
9199

$$$$
ACET-pdb3p12-B-GLU-63:PRPA-pdb3p12-B-VAL-8
     RDKit          3D

 18 16  0  0  0  0  0  0  0  0999 V2000
    0.0011    1.5173    0.0029 C   0  0  0  0  0  0  0  0  0  0  0  0
    0.8133    1.8044   -0.4791 H   0  0  0  0  0  0  0  0  0  0  0  0
    0.0220    1.8020    0.9484 H   0  0  0  0  0  0  0  0  0  0  0  0
   -0.8772    1.9404   -0.4844 H   0  0  0  0  0  0  0  0  0  0  0  0
    0.0000    0.0000    0.0000 C   0  0  0  0  0  0  0  0  0  0  0  0
   -1.0974   -0.5946   -0.0000 O   0  0  0  0  0  1  0  0  0  0  0  0
    1.0974   -0.5975   -0.0000 O   0  0  0  0  0  0  0  0  0  0  0  0
   -0.7253    1.3505    2.9563 C   0  0  0  0  0  0  0  0  0  0  0  0
   -1.2966    2.0480    2.5235 H   0  0  0  0  0  0  0  0  0  0  0  0
   -0.0491    1.0197    2.2981 H   0  0  0  0  0  0  0  0  0  0  0  0
   -1.3003    0.5884    3.2540 H   0  0  0  0  0  0  0  0  0  0  0  0
   -0.0130    1.9506    4.1593 C   0  0  0  0  0  0  0  0  0  0  0  0
    0.1517    2.9092    3.9523 H   0  0  0  0  0  0  0  0  0  0  0  0
    0.9551    1.4716    4.3053 H   0  0  0  0  0  0  0  0  0  0  0  0
   -0.8652    1.8189    5.4124 C   0  0  0  0  0  0  0  0  0  0  0  0
   -1.8088    2.0702    5.1985 H   0  0  0  0  0  0  0  0  0  0  0  0
   -0.8345    0.8727    5.7354 H   0  0  0  0  0  0  0  0  0  0  0  0
   -0.5083    2.4275    6.1203 H   0  0  0  0  0  0  0  0  0  0  0  0
  1  5  1  0
  5  6  1  0
  5  7  2  0
  1  2  1  0
  1  3  1  0
  1  4  1  0
  8 12  1  0
 12 15  1  0
  8  9  1  0
  8 10  1  0
  8 11  1  0
 12 13  1  0
 12 14  1  0
 15 16  1  0
 15 17  1  0
 15 18  1  0
M  CHG  1   6  -1
M  END
>  <PDB_ID>  (1591) 
pdb3p12

>  <RESIDUE_NAME>  (1591) 
GLU   VAL

>  <FRAG_NAME>  (1591) 
ACET   PRPA

>  <FRAG_ATOM_NUM>  (1591) 
fragi: 7  fragj: 11

>  <atom.prop.CHAIN_ID>  (1591) 
A A A A A A A Z Z Z Z Z Z Z Z Z Z Z

>  <atom.prop.IS_HEAVY_ATOM>  (1591) 
1 0 0 0 1 1 1 1 0 0 0 1 0 0 1 0 0 0

>  <DIFUSE_FUNC_ATOM>  (1591) 
atom 6   atom 7   

>  <FINAL_SINGLE_POINT_ENERGY>  (1591) 
0

>  <NONCOV_INTER_ENERGY_QM>  (1591) 
0

>  <FF_Energy>  (1591) 
25.69

>  <QM_Energy>  (1591) 
5.02

>  <source>  (1591) 
ACET_PRPA_18

>  <Index>  (1591) 
9205

$$$$
ACET-pdb4lih-D-ASP-71:PRPA-pdb4lih-D-ARG-67
     RDKit          3D

 18 16  0  0  0  0  0  0  0  0999 V2000
    0.0291    1.5408   -0.1086 C   0  0  0  0  0  0  0  0  0  0  0  0
    0.7768    1.7993   -0.7022 H   0  0  0  0  0  0  0  0  0  0  0  0
    0.1446    1.9175    0.7976 H   0  0  0  0  0  0  0  0  0  0  0  0
   -0.8868    1.9574   -0.5279 H   0  0  0  0  0  0  0  0  0  0  0  0
    0.0000    0.0000    0.0000 C   0  0  0  0  0  0  0  0  0  0  0  0
   -1.1108   -0.5956   -0.0000 O   0  0  0  0  0  1  0  0  0  0  0  0
    1.1108   -0.6363   -0.0000 O   0  0  0  0  0  0  0  0  0  0  0  0
    2.5456   -2.4373   -4.0737 C   0  0  0  0  0  0  0  0  0  0  0  0
    2.2773   -3.3807   -4.2183 H   0  0  0  0  0  0  0  0  0  0  0  0
    3.3903   -2.2345   -4.5514 H   0  0  0  0  0  0  0  0  0  0  0  0
    1.7629   -1.7954   -4.4783 H   0  0  0  0  0  0  0  0  0  0  0  0
    2.8066   -2.2485   -2.5565 C   0  0  0  0  0  0  0  0  0  0  0  0
    3.4571   -2.9408   -2.2504 H   0  0  0  0  0  0  0  0  0  0  0  0
    3.1864   -1.3385   -2.4034 H   0  0  0  0  0  0  0  0  0  0  0  0
    1.5312   -2.3805   -1.6973 C   0  0  0  0  0  0  0  0  0  0  0  0
    1.8000   -2.2413   -0.7672 H   0  0  0  0  0  0  0  0  0  0  0  0
    0.9010   -1.7053   -2.0210 H   0  0  0  0  0  0  0  0  0  0  0  0
    1.1567   -3.3911   -1.8605 H   0  0  0  0  0  0  0  0  0  0  0  0
  1  5  1  0
  5  6  1  0
  5  7  2  0
  1  2  1  0
  1  3  1  0
  1  4  1  0
  8 12  1  0
 12 15  1  0
  8  9  1  0
  8 10  1  0
  8 11  1  0
 12 13  1  0
 12 14  1  0
 15 16  1  0
 15 17  1  0
 15 18  1  0
M  CHG  1   6  -1
M  END
>  <PDB_ID>  (1592) 
pdb4lih

>  <RESIDUE_NAME>  (1592) 
ASP   ARG

>  <FRAG_NAME>  (1592) 
ACET   PRPA

>  <FRAG_ATOM_NUM>  (1592) 
fragi: 7  fragj: 11

>  <atom.prop.CHAIN_ID>  (1592) 
A A A A A A A Z Z Z Z Z Z Z Z Z Z Z

>  <atom.prop.IS_HEAVY_ATOM>  (1592) 
1 0 0 0 1 1 1 1 0 0 0 1 0 0 1 0 0 0

>  <DIFUSE_FUNC_ATOM>  (1592) 
atom 6   atom 7   

>  <FINAL_SINGLE_POINT_ENERGY>  (1592) 
0

>  <NONCOV_INTER_ENERGY_QM>  (1592) 
0

>  <FF_Energy>  (1592) 
25.33

>  <QM_Energy>  (1592) 
6.01

>  <source>  (1592) 
ACET_PRPA_18

>  <Index>  (1592) 
9870

$$$$
ACET-pdb4mzm-A-GLU-62:PRPA-pdb4mzm-A-LYS-65
     RDKit          3D

 18 16  0  0  0  0  0  0  0  0999 V2000
    0.0226    1.5437    0.0005 C   0  0  0  0  0  0  0  0  0  0  0  0
   -0.2152    1.8376   -0.9083 H   0  0  0  0  0  0  0  0  0  0  0  0
    0.9334    1.8203    0.2513 H   0  0  0  0  0  0  0  0  0  0  0  0
   -0.6764    2.0038    0.6990 H   0  0  0  0  0  0  0  0  0  0  0  0
    0.0000    0.0000    0.0000 C   0  0  0  0  0  0  0  0  0  0  0  0
   -1.0964   -0.6106   -0.0000 O   0  0  0  0  0  1  0  0  0  0  0  0
    1.0964   -0.6058   -0.0000 O   0  0  0  0  0  0  0  0  0  0  0  0
   -4.2541    1.6456   -0.4044 C   0  0  0  0  0  0  0  0  0  0  0  0
   -3.7721    1.2384    0.3705 H   0  0  0  0  0  0  0  0  0  0  0  0
   -4.7893    0.9407   -0.8711 H   0  0  0  0  0  0  0  0  0  0  0  0
   -4.9450    2.3953   -0.0186 H   0  0  0  0  0  0  0  0  0  0  0  0
   -3.2179    2.1848   -1.3810 C   0  0  0  0  0  0  0  0  0  0  0  0
   -3.6896    2.5902   -2.1648 H   0  0  0  0  0  0  0  0  0  0  0  0
   -2.6725    2.8870   -0.9229 H   0  0  0  0  0  0  0  0  0  0  0  0
   -2.2931    1.0878   -1.8780 C   0  0  0  0  0  0  0  0  0  0  0  0
   -1.8241    0.6833   -1.0911 H   0  0  0  0  0  0  0  0  0  0  0  0
   -2.8413    0.3863   -2.3340 H   0  0  0  0  0  0  0  0  0  0  0  0
   -1.5435    1.4564   -2.5783 H   0  0  0  0  0  0  0  0  0  0  0  0
  1  5  1  0
  5  6  1  0
  5  7  2  0
  1  2  1  0
  1  3  1  0
  1  4  1  0
  8 12  1  0
 12 15  1  0
  8  9  1  0
  8 10  1  0
  8 11  1  0
 12 13  1  0
 12 14  1  0
 15 16  1  0
 15 17  1  0
 15 18  1  0
M  CHG  1   6  -1
M  END
>  <PDB_ID>  (1593) 
pdb4mzm

>  <RESIDUE_NAME>  (1593) 
GLU   LYS

>  <FRAG_NAME>  (1593) 
ACET   PRPA

>  <FRAG_ATOM_NUM>  (1593) 
fragi: 7  fragj: 11

>  <atom.prop.CHAIN_ID>  (1593) 
A A A A A A A Z Z Z Z Z Z Z Z Z Z Z

>  <atom.prop.IS_HEAVY_ATOM>  (1593) 
1 0 0 0 1 1 1 1 0 0 0 1 0 0 1 0 0 0

>  <DIFUSE_FUNC_ATOM>  (1593) 
atom 6   atom 7   

>  <FINAL_SINGLE_POINT_ENERGY>  (1593) 
0

>  <NONCOV_INTER_ENERGY_QM>  (1593) 
0

>  <FF_Energy>  (1593) 
32.77

>  <QM_Energy>  (1593) 
3.53

>  <source>  (1593) 
ACET_PRPA_18

>  <Index>  (1593) 
10065

$$$$
ACET-pdb3p9z-A-ASP-80:PRPA-pdb3p9z-A-LYS-76
     RDKit          3D

 18 16  0  0  0  0  0  0  0  0999 V2000
    0.0148    1.5251    0.0223 C   0  0  0  0  0  0  0  0  0  0  0  0
    0.4721    1.8477   -0.7966 H   0  0  0  0  0  0  0  0  0  0  0  0
    0.4962    1.8248    0.8353 H   0  0  0  0  0  0  0  0  0  0  0  0
   -0.9874    1.9534    0.0432 H   0  0  0  0  0  0  0  0  0  0  0  0
    0.0000    0.0000    0.0000 C   0  0  0  0  0  0  0  0  0  0  0  0
   -1.0879   -0.6045    0.0000 O   0  0  0  0  0  1  0  0  0  0  0  0
    1.0879   -0.6029    0.0000 O   0  0  0  0  0  0  0  0  0  0  0  0
    0.7444   -2.1039   -3.4638 C   0  0  0  0  0  0  0  0  0  0  0  0
    0.0310   -1.6624   -2.9236 H   0  0  0  0  0  0  0  0  0  0  0  0
    0.6438   -3.0939   -3.4153 H   0  0  0  0  0  0  0  0  0  0  0  0
    0.6365   -1.7926   -4.5028 H   0  0  0  0  0  0  0  0  0  0  0  0
    2.1142   -1.7139   -2.8929 C   0  0  0  0  0  0  0  0  0  0  0  0
    2.8176   -1.9552   -3.5535 H   0  0  0  0  0  0  0  0  0  0  0  0
    2.1232   -0.7349   -2.7194 H   0  0  0  0  0  0  0  0  0  0  0  0
    2.4264   -2.4405   -1.5696 C   0  0  0  0  0  0  0  0  0  0  0  0
    3.4180   -2.3939   -1.4086 H   0  0  0  0  0  0  0  0  0  0  0  0
    1.9597   -1.9535   -0.8222 H   0  0  0  0  0  0  0  0  0  0  0  0
    2.1113   -3.4840   -1.5698 H   0  0  0  0  0  0  0  0  0  0  0  0
  1  5  1  0
  5  6  1  0
  5  7  2  0
  1  2  1  0
  1  3  1  0
  1  4  1  0
  8 12  1  0
 12 15  1  0
  8  9  1  0
  8 10  1  0
  8 11  1  0
 12 13  1  0
 12 14  1  0
 15 16  1  0
 15 17  1  0
 15 18  1  0
M  CHG  1   6  -1
M  END
>  <PDB_ID>  (1594) 
pdb3p9z

>  <RESIDUE_NAME>  (1594) 
ASP   LYS

>  <FRAG_NAME>  (1594) 
ACET   PRPA

>  <FRAG_ATOM_NUM>  (1594) 
fragi: 7  fragj: 11

>  <atom.prop.CHAIN_ID>  (1594) 
A A A A A A A Z Z Z Z Z Z Z Z Z Z Z

>  <atom.prop.IS_HEAVY_ATOM>  (1594) 
1 0 0 0 1 1 1 1 0 0 0 1 0 0 1 0 0 0

>  <DIFUSE_FUNC_ATOM>  (1594) 
atom 6   atom 7   

>  <FINAL_SINGLE_POINT_ENERGY>  (1594) 
0

>  <NONCOV_INTER_ENERGY_QM>  (1594) 
0

>  <FF_Energy>  (1594) 
26.71

>  <QM_Energy>  (1594) 
-1.55

>  <source>  (1594) 
ACET_PRPA_18

>  <Index>  (1594) 
10219

$$$$
ACET-pdb4mb0-D-GLU-140:PRPA-pdb4mb0-D-ARG-143
     RDKit          3D

 18 16  0  0  0  0  0  0  0  0999 V2000
    0.0011    1.5179    0.0238 C   0  0  0  0  0  0  0  0  0  0  0  0
    0.9158    1.8175   -0.1693 H   0  0  0  0  0  0  0  0  0  0  0  0
   -0.3077    1.8017    0.9117 H   0  0  0  0  0  0  0  0  0  0  0  0
   -0.6640    1.9494   -0.7243 H   0  0  0  0  0  0  0  0  0  0  0  0
    0.0000    0.0000    0.0000 C   0  0  0  0  0  0  0  0  0  0  0  0
   -1.0977   -0.5999    0.0000 O   0  0  0  0  0  1  0  0  0  0  0  0
    1.0977   -0.5951    0.0000 O   0  0  0  0  0  0  0  0  0  0  0  0
   -0.8930   -0.1865    3.5721 C   0  0  0  0  0  0  0  0  0  0  0  0
   -1.2725   -0.2902    4.4974 H   0  0  0  0  0  0  0  0  0  0  0  0
   -1.3227    0.7025    3.1105 H   0  0  0  0  0  0  0  0  0  0  0  0
    0.1901   -0.0930    3.6513 H   0  0  0  0  0  0  0  0  0  0  0  0
   -1.2549   -1.4354    2.7636 C   0  0  0  0  0  0  0  0  0  0  0  0
   -1.0250   -1.2621    1.8035 H   0  0  0  0  0  0  0  0  0  0  0  0
   -0.6969   -2.1970    3.1006 H   0  0  0  0  0  0  0  0  0  0  0  0
   -2.7153   -1.8620    2.8264 C   0  0  0  0  0  0  0  0  0  0  0  0
   -3.1779   -1.5537    1.9934 H   0  0  0  0  0  0  0  0  0  0  0  0
   -2.7575   -2.8621    2.8747 H   0  0  0  0  0  0  0  0  0  0  0  0
   -3.2255   -1.4431    3.6938 H   0  0  0  0  0  0  0  0  0  0  0  0
  1  5  1  0
  5  6  1  0
  5  7  2  0
  1  2  1  0
  1  3  1  0
  1  4  1  0
  8 12  1  0
 12 15  1  0
  8  9  1  0
  8 10  1  0
  8 11  1  0
 12 13  1  0
 12 14  1  0
 15 16  1  0
 15 17  1  0
 15 18  1  0
M  CHG  1   6  -1
M  END
>  <PDB_ID>  (1595) 
pdb4mb0

>  <RESIDUE_NAME>  (1595) 
GLU   ARG

>  <FRAG_NAME>  (1595) 
ACET   PRPA

>  <FRAG_ATOM_NUM>  (1595) 
fragi: 7  fragj: 11

>  <atom.prop.CHAIN_ID>  (1595) 
A A A A A A A Z Z Z Z Z Z Z Z Z Z Z

>  <atom.prop.IS_HEAVY_ATOM>  (1595) 
1 0 0 0 1 1 1 1 0 0 0 1 0 0 1 0 0 0

>  <DIFUSE_FUNC_ATOM>  (1595) 
atom 6   atom 7   

>  <FINAL_SINGLE_POINT_ENERGY>  (1595) 
0

>  <NONCOV_INTER_ENERGY_QM>  (1595) 
0

>  <FF_Energy>  (1595) 
14.63

>  <QM_Energy>  (1595) 
-3.03

>  <source>  (1595) 
ACET_PRPA_18

>  <Index>  (1595) 
10227

$$$$
ACET-pdb4mzm-B-ASP-11:PRPA-pdb4mzm-B-VAL-23
     RDKit          3D

 18 16  0  0  0  0  0  0  0  0999 V2000
   -0.0045    1.5109   -0.0173 C   0  0  0  0  0  0  0  0  0  0  0  0
    0.9153    1.8335   -0.2098 H   0  0  0  0  0  0  0  0  0  0  0  0
   -0.3117    1.8421    0.8669 H   0  0  0  0  0  0  0  0  0  0  0  0
   -0.6696    1.9179   -0.7790 H   0  0  0  0  0  0  0  0  0  0  0  0
    0.0000    0.0000    0.0000 C   0  0  0  0  0  0  0  0  0  0  0  0
   -1.1012   -0.5924   -0.0000 O   0  0  0  0  0  1  0  0  0  0  0  0
    1.1012   -0.5944   -0.0000 O   0  0  0  0  0  0  0  0  0  0  0  0
   -1.5242    5.7011   -0.4978 C   0  0  0  0  0  0  0  0  0  0  0  0
   -1.6495    4.8586   -1.0539 H   0  0  0  0  0  0  0  0  0  0  0  0
   -0.6504    6.2275   -0.8816 H   0  0  0  0  0  0  0  0  0  0  0  0
   -2.4328    6.2991   -0.5676 H   0  0  0  0  0  0  0  0  0  0  0  0
   -1.3301    5.3113    0.9697 C   0  0  0  0  0  0  0  0  0  0  0  0
   -1.1105    6.1398    1.4791 H   0  0  0  0  0  0  0  0  0  0  0  0
   -2.2550    4.9141    1.3878 H   0  0  0  0  0  0  0  0  0  0  0  0
   -0.2671    4.2947    1.0509 C   0  0  0  0  0  0  0  0  0  0  0  0
   -0.5930    3.4111    0.6895 H   0  0  0  0  0  0  0  0  0  0  0  0
    0.5375    4.5798    0.5139 H   0  0  0  0  0  0  0  0  0  0  0  0
    0.0215    4.1588    2.0070 H   0  0  0  0  0  0  0  0  0  0  0  0
  1  5  1  0
  5  6  1  0
  5  7  2  0
  1  2  1  0
  1  3  1  0
  1  4  1  0
  8 12  1  0
 12 15  1  0
  8  9  1  0
  8 10  1  0
  8 11  1  0
 12 13  1  0
 12 14  1  0
 15 16  1  0
 15 17  1  0
 15 18  1  0
M  CHG  1   6  -1
M  END
>  <PDB_ID>  (1596) 
pdb4mzm

>  <RESIDUE_NAME>  (1596) 
ASP   VAL

>  <FRAG_NAME>  (1596) 
ACET   PRPA

>  <FRAG_ATOM_NUM>  (1596) 
fragi: 7  fragj: 11

>  <atom.prop.CHAIN_ID>  (1596) 
A A A A A A A Z Z Z Z Z Z Z Z Z Z Z

>  <atom.prop.IS_HEAVY_ATOM>  (1596) 
1 0 0 0 1 1 1 1 0 0 0 1 0 0 1 0 0 0

>  <DIFUSE_FUNC_ATOM>  (1596) 
atom 6   atom 7   

>  <FINAL_SINGLE_POINT_ENERGY>  (1596) 
0

>  <NONCOV_INTER_ENERGY_QM>  (1596) 
0

>  <FF_Energy>  (1596) 
24.07

>  <QM_Energy>  (1596) 
5.39

>  <source>  (1596) 
ACET_PRPA_18

>  <Index>  (1596) 
11082

$$$$
ACET-pdb4mzm-B-ASP-11:PRPA-pdb4mzm-B-VAL-23
     RDKit          3D

 18 16  0  0  0  0  0  0  0  0999 V2000
   -0.0045    1.5109   -0.0173 C   0  0  0  0  0  0  0  0  0  0  0  0
    0.9153    1.8335   -0.2098 H   0  0  0  0  0  0  0  0  0  0  0  0
   -0.3117    1.8421    0.8669 H   0  0  0  0  0  0  0  0  0  0  0  0
   -0.6696    1.9179   -0.7790 H   0  0  0  0  0  0  0  0  0  0  0  0
    0.0000    0.0000    0.0000 C   0  0  0  0  0  0  0  0  0  0  0  0
   -1.1012   -0.5924   -0.0000 O   0  0  0  0  0  1  0  0  0  0  0  0
    1.1012   -0.5944   -0.0000 O   0  0  0  0  0  0  0  0  0  0  0  0
   -2.6140    4.7598    1.5501 C   0  0  0  0  0  0  0  0  0  0  0  0
   -3.2446    5.5110    1.7522 H   0  0  0  0  0  0  0  0  0  0  0  0
   -3.0432    4.1386    0.8929 H   0  0  0  0  0  0  0  0  0  0  0  0
   -2.4158    4.2596    2.3950 H   0  0  0  0  0  0  0  0  0  0  0  0
   -1.3301    5.3113    0.9697 C   0  0  0  0  0  0  0  0  0  0  0  0
   -1.1105    6.1398    1.4791 H   0  0  0  0  0  0  0  0  0  0  0  0
   -1.4683    5.5888   -0.0753 H   0  0  0  0  0  0  0  0  0  0  0  0
   -0.2671    4.2947    1.0509 C   0  0  0  0  0  0  0  0  0  0  0  0
   -0.5930    3.4111    0.6895 H   0  0  0  0  0  0  0  0  0  0  0  0
    0.5375    4.5798    0.5139 H   0  0  0  0  0  0  0  0  0  0  0  0
    0.0215    4.1588    2.0070 H   0  0  0  0  0  0  0  0  0  0  0  0
  1  5  1  0
  5  6  1  0
  5  7  2  0
  1  2  1  0
  1  3  1  0
  1  4  1  0
  8 12  1  0
 12 15  1  0
  8  9  1  0
  8 10  1  0
  8 11  1  0
 12 13  1  0
 12 14  1  0
 15 16  1  0
 15 17  1  0
 15 18  1  0
M  CHG  1   6  -1
M  END
>  <PDB_ID>  (1597) 
pdb4mzm

>  <RESIDUE_NAME>  (1597) 
ASP   VAL

>  <FRAG_NAME>  (1597) 
ACET   PRPA

>  <FRAG_ATOM_NUM>  (1597) 
fragi: 7  fragj: 11

>  <atom.prop.CHAIN_ID>  (1597) 
A A A A A A A Z Z Z Z Z Z Z Z Z Z Z

>  <atom.prop.IS_HEAVY_ATOM>  (1597) 
1 0 0 0 1 1 1 1 0 0 0 1 0 0 1 0 0 0

>  <DIFUSE_FUNC_ATOM>  (1597) 
atom 6   atom 7   

>  <FINAL_SINGLE_POINT_ENERGY>  (1597) 
0

>  <NONCOV_INTER_ENERGY_QM>  (1597) 
0

>  <FF_Energy>  (1597) 
24.06

>  <QM_Energy>  (1597) 
5.58

>  <source>  (1597) 
ACET_PRPA_18

>  <Index>  (1597) 
11085

$$$$
ACET-pdb4n77-A-GLU-172:PRPA-pdb4n77-A-PRO-2
     RDKit          3D

 18 16  0  0  0  0  0  0  0  0999 V2000
    0.0023    1.5270    0.0097 C   0  0  0  0  0  0  0  0  0  0  0  0
    0.0630    1.8267   -0.9240 H   0  0  0  0  0  0  0  0  0  0  0  0
    0.7735    1.8161    0.5459 H   0  0  0  0  0  0  0  0  0  0  0  0
   -0.9002    1.9532    0.4477 H   0  0  0  0  0  0  0  0  0  0  0  0
    0.0000    0.0000    0.0000 C   0  0  0  0  0  0  0  0  0  0  0  0
   -1.0955   -0.6047   -0.0000 O   0  0  0  0  0  1  0  0  0  0  0  0
    1.0955   -0.6013    0.0000 O   0  0  0  0  0  0  0  0  0  0  0  0
    0.1135   -0.9793    4.0433 C   0  0  0  0  0  0  0  0  0  0  0  0
    0.4359   -0.5969    4.8907 H   0  0  0  0  0  0  0  0  0  0  0  0
    0.8291   -1.0518    3.3725 H   0  0  0  0  0  0  0  0  0  0  0  0
   -0.4159   -1.9209    4.1888 H   0  0  0  0  0  0  0  0  0  0  0  0
   -1.0294   -0.1025    3.4857 C   0  0  0  0  0  0  0  0  0  0  0  0
   -1.5359    0.3056    4.2404 H   0  0  0  0  0  0  0  0  0  0  0  0
   -0.6489    0.6113    2.9040 H   0  0  0  0  0  0  0  0  0  0  0  0
   -1.9124   -1.0546    2.6818 C   0  0  0  0  0  0  0  0  0  0  0  0
   -2.8771   -0.7739    2.7247 H   0  0  0  0  0  0  0  0  0  0  0  0
   -1.6290   -1.0802    1.7166 H   0  0  0  0  0  0  0  0  0  0  0  0
   -1.7833   -2.0350    3.1404 H   0  0  0  0  0  0  0  0  0  0  0  0
  1  5  1  0
  5  6  1  0
  5  7  2  0
  1  2  1  0
  1  3  1  0
  1  4  1  0
  8 12  1  0
 12 15  1  0
  8  9  1  0
  8 10  1  0
  8 11  1  0
 12 13  1  0
 12 14  1  0
 15 16  1  0
 15 17  1  0
 15 18  1  0
M  CHG  1   6  -1
M  END
>  <PDB_ID>  (1598) 
pdb4n77

>  <RESIDUE_NAME>  (1598) 
GLU   PRO

>  <FRAG_NAME>  (1598) 
ACET   PRPA

>  <FRAG_ATOM_NUM>  (1598) 
fragi: 7  fragj: 11

>  <atom.prop.CHAIN_ID>  (1598) 
A A A A A A A Z Z Z Z Z Z Z Z Z Z Z

>  <atom.prop.IS_HEAVY_ATOM>  (1598) 
1 0 0 0 1 1 1 1 0 0 0 1 0 0 1 0 0 0

>  <DIFUSE_FUNC_ATOM>  (1598) 
atom 6   atom 7   

>  <FINAL_SINGLE_POINT_ENERGY>  (1598) 
0

>  <NONCOV_INTER_ENERGY_QM>  (1598) 
0

>  <FF_Energy>  (1598) 
17.94

>  <QM_Energy>  (1598) 
-2.32

>  <source>  (1598) 
ACET_PRPA_18

>  <Index>  (1598) 
11498

$$$$
ACET-pdb3p96-A-ASP-173:PRPA-pdb3p96-A-ARG-178
     RDKit          3D

 18 16  0  0  0  0  0  0  0  0999 V2000
   -0.0035    1.4795    0.0238 C   0  0  0  0  0  0  0  0  0  0  0  0
   -0.7267    1.8182   -0.5753 H   0  0  0  0  0  0  0  0  0  0  0  0
    0.8807    1.8186   -0.2911 H   0  0  0  0  0  0  0  0  0  0  0  0
   -0.1807    1.8792    1.0224 H   0  0  0  0  0  0  0  0  0  0  0  0
    0.0000    0.0000    0.0000 C   0  0  0  0  0  0  0  0  0  0  0  0
   -1.1285   -0.5703   -0.0000 O   0  0  0  0  0  1  0  0  0  0  0  0
    1.1285   -0.5671    0.0000 O   0  0  0  0  0  0  0  0  0  0  0  0
    2.4326    2.0539   -2.6237 C   0  0  0  0  0  0  0  0  0  0  0  0
    2.9512    1.8297   -1.7965 H   0  0  0  0  0  0  0  0  0  0  0  0
    1.6131    2.5697   -2.3688 H   0  0  0  0  0  0  0  0  0  0  0  0
    3.0545    2.6975   -3.2460 H   0  0  0  0  0  0  0  0  0  0  0  0
    1.9863    0.7491   -3.2677 C   0  0  0  0  0  0  0  0  0  0  0  0
    1.9156    0.8840   -4.2569 H   0  0  0  0  0  0  0  0  0  0  0  0
    2.6718    0.0440   -3.0784 H   0  0  0  0  0  0  0  0  0  0  0  0
    0.6705    0.2956   -2.7442 C   0  0  0  0  0  0  0  0  0  0  0  0
    0.7432    0.1613   -1.7559 H   0  0  0  0  0  0  0  0  0  0  0  0
   -0.0133    1.0023   -2.9343 H   0  0  0  0  0  0  0  0  0  0  0  0
    0.3471   -0.6388   -3.2030 H   0  0  0  0  0  0  0  0  0  0  0  0
  1  5  1  0
  5  6  1  0
  5  7  2  0
  1  2  1  0
  1  3  1  0
  1  4  1  0
  8 12  1  0
 12 15  1  0
  8  9  1  0
  8 10  1  0
  8 11  1  0
 12 13  1  0
 12 14  1  0
 15 16  1  0
 15 17  1  0
 15 18  1  0
M  CHG  1   6  -1
M  END
>  <PDB_ID>  (1599) 
pdb3p96

>  <RESIDUE_NAME>  (1599) 
ASP   ARG

>  <FRAG_NAME>  (1599) 
ACET   PRPA

>  <FRAG_ATOM_NUM>  (1599) 
fragi: 7  fragj: 11

>  <atom.prop.CHAIN_ID>  (1599) 
A A A A A A A Z Z Z Z Z Z Z Z Z Z Z

>  <atom.prop.IS_HEAVY_ATOM>  (1599) 
1 0 0 0 1 1 1 1 0 0 0 1 0 0 1 0 0 0

>  <DIFUSE_FUNC_ATOM>  (1599) 
atom 6   atom 7   

>  <FINAL_SINGLE_POINT_ENERGY>  (1599) 
0

>  <NONCOV_INTER_ENERGY_QM>  (1599) 
0

>  <FF_Energy>  (1599) 
48.92

>  <QM_Energy>  (1599) 
4.42

>  <source>  (1599) 
ACET_PRPA_18

>  <Index>  (1599) 
12357

$$$$
ACET-pdb4n4j-A-GLU-98:PRPA-pdb4n4j-A-LYS-177
     RDKit          3D

 18 16  0  0  0  0  0  0  0  0999 V2000
   -0.0227    1.4972    0.0189 C   0  0  0  0  0  0  0  0  0  0  0  0
   -0.7712    1.7776    0.5954 H   0  0  0  0  0  0  0  0  0  0  0  0
   -0.1396    1.8052   -0.9101 H   0  0  0  0  0  0  0  0  0  0  0  0
    0.9012    1.9179    0.4157 H   0  0  0  0  0  0  0  0  0  0  0  0
    0.0000    0.0000    0.0000 C   0  0  0  0  0  0  0  0  0  0  0  0
   -1.1012   -0.5715   -0.0000 O   0  0  0  0  0  1  0  0  0  0  0  0
    1.1012   -0.5960   -0.0000 O   0  0  0  0  0  0  0  0  0  0  0  0
   -2.8960   -2.8871   -2.4785 C   0  0  0  0  0  0  0  0  0  0  0  0
   -2.9390   -3.8216   -2.8476 H   0  0  0  0  0  0  0  0  0  0  0  0
   -2.5096   -2.2819   -3.1821 H   0  0  0  0  0  0  0  0  0  0  0  0
   -3.9075   -2.5549   -2.2448 H   0  0  0  0  0  0  0  0  0  0  0  0
   -1.9915   -2.8765   -1.2690 C   0  0  0  0  0  0  0  0  0  0  0  0
   -2.1399   -2.0348   -0.7552 H   0  0  0  0  0  0  0  0  0  0  0  0
   -2.1972   -3.6656   -0.6966 H   0  0  0  0  0  0  0  0  0  0  0  0
   -0.5157   -2.9433   -1.6599 C   0  0  0  0  0  0  0  0  0  0  0  0
   -0.2318   -2.0320   -1.9849 H   0  0  0  0  0  0  0  0  0  0  0  0
    0.0216   -3.1617   -0.8353 H   0  0  0  0  0  0  0  0  0  0  0  0
   -0.3175   -3.6859   -2.4328 H   0  0  0  0  0  0  0  0  0  0  0  0
  1  5  1  0
  5  6  1  0
  5  7  2  0
  1  2  1  0
  1  3  1  0
  1  4  1  0
  8 12  1  0
 12 15  1  0
  8  9  1  0
  8 10  1  0
  8 11  1  0
 12 13  1  0
 12 14  1  0
 15 16  1  0
 15 17  1  0
 15 18  1  0
M  CHG  1   6  -1
M  END
>  <PDB_ID>  (1600) 
pdb4n4j

>  <RESIDUE_NAME>  (1600) 
GLU   LYS

>  <FRAG_NAME>  (1600) 
ACET   PRPA

>  <FRAG_ATOM_NUM>  (1600) 
fragi: 7  fragj: 11

>  <atom.prop.CHAIN_ID>  (1600) 
A A A A A A A Z Z Z Z Z Z Z Z Z Z Z

>  <atom.prop.IS_HEAVY_ATOM>  (1600) 
1 0 0 0 1 1 1 1 0 0 0 1 0 0 1 0 0 0

>  <DIFUSE_FUNC_ATOM>  (1600) 
atom 6   atom 7   

>  <FINAL_SINGLE_POINT_ENERGY>  (1600) 
0

>  <NONCOV_INTER_ENERGY_QM>  (1600) 
0

>  <FF_Energy>  (1600) 
13.8

>  <QM_Energy>  (1600) 
-1.81

>  <source>  (1600) 
ACET_PRPA_18

>  <Index>  (1600) 
13092

$$$$
ACET-pdb4n0q-A-GLU-148:PRPA-pdb4n0q-A-GLN-145
     RDKit          3D

 18 16  0  0  0  0  0  0  0  0999 V2000
    0.1852    1.4904    0.0149 C   0  0  0  0  0  0  0  0  0  0  0  0
    0.7012    1.7415   -0.8018 H   0  0  0  0  0  0  0  0  0  0  0  0
    0.7125    1.7226    0.8309 H   0  0  0  0  0  0  0  0  0  0  0  0
   -0.7265    2.0879    0.0278 H   0  0  0  0  0  0  0  0  0  0  0  0
    0.0000    0.0000    0.0000 C   0  0  0  0  0  0  0  0  0  0  0  0
   -1.0893   -0.5520    0.0000 O   0  0  0  0  0  1  0  0  0  0  0  0
    1.0893   -0.6103   -0.0000 O   0  0  0  0  0  0  0  0  0  0  0  0
    3.3052    1.0064   -0.4031 C   0  0  0  0  0  0  0  0  0  0  0  0
    2.4386    0.6279   -0.0398 H   0  0  0  0  0  0  0  0  0  0  0  0
    3.3079    0.8691   -1.4844 H   0  0  0  0  0  0  0  0  0  0  0  0
    3.3497    2.0522   -0.0988 H   0  0  0  0  0  0  0  0  0  0  0  0
    4.4275    0.1729    0.2675 C   0  0  0  0  0  0  0  0  0  0  0  0
    4.4352   -0.7326   -0.1453 H   0  0  0  0  0  0  0  0  0  0  0  0
    5.2978    0.6311    0.1081 H   0  0  0  0  0  0  0  0  0  0  0  0
    4.2396    0.0112    1.7768 C   0  0  0  0  0  0  0  0  0  0  0  0
    4.1308    0.9251    2.1819 H   0  0  0  0  0  0  0  0  0  0  0  0
    3.3979   -0.5139    1.9369 H   0  0  0  0  0  0  0  0  0  0  0  0
    5.0650   -0.4942    2.2781 H   0  0  0  0  0  0  0  0  0  0  0  0
  1  5  1  0
  5  6  1  0
  5  7  2  0
  1  2  1  0
  1  3  1  0
  1  4  1  0
  8 12  1  0
 12 15  1  0
  8  9  1  0
  8 10  1  0
  8 11  1  0
 12 13  1  0
 12 14  1  0
 15 16  1  0
 15 17  1  0
 15 18  1  0
M  CHG  1   6  -1
M  END
>  <PDB_ID>  (1601) 
pdb4n0q

>  <RESIDUE_NAME>  (1601) 
GLU   GLN

>  <FRAG_NAME>  (1601) 
ACET   PRPA

>  <FRAG_ATOM_NUM>  (1601) 
fragi: 7  fragj: 11

>  <atom.prop.CHAIN_ID>  (1601) 
A A A A A A A Z Z Z Z Z Z Z Z Z Z Z

>  <atom.prop.IS_HEAVY_ATOM>  (1601) 
1 0 0 0 1 1 1 1 0 0 0 1 0 0 1 0 0 0

>  <DIFUSE_FUNC_ATOM>  (1601) 
atom 6   atom 7   

>  <FINAL_SINGLE_POINT_ENERGY>  (1601) 
0

>  <NONCOV_INTER_ENERGY_QM>  (1601) 
0

>  <FF_Energy>  (1601) 
26.23

>  <QM_Energy>  (1601) 
1.16

>  <source>  (1601) 
ACET_PRPA_18

>  <Index>  (1601) 
13854

$$$$
ACET-pdb3pc2-A-GLU-145:PRPA-pdb3pc2-A-ARG-164
     RDKit          3D

 18 16  0  0  0  0  0  0  0  0999 V2000
    0.0261    1.5240   -0.0352 C   0  0  0  0  0  0  0  0  0  0  0  0
   -0.3528    1.8099   -0.8984 H   0  0  0  0  0  0  0  0  0  0  0  0
    0.9641    1.8089    0.0662 H   0  0  0  0  0  0  0  0  0  0  0  0
   -0.5546    1.9983    0.7560 H   0  0  0  0  0  0  0  0  0  0  0  0
    0.0000    0.0000    0.0000 C   0  0  0  0  0  0  0  0  0  0  0  0
   -1.0987   -0.6077    0.0000 O   0  0  0  0  0  1  0  0  0  0  0  0
    1.0987   -0.5973   -0.0000 O   0  0  0  0  0  0  0  0  0  0  0  0
    0.8587    3.2015   -3.8886 C   0  0  0  0  0  0  0  0  0  0  0  0
    0.4712    4.1242   -3.7647 H   0  0  0  0  0  0  0  0  0  0  0  0
    0.8748    2.9669   -4.9529 H   0  0  0  0  0  0  0  0  0  0  0  0
    1.8628    3.1867   -3.4647 H   0  0  0  0  0  0  0  0  0  0  0  0
   -0.0403    2.1995   -3.1514 C   0  0  0  0  0  0  0  0  0  0  0  0
    0.2974    1.2856   -3.3347 H   0  0  0  0  0  0  0  0  0  0  0  0
   -0.0026    2.4019   -2.1822 H   0  0  0  0  0  0  0  0  0  0  0  0
   -1.5022    2.2607   -3.5908 C   0  0  0  0  0  0  0  0  0  0  0  0
   -1.8452    3.1905   -3.4636 H   0  0  0  0  0  0  0  0  0  0  0  0
   -1.5656    2.0105   -4.5562 H   0  0  0  0  0  0  0  0  0  0  0  0
   -2.1354    1.5814   -3.0201 H   0  0  0  0  0  0  0  0  0  0  0  0
  1  5  1  0
  5  6  1  0
  5  7  2  0
  1  2  1  0
  1  3  1  0
  1  4  1  0
  8 12  1  0
 12 15  1  0
  8  9  1  0
  8 10  1  0
  8 11  1  0
 12 13  1  0
 12 14  1  0
 15 16  1  0
 15 17  1  0
 15 18  1  0
M  CHG  1   6  -1
M  END
>  <PDB_ID>  (1602) 
pdb3pc2

>  <RESIDUE_NAME>  (1602) 
GLU   ARG

>  <FRAG_NAME>  (1602) 
ACET   PRPA

>  <FRAG_ATOM_NUM>  (1602) 
fragi: 7  fragj: 11

>  <atom.prop.CHAIN_ID>  (1602) 
A A A A A A A Z Z Z Z Z Z Z Z Z Z Z

>  <atom.prop.IS_HEAVY_ATOM>  (1602) 
1 0 0 0 1 1 1 1 0 0 0 1 0 0 1 0 0 0

>  <DIFUSE_FUNC_ATOM>  (1602) 
atom 6   atom 7   

>  <FINAL_SINGLE_POINT_ENERGY>  (1602) 
0

>  <NONCOV_INTER_ENERGY_QM>  (1602) 
0

>  <FF_Energy>  (1602) 
46.44

>  <QM_Energy>  (1602) 
4.73

>  <source>  (1602) 
ACET_PRPA_18

>  <Index>  (1602) 
13932

$$$$
ACET-pdb3pc2-A-GLU-145:PRPA-pdb3pc2-A-ARG-164
     RDKit          3D

 18 16  0  0  0  0  0  0  0  0999 V2000
    0.0261    1.5240   -0.0352 C   0  0  0  0  0  0  0  0  0  0  0  0
   -0.3528    1.8099   -0.8984 H   0  0  0  0  0  0  0  0  0  0  0  0
    0.9641    1.8089    0.0662 H   0  0  0  0  0  0  0  0  0  0  0  0
   -0.5546    1.9983    0.7560 H   0  0  0  0  0  0  0  0  0  0  0  0
    0.0000    0.0000    0.0000 C   0  0  0  0  0  0  0  0  0  0  0  0
   -1.0987   -0.6077    0.0000 O   0  0  0  0  0  1  0  0  0  0  0  0
    1.0987   -0.5973   -0.0000 O   0  0  0  0  0  0  0  0  0  0  0  0
   -0.0403    2.1995   -3.1514 C   0  0  0  0  0  0  0  0  0  0  0  0
    0.2974    1.2856   -3.3347 H   0  0  0  0  0  0  0  0  0  0  0  0
   -0.0026    2.4019   -2.1822 H   0  0  0  0  0  0  0  0  0  0  0  0
    0.5981    2.9111   -3.6749 H   0  0  0  0  0  0  0  0  0  0  0  0
   -1.5022    2.2607   -3.5908 C   0  0  0  0  0  0  0  0  0  0  0  0
   -1.8452    3.1905   -3.4636 H   0  0  0  0  0  0  0  0  0  0  0  0
   -1.5656    2.0105   -4.5562 H   0  0  0  0  0  0  0  0  0  0  0  0
   -2.3847    1.3140   -2.7955 C   0  0  0  0  0  0  0  0  0  0  0  0
   -2.3267    0.4118   -3.2100 H   0  0  0  0  0  0  0  0  0  0  0  0
   -2.0467    1.2866   -1.8601 H   0  0  0  0  0  0  0  0  0  0  0  0
   -3.4247    1.6403   -2.7916 H   0  0  0  0  0  0  0  0  0  0  0  0
  1  5  1  0
  5  6  1  0
  5  7  2  0
  1  2  1  0
  1  3  1  0
  1  4  1  0
  8 12  1  0
 12 15  1  0
  8  9  1  0
  8 10  1  0
  8 11  1  0
 12 13  1  0
 12 14  1  0
 15 16  1  0
 15 17  1  0
 15 18  1  0
M  CHG  1   6  -1
M  END
>  <PDB_ID>  (1603) 
pdb3pc2

>  <RESIDUE_NAME>  (1603) 
GLU   ARG

>  <FRAG_NAME>  (1603) 
ACET   PRPA

>  <FRAG_ATOM_NUM>  (1603) 
fragi: 7  fragj: 11

>  <atom.prop.CHAIN_ID>  (1603) 
A A A A A A A Z Z Z Z Z Z Z Z Z Z Z

>  <atom.prop.IS_HEAVY_ATOM>  (1603) 
1 0 0 0 1 1 1 1 0 0 0 1 0 0 1 0 0 0

>  <DIFUSE_FUNC_ATOM>  (1603) 
atom 6   atom 7   

>  <FINAL_SINGLE_POINT_ENERGY>  (1603) 
0

>  <NONCOV_INTER_ENERGY_QM>  (1603) 
0

>  <FF_Energy>  (1603) 
41.19

>  <QM_Energy>  (1603) 
4.85

>  <source>  (1603) 
ACET_PRPA_18

>  <Index>  (1603) 
13938

$$$$
ACET-pdb3pg4-A-ASP-90:PRPA-pdb3pg4-A-LYS-125
     RDKit          3D

 18 16  0  0  0  0  0  0  0  0999 V2000
   -0.0102    1.5140    0.0265 C   0  0  0  0  0  0  0  0  0  0  0  0
    0.7166    1.8503   -0.5601 H   0  0  0  0  0  0  0  0  0  0  0  0
    0.1232    1.8204    0.9607 H   0  0  0  0  0  0  0  0  0  0  0  0
   -0.9511    1.9310   -0.3325 H   0  0  0  0  0  0  0  0  0  0  0  0
    0.0000    0.0000    0.0000 C   0  0  0  0  0  0  0  0  0  0  0  0
   -1.0995   -0.5955   -0.0000 O   0  0  0  0  0  1  0  0  0  0  0  0
    1.0995   -0.5959   -0.0000 O   0  0  0  0  0  0  0  0  0  0  0  0
   -1.0587    0.4291    4.1810 C   0  0  0  0  0  0  0  0  0  0  0  0
   -0.5469    1.1094    3.6007 H   0  0  0  0  0  0  0  0  0  0  0  0
   -0.6423    0.4565    5.1879 H   0  0  0  0  0  0  0  0  0  0  0  0
   -2.1249    0.6398    4.0964 H   0  0  0  0  0  0  0  0  0  0  0  0
   -0.7386   -0.9200    3.5459 C   0  0  0  0  0  0  0  0  0  0  0  0
   -0.6264   -1.5904    4.2720 H   0  0  0  0  0  0  0  0  0  0  0  0
   -1.4982   -1.1781    2.9557 H   0  0  0  0  0  0  0  0  0  0  0  0
    0.5332   -0.9050    2.7087 C   0  0  0  0  0  0  0  0  0  0  0  0
    0.8265   -1.8529    2.5447 H   0  0  0  0  0  0  0  0  0  0  0  0
    0.3354   -0.4733    1.8224 H   0  0  0  0  0  0  0  0  0  0  0  0
    1.3500   -0.3645    3.1872 H   0  0  0  0  0  0  0  0  0  0  0  0
  1  5  1  0
  5  6  1  0
  5  7  2  0
  1  2  1  0
  1  3  1  0
  1  4  1  0
  8 12  1  0
 12 15  1  0
  8  9  1  0
  8 10  1  0
  8 11  1  0
 12 13  1  0
 12 14  1  0
 15 16  1  0
 15 17  1  0
 15 18  1  0
M  CHG  1   6  -1
M  END
>  <PDB_ID>  (1604) 
pdb3pg4

>  <RESIDUE_NAME>  (1604) 
ASP   LYS

>  <FRAG_NAME>  (1604) 
ACET   PRPA

>  <FRAG_ATOM_NUM>  (1604) 
fragi: 7  fragj: 11

>  <atom.prop.CHAIN_ID>  (1604) 
A A A A A A A Z Z Z Z Z Z Z Z Z Z Z

>  <atom.prop.IS_HEAVY_ATOM>  (1604) 
1 0 0 0 1 1 1 1 0 0 0 1 0 0 1 0 0 0

>  <DIFUSE_FUNC_ATOM>  (1604) 
atom 6   atom 7   

>  <FINAL_SINGLE_POINT_ENERGY>  (1604) 
0

>  <NONCOV_INTER_ENERGY_QM>  (1604) 
0

>  <FF_Energy>  (1604) 
43.5

>  <QM_Energy>  (1604) 
3.81

>  <source>  (1604) 
ACET_PRPA_18

>  <Index>  (1604) 
14183

$$$$
ACET-pdb3pg4-A-ASP-90:PRPA-pdb3pg4-A-LYS-125
     RDKit          3D

 18 16  0  0  0  0  0  0  0  0999 V2000
   -0.0102    1.5140    0.0265 C   0  0  0  0  0  0  0  0  0  0  0  0
    0.7166    1.8503   -0.5601 H   0  0  0  0  0  0  0  0  0  0  0  0
    0.1232    1.8204    0.9607 H   0  0  0  0  0  0  0  0  0  0  0  0
   -0.9511    1.9310   -0.3325 H   0  0  0  0  0  0  0  0  0  0  0  0
    0.0000    0.0000    0.0000 C   0  0  0  0  0  0  0  0  0  0  0  0
   -1.0995   -0.5955   -0.0000 O   0  0  0  0  0  1  0  0  0  0  0  0
    1.0995   -0.5959   -0.0000 O   0  0  0  0  0  0  0  0  0  0  0  0
   -0.7386   -0.9200    3.5459 C   0  0  0  0  0  0  0  0  0  0  0  0
   -0.6264   -1.5904    4.2720 H   0  0  0  0  0  0  0  0  0  0  0  0
   -1.4982   -1.1781    2.9557 H   0  0  0  0  0  0  0  0  0  0  0  0
   -0.9674    0.0443    3.9998 H   0  0  0  0  0  0  0  0  0  0  0  0
    0.5332   -0.9050    2.7087 C   0  0  0  0  0  0  0  0  0  0  0  0
    0.8265   -1.8529    2.5447 H   0  0  0  0  0  0  0  0  0  0  0  0
    0.3354   -0.4733    1.8224 H   0  0  0  0  0  0  0  0  0  0  0  0
    1.6743   -0.1498    3.3772 C   0  0  0  0  0  0  0  0  0  0  0  0
    1.3114    0.6735    3.7989 H   0  0  0  0  0  0  0  0  0  0  0  0
    2.0929   -0.7367    4.0602 H   0  0  0  0  0  0  0  0  0  0  0  0
    2.4366    0.1378    2.6531 H   0  0  0  0  0  0  0  0  0  0  0  0
  1  5  1  0
  5  6  1  0
  5  7  2  0
  1  2  1  0
  1  3  1  0
  1  4  1  0
  8 12  1  0
 12 15  1  0
  8  9  1  0
  8 10  1  0
  8 11  1  0
 12 13  1  0
 12 14  1  0
 15 16  1  0
 15 17  1  0
 15 18  1  0
M  CHG  1   6  -1
M  END
>  <PDB_ID>  (1605) 
pdb3pg4

>  <RESIDUE_NAME>  (1605) 
ASP   LYS

>  <FRAG_NAME>  (1605) 
ACET   PRPA

>  <FRAG_ATOM_NUM>  (1605) 
fragi: 7  fragj: 11

>  <atom.prop.CHAIN_ID>  (1605) 
A A A A A A A Z Z Z Z Z Z Z Z Z Z Z

>  <atom.prop.IS_HEAVY_ATOM>  (1605) 
1 0 0 0 1 1 1 1 0 0 0 1 0 0 1 0 0 0

>  <DIFUSE_FUNC_ATOM>  (1605) 
atom 6   atom 7   

>  <FINAL_SINGLE_POINT_ENERGY>  (1605) 
0

>  <NONCOV_INTER_ENERGY_QM>  (1605) 
0

>  <FF_Energy>  (1605) 
49.64

>  <QM_Energy>  (1605) 
3.57

>  <source>  (1605) 
ACET_PRPA_18

>  <Index>  (1605) 
14188

$$$$
ACET-pdb3pg4-A-ASP-90:PRPA-pdb3pg4-A-LYS-125
     RDKit          3D

 18 16  0  0  0  0  0  0  0  0999 V2000
   -0.0102    1.5140    0.0265 C   0  0  0  0  0  0  0  0  0  0  0  0
    0.7166    1.8503   -0.5601 H   0  0  0  0  0  0  0  0  0  0  0  0
    0.1232    1.8204    0.9607 H   0  0  0  0  0  0  0  0  0  0  0  0
   -0.9511    1.9310   -0.3325 H   0  0  0  0  0  0  0  0  0  0  0  0
    0.0000    0.0000    0.0000 C   0  0  0  0  0  0  0  0  0  0  0  0
   -1.0995   -0.5955   -0.0000 O   0  0  0  0  0  1  0  0  0  0  0  0
    1.0995   -0.5959   -0.0000 O   0  0  0  0  0  0  0  0  0  0  0  0
    0.5332   -0.9050    2.7087 C   0  0  0  0  0  0  0  0  0  0  0  0
    0.8265   -1.8529    2.5447 H   0  0  0  0  0  0  0  0  0  0  0  0
    0.3354   -0.4733    1.8224 H   0  0  0  0  0  0  0  0  0  0  0  0
   -0.3772   -0.9157    3.3080 H   0  0  0  0  0  0  0  0  0  0  0  0
    1.6743   -0.1498    3.3772 C   0  0  0  0  0  0  0  0  0  0  0  0
    1.3114    0.6735    3.7989 H   0  0  0  0  0  0  0  0  0  0  0  0
    2.0929   -0.7367    4.0602 H   0  0  0  0  0  0  0  0  0  0  0  0
    2.7395    0.2521    2.3655 C   0  0  0  0  0  0  0  0  0  0  0  0
    3.1543   -0.5768    1.9842 H   0  0  0  0  0  0  0  0  0  0  0  0
    2.3064    0.7723    1.6266 H   0  0  0  0  0  0  0  0  0  0  0  0
    3.5166    0.8629    2.8250 H   0  0  0  0  0  0  0  0  0  0  0  0
  1  5  1  0
  5  6  1  0
  5  7  2  0
  1  2  1  0
  1  3  1  0
  1  4  1  0
  8 12  1  0
 12 15  1  0
  8  9  1  0
  8 10  1  0
  8 11  1  0
 12 13  1  0
 12 14  1  0
 15 16  1  0
 15 17  1  0
 15 18  1  0
M  CHG  1   6  -1
M  END
>  <PDB_ID>  (1606) 
pdb3pg4

>  <RESIDUE_NAME>  (1606) 
ASP   LYS

>  <FRAG_NAME>  (1606) 
ACET   PRPA

>  <FRAG_ATOM_NUM>  (1606) 
fragi: 7  fragj: 11

>  <atom.prop.CHAIN_ID>  (1606) 
A A A A A A A Z Z Z Z Z Z Z Z Z Z Z

>  <atom.prop.IS_HEAVY_ATOM>  (1606) 
1 0 0 0 1 1 1 1 0 0 0 1 0 0 1 0 0 0

>  <DIFUSE_FUNC_ATOM>  (1606) 
atom 6   atom 7   

>  <FINAL_SINGLE_POINT_ENERGY>  (1606) 
0

>  <NONCOV_INTER_ENERGY_QM>  (1606) 
0

>  <FF_Energy>  (1606) 
45.3

>  <QM_Energy>  (1606) 
4.93

>  <source>  (1606) 
ACET_PRPA_18

>  <Index>  (1606) 
14195

$$$$
ACET-pdb3p9a-B-GLU-59:PRPA-pdb3p9a-A-VAL-56
     RDKit          3D

 18 16  0  0  0  0  0  0  0  0999 V2000
    0.0070    1.5231   -0.0076 C   0  0  0  0  0  0  0  0  0  0  0  0
    0.6126    1.8126   -0.7254 H   0  0  0  0  0  0  0  0  0  0  0  0
    0.3097    1.8214    0.8783 H   0  0  0  0  0  0  0  0  0  0  0  0
   -0.9767    1.9531   -0.1967 H   0  0  0  0  0  0  0  0  0  0  0  0
    0.0000    0.0000    0.0000 C   0  0  0  0  0  0  0  0  0  0  0  0
   -1.0977   -0.6010    0.0000 O   0  0  0  0  0  1  0  0  0  0  0  0
    1.0977   -0.5973   -0.0000 O   0  0  0  0  0  0  0  0  0  0  0  0
    1.5023    2.1655   -4.9065 C   0  0  0  0  0  0  0  0  0  0  0  0
    1.1428    2.9995   -5.3602 H   0  0  0  0  0  0  0  0  0  0  0  0
    1.2646    1.3115   -5.5406 H   0  0  0  0  0  0  0  0  0  0  0  0
    2.5726    2.3039   -4.7539 H   0  0  0  0  0  0  0  0  0  0  0  0
    0.8173    2.0738   -3.5368 C   0  0  0  0  0  0  0  0  0  0  0  0
    0.9619    1.1544   -3.1851 H   0  0  0  0  0  0  0  0  0  0  0  0
   -0.2474    2.2861   -3.6340 H   0  0  0  0  0  0  0  0  0  0  0  0
    1.4693    3.0323   -2.5575 C   0  0  0  0  0  0  0  0  0  0  0  0
    1.5548    2.5923   -1.6625 H   0  0  0  0  0  0  0  0  0  0  0  0
    2.3781    3.2854   -2.8901 H   0  0  0  0  0  0  0  0  0  0  0  0
    0.9083    3.8559   -2.4693 H   0  0  0  0  0  0  0  0  0  0  0  0
  1  5  1  0
  5  6  1  0
  5  7  2  0
  1  2  1  0
  1  3  1  0
  1  4  1  0
  8 12  1  0
 12 15  1  0
  8  9  1  0
  8 10  1  0
  8 11  1  0
 12 13  1  0
 12 14  1  0
 15 16  1  0
 15 17  1  0
 15 18  1  0
M  CHG  1   6  -1
M  END
>  <PDB_ID>  (1607) 
pdb3p9a

>  <RESIDUE_NAME>  (1607) 
GLU   VAL

>  <FRAG_NAME>  (1607) 
ACET   PRPA

>  <FRAG_ATOM_NUM>  (1607) 
fragi: 7  fragj: 11

>  <atom.prop.CHAIN_ID>  (1607) 
A A A A A A A Z Z Z Z Z Z Z Z Z Z Z

>  <atom.prop.IS_HEAVY_ATOM>  (1607) 
1 0 0 0 1 1 1 1 0 0 0 1 0 0 1 0 0 0

>  <DIFUSE_FUNC_ATOM>  (1607) 
atom 6   atom 7   

>  <FINAL_SINGLE_POINT_ENERGY>  (1607) 
0

>  <NONCOV_INTER_ENERGY_QM>  (1607) 
0

>  <FF_Energy>  (1607) 
20.04

>  <QM_Energy>  (1607) 
2.27

>  <source>  (1607) 
ACET_PRPA_18

>  <Index>  (1607) 
14213

$$$$
ACET-pdb4neo-A-ASP-78:PRPA-pdb4neo-A-ARG-11
     RDKit          3D

 18 16  0  0  0  0  0  0  0  0999 V2000
    0.0196    1.5594   -0.0025 C   0  0  0  0  0  0  0  0  0  0  0  0
    0.3746    1.8562   -0.8738 H   0  0  0  0  0  0  0  0  0  0  0  0
    0.5912    1.8559    0.7437 H   0  0  0  0  0  0  0  0  0  0  0  0
   -0.9744    1.9867    0.1299 H   0  0  0  0  0  0  0  0  0  0  0  0
    0.0000    0.0000    0.0000 C   0  0  0  0  0  0  0  0  0  0  0  0
   -1.0860   -0.6394    0.0000 O   0  0  0  0  0  1  0  0  0  0  0  0
    1.0860   -0.6062    0.0000 O   0  0  0  0  0  0  0  0  0  0  0  0
   -5.2646   -2.8948    2.1307 C   0  0  0  0  0  0  0  0  0  0  0  0
   -5.1162   -2.8017    3.1032 H   0  0  0  0  0  0  0  0  0  0  0  0
   -4.9630   -3.7765    1.8028 H   0  0  0  0  0  0  0  0  0  0  0  0
   -6.3368   -2.8205    1.9487 H   0  0  0  0  0  0  0  0  0  0  0  0
   -4.4473   -1.8099    1.4122 C   0  0  0  0  0  0  0  0  0  0  0  0
   -4.9017   -1.5734    0.5443 H   0  0  0  0  0  0  0  0  0  0  0  0
   -4.4178   -0.9828    1.9876 H   0  0  0  0  0  0  0  0  0  0  0  0
   -2.9912   -2.2000    1.0846 C   0  0  0  0  0  0  0  0  0  0  0  0
   -2.5365   -1.3969    0.7406 H   0  0  0  0  0  0  0  0  0  0  0  0
   -2.5768   -2.5311    1.9151 H   0  0  0  0  0  0  0  0  0  0  0  0
   -2.9802   -2.9842    0.3277 H   0  0  0  0  0  0  0  0  0  0  0  0
  1  5  1  0
  5  6  1  0
  5  7  2  0
  1  2  1  0
  1  3  1  0
  1  4  1  0
  8 12  1  0
 12 15  1  0
  8  9  1  0
  8 10  1  0
  8 11  1  0
 12 13  1  0
 12 14  1  0
 15 16  1  0
 15 17  1  0
 15 18  1  0
M  CHG  1   6  -1
M  END
>  <PDB_ID>  (1608) 
pdb4neo

>  <RESIDUE_NAME>  (1608) 
ASP   ARG

>  <FRAG_NAME>  (1608) 
ACET   PRPA

>  <FRAG_ATOM_NUM>  (1608) 
fragi: 7  fragj: 11

>  <atom.prop.CHAIN_ID>  (1608) 
A A A A A A A Z Z Z Z Z Z Z Z Z Z Z

>  <atom.prop.IS_HEAVY_ATOM>  (1608) 
1 0 0 0 1 1 1 1 0 0 0 1 0 0 1 0 0 0

>  <DIFUSE_FUNC_ATOM>  (1608) 
atom 6   atom 7   

>  <FINAL_SINGLE_POINT_ENERGY>  (1608) 
0

>  <NONCOV_INTER_ENERGY_QM>  (1608) 
0

>  <FF_Energy>  (1608) 
29.02

>  <QM_Energy>  (1608) 
1.49

>  <source>  (1608) 
ACET_PRPA_18

>  <Index>  (1608) 
14361

$$$$
ACET-pdb3pju-A-ASP-453:PRPA-pdb3pju-A-GLN-457
     RDKit          3D

 18 16  0  0  0  0  0  0  0  0999 V2000
    0.0286    1.5352   -0.0161 C   0  0  0  0  0  0  0  0  0  0  0  0
    0.2632    1.8350   -0.9326 H   0  0  0  0  0  0  0  0  0  0  0  0
    0.7066    1.8438    0.6384 H   0  0  0  0  0  0  0  0  0  0  0  0
   -0.9272    1.9857    0.2512 H   0  0  0  0  0  0  0  0  0  0  0  0
    0.0000    0.0000    0.0000 C   0  0  0  0  0  0  0  0  0  0  0  0
   -1.0928   -0.6082   -0.0000 O   0  0  0  0  0  1  0  0  0  0  0  0
    1.0928   -0.6053    0.0000 O   0  0  0  0  0  0  0  0  0  0  0  0
   -1.4148   -2.8757    2.9076 C   0  0  0  0  0  0  0  0  0  0  0  0
   -1.8647   -3.5892    3.4599 H   0  0  0  0  0  0  0  0  0  0  0  0
   -2.0514   -2.6618    2.0491 H   0  0  0  0  0  0  0  0  0  0  0  0
   -1.2887   -1.9987    3.5425 H   0  0  0  0  0  0  0  0  0  0  0  0
   -0.0677   -3.3800    2.4002 C   0  0  0  0  0  0  0  0  0  0  0  0
    0.6558   -2.9785    2.9485 H   0  0  0  0  0  0  0  0  0  0  0  0
   -0.0470   -4.3710    2.4646 H   0  0  0  0  0  0  0  0  0  0  0  0
    0.1693   -2.9944    0.9448 C   0  0  0  0  0  0  0  0  0  0  0  0
   -0.6208   -3.2968    0.4020 H   0  0  0  0  0  0  0  0  0  0  0  0
    0.2348   -1.9932    0.8876 H   0  0  0  0  0  0  0  0  0  0  0  0
    1.0718   -3.4280    0.5141 H   0  0  0  0  0  0  0  0  0  0  0  0
  1  5  1  0
  5  6  1  0
  5  7  2  0
  1  2  1  0
  1  3  1  0
  1  4  1  0
  8 12  1  0
 12 15  1  0
  8  9  1  0
  8 10  1  0
  8 11  1  0
 12 13  1  0
 12 14  1  0
 15 16  1  0
 15 17  1  0
 15 18  1  0
M  CHG  1   6  -1
M  END
>  <PDB_ID>  (1609) 
pdb3pju

>  <RESIDUE_NAME>  (1609) 
ASP   GLN

>  <FRAG_NAME>  (1609) 
ACET   PRPA

>  <FRAG_ATOM_NUM>  (1609) 
fragi: 7  fragj: 11

>  <atom.prop.CHAIN_ID>  (1609) 
A A A A A A A Z Z Z Z Z Z Z Z Z Z Z

>  <atom.prop.IS_HEAVY_ATOM>  (1609) 
1 0 0 0 1 1 1 1 0 0 0 1 0 0 1 0 0 0

>  <DIFUSE_FUNC_ATOM>  (1609) 
atom 6   atom 7   

>  <FINAL_SINGLE_POINT_ENERGY>  (1609) 
0

>  <NONCOV_INTER_ENERGY_QM>  (1609) 
0

>  <FF_Energy>  (1609) 
30.17

>  <QM_Energy>  (1609) 
5.05

>  <source>  (1609) 
ACET_PRPA_18

>  <Index>  (1609) 
15680

$$$$
ACET-pdb4nj8-B-GLU-16:PRPA-pdb4nj8-B-LEU-21
     RDKit          3D

 18 16  0  0  0  0  0  0  0  0999 V2000
    0.1721    1.4847    0.0143 C   0  0  0  0  0  0  0  0  0  0  0  0
    0.6918    1.7404   -0.8021 H   0  0  0  0  0  0  0  0  0  0  0  0
    0.7028    1.7233    0.8301 H   0  0  0  0  0  0  0  0  0  0  0  0
   -0.7388    2.0832    0.0264 H   0  0  0  0  0  0  0  0  0  0  0  0
    0.0000    0.0000    0.0000 C   0  0  0  0  0  0  0  0  0  0  0  0
   -1.0894   -0.5585   -0.0000 O   0  0  0  0  0  1  0  0  0  0  0  0
    1.0894   -0.6075    0.0000 O   0  0  0  0  0  0  0  0  0  0  0  0
    2.9499    4.1683   -1.6783 C   0  0  0  0  0  0  0  0  0  0  0  0
    1.9678    4.1816   -1.4858 H   0  0  0  0  0  0  0  0  0  0  0  0
    3.1008    4.3425   -2.6517 H   0  0  0  0  0  0  0  0  0  0  0  0
    3.4082    4.9841   -1.1194 H   0  0  0  0  0  0  0  0  0  0  0  0
    3.4498    2.7535   -1.3866 C   0  0  0  0  0  0  0  0  0  0  0  0
    4.3916    2.6707   -1.7148 H   0  0  0  0  0  0  0  0  0  0  0  0
    3.4136    2.5481   -0.3168 H   0  0  0  0  0  0  0  0  0  0  0  0
    2.6207    1.7337   -2.1538 C   0  0  0  0  0  0  0  0  0  0  0  0
    2.6965    1.9110   -3.1355 H   0  0  0  0  0  0  0  0  0  0  0  0
    2.9567    0.8126   -1.9555 H   0  0  0  0  0  0  0  0  0  0  0  0
    1.6616    1.8047   -1.8764 H   0  0  0  0  0  0  0  0  0  0  0  0
  1  5  1  0
  5  6  1  0
  5  7  2  0
  1  2  1  0
  1  3  1  0
  1  4  1  0
  8 12  1  0
 12 15  1  0
  8  9  1  0
  8 10  1  0
  8 11  1  0
 12 13  1  0
 12 14  1  0
 15 16  1  0
 15 17  1  0
 15 18  1  0
M  CHG  1   6  -1
M  END
>  <PDB_ID>  (1610) 
pdb4nj8

>  <RESIDUE_NAME>  (1610) 
GLU   LEU

>  <FRAG_NAME>  (1610) 
ACET   PRPA

>  <FRAG_ATOM_NUM>  (1610) 
fragi: 7  fragj: 11

>  <atom.prop.CHAIN_ID>  (1610) 
A A A A A A A Z Z Z Z Z Z Z Z Z Z Z

>  <atom.prop.IS_HEAVY_ATOM>  (1610) 
1 0 0 0 1 1 1 1 0 0 0 1 0 0 1 0 0 0

>  <DIFUSE_FUNC_ATOM>  (1610) 
atom 6   atom 7   

>  <FINAL_SINGLE_POINT_ENERGY>  (1610) 
0

>  <NONCOV_INTER_ENERGY_QM>  (1610) 
0

>  <FF_Energy>  (1610) 
40.16

>  <QM_Energy>  (1610) 
3.14

>  <source>  (1610) 
ACET_PRPA_18

>  <Index>  (1610) 
16376

$$$$
ACET-pdb4nj8-B-GLU-16:PRPA-pdb4nj8-B-LEU-21
     RDKit          3D

 18 16  0  0  0  0  0  0  0  0999 V2000
    0.1721    1.4847    0.0143 C   0  0  0  0  0  0  0  0  0  0  0  0
    0.6918    1.7404   -0.8021 H   0  0  0  0  0  0  0  0  0  0  0  0
    0.7028    1.7233    0.8301 H   0  0  0  0  0  0  0  0  0  0  0  0
   -0.7388    2.0832    0.0264 H   0  0  0  0  0  0  0  0  0  0  0  0
    0.0000    0.0000    0.0000 C   0  0  0  0  0  0  0  0  0  0  0  0
   -1.0894   -0.5585   -0.0000 O   0  0  0  0  0  1  0  0  0  0  0  0
    1.0894   -0.6075    0.0000 O   0  0  0  0  0  0  0  0  0  0  0  0
    3.3997    2.4692    0.0937 C   0  0  0  0  0  0  0  0  0  0  0  0
    2.4575    2.5522    0.4256 H   0  0  0  0  0  0  0  0  0  0  0  0
    3.7293    1.5392    0.2738 H   0  0  0  0  0  0  0  0  0  0  0  0
    3.9783    3.1232    0.5861 H   0  0  0  0  0  0  0  0  0  0  0  0
    3.4498    2.7535   -1.3866 C   0  0  0  0  0  0  0  0  0  0  0  0
    4.3916    2.6707   -1.7148 H   0  0  0  0  0  0  0  0  0  0  0  0
    3.0933    3.7624   -1.5946 H   0  0  0  0  0  0  0  0  0  0  0  0
    2.6207    1.7337   -2.1538 C   0  0  0  0  0  0  0  0  0  0  0  0
    2.6965    1.9110   -3.1355 H   0  0  0  0  0  0  0  0  0  0  0  0
    2.9567    0.8126   -1.9555 H   0  0  0  0  0  0  0  0  0  0  0  0
    1.6616    1.8047   -1.8764 H   0  0  0  0  0  0  0  0  0  0  0  0
  1  5  1  0
  5  6  1  0
  5  7  2  0
  1  2  1  0
  1  3  1  0
  1  4  1  0
  8 12  1  0
 12 15  1  0
  8  9  1  0
  8 10  1  0
  8 11  1  0
 12 13  1  0
 12 14  1  0
 15 16  1  0
 15 17  1  0
 15 18  1  0
M  CHG  1   6  -1
M  END
>  <PDB_ID>  (1611) 
pdb4nj8

>  <RESIDUE_NAME>  (1611) 
GLU   LEU

>  <FRAG_NAME>  (1611) 
ACET   PRPA

>  <FRAG_ATOM_NUM>  (1611) 
fragi: 7  fragj: 11

>  <atom.prop.CHAIN_ID>  (1611) 
A A A A A A A Z Z Z Z Z Z Z Z Z Z Z

>  <atom.prop.IS_HEAVY_ATOM>  (1611) 
1 0 0 0 1 1 1 1 0 0 0 1 0 0 1 0 0 0

>  <DIFUSE_FUNC_ATOM>  (1611) 
atom 6   atom 7   

>  <FINAL_SINGLE_POINT_ENERGY>  (1611) 
0

>  <NONCOV_INTER_ENERGY_QM>  (1611) 
0

>  <FF_Energy>  (1611) 
42.16

>  <QM_Energy>  (1611) 
4.51

>  <source>  (1611) 
ACET_PRPA_18

>  <Index>  (1611) 
16379

$$$$
ACET-pdb3pnl-A-GLU-88:PRPA-pdb3pnl-A-PRO-32
     RDKit          3D

 18 16  0  0  0  0  0  0  0  0999 V2000
    0.0116    1.4638   -0.0257 C   0  0  0  0  0  0  0  0  0  0  0  0
    0.4713    1.7556   -0.8562 H   0  0  0  0  0  0  0  0  0  0  0  0
    0.5035    1.7830    0.7753 H   0  0  0  0  0  0  0  0  0  0  0  0
   -0.9897    1.8943   -0.0141 H   0  0  0  0  0  0  0  0  0  0  0  0
    0.0000    0.0000    0.0000 C   0  0  0  0  0  0  0  0  0  0  0  0
   -1.1100   -0.5699   -0.0000 O   0  0  0  0  0  1  0  0  0  0  0  0
    1.1100   -0.5773    0.0000 O   0  0  0  0  0  0  0  0  0  0  0  0
    2.8813    3.7179    2.6543 C   0  0  0  0  0  0  0  0  0  0  0  0
    2.8424    4.6201    2.2323 H   0  0  0  0  0  0  0  0  0  0  0  0
    3.6736    3.2175    2.3161 H   0  0  0  0  0  0  0  0  0  0  0  0
    2.9021    3.7955    3.7413 H   0  0  0  0  0  0  0  0  0  0  0  0
    1.6234    2.9584    2.4097 C   0  0  0  0  0  0  0  0  0  0  0  0
    0.8248    3.5439    2.5135 H   0  0  0  0  0  0  0  0  0  0  0  0
    1.6274    2.5415    1.5055 H   0  0  0  0  0  0  0  0  0  0  0  0
    1.6392    1.8842    3.4908 C   0  0  0  0  0  0  0  0  0  0  0  0
    0.7134    1.6643    3.7905 H   0  0  0  0  0  0  0  0  0  0  0  0
    2.0938    1.0560    3.1667 H   0  0  0  0  0  0  0  0  0  0  0  0
    2.2076    2.3453    4.2985 H   0  0  0  0  0  0  0  0  0  0  0  0
  1  5  1  0
  5  6  1  0
  5  7  2  0
  1  2  1  0
  1  3  1  0
  1  4  1  0
  8 12  1  0
 12 15  1  0
  8  9  1  0
  8 10  1  0
  8 11  1  0
 12 13  1  0
 12 14  1  0
 15 16  1  0
 15 17  1  0
 15 18  1  0
M  CHG  1   6  -1
M  END
>  <PDB_ID>  (1612) 
pdb3pnl

>  <RESIDUE_NAME>  (1612) 
GLU   PRO

>  <FRAG_NAME>  (1612) 
ACET   PRPA

>  <FRAG_ATOM_NUM>  (1612) 
fragi: 7  fragj: 11

>  <atom.prop.CHAIN_ID>  (1612) 
A A A A A A A Z Z Z Z Z Z Z Z Z Z Z

>  <atom.prop.IS_HEAVY_ATOM>  (1612) 
1 0 0 0 1 1 1 1 0 0 0 1 0 0 1 0 0 0

>  <DIFUSE_FUNC_ATOM>  (1612) 
atom 6   atom 7   

>  <FINAL_SINGLE_POINT_ENERGY>  (1612) 
0

>  <NONCOV_INTER_ENERGY_QM>  (1612) 
0

>  <FF_Energy>  (1612) 
23.98

>  <QM_Energy>  (1612) 
2.73

>  <source>  (1612) 
ACET_PRPA_18

>  <Index>  (1612) 
19011

$$$$
ACET-pdb4ng2-A-GLU-100:PRPA-pdb4ng2-A-LYS-97
     RDKit          3D

 18 16  0  0  0  0  0  0  0  0999 V2000
    0.1775    1.4843    0.0146 C   0  0  0  0  0  0  0  0  0  0  0  0
    0.6963    1.7390   -0.8028 H   0  0  0  0  0  0  0  0  0  0  0  0
    0.7081    1.7210    0.8299 H   0  0  0  0  0  0  0  0  0  0  0  0
   -0.7328    2.0837    0.0263 H   0  0  0  0  0  0  0  0  0  0  0  0
    0.0000    0.0000    0.0000 C   0  0  0  0  0  0  0  0  0  0  0  0
   -1.0893   -0.5570    0.0000 O   0  0  0  0  0  1  0  0  0  0  0  0
    1.0893   -0.6097   -0.0000 O   0  0  0  0  0  0  0  0  0  0  0  0
    2.3341    0.6545    1.9124 C   0  0  0  0  0  0  0  0  0  0  0  0
    1.4254    0.3960    1.5606 H   0  0  0  0  0  0  0  0  0  0  0  0
    3.0641    0.5489    1.1098 H   0  0  0  0  0  0  0  0  0  0  0  0
    2.2842    1.6793    2.2806 H   0  0  0  0  0  0  0  0  0  0  0  0
    2.6185   -0.3301    3.0560 C   0  0  0  0  0  0  0  0  0  0  0  0
    3.5265   -0.1292    3.4188 H   0  0  0  0  0  0  0  0  0  0  0  0
    1.9324   -0.1851    3.7670 H   0  0  0  0  0  0  0  0  0  0  0  0
    2.5806   -1.7952    2.6434 C   0  0  0  0  0  0  0  0  0  0  0  0
    1.6728   -2.0082    2.2816 H   0  0  0  0  0  0  0  0  0  0  0  0
    3.2676   -1.9530    1.9343 H   0  0  0  0  0  0  0  0  0  0  0  0
    2.7866   -2.4530    3.4877 H   0  0  0  0  0  0  0  0  0  0  0  0
  1  5  1  0
  5  6  1  0
  5  7  2  0
  1  2  1  0
  1  3  1  0
  1  4  1  0
  8 12  1  0
 12 15  1  0
  8  9  1  0
  8 10  1  0
  8 11  1  0
 12 13  1  0
 12 14  1  0
 15 16  1  0
 15 17  1  0
 15 18  1  0
M  CHG  1   6  -1
M  END
>  <PDB_ID>  (1613) 
pdb4ng2

>  <RESIDUE_NAME>  (1613) 
GLU   LYS

>  <FRAG_NAME>  (1613) 
ACET   PRPA

>  <FRAG_ATOM_NUM>  (1613) 
fragi: 7  fragj: 11

>  <atom.prop.CHAIN_ID>  (1613) 
A A A A A A A Z Z Z Z Z Z Z Z Z Z Z

>  <atom.prop.IS_HEAVY_ATOM>  (1613) 
1 0 0 0 1 1 1 1 0 0 0 1 0 0 1 0 0 0

>  <DIFUSE_FUNC_ATOM>  (1613) 
atom 6   atom 7   

>  <FINAL_SINGLE_POINT_ENERGY>  (1613) 
0

>  <NONCOV_INTER_ENERGY_QM>  (1613) 
0

>  <FF_Energy>  (1613) 
46.22

>  <QM_Energy>  (1613) 
10.18

>  <source>  (1613) 
ACET_PRPA_18

>  <Index>  (1613) 
19624

$$$$
ACET-pdb4ntq-B-GLU-99:PRPA-pdb4ntq-A-ILE-178
     RDKit          3D

 18 16  0  0  0  0  0  0  0  0999 V2000
    0.1728    1.4850    0.0139 C   0  0  0  0  0  0  0  0  0  0  0  0
    0.6918    1.7407   -0.8039 H   0  0  0  0  0  0  0  0  0  0  0  0
    0.7036    1.7233    0.8285 H   0  0  0  0  0  0  0  0  0  0  0  0
   -0.7380    2.0838    0.0257 H   0  0  0  0  0  0  0  0  0  0  0  0
    0.0000    0.0000    0.0000 C   0  0  0  0  0  0  0  0  0  0  0  0
   -1.0894   -0.5587   -0.0000 O   0  0  0  0  0  1  0  0  0  0  0  0
    1.0894   -0.6071   -0.0000 O   0  0  0  0  0  0  0  0  0  0  0  0
    3.4975   -4.1100   -2.4846 C   0  0  0  0  0  0  0  0  0  0  0  0
    2.8225   -3.9672   -3.2089 H   0  0  0  0  0  0  0  0  0  0  0  0
    3.7301   -5.1749   -2.4868 H   0  0  0  0  0  0  0  0  0  0  0  0
    4.3875   -3.5481   -2.7679 H   0  0  0  0  0  0  0  0  0  0  0  0
    3.0531   -3.6158   -1.1095 C   0  0  0  0  0  0  0  0  0  0  0  0
    3.8008   -3.7635   -0.4681 H   0  0  0  0  0  0  0  0  0  0  0  0
    2.1920   -4.1830   -0.7560 H   0  0  0  0  0  0  0  0  0  0  0  0
    2.7523   -2.1236   -1.1680 C   0  0  0  0  0  0  0  0  0  0  0  0
    2.5115   -1.7972   -0.2562 H   0  0  0  0  0  0  0  0  0  0  0  0
    3.5586   -1.6342   -1.4946 H   0  0  0  0  0  0  0  0  0  0  0  0
    1.9898   -1.9615   -1.7914 H   0  0  0  0  0  0  0  0  0  0  0  0
  1  5  1  0
  5  6  1  0
  5  7  2  0
  1  2  1  0
  1  3  1  0
  1  4  1  0
  8 12  1  0
 12 15  1  0
  8  9  1  0
  8 10  1  0
  8 11  1  0
 12 13  1  0
 12 14  1  0
 15 16  1  0
 15 17  1  0
 15 18  1  0
M  CHG  1   6  -1
M  END
>  <PDB_ID>  (1614) 
pdb4ntq

>  <RESIDUE_NAME>  (1614) 
GLU   ILE

>  <FRAG_NAME>  (1614) 
ACET   PRPA

>  <FRAG_ATOM_NUM>  (1614) 
fragi: 7  fragj: 11

>  <atom.prop.CHAIN_ID>  (1614) 
A A A A A A A Z Z Z Z Z Z Z Z Z Z Z

>  <atom.prop.IS_HEAVY_ATOM>  (1614) 
1 0 0 0 1 1 1 1 0 0 0 1 0 0 1 0 0 0

>  <DIFUSE_FUNC_ATOM>  (1614) 
atom 6   atom 7   

>  <FINAL_SINGLE_POINT_ENERGY>  (1614) 
0

>  <NONCOV_INTER_ENERGY_QM>  (1614) 
0

>  <FF_Energy>  (1614) 
23.75

>  <QM_Energy>  (1614) 
4.49

>  <source>  (1614) 
ACET_PRPA_18

>  <Index>  (1614) 
22036

$$$$
ACET-pdb4ntq-B-GLU-99:PRPA-pdb4ntq-A-ILE-178
     RDKit          3D

 18 16  0  0  0  0  0  0  0  0999 V2000
    0.1728    1.4850    0.0139 C   0  0  0  0  0  0  0  0  0  0  0  0
    0.6918    1.7407   -0.8039 H   0  0  0  0  0  0  0  0  0  0  0  0
    0.7036    1.7233    0.8285 H   0  0  0  0  0  0  0  0  0  0  0  0
   -0.7380    2.0838    0.0257 H   0  0  0  0  0  0  0  0  0  0  0  0
    0.0000    0.0000    0.0000 C   0  0  0  0  0  0  0  0  0  0  0  0
   -1.0894   -0.5587   -0.0000 O   0  0  0  0  0  1  0  0  0  0  0  0
    1.0894   -0.6071   -0.0000 O   0  0  0  0  0  0  0  0  0  0  0  0
    1.8454   -4.4114   -0.6137 C   0  0  0  0  0  0  0  0  0  0  0  0
    1.0794   -4.2385   -1.2243 H   0  0  0  0  0  0  0  0  0  0  0  0
    2.0748   -5.3805   -0.6442 H   0  0  0  0  0  0  0  0  0  0  0  0
    1.5520   -4.1536    0.4039 H   0  0  0  0  0  0  0  0  0  0  0  0
    3.0531   -3.6158   -1.1095 C   0  0  0  0  0  0  0  0  0  0  0  0
    3.8008   -3.7635   -0.4681 H   0  0  0  0  0  0  0  0  0  0  0  0
    3.3703   -3.9685   -2.0909 H   0  0  0  0  0  0  0  0  0  0  0  0
    2.7523   -2.1236   -1.1680 C   0  0  0  0  0  0  0  0  0  0  0  0
    2.5115   -1.7972   -0.2562 H   0  0  0  0  0  0  0  0  0  0  0  0
    3.5586   -1.6342   -1.4946 H   0  0  0  0  0  0  0  0  0  0  0  0
    1.9898   -1.9615   -1.7914 H   0  0  0  0  0  0  0  0  0  0  0  0
  1  5  1  0
  5  6  1  0
  5  7  2  0
  1  2  1  0
  1  3  1  0
  1  4  1  0
  8 12  1  0
 12 15  1  0
  8  9  1  0
  8 10  1  0
  8 11  1  0
 12 13  1  0
 12 14  1  0
 15 16  1  0
 15 17  1  0
 15 18  1  0
M  CHG  1   6  -1
M  END
>  <PDB_ID>  (1615) 
pdb4ntq

>  <RESIDUE_NAME>  (1615) 
GLU   ILE

>  <FRAG_NAME>  (1615) 
ACET   PRPA

>  <FRAG_ATOM_NUM>  (1615) 
fragi: 7  fragj: 11

>  <atom.prop.CHAIN_ID>  (1615) 
A A A A A A A Z Z Z Z Z Z Z Z Z Z Z

>  <atom.prop.IS_HEAVY_ATOM>  (1615) 
1 0 0 0 1 1 1 1 0 0 0 1 0 0 1 0 0 0

>  <DIFUSE_FUNC_ATOM>  (1615) 
atom 6   atom 7   

>  <FINAL_SINGLE_POINT_ENERGY>  (1615) 
0

>  <NONCOV_INTER_ENERGY_QM>  (1615) 
0

>  <FF_Energy>  (1615) 
24.01

>  <QM_Energy>  (1615) 
4.51

>  <source>  (1615) 
ACET_PRPA_18

>  <Index>  (1615) 
22043

$$$$
ACET-pdb3pwz-A-ASP-74:PRPA-pdb3pwz-A-ARG-95
     RDKit          3D

 18 16  0  0  0  0  0  0  0  0999 V2000
   -0.0097    1.5101   -0.0250 C   0  0  0  0  0  0  0  0  0  0  0  0
    0.9100    1.8351   -0.2123 H   0  0  0  0  0  0  0  0  0  0  0  0
   -0.3276    1.8455    0.8535 H   0  0  0  0  0  0  0  0  0  0  0  0
   -0.6697    1.9082   -0.7957 H   0  0  0  0  0  0  0  0  0  0  0  0
    0.0000    0.0000    0.0000 C   0  0  0  0  0  0  0  0  0  0  0  0
   -1.0965   -0.5975   -0.0000 O   0  0  0  0  0  1  0  0  0  0  0  0
    1.0965   -0.5930    0.0000 O   0  0  0  0  0  0  0  0  0  0  0  0
    4.4824   -0.6733    0.9864 C   0  0  0  0  0  0  0  0  0  0  0  0
    4.2129   -1.6503    1.0223 H   0  0  0  0  0  0  0  0  0  0  0  0
    5.3338   -0.5195    1.6494 H   0  0  0  0  0  0  0  0  0  0  0  0
    4.7048   -0.4172   -0.0494 H   0  0  0  0  0  0  0  0  0  0  0  0
    3.2813    0.1282    1.4791 C   0  0  0  0  0  0  0  0  0  0  0  0
    2.5121   -0.0525    0.8686 H   0  0  0  0  0  0  0  0  0  0  0  0
    3.0568   -0.1779    2.4023 H   0  0  0  0  0  0  0  0  0  0  0  0
    3.4991    1.6336    1.5254 C   0  0  0  0  0  0  0  0  0  0  0  0
    4.3629    1.8579    1.0834 H   0  0  0  0  0  0  0  0  0  0  0  0
    2.7466    2.0917    1.0609 H   0  0  0  0  0  0  0  0  0  0  0  0
    3.5367    1.9959    2.5527 H   0  0  0  0  0  0  0  0  0  0  0  0
  1  5  1  0
  5  6  1  0
  5  7  2  0
  1  2  1  0
  1  3  1  0
  1  4  1  0
  8 12  1  0
 12 15  1  0
  8  9  1  0
  8 10  1  0
  8 11  1  0
 12 13  1  0
 12 14  1  0
 15 16  1  0
 15 17  1  0
 15 18  1  0
M  CHG  1   6  -1
M  END
>  <PDB_ID>  (1616) 
pdb3pwz

>  <RESIDUE_NAME>  (1616) 
ASP   ARG

>  <FRAG_NAME>  (1616) 
ACET   PRPA

>  <FRAG_ATOM_NUM>  (1616) 
fragi: 7  fragj: 11

>  <atom.prop.CHAIN_ID>  (1616) 
A A A A A A A Z Z Z Z Z Z Z Z Z Z Z

>  <atom.prop.IS_HEAVY_ATOM>  (1616) 
1 0 0 0 1 1 1 1 0 0 0 1 0 0 1 0 0 0

>  <DIFUSE_FUNC_ATOM>  (1616) 
atom 6   atom 7   

>  <FINAL_SINGLE_POINT_ENERGY>  (1616) 
0

>  <NONCOV_INTER_ENERGY_QM>  (1616) 
0

>  <FF_Energy>  (1616) 
46.54

>  <QM_Energy>  (1616) 
0.82

>  <source>  (1616) 
ACET_PRPA_18

>  <Index>  (1616) 
22737

$$$$
ACET-pdb3pwz-A-ASP-74:PRPA-pdb3pwz-A-ARG-95
     RDKit          3D

 18 16  0  0  0  0  0  0  0  0999 V2000
   -0.0097    1.5101   -0.0250 C   0  0  0  0  0  0  0  0  0  0  0  0
    0.9100    1.8351   -0.2123 H   0  0  0  0  0  0  0  0  0  0  0  0
   -0.3276    1.8455    0.8535 H   0  0  0  0  0  0  0  0  0  0  0  0
   -0.6697    1.9082   -0.7957 H   0  0  0  0  0  0  0  0  0  0  0  0
    0.0000    0.0000    0.0000 C   0  0  0  0  0  0  0  0  0  0  0  0
   -1.0965   -0.5975   -0.0000 O   0  0  0  0  0  1  0  0  0  0  0  0
    1.0965   -0.5930    0.0000 O   0  0  0  0  0  0  0  0  0  0  0  0
    3.2813    0.1282    1.4791 C   0  0  0  0  0  0  0  0  0  0  0  0
    2.5121   -0.0525    0.8686 H   0  0  0  0  0  0  0  0  0  0  0  0
    3.0568   -0.1779    2.4023 H   0  0  0  0  0  0  0  0  0  0  0  0
    4.1393   -0.4444    1.1271 H   0  0  0  0  0  0  0  0  0  0  0  0
    3.4991    1.6336    1.5254 C   0  0  0  0  0  0  0  0  0  0  0  0
    4.3629    1.8579    1.0834 H   0  0  0  0  0  0  0  0  0  0  0  0
    2.7466    2.0917    1.0609 H   0  0  0  0  0  0  0  0  0  0  0  0
    3.5514    2.1385    2.9567 C   0  0  0  0  0  0  0  0  0  0  0  0
    2.8053    1.7173    3.4625 H   0  0  0  0  0  0  0  0  0  0  0  0
    4.4270    1.8715    3.3473 H   0  0  0  0  0  0  0  0  0  0  0  0
    3.4514    3.2229    3.0035 H   0  0  0  0  0  0  0  0  0  0  0  0
  1  5  1  0
  5  6  1  0
  5  7  2  0
  1  2  1  0
  1  3  1  0
  1  4  1  0
  8 12  1  0
 12 15  1  0
  8  9  1  0
  8 10  1  0
  8 11  1  0
 12 13  1  0
 12 14  1  0
 15 16  1  0
 15 17  1  0
 15 18  1  0
M  CHG  1   6  -1
M  END
>  <PDB_ID>  (1617) 
pdb3pwz

>  <RESIDUE_NAME>  (1617) 
ASP   ARG

>  <FRAG_NAME>  (1617) 
ACET   PRPA

>  <FRAG_ATOM_NUM>  (1617) 
fragi: 7  fragj: 11

>  <atom.prop.CHAIN_ID>  (1617) 
A A A A A A A Z Z Z Z Z Z Z Z Z Z Z

>  <atom.prop.IS_HEAVY_ATOM>  (1617) 
1 0 0 0 1 1 1 1 0 0 0 1 0 0 1 0 0 0

>  <DIFUSE_FUNC_ATOM>  (1617) 
atom 6   atom 7   

>  <FINAL_SINGLE_POINT_ENERGY>  (1617) 
0

>  <NONCOV_INTER_ENERGY_QM>  (1617) 
0

>  <FF_Energy>  (1617) 
39.67

>  <QM_Energy>  (1617) 
1.48

>  <source>  (1617) 
ACET_PRPA_18

>  <Index>  (1617) 
22742

$$$$
ACET-pdb4nu8-X-ASP-134:PRPA-pdb4nu8-X-ARG-137
     RDKit          3D

 18 16  0  0  0  0  0  0  0  0999 V2000
   -0.0006    1.5256    0.0134 C   0  0  0  0  0  0  0  0  0  0  0  0
    0.5532    1.8482   -0.7442 H   0  0  0  0  0  0  0  0  0  0  0  0
    0.3724    1.8349    0.8788 H   0  0  0  0  0  0  0  0  0  0  0  0
   -1.0006    1.9456   -0.0945 H   0  0  0  0  0  0  0  0  0  0  0  0
    0.0000    0.0000    0.0000 C   0  0  0  0  0  0  0  0  0  0  0  0
   -1.0972   -0.6003    0.0000 O   0  0  0  0  0  1  0  0  0  0  0  0
    1.0972   -0.6002   -0.0000 O   0  0  0  0  0  0  0  0  0  0  0  0
   -0.1292   -0.4858    4.3763 C   0  0  0  0  0  0  0  0  0  0  0  0
    0.1391   -1.3905    4.7511 H   0  0  0  0  0  0  0  0  0  0  0  0
   -1.0224   -0.6125    3.7646 H   0  0  0  0  0  0  0  0  0  0  0  0
   -0.2773    0.2013    5.2094 H   0  0  0  0  0  0  0  0  0  0  0  0
    1.0428    0.0063    3.5207 C   0  0  0  0  0  0  0  0  0  0  0  0
    0.7882    0.8903    3.1248 H   0  0  0  0  0  0  0  0  0  0  0  0
    1.8352    0.1306    4.1209 H   0  0  0  0  0  0  0  0  0  0  0  0
    1.4587   -0.9152    2.3820 C   0  0  0  0  0  0  0  0  0  0  0  0
    1.7248   -1.8013    2.7637 H   0  0  0  0  0  0  0  0  0  0  0  0
    0.6783   -1.0409    1.7670 H   0  0  0  0  0  0  0  0  0  0  0  0
    2.2946   -0.5066    1.8142 H   0  0  0  0  0  0  0  0  0  0  0  0
  1  5  1  0
  5  6  1  0
  5  7  2  0
  1  2  1  0
  1  3  1  0
  1  4  1  0
  8 12  1  0
 12 15  1  0
  8  9  1  0
  8 10  1  0
  8 11  1  0
 12 13  1  0
 12 14  1  0
 15 16  1  0
 15 17  1  0
 15 18  1  0
M  CHG  1   6  -1
M  END
>  <PDB_ID>  (1618) 
pdb4nu8

>  <RESIDUE_NAME>  (1618) 
ASP   ARG

>  <FRAG_NAME>  (1618) 
ACET   PRPA

>  <FRAG_ATOM_NUM>  (1618) 
fragi: 7  fragj: 11

>  <atom.prop.CHAIN_ID>  (1618) 
A A A A A A A Z Z Z Z Z Z Z Z Z Z Z

>  <atom.prop.IS_HEAVY_ATOM>  (1618) 
1 0 0 0 1 1 1 1 0 0 0 1 0 0 1 0 0 0

>  <DIFUSE_FUNC_ATOM>  (1618) 
atom 6   atom 7   

>  <FINAL_SINGLE_POINT_ENERGY>  (1618) 
0

>  <NONCOV_INTER_ENERGY_QM>  (1618) 
0

>  <FF_Energy>  (1618) 
40.69

>  <QM_Energy>  (1618) 
10.38

>  <source>  (1618) 
ACET_PRPA_18

>  <Index>  (1618) 
23669

$$$$
ACET-pdb4nzk-A-GLU-122:PRPA-pdb4nzk-A-LYS-126
     RDKit          3D

 18 16  0  0  0  0  0  0  0  0999 V2000
    0.0231    1.5227   -0.0628 C   0  0  0  0  0  0  0  0  0  0  0  0
    0.3955    1.7762   -0.9399 H   0  0  0  0  0  0  0  0  0  0  0  0
    0.5890    1.8404    0.6805 H   0  0  0  0  0  0  0  0  0  0  0  0
   -0.9595    1.9840    0.0353 H   0  0  0  0  0  0  0  0  0  0  0  0
    0.0000    0.0000    0.0000 C   0  0  0  0  0  0  0  0  0  0  0  0
   -1.1087   -0.5963   -0.0000 O   0  0  0  0  0  1  0  0  0  0  0  0
    1.1087   -0.6056   -0.0000 O   0  0  0  0  0  0  0  0  0  0  0  0
    2.8283    0.9939    3.3552 C   0  0  0  0  0  0  0  0  0  0  0  0
    1.9213    1.2865    3.0518 H   0  0  0  0  0  0  0  0  0  0  0  0
    3.5222    1.3688    2.7413 H   0  0  0  0  0  0  0  0  0  0  0  0
    3.0041    1.3673    4.3640 H   0  0  0  0  0  0  0  0  0  0  0  0
    2.8977   -0.5136    3.3178 C   0  0  0  0  0  0  0  0  0  0  0  0
    3.7602   -0.8123    3.7074 H   0  0  0  0  0  0  0  0  0  0  0  0
    2.1332   -0.8910    3.8257 H   0  0  0  0  0  0  0  0  0  0  0  0
    2.8176   -1.0216    1.8828 C   0  0  0  0  0  0  0  0  0  0  0  0
    1.8467   -1.0390    1.6028 H   0  0  0  0  0  0  0  0  0  0  0  0
    3.2999   -0.3671    1.2822 H   0  0  0  0  0  0  0  0  0  0  0  0
    3.2480   -2.0143    1.7510 H   0  0  0  0  0  0  0  0  0  0  0  0
  1  5  1  0
  5  6  1  0
  5  7  2  0
  1  2  1  0
  1  3  1  0
  1  4  1  0
  8 12  1  0
 12 15  1  0
  8  9  1  0
  8 10  1  0
  8 11  1  0
 12 13  1  0
 12 14  1  0
 15 16  1  0
 15 17  1  0
 15 18  1  0
M  CHG  1   6  -1
M  END
>  <PDB_ID>  (1619) 
pdb4nzk

>  <RESIDUE_NAME>  (1619) 
GLU   LYS

>  <FRAG_NAME>  (1619) 
ACET   PRPA

>  <FRAG_ATOM_NUM>  (1619) 
fragi: 7  fragj: 11

>  <atom.prop.CHAIN_ID>  (1619) 
A A A A A A A Z Z Z Z Z Z Z Z Z Z Z

>  <atom.prop.IS_HEAVY_ATOM>  (1619) 
1 0 0 0 1 1 1 1 0 0 0 1 0 0 1 0 0 0

>  <DIFUSE_FUNC_ATOM>  (1619) 
atom 6   atom 7   

>  <FINAL_SINGLE_POINT_ENERGY>  (1619) 
0

>  <NONCOV_INTER_ENERGY_QM>  (1619) 
0

>  <FF_Energy>  (1619) 
29.02

>  <QM_Energy>  (1619) 
4.6

>  <source>  (1619) 
ACET_PRPA_18

>  <Index>  (1619) 
24376

$$$$
ACET-pdb3q5u-A-GLU-139:PRPA-pdb3q5u-A-ARG-101
     RDKit          3D

 18 16  0  0  0  0  0  0  0  0999 V2000
    0.0013    1.5126   -0.0033 C   0  0  0  0  0  0  0  0  0  0  0  0
    0.6747    1.8108   -0.6529 H   0  0  0  0  0  0  0  0  0  0  0  0
    0.1999    1.8136    0.9099 H   0  0  0  0  0  0  0  0  0  0  0  0
   -0.9622    1.9284   -0.2978 H   0  0  0  0  0  0  0  0  0  0  0  0
    0.0000    0.0000    0.0000 C   0  0  0  0  0  0  0  0  0  0  0  0
   -1.0994   -0.5989    0.0000 O   0  0  0  0  0  1  0  0  0  0  0  0
    1.0994   -0.5929    0.0000 O   0  0  0  0  0  0  0  0  0  0  0  0
   -4.3260   -1.9214    0.0545 C   0  0  0  0  0  0  0  0  0  0  0  0
   -4.5835   -1.0818   -0.4155 H   0  0  0  0  0  0  0  0  0  0  0  0
   -3.6250   -1.7326    0.7352 H   0  0  0  0  0  0  0  0  0  0  0  0
   -5.2058   -2.3081    0.5689 H   0  0  0  0  0  0  0  0  0  0  0  0
   -3.7482   -2.8772   -0.9671 C   0  0  0  0  0  0  0  0  0  0  0  0
   -4.0835   -3.7915   -0.7953 H   0  0  0  0  0  0  0  0  0  0  0  0
   -3.9854   -2.5736   -1.8788 H   0  0  0  0  0  0  0  0  0  0  0  0
   -2.2416   -2.8891   -0.8444 C   0  0  0  0  0  0  0  0  0  0  0  0
   -1.8550   -2.6110   -1.7228 H   0  0  0  0  0  0  0  0  0  0  0  0
   -1.9824   -2.2299   -0.1389 H   0  0  0  0  0  0  0  0  0  0  0  0
   -1.8583   -3.8739   -0.5771 H   0  0  0  0  0  0  0  0  0  0  0  0
  1  5  1  0
  5  6  1  0
  5  7  2  0
  1  2  1  0
  1  3  1  0
  1  4  1  0
  8 12  1  0
 12 15  1  0
  8  9  1  0
  8 10  1  0
  8 11  1  0
 12 13  1  0
 12 14  1  0
 15 16  1  0
 15 17  1  0
 15 18  1  0
M  CHG  1   6  -1
M  END
>  <PDB_ID>  (1620) 
pdb3q5u

>  <RESIDUE_NAME>  (1620) 
GLU   ARG

>  <FRAG_NAME>  (1620) 
ACET   PRPA

>  <FRAG_ATOM_NUM>  (1620) 
fragi: 7  fragj: 11

>  <atom.prop.CHAIN_ID>  (1620) 
A A A A A A A Z Z Z Z Z Z Z Z Z Z Z

>  <atom.prop.IS_HEAVY_ATOM>  (1620) 
1 0 0 0 1 1 1 1 0 0 0 1 0 0 1 0 0 0

>  <DIFUSE_FUNC_ATOM>  (1620) 
atom 6   atom 7   

>  <FINAL_SINGLE_POINT_ENERGY>  (1620) 
0

>  <NONCOV_INTER_ENERGY_QM>  (1620) 
0

>  <FF_Energy>  (1620) 
20.03

>  <QM_Energy>  (1620) 
1.13

>  <source>  (1620) 
ACET_PRPA_18

>  <Index>  (1620) 
26814

$$$$
ACET-pdb3q48-A-GLU-165:PRPA-pdb3q48-A-VAL-174
     RDKit          3D

 18 16  0  0  0  0  0  0  0  0999 V2000
    0.1835    1.4870    0.0156 C   0  0  0  0  0  0  0  0  0  0  0  0
    0.7014    1.7386   -0.8010 H   0  0  0  0  0  0  0  0  0  0  0  0
    0.7137    1.7195    0.8312 H   0  0  0  0  0  0  0  0  0  0  0  0
   -0.7270    2.0861    0.0290 H   0  0  0  0  0  0  0  0  0  0  0  0
    0.0000    0.0000    0.0000 C   0  0  0  0  0  0  0  0  0  0  0  0
   -1.0890   -0.5539   -0.0000 O   0  0  0  0  0  1  0  0  0  0  0  0
    1.0890   -0.6108    0.0000 O   0  0  0  0  0  0  0  0  0  0  0  0
   -2.1976    1.9397    3.8625 C   0  0  0  0  0  0  0  0  0  0  0  0
   -2.4716    1.2795    4.5695 H   0  0  0  0  0  0  0  0  0  0  0  0
   -3.0325    2.0455    3.1698 H   0  0  0  0  0  0  0  0  0  0  0  0
   -1.9654    2.8857    4.3515 H   0  0  0  0  0  0  0  0  0  0  0  0
   -0.9813    1.3211    3.0941 C   0  0  0  0  0  0  0  0  0  0  0  0
   -0.7263    1.9689    2.3796 H   0  0  0  0  0  0  0  0  0  0  0  0
   -0.1136    1.1932    3.7414 H   0  0  0  0  0  0  0  0  0  0  0  0
   -1.3531    0.0184    2.4184 C   0  0  0  0  0  0  0  0  0  0  0  0
   -1.6772   -0.6341    3.1045 H   0  0  0  0  0  0  0  0  0  0  0  0
   -2.0778    0.1850    1.7476 H   0  0  0  0  0  0  0  0  0  0  0  0
   -0.5498   -0.3576    1.9536 H   0  0  0  0  0  0  0  0  0  0  0  0
  1  5  1  0
  5  6  1  0
  5  7  2  0
  1  2  1  0
  1  3  1  0
  1  4  1  0
  8 12  1  0
 12 15  1  0
  8  9  1  0
  8 10  1  0
  8 11  1  0
 12 13  1  0
 12 14  1  0
 15 16  1  0
 15 17  1  0
 15 18  1  0
M  CHG  1   6  -1
M  END
>  <PDB_ID>  (1621) 
pdb3q48

>  <RESIDUE_NAME>  (1621) 
GLU   VAL

>  <FRAG_NAME>  (1621) 
ACET   PRPA

>  <FRAG_ATOM_NUM>  (1621) 
fragi: 7  fragj: 11

>  <atom.prop.CHAIN_ID>  (1621) 
A A A A A A A Z Z Z Z Z Z Z Z Z Z Z

>  <atom.prop.IS_HEAVY_ATOM>  (1621) 
1 0 0 0 1 1 1 1 0 0 0 1 0 0 1 0 0 0

>  <DIFUSE_FUNC_ATOM>  (1621) 
atom 6   atom 7   

>  <FINAL_SINGLE_POINT_ENERGY>  (1621) 
0

>  <NONCOV_INTER_ENERGY_QM>  (1621) 
0

>  <FF_Energy>  (1621) 
36.82

>  <QM_Energy>  (1621) 
9.35

>  <source>  (1621) 
ACET_PRPA_18

>  <Index>  (1621) 
26938

$$$$
ACET-pdb3q48-A-GLU-165:PRPA-pdb3q48-A-VAL-174
     RDKit          3D

 18 16  0  0  0  0  0  0  0  0999 V2000
    0.1835    1.4870    0.0156 C   0  0  0  0  0  0  0  0  0  0  0  0
    0.7014    1.7386   -0.8010 H   0  0  0  0  0  0  0  0  0  0  0  0
    0.7137    1.7195    0.8312 H   0  0  0  0  0  0  0  0  0  0  0  0
   -0.7270    2.0861    0.0290 H   0  0  0  0  0  0  0  0  0  0  0  0
    0.0000    0.0000    0.0000 C   0  0  0  0  0  0  0  0  0  0  0  0
   -1.0890   -0.5539   -0.0000 O   0  0  0  0  0  1  0  0  0  0  0  0
    1.0890   -0.6108    0.0000 O   0  0  0  0  0  0  0  0  0  0  0  0
    0.2311    1.1425    3.9986 C   0  0  0  0  0  0  0  0  0  0  0  0
    0.5955    0.2176    3.8898 H   0  0  0  0  0  0  0  0  0  0  0  0
    0.9340    1.8085    3.7497 H   0  0  0  0  0  0  0  0  0  0  0  0
   -0.0384    1.2832    4.9506 H   0  0  0  0  0  0  0  0  0  0  0  0
   -0.9813    1.3211    3.0941 C   0  0  0  0  0  0  0  0  0  0  0  0
   -0.7263    1.9689    2.3796 H   0  0  0  0  0  0  0  0  0  0  0  0
   -1.8279    1.7517    3.6289 H   0  0  0  0  0  0  0  0  0  0  0  0
   -1.3531    0.0184    2.4184 C   0  0  0  0  0  0  0  0  0  0  0  0
   -1.6772   -0.6341    3.1045 H   0  0  0  0  0  0  0  0  0  0  0  0
   -2.0778    0.1850    1.7476 H   0  0  0  0  0  0  0  0  0  0  0  0
   -0.5498   -0.3576    1.9536 H   0  0  0  0  0  0  0  0  0  0  0  0
  1  5  1  0
  5  6  1  0
  5  7  2  0
  1  2  1  0
  1  3  1  0
  1  4  1  0
  8 12  1  0
 12 15  1  0
  8  9  1  0
  8 10  1  0
  8 11  1  0
 12 13  1  0
 12 14  1  0
 15 16  1  0
 15 17  1  0
 15 18  1  0
M  CHG  1   6  -1
M  END
>  <PDB_ID>  (1622) 
pdb3q48

>  <RESIDUE_NAME>  (1622) 
GLU   VAL

>  <FRAG_NAME>  (1622) 
ACET   PRPA

>  <FRAG_ATOM_NUM>  (1622) 
fragi: 7  fragj: 11

>  <atom.prop.CHAIN_ID>  (1622) 
A A A A A A A Z Z Z Z Z Z Z Z Z Z Z

>  <atom.prop.IS_HEAVY_ATOM>  (1622) 
1 0 0 0 1 1 1 1 0 0 0 1 0 0 1 0 0 0

>  <DIFUSE_FUNC_ATOM>  (1622) 
atom 6   atom 7   

>  <FINAL_SINGLE_POINT_ENERGY>  (1622) 
0

>  <NONCOV_INTER_ENERGY_QM>  (1622) 
0

>  <FF_Energy>  (1622) 
36.87

>  <QM_Energy>  (1622) 
9.28

>  <source>  (1622) 
ACET_PRPA_18

>  <Index>  (1622) 
26944

$$$$
ACET-pdb3q87-A-ASP-83:PRPA-pdb3q87-A-LYS-87
     RDKit          3D

 18 16  0  0  0  0  0  0  0  0999 V2000
    0.0003    1.5132    0.0181 C   0  0  0  0  0  0  0  0  0  0  0  0
    0.9394    1.8324    0.0627 H   0  0  0  0  0  0  0  0  0  0  0  0
   -0.5121    1.8242    0.8100 H   0  0  0  0  0  0  0  0  0  0  0  0
   -0.4599    1.9410   -0.8726 H   0  0  0  0  0  0  0  0  0  0  0  0
    0.0000    0.0000    0.0000 C   0  0  0  0  0  0  0  0  0  0  0  0
   -1.0945   -0.6008   -0.0000 O   0  0  0  0  0  1  0  0  0  0  0  0
    1.0945   -0.5933    0.0000 O   0  0  0  0  0  0  0  0  0  0  0  0
    4.1771    0.3184   -1.4255 C   0  0  0  0  0  0  0  0  0  0  0  0
    4.9148    0.0751   -0.8174 H   0  0  0  0  0  0  0  0  0  0  0  0
    3.3875    0.6426   -0.9304 H   0  0  0  0  0  0  0  0  0  0  0  0
    4.5149    1.0865   -2.1211 H   0  0  0  0  0  0  0  0  0  0  0  0
    3.7762   -0.9222   -2.2325 C   0  0  0  0  0  0  0  0  0  0  0  0
    3.1631   -0.6336   -2.9706 H   0  0  0  0  0  0  0  0  0  0  0  0
    4.6043   -1.3228   -2.6286 H   0  0  0  0  0  0  0  0  0  0  0  0
    3.0736   -1.9803   -1.4015 C   0  0  0  0  0  0  0  0  0  0  0  0
    2.4646   -1.5232   -0.7400 H   0  0  0  0  0  0  0  0  0  0  0  0
    2.5049   -2.5486   -2.0104 H   0  0  0  0  0  0  0  0  0  0  0  0
    3.7677   -2.6236   -0.8608 H   0  0  0  0  0  0  0  0  0  0  0  0
  1  5  1  0
  5  6  1  0
  5  7  2  0
  1  2  1  0
  1  3  1  0
  1  4  1  0
  8 12  1  0
 12 15  1  0
  8  9  1  0
  8 10  1  0
  8 11  1  0
 12 13  1  0
 12 14  1  0
 15 16  1  0
 15 17  1  0
 15 18  1  0
M  CHG  1   6  -1
M  END
>  <PDB_ID>  (1623) 
pdb3q87

>  <RESIDUE_NAME>  (1623) 
ASP   LYS

>  <FRAG_NAME>  (1623) 
ACET   PRPA

>  <FRAG_ATOM_NUM>  (1623) 
fragi: 7  fragj: 11

>  <atom.prop.CHAIN_ID>  (1623) 
A A A A A A A Z Z Z Z Z Z Z Z Z Z Z

>  <atom.prop.IS_HEAVY_ATOM>  (1623) 
1 0 0 0 1 1 1 1 0 0 0 1 0 0 1 0 0 0

>  <DIFUSE_FUNC_ATOM>  (1623) 
atom 6   atom 7   

>  <FINAL_SINGLE_POINT_ENERGY>  (1623) 
0

>  <NONCOV_INTER_ENERGY_QM>  (1623) 
0

>  <FF_Energy>  (1623) 
24.85

>  <QM_Energy>  (1623) 
-1.29

>  <source>  (1623) 
ACET_PRPA_18

>  <Index>  (1623) 
27095

$$$$
ACET-pdb3qcp-A-GLU-136:PRPA-pdb3qcp-A-ARG-133
     RDKit          3D

 18 16  0  0  0  0  0  0  0  0999 V2000
    0.0015    1.5081   -0.0015 C   0  0  0  0  0  0  0  0  0  0  0  0
    0.9319    1.8062   -0.1233 H   0  0  0  0  0  0  0  0  0  0  0  0
   -0.3714    1.8079    0.8590 H   0  0  0  0  0  0  0  0  0  0  0  0
   -0.6023    1.9308   -0.8045 H   0  0  0  0  0  0  0  0  0  0  0  0
    0.0000    0.0000    0.0000 C   0  0  0  0  0  0  0  0  0  0  0  0
   -1.1010   -0.5931    0.0000 O   0  0  0  0  0  1  0  0  0  0  0  0
    1.1010   -0.5908   -0.0000 O   0  0  0  0  0  0  0  0  0  0  0  0
    0.3436    1.7755    3.2393 C   0  0  0  0  0  0  0  0  0  0  0  0
    0.0405    1.5054    2.3363 H   0  0  0  0  0  0  0  0  0  0  0  0
    1.2994    1.5547    3.3755 H   0  0  0  0  0  0  0  0  0  0  0  0
    0.2229    2.8546    3.3344 H   0  0  0  0  0  0  0  0  0  0  0  0
   -0.4712    1.0043    4.2631 C   0  0  0  0  0  0  0  0  0  0  0  0
   -1.4273    1.2804    4.2050 H   0  0  0  0  0  0  0  0  0  0  0  0
   -0.3889    0.0266    4.0865 H   0  0  0  0  0  0  0  0  0  0  0  0
    0.0120    1.2697    5.6828 C   0  0  0  0  0  0  0  0  0  0  0  0
    0.8138    1.8436    5.6330 H   0  0  0  0  0  0  0  0  0  0  0  0
   -0.7195    1.7089    6.1786 H   0  0  0  0  0  0  0  0  0  0  0  0
    0.2667    0.3265    6.1660 H   0  0  0  0  0  0  0  0  0  0  0  0
  1  5  1  0
  5  6  1  0
  5  7  2  0
  1  2  1  0
  1  3  1  0
  1  4  1  0
  8 12  1  0
 12 15  1  0
  8  9  1  0
  8 10  1  0
  8 11  1  0
 12 13  1  0
 12 14  1  0
 15 16  1  0
 15 17  1  0
 15 18  1  0
M  CHG  1   6  -1
M  END
>  <PDB_ID>  (1624) 
pdb3qcp

>  <RESIDUE_NAME>  (1624) 
GLU   ARG

>  <FRAG_NAME>  (1624) 
ACET   PRPA

>  <FRAG_ATOM_NUM>  (1624) 
fragi: 7  fragj: 11

>  <atom.prop.CHAIN_ID>  (1624) 
A A A A A A A Z Z Z Z Z Z Z Z Z Z Z

>  <atom.prop.IS_HEAVY_ATOM>  (1624) 
1 0 0 0 1 1 1 1 0 0 0 1 0 0 1 0 0 0

>  <DIFUSE_FUNC_ATOM>  (1624) 
atom 6   atom 7   

>  <FINAL_SINGLE_POINT_ENERGY>  (1624) 
0

>  <NONCOV_INTER_ENERGY_QM>  (1624) 
0

>  <FF_Energy>  (1624) 
17.96

>  <QM_Energy>  (1624) 
2.28

>  <source>  (1624) 
ACET_PRPA_18

>  <Index>  (1624) 
29290

$$$$
ACET-pdb3qac-A-GLU-31:PRPA-pdb3qac-A-VAL-245
     RDKit          3D

 18 16  0  0  0  0  0  0  0  0999 V2000
   -0.0141    1.5010   -0.0253 C   0  0  0  0  0  0  0  0  0  0  0  0
    0.9146    1.8099   -0.0217 H   0  0  0  0  0  0  0  0  0  0  0  0
   -0.5225    1.8103    0.7520 H   0  0  0  0  0  0  0  0  0  0  0  0
   -0.4990    1.8731   -0.9278 H   0  0  0  0  0  0  0  0  0  0  0  0
    0.0000    0.0000    0.0000 C   0  0  0  0  0  0  0  0  0  0  0  0
   -1.1025   -0.5903   -0.0000 O   0  0  0  0  0  1  0  0  0  0  0  0
    1.1025   -0.5888   -0.0000 O   0  0  0  0  0  0  0  0  0  0  0  0
    2.5730    0.7951    2.0110 C   0  0  0  0  0  0  0  0  0  0  0  0
    1.9649    1.0293    1.2310 H   0  0  0  0  0  0  0  0  0  0  0  0
    3.4173    1.4844    2.0033 H   0  0  0  0  0  0  0  0  0  0  0  0
    1.9776    0.8534    2.9222 H   0  0  0  0  0  0  0  0  0  0  0  0
    3.0566   -0.6467    1.8420 C   0  0  0  0  0  0  0  0  0  0  0  0
    2.2557   -1.2254    1.7256 H   0  0  0  0  0  0  0  0  0  0  0  0
    3.6273   -0.9500    2.7196 H   0  0  0  0  0  0  0  0  0  0  0  0
    3.8843   -0.7742    0.5786 C   0  0  0  0  0  0  0  0  0  0  0  0
    4.4040    0.0687    0.4296 H   0  0  0  0  0  0  0  0  0  0  0  0
    4.5199   -1.5416    0.6678 H   0  0  0  0  0  0  0  0  0  0  0  0
    3.2818   -0.9347   -0.2045 H   0  0  0  0  0  0  0  0  0  0  0  0
  1  5  1  0
  5  6  1  0
  5  7  2  0
  1  2  1  0
  1  3  1  0
  1  4  1  0
  8 12  1  0
 12 15  1  0
  8  9  1  0
  8 10  1  0
  8 11  1  0
 12 13  1  0
 12 14  1  0
 15 16  1  0
 15 17  1  0
 15 18  1  0
M  CHG  1   6  -1
M  END
>  <PDB_ID>  (1625) 
pdb3qac

>  <RESIDUE_NAME>  (1625) 
GLU   VAL

>  <FRAG_NAME>  (1625) 
ACET   PRPA

>  <FRAG_ATOM_NUM>  (1625) 
fragi: 7  fragj: 11

>  <atom.prop.CHAIN_ID>  (1625) 
A A A A A A A Z Z Z Z Z Z Z Z Z Z Z

>  <atom.prop.IS_HEAVY_ATOM>  (1625) 
1 0 0 0 1 1 1 1 0 0 0 1 0 0 1 0 0 0

>  <DIFUSE_FUNC_ATOM>  (1625) 
atom 6   atom 7   

>  <FINAL_SINGLE_POINT_ENERGY>  (1625) 
0

>  <NONCOV_INTER_ENERGY_QM>  (1625) 
0

>  <FF_Energy>  (1625) 
18.03

>  <QM_Energy>  (1625) 
0.05

>  <source>  (1625) 
ACET_PRPA_18

>  <Index>  (1625) 
29645

$$$$
ACET-pdb3pqd-B-GLU-297:PRPA-pdb3pqd-B-LYS-294
     RDKit          3D

 18 16  0  0  0  0  0  0  0  0999 V2000
    0.0135    1.5182    0.0058 C   0  0  0  0  0  0  0  0  0  0  0  0
    0.9224    1.8080   -0.2333 H   0  0  0  0  0  0  0  0  0  0  0  0
   -0.2443    1.8131    0.9079 H   0  0  0  0  0  0  0  0  0  0  0  0
   -0.6830    1.9549   -0.7099 H   0  0  0  0  0  0  0  0  0  0  0  0
    0.0000    0.0000    0.0000 C   0  0  0  0  0  0  0  0  0  0  0  0
   -1.0992   -0.6044    0.0000 O   0  0  0  0  0  1  0  0  0  0  0  0
    1.0992   -0.5892    0.0000 O   0  0  0  0  0  0  0  0  0  0  0  0
    2.6047   -1.8702   -2.9604 C   0  0  0  0  0  0  0  0  0  0  0  0
    2.1267   -2.7281   -3.1201 H   0  0  0  0  0  0  0  0  0  0  0  0
    3.4093   -1.8109   -3.5429 H   0  0  0  0  0  0  0  0  0  0  0  0
    1.9336   -1.0523   -3.2226 H   0  0  0  0  0  0  0  0  0  0  0  0
    3.0611   -1.8390   -1.5055 C   0  0  0  0  0  0  0  0  0  0  0  0
    3.7460   -1.1103   -1.3952 H   0  0  0  0  0  0  0  0  0  0  0  0
    2.2715   -1.6260   -0.9197 H   0  0  0  0  0  0  0  0  0  0  0  0
    3.6722   -3.1576   -1.0416 C   0  0  0  0  0  0  0  0  0  0  0  0
    3.0109   -3.8832   -1.1761 H   0  0  0  0  0  0  0  0  0  0  0  0
    4.4996   -3.3295   -1.5589 H   0  0  0  0  0  0  0  0  0  0  0  0
    3.9291   -3.1151    0.0169 H   0  0  0  0  0  0  0  0  0  0  0  0
  1  5  1  0
  5  6  1  0
  5  7  2  0
  1  2  1  0
  1  3  1  0
  1  4  1  0
  8 12  1  0
 12 15  1  0
  8  9  1  0
  8 10  1  0
  8 11  1  0
 12 13  1  0
 12 14  1  0
 15 16  1  0
 15 17  1  0
 15 18  1  0
M  CHG  1   6  -1
M  END
>  <PDB_ID>  (1626) 
pdb3pqd

>  <RESIDUE_NAME>  (1626) 
GLU   LYS

>  <FRAG_NAME>  (1626) 
ACET   PRPA

>  <FRAG_ATOM_NUM>  (1626) 
fragi: 7  fragj: 11

>  <atom.prop.CHAIN_ID>  (1626) 
A A A A A A A Z Z Z Z Z Z Z Z Z Z Z

>  <atom.prop.IS_HEAVY_ATOM>  (1626) 
1 0 0 0 1 1 1 1 0 0 0 1 0 0 1 0 0 0

>  <DIFUSE_FUNC_ATOM>  (1626) 
atom 6   atom 7   

>  <FINAL_SINGLE_POINT_ENERGY>  (1626) 
0

>  <NONCOV_INTER_ENERGY_QM>  (1626) 
0

>  <FF_Energy>  (1626) 
28.31

>  <QM_Energy>  (1626) 
0.16

>  <source>  (1626) 
ACET_PRPA_18

>  <Index>  (1626) 
31462

$$$$
ACET-pdb3pqd-B-GLU-297:PRPA-pdb3pqd-B-LYS-294
     RDKit          3D

 18 16  0  0  0  0  0  0  0  0999 V2000
    0.0135    1.5182    0.0058 C   0  0  0  0  0  0  0  0  0  0  0  0
    0.9224    1.8080   -0.2333 H   0  0  0  0  0  0  0  0  0  0  0  0
   -0.2443    1.8131    0.9079 H   0  0  0  0  0  0  0  0  0  0  0  0
   -0.6830    1.9549   -0.7099 H   0  0  0  0  0  0  0  0  0  0  0  0
    0.0000    0.0000    0.0000 C   0  0  0  0  0  0  0  0  0  0  0  0
   -1.0992   -0.6044    0.0000 O   0  0  0  0  0  1  0  0  0  0  0  0
    1.0992   -0.5892    0.0000 O   0  0  0  0  0  0  0  0  0  0  0  0
    3.0611   -1.8390   -1.5055 C   0  0  0  0  0  0  0  0  0  0  0  0
    3.7460   -1.1103   -1.3952 H   0  0  0  0  0  0  0  0  0  0  0  0
    2.2715   -1.6260   -0.9197 H   0  0  0  0  0  0  0  0  0  0  0  0
    2.7349   -1.8613   -2.5453 H   0  0  0  0  0  0  0  0  0  0  0  0
    3.6722   -3.1576   -1.0416 C   0  0  0  0  0  0  0  0  0  0  0  0
    3.0109   -3.8832   -1.1761 H   0  0  0  0  0  0  0  0  0  0  0  0
    4.4996   -3.3295   -1.5589 H   0  0  0  0  0  0  0  0  0  0  0  0
    4.0327   -3.0979    0.4436 C   0  0  0  0  0  0  0  0  0  0  0  0
    4.6299   -2.3012    0.5996 H   0  0  0  0  0  0  0  0  0  0  0  0
    3.1870   -2.9651    0.9763 H   0  0  0  0  0  0  0  0  0  0  0  0
    4.5383   -3.9949    0.8013 H   0  0  0  0  0  0  0  0  0  0  0  0
  1  5  1  0
  5  6  1  0
  5  7  2  0
  1  2  1  0
  1  3  1  0
  1  4  1  0
  8 12  1  0
 12 15  1  0
  8  9  1  0
  8 10  1  0
  8 11  1  0
 12 13  1  0
 12 14  1  0
 15 16  1  0
 15 17  1  0
 15 18  1  0
M  CHG  1   6  -1
M  END
>  <PDB_ID>  (1627) 
pdb3pqd

>  <RESIDUE_NAME>  (1627) 
GLU   LYS

>  <FRAG_NAME>  (1627) 
ACET   PRPA

>  <FRAG_ATOM_NUM>  (1627) 
fragi: 7  fragj: 11

>  <atom.prop.CHAIN_ID>  (1627) 
A A A A A A A Z Z Z Z Z Z Z Z Z Z Z

>  <atom.prop.IS_HEAVY_ATOM>  (1627) 
1 0 0 0 1 1 1 1 0 0 0 1 0 0 1 0 0 0

>  <DIFUSE_FUNC_ATOM>  (1627) 
atom 6   atom 7   

>  <FINAL_SINGLE_POINT_ENERGY>  (1627) 
0

>  <NONCOV_INTER_ENERGY_QM>  (1627) 
0

>  <FF_Energy>  (1627) 
24.61

>  <QM_Energy>  (1627) 
0.01

>  <source>  (1627) 
ACET_PRPA_18

>  <Index>  (1627) 
31463

$$$$
ACET-pdb3qkc-A-GLU-35:PRPA-pdb3qkc-A-PRO-30
     RDKit          3D

 18 16  0  0  0  0  0  0  0  0999 V2000
    0.0329    1.5338   -0.0093 C   0  0  0  0  0  0  0  0  0  0  0  0
    0.4419    1.8110   -0.8630 H   0  0  0  0  0  0  0  0  0  0  0  0
    0.5755    1.8177    0.7641 H   0  0  0  0  0  0  0  0  0  0  0  0
   -0.9487    2.0015    0.0683 H   0  0  0  0  0  0  0  0  0  0  0  0
    0.0000    0.0000    0.0000 C   0  0  0  0  0  0  0  0  0  0  0  0
   -1.0909   -0.6046   -0.0000 O   0  0  0  0  0  1  0  0  0  0  0  0
    1.0909   -0.6101    0.0000 O   0  0  0  0  0  0  0  0  0  0  0  0
   -2.3780   -1.0743    2.3730 C   0  0  0  0  0  0  0  0  0  0  0  0
   -1.8749   -1.2052    1.4826 H   0  0  0  0  0  0  0  0  0  0  0  0
   -1.7258   -0.5942    3.1026 H   0  0  0  0  0  0  0  0  0  0  0  0
   -3.3392   -0.5947    2.1878 H   0  0  0  0  0  0  0  0  0  0  0  0
   -2.5505   -2.4796    2.9579 C   0  0  0  0  0  0  0  0  0  0  0  0
   -3.2769   -2.5035    3.6334 H   0  0  0  0  0  0  0  0  0  0  0  0
   -2.7101   -3.1515    2.2464 H   0  0  0  0  0  0  0  0  0  0  0  0
   -1.1955   -2.7447    3.6350 C   0  0  0  0  0  0  0  0  0  0  0  0
   -1.3425   -3.2251    4.5086 H   0  0  0  0  0  0  0  0  0  0  0  0
   -0.6323   -3.3350    3.0428 H   0  0  0  0  0  0  0  0  0  0  0  0
   -0.7072   -1.7842    3.7995 H   0  0  0  0  0  0  0  0  0  0  0  0
  1  5  1  0
  5  6  1  0
  5  7  2  0
  1  2  1  0
  1  3  1  0
  1  4  1  0
  8 12  1  0
 12 15  1  0
  8  9  1  0
  8 10  1  0
  8 11  1  0
 12 13  1  0
 12 14  1  0
 15 16  1  0
 15 17  1  0
 15 18  1  0
M  CHG  1   6  -1
M  END
>  <PDB_ID>  (1628) 
pdb3qkc

>  <RESIDUE_NAME>  (1628) 
GLU   PRO

>  <FRAG_NAME>  (1628) 
ACET   PRPA

>  <FRAG_ATOM_NUM>  (1628) 
fragi: 7  fragj: 11

>  <atom.prop.CHAIN_ID>  (1628) 
A A A A A A A Z Z Z Z Z Z Z Z Z Z Z

>  <atom.prop.IS_HEAVY_ATOM>  (1628) 
1 0 0 0 1 1 1 1 0 0 0 1 0 0 1 0 0 0

>  <DIFUSE_FUNC_ATOM>  (1628) 
atom 6   atom 7   

>  <FINAL_SINGLE_POINT_ENERGY>  (1628) 
0

>  <NONCOV_INTER_ENERGY_QM>  (1628) 
0

>  <FF_Energy>  (1628) 
31.54

>  <QM_Energy>  (1628) 
1.44

>  <source>  (1628) 
ACET_PRPA_18

>  <Index>  (1628) 
31678

$$$$
ACET-pdb3qkx-A-GLU-23:PRPA-pdb3qkx-A-LEU-19
     RDKit          3D

 18 16  0  0  0  0  0  0  0  0999 V2000
   -0.0018    1.5202    0.0271 C   0  0  0  0  0  0  0  0  0  0  0  0
    0.9139    1.8194    0.2131 H   0  0  0  0  0  0  0  0  0  0  0  0
   -0.6403    1.8082    0.7146 H   0  0  0  0  0  0  0  0  0  0  0  0
   -0.3095    1.9621   -0.9206 H   0  0  0  0  0  0  0  0  0  0  0  0
    0.0000    0.0000    0.0000 C   0  0  0  0  0  0  0  0  0  0  0  0
   -1.0963   -0.6128    0.0000 O   0  0  0  0  0  1  0  0  0  0  0  0
    1.0963   -0.5847   -0.0000 O   0  0  0  0  0  0  0  0  0  0  0  0
   -5.5749   -0.1666   -0.2789 C   0  0  0  0  0  0  0  0  0  0  0  0
   -6.2280   -0.6222    0.3333 H   0  0  0  0  0  0  0  0  0  0  0  0
   -5.9306   -0.1995   -1.2160 H   0  0  0  0  0  0  0  0  0  0  0  0
   -5.5311    0.8819    0.0156 H   0  0  0  0  0  0  0  0  0  0  0  0
   -4.2781   -0.9887   -0.2532 C   0  0  0  0  0  0  0  0  0  0  0  0
   -3.9142   -0.9796    0.6800 H   0  0  0  0  0  0  0  0  0  0  0  0
   -4.4627   -2.0154   -0.5692 H   0  0  0  0  0  0  0  0  0  0  0  0
   -3.2731   -0.3100   -1.1822 C   0  0  0  0  0  0  0  0  0  0  0  0
   -3.1003    0.6206   -0.8599 H   0  0  0  0  0  0  0  0  0  0  0  0
   -2.4185   -0.8279   -1.1817 H   0  0  0  0  0  0  0  0  0  0  0  0
   -3.6457   -0.2792   -2.1088 H   0  0  0  0  0  0  0  0  0  0  0  0
  1  5  1  0
  5  6  1  0
  5  7  2  0
  1  2  1  0
  1  3  1  0
  1  4  1  0
  8 12  1  0
 12 15  1  0
  8  9  1  0
  8 10  1  0
  8 11  1  0
 12 13  1  0
 12 14  1  0
 15 16  1  0
 15 17  1  0
 15 18  1  0
M  CHG  1   6  -1
M  END
>  <PDB_ID>  (1629) 
pdb3qkx

>  <RESIDUE_NAME>  (1629) 
GLU   LEU

>  <FRAG_NAME>  (1629) 
ACET   PRPA

>  <FRAG_ATOM_NUM>  (1629) 
fragi: 7  fragj: 11

>  <atom.prop.CHAIN_ID>  (1629) 
A A A A A A A Z Z Z Z Z Z Z Z Z Z Z

>  <atom.prop.IS_HEAVY_ATOM>  (1629) 
1 0 0 0 1 1 1 1 0 0 0 1 0 0 1 0 0 0

>  <DIFUSE_FUNC_ATOM>  (1629) 
atom 6   atom 7   

>  <FINAL_SINGLE_POINT_ENERGY>  (1629) 
0

>  <NONCOV_INTER_ENERGY_QM>  (1629) 
0

>  <FF_Energy>  (1629) 
38.96

>  <QM_Energy>  (1629) 
6.45

>  <source>  (1629) 
ACET_PRPA_18

>  <Index>  (1629) 
31879

$$$$
ACET-pdb3qkx-A-GLU-23:PRPA-pdb3qkx-A-LEU-19
     RDKit          3D

 18 16  0  0  0  0  0  0  0  0999 V2000
   -0.0018    1.5202    0.0271 C   0  0  0  0  0  0  0  0  0  0  0  0
    0.9139    1.8194    0.2131 H   0  0  0  0  0  0  0  0  0  0  0  0
   -0.6403    1.8082    0.7146 H   0  0  0  0  0  0  0  0  0  0  0  0
   -0.3095    1.9621   -0.9206 H   0  0  0  0  0  0  0  0  0  0  0  0
    0.0000    0.0000    0.0000 C   0  0  0  0  0  0  0  0  0  0  0  0
   -1.0963   -0.6128    0.0000 O   0  0  0  0  0  1  0  0  0  0  0  0
    1.0963   -0.5847   -0.0000 O   0  0  0  0  0  0  0  0  0  0  0  0
   -4.5330   -2.4068   -0.6896 C   0  0  0  0  0  0  0  0  0  0  0  0
   -4.8986   -2.4172   -1.6235 H   0  0  0  0  0  0  0  0  0  0  0  0
   -3.6781   -2.9306   -0.6670 H   0  0  0  0  0  0  0  0  0  0  0  0
   -5.1970   -2.8405   -0.0749 H   0  0  0  0  0  0  0  0  0  0  0  0
   -4.2781   -0.9887   -0.2532 C   0  0  0  0  0  0  0  0  0  0  0  0
   -3.9142   -0.9796    0.6800 H   0  0  0  0  0  0  0  0  0  0  0  0
   -5.1986   -0.4052   -0.2715 H   0  0  0  0  0  0  0  0  0  0  0  0
   -3.2731   -0.3100   -1.1822 C   0  0  0  0  0  0  0  0  0  0  0  0
   -3.1003    0.6206   -0.8599 H   0  0  0  0  0  0  0  0  0  0  0  0
   -2.4185   -0.8279   -1.1817 H   0  0  0  0  0  0  0  0  0  0  0  0
   -3.6457   -0.2792   -2.1088 H   0  0  0  0  0  0  0  0  0  0  0  0
  1  5  1  0
  5  6  1  0
  5  7  2  0
  1  2  1  0
  1  3  1  0
  1  4  1  0
  8 12  1  0
 12 15  1  0
  8  9  1  0
  8 10  1  0
  8 11  1  0
 12 13  1  0
 12 14  1  0
 15 16  1  0
 15 17  1  0
 15 18  1  0
M  CHG  1   6  -1
M  END
>  <PDB_ID>  (1630) 
pdb3qkx

>  <RESIDUE_NAME>  (1630) 
GLU   LEU

>  <FRAG_NAME>  (1630) 
ACET   PRPA

>  <FRAG_ATOM_NUM>  (1630) 
fragi: 7  fragj: 11

>  <atom.prop.CHAIN_ID>  (1630) 
A A A A A A A Z Z Z Z Z Z Z Z Z Z Z

>  <atom.prop.IS_HEAVY_ATOM>  (1630) 
1 0 0 0 1 1 1 1 0 0 0 1 0 0 1 0 0 0

>  <DIFUSE_FUNC_ATOM>  (1630) 
atom 6   atom 7   

>  <FINAL_SINGLE_POINT_ENERGY>  (1630) 
0

>  <NONCOV_INTER_ENERGY_QM>  (1630) 
0

>  <FF_Energy>  (1630) 
39.23

>  <QM_Energy>  (1630) 
5.84

>  <source>  (1630) 
ACET_PRPA_18

>  <Index>  (1630) 
31882

$$$$
ACET-pdb4ohq-A-GLU-134:PRPA-pdb4ohq-A-LYS-131
     RDKit          3D

 18 16  0  0  0  0  0  0  0  0999 V2000
    0.0173    1.5119    0.0086 C   0  0  0  0  0  0  0  0  0  0  0  0
    0.8538    1.8038   -0.4342 H   0  0  0  0  0  0  0  0  0  0  0  0
   -0.0047    1.8044    0.9549 H   0  0  0  0  0  0  0  0  0  0  0  0
   -0.8215    1.9741   -0.5119 H   0  0  0  0  0  0  0  0  0  0  0  0
    0.0000    0.0000    0.0000 C   0  0  0  0  0  0  0  0  0  0  0  0
   -1.1070   -0.6067   -0.0000 O   0  0  0  0  0  1  0  0  0  0  0  0
    1.1070   -0.5852    0.0000 O   0  0  0  0  0  0  0  0  0  0  0  0
   -2.8511   -0.1911    2.9464 C   0  0  0  0  0  0  0  0  0  0  0  0
   -2.2903    0.6384    2.9279 H   0  0  0  0  0  0  0  0  0  0  0  0
   -3.2006   -0.3314    3.8744 H   0  0  0  0  0  0  0  0  0  0  0  0
   -3.7042   -0.0358    2.2858 H   0  0  0  0  0  0  0  0  0  0  0  0
   -1.9667   -1.3751    2.5838 C   0  0  0  0  0  0  0  0  0  0  0  0
   -2.5193   -2.2113    2.6041 H   0  0  0  0  0  0  0  0  0  0  0  0
   -1.6083   -1.2408    1.6576 H   0  0  0  0  0  0  0  0  0  0  0  0
   -0.8066   -1.5268    3.5456 C   0  0  0  0  0  0  0  0  0  0  0  0
   -0.2577   -0.6882    3.5241 H   0  0  0  0  0  0  0  0  0  0  0  0
   -1.1681   -1.6594    4.4704 H   0  0  0  0  0  0  0  0  0  0  0  0
   -0.1619   -2.3706    3.2995 H   0  0  0  0  0  0  0  0  0  0  0  0
  1  5  1  0
  5  6  1  0
  5  7  2  0
  1  2  1  0
  1  3  1  0
  1  4  1  0
  8 12  1  0
 12 15  1  0
  8  9  1  0
  8 10  1  0
  8 11  1  0
 12 13  1  0
 12 14  1  0
 15 16  1  0
 15 17  1  0
 15 18  1  0
M  CHG  1   6  -1
M  END
>  <PDB_ID>  (1631) 
pdb4ohq

>  <RESIDUE_NAME>  (1631) 
GLU   LYS

>  <FRAG_NAME>  (1631) 
ACET   PRPA

>  <FRAG_ATOM_NUM>  (1631) 
fragi: 7  fragj: 11

>  <atom.prop.CHAIN_ID>  (1631) 
A A A A A A A Z Z Z Z Z Z Z Z Z Z Z

>  <atom.prop.IS_HEAVY_ATOM>  (1631) 
1 0 0 0 1 1 1 1 0 0 0 1 0 0 1 0 0 0

>  <DIFUSE_FUNC_ATOM>  (1631) 
atom 6   atom 7   

>  <FINAL_SINGLE_POINT_ENERGY>  (1631) 
0

>  <NONCOV_INTER_ENERGY_QM>  (1631) 
0

>  <FF_Energy>  (1631) 
23.39

>  <QM_Energy>  (1631) 
-1.08

>  <source>  (1631) 
ACET_PRPA_18

>  <Index>  (1631) 
33981

$$$$
ACET-pdb4ohq-A-GLU-134:PRPA-pdb4ohq-A-LYS-131
     RDKit          3D

 18 16  0  0  0  0  0  0  0  0999 V2000
    0.0173    1.5119    0.0086 C   0  0  0  0  0  0  0  0  0  0  0  0
    0.8538    1.8038   -0.4342 H   0  0  0  0  0  0  0  0  0  0  0  0
   -0.0047    1.8044    0.9549 H   0  0  0  0  0  0  0  0  0  0  0  0
   -0.8215    1.9741   -0.5119 H   0  0  0  0  0  0  0  0  0  0  0  0
    0.0000    0.0000    0.0000 C   0  0  0  0  0  0  0  0  0  0  0  0
   -1.1070   -0.6067   -0.0000 O   0  0  0  0  0  1  0  0  0  0  0  0
    1.1070   -0.5852    0.0000 O   0  0  0  0  0  0  0  0  0  0  0  0
   -1.9667   -1.3751    2.5838 C   0  0  0  0  0  0  0  0  0  0  0  0
   -2.5193   -2.2113    2.6041 H   0  0  0  0  0  0  0  0  0  0  0  0
   -1.6083   -1.2408    1.6576 H   0  0  0  0  0  0  0  0  0  0  0  0
   -2.6002   -0.5270    2.8436 H   0  0  0  0  0  0  0  0  0  0  0  0
   -0.8066   -1.5268    3.5456 C   0  0  0  0  0  0  0  0  0  0  0  0
   -0.2577   -0.6882    3.5241 H   0  0  0  0  0  0  0  0  0  0  0  0
   -1.1681   -1.6594    4.4704 H   0  0  0  0  0  0  0  0  0  0  0  0
    0.0870   -2.6964    3.2045 C   0  0  0  0  0  0  0  0  0  0  0  0
   -0.4520   -3.5394    3.2300 H   0  0  0  0  0  0  0  0  0  0  0  0
    0.4584   -2.5695    2.2835 H   0  0  0  0  0  0  0  0  0  0  0  0
    0.9099   -2.7757    3.9150 H   0  0  0  0  0  0  0  0  0  0  0  0
  1  5  1  0
  5  6  1  0
  5  7  2  0
  1  2  1  0
  1  3  1  0
  1  4  1  0
  8 12  1  0
 12 15  1  0
  8  9  1  0
  8 10  1  0
  8 11  1  0
 12 13  1  0
 12 14  1  0
 15 16  1  0
 15 17  1  0
 15 18  1  0
M  CHG  1   6  -1
M  END
>  <PDB_ID>  (1632) 
pdb4ohq

>  <RESIDUE_NAME>  (1632) 
GLU   LYS

>  <FRAG_NAME>  (1632) 
ACET   PRPA

>  <FRAG_ATOM_NUM>  (1632) 
fragi: 7  fragj: 11

>  <atom.prop.CHAIN_ID>  (1632) 
A A A A A A A Z Z Z Z Z Z Z Z Z Z Z

>  <atom.prop.IS_HEAVY_ATOM>  (1632) 
1 0 0 0 1 1 1 1 0 0 0 1 0 0 1 0 0 0

>  <DIFUSE_FUNC_ATOM>  (1632) 
atom 6   atom 7   

>  <FINAL_SINGLE_POINT_ENERGY>  (1632) 
0

>  <NONCOV_INTER_ENERGY_QM>  (1632) 
0

>  <FF_Energy>  (1632) 
19.96

>  <QM_Energy>  (1632) 
-1.65

>  <source>  (1632) 
ACET_PRPA_18

>  <Index>  (1632) 
33982

$$$$
ACET-pdb3qo6-A-GLU-348:PRPA-pdb3qo6-A-GLN-345
     RDKit          3D

 18 16  0  0  0  0  0  0  0  0999 V2000
    0.0038    1.5201   -0.0041 C   0  0  0  0  0  0  0  0  0  0  0  0
   -0.4912    1.8171    0.7876 H   0  0  0  0  0  0  0  0  0  0  0  0
   -0.4097    1.8115   -0.8435 H   0  0  0  0  0  0  0  0  0  0  0  0
    1.0155    1.9225    0.0464 H   0  0  0  0  0  0  0  0  0  0  0  0
    0.0000    0.0000    0.0000 C   0  0  0  0  0  0  0  0  0  0  0  0
   -1.1040   -0.5947    0.0000 O   0  0  0  0  0  1  0  0  0  0  0  0
    1.1040   -0.5949   -0.0000 O   0  0  0  0  0  0  0  0  0  0  0  0
   -1.9381    0.1941   -2.5564 C   0  0  0  0  0  0  0  0  0  0  0  0
   -1.7138    0.1871   -1.5636 H   0  0  0  0  0  0  0  0  0  0  0  0
   -2.8757    0.7341   -2.6883 H   0  0  0  0  0  0  0  0  0  0  0  0
   -1.0941    0.6485   -3.0754 H   0  0  0  0  0  0  0  0  0  0  0  0
   -2.1096   -1.2753   -2.9688 C   0  0  0  0  0  0  0  0  0  0  0  0
   -2.9974   -1.5986   -2.6501 H   0  0  0  0  0  0  0  0  0  0  0  0
   -2.0627   -1.3390   -3.9646 H   0  0  0  0  0  0  0  0  0  0  0  0
   -1.0333   -2.2067   -2.3871 C   0  0  0  0  0  0  0  0  0  0  0  0
   -0.1822   -2.0638   -2.8979 H   0  0  0  0  0  0  0  0  0  0  0  0
   -0.8858   -1.9574   -1.4277 H   0  0  0  0  0  0  0  0  0  0  0  0
   -1.2907   -3.2648   -2.4346 H   0  0  0  0  0  0  0  0  0  0  0  0
  1  5  1  0
  5  6  1  0
  5  7  2  0
  1  2  1  0
  1  3  1  0
  1  4  1  0
  8 12  1  0
 12 15  1  0
  8  9  1  0
  8 10  1  0
  8 11  1  0
 12 13  1  0
 12 14  1  0
 15 16  1  0
 15 17  1  0
 15 18  1  0
M  CHG  1   6  -1
M  END
>  <PDB_ID>  (1633) 
pdb3qo6

>  <RESIDUE_NAME>  (1633) 
GLU   GLN

>  <FRAG_NAME>  (1633) 
ACET   PRPA

>  <FRAG_ATOM_NUM>  (1633) 
fragi: 7  fragj: 11

>  <atom.prop.CHAIN_ID>  (1633) 
A A A A A A A Z Z Z Z Z Z Z Z Z Z Z

>  <atom.prop.IS_HEAVY_ATOM>  (1633) 
1 0 0 0 1 1 1 1 0 0 0 1 0 0 1 0 0 0

>  <DIFUSE_FUNC_ATOM>  (1633) 
atom 6   atom 7   

>  <FINAL_SINGLE_POINT_ENERGY>  (1633) 
0

>  <NONCOV_INTER_ENERGY_QM>  (1633) 
0

>  <FF_Energy>  (1633) 
32.46

>  <QM_Energy>  (1633) 
1.15

>  <source>  (1633) 
ACET_PRPA_18

>  <Index>  (1633) 
39140

$$$$
ACET-pdb3qxf-A-GLU-107:PRPA-pdb3qxf-A-LYS-101
     RDKit          3D

 18 16  0  0  0  0  0  0  0  0999 V2000
   -0.0019    1.5190   -0.0833 C   0  0  0  0  0  0  0  0  0  0  0  0
    0.1810    1.8624    0.8166 H   0  0  0  0  0  0  0  0  0  0  0  0
   -0.8802    1.7929   -0.4215 H   0  0  0  0  0  0  0  0  0  0  0  0
    0.7657    1.8924   -0.7612 H   0  0  0  0  0  0  0  0  0  0  0  0
    0.0000    0.0000    0.0000 C   0  0  0  0  0  0  0  0  0  0  0  0
   -1.0951   -0.5954    0.0000 O   0  0  0  0  0  1  0  0  0  0  0  0
    1.0951   -0.5970    0.0000 O   0  0  0  0  0  0  0  0  0  0  0  0
   -1.3225    1.9853    3.3571 C   0  0  0  0  0  0  0  0  0  0  0  0
   -2.0192    2.6997    3.2967 H   0  0  0  0  0  0  0  0  0  0  0  0
   -0.5125    2.2630    2.8429 H   0  0  0  0  0  0  0  0  0  0  0  0
   -1.0513    1.8377    4.4024 H   0  0  0  0  0  0  0  0  0  0  0  0
   -1.8784    0.7057    2.7435 C   0  0  0  0  0  0  0  0  0  0  0  0
   -1.1222    0.0977    2.5271 H   0  0  0  0  0  0  0  0  0  0  0  0
   -2.4946    0.2769    3.3949 H   0  0  0  0  0  0  0  0  0  0  0  0
   -2.6534    0.9902    1.4590 C   0  0  0  0  0  0  0  0  0  0  0  0
   -2.4226    1.9178    1.1392 H   0  0  0  0  0  0  0  0  0  0  0  0
   -2.3643    0.3327    0.7509 H   0  0  0  0  0  0  0  0  0  0  0  0
   -3.7343    0.9200    1.5811 H   0  0  0  0  0  0  0  0  0  0  0  0
  1  5  1  0
  5  6  1  0
  5  7  2  0
  1  2  1  0
  1  3  1  0
  1  4  1  0
  8 12  1  0
 12 15  1  0
  8  9  1  0
  8 10  1  0
  8 11  1  0
 12 13  1  0
 12 14  1  0
 15 16  1  0
 15 17  1  0
 15 18  1  0
M  CHG  1   6  -1
M  END
>  <PDB_ID>  (1634) 
pdb3qxf

>  <RESIDUE_NAME>  (1634) 
GLU   LYS

>  <FRAG_NAME>  (1634) 
ACET   PRPA

>  <FRAG_ATOM_NUM>  (1634) 
fragi: 7  fragj: 11

>  <atom.prop.CHAIN_ID>  (1634) 
A A A A A A A Z Z Z Z Z Z Z Z Z Z Z

>  <atom.prop.IS_HEAVY_ATOM>  (1634) 
1 0 0 0 1 1 1 1 0 0 0 1 0 0 1 0 0 0

>  <DIFUSE_FUNC_ATOM>  (1634) 
atom 6   atom 7   

>  <FINAL_SINGLE_POINT_ENERGY>  (1634) 
0

>  <NONCOV_INTER_ENERGY_QM>  (1634) 
0

>  <FF_Energy>  (1634) 
46.66

>  <QM_Energy>  (1634) 
3.05

>  <source>  (1634) 
ACET_PRPA_19

>  <Index>  (1634) 
2401

$$$$
ACET-pdb3r1j-A-ASP-203:PRPA-pdb3r1j-A-ARG-97
     RDKit          3D

 18 16  0  0  0  0  0  0  0  0999 V2000
   -0.0001    1.5088    0.0857 C   0  0  0  0  0  0  0  0  0  0  0  0
   -0.5139    1.8737   -0.6802 H   0  0  0  0  0  0  0  0  0  0  0  0
    0.9364    1.8321    0.0679 H   0  0  0  0  0  0  0  0  0  0  0  0
   -0.4638    1.8660    1.0053 H   0  0  0  0  0  0  0  0  0  0  0  0
    0.0000    0.0000    0.0000 C   0  0  0  0  0  0  0  0  0  0  0  0
   -1.1055   -0.5740    0.0000 O   0  0  0  0  0  1  0  0  0  0  0  0
    1.1055   -0.5757   -0.0000 O   0  0  0  0  0  0  0  0  0  0  0  0
    0.3097    0.3206   -3.3558 C   0  0  0  0  0  0  0  0  0  0  0  0
    1.1664    0.6765   -2.9678 H   0  0  0  0  0  0  0  0  0  0  0  0
   -0.4417    0.5301   -2.7220 H   0  0  0  0  0  0  0  0  0  0  0  0
    0.1191    0.8415   -4.2941 H   0  0  0  0  0  0  0  0  0  0  0  0
    0.4334   -1.1947   -3.4426 C   0  0  0  0  0  0  0  0  0  0  0  0
   -0.4187   -1.5669   -3.8177 H   0  0  0  0  0  0  0  0  0  0  0  0
    1.1889   -1.4210   -4.0627 H   0  0  0  0  0  0  0  0  0  0  0  0
    0.6925   -1.8133   -2.1182 C   0  0  0  0  0  0  0  0  0  0  0  0
    1.5443   -1.4404   -1.7468 H   0  0  0  0  0  0  0  0  0  0  0  0
   -0.0638   -1.5850   -1.5011 H   0  0  0  0  0  0  0  0  0  0  0  0
    0.7813   -2.8979   -2.1796 H   0  0  0  0  0  0  0  0  0  0  0  0
  1  5  1  0
  5  6  1  0
  5  7  2  0
  1  2  1  0
  1  3  1  0
  1  4  1  0
  8 12  1  0
 12 15  1  0
  8  9  1  0
  8 10  1  0
  8 11  1  0
 12 13  1  0
 12 14  1  0
 15 16  1  0
 15 17  1  0
 15 18  1  0
M  CHG  1   6  -1
M  END
>  <PDB_ID>  (1635) 
pdb3r1j

>  <RESIDUE_NAME>  (1635) 
ASP   ARG

>  <FRAG_NAME>  (1635) 
ACET   PRPA

>  <FRAG_ATOM_NUM>  (1635) 
fragi: 7  fragj: 11

>  <atom.prop.CHAIN_ID>  (1635) 
A A A A A A A Z Z Z Z Z Z Z Z Z Z Z

>  <atom.prop.IS_HEAVY_ATOM>  (1635) 
1 0 0 0 1 1 1 1 0 0 0 1 0 0 1 0 0 0

>  <DIFUSE_FUNC_ATOM>  (1635) 
atom 6   atom 7   

>  <FINAL_SINGLE_POINT_ENERGY>  (1635) 
0

>  <NONCOV_INTER_ENERGY_QM>  (1635) 
0

>  <FF_Energy>  (1635) 
32.59

>  <QM_Energy>  (1635) 
6.89

>  <source>  (1635) 
ACET_PRPA_19

>  <Index>  (1635) 
2865

$$$$
ACET-pdb4oaf-D-ASP-222:PRPA-pdb4oaf-D-PRO-219
     RDKit          3D

 18 16  0  0  0  0  0  0  0  0999 V2000
    0.0068    1.5190    0.0066 C   0  0  0  0  0  0  0  0  0  0  0  0
    0.8242    1.8368   -0.4599 H   0  0  0  0  0  0  0  0  0  0  0  0
   -0.0034    1.8346    0.9473 H   0  0  0  0  0  0  0  0  0  0  0  0
   -0.8573    1.9476   -0.5012 H   0  0  0  0  0  0  0  0  0  0  0  0
    0.0000    0.0000    0.0000 C   0  0  0  0  0  0  0  0  0  0  0  0
   -1.0932   -0.6057   -0.0000 O   0  0  0  0  0  1  0  0  0  0  0  0
    1.0932   -0.5944    0.0000 O   0  0  0  0  0  0  0  0  0  0  0  0
    2.7741   -0.4816   -3.4001 C   0  0  0  0  0  0  0  0  0  0  0  0
    1.7682   -0.5809   -3.4928 H   0  0  0  0  0  0  0  0  0  0  0  0
    3.2010   -1.1737   -4.0057 H   0  0  0  0  0  0  0  0  0  0  0  0
    3.0795    0.5197   -3.7039 H   0  0  0  0  0  0  0  0  0  0  0  0
    3.2021   -0.6636   -1.9925 C   0  0  0  0  0  0  0  0  0  0  0  0
    2.4116   -0.5640   -1.3607 H   0  0  0  0  0  0  0  0  0  0  0  0
    3.5766   -1.5983   -1.8486 H   0  0  0  0  0  0  0  0  0  0  0  0
    4.2557    0.3757   -1.6812 C   0  0  0  0  0  0  0  0  0  0  0  0
    4.1246    0.7636   -0.7679 H   0  0  0  0  0  0  0  0  0  0  0  0
    5.1776   -0.0099   -1.7472 H   0  0  0  0  0  0  0  0  0  0  0  0
    4.1030    1.1371   -2.4461 H   0  0  0  0  0  0  0  0  0  0  0  0
  1  5  1  0
  5  6  1  0
  5  7  2  0
  1  2  1  0
  1  3  1  0
  1  4  1  0
  8 12  1  0
 12 15  1  0
  8  9  1  0
  8 10  1  0
  8 11  1  0
 12 13  1  0
 12 14  1  0
 15 16  1  0
 15 17  1  0
 15 18  1  0
M  CHG  1   6  -1
M  END
>  <PDB_ID>  (1636) 
pdb4oaf

>  <RESIDUE_NAME>  (1636) 
ASP   PRO

>  <FRAG_NAME>  (1636) 
ACET   PRPA

>  <FRAG_ATOM_NUM>  (1636) 
fragi: 7  fragj: 11

>  <atom.prop.CHAIN_ID>  (1636) 
A A A A A A A Z Z Z Z Z Z Z Z Z Z Z

>  <atom.prop.IS_HEAVY_ATOM>  (1636) 
1 0 0 0 1 1 1 1 0 0 0 1 0 0 1 0 0 0

>  <DIFUSE_FUNC_ATOM>  (1636) 
atom 6   atom 7   

>  <FINAL_SINGLE_POINT_ENERGY>  (1636) 
0

>  <NONCOV_INTER_ENERGY_QM>  (1636) 
0

>  <FF_Energy>  (1636) 
15.44

>  <QM_Energy>  (1636) 
-2.21

>  <source>  (1636) 
ACET_PRPA_19

>  <Index>  (1636) 
3133

$$$$
ACET-pdb3r4r-A-GLU-33:PRPA-pdb3r4r-A-ARG-111
     RDKit          3D

 18 16  0  0  0  0  0  0  0  0999 V2000
    0.0068    1.5135    0.1544 C   0  0  0  0  0  0  0  0  0  0  0  0
    0.9575    1.8163    0.0790 H   0  0  0  0  0  0  0  0  0  0  0  0
   -0.3355    1.7202    1.0719 H   0  0  0  0  0  0  0  0  0  0  0  0
   -0.5816    2.0925   -0.5575 H   0  0  0  0  0  0  0  0  0  0  0  0
    0.0000    0.0000    0.0000 C   0  0  0  0  0  0  0  0  0  0  0  0
   -1.1002   -0.5981   -0.0000 O   0  0  0  0  0  1  0  0  0  0  0  0
    1.1002   -0.5980    0.0000 O   0  0  0  0  0  0  0  0  0  0  0  0
    1.8300   -0.6317    3.4875 C   0  0  0  0  0  0  0  0  0  0  0  0
    1.4287   -1.3168    4.0773 H   0  0  0  0  0  0  0  0  0  0  0  0
    1.1405   -0.1944    2.9281 H   0  0  0  0  0  0  0  0  0  0  0  0
    2.2903    0.1301    4.1167 H   0  0  0  0  0  0  0  0  0  0  0  0
    2.8264   -1.3258    2.5586 C   0  0  0  0  0  0  0  0  0  0  0  0
    3.2365   -0.6484    1.9578 H   0  0  0  0  0  0  0  0  0  0  0  0
    3.5240   -1.7725    3.1078 H   0  0  0  0  0  0  0  0  0  0  0  0
    2.1326   -2.3625    1.7204 C   0  0  0  0  0  0  0  0  0  0  0  0
    1.7198   -3.0362    2.3252 H   0  0  0  0  0  0  0  0  0  0  0  0
    1.4313   -1.9111    1.1767 H   0  0  0  0  0  0  0  0  0  0  0  0
    2.8338   -2.8643    1.0537 H   0  0  0  0  0  0  0  0  0  0  0  0
  1  5  1  0
  5  6  1  0
  5  7  2  0
  1  2  1  0
  1  3  1  0
  1  4  1  0
  8 12  1  0
 12 15  1  0
  8  9  1  0
  8 10  1  0
  8 11  1  0
 12 13  1  0
 12 14  1  0
 15 16  1  0
 15 17  1  0
 15 18  1  0
M  CHG  1   6  -1
M  END
>  <PDB_ID>  (1637) 
pdb3r4r

>  <RESIDUE_NAME>  (1637) 
GLU   ARG

>  <FRAG_NAME>  (1637) 
ACET   PRPA

>  <FRAG_ATOM_NUM>  (1637) 
fragi: 7  fragj: 11

>  <atom.prop.CHAIN_ID>  (1637) 
A A A A A A A Z Z Z Z Z Z Z Z Z Z Z

>  <atom.prop.IS_HEAVY_ATOM>  (1637) 
1 0 0 0 1 1 1 1 0 0 0 1 0 0 1 0 0 0

>  <DIFUSE_FUNC_ATOM>  (1637) 
atom 6   atom 7   

>  <FINAL_SINGLE_POINT_ENERGY>  (1637) 
0

>  <NONCOV_INTER_ENERGY_QM>  (1637) 
0

>  <FF_Energy>  (1637) 
31.01

>  <QM_Energy>  (1637) 
0.11

>  <source>  (1637) 
ACET_PRPA_19

>  <Index>  (1637) 
5317

$$$$
ACET-pdb3r85-A-ASP-11:PRPA-pdb3r85-B-LYS-87
     RDKit          3D

 18 16  0  0  0  0  0  0  0  0999 V2000
   -0.0050    1.5049   -0.0027 C   0  0  0  0  0  0  0  0  0  0  0  0
   -0.7356    1.8265   -0.5959 H   0  0  0  0  0  0  0  0  0  0  0  0
    0.8745    1.8332   -0.3279 H   0  0  0  0  0  0  0  0  0  0  0  0
   -0.1724    1.9252    0.9889 H   0  0  0  0  0  0  0  0  0  0  0  0
    0.0000    0.0000    0.0000 C   0  0  0  0  0  0  0  0  0  0  0  0
   -1.0965   -0.5986    0.0000 O   0  0  0  0  0  1  0  0  0  0  0  0
    1.0965   -0.5939    0.0000 O   0  0  0  0  0  0  0  0  0  0  0  0
    1.1758   -0.6769   -3.2659 C   0  0  0  0  0  0  0  0  0  0  0  0
    1.4870    0.2166   -2.9141 H   0  0  0  0  0  0  0  0  0  0  0  0
    1.1777   -0.6353   -4.2738 H   0  0  0  0  0  0  0  0  0  0  0  0
    1.8872   -1.4398   -2.9495 H   0  0  0  0  0  0  0  0  0  0  0  0
   -0.2476   -0.9243   -2.7862 C   0  0  0  0  0  0  0  0  0  0  0  0
   -0.2596   -0.9002   -1.7893 H   0  0  0  0  0  0  0  0  0  0  0  0
   -0.8391   -0.2094   -3.1502 H   0  0  0  0  0  0  0  0  0  0  0  0
   -0.7805   -2.2730   -3.2444 C   0  0  0  0  0  0  0  0  0  0  0  0
   -0.6387   -2.3600   -4.2358 H   0  0  0  0  0  0  0  0  0  0  0  0
   -0.2653   -3.0017   -2.7820 H   0  0  0  0  0  0  0  0  0  0  0  0
   -1.8413   -2.3946   -3.0255 H   0  0  0  0  0  0  0  0  0  0  0  0
  1  5  1  0
  5  6  1  0
  5  7  2  0
  1  2  1  0
  1  3  1  0
  1  4  1  0
  8 12  1  0
 12 15  1  0
  8  9  1  0
  8 10  1  0
  8 11  1  0
 12 13  1  0
 12 14  1  0
 15 16  1  0
 15 17  1  0
 15 18  1  0
M  CHG  1   6  -1
M  END
>  <PDB_ID>  (1638) 
pdb3r85

>  <RESIDUE_NAME>  (1638) 
ASP   LYS

>  <FRAG_NAME>  (1638) 
ACET   PRPA

>  <FRAG_ATOM_NUM>  (1638) 
fragi: 7  fragj: 11

>  <atom.prop.CHAIN_ID>  (1638) 
A A A A A A A Z Z Z Z Z Z Z Z Z Z Z

>  <atom.prop.IS_HEAVY_ATOM>  (1638) 
1 0 0 0 1 1 1 1 0 0 0 1 0 0 1 0 0 0

>  <DIFUSE_FUNC_ATOM>  (1638) 
atom 6   atom 7   

>  <FINAL_SINGLE_POINT_ENERGY>  (1638) 
0

>  <NONCOV_INTER_ENERGY_QM>  (1638) 
0

>  <FF_Energy>  (1638) 
29.98

>  <QM_Energy>  (1638) 
0.74

>  <source>  (1638) 
ACET_PRPA_19

>  <Index>  (1638) 
8601

$$$$
ACET-pdb3r85-B-GLU-153:PRPA-pdb3r85-B-ILE-114
     RDKit          3D

 18 16  0  0  0  0  0  0  0  0999 V2000
    0.0045    1.5354    0.0139 C   0  0  0  0  0  0  0  0  0  0  0  0
   -0.3015    1.8249    0.9029 H   0  0  0  0  0  0  0  0  0  0  0  0
   -0.5996    1.8392   -0.7015 H   0  0  0  0  0  0  0  0  0  0  0  0
    0.9825    1.9833   -0.1622 H   0  0  0  0  0  0  0  0  0  0  0  0
    0.0000    0.0000    0.0000 C   0  0  0  0  0  0  0  0  0  0  0  0
   -1.0934   -0.6173    0.0000 O   0  0  0  0  0  1  0  0  0  0  0  0
    1.0934   -0.5951   -0.0000 O   0  0  0  0  0  0  0  0  0  0  0  0
   -0.0736   -0.1055    4.6373 C   0  0  0  0  0  0  0  0  0  0  0  0
   -0.8398    0.4940    4.8309 H   0  0  0  0  0  0  0  0  0  0  0  0
   -0.3345   -1.1072    4.9786 H   0  0  0  0  0  0  0  0  0  0  0  0
    0.7948    0.2713    5.1778 H   0  0  0  0  0  0  0  0  0  0  0  0
    0.1562   -0.1065    3.1191 C   0  0  0  0  0  0  0  0  0  0  0  0
   -0.5331   -0.6989    2.7027 H   0  0  0  0  0  0  0  0  0  0  0  0
    0.0119    0.8271    2.7882 H   0  0  0  0  0  0  0  0  0  0  0  0
    1.5207   -0.5678    2.7153 C   0  0  0  0  0  0  0  0  0  0  0  0
    1.6708   -1.5046    3.0359 H   0  0  0  0  0  0  0  0  0  0  0  0
    1.6056   -0.5449    1.7169 H   0  0  0  0  0  0  0  0  0  0  0  0
    2.2156    0.0321    3.1173 H   0  0  0  0  0  0  0  0  0  0  0  0
  1  5  1  0
  5  6  1  0
  5  7  2  0
  1  2  1  0
  1  3  1  0
  1  4  1  0
  8 12  1  0
 12 15  1  0
  8  9  1  0
  8 10  1  0
  8 11  1  0
 12 13  1  0
 12 14  1  0
 15 16  1  0
 15 17  1  0
 15 18  1  0
M  CHG  1   6  -1
M  END
>  <PDB_ID>  (1639) 
pdb3r85

>  <RESIDUE_NAME>  (1639) 
GLU   ILE

>  <FRAG_NAME>  (1639) 
ACET   PRPA

>  <FRAG_ATOM_NUM>  (1639) 
fragi: 7  fragj: 11

>  <atom.prop.CHAIN_ID>  (1639) 
A A A A A A A Z Z Z Z Z Z Z Z Z Z Z

>  <atom.prop.IS_HEAVY_ATOM>  (1639) 
1 0 0 0 1 1 1 1 0 0 0 1 0 0 1 0 0 0

>  <DIFUSE_FUNC_ATOM>  (1639) 
atom 6   atom 7   

>  <FINAL_SINGLE_POINT_ENERGY>  (1639) 
0

>  <NONCOV_INTER_ENERGY_QM>  (1639) 
0

>  <FF_Energy>  (1639) 
31.86

>  <QM_Energy>  (1639) 
1.15

>  <source>  (1639) 
ACET_PRPA_19

>  <Index>  (1639) 
8757

$$$$
ACET-pdb3rgk-A-GLU-136:PRPA-pdb3rgk-A-LYS-140
     RDKit          3D

 18 16  0  0  0  0  0  0  0  0999 V2000
    0.0100    1.5165    0.0161 C   0  0  0  0  0  0  0  0  0  0  0  0
    0.3201    1.8235   -0.8650 H   0  0  0  0  0  0  0  0  0  0  0  0
    0.6089    1.8044    0.7416 H   0  0  0  0  0  0  0  0  0  0  0  0
   -0.9742    1.9486    0.1972 H   0  0  0  0  0  0  0  0  0  0  0  0
    0.0000    0.0000    0.0000 C   0  0  0  0  0  0  0  0  0  0  0  0
   -1.1060   -0.6005    0.0000 O   0  0  0  0  0  1  0  0  0  0  0  0
    1.1060   -0.5963   -0.0000 O   0  0  0  0  0  0  0  0  0  0  0  0
    2.8365    3.5297   -2.2756 C   0  0  0  0  0  0  0  0  0  0  0  0
    3.7023    3.3651   -1.7996 H   0  0  0  0  0  0  0  0  0  0  0  0
    2.1270    3.7488   -1.6060 H   0  0  0  0  0  0  0  0  0  0  0  0
    2.9597    4.3758   -2.9516 H   0  0  0  0  0  0  0  0  0  0  0  0
    2.4382    2.2696   -3.0228 C   0  0  0  0  0  0  0  0  0  0  0  0
    1.5747    2.4390   -3.4988 H   0  0  0  0  0  0  0  0  0  0  0  0
    3.1503    2.0543   -3.6925 H   0  0  0  0  0  0  0  0  0  0  0  0
    2.2620    1.0818   -2.1055 C   0  0  0  0  0  0  0  0  0  0  0  0
    3.1228    0.9031   -1.6287 H   0  0  0  0  0  0  0  0  0  0  0  0
    1.5475    1.2868   -1.4352 H   0  0  0  0  0  0  0  0  0  0  0  0
    1.9759    0.1964   -2.6732 H   0  0  0  0  0  0  0  0  0  0  0  0
  1  5  1  0
  5  6  1  0
  5  7  2  0
  1  2  1  0
  1  3  1  0
  1  4  1  0
  8 12  1  0
 12 15  1  0
  8  9  1  0
  8 10  1  0
  8 11  1  0
 12 13  1  0
 12 14  1  0
 15 16  1  0
 15 17  1  0
 15 18  1  0
M  CHG  1   6  -1
M  END
>  <PDB_ID>  (1640) 
pdb3rgk

>  <RESIDUE_NAME>  (1640) 
GLU   LYS

>  <FRAG_NAME>  (1640) 
ACET   PRPA

>  <FRAG_ATOM_NUM>  (1640) 
fragi: 7  fragj: 11

>  <atom.prop.CHAIN_ID>  (1640) 
A A A A A A A Z Z Z Z Z Z Z Z Z Z Z

>  <atom.prop.IS_HEAVY_ATOM>  (1640) 
1 0 0 0 1 1 1 1 0 0 0 1 0 0 1 0 0 0

>  <DIFUSE_FUNC_ATOM>  (1640) 
atom 6   atom 7   

>  <FINAL_SINGLE_POINT_ENERGY>  (1640) 
0

>  <NONCOV_INTER_ENERGY_QM>  (1640) 
0

>  <FF_Energy>  (1640) 
48.72

>  <QM_Energy>  (1640) 
6.38

>  <source>  (1640) 
ACET_PRPA_19

>  <Index>  (1640) 
11265

$$$$
ACET-pdb4pfs-A-GLU-158:PRPA-pdb4pfs-A-LEU-192
     RDKit          3D

 18 16  0  0  0  0  0  0  0  0999 V2000
    0.1835    1.4884    0.0158 C   0  0  0  0  0  0  0  0  0  0  0  0
    0.7010    1.7407   -0.8010 H   0  0  0  0  0  0  0  0  0  0  0  0
    0.7122    1.7207    0.8309 H   0  0  0  0  0  0  0  0  0  0  0  0
   -0.7279    2.0863    0.0283 H   0  0  0  0  0  0  0  0  0  0  0  0
    0.0000    0.0000    0.0000 C   0  0  0  0  0  0  0  0  0  0  0  0
   -1.0893   -0.5534   -0.0000 O   0  0  0  0  0  1  0  0  0  0  0  0
    1.0893   -0.6099   -0.0000 O   0  0  0  0  0  0  0  0  0  0  0  0
    3.4835    1.2877    1.2252 C   0  0  0  0  0  0  0  0  0  0  0  0
    2.9279    2.0100    1.6522 H   0  0  0  0  0  0  0  0  0  0  0  0
    3.0160    0.9713    0.3942 H   0  0  0  0  0  0  0  0  0  0  0  0
    4.4277    1.7382    0.9193 H   0  0  0  0  0  0  0  0  0  0  0  0
    3.5176    0.1069    2.2038 C   0  0  0  0  0  0  0  0  0  0  0  0
    3.9670    0.4021    3.0493 H   0  0  0  0  0  0  0  0  0  0  0  0
    4.1267   -0.7028    1.8018 H   0  0  0  0  0  0  0  0  0  0  0  0
    2.1158   -0.3862    2.5200 C   0  0  0  0  0  0  0  0  0  0  0  0
    1.6662   -0.6851    1.6768 H   0  0  0  0  0  0  0  0  0  0  0  0
    2.1661   -1.1547    3.1587 H   0  0  0  0  0  0  0  0  0  0  0  0
    1.5850    0.3542    2.9337 H   0  0  0  0  0  0  0  0  0  0  0  0
  1  5  1  0
  5  6  1  0
  5  7  2  0
  1  2  1  0
  1  3  1  0
  1  4  1  0
  8 12  1  0
 12 15  1  0
  8  9  1  0
  8 10  1  0
  8 11  1  0
 12 13  1  0
 12 14  1  0
 15 16  1  0
 15 17  1  0
 15 18  1  0
M  CHG  1   6  -1
M  END
>  <PDB_ID>  (1641) 
pdb4pfs

>  <RESIDUE_NAME>  (1641) 
GLU   LEU

>  <FRAG_NAME>  (1641) 
ACET   PRPA

>  <FRAG_ATOM_NUM>  (1641) 
fragi: 7  fragj: 11

>  <atom.prop.CHAIN_ID>  (1641) 
A A A A A A A Z Z Z Z Z Z Z Z Z Z Z

>  <atom.prop.IS_HEAVY_ATOM>  (1641) 
1 0 0 0 1 1 1 1 0 0 0 1 0 0 1 0 0 0

>  <DIFUSE_FUNC_ATOM>  (1641) 
atom 6   atom 7   

>  <FINAL_SINGLE_POINT_ENERGY>  (1641) 
0

>  <NONCOV_INTER_ENERGY_QM>  (1641) 
0

>  <FF_Energy>  (1641) 
34.89

>  <QM_Energy>  (1641) 
0.55

>  <source>  (1641) 
ACET_PRPA_19

>  <Index>  (1641) 
11877

$$$$
ACET-pdb4pfs-A-GLU-158:PRPA-pdb4pfs-A-LEU-192
     RDKit          3D

 18 16  0  0  0  0  0  0  0  0999 V2000
    0.1835    1.4884    0.0158 C   0  0  0  0  0  0  0  0  0  0  0  0
    0.7010    1.7407   -0.8010 H   0  0  0  0  0  0  0  0  0  0  0  0
    0.7122    1.7207    0.8309 H   0  0  0  0  0  0  0  0  0  0  0  0
   -0.7279    2.0863    0.0283 H   0  0  0  0  0  0  0  0  0  0  0  0
    0.0000    0.0000    0.0000 C   0  0  0  0  0  0  0  0  0  0  0  0
   -1.0893   -0.5534   -0.0000 O   0  0  0  0  0  1  0  0  0  0  0  0
    1.0893   -0.6099   -0.0000 O   0  0  0  0  0  0  0  0  0  0  0  0
    2.1158   -0.3862    2.5200 C   0  0  0  0  0  0  0  0  0  0  0  0
    1.6662   -0.6851    1.6768 H   0  0  0  0  0  0  0  0  0  0  0  0
    2.1661   -1.1547    3.1587 H   0  0  0  0  0  0  0  0  0  0  0  0
    1.5850    0.3542    2.9337 H   0  0  0  0  0  0  0  0  0  0  0  0
    3.5176    0.1069    2.2038 C   0  0  0  0  0  0  0  0  0  0  0  0
    3.9670    0.4021    3.0493 H   0  0  0  0  0  0  0  0  0  0  0  0
    3.4934    0.9459    1.5085 H   0  0  0  0  0  0  0  0  0  0  0  0
    4.3640   -1.0185    1.6451 C   0  0  0  0  0  0  0  0  0  0  0  0
    5.3006   -0.6953    1.4949 H   0  0  0  0  0  0  0  0  0  0  0  0
    4.3789   -1.7829    2.2917 H   0  0  0  0  0  0  0  0  0  0  0  0
    3.9795   -1.3305    0.7746 H   0  0  0  0  0  0  0  0  0  0  0  0
  1  5  1  0
  5  6  1  0
  5  7  2  0
  1  2  1  0
  1  3  1  0
  1  4  1  0
  8 12  1  0
 12 15  1  0
  8  9  1  0
  8 10  1  0
  8 11  1  0
 12 13  1  0
 12 14  1  0
 15 16  1  0
 15 17  1  0
 15 18  1  0
M  CHG  1   6  -1
M  END
>  <PDB_ID>  (1642) 
pdb4pfs

>  <RESIDUE_NAME>  (1642) 
GLU   LEU

>  <FRAG_NAME>  (1642) 
ACET   PRPA

>  <FRAG_ATOM_NUM>  (1642) 
fragi: 7  fragj: 11

>  <atom.prop.CHAIN_ID>  (1642) 
A A A A A A A Z Z Z Z Z Z Z Z Z Z Z

>  <atom.prop.IS_HEAVY_ATOM>  (1642) 
1 0 0 0 1 1 1 1 0 0 0 1 0 0 1 0 0 0

>  <DIFUSE_FUNC_ATOM>  (1642) 
atom 6   atom 7   

>  <FINAL_SINGLE_POINT_ENERGY>  (1642) 
0

>  <NONCOV_INTER_ENERGY_QM>  (1642) 
0

>  <FF_Energy>  (1642) 
34.47

>  <QM_Energy>  (1642) 
0.7

>  <source>  (1642) 
ACET_PRPA_19

>  <Index>  (1642) 
11884

$$$$
ACET-pdb4pxv-A-ASP-11:PRPA-pdb4pxv-A-LYS-8
     RDKit          3D

 18 16  0  0  0  0  0  0  0  0999 V2000
    0.0364    1.5175    0.0371 C   0  0  0  0  0  0  0  0  0  0  0  0
    0.7123    1.8381   -0.6218 H   0  0  0  0  0  0  0  0  0  0  0  0
    0.2901    1.8099    0.9546 H   0  0  0  0  0  0  0  0  0  0  0  0
   -0.9177    1.9832   -0.2102 H   0  0  0  0  0  0  0  0  0  0  0  0
    0.0000    0.0000    0.0000 C   0  0  0  0  0  0  0  0  0  0  0  0
   -1.0913   -0.6101   -0.0000 O   0  0  0  0  0  1  0  0  0  0  0  0
    1.0913   -0.5971    0.0000 O   0  0  0  0  0  0  0  0  0  0  0  0
    2.4514   -0.7368   -3.2817 C   0  0  0  0  0  0  0  0  0  0  0  0
    3.1982   -0.7945   -3.9490 H   0  0  0  0  0  0  0  0  0  0  0  0
    2.8623   -0.4409   -2.3164 H   0  0  0  0  0  0  0  0  0  0  0  0
    1.7303    0.0045   -3.6263 H   0  0  0  0  0  0  0  0  0  0  0  0
    1.7956   -2.1078   -3.1735 C   0  0  0  0  0  0  0  0  0  0  0  0
    0.8510   -2.0316   -3.5012 H   0  0  0  0  0  0  0  0  0  0  0  0
    2.2960   -2.7442   -3.7670 H   0  0  0  0  0  0  0  0  0  0  0  0
    1.7617   -2.6985   -1.7697 C   0  0  0  0  0  0  0  0  0  0  0  0
    2.7022   -2.7874   -1.4336 H   0  0  0  0  0  0  0  0  0  0  0  0
    1.2570   -2.0765   -1.1676 H   0  0  0  0  0  0  0  0  0  0  0  0
    1.2844   -3.6782   -1.7502 H   0  0  0  0  0  0  0  0  0  0  0  0
  1  5  1  0
  5  6  1  0
  5  7  2  0
  1  2  1  0
  1  3  1  0
  1  4  1  0
  8 12  1  0
 12 15  1  0
  8  9  1  0
  8 10  1  0
  8 11  1  0
 12 13  1  0
 12 14  1  0
 15 16  1  0
 15 17  1  0
 15 18  1  0
M  CHG  1   6  -1
M  END
>  <PDB_ID>  (1643) 
pdb4pxv

>  <RESIDUE_NAME>  (1643) 
ASP   LYS

>  <FRAG_NAME>  (1643) 
ACET   PRPA

>  <FRAG_ATOM_NUM>  (1643) 
fragi: 7  fragj: 11

>  <atom.prop.CHAIN_ID>  (1643) 
A A A A A A A Z Z Z Z Z Z Z Z Z Z Z

>  <atom.prop.IS_HEAVY_ATOM>  (1643) 
1 0 0 0 1 1 1 1 0 0 0 1 0 0 1 0 0 0

>  <DIFUSE_FUNC_ATOM>  (1643) 
atom 6   atom 7   

>  <FINAL_SINGLE_POINT_ENERGY>  (1643) 
0

>  <NONCOV_INTER_ENERGY_QM>  (1643) 
0

>  <FF_Energy>  (1643) 
14.93

>  <QM_Energy>  (1643) 
-1.44

>  <source>  (1643) 
ACET_PRPA_19

>  <Index>  (1643) 
16516

$$$$
ACET-pdb4pxv-A-ASP-11:PRPA-pdb4pxv-A-LYS-8
     RDKit          3D

 18 16  0  0  0  0  0  0  0  0999 V2000
    0.0364    1.5175    0.0371 C   0  0  0  0  0  0  0  0  0  0  0  0
    0.7123    1.8381   -0.6218 H   0  0  0  0  0  0  0  0  0  0  0  0
    0.2901    1.8099    0.9546 H   0  0  0  0  0  0  0  0  0  0  0  0
   -0.9177    1.9832   -0.2102 H   0  0  0  0  0  0  0  0  0  0  0  0
    0.0000    0.0000    0.0000 C   0  0  0  0  0  0  0  0  0  0  0  0
   -1.0913   -0.6101   -0.0000 O   0  0  0  0  0  1  0  0  0  0  0  0
    1.0913   -0.5971    0.0000 O   0  0  0  0  0  0  0  0  0  0  0  0
    1.7956   -2.1078   -3.1735 C   0  0  0  0  0  0  0  0  0  0  0  0
    0.8510   -2.0316   -3.5012 H   0  0  0  0  0  0  0  0  0  0  0  0
    2.2960   -2.7442   -3.7670 H   0  0  0  0  0  0  0  0  0  0  0  0
    2.2648   -1.1270   -3.2509 H   0  0  0  0  0  0  0  0  0  0  0  0
    1.7617   -2.6985   -1.7697 C   0  0  0  0  0  0  0  0  0  0  0  0
    2.7022   -2.7874   -1.4336 H   0  0  0  0  0  0  0  0  0  0  0  0
    1.2570   -2.0765   -1.1676 H   0  0  0  0  0  0  0  0  0  0  0  0
    1.0983   -4.0602   -1.7425 C   0  0  0  0  0  0  0  0  0  0  0  0
    0.1595   -3.9672   -2.0818 H   0  0  0  0  0  0  0  0  0  0  0  0
    1.6056   -4.6791   -2.3458 H   0  0  0  0  0  0  0  0  0  0  0  0
    1.0664   -4.4956   -0.7438 H   0  0  0  0  0  0  0  0  0  0  0  0
  1  5  1  0
  5  6  1  0
  5  7  2  0
  1  2  1  0
  1  3  1  0
  1  4  1  0
  8 12  1  0
 12 15  1  0
  8  9  1  0
  8 10  1  0
  8 11  1  0
 12 13  1  0
 12 14  1  0
 15 16  1  0
 15 17  1  0
 15 18  1  0
M  CHG  1   6  -1
M  END
>  <PDB_ID>  (1644) 
pdb4pxv

>  <RESIDUE_NAME>  (1644) 
ASP   LYS

>  <FRAG_NAME>  (1644) 
ACET   PRPA

>  <FRAG_ATOM_NUM>  (1644) 
fragi: 7  fragj: 11

>  <atom.prop.CHAIN_ID>  (1644) 
A A A A A A A Z Z Z Z Z Z Z Z Z Z Z

>  <atom.prop.IS_HEAVY_ATOM>  (1644) 
1 0 0 0 1 1 1 1 0 0 0 1 0 0 1 0 0 0

>  <DIFUSE_FUNC_ATOM>  (1644) 
atom 6   atom 7   

>  <FINAL_SINGLE_POINT_ENERGY>  (1644) 
0

>  <NONCOV_INTER_ENERGY_QM>  (1644) 
0

>  <FF_Energy>  (1644) 
17.01

>  <QM_Energy>  (1644) 
-0.99

>  <source>  (1644) 
ACET_PRPA_19

>  <Index>  (1644) 
16523

$$$$
ACET-pdb4pxv-A-ASP-11:PRPA-pdb4pxv-A-LYS-8
     RDKit          3D

 18 16  0  0  0  0  0  0  0  0999 V2000
    0.0364    1.5175    0.0371 C   0  0  0  0  0  0  0  0  0  0  0  0
    0.7123    1.8381   -0.6218 H   0  0  0  0  0  0  0  0  0  0  0  0
    0.2901    1.8099    0.9546 H   0  0  0  0  0  0  0  0  0  0  0  0
   -0.9177    1.9832   -0.2102 H   0  0  0  0  0  0  0  0  0  0  0  0
    0.0000    0.0000    0.0000 C   0  0  0  0  0  0  0  0  0  0  0  0
   -1.0913   -0.6101   -0.0000 O   0  0  0  0  0  1  0  0  0  0  0  0
    1.0913   -0.5971    0.0000 O   0  0  0  0  0  0  0  0  0  0  0  0
    1.7617   -2.6985   -1.7697 C   0  0  0  0  0  0  0  0  0  0  0  0
    2.7022   -2.7874   -1.4336 H   0  0  0  0  0  0  0  0  0  0  0  0
    1.2570   -2.0765   -1.1676 H   0  0  0  0  0  0  0  0  0  0  0  0
    1.7860   -2.2759   -2.7742 H   0  0  0  0  0  0  0  0  0  0  0  0
    1.0983   -4.0602   -1.7425 C   0  0  0  0  0  0  0  0  0  0  0  0
    0.1595   -3.9672   -2.0818 H   0  0  0  0  0  0  0  0  0  0  0  0
    1.6056   -4.6791   -2.3458 H   0  0  0  0  0  0  0  0  0  0  0  0
    1.0541   -4.6630   -0.3596 C   0  0  0  0  0  0  0  0  0  0  0  0
    1.9890   -4.7644   -0.0154 H   0  0  0  0  0  0  0  0  0  0  0  0
    0.5435   -4.0537    0.2493 H   0  0  0  0  0  0  0  0  0  0  0  0
    0.5708   -5.6398   -0.3768 H   0  0  0  0  0  0  0  0  0  0  0  0
  1  5  1  0
  5  6  1  0
  5  7  2  0
  1  2  1  0
  1  3  1  0
  1  4  1  0
  8 12  1  0
 12 15  1  0
  8  9  1  0
  8 10  1  0
  8 11  1  0
 12 13  1  0
 12 14  1  0
 15 16  1  0
 15 17  1  0
 15 18  1  0
M  CHG  1   6  -1
M  END
>  <PDB_ID>  (1645) 
pdb4pxv

>  <RESIDUE_NAME>  (1645) 
ASP   LYS

>  <FRAG_NAME>  (1645) 
ACET   PRPA

>  <FRAG_ATOM_NUM>  (1645) 
fragi: 7  fragj: 11

>  <atom.prop.CHAIN_ID>  (1645) 
A A A A A A A Z Z Z Z Z Z Z Z Z Z Z

>  <atom.prop.IS_HEAVY_ATOM>  (1645) 
1 0 0 0 1 1 1 1 0 0 0 1 0 0 1 0 0 0

>  <DIFUSE_FUNC_ATOM>  (1645) 
atom 6   atom 7   

>  <FINAL_SINGLE_POINT_ENERGY>  (1645) 
0

>  <NONCOV_INTER_ENERGY_QM>  (1645) 
0

>  <FF_Energy>  (1645) 
14.87

>  <QM_Energy>  (1645) 
-1.28

>  <source>  (1645) 
ACET_PRPA_19

>  <Index>  (1645) 
16529

$$$$
ACET-pdb4q3h-A-ASP-232:PRPA-pdb4q3h-A-LEU-150
     RDKit          3D

 18 16  0  0  0  0  0  0  0  0999 V2000
    0.0510    1.4389   -0.0709 C   0  0  0  0  0  0  0  0  0  0  0  0
    0.4508    1.6743   -0.9175 H   0  0  0  0  0  0  0  0  0  0  0  0
    0.6174    1.7166    0.6603 H   0  0  0  0  0  0  0  0  0  0  0  0
   -0.9253    1.9161    0.0143 H   0  0  0  0  0  0  0  0  0  0  0  0
    0.0000    0.0000    0.0000 C   0  0  0  0  0  0  0  0  0  0  0  0
   -1.0777   -0.5612   -0.0000 O   0  0  0  0  0  1  0  0  0  0  0  0
    1.0777   -0.6434   -0.0000 O   0  0  0  0  0  0  0  0  0  0  0  0
   -0.1761   -4.3963    0.7267 C   0  0  0  0  0  0  0  0  0  0  0  0
    0.6594   -4.8206    0.4735 H   0  0  0  0  0  0  0  0  0  0  0  0
   -0.4214   -3.7446    0.0514 H   0  0  0  0  0  0  0  0  0  0  0  0
   -0.9507   -5.1625    0.7581 H   0  0  0  0  0  0  0  0  0  0  0  0
    0.0834   -3.6274    2.0245 C   0  0  0  0  0  0  0  0  0  0  0  0
   -0.7338   -3.1769    2.2902 H   0  0  0  0  0  0  0  0  0  0  0  0
    0.3770   -4.2926    2.8366 H   0  0  0  0  0  0  0  0  0  0  0  0
    1.1444   -2.5656    1.7884 C   0  0  0  0  0  0  0  0  0  0  0  0
    1.3006   -2.0849    2.6160 H   0  0  0  0  0  0  0  0  0  0  0  0
    1.9624   -2.9971    1.4961 H   0  0  0  0  0  0  0  0  0  0  0  0
    0.8311   -1.9532    1.1040 H   0  0  0  0  0  0  0  0  0  0  0  0
  1  5  1  0
  5  6  1  0
  5  7  2  0
  1  2  1  0
  1  3  1  0
  1  4  1  0
  8 12  1  0
 12 15  1  0
  8  9  1  0
  8 10  1  0
  8 11  1  0
 12 13  1  0
 12 14  1  0
 15 16  1  0
 15 17  1  0
 15 18  1  0
M  CHG  1   6  -1
M  END
>  <PDB_ID>  (1646) 
pdb4q3h

>  <RESIDUE_NAME>  (1646) 
ASP   LEU

>  <FRAG_NAME>  (1646) 
ACET   PRPA

>  <FRAG_ATOM_NUM>  (1646) 
fragi: 7  fragj: 11

>  <atom.prop.CHAIN_ID>  (1646) 
A A A A A A A Z Z Z Z Z Z Z Z Z Z Z

>  <atom.prop.IS_HEAVY_ATOM>  (1646) 
1 0 0 0 1 1 1 1 0 0 0 1 0 0 1 0 0 0

>  <DIFUSE_FUNC_ATOM>  (1646) 
atom 6   atom 7   

>  <FINAL_SINGLE_POINT_ENERGY>  (1646) 
0

>  <NONCOV_INTER_ENERGY_QM>  (1646) 
0

>  <FF_Energy>  (1646) 
48.7

>  <QM_Energy>  (1646) 
2.47

>  <source>  (1646) 
ACET_PRPA_19

>  <Index>  (1646) 
19244

$$$$
ACET-pdb4q3h-A-ASP-232:PRPA-pdb4q3h-A-LEU-150
     RDKit          3D

 18 16  0  0  0  0  0  0  0  0999 V2000
    0.0510    1.4389   -0.0709 C   0  0  0  0  0  0  0  0  0  0  0  0
    0.4508    1.6743   -0.9175 H   0  0  0  0  0  0  0  0  0  0  0  0
    0.6174    1.7166    0.6603 H   0  0  0  0  0  0  0  0  0  0  0  0
   -0.9253    1.9161    0.0143 H   0  0  0  0  0  0  0  0  0  0  0  0
    0.0000    0.0000    0.0000 C   0  0  0  0  0  0  0  0  0  0  0  0
   -1.0777   -0.5612   -0.0000 O   0  0  0  0  0  1  0  0  0  0  0  0
    1.0777   -0.6434   -0.0000 O   0  0  0  0  0  0  0  0  0  0  0  0
    0.4939   -4.5572    3.1597 C   0  0  0  0  0  0  0  0  0  0  0  0
    0.6472   -4.0299    3.9592 H   0  0  0  0  0  0  0  0  0  0  0  0
   -0.2188   -5.1971    3.3158 H   0  0  0  0  0  0  0  0  0  0  0  0
    1.3071   -5.0223    2.9081 H   0  0  0  0  0  0  0  0  0  0  0  0
    0.0834   -3.6274    2.0245 C   0  0  0  0  0  0  0  0  0  0  0  0
   -0.7338   -3.1769    2.2902 H   0  0  0  0  0  0  0  0  0  0  0  0
   -0.1014   -4.1749    1.1003 H   0  0  0  0  0  0  0  0  0  0  0  0
    1.1444   -2.5656    1.7884 C   0  0  0  0  0  0  0  0  0  0  0  0
    1.3006   -2.0849    2.6160 H   0  0  0  0  0  0  0  0  0  0  0  0
    1.9624   -2.9971    1.4961 H   0  0  0  0  0  0  0  0  0  0  0  0
    0.8311   -1.9532    1.1040 H   0  0  0  0  0  0  0  0  0  0  0  0
  1  5  1  0
  5  6  1  0
  5  7  2  0
  1  2  1  0
  1  3  1  0
  1  4  1  0
  8 12  1  0
 12 15  1  0
  8  9  1  0
  8 10  1  0
  8 11  1  0
 12 13  1  0
 12 14  1  0
 15 16  1  0
 15 17  1  0
 15 18  1  0
M  CHG  1   6  -1
M  END
>  <PDB_ID>  (1647) 
pdb4q3h

>  <RESIDUE_NAME>  (1647) 
ASP   LEU

>  <FRAG_NAME>  (1647) 
ACET   PRPA

>  <FRAG_ATOM_NUM>  (1647) 
fragi: 7  fragj: 11

>  <atom.prop.CHAIN_ID>  (1647) 
A A A A A A A Z Z Z Z Z Z Z Z Z Z Z

>  <atom.prop.IS_HEAVY_ATOM>  (1647) 
1 0 0 0 1 1 1 1 0 0 0 1 0 0 1 0 0 0

>  <DIFUSE_FUNC_ATOM>  (1647) 
atom 6   atom 7   

>  <FINAL_SINGLE_POINT_ENERGY>  (1647) 
0

>  <NONCOV_INTER_ENERGY_QM>  (1647) 
0

>  <FF_Energy>  (1647) 
48.14

>  <QM_Energy>  (1647) 
4.25

>  <source>  (1647) 
ACET_PRPA_19

>  <Index>  (1647) 
19248

$$$$
ACET-pdb4q7o-A-GLU-128:PRPA-pdb4q7o-A-LYS-124
     RDKit          3D

 18 16  0  0  0  0  0  0  0  0999 V2000
   -0.0044    1.5141    0.0081 C   0  0  0  0  0  0  0  0  0  0  0  0
    0.5876    1.8158   -0.7136 H   0  0  0  0  0  0  0  0  0  0  0  0
    0.3012    1.8057    0.8933 H   0  0  0  0  0  0  0  0  0  0  0  0
   -1.0004    1.9205   -0.1676 H   0  0  0  0  0  0  0  0  0  0  0  0
    0.0000    0.0000    0.0000 C   0  0  0  0  0  0  0  0  0  0  0  0
   -1.1017   -0.5911    0.0000 O   0  0  0  0  0  1  0  0  0  0  0  0
    1.1017   -0.5943   -0.0000 O   0  0  0  0  0  0  0  0  0  0  0  0
    1.7280   -0.5052    3.8017 C   0  0  0  0  0  0  0  0  0  0  0  0
    2.5430   -1.0906    3.8976 H   0  0  0  0  0  0  0  0  0  0  0  0
    1.0954   -0.9495    3.1548 H   0  0  0  0  0  0  0  0  0  0  0  0
    1.2393   -0.4211    4.7724 H   0  0  0  0  0  0  0  0  0  0  0  0
    2.1630    0.8402    3.2106 C   0  0  0  0  0  0  0  0  0  0  0  0
    1.3441    1.4163    3.1206 H   0  0  0  0  0  0  0  0  0  0  0  0
    2.7930    1.2748    3.8619 H   0  0  0  0  0  0  0  0  0  0  0  0
    2.8284    0.7149    1.8865 C   0  0  0  0  0  0  0  0  0  0  0  0
    3.6485    0.1415    1.9716 H   0  0  0  0  0  0  0  0  0  0  0  0
    2.2014    0.2828    1.2305 H   0  0  0  0  0  0  0  0  0  0  0  0
    3.1219    1.6908    1.4997 H   0  0  0  0  0  0  0  0  0  0  0  0
  1  5  1  0
  5  6  1  0
  5  7  2  0
  1  2  1  0
  1  3  1  0
  1  4  1  0
  8 12  1  0
 12 15  1  0
  8  9  1  0
  8 10  1  0
  8 11  1  0
 12 13  1  0
 12 14  1  0
 15 16  1  0
 15 17  1  0
 15 18  1  0
M  CHG  1   6  -1
M  END
>  <PDB_ID>  (1648) 
pdb4q7o

>  <RESIDUE_NAME>  (1648) 
GLU   LYS

>  <FRAG_NAME>  (1648) 
ACET   PRPA

>  <FRAG_ATOM_NUM>  (1648) 
fragi: 7  fragj: 11

>  <atom.prop.CHAIN_ID>  (1648) 
A A A A A A A Z Z Z Z Z Z Z Z Z Z Z

>  <atom.prop.IS_HEAVY_ATOM>  (1648) 
1 0 0 0 1 1 1 1 0 0 0 1 0 0 1 0 0 0

>  <DIFUSE_FUNC_ATOM>  (1648) 
atom 6   atom 7   

>  <FINAL_SINGLE_POINT_ENERGY>  (1648) 
0

>  <NONCOV_INTER_ENERGY_QM>  (1648) 
0

>  <FF_Energy>  (1648) 
17.24

>  <QM_Energy>  (1648) 
-1.41

>  <source>  (1648) 
ACET_PRPA_19

>  <Index>  (1648) 
23185

$$$$
ACET-pdb3s2w-A-ASP-134:PRPA-pdb3s2w-A-GLN-137
     RDKit          3D

 18 16  0  0  0  0  0  0  0  0999 V2000
   -0.0051    1.5199    0.0192 C   0  0  0  0  0  0  0  0  0  0  0  0
    0.1054    1.8282    0.9560 H   0  0  0  0  0  0  0  0  0  0  0  0
   -0.8651    1.8422   -0.3553 H   0  0  0  0  0  0  0  0  0  0  0  0
    0.8013    1.9526   -0.5727 H   0  0  0  0  0  0  0  0  0  0  0  0
    0.0000    0.0000    0.0000 C   0  0  0  0  0  0  0  0  0  0  0  0
   -1.0946   -0.5974    0.0000 O   0  0  0  0  0  1  0  0  0  0  0  0
    1.0946   -0.6038    0.0000 O   0  0  0  0  0  0  0  0  0  0  0  0
    3.7041   -2.1511   -2.5099 C   0  0  0  0  0  0  0  0  0  0  0  0
    3.7677   -3.1464   -2.6624 H   0  0  0  0  0  0  0  0  0  0  0  0
    3.5925   -1.9834   -1.4387 H   0  0  0  0  0  0  0  0  0  0  0  0
    4.6162   -1.6959   -2.8958 H   0  0  0  0  0  0  0  0  0  0  0  0
    2.4655   -1.6803   -3.2804 C   0  0  0  0  0  0  0  0  0  0  0  0
    2.5649   -0.7071   -3.4835 H   0  0  0  0  0  0  0  0  0  0  0  0
    2.4027   -2.1962   -4.1348 H   0  0  0  0  0  0  0  0  0  0  0  0
    1.1613   -1.8743   -2.5145 C   0  0  0  0  0  0  0  0  0  0  0  0
    1.0815   -2.8392   -2.2598 H   0  0  0  0  0  0  0  0  0  0  0  0
    1.1914   -1.3141   -1.6859 H   0  0  0  0  0  0  0  0  0  0  0  0
    0.2802   -1.5943   -3.0919 H   0  0  0  0  0  0  0  0  0  0  0  0
  1  5  1  0
  5  6  1  0
  5  7  2  0
  1  2  1  0
  1  3  1  0
  1  4  1  0
  8 12  1  0
 12 15  1  0
  8  9  1  0
  8 10  1  0
  8 11  1  0
 12 13  1  0
 12 14  1  0
 15 16  1  0
 15 17  1  0
 15 18  1  0
M  CHG  1   6  -1
M  END
>  <PDB_ID>  (1649) 
pdb3s2w

>  <RESIDUE_NAME>  (1649) 
ASP   GLN

>  <FRAG_NAME>  (1649) 
ACET   PRPA

>  <FRAG_ATOM_NUM>  (1649) 
fragi: 7  fragj: 11

>  <atom.prop.CHAIN_ID>  (1649) 
A A A A A A A Z Z Z Z Z Z Z Z Z Z Z

>  <atom.prop.IS_HEAVY_ATOM>  (1649) 
1 0 0 0 1 1 1 1 0 0 0 1 0 0 1 0 0 0

>  <DIFUSE_FUNC_ATOM>  (1649) 
atom 6   atom 7   

>  <FINAL_SINGLE_POINT_ENERGY>  (1649) 
0

>  <NONCOV_INTER_ENERGY_QM>  (1649) 
0

>  <FF_Energy>  (1649) 
22.86

>  <QM_Energy>  (1649) 
-0.07

>  <source>  (1649) 
ACET_PRPA_19

>  <Index>  (1649) 
24210

$$$$
ACET-pdb3s99-A-ASP-187:PRPA-pdb3s99-A-LYS-190
     RDKit          3D

 18 16  0  0  0  0  0  0  0  0999 V2000
    0.0425    1.5368    0.0224 C   0  0  0  0  0  0  0  0  0  0  0  0
    0.7118    1.8376   -0.6477 H   0  0  0  0  0  0  0  0  0  0  0  0
    0.3096    1.8262    0.9335 H   0  0  0  0  0  0  0  0  0  0  0  0
   -0.9158    1.9971   -0.2180 H   0  0  0  0  0  0  0  0  0  0  0  0
    0.0000    0.0000    0.0000 C   0  0  0  0  0  0  0  0  0  0  0  0
   -1.0931   -0.6058   -0.0000 O   0  0  0  0  0  1  0  0  0  0  0  0
    1.0931   -0.6010   -0.0000 O   0  0  0  0  0  0  0  0  0  0  0  0
    0.4327   -0.8517    3.5932 C   0  0  0  0  0  0  0  0  0  0  0  0
    0.3986   -0.0221    3.0308 H   0  0  0  0  0  0  0  0  0  0  0  0
    1.1307   -0.7361    4.3045 H   0  0  0  0  0  0  0  0  0  0  0  0
   -0.5348   -0.9776    4.0792 H   0  0  0  0  0  0  0  0  0  0  0  0
    0.8580   -2.0101    2.6986 C   0  0  0  0  0  0  0  0  0  0  0  0
    0.9048   -2.8456    3.2505 H   0  0  0  0  0  0  0  0  0  0  0  0
    0.1734   -2.1323    1.9770 H   0  0  0  0  0  0  0  0  0  0  0  0
    2.2119   -1.7656    2.0589 C   0  0  0  0  0  0  0  0  0  0  0  0
    2.1603   -0.9291    1.5108 H   0  0  0  0  0  0  0  0  0  0  0  0
    2.8921   -1.6437    2.7837 H   0  0  0  0  0  0  0  0  0  0  0  0
    2.5293   -2.5865    1.4159 H   0  0  0  0  0  0  0  0  0  0  0  0
  1  5  1  0
  5  6  1  0
  5  7  2  0
  1  2  1  0
  1  3  1  0
  1  4  1  0
  8 12  1  0
 12 15  1  0
  8  9  1  0
  8 10  1  0
  8 11  1  0
 12 13  1  0
 12 14  1  0
 15 16  1  0
 15 17  1  0
 15 18  1  0
M  CHG  1   6  -1
M  END
>  <PDB_ID>  (1650) 
pdb3s99

>  <RESIDUE_NAME>  (1650) 
ASP   LYS

>  <FRAG_NAME>  (1650) 
ACET   PRPA

>  <FRAG_ATOM_NUM>  (1650) 
fragi: 7  fragj: 11

>  <atom.prop.CHAIN_ID>  (1650) 
A A A A A A A Z Z Z Z Z Z Z Z Z Z Z

>  <atom.prop.IS_HEAVY_ATOM>  (1650) 
1 0 0 0 1 1 1 1 0 0 0 1 0 0 1 0 0 0

>  <DIFUSE_FUNC_ATOM>  (1650) 
atom 6   atom 7   

>  <FINAL_SINGLE_POINT_ENERGY>  (1650) 
0

>  <NONCOV_INTER_ENERGY_QM>  (1650) 
0

>  <FF_Energy>  (1650) 
20.98

>  <QM_Energy>  (1650) 
-0.09

>  <source>  (1650) 
ACET_PRPA_19

>  <Index>  (1650) 
24539

$$$$
ACET-pdb3s99-A-ASP-187:PRPA-pdb3s99-A-LYS-190
     RDKit          3D

 18 16  0  0  0  0  0  0  0  0999 V2000
    0.0425    1.5368    0.0224 C   0  0  0  0  0  0  0  0  0  0  0  0
    0.7118    1.8376   -0.6477 H   0  0  0  0  0  0  0  0  0  0  0  0
    0.3096    1.8262    0.9335 H   0  0  0  0  0  0  0  0  0  0  0  0
   -0.9158    1.9971   -0.2180 H   0  0  0  0  0  0  0  0  0  0  0  0
    0.0000    0.0000    0.0000 C   0  0  0  0  0  0  0  0  0  0  0  0
   -1.0931   -0.6058   -0.0000 O   0  0  0  0  0  1  0  0  0  0  0  0
    1.0931   -0.6010   -0.0000 O   0  0  0  0  0  0  0  0  0  0  0  0
    0.8580   -2.0101    2.6986 C   0  0  0  0  0  0  0  0  0  0  0  0
    0.9048   -2.8456    3.2505 H   0  0  0  0  0  0  0  0  0  0  0  0
    0.1734   -2.1323    1.9770 H   0  0  0  0  0  0  0  0  0  0  0  0
    0.5538   -1.1816    3.3383 H   0  0  0  0  0  0  0  0  0  0  0  0
    2.2119   -1.7656    2.0589 C   0  0  0  0  0  0  0  0  0  0  0  0
    2.1603   -0.9291    1.5108 H   0  0  0  0  0  0  0  0  0  0  0  0
    2.8921   -1.6437    2.7837 H   0  0  0  0  0  0  0  0  0  0  0  0
    2.6511   -2.9018    1.1690 C   0  0  0  0  0  0  0  0  0  0  0  0
    2.7095   -3.7415    1.7105 H   0  0  0  0  0  0  0  0  0  0  0  0
    1.9784   -3.0275    0.4378 H   0  0  0  0  0  0  0  0  0  0  0  0
    3.6250   -2.6926    0.7266 H   0  0  0  0  0  0  0  0  0  0  0  0
  1  5  1  0
  5  6  1  0
  5  7  2  0
  1  2  1  0
  1  3  1  0
  1  4  1  0
  8 12  1  0
 12 15  1  0
  8  9  1  0
  8 10  1  0
  8 11  1  0
 12 13  1  0
 12 14  1  0
 15 16  1  0
 15 17  1  0
 15 18  1  0
M  CHG  1   6  -1
M  END
>  <PDB_ID>  (1651) 
pdb3s99

>  <RESIDUE_NAME>  (1651) 
ASP   LYS

>  <FRAG_NAME>  (1651) 
ACET   PRPA

>  <FRAG_ATOM_NUM>  (1651) 
fragi: 7  fragj: 11

>  <atom.prop.CHAIN_ID>  (1651) 
A A A A A A A Z Z Z Z Z Z Z Z Z Z Z

>  <atom.prop.IS_HEAVY_ATOM>  (1651) 
1 0 0 0 1 1 1 1 0 0 0 1 0 0 1 0 0 0

>  <DIFUSE_FUNC_ATOM>  (1651) 
atom 6   atom 7   

>  <FINAL_SINGLE_POINT_ENERGY>  (1651) 
0

>  <NONCOV_INTER_ENERGY_QM>  (1651) 
0

>  <FF_Energy>  (1651) 
24.05

>  <QM_Energy>  (1651) 
-0.6

>  <source>  (1651) 
ACET_PRPA_19

>  <Index>  (1651) 
24551

$$$$
ACET-pdb3s40-A-GLU-191:PRPA-pdb3s40-A-LYS-182
     RDKit          3D

 18 16  0  0  0  0  0  0  0  0999 V2000
   -0.0034    1.5191   -0.0076 C   0  0  0  0  0  0  0  0  0  0  0  0
    0.9223    1.8153   -0.1501 H   0  0  0  0  0  0  0  0  0  0  0  0
   -0.3621    1.8164    0.8574 H   0  0  0  0  0  0  0  0  0  0  0  0
   -0.6252    1.9313   -0.8022 H   0  0  0  0  0  0  0  0  0  0  0  0
    0.0000    0.0000    0.0000 C   0  0  0  0  0  0  0  0  0  0  0  0
   -1.0998   -0.5975    0.0000 O   0  0  0  0  0  1  0  0  0  0  0  0
    1.0998   -0.5955   -0.0000 O   0  0  0  0  0  0  0  0  0  0  0  0
    1.3298    4.1901    2.6096 C   0  0  0  0  0  0  0  0  0  0  0  0
    0.5991    4.0790    1.9534 H   0  0  0  0  0  0  0  0  0  0  0  0
    2.0528    4.9123    2.2308 H   0  0  0  0  0  0  0  0  0  0  0  0
    0.9227    4.6313    3.5194 H   0  0  0  0  0  0  0  0  0  0  0  0
    2.0410    2.8778    2.9301 C   0  0  0  0  0  0  0  0  0  0  0  0
    2.7640    2.7419    2.2479 H   0  0  0  0  0  0  0  0  0  0  0  0
    2.4636    2.9667    3.8371 H   0  0  0  0  0  0  0  0  0  0  0  0
    1.1530    1.6535    2.9345 C   0  0  0  0  0  0  0  0  0  0  0  0
    0.5721    1.6674    3.7464 H   0  0  0  0  0  0  0  0  0  0  0  0
    0.5863    1.6503    2.1133 H   0  0  0  0  0  0  0  0  0  0  0  0
    1.7492    0.7411    2.9493 H   0  0  0  0  0  0  0  0  0  0  0  0
  1  5  1  0
  5  6  1  0
  5  7  2  0
  1  2  1  0
  1  3  1  0
  1  4  1  0
  8 12  1  0
 12 15  1  0
  8  9  1  0
  8 10  1  0
  8 11  1  0
 12 13  1  0
 12 14  1  0
 15 16  1  0
 15 17  1  0
 15 18  1  0
M  CHG  1   6  -1
M  END
>  <PDB_ID>  (1652) 
pdb3s40

>  <RESIDUE_NAME>  (1652) 
GLU   LYS

>  <FRAG_NAME>  (1652) 
ACET   PRPA

>  <FRAG_ATOM_NUM>  (1652) 
fragi: 7  fragj: 11

>  <atom.prop.CHAIN_ID>  (1652) 
A A A A A A A Z Z Z Z Z Z Z Z Z Z Z

>  <atom.prop.IS_HEAVY_ATOM>  (1652) 
1 0 0 0 1 1 1 1 0 0 0 1 0 0 1 0 0 0

>  <DIFUSE_FUNC_ATOM>  (1652) 
atom 6   atom 7   

>  <FINAL_SINGLE_POINT_ENERGY>  (1652) 
0

>  <NONCOV_INTER_ENERGY_QM>  (1652) 
0

>  <FF_Energy>  (1652) 
19.09

>  <QM_Energy>  (1652) 
2.28

>  <source>  (1652) 
ACET_PRPA_19

>  <Index>  (1652) 
25272

$$$$
ACET-pdb3s40-A-GLU-191:PRPA-pdb3s40-A-LYS-182
     RDKit          3D

 18 16  0  0  0  0  0  0  0  0999 V2000
   -0.0034    1.5191   -0.0076 C   0  0  0  0  0  0  0  0  0  0  0  0
    0.9223    1.8153   -0.1501 H   0  0  0  0  0  0  0  0  0  0  0  0
   -0.3621    1.8164    0.8574 H   0  0  0  0  0  0  0  0  0  0  0  0
   -0.6252    1.9313   -0.8022 H   0  0  0  0  0  0  0  0  0  0  0  0
    0.0000    0.0000    0.0000 C   0  0  0  0  0  0  0  0  0  0  0  0
   -1.0998   -0.5975    0.0000 O   0  0  0  0  0  1  0  0  0  0  0  0
    1.0998   -0.5955   -0.0000 O   0  0  0  0  0  0  0  0  0  0  0  0
    2.0410    2.8778    2.9301 C   0  0  0  0  0  0  0  0  0  0  0  0
    2.7640    2.7419    2.2479 H   0  0  0  0  0  0  0  0  0  0  0  0
    2.4636    2.9667    3.8371 H   0  0  0  0  0  0  0  0  0  0  0  0
    1.5332    3.8148    2.7013 H   0  0  0  0  0  0  0  0  0  0  0  0
    1.1530    1.6535    2.9345 C   0  0  0  0  0  0  0  0  0  0  0  0
    0.5721    1.6674    3.7464 H   0  0  0  0  0  0  0  0  0  0  0  0
    0.5863    1.6503    2.1133 H   0  0  0  0  0  0  0  0  0  0  0  0
    1.9883    0.3753    2.9552 C   0  0  0  0  0  0  0  0  0  0  0  0
    2.2510    0.1772    3.8941 H   0  0  0  0  0  0  0  0  0  0  0  0
    1.4457   -0.3712    2.5831 H   0  0  0  0  0  0  0  0  0  0  0  0
    2.8956    0.4694    2.3587 H   0  0  0  0  0  0  0  0  0  0  0  0
  1  5  1  0
  5  6  1  0
  5  7  2  0
  1  2  1  0
  1  3  1  0
  1  4  1  0
  8 12  1  0
 12 15  1  0
  8  9  1  0
  8 10  1  0
  8 11  1  0
 12 13  1  0
 12 14  1  0
 15 16  1  0
 15 17  1  0
 15 18  1  0
M  CHG  1   6  -1
M  END
>  <PDB_ID>  (1653) 
pdb3s40

>  <RESIDUE_NAME>  (1653) 
GLU   LYS

>  <FRAG_NAME>  (1653) 
ACET   PRPA

>  <FRAG_ATOM_NUM>  (1653) 
fragi: 7  fragj: 11

>  <atom.prop.CHAIN_ID>  (1653) 
A A A A A A A Z Z Z Z Z Z Z Z Z Z Z

>  <atom.prop.IS_HEAVY_ATOM>  (1653) 
1 0 0 0 1 1 1 1 0 0 0 1 0 0 1 0 0 0

>  <DIFUSE_FUNC_ATOM>  (1653) 
atom 6   atom 7   

>  <FINAL_SINGLE_POINT_ENERGY>  (1653) 
0

>  <NONCOV_INTER_ENERGY_QM>  (1653) 
0

>  <FF_Energy>  (1653) 
22.51

>  <QM_Energy>  (1653) 
1.25

>  <source>  (1653) 
ACET_PRPA_19

>  <Index>  (1653) 
25279

$$$$
ACET-pdb3s40-A-GLU-191:PRPA-pdb3s40-A-LYS-182
     RDKit          3D

 18 16  0  0  0  0  0  0  0  0999 V2000
   -0.0034    1.5191   -0.0076 C   0  0  0  0  0  0  0  0  0  0  0  0
    0.9223    1.8153   -0.1501 H   0  0  0  0  0  0  0  0  0  0  0  0
   -0.3621    1.8164    0.8574 H   0  0  0  0  0  0  0  0  0  0  0  0
   -0.6252    1.9313   -0.8022 H   0  0  0  0  0  0  0  0  0  0  0  0
    0.0000    0.0000    0.0000 C   0  0  0  0  0  0  0  0  0  0  0  0
   -1.0998   -0.5975    0.0000 O   0  0  0  0  0  1  0  0  0  0  0  0
    1.0998   -0.5955   -0.0000 O   0  0  0  0  0  0  0  0  0  0  0  0
    1.1530    1.6535    2.9345 C   0  0  0  0  0  0  0  0  0  0  0  0
    0.5721    1.6674    3.7464 H   0  0  0  0  0  0  0  0  0  0  0  0
    0.5863    1.6503    2.1133 H   0  0  0  0  0  0  0  0  0  0  0  0
    1.7930    2.5358    2.9313 H   0  0  0  0  0  0  0  0  0  0  0  0
    1.9883    0.3753    2.9552 C   0  0  0  0  0  0  0  0  0  0  0  0
    2.2510    0.1772    3.8941 H   0  0  0  0  0  0  0  0  0  0  0  0
    1.4457   -0.3712    2.5831 H   0  0  0  0  0  0  0  0  0  0  0  0
    3.2656    0.5078    2.1154 C   0  0  0  0  0  0  0  0  0  0  0  0
    3.8725    1.1827    2.5606 H   0  0  0  0  0  0  0  0  0  0  0  0
    3.7422   -0.3829    2.1161 H   0  0  0  0  0  0  0  0  0  0  0  0
    3.0857    0.8152    1.0851 H   0  0  0  0  0  0  0  0  0  0  0  0
  1  5  1  0
  5  6  1  0
  5  7  2  0
  1  2  1  0
  1  3  1  0
  1  4  1  0
  8 12  1  0
 12 15  1  0
  8  9  1  0
  8 10  1  0
  8 11  1  0
 12 13  1  0
 12 14  1  0
 15 16  1  0
 15 17  1  0
 15 18  1  0
M  CHG  1   6  -1
M  END
>  <PDB_ID>  (1654) 
pdb3s40

>  <RESIDUE_NAME>  (1654) 
GLU   LYS

>  <FRAG_NAME>  (1654) 
ACET   PRPA

>  <FRAG_ATOM_NUM>  (1654) 
fragi: 7  fragj: 11

>  <atom.prop.CHAIN_ID>  (1654) 
A A A A A A A Z Z Z Z Z Z Z Z Z Z Z

>  <atom.prop.IS_HEAVY_ATOM>  (1654) 
1 0 0 0 1 1 1 1 0 0 0 1 0 0 1 0 0 0

>  <DIFUSE_FUNC_ATOM>  (1654) 
atom 6   atom 7   

>  <FINAL_SINGLE_POINT_ENERGY>  (1654) 
0

>  <NONCOV_INTER_ENERGY_QM>  (1654) 
0

>  <FF_Energy>  (1654) 
20.14

>  <QM_Energy>  (1654) 
0.78

>  <source>  (1654) 
ACET_PRPA_19

>  <Index>  (1654) 
25290

$$$$
ACET-pdb3s6j-A-ASP-232:PRPA-pdb3s6j-A-LYS-235
     RDKit          3D

 18 16  0  0  0  0  0  0  0  0999 V2000
    0.0166    1.5205    0.0215 C   0  0  0  0  0  0  0  0  0  0  0  0
    0.8735    1.8351   -0.3749 H   0  0  0  0  0  0  0  0  0  0  0  0
   -0.0616    1.8264    0.9640 H   0  0  0  0  0  0  0  0  0  0  0  0
   -0.8000    1.9667   -0.5460 H   0  0  0  0  0  0  0  0  0  0  0  0
    0.0000    0.0000    0.0000 C   0  0  0  0  0  0  0  0  0  0  0  0
   -1.1046   -0.6031   -0.0000 O   0  0  0  0  0  1  0  0  0  0  0  0
    1.1046   -0.5904   -0.0000 O   0  0  0  0  0  0  0  0  0  0  0  0
   -0.0309    1.8365    3.4698 C   0  0  0  0  0  0  0  0  0  0  0  0
   -0.2018    2.0192    2.5019 H   0  0  0  0  0  0  0  0  0  0  0  0
    0.3783    2.6458    3.8931 H   0  0  0  0  0  0  0  0  0  0  0  0
   -0.9887    1.6475    3.9547 H   0  0  0  0  0  0  0  0  0  0  0  0
    0.9645    0.6894    3.5703 C   0  0  0  0  0  0  0  0  0  0  0  0
    0.5274   -0.1524    3.2551 H   0  0  0  0  0  0  0  0  0  0  0  0
    1.7564    0.8906    2.9958 H   0  0  0  0  0  0  0  0  0  0  0  0
    1.4412    0.4840    5.0085 C   0  0  0  0  0  0  0  0  0  0  0  0
    0.7133    0.0466    5.5276 H   0  0  0  0  0  0  0  0  0  0  0  0
    2.2525   -0.0918    4.9988 H   0  0  0  0  0  0  0  0  0  0  0  0
    1.6929    1.4270    5.4937 H   0  0  0  0  0  0  0  0  0  0  0  0
  1  5  1  0
  5  6  1  0
  5  7  2  0
  1  2  1  0
  1  3  1  0
  1  4  1  0
  8 12  1  0
 12 15  1  0
  8  9  1  0
  8 10  1  0
  8 11  1  0
 12 13  1  0
 12 14  1  0
 15 16  1  0
 15 17  1  0
 15 18  1  0
M  CHG  1   6  -1
M  END
>  <PDB_ID>  (1655) 
pdb3s6j

>  <RESIDUE_NAME>  (1655) 
ASP   LYS

>  <FRAG_NAME>  (1655) 
ACET   PRPA

>  <FRAG_ATOM_NUM>  (1655) 
fragi: 7  fragj: 11

>  <atom.prop.CHAIN_ID>  (1655) 
A A A A A A A Z Z Z Z Z Z Z Z Z Z Z

>  <atom.prop.IS_HEAVY_ATOM>  (1655) 
1 0 0 0 1 1 1 1 0 0 0 1 0 0 1 0 0 0

>  <DIFUSE_FUNC_ATOM>  (1655) 
atom 6   atom 7   

>  <FINAL_SINGLE_POINT_ENERGY>  (1655) 
0

>  <NONCOV_INTER_ENERGY_QM>  (1655) 
0

>  <FF_Energy>  (1655) 
15.94

>  <QM_Energy>  (1655) 
0.63

>  <source>  (1655) 
ACET_PRPA_19

>  <Index>  (1655) 
25324

$$$$
ACET-pdb4py3-A-GLU-141:PRPA-pdb4py3-A-LYS-127
     RDKit          3D

 18 16  0  0  0  0  0  0  0  0999 V2000
    0.0082    1.5188   -0.0112 C   0  0  0  0  0  0  0  0  0  0  0  0
    0.5099    1.8077   -0.8045 H   0  0  0  0  0  0  0  0  0  0  0  0
    0.4253    1.8203    0.8254 H   0  0  0  0  0  0  0  0  0  0  0  0
   -0.9922    1.9479   -0.0674 H   0  0  0  0  0  0  0  0  0  0  0  0
    0.0000    0.0000    0.0000 C   0  0  0  0  0  0  0  0  0  0  0  0
   -1.1105   -0.5963   -0.0000 O   0  0  0  0  0  1  0  0  0  0  0  0
    1.1105   -0.5902   -0.0000 O   0  0  0  0  0  0  0  0  0  0  0  0
    4.2636    0.6484   -2.1386 C   0  0  0  0  0  0  0  0  0  0  0  0
    4.0337   -0.2566   -2.5097 H   0  0  0  0  0  0  0  0  0  0  0  0
    5.2144    0.6323   -1.8154 H   0  0  0  0  0  0  0  0  0  0  0  0
    4.1743    1.3875   -2.9348 H   0  0  0  0  0  0  0  0  0  0  0  0
    3.3503    0.9485   -0.9726 C   0  0  0  0  0  0  0  0  0  0  0  0
    3.5822    1.8538   -0.6057 H   0  0  0  0  0  0  0  0  0  0  0  0
    2.4019    0.9628   -1.2987 H   0  0  0  0  0  0  0  0  0  0  0  0
    3.4605   -0.0646    0.1408 C   0  0  0  0  0  0  0  0  0  0  0  0
    3.2238   -0.9706   -0.2147 H   0  0  0  0  0  0  0  0  0  0  0  0
    4.4036   -0.0809    0.4788 H   0  0  0  0  0  0  0  0  0  0  0  0
    2.7896    0.1837    0.9632 H   0  0  0  0  0  0  0  0  0  0  0  0
  1  5  1  0
  5  6  1  0
  5  7  2  0
  1  2  1  0
  1  3  1  0
  1  4  1  0
  8 12  1  0
 12 15  1  0
  8  9  1  0
  8 10  1  0
  8 11  1  0
 12 13  1  0
 12 14  1  0
 15 16  1  0
 15 17  1  0
 15 18  1  0
M  CHG  1   6  -1
M  END
>  <PDB_ID>  (1656) 
pdb4py3

>  <RESIDUE_NAME>  (1656) 
GLU   LYS

>  <FRAG_NAME>  (1656) 
ACET   PRPA

>  <FRAG_ATOM_NUM>  (1656) 
fragi: 7  fragj: 11

>  <atom.prop.CHAIN_ID>  (1656) 
A A A A A A A Z Z Z Z Z Z Z Z Z Z Z

>  <atom.prop.IS_HEAVY_ATOM>  (1656) 
1 0 0 0 1 1 1 1 0 0 0 1 0 0 1 0 0 0

>  <DIFUSE_FUNC_ATOM>  (1656) 
atom 6   atom 7   

>  <FINAL_SINGLE_POINT_ENERGY>  (1656) 
0

>  <NONCOV_INTER_ENERGY_QM>  (1656) 
0

>  <FF_Energy>  (1656) 
24.69

>  <QM_Energy>  (1656) 
6.75

>  <source>  (1656) 
ACET_PRPA_19

>  <Index>  (1656) 
26233

$$$$
ACET-pdb3sbx-A-GLU-93:PRPA-pdb3sbx-A-LYS-74
     RDKit          3D

 18 16  0  0  0  0  0  0  0  0999 V2000
    0.0054    1.5244    0.0006 C   0  0  0  0  0  0  0  0  0  0  0  0
   -0.1268    1.8192   -0.9247 H   0  0  0  0  0  0  0  0  0  0  0  0
    0.8665    1.8143    0.3700 H   0  0  0  0  0  0  0  0  0  0  0  0
   -0.7932    1.9434    0.6127 H   0  0  0  0  0  0  0  0  0  0  0  0
    0.0000    0.0000    0.0000 C   0  0  0  0  0  0  0  0  0  0  0  0
   -1.1046   -0.6014    0.0000 O   0  0  0  0  0  1  0  0  0  0  0  0
    1.1046   -0.5931   -0.0000 O   0  0  0  0  0  0  0  0  0  0  0  0
    0.0775   -1.8221    4.2766 C   0  0  0  0  0  0  0  0  0  0  0  0
   -0.4523   -2.6492    4.4716 H   0  0  0  0  0  0  0  0  0  0  0  0
   -0.5254   -1.0251    4.3188 H   0  0  0  0  0  0  0  0  0  0  0  0
    0.8586   -1.7164    5.0294 H   0  0  0  0  0  0  0  0  0  0  0  0
    0.6591   -1.9272    2.8789 C   0  0  0  0  0  0  0  0  0  0  0  0
    1.1892   -1.1005    2.6885 H   0  0  0  0  0  0  0  0  0  0  0  0
    1.2619   -2.7248    2.8400 H   0  0  0  0  0  0  0  0  0  0  0  0
   -0.4065   -2.0741    1.8158 C   0  0  0  0  0  0  0  0  0  0  0  0
   -1.0386   -2.8025    2.0825 H   0  0  0  0  0  0  0  0  0  0  0  0
   -0.9080   -1.2130    1.7327 H   0  0  0  0  0  0  0  0  0  0  0  0
    0.0409   -2.3222    0.8533 H   0  0  0  0  0  0  0  0  0  0  0  0
  1  5  1  0
  5  6  1  0
  5  7  2  0
  1  2  1  0
  1  3  1  0
  1  4  1  0
  8 12  1  0
 12 15  1  0
  8  9  1  0
  8 10  1  0
  8 11  1  0
 12 13  1  0
 12 14  1  0
 15 16  1  0
 15 17  1  0
 15 18  1  0
M  CHG  1   6  -1
M  END
>  <PDB_ID>  (1657) 
pdb3sbx

>  <RESIDUE_NAME>  (1657) 
GLU   LYS

>  <FRAG_NAME>  (1657) 
ACET   PRPA

>  <FRAG_ATOM_NUM>  (1657) 
fragi: 7  fragj: 11

>  <atom.prop.CHAIN_ID>  (1657) 
A A A A A A A Z Z Z Z Z Z Z Z Z Z Z

>  <atom.prop.IS_HEAVY_ATOM>  (1657) 
1 0 0 0 1 1 1 1 0 0 0 1 0 0 1 0 0 0

>  <DIFUSE_FUNC_ATOM>  (1657) 
atom 6   atom 7   

>  <FINAL_SINGLE_POINT_ENERGY>  (1657) 
0

>  <NONCOV_INTER_ENERGY_QM>  (1657) 
0

>  <FF_Energy>  (1657) 
45.87

>  <QM_Energy>  (1657) 
12.16

>  <source>  (1657) 
ACET_PRPA_19

>  <Index>  (1657) 
26942

$$$$
ACET-pdb4qcl-A-GLU-415:PRPA-pdb4qcl-A-LYS-411
     RDKit          3D

 18 16  0  0  0  0  0  0  0  0999 V2000
   -0.0050    1.5063    0.0057 C   0  0  0  0  0  0  0  0  0  0  0  0
   -0.4735    1.8080   -0.8020 H   0  0  0  0  0  0  0  0  0  0  0  0
    0.9281    1.8086    0.0352 H   0  0  0  0  0  0  0  0  0  0  0  0
   -0.5254    1.9089    0.8747 H   0  0  0  0  0  0  0  0  0  0  0  0
    0.0000    0.0000    0.0000 C   0  0  0  0  0  0  0  0  0  0  0  0
   -1.0976   -0.5943   -0.0000 O   0  0  0  0  0  1  0  0  0  0  0  0
    1.0976   -0.5924    0.0000 O   0  0  0  0  0  0  0  0  0  0  0  0
    4.0176    0.4475   -0.8031 C   0  0  0  0  0  0  0  0  0  0  0  0
    3.1534    0.6249   -0.3115 H   0  0  0  0  0  0  0  0  0  0  0  0
    4.0101    0.9927   -1.6524 H   0  0  0  0  0  0  0  0  0  0  0  0
    4.8484    0.7800   -0.1807 H   0  0  0  0  0  0  0  0  0  0  0  0
    4.0787   -1.0264   -1.1677 C   0  0  0  0  0  0  0  0  0  0  0  0
    4.9021   -1.1987   -1.6852 H   0  0  0  0  0  0  0  0  0  0  0  0
    4.0480   -1.5677   -0.3432 H   0  0  0  0  0  0  0  0  0  0  0  0
    2.8743   -1.4006   -2.0362 C   0  0  0  0  0  0  0  0  0  0  0  0
    2.0376   -1.0471   -1.5933 H   0  0  0  0  0  0  0  0  0  0  0  0
    2.9671   -0.9376   -2.9302 H   0  0  0  0  0  0  0  0  0  0  0  0
    2.7659   -2.4728   -2.1996 H   0  0  0  0  0  0  0  0  0  0  0  0
  1  5  1  0
  5  6  1  0
  5  7  2  0
  1  2  1  0
  1  3  1  0
  1  4  1  0
  8 12  1  0
 12 15  1  0
  8  9  1  0
  8 10  1  0
  8 11  1  0
 12 13  1  0
 12 14  1  0
 15 16  1  0
 15 17  1  0
 15 18  1  0
M  CHG  1   6  -1
M  END
>  <PDB_ID>  (1658) 
pdb4qcl

>  <RESIDUE_NAME>  (1658) 
GLU   LYS

>  <FRAG_NAME>  (1658) 
ACET   PRPA

>  <FRAG_ATOM_NUM>  (1658) 
fragi: 7  fragj: 11

>  <atom.prop.CHAIN_ID>  (1658) 
A A A A A A A Z Z Z Z Z Z Z Z Z Z Z

>  <atom.prop.IS_HEAVY_ATOM>  (1658) 
1 0 0 0 1 1 1 1 0 0 0 1 0 0 1 0 0 0

>  <DIFUSE_FUNC_ATOM>  (1658) 
atom 6   atom 7   

>  <FINAL_SINGLE_POINT_ENERGY>  (1658) 
0

>  <NONCOV_INTER_ENERGY_QM>  (1658) 
0

>  <FF_Energy>  (1658) 
14.65

>  <QM_Energy>  (1658) 
-2.15

>  <source>  (1658) 
ACET_PRPA_19

>  <Index>  (1658) 
27476

$$$$
ACET-pdb3sto-A-GLU-112:PRPA-pdb3sto-A-LEU-107
     RDKit          3D

 18 16  0  0  0  0  0  0  0  0999 V2000
   -0.0053    1.5136    0.0197 C   0  0  0  0  0  0  0  0  0  0  0  0
    0.1585    1.8226   -0.8941 H   0  0  0  0  0  0  0  0  0  0  0  0
    0.6840    1.8041    0.6509 H   0  0  0  0  0  0  0  0  0  0  0  0
   -0.9668    1.9062    0.3504 H   0  0  0  0  0  0  0  0  0  0  0  0
    0.0000    0.0000    0.0000 C   0  0  0  0  0  0  0  0  0  0  0  0
   -1.1064   -0.5978   -0.0000 O   0  0  0  0  0  1  0  0  0  0  0  0
    1.1064   -0.5887    0.0000 O   0  0  0  0  0  0  0  0  0  0  0  0
    4.0825    3.4156   -0.9044 C   0  0  0  0  0  0  0  0  0  0  0  0
    4.0354    2.8479   -1.7212 H   0  0  0  0  0  0  0  0  0  0  0  0
    4.8972    3.1972   -0.3782 H   0  0  0  0  0  0  0  0  0  0  0  0
    4.1651    4.4533   -1.2274 H   0  0  0  0  0  0  0  0  0  0  0  0
    2.8707    3.0819   -0.0409 C   0  0  0  0  0  0  0  0  0  0  0  0
    2.0380    3.2793   -0.5520 H   0  0  0  0  0  0  0  0  0  0  0  0
    2.9039    3.6982    0.8574 H   0  0  0  0  0  0  0  0  0  0  0  0
    2.8886    1.5970    0.3343 C   0  0  0  0  0  0  0  0  0  0  0  0
    3.7236    1.3958    0.8446 H   0  0  0  0  0  0  0  0  0  0  0  0
    2.0915    1.3901    0.8986 H   0  0  0  0  0  0  0  0  0  0  0  0
    2.8633    1.0460   -0.4991 H   0  0  0  0  0  0  0  0  0  0  0  0
  1  5  1  0
  5  6  1  0
  5  7  2  0
  1  2  1  0
  1  3  1  0
  1  4  1  0
  8 12  1  0
 12 15  1  0
  8  9  1  0
  8 10  1  0
  8 11  1  0
 12 13  1  0
 12 14  1  0
 15 16  1  0
 15 17  1  0
 15 18  1  0
M  CHG  1   6  -1
M  END
>  <PDB_ID>  (1659) 
pdb3sto

>  <RESIDUE_NAME>  (1659) 
GLU   LEU

>  <FRAG_NAME>  (1659) 
ACET   PRPA

>  <FRAG_ATOM_NUM>  (1659) 
fragi: 7  fragj: 11

>  <atom.prop.CHAIN_ID>  (1659) 
A A A A A A A Z Z Z Z Z Z Z Z Z Z Z

>  <atom.prop.IS_HEAVY_ATOM>  (1659) 
1 0 0 0 1 1 1 1 0 0 0 1 0 0 1 0 0 0

>  <DIFUSE_FUNC_ATOM>  (1659) 
atom 6   atom 7   

>  <FINAL_SINGLE_POINT_ENERGY>  (1659) 
0

>  <NONCOV_INTER_ENERGY_QM>  (1659) 
0

>  <FF_Energy>  (1659) 
42.01

>  <QM_Energy>  (1659) 
7.52

>  <source>  (1659) 
ACET_PRPA_19

>  <Index>  (1659) 
32124

$$$$
ACET-pdb3sto-A-GLU-112:PRPA-pdb3sto-A-LEU-107
     RDKit          3D

 18 16  0  0  0  0  0  0  0  0999 V2000
   -0.0053    1.5136    0.0197 C   0  0  0  0  0  0  0  0  0  0  0  0
    0.1585    1.8226   -0.8941 H   0  0  0  0  0  0  0  0  0  0  0  0
    0.6840    1.8041    0.6509 H   0  0  0  0  0  0  0  0  0  0  0  0
   -0.9668    1.9062    0.3504 H   0  0  0  0  0  0  0  0  0  0  0  0
    0.0000    0.0000    0.0000 C   0  0  0  0  0  0  0  0  0  0  0  0
   -1.1064   -0.5978   -0.0000 O   0  0  0  0  0  1  0  0  0  0  0  0
    1.1064   -0.5887    0.0000 O   0  0  0  0  0  0  0  0  0  0  0  0
    2.8886    1.5970    0.3343 C   0  0  0  0  0  0  0  0  0  0  0  0
    3.7236    1.3958    0.8446 H   0  0  0  0  0  0  0  0  0  0  0  0
    2.0915    1.3901    0.8986 H   0  0  0  0  0  0  0  0  0  0  0  0
    2.8633    1.0460   -0.4991 H   0  0  0  0  0  0  0  0  0  0  0  0
    2.8707    3.0819   -0.0409 C   0  0  0  0  0  0  0  0  0  0  0  0
    2.0380    3.2793   -0.5520 H   0  0  0  0  0  0  0  0  0  0  0  0
    3.7368    3.3203   -0.6582 H   0  0  0  0  0  0  0  0  0  0  0  0
    2.9170    3.9418    1.2124 C   0  0  0  0  0  0  0  0  0  0  0  0
    2.8961    4.9091    0.9564 H   0  0  0  0  0  0  0  0  0  0  0  0
    2.1272    3.7342    1.7908 H   0  0  0  0  0  0  0  0  0  0  0  0
    3.7591    3.7506    1.7189 H   0  0  0  0  0  0  0  0  0  0  0  0
  1  5  1  0
  5  6  1  0
  5  7  2  0
  1  2  1  0
  1  3  1  0
  1  4  1  0
  8 12  1  0
 12 15  1  0
  8  9  1  0
  8 10  1  0
  8 11  1  0
 12 13  1  0
 12 14  1  0
 15 16  1  0
 15 17  1  0
 15 18  1  0
M  CHG  1   6  -1
M  END
>  <PDB_ID>  (1660) 
pdb3sto

>  <RESIDUE_NAME>  (1660) 
GLU   LEU

>  <FRAG_NAME>  (1660) 
ACET   PRPA

>  <FRAG_ATOM_NUM>  (1660) 
fragi: 7  fragj: 11

>  <atom.prop.CHAIN_ID>  (1660) 
A A A A A A A Z Z Z Z Z Z Z Z Z Z Z

>  <atom.prop.IS_HEAVY_ATOM>  (1660) 
1 0 0 0 1 1 1 1 0 0 0 1 0 0 1 0 0 0

>  <DIFUSE_FUNC_ATOM>  (1660) 
atom 6   atom 7   

>  <FINAL_SINGLE_POINT_ENERGY>  (1660) 
0

>  <NONCOV_INTER_ENERGY_QM>  (1660) 
0

>  <FF_Energy>  (1660) 
41.9

>  <QM_Energy>  (1660) 
7.48

>  <source>  (1660) 
ACET_PRPA_19

>  <Index>  (1660) 
32136

$$$$
ACET-pdb4qtj-A-ASP-19:PRPA-pdb4qtj-A-PRO-248
     RDKit          3D

 18 16  0  0  0  0  0  0  0  0999 V2000
    0.0129    1.4972   -0.0751 C   0  0  0  0  0  0  0  0  0  0  0  0
    0.8555    1.7916   -0.5111 H   0  0  0  0  0  0  0  0  0  0  0  0
   -0.0512    1.8674    0.8433 H   0  0  0  0  0  0  0  0  0  0  0  0
   -0.8251    1.8793   -0.6581 H   0  0  0  0  0  0  0  0  0  0  0  0
    0.0000    0.0000    0.0000 C   0  0  0  0  0  0  0  0  0  0  0  0
   -1.1243   -0.5913    0.0000 O   0  0  0  0  0  1  0  0  0  0  0  0
    1.1243   -0.5513   -0.0000 O   0  0  0  0  0  0  0  0  0  0  0  0
   -3.1359    1.2221    2.9060 C   0  0  0  0  0  0  0  0  0  0  0  0
   -3.9133    1.4608    2.3179 H   0  0  0  0  0  0  0  0  0  0  0  0
   -3.1099    1.8545    3.6836 H   0  0  0  0  0  0  0  0  0  0  0  0
   -3.2166    0.1911    3.2505 H   0  0  0  0  0  0  0  0  0  0  0  0
   -1.8568    1.2582    2.1429 C   0  0  0  0  0  0  0  0  0  0  0  0
   -2.0048    0.9679    1.1899 H   0  0  0  0  0  0  0  0  0  0  0  0
   -1.4765    2.1910    2.1338 H   0  0  0  0  0  0  0  0  0  0  0  0
   -0.9313    0.3107    2.8522 C   0  0  0  0  0  0  0  0  0  0  0  0
   -0.3221   -0.1558    2.2110 H   0  0  0  0  0  0  0  0  0  0  0  0
   -0.3839    0.7818    3.5463 H   0  0  0  0  0  0  0  0  0  0  0  0
   -1.6114   -0.4013    3.3199 H   0  0  0  0  0  0  0  0  0  0  0  0
  1  5  1  0
  5  6  1  0
  5  7  2  0
  1  2  1  0
  1  3  1  0
  1  4  1  0
  8 12  1  0
 12 15  1  0
  8  9  1  0
  8 10  1  0
  8 11  1  0
 12 13  1  0
 12 14  1  0
 15 16  1  0
 15 17  1  0
 15 18  1  0
M  CHG  1   6  -1
M  END
>  <PDB_ID>  (1661) 
pdb4qtj

>  <RESIDUE_NAME>  (1661) 
ASP   PRO

>  <FRAG_NAME>  (1661) 
ACET   PRPA

>  <FRAG_ATOM_NUM>  (1661) 
fragi: 7  fragj: 11

>  <atom.prop.CHAIN_ID>  (1661) 
A A A A A A A Z Z Z Z Z Z Z Z Z Z Z

>  <atom.prop.IS_HEAVY_ATOM>  (1661) 
1 0 0 0 1 1 1 1 0 0 0 1 0 0 1 0 0 0

>  <DIFUSE_FUNC_ATOM>  (1661) 
atom 6   atom 7   

>  <FINAL_SINGLE_POINT_ENERGY>  (1661) 
0

>  <NONCOV_INTER_ENERGY_QM>  (1661) 
0

>  <FF_Energy>  (1661) 
20.42

>  <QM_Energy>  (1661) 
2.17

>  <source>  (1661) 
ACET_PRPA_19

>  <Index>  (1661) 
32637

$$$$
ACET-pdb4qy4-A-GLU-1450:PRPA-pdb4qy4-A-LYS-1482
     RDKit          3D

 18 16  0  0  0  0  0  0  0  0999 V2000
   -0.0585    1.5352   -0.0166 C   0  0  0  0  0  0  0  0  0  0  0  0
   -0.7706    1.8007    0.6193 H   0  0  0  0  0  0  0  0  0  0  0  0
   -0.2936    1.8022   -0.9416 H   0  0  0  0  0  0  0  0  0  0  0  0
    0.8679    2.0342    0.2677 H   0  0  0  0  0  0  0  0  0  0  0  0
    0.0000    0.0000    0.0000 C   0  0  0  0  0  0  0  0  0  0  0  0
   -1.1012   -0.5692   -0.0000 O   0  0  0  0  0  1  0  0  0  0  0  0
    1.1012   -0.6329    0.0000 O   0  0  0  0  0  0  0  0  0  0  0  0
   -1.7347   -2.5258   -3.8747 C   0  0  0  0  0  0  0  0  0  0  0  0
   -1.4085   -1.5815   -3.9644 H   0  0  0  0  0  0  0  0  0  0  0  0
   -2.7058   -2.5618   -4.1216 H   0  0  0  0  0  0  0  0  0  0  0  0
   -1.1688   -3.1643   -4.5529 H   0  0  0  0  0  0  0  0  0  0  0  0
   -1.5795   -2.9625   -2.4304 C   0  0  0  0  0  0  0  0  0  0  0  0
   -1.8598   -3.9068   -2.3429 H   0  0  0  0  0  0  0  0  0  0  0  0
   -0.6387   -2.8399   -2.1504 H   0  0  0  0  0  0  0  0  0  0  0  0
   -2.4679   -2.1102   -1.5163 C   0  0  0  0  0  0  0  0  0  0  0  0
   -2.4140   -2.4831   -0.5783 H   0  0  0  0  0  0  0  0  0  0  0  0
   -2.0977   -1.1694   -1.4953 H   0  0  0  0  0  0  0  0  0  0  0  0
   -3.5129   -2.0736   -1.8241 H   0  0  0  0  0  0  0  0  0  0  0  0
  1  5  1  0
  5  6  1  0
  5  7  2  0
  1  2  1  0
  1  3  1  0
  1  4  1  0
  8 12  1  0
 12 15  1  0
  8  9  1  0
  8 10  1  0
  8 11  1  0
 12 13  1  0
 12 14  1  0
 15 16  1  0
 15 17  1  0
 15 18  1  0
M  CHG  1   6  -1
M  END
>  <PDB_ID>  (1662) 
pdb4qy4

>  <RESIDUE_NAME>  (1662) 
GLU   LYS

>  <FRAG_NAME>  (1662) 
ACET   PRPA

>  <FRAG_ATOM_NUM>  (1662) 
fragi: 7  fragj: 11

>  <atom.prop.CHAIN_ID>  (1662) 
A A A A A A A Z Z Z Z Z Z Z Z Z Z Z

>  <atom.prop.IS_HEAVY_ATOM>  (1662) 
1 0 0 0 1 1 1 1 0 0 0 1 0 0 1 0 0 0

>  <DIFUSE_FUNC_ATOM>  (1662) 
atom 6   atom 7   

>  <FINAL_SINGLE_POINT_ENERGY>  (1662) 
0

>  <NONCOV_INTER_ENERGY_QM>  (1662) 
0

>  <FF_Energy>  (1662) 
20.81

>  <QM_Energy>  (1662) 
2.87

>  <source>  (1662) 
ACET_PRPA_19

>  <Index>  (1662) 
34464

$$$$
ACET-pdb3t4r-A-GLU-49:PRPA-pdb3t4r-A-GLU-52
     RDKit          3D

 18 16  0  0  0  0  0  0  0  0999 V2000
   -0.0526    1.6088    0.1856 C   0  0  0  0  0  0  0  0  0  0  0  0
    0.0879    1.7609    1.1346 H   0  0  0  0  0  0  0  0  0  0  0  0
   -0.9300    1.8734   -0.1367 H   0  0  0  0  0  0  0  0  0  0  0  0
    0.7190    2.1256   -0.3850 H   0  0  0  0  0  0  0  0  0  0  0  0
    0.0000    0.0000    0.0000 C   0  0  0  0  0  0  0  0  0  0  0  0
   -1.1932   -0.6984    0.0000 O   0  0  0  0  0  1  0  0  0  0  0  0
    1.1932   -0.5204   -0.0000 O   0  0  0  0  0  0  0  0  0  0  0  0
   -3.3377    0.6023   -2.1745 C   0  0  0  0  0  0  0  0  0  0  0  0
   -4.0082   -0.0752   -1.8452 H   0  0  0  0  0  0  0  0  0  0  0  0
   -2.4161    0.0992   -2.4669 H   0  0  0  0  0  0  0  0  0  0  0  0
   -3.7574    1.1512   -3.0175 H   0  0  0  0  0  0  0  0  0  0  0  0
   -3.1305    1.5682   -1.0017 C   0  0  0  0  0  0  0  0  0  0  0  0
   -2.2381    1.3973   -0.6290 H   0  0  0  0  0  0  0  0  0  0  0  0
   -3.2228    2.4822   -1.3481 H   0  0  0  0  0  0  0  0  0  0  0  0
   -4.1419    1.3931    0.1207 C   0  0  0  0  0  0  0  0  0  0  0  0
   -4.9168    1.9666   -0.0594 H   0  0  0  0  0  0  0  0  0  0  0  0
   -4.3812    0.4445    0.1881 H   0  0  0  0  0  0  0  0  0  0  0  0
   -3.7532    1.6879    1.0955 H   0  0  0  0  0  0  0  0  0  0  0  0
  1  5  1  0
  5  6  1  0
  5  7  2  0
  1  2  1  0
  1  3  1  0
  1  4  1  0
  8 12  1  0
 12 15  1  0
  8  9  1  0
  8 10  1  0
  8 11  1  0
 12 13  1  0
 12 14  1  0
 15 16  1  0
 15 17  1  0
 15 18  1  0
M  CHG  1   6  -1
M  END
>  <PDB_ID>  (1663) 
pdb3t4r

>  <RESIDUE_NAME>  (1663) 
GLU   GLU

>  <FRAG_NAME>  (1663) 
ACET   PRPA

>  <FRAG_ATOM_NUM>  (1663) 
fragi: 7  fragj: 11

>  <atom.prop.CHAIN_ID>  (1663) 
A A A A A A A Z Z Z Z Z Z Z Z Z Z Z

>  <atom.prop.IS_HEAVY_ATOM>  (1663) 
1 0 0 0 1 1 1 1 0 0 0 1 0 0 1 0 0 0

>  <DIFUSE_FUNC_ATOM>  (1663) 
atom 6   atom 7   

>  <FINAL_SINGLE_POINT_ENERGY>  (1663) 
0

>  <NONCOV_INTER_ENERGY_QM>  (1663) 
0

>  <FF_Energy>  (1663) 
40.47

>  <QM_Energy>  (1663) 
1.19

>  <source>  (1663) 
ACET_PRPA_19

>  <Index>  (1663) 
35300

$$$$
ACET-pdb4r2j-A-GLU-191:PRPA-pdb4r2j-A-LYS-155
     RDKit          3D

 18 16  0  0  0  0  0  0  0  0999 V2000
    0.0016    1.5102    0.0285 C   0  0  0  0  0  0  0  0  0  0  0  0
   -0.7874    1.8202   -0.4542 H   0  0  0  0  0  0  0  0  0  0  0  0
    0.8420    1.8165   -0.3599 H   0  0  0  0  0  0  0  0  0  0  0  0
   -0.0578    1.8774    1.0530 H   0  0  0  0  0  0  0  0  0  0  0  0
    0.0000    0.0000    0.0000 C   0  0  0  0  0  0  0  0  0  0  0  0
   -1.1026   -0.5943   -0.0000 O   0  0  0  0  0  1  0  0  0  0  0  0
    1.1026   -0.5970    0.0000 O   0  0  0  0  0  0  0  0  0  0  0  0
   -3.3670    0.6166    2.7770 C   0  0  0  0  0  0  0  0  0  0  0  0
   -3.1249    0.9355    1.8466 H   0  0  0  0  0  0  0  0  0  0  0  0
   -2.6344    0.9237    3.4046 H   0  0  0  0  0  0  0  0  0  0  0  0
   -4.2977    1.1003    3.0735 H   0  0  0  0  0  0  0  0  0  0  0  0
   -3.4091   -0.9050    2.7784 C   0  0  0  0  0  0  0  0  0  0  0  0
   -3.6538   -1.2085    3.7091 H   0  0  0  0  0  0  0  0  0  0  0  0
   -4.1436   -1.1970    2.1517 H   0  0  0  0  0  0  0  0  0  0  0  0
   -2.1352   -1.5402    2.3729 C   0  0  0  0  0  0  0  0  0  0  0  0
   -1.8872   -1.2467    1.4418 H   0  0  0  0  0  0  0  0  0  0  0  0
   -1.3970   -1.2587    2.9984 H   0  0  0  0  0  0  0  0  0  0  0  0
   -2.2059   -2.6278    2.3875 H   0  0  0  0  0  0  0  0  0  0  0  0
  1  5  1  0
  5  6  1  0
  5  7  2  0
  1  2  1  0
  1  3  1  0
  1  4  1  0
  8 12  1  0
 12 15  1  0
  8  9  1  0
  8 10  1  0
  8 11  1  0
 12 13  1  0
 12 14  1  0
 15 16  1  0
 15 17  1  0
 15 18  1  0
M  CHG  1   6  -1
M  END
>  <PDB_ID>  (1664) 
pdb4r2j

>  <RESIDUE_NAME>  (1664) 
GLU   LYS

>  <FRAG_NAME>  (1664) 
ACET   PRPA

>  <FRAG_ATOM_NUM>  (1664) 
fragi: 7  fragj: 11

>  <atom.prop.CHAIN_ID>  (1664) 
A A A A A A A Z Z Z Z Z Z Z Z Z Z Z

>  <atom.prop.IS_HEAVY_ATOM>  (1664) 
1 0 0 0 1 1 1 1 0 0 0 1 0 0 1 0 0 0

>  <DIFUSE_FUNC_ATOM>  (1664) 
atom 6   atom 7   

>  <FINAL_SINGLE_POINT_ENERGY>  (1664) 
0

>  <NONCOV_INTER_ENERGY_QM>  (1664) 
0

>  <FF_Energy>  (1664) 
34.54

>  <QM_Energy>  (1664) 
0.36

>  <source>  (1664) 
ACET_PRPA_19

>  <Index>  (1664) 
35942

$$$$
ACET-pdb4qys-A-ASP-34:PRPA-pdb4qys-A-LEU-40
     RDKit          3D

 18 16  0  0  0  0  0  0  0  0999 V2000
   -0.0169    1.5256    0.0044 C   0  0  0  0  0  0  0  0  0  0  0  0
   -0.1740    1.8365    0.9342 H   0  0  0  0  0  0  0  0  0  0  0  0
   -0.7448    1.8356   -0.5946 H   0  0  0  0  0  0  0  0  0  0  0  0
    0.9200    1.9591   -0.3457 H   0  0  0  0  0  0  0  0  0  0  0  0
    0.0000    0.0000    0.0000 C   0  0  0  0  0  0  0  0  0  0  0  0
   -1.0997   -0.5993   -0.0000 O   0  0  0  0  0  1  0  0  0  0  0  0
    1.0997   -0.6023    0.0000 O   0  0  0  0  0  0  0  0  0  0  0  0
   -2.9457   -0.9193    2.3132 C   0  0  0  0  0  0  0  0  0  0  0  0
   -3.6829   -0.2616    2.4072 H   0  0  0  0  0  0  0  0  0  0  0  0
   -2.0958   -0.4652    2.0832 H   0  0  0  0  0  0  0  0  0  0  0  0
   -2.8132   -1.4161    3.2742 H   0  0  0  0  0  0  0  0  0  0  0  0
   -3.3034   -1.8429    1.1478 C   0  0  0  0  0  0  0  0  0  0  0  0
   -4.1620   -2.3029    1.3445 H   0  0  0  0  0  0  0  0  0  0  0  0
   -3.4142   -1.2562    0.2359 H   0  0  0  0  0  0  0  0  0  0  0  0
   -2.1930   -2.8665    0.9834 C   0  0  0  0  0  0  0  0  0  0  0  0
   -2.1020   -3.4015    1.8242 H   0  0  0  0  0  0  0  0  0  0  0  0
   -2.4128   -3.4799    0.2226 H   0  0  0  0  0  0  0  0  0  0  0  0
   -1.3291   -2.3980    0.7924 H   0  0  0  0  0  0  0  0  0  0  0  0
  1  5  1  0
  5  6  1  0
  5  7  2  0
  1  2  1  0
  1  3  1  0
  1  4  1  0
  8 12  1  0
 12 15  1  0
  8  9  1  0
  8 10  1  0
  8 11  1  0
 12 13  1  0
 12 14  1  0
 15 16  1  0
 15 17  1  0
 15 18  1  0
M  CHG  1   6  -1
M  END
>  <PDB_ID>  (1665) 
pdb4qys

>  <RESIDUE_NAME>  (1665) 
ASP   LEU

>  <FRAG_NAME>  (1665) 
ACET   PRPA

>  <FRAG_ATOM_NUM>  (1665) 
fragi: 7  fragj: 11

>  <atom.prop.CHAIN_ID>  (1665) 
A A A A A A A Z Z Z Z Z Z Z Z Z Z Z

>  <atom.prop.IS_HEAVY_ATOM>  (1665) 
1 0 0 0 1 1 1 1 0 0 0 1 0 0 1 0 0 0

>  <DIFUSE_FUNC_ATOM>  (1665) 
atom 6   atom 7   

>  <FINAL_SINGLE_POINT_ENERGY>  (1665) 
0

>  <NONCOV_INTER_ENERGY_QM>  (1665) 
0

>  <FF_Energy>  (1665) 
15.52

>  <QM_Energy>  (1665) 
-0.52

>  <source>  (1665) 
ACET_PRPA_19

>  <Index>  (1665) 
36116

$$$$
ACET-pdb3sw5-A-GLU-129:PRPA-pdb3sw5-A-LYS-133
     RDKit          3D

 18 16  0  0  0  0  0  0  0  0999 V2000
    0.0128    1.5320   -0.0017 C   0  0  0  0  0  0  0  0  0  0  0  0
    0.5886    1.8218   -0.7413 H   0  0  0  0  0  0  0  0  0  0  0  0
    0.3489    1.8251    0.8726 H   0  0  0  0  0  0  0  0  0  0  0  0
   -0.9733    1.9721   -0.1499 H   0  0  0  0  0  0  0  0  0  0  0  0
    0.0000    0.0000    0.0000 C   0  0  0  0  0  0  0  0  0  0  0  0
   -1.0974   -0.6129    0.0000 O   0  0  0  0  0  1  0  0  0  0  0  0
    1.0974   -0.6084   -0.0000 O   0  0  0  0  0  0  0  0  0  0  0  0
    2.0969    1.5882    3.5267 C   0  0  0  0  0  0  0  0  0  0  0  0
    2.5631    0.7061    3.5706 H   0  0  0  0  0  0  0  0  0  0  0  0
    1.1566    1.4565    3.2176 H   0  0  0  0  0  0  0  0  0  0  0  0
    2.0866    2.0346    4.5211 H   0  0  0  0  0  0  0  0  0  0  0  0
    2.8226    2.4804    2.5303 C   0  0  0  0  0  0  0  0  0  0  0  0
    2.3559    3.3630    2.4923 H   0  0  0  0  0  0  0  0  0  0  0  0
    3.7631    2.6120    2.8430 H   0  0  0  0  0  0  0  0  0  0  0  0
    2.8526    1.8856    1.1384 C   0  0  0  0  0  0  0  0  0  0  0  0
    3.3210    1.0038    1.1693 H   0  0  0  0  0  0  0  0  0  0  0  0
    1.9147    1.7545    0.8186 H   0  0  0  0  0  0  0  0  0  0  0  0
    3.3785    2.5479    0.4508 H   0  0  0  0  0  0  0  0  0  0  0  0
  1  5  1  0
  5  6  1  0
  5  7  2  0
  1  2  1  0
  1  3  1  0
  1  4  1  0
  8 12  1  0
 12 15  1  0
  8  9  1  0
  8 10  1  0
  8 11  1  0
 12 13  1  0
 12 14  1  0
 15 16  1  0
 15 17  1  0
 15 18  1  0
M  CHG  1   6  -1
M  END
>  <PDB_ID>  (1666) 
pdb3sw5

>  <RESIDUE_NAME>  (1666) 
GLU   LYS

>  <FRAG_NAME>  (1666) 
ACET   PRPA

>  <FRAG_ATOM_NUM>  (1666) 
fragi: 7  fragj: 11

>  <atom.prop.CHAIN_ID>  (1666) 
A A A A A A A Z Z Z Z Z Z Z Z Z Z Z

>  <atom.prop.IS_HEAVY_ATOM>  (1666) 
1 0 0 0 1 1 1 1 0 0 0 1 0 0 1 0 0 0

>  <DIFUSE_FUNC_ATOM>  (1666) 
atom 6   atom 7   

>  <FINAL_SINGLE_POINT_ENERGY>  (1666) 
0

>  <NONCOV_INTER_ENERGY_QM>  (1666) 
0

>  <FF_Energy>  (1666) 
28.62

>  <QM_Energy>  (1666) 
4.44

>  <source>  (1666) 
ACET_PRPA_19

>  <Index>  (1666) 
36583

$$$$
ACET-pdb3t7z-A-ASP-97:PRPA-pdb3t7z-A-LYS-101
     RDKit          3D

 18 16  0  0  0  0  0  0  0  0999 V2000
    0.0084    1.5061    0.0119 C   0  0  0  0  0  0  0  0  0  0  0  0
   -0.1552    1.8376   -0.9116 H   0  0  0  0  0  0  0  0  0  0  0  0
    0.8928    1.8222    0.3392 H   0  0  0  0  0  0  0  0  0  0  0  0
   -0.7602    1.9262    0.6607 H   0  0  0  0  0  0  0  0  0  0  0  0
    0.0000    0.0000    0.0000 C   0  0  0  0  0  0  0  0  0  0  0  0
   -1.0837   -0.6097    0.0000 O   0  0  0  0  0  1  0  0  0  0  0  0
    1.0837   -0.6066    0.0000 O   0  0  0  0  0  0  0  0  0  0  0  0
   -1.3359   -2.3912    3.2836 C   0  0  0  0  0  0  0  0  0  0  0  0
   -1.9344   -3.0979    2.9075 H   0  0  0  0  0  0  0  0  0  0  0  0
   -1.5412   -1.5132    2.8531 H   0  0  0  0  0  0  0  0  0  0  0  0
   -1.5116   -2.3115    4.3564 H   0  0  0  0  0  0  0  0  0  0  0  0
    0.1075   -2.7610    2.9870 C   0  0  0  0  0  0  0  0  0  0  0  0
    0.7048   -2.0548    3.3672 H   0  0  0  0  0  0  0  0  0  0  0  0
    0.3111   -3.6381    3.4199 H   0  0  0  0  0  0  0  0  0  0  0  0
    0.3818   -2.8780    1.5025 C   0  0  0  0  0  0  0  0  0  0  0  0
   -0.2099   -3.5860    1.1159 H   0  0  0  0  0  0  0  0  0  0  0  0
    0.1840   -2.0023    1.0623 H   0  0  0  0  0  0  0  0  0  0  0  0
    1.4240   -3.1433    1.3248 H   0  0  0  0  0  0  0  0  0  0  0  0
  1  5  1  0
  5  6  1  0
  5  7  2  0
  1  2  1  0
  1  3  1  0
  1  4  1  0
  8 12  1  0
 12 15  1  0
  8  9  1  0
  8 10  1  0
  8 11  1  0
 12 13  1  0
 12 14  1  0
 15 16  1  0
 15 17  1  0
 15 18  1  0
M  CHG  1   6  -1
M  END
>  <PDB_ID>  (1667) 
pdb3t7z

>  <RESIDUE_NAME>  (1667) 
ASP   LYS

>  <FRAG_NAME>  (1667) 
ACET   PRPA

>  <FRAG_ATOM_NUM>  (1667) 
fragi: 7  fragj: 11

>  <atom.prop.CHAIN_ID>  (1667) 
A A A A A A A Z Z Z Z Z Z Z Z Z Z Z

>  <atom.prop.IS_HEAVY_ATOM>  (1667) 
1 0 0 0 1 1 1 1 0 0 0 1 0 0 1 0 0 0

>  <DIFUSE_FUNC_ATOM>  (1667) 
atom 6   atom 7   

>  <FINAL_SINGLE_POINT_ENERGY>  (1667) 
0

>  <NONCOV_INTER_ENERGY_QM>  (1667) 
0

>  <FF_Energy>  (1667) 
15.44

>  <QM_Energy>  (1667) 
0.21

>  <source>  (1667) 
ACET_PRPA_19

>  <Index>  (1667) 
36718

$$$$
ACET-pdb4py3-J-ASP-88:PRPA-pdb4py3-I-LYS-43
     RDKit          3D

 18 16  0  0  0  0  0  0  0  0999 V2000
    0.0239    1.5190   -0.0360 C   0  0  0  0  0  0  0  0  0  0  0  0
   -0.3900    1.8256   -0.8865 H   0  0  0  0  0  0  0  0  0  0  0  0
    0.9675    1.8256    0.0202 H   0  0  0  0  0  0  0  0  0  0  0  0
   -0.5262    1.9756    0.7868 H   0  0  0  0  0  0  0  0  0  0  0  0
    0.0000    0.0000    0.0000 C   0  0  0  0  0  0  0  0  0  0  0  0
   -1.0997   -0.5933   -0.0000 O   0  0  0  0  0  1  0  0  0  0  0  0
    1.0997   -0.6063   -0.0000 O   0  0  0  0  0  0  0  0  0  0  0  0
   -5.0849    0.9745   -1.4736 C   0  0  0  0  0  0  0  0  0  0  0  0
   -4.8416    0.5805   -2.3139 H   0  0  0  0  0  0  0  0  0  0  0  0
   -4.6344    1.7887   -1.2358 H   0  0  0  0  0  0  0  0  0  0  0  0
   -6.1640    1.1229   -1.4319 H   0  0  0  0  0  0  0  0  0  0  0  0
   -4.7848   -0.0719   -0.3604 C   0  0  0  0  0  0  0  0  0  0  0  0
   -5.6367   -0.2167    0.1673 H   0  0  0  0  0  0  0  0  0  0  0  0
   -4.5526   -0.9478   -0.8110 H   0  0  0  0  0  0  0  0  0  0  0  0
   -3.6633    0.3039    0.6020 C   0  0  0  0  0  0  0  0  0  0  0  0
   -2.7731    0.0798    0.1334 H   0  0  0  0  0  0  0  0  0  0  0  0
   -3.6659    1.3308    0.6861 H   0  0  0  0  0  0  0  0  0  0  0  0
   -3.6662   -0.1383    1.5983 H   0  0  0  0  0  0  0  0  0  0  0  0
  1  5  1  0
  5  6  1  0
  5  7  2  0
  1  2  1  0
  1  3  1  0
  1  4  1  0
  8 12  1  0
 12 15  1  0
  8  9  1  0
  8 10  1  0
  8 11  1  0
 12 13  1  0
 12 14  1  0
 15 16  1  0
 15 17  1  0
 15 18  1  0
M  CHG  1   6  -1
M  END
>  <PDB_ID>  (1668) 
pdb4py3

>  <RESIDUE_NAME>  (1668) 
ASP   LYS

>  <FRAG_NAME>  (1668) 
ACET   PRPA

>  <FRAG_ATOM_NUM>  (1668) 
fragi: 7  fragj: 11

>  <atom.prop.CHAIN_ID>  (1668) 
A A A A A A A Z Z Z Z Z Z Z Z Z Z Z

>  <atom.prop.IS_HEAVY_ATOM>  (1668) 
1 0 0 0 1 1 1 1 0 0 0 1 0 0 1 0 0 0

>  <DIFUSE_FUNC_ATOM>  (1668) 
atom 6   atom 7   

>  <FINAL_SINGLE_POINT_ENERGY>  (1668) 
0

>  <NONCOV_INTER_ENERGY_QM>  (1668) 
0

>  <FF_Energy>  (1668) 
25.61

>  <QM_Energy>  (1668) 
1.13

>  <source>  (1668) 
ACET_PRPA_19

>  <Index>  (1668) 
36778

$$$$
ACET-pdb3t5n-A-ASP-61:PRPA-pdb3t5n-A-VAL-166
     RDKit          3D

 18 16  0  0  0  0  0  0  0  0999 V2000
   -0.0015    1.5212   -0.0054 C   0  0  0  0  0  0  0  0  0  0  0  0
    0.9093    1.8396   -0.2361 H   0  0  0  0  0  0  0  0  0  0  0  0
   -0.2680    1.8422    0.8945 H   0  0  0  0  0  0  0  0  0  0  0  0
   -0.6987    1.9361   -0.7334 H   0  0  0  0  0  0  0  0  0  0  0  0
    0.0000    0.0000    0.0000 C   0  0  0  0  0  0  0  0  0  0  0  0
   -1.0965   -0.6051    0.0000 O   0  0  0  0  0  1  0  0  0  0  0  0
    1.0965   -0.5948   -0.0000 O   0  0  0  0  0  0  0  0  0  0  0  0
    1.2494   -2.0379   -2.9967 C   0  0  0  0  0  0  0  0  0  0  0  0
    1.3593   -1.1853   -2.4677 H   0  0  0  0  0  0  0  0  0  0  0  0
    1.6440   -1.8709   -3.9989 H   0  0  0  0  0  0  0  0  0  0  0  0
    1.7920   -2.8242   -2.4719 H   0  0  0  0  0  0  0  0  0  0  0  0
   -0.2627   -2.3599   -3.0744 C   0  0  0  0  0  0  0  0  0  0  0  0
   -0.3707   -3.1417   -3.6843 H   0  0  0  0  0  0  0  0  0  0  0  0
   -0.8034   -1.4994   -3.4687 H   0  0  0  0  0  0  0  0  0  0  0  0
   -0.8088   -2.7695   -1.7192 C   0  0  0  0  0  0  0  0  0  0  0  0
   -0.0592   -3.0822   -1.1349 H   0  0  0  0  0  0  0  0  0  0  0  0
   -1.2601   -1.9870   -1.2886 H   0  0  0  0  0  0  0  0  0  0  0  0
   -1.4705   -3.5110   -1.8334 H   0  0  0  0  0  0  0  0  0  0  0  0
  1  5  1  0
  5  6  1  0
  5  7  2  0
  1  2  1  0
  1  3  1  0
  1  4  1  0
  8 12  1  0
 12 15  1  0
  8  9  1  0
  8 10  1  0
  8 11  1  0
 12 13  1  0
 12 14  1  0
 15 16  1  0
 15 17  1  0
 15 18  1  0
M  CHG  1   6  -1
M  END
>  <PDB_ID>  (1669) 
pdb3t5n

>  <RESIDUE_NAME>  (1669) 
ASP   VAL

>  <FRAG_NAME>  (1669) 
ACET   PRPA

>  <FRAG_ATOM_NUM>  (1669) 
fragi: 7  fragj: 11

>  <atom.prop.CHAIN_ID>  (1669) 
A A A A A A A Z Z Z Z Z Z Z Z Z Z Z

>  <atom.prop.IS_HEAVY_ATOM>  (1669) 
1 0 0 0 1 1 1 1 0 0 0 1 0 0 1 0 0 0

>  <DIFUSE_FUNC_ATOM>  (1669) 
atom 6   atom 7   

>  <FINAL_SINGLE_POINT_ENERGY>  (1669) 
0

>  <NONCOV_INTER_ENERGY_QM>  (1669) 
0

>  <FF_Energy>  (1669) 
15.55

>  <QM_Energy>  (1669) 
-0.81

>  <source>  (1669) 
ACET_PRPA_19

>  <Index>  (1669) 
37268

$$$$
ACET-pdb3t5n-A-ASP-61:PRPA-pdb3t5n-A-VAL-166
     RDKit          3D

 18 16  0  0  0  0  0  0  0  0999 V2000
   -0.0015    1.5212   -0.0054 C   0  0  0  0  0  0  0  0  0  0  0  0
    0.9093    1.8396   -0.2361 H   0  0  0  0  0  0  0  0  0  0  0  0
   -0.2680    1.8422    0.8945 H   0  0  0  0  0  0  0  0  0  0  0  0
   -0.6987    1.9361   -0.7334 H   0  0  0  0  0  0  0  0  0  0  0  0
    0.0000    0.0000    0.0000 C   0  0  0  0  0  0  0  0  0  0  0  0
   -1.0965   -0.6051    0.0000 O   0  0  0  0  0  1  0  0  0  0  0  0
    1.0965   -0.5948   -0.0000 O   0  0  0  0  0  0  0  0  0  0  0  0
   -0.8088   -2.7695   -1.7192 C   0  0  0  0  0  0  0  0  0  0  0  0
   -0.0592   -3.0822   -1.1349 H   0  0  0  0  0  0  0  0  0  0  0  0
   -1.2601   -1.9870   -1.2886 H   0  0  0  0  0  0  0  0  0  0  0  0
   -1.4705   -3.5110   -1.8334 H   0  0  0  0  0  0  0  0  0  0  0  0
   -0.2627   -2.3599   -3.0744 C   0  0  0  0  0  0  0  0  0  0  0  0
   -0.3707   -3.1417   -3.6843 H   0  0  0  0  0  0  0  0  0  0  0  0
    0.8020   -2.1332   -3.0196 H   0  0  0  0  0  0  0  0  0  0  0  0
   -1.0146   -1.1633   -3.6227 C   0  0  0  0  0  0  0  0  0  0  0  0
   -1.8960   -1.4633   -3.9897 H   0  0  0  0  0  0  0  0  0  0  0  0
   -1.1670   -0.5005   -2.8882 H   0  0  0  0  0  0  0  0  0  0  0  0
   -0.4773   -0.7373   -4.3513 H   0  0  0  0  0  0  0  0  0  0  0  0
  1  5  1  0
  5  6  1  0
  5  7  2  0
  1  2  1  0
  1  3  1  0
  1  4  1  0
  8 12  1  0
 12 15  1  0
  8  9  1  0
  8 10  1  0
  8 11  1  0
 12 13  1  0
 12 14  1  0
 15 16  1  0
 15 17  1  0
 15 18  1  0
M  CHG  1   6  -1
M  END
>  <PDB_ID>  (1670) 
pdb3t5n

>  <RESIDUE_NAME>  (1670) 
ASP   VAL

>  <FRAG_NAME>  (1670) 
ACET   PRPA

>  <FRAG_ATOM_NUM>  (1670) 
fragi: 7  fragj: 11

>  <atom.prop.CHAIN_ID>  (1670) 
A A A A A A A Z Z Z Z Z Z Z Z Z Z Z

>  <atom.prop.IS_HEAVY_ATOM>  (1670) 
1 0 0 0 1 1 1 1 0 0 0 1 0 0 1 0 0 0

>  <DIFUSE_FUNC_ATOM>  (1670) 
atom 6   atom 7   

>  <FINAL_SINGLE_POINT_ENERGY>  (1670) 
0

>  <NONCOV_INTER_ENERGY_QM>  (1670) 
0

>  <FF_Energy>  (1670) 
15.18

>  <QM_Energy>  (1670) 
-0.69

>  <source>  (1670) 
ACET_PRPA_19

>  <Index>  (1670) 
37281

$$$$
ACET-pdb3t6n-A-ASP-176:PRPA-pdb3t6n-A-ARG-180
     RDKit          3D

 18 16  0  0  0  0  0  0  0  0999 V2000
    0.0196    1.5270   -0.0290 C   0  0  0  0  0  0  0  0  0  0  0  0
    0.9527    1.8331    0.1036 H   0  0  0  0  0  0  0  0  0  0  0  0
   -0.5715    1.8641    0.6904 H   0  0  0  0  0  0  0  0  0  0  0  0
   -0.3375    1.9275   -0.9779 H   0  0  0  0  0  0  0  0  0  0  0  0
    0.0000    0.0000    0.0000 C   0  0  0  0  0  0  0  0  0  0  0  0
   -1.0946   -0.6065   -0.0000 O   0  0  0  0  0  1  0  0  0  0  0  0
    1.0946   -0.6019    0.0000 O   0  0  0  0  0  0  0  0  0  0  0  0
   -4.8952   -1.3684   -3.0049 C   0  0  0  0  0  0  0  0  0  0  0  0
   -5.1409   -0.6017   -2.4250 H   0  0  0  0  0  0  0  0  0  0  0  0
   -5.5521   -2.1058   -2.9060 H   0  0  0  0  0  0  0  0  0  0  0  0
   -4.9068   -1.0333   -4.0420 H   0  0  0  0  0  0  0  0  0  0  0  0
   -3.5308   -1.8903   -2.5406 C   0  0  0  0  0  0  0  0  0  0  0  0
   -3.3808   -2.8047   -2.9161 H   0  0  0  0  0  0  0  0  0  0  0  0
   -2.8143   -1.2738   -2.8637 H   0  0  0  0  0  0  0  0  0  0  0  0
   -3.4170   -1.9839   -1.0122 C   0  0  0  0  0  0  0  0  0  0  0  0
   -2.5780   -1.5286   -0.7432 H   0  0  0  0  0  0  0  0  0  0  0  0
   -4.2066   -1.5267   -0.6229 H   0  0  0  0  0  0  0  0  0  0  0  0
   -3.3936   -3.0224   -0.6818 H   0  0  0  0  0  0  0  0  0  0  0  0
  1  5  1  0
  5  6  1  0
  5  7  2  0
  1  2  1  0
  1  3  1  0
  1  4  1  0
  8 12  1  0
 12 15  1  0
  8  9  1  0
  8 10  1  0
  8 11  1  0
 12 13  1  0
 12 14  1  0
 15 16  1  0
 15 17  1  0
 15 18  1  0
M  CHG  1   6  -1
M  END
>  <PDB_ID>  (1671) 
pdb3t6n

>  <RESIDUE_NAME>  (1671) 
ASP   ARG

>  <FRAG_NAME>  (1671) 
ACET   PRPA

>  <FRAG_ATOM_NUM>  (1671) 
fragi: 7  fragj: 11

>  <atom.prop.CHAIN_ID>  (1671) 
A A A A A A A Z Z Z Z Z Z Z Z Z Z Z

>  <atom.prop.IS_HEAVY_ATOM>  (1671) 
1 0 0 0 1 1 1 1 0 0 0 1 0 0 1 0 0 0

>  <DIFUSE_FUNC_ATOM>  (1671) 
atom 6   atom 7   

>  <FINAL_SINGLE_POINT_ENERGY>  (1671) 
0

>  <NONCOV_INTER_ENERGY_QM>  (1671) 
0

>  <FF_Energy>  (1671) 
13.26

>  <QM_Energy>  (1671) 
-1.98

>  <source>  (1671) 
ACET_PRPA_19

>  <Index>  (1671) 
37447

$$$$
ACET-pdb3t4c-A-ASP-282:PRPA-pdb3t4c-A-LEU-279
     RDKit          3D

 18 16  0  0  0  0  0  0  0  0999 V2000
    0.0629    1.5176   -0.0180 C   0  0  0  0  0  0  0  0  0  0  0  0
    0.5515    1.8075   -0.8355 H   0  0  0  0  0  0  0  0  0  0  0  0
    0.5408    1.8282    0.7972 H   0  0  0  0  0  0  0  0  0  0  0  0
   -0.9205    1.9877   -0.0309 H   0  0  0  0  0  0  0  0  0  0  0  0
    0.0000    0.0000    0.0000 C   0  0  0  0  0  0  0  0  0  0  0  0
   -1.0942   -0.5917   -0.0000 O   0  0  0  0  0  1  0  0  0  0  0  0
    1.0942   -0.5978    0.0000 O   0  0  0  0  0  0  0  0  0  0  0  0
    0.3712   -2.8593   -3.3640 C   0  0  0  0  0  0  0  0  0  0  0  0
    0.9015   -3.6078   -2.9733 H   0  0  0  0  0  0  0  0  0  0  0  0
   -0.0285   -3.1394   -4.2321 H   0  0  0  0  0  0  0  0  0  0  0  0
   -0.4405   -2.6234   -2.6758 H   0  0  0  0  0  0  0  0  0  0  0  0
    1.3548   -1.7216   -3.6666 C   0  0  0  0  0  0  0  0  0  0  0  0
    0.8629   -0.9836   -4.1378 H   0  0  0  0  0  0  0  0  0  0  0  0
    2.1111   -2.0584   -4.3754 H   0  0  0  0  0  0  0  0  0  0  0  0
    1.9977   -1.1633   -2.3937 C   0  0  0  0  0  0  0  0  0  0  0  0
    2.4970   -1.8925   -1.9292 H   0  0  0  0  0  0  0  0  0  0  0  0
    2.6276   -0.4276   -2.6385 H   0  0  0  0  0  0  0  0  0  0  0  0
    1.2844   -0.8084   -1.7924 H   0  0  0  0  0  0  0  0  0  0  0  0
  1  5  1  0
  5  6  1  0
  5  7  2  0
  1  2  1  0
  1  3  1  0
  1  4  1  0
  8 12  1  0
 12 15  1  0
  8  9  1  0
  8 10  1  0
  8 11  1  0
 12 13  1  0
 12 14  1  0
 15 16  1  0
 15 17  1  0
 15 18  1  0
M  CHG  1   6  -1
M  END
>  <PDB_ID>  (1672) 
pdb3t4c

>  <RESIDUE_NAME>  (1672) 
ASP   LEU

>  <FRAG_NAME>  (1672) 
ACET   PRPA

>  <FRAG_ATOM_NUM>  (1672) 
fragi: 7  fragj: 11

>  <atom.prop.CHAIN_ID>  (1672) 
A A A A A A A Z Z Z Z Z Z Z Z Z Z Z

>  <atom.prop.IS_HEAVY_ATOM>  (1672) 
1 0 0 0 1 1 1 1 0 0 0 1 0 0 1 0 0 0

>  <DIFUSE_FUNC_ATOM>  (1672) 
atom 6   atom 7   

>  <FINAL_SINGLE_POINT_ENERGY>  (1672) 
0

>  <NONCOV_INTER_ENERGY_QM>  (1672) 
0

>  <FF_Energy>  (1672) 
30.35

>  <QM_Energy>  (1672) 
3.99

>  <source>  (1672) 
ACET_PRPA_19

>  <Index>  (1672) 
39490

$$$$
ACET-pdb3t4c-A-ASP-282:PRPA-pdb3t4c-A-LEU-279
     RDKit          3D

 18 16  0  0  0  0  0  0  0  0999 V2000
    0.0629    1.5176   -0.0180 C   0  0  0  0  0  0  0  0  0  0  0  0
    0.5515    1.8075   -0.8355 H   0  0  0  0  0  0  0  0  0  0  0  0
    0.5408    1.8282    0.7972 H   0  0  0  0  0  0  0  0  0  0  0  0
   -0.9205    1.9877   -0.0309 H   0  0  0  0  0  0  0  0  0  0  0  0
    0.0000    0.0000    0.0000 C   0  0  0  0  0  0  0  0  0  0  0  0
   -1.0942   -0.5917   -0.0000 O   0  0  0  0  0  1  0  0  0  0  0  0
    1.0942   -0.5978    0.0000 O   0  0  0  0  0  0  0  0  0  0  0  0
    1.9977   -1.1633   -2.3937 C   0  0  0  0  0  0  0  0  0  0  0  0
    2.4970   -1.8925   -1.9292 H   0  0  0  0  0  0  0  0  0  0  0  0
    2.6276   -0.4276   -2.6385 H   0  0  0  0  0  0  0  0  0  0  0  0
    1.2844   -0.8084   -1.7924 H   0  0  0  0  0  0  0  0  0  0  0  0
    1.3548   -1.7216   -3.6666 C   0  0  0  0  0  0  0  0  0  0  0  0
    0.8629   -0.9836   -4.1378 H   0  0  0  0  0  0  0  0  0  0  0  0
    0.6559   -2.5299   -3.4516 H   0  0  0  0  0  0  0  0  0  0  0  0
    2.4129   -2.1927   -4.6582 C   0  0  0  0  0  0  0  0  0  0  0  0
    1.9691   -2.4776   -5.5083 H   0  0  0  0  0  0  0  0  0  0  0  0
    3.0482   -1.4439   -4.8477 H   0  0  0  0  0  0  0  0  0  0  0  0
    2.9140   -2.9650   -4.2681 H   0  0  0  0  0  0  0  0  0  0  0  0
  1  5  1  0
  5  6  1  0
  5  7  2  0
  1  2  1  0
  1  3  1  0
  1  4  1  0
  8 12  1  0
 12 15  1  0
  8  9  1  0
  8 10  1  0
  8 11  1  0
 12 13  1  0
 12 14  1  0
 15 16  1  0
 15 17  1  0
 15 18  1  0
M  CHG  1   6  -1
M  END
>  <PDB_ID>  (1673) 
pdb3t4c

>  <RESIDUE_NAME>  (1673) 
ASP   LEU

>  <FRAG_NAME>  (1673) 
ACET   PRPA

>  <FRAG_ATOM_NUM>  (1673) 
fragi: 7  fragj: 11

>  <atom.prop.CHAIN_ID>  (1673) 
A A A A A A A Z Z Z Z Z Z Z Z Z Z Z

>  <atom.prop.IS_HEAVY_ATOM>  (1673) 
1 0 0 0 1 1 1 1 0 0 0 1 0 0 1 0 0 0

>  <DIFUSE_FUNC_ATOM>  (1673) 
atom 6   atom 7   

>  <FINAL_SINGLE_POINT_ENERGY>  (1673) 
0

>  <NONCOV_INTER_ENERGY_QM>  (1673) 
0

>  <FF_Energy>  (1673) 
30.03

>  <QM_Energy>  (1673) 
4.76

>  <source>  (1673) 
ACET_PRPA_19

>  <Index>  (1673) 
39499

$$$$
ACET-pdb3tef-A-GLU-238:PRPA-pdb3tef-A-PRO-241
     RDKit          3D

 18 16  0  0  0  0  0  0  0  0999 V2000
   -0.0284    1.5228   -0.0111 C   0  0  0  0  0  0  0  0  0  0  0  0
    0.5971    1.8236   -0.6955 H   0  0  0  0  0  0  0  0  0  0  0  0
    0.1988    1.8274    0.8868 H   0  0  0  0  0  0  0  0  0  0  0  0
   -1.0217    1.8944   -0.2629 H   0  0  0  0  0  0  0  0  0  0  0  0
    0.0000    0.0000    0.0000 C   0  0  0  0  0  0  0  0  0  0  0  0
   -1.0859   -0.6019    0.0000 O   0  0  0  0  0  1  0  0  0  0  0  0
    1.0859   -0.6049    0.0000 O   0  0  0  0  0  0  0  0  0  0  0  0
   -3.5510   -1.6558   -0.6643 C   0  0  0  0  0  0  0  0  0  0  0  0
   -2.6887   -1.2345   -0.3685 H   0  0  0  0  0  0  0  0  0  0  0  0
   -4.2296   -0.9066   -1.0722 H   0  0  0  0  0  0  0  0  0  0  0  0
   -3.3692   -2.4390   -1.4002 H   0  0  0  0  0  0  0  0  0  0  0  0
   -4.3294   -2.2118    0.5280 C   0  0  0  0  0  0  0  0  0  0  0  0
   -4.8827   -3.0004    0.2531 H   0  0  0  0  0  0  0  0  0  0  0  0
   -3.7055   -2.4881    1.2612 H   0  0  0  0  0  0  0  0  0  0  0  0
   -5.1937   -1.0754    0.9590 C   0  0  0  0  0  0  0  0  0  0  0  0
   -5.9987   -1.4129    1.4560 H   0  0  0  0  0  0  0  0  0  0  0  0
   -4.6832   -0.4502    1.5559 H   0  0  0  0  0  0  0  0  0  0  0  0
   -5.4876   -0.5773    0.0350 H   0  0  0  0  0  0  0  0  0  0  0  0
  1  5  1  0
  5  6  1  0
  5  7  2  0
  1  2  1  0
  1  3  1  0
  1  4  1  0
  8 12  1  0
 12 15  1  0
  8  9  1  0
  8 10  1  0
  8 11  1  0
 12 13  1  0
 12 14  1  0
 15 16  1  0
 15 17  1  0
 15 18  1  0
M  CHG  1   6  -1
M  END
>  <PDB_ID>  (1674) 
pdb3tef

>  <RESIDUE_NAME>  (1674) 
GLU   PRO

>  <FRAG_NAME>  (1674) 
ACET   PRPA

>  <FRAG_ATOM_NUM>  (1674) 
fragi: 7  fragj: 11

>  <atom.prop.CHAIN_ID>  (1674) 
A A A A A A A Z Z Z Z Z Z Z Z Z Z Z

>  <atom.prop.IS_HEAVY_ATOM>  (1674) 
1 0 0 0 1 1 1 1 0 0 0 1 0 0 1 0 0 0

>  <DIFUSE_FUNC_ATOM>  (1674) 
atom 6   atom 7   

>  <FINAL_SINGLE_POINT_ENERGY>  (1674) 
0

>  <NONCOV_INTER_ENERGY_QM>  (1674) 
0

>  <FF_Energy>  (1674) 
35.74

>  <QM_Energy>  (1674) 
-0.03

>  <source>  (1674) 
ACET_PRPA_20

>  <Index>  (1674) 
849

$$$$
ACET-pdb4rhz-A-ASP-238:PRPA-pdb4rhz-A-LYS-145
     RDKit          3D

 18 16  0  0  0  0  0  0  0  0999 V2000
    0.0503    1.5049    0.0080 C   0  0  0  0  0  0  0  0  0  0  0  0
    0.2795    1.8163    0.9234 H   0  0  0  0  0  0  0  0  0  0  0  0
   -0.8348    1.8601   -0.2688 H   0  0  0  0  0  0  0  0  0  0  0  0
    0.8007    1.8967   -0.6787 H   0  0  0  0  0  0  0  0  0  0  0  0
    0.0000    0.0000    0.0000 C   0  0  0  0  0  0  0  0  0  0  0  0
   -1.0827   -0.6201    0.0000 O   0  0  0  0  0  1  0  0  0  0  0  0
    1.0827   -0.5703    0.0000 O   0  0  0  0  0  0  0  0  0  0  0  0
    2.9162   -1.6151    2.4915 C   0  0  0  0  0  0  0  0  0  0  0  0
    3.1849   -2.2031    3.2595 H   0  0  0  0  0  0  0  0  0  0  0  0
    3.4751   -0.7822    2.5096 H   0  0  0  0  0  0  0  0  0  0  0  0
    3.1335   -2.1485    1.5661 H   0  0  0  0  0  0  0  0  0  0  0  0
    1.4567   -1.2459    2.6271 C   0  0  0  0  0  0  0  0  0  0  0  0
    1.2176   -0.5790    1.9339 H   0  0  0  0  0  0  0  0  0  0  0  0
    0.8987   -2.0609    2.5425 H   0  0  0  0  0  0  0  0  0  0  0  0
    1.1718   -0.6171    4.0074 C   0  0  0  0  0  0  0  0  0  0  0  0
    1.3921   -1.2659    4.7071 H   0  0  0  0  0  0  0  0  0  0  0  0
    1.6776    0.2174    4.0902 H   0  0  0  0  0  0  0  0  0  0  0  0
    0.1057   -0.3942    4.0499 H   0  0  0  0  0  0  0  0  0  0  0  0
  1  5  1  0
  5  6  1  0
  5  7  2  0
  1  2  1  0
  1  3  1  0
  1  4  1  0
  8 12  1  0
 12 15  1  0
  8  9  1  0
  8 10  1  0
  8 11  1  0
 12 13  1  0
 12 14  1  0
 15 16  1  0
 15 17  1  0
 15 18  1  0
M  CHG  1   6  -1
M  END
>  <PDB_ID>  (1675) 
pdb4rhz

>  <RESIDUE_NAME>  (1675) 
ASP   LYS

>  <FRAG_NAME>  (1675) 
ACET   PRPA

>  <FRAG_ATOM_NUM>  (1675) 
fragi: 7  fragj: 11

>  <atom.prop.CHAIN_ID>  (1675) 
A A A A A A A Z Z Z Z Z Z Z Z Z Z Z

>  <atom.prop.IS_HEAVY_ATOM>  (1675) 
1 0 0 0 1 1 1 1 0 0 0 1 0 0 1 0 0 0

>  <DIFUSE_FUNC_ATOM>  (1675) 
atom 6   atom 7   

>  <FINAL_SINGLE_POINT_ENERGY>  (1675) 
0

>  <NONCOV_INTER_ENERGY_QM>  (1675) 
0

>  <FF_Energy>  (1675) 
15.89

>  <QM_Energy>  (1675) 
0.71

>  <source>  (1675) 
ACET_PRPA_20

>  <Index>  (1675) 
2294

$$$$
ACET-pdb4rhz-A-ASP-238:PRPA-pdb4rhz-A-LYS-145
     RDKit          3D

 18 16  0  0  0  0  0  0  0  0999 V2000
    0.0503    1.5049    0.0080 C   0  0  0  0  0  0  0  0  0  0  0  0
    0.2795    1.8163    0.9234 H   0  0  0  0  0  0  0  0  0  0  0  0
   -0.8348    1.8601   -0.2688 H   0  0  0  0  0  0  0  0  0  0  0  0
    0.8007    1.8967   -0.6787 H   0  0  0  0  0  0  0  0  0  0  0  0
    0.0000    0.0000    0.0000 C   0  0  0  0  0  0  0  0  0  0  0  0
   -1.0827   -0.6201    0.0000 O   0  0  0  0  0  1  0  0  0  0  0  0
    1.0827   -0.5703    0.0000 O   0  0  0  0  0  0  0  0  0  0  0  0
    3.2253   -2.3738    1.1751 C   0  0  0  0  0  0  0  0  0  0  0  0
    4.2092   -2.5209    1.1257 H   0  0  0  0  0  0  0  0  0  0  0  0
    2.9254   -1.8076    0.4120 H   0  0  0  0  0  0  0  0  0  0  0  0
    2.7404   -3.3449    1.0759 H   0  0  0  0  0  0  0  0  0  0  0  0
    2.9162   -1.6151    2.4915 C   0  0  0  0  0  0  0  0  0  0  0  0
    3.1849   -2.2031    3.2595 H   0  0  0  0  0  0  0  0  0  0  0  0
    3.4751   -0.7822    2.5096 H   0  0  0  0  0  0  0  0  0  0  0  0
    1.4567   -1.2459    2.6271 C   0  0  0  0  0  0  0  0  0  0  0  0
    1.2176   -0.5790    1.9339 H   0  0  0  0  0  0  0  0  0  0  0  0
    0.8987   -2.0609    2.5425 H   0  0  0  0  0  0  0  0  0  0  0  0
    1.2556   -0.8018    3.6019 H   0  0  0  0  0  0  0  0  0  0  0  0
  1  5  1  0
  5  6  1  0
  5  7  2  0
  1  2  1  0
  1  3  1  0
  1  4  1  0
  8 12  1  0
 12 15  1  0
  8  9  1  0
  8 10  1  0
  8 11  1  0
 12 13  1  0
 12 14  1  0
 15 16  1  0
 15 17  1  0
 15 18  1  0
M  CHG  1   6  -1
M  END
>  <PDB_ID>  (1676) 
pdb4rhz

>  <RESIDUE_NAME>  (1676) 
ASP   LYS

>  <FRAG_NAME>  (1676) 
ACET   PRPA

>  <FRAG_ATOM_NUM>  (1676) 
fragi: 7  fragj: 11

>  <atom.prop.CHAIN_ID>  (1676) 
A A A A A A A Z Z Z Z Z Z Z Z Z Z Z

>  <atom.prop.IS_HEAVY_ATOM>  (1676) 
1 0 0 0 1 1 1 1 0 0 0 1 0 0 1 0 0 0

>  <DIFUSE_FUNC_ATOM>  (1676) 
atom 6   atom 7   

>  <FINAL_SINGLE_POINT_ENERGY>  (1676) 
0

>  <NONCOV_INTER_ENERGY_QM>  (1676) 
0

>  <FF_Energy>  (1676) 
17.27

>  <QM_Energy>  (1676) 
0.24

>  <source>  (1676) 
ACET_PRPA_20

>  <Index>  (1676) 
2302

$$$$
ACET-pdb4rmm-A-ASP-22:PRPA-pdb4rmm-A-GLU-19
     RDKit          3D

 18 16  0  0  0  0  0  0  0  0999 V2000
   -0.0072    1.5103    0.0033 C   0  0  0  0  0  0  0  0  0  0  0  0
    0.9215    1.8379   -0.1279 H   0  0  0  0  0  0  0  0  0  0  0  0
   -0.3710    1.8294    0.8697 H   0  0  0  0  0  0  0  0  0  0  0  0
   -0.6245    1.9254   -0.7934 H   0  0  0  0  0  0  0  0  0  0  0  0
    0.0000    0.0000    0.0000 C   0  0  0  0  0  0  0  0  0  0  0  0
   -1.1002   -0.5901    0.0000 O   0  0  0  0  0  1  0  0  0  0  0  0
    1.1002   -0.5953   -0.0000 O   0  0  0  0  0  0  0  0  0  0  0  0
    2.4907    3.5178    0.9261 C   0  0  0  0  0  0  0  0  0  0  0  0
    2.0718    2.6906    0.4806 H   0  0  0  0  0  0  0  0  0  0  0  0
    3.4180    3.7673    0.4103 H   0  0  0  0  0  0  0  0  0  0  0  0
    1.7456    4.3121    0.9710 H   0  0  0  0  0  0  0  0  0  0  0  0
    2.7901    3.0124    2.3377 C   0  0  0  0  0  0  0  0  0  0  0  0
    3.3475    3.6854    2.7842 H   0  0  0  0  0  0  0  0  0  0  0  0
    1.9332    2.8705    2.7940 H   0  0  0  0  0  0  0  0  0  0  0  0
    3.5480    1.6971    2.3568 C   0  0  0  0  0  0  0  0  0  0  0  0
    3.0772    1.0624    1.7729 H   0  0  0  0  0  0  0  0  0  0  0  0
    4.4685    1.8660    2.0586 H   0  0  0  0  0  0  0  0  0  0  0  0
    3.5976    1.2578    3.3532 H   0  0  0  0  0  0  0  0  0  0  0  0
  1  5  1  0
  5  6  1  0
  5  7  2  0
  1  2  1  0
  1  3  1  0
  1  4  1  0
  8 12  1  0
 12 15  1  0
  8  9  1  0
  8 10  1  0
  8 11  1  0
 12 13  1  0
 12 14  1  0
 15 16  1  0
 15 17  1  0
 15 18  1  0
M  CHG  1   6  -1
M  END
>  <PDB_ID>  (1677) 
pdb4rmm

>  <RESIDUE_NAME>  (1677) 
ASP   GLU

>  <FRAG_NAME>  (1677) 
ACET   PRPA

>  <FRAG_ATOM_NUM>  (1677) 
fragi: 7  fragj: 11

>  <atom.prop.CHAIN_ID>  (1677) 
A A A A A A A Z Z Z Z Z Z Z Z Z Z Z

>  <atom.prop.IS_HEAVY_ATOM>  (1677) 
1 0 0 0 1 1 1 1 0 0 0 1 0 0 1 0 0 0

>  <DIFUSE_FUNC_ATOM>  (1677) 
atom 6   atom 7   

>  <FINAL_SINGLE_POINT_ENERGY>  (1677) 
0

>  <NONCOV_INTER_ENERGY_QM>  (1677) 
0

>  <FF_Energy>  (1677) 
16.54

>  <QM_Energy>  (1677) 
1.27

>  <source>  (1677) 
ACET_PRPA_20

>  <Index>  (1677) 
2432

$$$$
ACET-pdb3tfo-A-GLU-223:PRPA-pdb3tfo-A-VAL-2
     RDKit          3D

 18 16  0  0  0  0  0  0  0  0999 V2000
    0.0278    1.5448    0.0956 C   0  0  0  0  0  0  0  0  0  0  0  0
    0.8655    1.8267   -0.3470 H   0  0  0  0  0  0  0  0  0  0  0  0
    0.0448    1.7537    1.0622 H   0  0  0  0  0  0  0  0  0  0  0  0
   -0.8288    2.0228   -0.3797 H   0  0  0  0  0  0  0  0  0  0  0  0
    0.0000    0.0000    0.0000 C   0  0  0  0  0  0  0  0  0  0  0  0
   -1.1256   -0.6023   -0.0000 O   0  0  0  0  0  1  0  0  0  0  0  0
    1.1256   -0.5685   -0.0000 O   0  0  0  0  0  0  0  0  0  0  0  0
    3.9771    3.1158    0.4821 C   0  0  0  0  0  0  0  0  0  0  0  0
    3.7163    3.9303    1.0802 H   0  0  0  0  0  0  0  0  0  0  0  0
    3.2670    3.0923   -0.3445 H   0  0  0  0  0  0  0  0  0  0  0  0
    5.0438    3.1861    0.2688 H   0  0  0  0  0  0  0  0  0  0  0  0
    3.7497    2.0617    1.5395 C   0  0  0  0  0  0  0  0  0  0  0  0
    4.0377    1.1848    1.1612 H   0  0  0  0  0  0  0  0  0  0  0  0
    4.3831    2.2805    2.3992 H   0  0  0  0  0  0  0  0  0  0  0  0
    2.3305    2.0285    1.9278 C   0  0  0  0  0  0  0  0  0  0  0  0
    1.7413    2.2469    1.1394 H   0  0  0  0  0  0  0  0  0  0  0  0
    2.0769    1.1145    2.2688 H   0  0  0  0  0  0  0  0  0  0  0  0
    2.1461    2.7007    2.6568 H   0  0  0  0  0  0  0  0  0  0  0  0
  1  5  1  0
  5  6  1  0
  5  7  2  0
  1  2  1  0
  1  3  1  0
  1  4  1  0
  8 12  1  0
 12 15  1  0
  8  9  1  0
  8 10  1  0
  8 11  1  0
 12 13  1  0
 12 14  1  0
 15 16  1  0
 15 17  1  0
 15 18  1  0
M  CHG  1   6  -1
M  END
>  <PDB_ID>  (1678) 
pdb3tfo

>  <RESIDUE_NAME>  (1678) 
GLU   VAL

>  <FRAG_NAME>  (1678) 
ACET   PRPA

>  <FRAG_ATOM_NUM>  (1678) 
fragi: 7  fragj: 11

>  <atom.prop.CHAIN_ID>  (1678) 
A A A A A A A Z Z Z Z Z Z Z Z Z Z Z

>  <atom.prop.IS_HEAVY_ATOM>  (1678) 
1 0 0 0 1 1 1 1 0 0 0 1 0 0 1 0 0 0

>  <DIFUSE_FUNC_ATOM>  (1678) 
atom 6   atom 7   

>  <FINAL_SINGLE_POINT_ENERGY>  (1678) 
0

>  <NONCOV_INTER_ENERGY_QM>  (1678) 
0

>  <FF_Energy>  (1678) 
18.98

>  <QM_Energy>  (1678) 
3.94

>  <source>  (1678) 
ACET_PRPA_20

>  <Index>  (1678) 
2620

$$$$
ACET-pdb3tk1-A-GLU-44:PRPA-pdb3tk1-A-VAL-5
     RDKit          3D

 18 16  0  0  0  0  0  0  0  0999 V2000
    0.1930    1.4876    0.0143 C   0  0  0  0  0  0  0  0  0  0  0  0
    0.7102    1.7347   -0.8023 H   0  0  0  0  0  0  0  0  0  0  0  0
    0.7214    1.7171    0.8297 H   0  0  0  0  0  0  0  0  0  0  0  0
   -0.7176    2.0866    0.0265 H   0  0  0  0  0  0  0  0  0  0  0  0
    0.0000    0.0000    0.0000 C   0  0  0  0  0  0  0  0  0  0  0  0
   -1.0888   -0.5513    0.0000 O   0  0  0  0  0  1  0  0  0  0  0  0
    1.0888   -0.6159   -0.0000 O   0  0  0  0  0  0  0  0  0  0  0  0
   -0.8692   -3.7984    1.8926 C   0  0  0  0  0  0  0  0  0  0  0  0
   -1.4922   -3.8316    2.6947 H   0  0  0  0  0  0  0  0  0  0  0  0
   -0.5310   -4.8148    1.6912 H   0  0  0  0  0  0  0  0  0  0  0  0
   -1.4168   -3.3474    1.0650 H   0  0  0  0  0  0  0  0  0  0  0  0
    0.3054   -2.8677    2.2881 C   0  0  0  0  0  0  0  0  0  0  0  0
    0.9639   -2.8897    1.5464 H   0  0  0  0  0  0  0  0  0  0  0  0
    0.7721   -3.1948    3.2172 H   0  0  0  0  0  0  0  0  0  0  0  0
   -0.1875   -1.4365    2.4124 C   0  0  0  0  0  0  0  0  0  0  0  0
   -0.1809   -1.1623    3.3741 H   0  0  0  0  0  0  0  0  0  0  0  0
    0.4112   -0.8290    1.8902 H   0  0  0  0  0  0  0  0  0  0  0  0
   -1.1200   -1.3703    2.0557 H   0  0  0  0  0  0  0  0  0  0  0  0
  1  5  1  0
  5  6  1  0
  5  7  2  0
  1  2  1  0
  1  3  1  0
  1  4  1  0
  8 12  1  0
 12 15  1  0
  8  9  1  0
  8 10  1  0
  8 11  1  0
 12 13  1  0
 12 14  1  0
 15 16  1  0
 15 17  1  0
 15 18  1  0
M  CHG  1   6  -1
M  END
>  <PDB_ID>  (1679) 
pdb3tk1

>  <RESIDUE_NAME>  (1679) 
GLU   VAL

>  <FRAG_NAME>  (1679) 
ACET   PRPA

>  <FRAG_ATOM_NUM>  (1679) 
fragi: 7  fragj: 11

>  <atom.prop.CHAIN_ID>  (1679) 
A A A A A A A Z Z Z Z Z Z Z Z Z Z Z

>  <atom.prop.IS_HEAVY_ATOM>  (1679) 
1 0 0 0 1 1 1 1 0 0 0 1 0 0 1 0 0 0

>  <DIFUSE_FUNC_ATOM>  (1679) 
atom 6   atom 7   

>  <FINAL_SINGLE_POINT_ENERGY>  (1679) 
0

>  <NONCOV_INTER_ENERGY_QM>  (1679) 
0

>  <FF_Energy>  (1679) 
25.99

>  <QM_Energy>  (1679) 
1.79

>  <source>  (1679) 
ACET_PRPA_20

>  <Index>  (1679) 
3298

$$$$
ACET-pdb3tk1-A-GLU-44:PRPA-pdb3tk1-A-VAL-5
     RDKit          3D

 18 16  0  0  0  0  0  0  0  0999 V2000
    0.1930    1.4876    0.0143 C   0  0  0  0  0  0  0  0  0  0  0  0
    0.7102    1.7347   -0.8023 H   0  0  0  0  0  0  0  0  0  0  0  0
    0.7214    1.7171    0.8297 H   0  0  0  0  0  0  0  0  0  0  0  0
   -0.7176    2.0866    0.0265 H   0  0  0  0  0  0  0  0  0  0  0  0
    0.0000    0.0000    0.0000 C   0  0  0  0  0  0  0  0  0  0  0  0
   -1.0888   -0.5513    0.0000 O   0  0  0  0  0  1  0  0  0  0  0  0
    1.0888   -0.6159   -0.0000 O   0  0  0  0  0  0  0  0  0  0  0  0
   -0.1875   -1.4365    2.4124 C   0  0  0  0  0  0  0  0  0  0  0  0
   -0.1809   -1.1623    3.3741 H   0  0  0  0  0  0  0  0  0  0  0  0
    0.4112   -0.8290    1.8902 H   0  0  0  0  0  0  0  0  0  0  0  0
   -1.1200   -1.3703    2.0557 H   0  0  0  0  0  0  0  0  0  0  0  0
    0.3054   -2.8677    2.2881 C   0  0  0  0  0  0  0  0  0  0  0  0
    0.9639   -2.8897    1.5464 H   0  0  0  0  0  0  0  0  0  0  0  0
   -0.5207   -3.5222    2.0099 H   0  0  0  0  0  0  0  0  0  0  0  0
    0.9576   -3.3249    3.5867 C   0  0  0  0  0  0  0  0  0  0  0  0
    0.7758   -2.6506    4.3018 H   0  0  0  0  0  0  0  0  0  0  0  0
    0.5760   -4.2093    3.8530 H   0  0  0  0  0  0  0  0  0  0  0  0
    1.9430   -3.4114    3.4472 H   0  0  0  0  0  0  0  0  0  0  0  0
  1  5  1  0
  5  6  1  0
  5  7  2  0
  1  2  1  0
  1  3  1  0
  1  4  1  0
  8 12  1  0
 12 15  1  0
  8  9  1  0
  8 10  1  0
  8 11  1  0
 12 13  1  0
 12 14  1  0
 15 16  1  0
 15 17  1  0
 15 18  1  0
M  CHG  1   6  -1
M  END
>  <PDB_ID>  (1680) 
pdb3tk1

>  <RESIDUE_NAME>  (1680) 
GLU   VAL

>  <FRAG_NAME>  (1680) 
ACET   PRPA

>  <FRAG_ATOM_NUM>  (1680) 
fragi: 7  fragj: 11

>  <atom.prop.CHAIN_ID>  (1680) 
A A A A A A A Z Z Z Z Z Z Z Z Z Z Z

>  <atom.prop.IS_HEAVY_ATOM>  (1680) 
1 0 0 0 1 1 1 1 0 0 0 1 0 0 1 0 0 0

>  <DIFUSE_FUNC_ATOM>  (1680) 
atom 6   atom 7   

>  <FINAL_SINGLE_POINT_ENERGY>  (1680) 
0

>  <NONCOV_INTER_ENERGY_QM>  (1680) 
0

>  <FF_Energy>  (1680) 
25.54

>  <QM_Energy>  (1680) 
3.18

>  <source>  (1680) 
ACET_PRPA_20

>  <Index>  (1680) 
3309

$$$$
ACET-pdb3tk1-A-GLU-135:PRPA-pdb3tk1-A-VAL-27
     RDKit          3D

 18 16  0  0  0  0  0  0  0  0999 V2000
   -0.0040    1.5109    0.0016 C   0  0  0  0  0  0  0  0  0  0  0  0
    0.5747    1.8153   -0.7334 H   0  0  0  0  0  0  0  0  0  0  0  0
    0.3231    1.8120    0.8794 H   0  0  0  0  0  0  0  0  0  0  0  0
   -0.9955    1.9360   -0.1537 H   0  0  0  0  0  0  0  0  0  0  0  0
    0.0000    0.0000    0.0000 C   0  0  0  0  0  0  0  0  0  0  0  0
   -1.0993   -0.6020   -0.0000 O   0  0  0  0  0  1  0  0  0  0  0  0
    1.0993   -0.5954   -0.0000 O   0  0  0  0  0  0  0  0  0  0  0  0
   -3.8789   -0.4945   -0.2510 C   0  0  0  0  0  0  0  0  0  0  0  0
   -2.9274   -0.7681   -0.3912 H   0  0  0  0  0  0  0  0  0  0  0  0
   -3.9269    0.4998   -0.1514 H   0  0  0  0  0  0  0  0  0  0  0  0
   -4.2293   -0.9285    0.5797 H   0  0  0  0  0  0  0  0  0  0  0  0
   -4.7146   -0.9286   -1.4438 C   0  0  0  0  0  0  0  0  0  0  0  0
   -5.6265   -0.5415   -1.3229 H   0  0  0  0  0  0  0  0  0  0  0  0
   -4.8260   -2.0122   -1.4830 H   0  0  0  0  0  0  0  0  0  0  0  0
   -4.0977   -0.3974   -2.7253 C   0  0  0  0  0  0  0  0  0  0  0  0
   -3.1183   -0.2472   -2.5848 H   0  0  0  0  0  0  0  0  0  0  0  0
   -4.2332   -1.0630   -3.4590 H   0  0  0  0  0  0  0  0  0  0  0  0
   -4.5370    0.4665   -2.9719 H   0  0  0  0  0  0  0  0  0  0  0  0
  1  5  1  0
  5  6  1  0
  5  7  2  0
  1  2  1  0
  1  3  1  0
  1  4  1  0
  8 12  1  0
 12 15  1  0
  8  9  1  0
  8 10  1  0
  8 11  1  0
 12 13  1  0
 12 14  1  0
 15 16  1  0
 15 17  1  0
 15 18  1  0
M  CHG  1   6  -1
M  END
>  <PDB_ID>  (1681) 
pdb3tk1

>  <RESIDUE_NAME>  (1681) 
GLU   VAL

>  <FRAG_NAME>  (1681) 
ACET   PRPA

>  <FRAG_ATOM_NUM>  (1681) 
fragi: 7  fragj: 11

>  <atom.prop.CHAIN_ID>  (1681) 
A A A A A A A Z Z Z Z Z Z Z Z Z Z Z

>  <atom.prop.IS_HEAVY_ATOM>  (1681) 
1 0 0 0 1 1 1 1 0 0 0 1 0 0 1 0 0 0

>  <DIFUSE_FUNC_ATOM>  (1681) 
atom 6   atom 7   

>  <FINAL_SINGLE_POINT_ENERGY>  (1681) 
0

>  <NONCOV_INTER_ENERGY_QM>  (1681) 
0

>  <FF_Energy>  (1681) 
16.1

>  <QM_Energy>  (1681) 
0.14

>  <source>  (1681) 
ACET_PRPA_20

>  <Index>  (1681) 
3642

$$$$
ACET-pdb3tl3-B-GLU-60:PRPA-pdb3tl3-A-LEU-100
     RDKit          3D

 18 16  0  0  0  0  0  0  0  0999 V2000
   -0.0379    1.5182    0.0785 C   0  0  0  0  0  0  0  0  0  0  0  0
   -0.0516    1.8537   -0.8236 H   0  0  0  0  0  0  0  0  0  0  0  0
    0.7077    1.7979    0.6206 H   0  0  0  0  0  0  0  0  0  0  0  0
   -0.9679    1.7923    0.5767 H   0  0  0  0  0  0  0  0  0  0  0  0
    0.0000    0.0000    0.0000 C   0  0  0  0  0  0  0  0  0  0  0  0
   -1.1037   -0.6082    0.0000 O   0  0  0  0  0  1  0  0  0  0  0  0
    1.1037   -0.5888    0.0000 O   0  0  0  0  0  0  0  0  0  0  0  0
    0.0267   -2.9892    2.9874 C   0  0  0  0  0  0  0  0  0  0  0  0
   -0.1496   -2.6366    3.8992 H   0  0  0  0  0  0  0  0  0  0  0  0
    0.8931   -2.6490    2.6424 H   0  0  0  0  0  0  0  0  0  0  0  0
    0.1099   -4.0731    3.0671 H   0  0  0  0  0  0  0  0  0  0  0  0
   -1.0754   -2.4777    2.0689 C   0  0  0  0  0  0  0  0  0  0  0  0
   -1.9578   -2.7985    2.4020 H   0  0  0  0  0  0  0  0  0  0  0  0
   -1.0726   -1.3878    2.0608 H   0  0  0  0  0  0  0  0  0  0  0  0
   -0.8286   -3.0155    0.6683 C   0  0  0  0  0  0  0  0  0  0  0  0
   -0.8394   -4.0167    0.6866 H   0  0  0  0  0  0  0  0  0  0  0  0
   -1.5470   -2.6876    0.0525 H   0  0  0  0  0  0  0  0  0  0  0  0
    0.0609   -2.6992    0.3397 H   0  0  0  0  0  0  0  0  0  0  0  0
  1  5  1  0
  5  6  1  0
  5  7  2  0
  1  2  1  0
  1  3  1  0
  1  4  1  0
  8 12  1  0
 12 15  1  0
  8  9  1  0
  8 10  1  0
  8 11  1  0
 12 13  1  0
 12 14  1  0
 15 16  1  0
 15 17  1  0
 15 18  1  0
M  CHG  1   6  -1
M  END
>  <PDB_ID>  (1682) 
pdb3tl3

>  <RESIDUE_NAME>  (1682) 
GLU   LEU

>  <FRAG_NAME>  (1682) 
ACET   PRPA

>  <FRAG_ATOM_NUM>  (1682) 
fragi: 7  fragj: 11

>  <atom.prop.CHAIN_ID>  (1682) 
A A A A A A A Z Z Z Z Z Z Z Z Z Z Z

>  <atom.prop.IS_HEAVY_ATOM>  (1682) 
1 0 0 0 1 1 1 1 0 0 0 1 0 0 1 0 0 0

>  <DIFUSE_FUNC_ATOM>  (1682) 
atom 6   atom 7   

>  <FINAL_SINGLE_POINT_ENERGY>  (1682) 
0

>  <NONCOV_INTER_ENERGY_QM>  (1682) 
0

>  <FF_Energy>  (1682) 
18.59

>  <QM_Energy>  (1682) 
2.95

>  <source>  (1682) 
ACET_PRPA_20

>  <Index>  (1682) 
4596

$$$$
ACET-pdb4rqm-C-ASP-877:PRPA-pdb4rqm-C-GLU-880
     RDKit          3D

 18 16  0  0  0  0  0  0  0  0999 V2000
   -0.0020    1.5146    0.0047 C   0  0  0  0  0  0  0  0  0  0  0  0
    0.8242    1.8373   -0.4414 H   0  0  0  0  0  0  0  0  0  0  0  0
   -0.0398    1.8327    0.9439 H   0  0  0  0  0  0  0  0  0  0  0  0
   -0.8570    1.9319   -0.5272 H   0  0  0  0  0  0  0  0  0  0  0  0
    0.0000    0.0000    0.0000 C   0  0  0  0  0  0  0  0  0  0  0  0
   -1.0977   -0.5942    0.0000 O   0  0  0  0  0  1  0  0  0  0  0  0
    1.0977   -0.5975    0.0000 O   0  0  0  0  0  0  0  0  0  0  0  0
   -2.4197   -2.7025   -3.0935 C   0  0  0  0  0  0  0  0  0  0  0  0
   -2.3684   -3.7082   -3.0907 H   0  0  0  0  0  0  0  0  0  0  0  0
   -1.4167   -2.2852   -3.1820 H   0  0  0  0  0  0  0  0  0  0  0  0
   -3.0550   -2.3751   -3.9164 H   0  0  0  0  0  0  0  0  0  0  0  0
   -3.0499   -2.3129   -1.7560 C   0  0  0  0  0  0  0  0  0  0  0  0
   -3.1087   -1.3128   -1.7334 H   0  0  0  0  0  0  0  0  0  0  0  0
   -3.9755   -2.6959   -1.7372 H   0  0  0  0  0  0  0  0  0  0  0  0
   -2.3544   -2.7525   -0.4772 C   0  0  0  0  0  0  0  0  0  0  0  0
   -2.2974   -3.7516   -0.4925 H   0  0  0  0  0  0  0  0  0  0  0  0
   -1.4303   -2.3688   -0.4862 H   0  0  0  0  0  0  0  0  0  0  0  0
   -2.8264   -2.4595    0.4607 H   0  0  0  0  0  0  0  0  0  0  0  0
  1  5  1  0
  5  6  1  0
  5  7  2  0
  1  2  1  0
  1  3  1  0
  1  4  1  0
  8 12  1  0
 12 15  1  0
  8  9  1  0
  8 10  1  0
  8 11  1  0
 12 13  1  0
 12 14  1  0
 15 16  1  0
 15 17  1  0
 15 18  1  0
M  CHG  1   6  -1
M  END
>  <PDB_ID>  (1683) 
pdb4rqm

>  <RESIDUE_NAME>  (1683) 
ASP   GLU

>  <FRAG_NAME>  (1683) 
ACET   PRPA

>  <FRAG_ATOM_NUM>  (1683) 
fragi: 7  fragj: 11

>  <atom.prop.CHAIN_ID>  (1683) 
A A A A A A A Z Z Z Z Z Z Z Z Z Z Z

>  <atom.prop.IS_HEAVY_ATOM>  (1683) 
1 0 0 0 1 1 1 1 0 0 0 1 0 0 1 0 0 0

>  <DIFUSE_FUNC_ATOM>  (1683) 
atom 6   atom 7   

>  <FINAL_SINGLE_POINT_ENERGY>  (1683) 
0

>  <NONCOV_INTER_ENERGY_QM>  (1683) 
0

>  <FF_Energy>  (1683) 
24.43

>  <QM_Energy>  (1683) 
3.07

>  <source>  (1683) 
ACET_PRPA_20

>  <Index>  (1683) 
5498

$$$$
ACET-pdb3toe-B-GLU-31:PRPA-pdb3toe-B-ARG-89
     RDKit          3D

 18 16  0  0  0  0  0  0  0  0999 V2000
    0.0103    1.5411    0.0107 C   0  0  0  0  0  0  0  0  0  0  0  0
    0.8227    1.8293   -0.4657 H   0  0  0  0  0  0  0  0  0  0  0  0
    0.0185    1.8246    0.9549 H   0  0  0  0  0  0  0  0  0  0  0  0
   -0.8506    1.9996   -0.4760 H   0  0  0  0  0  0  0  0  0  0  0  0
    0.0000    0.0000    0.0000 C   0  0  0  0  0  0  0  0  0  0  0  0
   -1.0804   -0.6025    0.0000 O   0  0  0  0  0  1  0  0  0  0  0  0
    1.0804   -0.6166    0.0000 O   0  0  0  0  0  0  0  0  0  0  0  0
    1.7251    1.3261   -4.3290 C   0  0  0  0  0  0  0  0  0  0  0  0
    1.3514    2.0199   -3.6924 H   0  0  0  0  0  0  0  0  0  0  0  0
    1.0582    1.2316   -5.1860 H   0  0  0  0  0  0  0  0  0  0  0  0
    2.7253    1.6379   -4.6297 H   0  0  0  0  0  0  0  0  0  0  0  0
    1.8136   -0.0074   -3.6297 C   0  0  0  0  0  0  0  0  0  0  0  0
    0.8940   -0.4117   -3.6072 H   0  0  0  0  0  0  0  0  0  0  0  0
    2.4136   -0.6061   -4.1693 H   0  0  0  0  0  0  0  0  0  0  0  0
    2.3382    0.0422   -2.2311 C   0  0  0  0  0  0  0  0  0  0  0  0
    3.0757    0.7117   -2.1671 H   0  0  0  0  0  0  0  0  0  0  0  0
    1.6042    0.2877   -1.6007 H   0  0  0  0  0  0  0  0  0  0  0  0
    2.7332   -0.9279   -1.9294 H   0  0  0  0  0  0  0  0  0  0  0  0
  1  5  1  0
  5  6  1  0
  5  7  2  0
  1  2  1  0
  1  3  1  0
  1  4  1  0
  8 12  1  0
 12 15  1  0
  8  9  1  0
  8 10  1  0
  8 11  1  0
 12 13  1  0
 12 14  1  0
 15 16  1  0
 15 17  1  0
 15 18  1  0
M  CHG  1   6  -1
M  END
>  <PDB_ID>  (1684) 
pdb3toe

>  <RESIDUE_NAME>  (1684) 
GLU   ARG

>  <FRAG_NAME>  (1684) 
ACET   PRPA

>  <FRAG_ATOM_NUM>  (1684) 
fragi: 7  fragj: 11

>  <atom.prop.CHAIN_ID>  (1684) 
A A A A A A A Z Z Z Z Z Z Z Z Z Z Z

>  <atom.prop.IS_HEAVY_ATOM>  (1684) 
1 0 0 0 1 1 1 1 0 0 0 1 0 0 1 0 0 0

>  <DIFUSE_FUNC_ATOM>  (1684) 
atom 6   atom 7   

>  <FINAL_SINGLE_POINT_ENERGY>  (1684) 
0

>  <NONCOV_INTER_ENERGY_QM>  (1684) 
0

>  <FF_Energy>  (1684) 
20.26

>  <QM_Energy>  (1684) 
4.66

>  <source>  (1684) 
ACET_PRPA_20

>  <Index>  (1684) 
6192

$$$$
ACET-pdb3toe-B-GLU-31:PRPA-pdb3toe-B-ARG-89
     RDKit          3D

 18 16  0  0  0  0  0  0  0  0999 V2000
    0.0103    1.5411    0.0107 C   0  0  0  0  0  0  0  0  0  0  0  0
    0.8227    1.8293   -0.4657 H   0  0  0  0  0  0  0  0  0  0  0  0
    0.0185    1.8246    0.9549 H   0  0  0  0  0  0  0  0  0  0  0  0
   -0.8506    1.9996   -0.4760 H   0  0  0  0  0  0  0  0  0  0  0  0
    0.0000    0.0000    0.0000 C   0  0  0  0  0  0  0  0  0  0  0  0
   -1.0804   -0.6025    0.0000 O   0  0  0  0  0  1  0  0  0  0  0  0
    1.0804   -0.6166    0.0000 O   0  0  0  0  0  0  0  0  0  0  0  0
    1.8136   -0.0074   -3.6297 C   0  0  0  0  0  0  0  0  0  0  0  0
    0.8940   -0.4117   -3.6072 H   0  0  0  0  0  0  0  0  0  0  0  0
    2.4136   -0.6061   -4.1693 H   0  0  0  0  0  0  0  0  0  0  0  0
    1.7496    0.9562   -4.1351 H   0  0  0  0  0  0  0  0  0  0  0  0
    2.3382    0.0422   -2.2311 C   0  0  0  0  0  0  0  0  0  0  0  0
    3.0757    0.7117   -2.1671 H   0  0  0  0  0  0  0  0  0  0  0  0
    1.6042    0.2877   -1.6007 H   0  0  0  0  0  0  0  0  0  0  0  0
    2.8843   -1.2988   -1.8140 C   0  0  0  0  0  0  0  0  0  0  0  0
    3.4770   -1.1665   -1.0319 H   0  0  0  0  0  0  0  0  0  0  0  0
    2.1223   -1.8904   -1.5869 H   0  0  0  0  0  0  0  0  0  0  0  0
    3.4550   -1.7390   -2.6317 H   0  0  0  0  0  0  0  0  0  0  0  0
  1  5  1  0
  5  6  1  0
  5  7  2  0
  1  2  1  0
  1  3  1  0
  1  4  1  0
  8 12  1  0
 12 15  1  0
  8  9  1  0
  8 10  1  0
  8 11  1  0
 12 13  1  0
 12 14  1  0
 15 16  1  0
 15 17  1  0
 15 18  1  0
M  CHG  1   6  -1
M  END
>  <PDB_ID>  (1685) 
pdb3toe

>  <RESIDUE_NAME>  (1685) 
GLU   ARG

>  <FRAG_NAME>  (1685) 
ACET   PRPA

>  <FRAG_ATOM_NUM>  (1685) 
fragi: 7  fragj: 11

>  <atom.prop.CHAIN_ID>  (1685) 
A A A A A A A Z Z Z Z Z Z Z Z Z Z Z

>  <atom.prop.IS_HEAVY_ATOM>  (1685) 
1 0 0 0 1 1 1 1 0 0 0 1 0 0 1 0 0 0

>  <DIFUSE_FUNC_ATOM>  (1685) 
atom 6   atom 7   

>  <FINAL_SINGLE_POINT_ENERGY>  (1685) 
0

>  <NONCOV_INTER_ENERGY_QM>  (1685) 
0

>  <FF_Energy>  (1685) 
28.91

>  <QM_Energy>  (1685) 
3.09

>  <source>  (1685) 
ACET_PRPA_20

>  <Index>  (1685) 
6199

$$$$
ACET-pdb4rvc-A-GLU-121:PRPA-pdb4rvc-A-ARG-176
     RDKit          3D

 18 16  0  0  0  0  0  0  0  0999 V2000
   -0.0060    1.5113   -0.0137 C   0  0  0  0  0  0  0  0  0  0  0  0
   -0.1257    1.8044   -0.9421 H   0  0  0  0  0  0  0  0  0  0  0  0
    0.8416    1.8196    0.3716 H   0  0  0  0  0  0  0  0  0  0  0  0
   -0.8194    1.9299    0.5790 H   0  0  0  0  0  0  0  0  0  0  0  0
    0.0000    0.0000    0.0000 C   0  0  0  0  0  0  0  0  0  0  0  0
   -1.0987   -0.5890    0.0000 O   0  0  0  0  0  1  0  0  0  0  0  0
    1.0987   -0.6025   -0.0000 O   0  0  0  0  0  0  0  0  0  0  0  0
   -4.4191   -4.0884   -0.4029 C   0  0  0  0  0  0  0  0  0  0  0  0
   -5.3662   -3.7950   -0.2977 H   0  0  0  0  0  0  0  0  0  0  0  0
   -4.2150   -4.8140    0.2501 H   0  0  0  0  0  0  0  0  0  0  0  0
   -4.2986   -4.4924   -1.4082 H   0  0  0  0  0  0  0  0  0  0  0  0
   -3.5189   -2.8990   -0.0813 C   0  0  0  0  0  0  0  0  0  0  0  0
   -3.7346   -2.1423   -0.7045 H   0  0  0  0  0  0  0  0  0  0  0  0
   -3.6891   -2.5998    0.8623 H   0  0  0  0  0  0  0  0  0  0  0  0
   -2.0295   -3.2072   -0.2136 C   0  0  0  0  0  0  0  0  0  0  0  0
   -1.8707   -3.5579   -1.1370 H   0  0  0  0  0  0  0  0  0  0  0  0
   -1.5289   -2.3488   -0.0942 H   0  0  0  0  0  0  0  0  0  0  0  0
   -1.6768   -3.9363    0.5160 H   0  0  0  0  0  0  0  0  0  0  0  0
  1  5  1  0
  5  6  1  0
  5  7  2  0
  1  2  1  0
  1  3  1  0
  1  4  1  0
  8 12  1  0
 12 15  1  0
  8  9  1  0
  8 10  1  0
  8 11  1  0
 12 13  1  0
 12 14  1  0
 15 16  1  0
 15 17  1  0
 15 18  1  0
M  CHG  1   6  -1
M  END
>  <PDB_ID>  (1686) 
pdb4rvc

>  <RESIDUE_NAME>  (1686) 
GLU   ARG

>  <FRAG_NAME>  (1686) 
ACET   PRPA

>  <FRAG_ATOM_NUM>  (1686) 
fragi: 7  fragj: 11

>  <atom.prop.CHAIN_ID>  (1686) 
A A A A A A A Z Z Z Z Z Z Z Z Z Z Z

>  <atom.prop.IS_HEAVY_ATOM>  (1686) 
1 0 0 0 1 1 1 1 0 0 0 1 0 0 1 0 0 0

>  <DIFUSE_FUNC_ATOM>  (1686) 
atom 6   atom 7   

>  <FINAL_SINGLE_POINT_ENERGY>  (1686) 
0

>  <NONCOV_INTER_ENERGY_QM>  (1686) 
0

>  <FF_Energy>  (1686) 
24.58

>  <QM_Energy>  (1686) 
-0.4

>  <source>  (1686) 
ACET_PRPA_20

>  <Index>  (1686) 
8840

$$$$
ACET-pdb3t3w-E-ASP-155:PRPA-pdb3t3w-E-LEU-265
     RDKit          3D

 18 16  0  0  0  0  0  0  0  0999 V2000
    0.1012    1.5736    0.0589 C   0  0  0  0  0  0  0  0  0  0  0  0
    0.1823    1.8964   -0.8723 H   0  0  0  0  0  0  0  0  0  0  0  0
    0.9054    1.7960    0.5884 H   0  0  0  0  0  0  0  0  0  0  0  0
   -0.7687    2.0404    0.5210 H   0  0  0  0  0  0  0  0  0  0  0  0
    0.0000    0.0000    0.0000 C   0  0  0  0  0  0  0  0  0  0  0  0
   -1.0892   -0.6230   -0.0000 O   0  0  0  0  0  1  0  0  0  0  0  0
    1.0892   -0.6426    0.0000 O   0  0  0  0  0  0  0  0  0  0  0  0
    1.3533    3.7381   -3.2916 C   0  0  0  0  0  0  0  0  0  0  0  0
    0.5703    4.2047   -2.8961 H   0  0  0  0  0  0  0  0  0  0  0  0
    1.2181    3.5930   -4.2649 H   0  0  0  0  0  0  0  0  0  0  0  0
    2.2213    4.3862   -3.1700 H   0  0  0  0  0  0  0  0  0  0  0  0
    1.4558    2.3679   -2.6294 C   0  0  0  0  0  0  0  0  0  0  0  0
    1.5785    2.4838   -1.6482 H   0  0  0  0  0  0  0  0  0  0  0  0
    2.3141    1.8426   -3.0484 H   0  0  0  0  0  0  0  0  0  0  0  0
    0.1702    1.5695   -2.8825 C   0  0  0  0  0  0  0  0  0  0  0  0
    0.0429    1.4545   -3.8655 H   0  0  0  0  0  0  0  0  0  0  0  0
    0.2477    0.6759   -2.4454 H   0  0  0  0  0  0  0  0  0  0  0  0
   -0.6054    2.0669   -2.4979 H   0  0  0  0  0  0  0  0  0  0  0  0
  1  5  1  0
  5  6  1  0
  5  7  2  0
  1  2  1  0
  1  3  1  0
  1  4  1  0
  8 12  1  0
 12 15  1  0
  8  9  1  0
  8 10  1  0
  8 11  1  0
 12 13  1  0
 12 14  1  0
 15 16  1  0
 15 17  1  0
 15 18  1  0
M  CHG  1   6  -1
M  END
>  <PDB_ID>  (1687) 
pdb3t3w

>  <RESIDUE_NAME>  (1687) 
ASP   LEU

>  <FRAG_NAME>  (1687) 
ACET   PRPA

>  <FRAG_ATOM_NUM>  (1687) 
fragi: 7  fragj: 11

>  <atom.prop.CHAIN_ID>  (1687) 
A A A A A A A Z Z Z Z Z Z Z Z Z Z Z

>  <atom.prop.IS_HEAVY_ATOM>  (1687) 
1 0 0 0 1 1 1 1 0 0 0 1 0 0 1 0 0 0

>  <DIFUSE_FUNC_ATOM>  (1687) 
atom 6   atom 7   

>  <FINAL_SINGLE_POINT_ENERGY>  (1687) 
0

>  <NONCOV_INTER_ENERGY_QM>  (1687) 
0

>  <FF_Energy>  (1687) 
35.52

>  <QM_Energy>  (1687) 
5.7

>  <source>  (1687) 
ACET_PRPA_20

>  <Index>  (1687) 
9207

$$$$
ACET-pdb3t3w-E-ASP-155:PRPA-pdb3t3w-E-LEU-265
     RDKit          3D

 18 16  0  0  0  0  0  0  0  0999 V2000
    0.1012    1.5736    0.0589 C   0  0  0  0  0  0  0  0  0  0  0  0
    0.1823    1.8964   -0.8723 H   0  0  0  0  0  0  0  0  0  0  0  0
    0.9054    1.7960    0.5884 H   0  0  0  0  0  0  0  0  0  0  0  0
   -0.7687    2.0404    0.5210 H   0  0  0  0  0  0  0  0  0  0  0  0
    0.0000    0.0000    0.0000 C   0  0  0  0  0  0  0  0  0  0  0  0
   -1.0892   -0.6230   -0.0000 O   0  0  0  0  0  1  0  0  0  0  0  0
    1.0892   -0.6426    0.0000 O   0  0  0  0  0  0  0  0  0  0  0  0
    0.1702    1.5695   -2.8825 C   0  0  0  0  0  0  0  0  0  0  0  0
    0.0429    1.4545   -3.8655 H   0  0  0  0  0  0  0  0  0  0  0  0
    0.2477    0.6759   -2.4454 H   0  0  0  0  0  0  0  0  0  0  0  0
   -0.6054    2.0669   -2.4979 H   0  0  0  0  0  0  0  0  0  0  0  0
    1.4558    2.3679   -2.6294 C   0  0  0  0  0  0  0  0  0  0  0  0
    1.5785    2.4838   -1.6482 H   0  0  0  0  0  0  0  0  0  0  0  0
    1.3826    3.3471   -3.1026 H   0  0  0  0  0  0  0  0  0  0  0  0
    2.6534    1.6349   -3.2140 C   0  0  0  0  0  0  0  0  0  0  0  0
    3.4865    2.1610   -3.0381 H   0  0  0  0  0  0  0  0  0  0  0  0
    2.7338    0.7320   -2.7891 H   0  0  0  0  0  0  0  0  0  0  0  0
    2.5309    1.5271   -4.2017 H   0  0  0  0  0  0  0  0  0  0  0  0
  1  5  1  0
  5  6  1  0
  5  7  2  0
  1  2  1  0
  1  3  1  0
  1  4  1  0
  8 12  1  0
 12 15  1  0
  8  9  1  0
  8 10  1  0
  8 11  1  0
 12 13  1  0
 12 14  1  0
 15 16  1  0
 15 17  1  0
 15 18  1  0
M  CHG  1   6  -1
M  END
>  <PDB_ID>  (1688) 
pdb3t3w

>  <RESIDUE_NAME>  (1688) 
ASP   LEU

>  <FRAG_NAME>  (1688) 
ACET   PRPA

>  <FRAG_ATOM_NUM>  (1688) 
fragi: 7  fragj: 11

>  <atom.prop.CHAIN_ID>  (1688) 
A A A A A A A Z Z Z Z Z Z Z Z Z Z Z

>  <atom.prop.IS_HEAVY_ATOM>  (1688) 
1 0 0 0 1 1 1 1 0 0 0 1 0 0 1 0 0 0

>  <DIFUSE_FUNC_ATOM>  (1688) 
atom 6   atom 7   

>  <FINAL_SINGLE_POINT_ENERGY>  (1688) 
0

>  <NONCOV_INTER_ENERGY_QM>  (1688) 
0

>  <FF_Energy>  (1688) 
35.74

>  <QM_Energy>  (1688) 
5.16

>  <source>  (1688) 
ACET_PRPA_20

>  <Index>  (1688) 
9214

$$$$
ACET-pdb4rmn-A-GLU-481:PRPA-pdb4rmn-A-LEU-477
     RDKit          3D

 18 16  0  0  0  0  0  0  0  0999 V2000
    0.1898    1.4894    0.0149 C   0  0  0  0  0  0  0  0  0  0  0  0
    0.7053    1.7374   -0.8025 H   0  0  0  0  0  0  0  0  0  0  0  0
    0.7175    1.7185    0.8300 H   0  0  0  0  0  0  0  0  0  0  0  0
   -0.7219    2.0868    0.0271 H   0  0  0  0  0  0  0  0  0  0  0  0
    0.0000    0.0000    0.0000 C   0  0  0  0  0  0  0  0  0  0  0  0
   -1.0889   -0.5525   -0.0000 O   0  0  0  0  0  1  0  0  0  0  0  0
    1.0889   -0.6134   -0.0000 O   0  0  0  0  0  0  0  0  0  0  0  0
   -0.6293   -1.9231   -2.4404 C   0  0  0  0  0  0  0  0  0  0  0  0
   -0.6265   -1.4999   -1.5440 H   0  0  0  0  0  0  0  0  0  0  0  0
   -1.2263   -2.8346   -2.4130 H   0  0  0  0  0  0  0  0  0  0  0  0
   -1.1339   -1.2504   -3.1339 H   0  0  0  0  0  0  0  0  0  0  0  0
    0.7557   -2.2908   -2.9340 C   0  0  0  0  0  0  0  0  0  0  0  0
    1.1909   -2.8693   -2.2326 H   0  0  0  0  0  0  0  0  0  0  0  0
    0.6511   -2.8371   -3.7729 H   0  0  0  0  0  0  0  0  0  0  0  0
    1.7353   -1.1661   -3.2534 C   0  0  0  0  0  0  0  0  0  0  0  0
    1.3089   -0.5389   -3.8831 H   0  0  0  0  0  0  0  0  0  0  0  0
    1.9465   -0.6673   -2.3075 H   0  0  0  0  0  0  0  0  0  0  0  0
    2.6455   -1.5449   -3.7184 H   0  0  0  0  0  0  0  0  0  0  0  0
  1  5  1  0
  5  6  1  0
  5  7  2  0
  1  2  1  0
  1  3  1  0
  1  4  1  0
  8 12  1  0
 12 15  1  0
  8  9  1  0
  8 10  1  0
  8 11  1  0
 12 13  1  0
 12 14  1  0
 15 16  1  0
 15 17  1  0
 15 18  1  0
M  CHG  1   6  -1
M  END
>  <PDB_ID>  (1689) 
pdb4rmn

>  <RESIDUE_NAME>  (1689) 
GLU   LEU

>  <FRAG_NAME>  (1689) 
ACET   PRPA

>  <FRAG_ATOM_NUM>  (1689) 
fragi: 7  fragj: 11

>  <atom.prop.CHAIN_ID>  (1689) 
A A A A A A A Z Z Z Z Z Z Z Z Z Z Z

>  <atom.prop.IS_HEAVY_ATOM>  (1689) 
1 0 0 0 1 1 1 1 0 0 0 1 0 0 1 0 0 0

>  <DIFUSE_FUNC_ATOM>  (1689) 
atom 6   atom 7   

>  <FINAL_SINGLE_POINT_ENERGY>  (1689) 
0

>  <NONCOV_INTER_ENERGY_QM>  (1689) 
0

>  <FF_Energy>  (1689) 
22.35

>  <QM_Energy>  (1689) 
-1.82

>  <source>  (1689) 
ACET_PRPA_20

>  <Index>  (1689) 
9666

$$$$
ACET-pdb4s1k-A-GLU-34:PRPA-pdb4s1k-A-LYS-101
     RDKit          3D

 18 16  0  0  0  0  0  0  0  0999 V2000
    0.0341    1.4989   -0.0101 C   0  0  0  0  0  0  0  0  0  0  0  0
    0.7019    1.7839    0.6472 H   0  0  0  0  0  0  0  0  0  0  0  0
   -0.8684    1.8165    0.2011 H   0  0  0  0  0  0  0  0  0  0  0  0
    0.3221    1.8684   -0.9943 H   0  0  0  0  0  0  0  0  0  0  0  0
    0.0000    0.0000    0.0000 C   0  0  0  0  0  0  0  0  0  0  0  0
   -1.1192   -0.5627    0.0000 O   0  0  0  0  0  1  0  0  0  0  0  0
    1.1192   -0.5731    0.0000 O   0  0  0  0  0  0  0  0  0  0  0  0
   -3.9160   -0.7681   -3.2440 C   0  0  0  0  0  0  0  0  0  0  0  0
   -4.2195   -0.2041   -2.4648 H   0  0  0  0  0  0  0  0  0  0  0  0
   -4.7029   -0.9027   -3.8601 H   0  0  0  0  0  0  0  0  0  0  0  0
   -3.1392   -0.2262   -3.7836 H   0  0  0  0  0  0  0  0  0  0  0  0
   -3.4404   -2.0828   -2.7496 C   0  0  0  0  0  0  0  0  0  0  0  0
   -4.1956   -2.5811   -2.3460 H   0  0  0  0  0  0  0  0  0  0  0  0
   -3.0353   -2.5945   -3.4952 H   0  0  0  0  0  0  0  0  0  0  0  0
   -2.3952   -1.8596   -1.6976 C   0  0  0  0  0  0  0  0  0  0  0  0
   -1.4774   -1.9399   -2.1138 H   0  0  0  0  0  0  0  0  0  0  0  0
   -2.4838   -0.9225   -1.3285 H   0  0  0  0  0  0  0  0  0  0  0  0
   -2.4631   -2.5648   -0.8693 H   0  0  0  0  0  0  0  0  0  0  0  0
  1  5  1  0
  5  6  1  0
  5  7  2  0
  1  2  1  0
  1  3  1  0
  1  4  1  0
  8 12  1  0
 12 15  1  0
  8  9  1  0
  8 10  1  0
  8 11  1  0
 12 13  1  0
 12 14  1  0
 15 16  1  0
 15 17  1  0
 15 18  1  0
M  CHG  1   6  -1
M  END
>  <PDB_ID>  (1690) 
pdb4s1k

>  <RESIDUE_NAME>  (1690) 
GLU   LYS

>  <FRAG_NAME>  (1690) 
ACET   PRPA

>  <FRAG_ATOM_NUM>  (1690) 
fragi: 7  fragj: 11

>  <atom.prop.CHAIN_ID>  (1690) 
A A A A A A A Z Z Z Z Z Z Z Z Z Z Z

>  <atom.prop.IS_HEAVY_ATOM>  (1690) 
1 0 0 0 1 1 1 1 0 0 0 1 0 0 1 0 0 0

>  <DIFUSE_FUNC_ATOM>  (1690) 
atom 6   atom 7   

>  <FINAL_SINGLE_POINT_ENERGY>  (1690) 
0

>  <NONCOV_INTER_ENERGY_QM>  (1690) 
0

>  <FF_Energy>  (1690) 
20.19

>  <QM_Energy>  (1690) 
5.18

>  <source>  (1690) 
ACET_PRPA_20

>  <Index>  (1690) 
9725

$$$$
ACET-pdb3t3w-F-ASP-155:PRPA-pdb3t3w-F-LEU-265
     RDKit          3D

 18 16  0  0  0  0  0  0  0  0999 V2000
    0.0306    1.5238   -0.1134 C   0  0  0  0  0  0  0  0  0  0  0  0
    0.9261    1.8417    0.1495 H   0  0  0  0  0  0  0  0  0  0  0  0
   -0.6745    1.8969    0.4640 H   0  0  0  0  0  0  0  0  0  0  0  0
   -0.1591    1.8486   -1.1365 H   0  0  0  0  0  0  0  0  0  0  0  0
    0.0000    0.0000    0.0000 C   0  0  0  0  0  0  0  0  0  0  0  0
   -1.1028   -0.6525    0.0000 O   0  0  0  0  0  1  0  0  0  0  0  0
    1.1028   -0.5263    0.0000 O   0  0  0  0  0  0  0  0  0  0  0  0
    3.7781    1.4969    0.9982 C   0  0  0  0  0  0  0  0  0  0  0  0
    3.9735    0.6943    1.5540 H   0  0  0  0  0  0  0  0  0  0  0  0
    2.7998    1.6673    0.9668 H   0  0  0  0  0  0  0  0  0  0  0  0
    4.2461    2.3537    1.4829 H   0  0  0  0  0  0  0  0  0  0  0  0
    4.2426    1.1998   -0.4224 C   0  0  0  0  0  0  0  0  0  0  0  0
    3.8467    1.8692   -1.0455 H   0  0  0  0  0  0  0  0  0  0  0  0
    5.3295    1.2605   -0.4780 H   0  0  0  0  0  0  0  0  0  0  0  0
    3.7721   -0.1956   -0.8048 C   0  0  0  0  0  0  0  0  0  0  0  0
    2.7737   -0.2368   -0.7584 H   0  0  0  0  0  0  0  0  0  0  0  0
    4.0708   -0.4062   -1.7369 H   0  0  0  0  0  0  0  0  0  0  0  0
    4.1632   -0.8658   -0.1713 H   0  0  0  0  0  0  0  0  0  0  0  0
  1  5  1  0
  5  6  1  0
  5  7  2  0
  1  2  1  0
  1  3  1  0
  1  4  1  0
  8 12  1  0
 12 15  1  0
  8  9  1  0
  8 10  1  0
  8 11  1  0
 12 13  1  0
 12 14  1  0
 15 16  1  0
 15 17  1  0
 15 18  1  0
M  CHG  1   6  -1
M  END
>  <PDB_ID>  (1691) 
pdb3t3w

>  <RESIDUE_NAME>  (1691) 
ASP   LEU

>  <FRAG_NAME>  (1691) 
ACET   PRPA

>  <FRAG_ATOM_NUM>  (1691) 
fragi: 7  fragj: 11

>  <atom.prop.CHAIN_ID>  (1691) 
A A A A A A A Z Z Z Z Z Z Z Z Z Z Z

>  <atom.prop.IS_HEAVY_ATOM>  (1691) 
1 0 0 0 1 1 1 1 0 0 0 1 0 0 1 0 0 0

>  <DIFUSE_FUNC_ATOM>  (1691) 
atom 6   atom 7   

>  <FINAL_SINGLE_POINT_ENERGY>  (1691) 
0

>  <NONCOV_INTER_ENERGY_QM>  (1691) 
0

>  <FF_Energy>  (1691) 
18.66

>  <QM_Energy>  (1691) 
-0.58

>  <source>  (1691) 
ACET_PRPA_20

>  <Index>  (1691) 
11020

$$$$
ACET-pdb3tx2-A-GLU-151:PRPA-pdb3tx2-A-LYS-179
     RDKit          3D

 18 16  0  0  0  0  0  0  0  0999 V2000
    0.0424    1.5336   -0.0432 C   0  0  0  0  0  0  0  0  0  0  0  0
   -0.5584    1.8208   -0.7833 H   0  0  0  0  0  0  0  0  0  0  0  0
    0.9821    1.7928   -0.2438 H   0  0  0  0  0  0  0  0  0  0  0  0
   -0.2666    2.0526    0.8642 H   0  0  0  0  0  0  0  0  0  0  0  0
    0.0000    0.0000    0.0000 C   0  0  0  0  0  0  0  0  0  0  0  0
   -1.0862   -0.5800   -0.0000 O   0  0  0  0  0  1  0  0  0  0  0  0
    1.0862   -0.6337    0.0000 O   0  0  0  0  0  0  0  0  0  0  0  0
    4.1098   -3.5867   -1.2916 C   0  0  0  0  0  0  0  0  0  0  0  0
    4.6076   -3.5432   -0.4245 H   0  0  0  0  0  0  0  0  0  0  0  0
    4.1127   -2.6834   -1.7221 H   0  0  0  0  0  0  0  0  0  0  0  0
    4.6096   -4.2960   -1.9513 H   0  0  0  0  0  0  0  0  0  0  0  0
    2.6738   -3.9960   -1.0156 C   0  0  0  0  0  0  0  0  0  0  0  0
    2.1805   -4.0413   -1.8845 H   0  0  0  0  0  0  0  0  0  0  0  0
    2.6740   -4.9003   -0.5857 H   0  0  0  0  0  0  0  0  0  0  0  0
    1.9587   -3.0274   -0.1020 C   0  0  0  0  0  0  0  0  0  0  0  0
    2.4440   -2.9795    0.7708 H   0  0  0  0  0  0  0  0  0  0  0  0
    1.9501   -2.1207   -0.5266 H   0  0  0  0  0  0  0  0  0  0  0  0
    0.9326   -3.3501    0.0746 H   0  0  0  0  0  0  0  0  0  0  0  0
  1  5  1  0
  5  6  1  0
  5  7  2  0
  1  2  1  0
  1  3  1  0
  1  4  1  0
  8 12  1  0
 12 15  1  0
  8  9  1  0
  8 10  1  0
  8 11  1  0
 12 13  1  0
 12 14  1  0
 15 16  1  0
 15 17  1  0
 15 18  1  0
M  CHG  1   6  -1
M  END
>  <PDB_ID>  (1692) 
pdb3tx2

>  <RESIDUE_NAME>  (1692) 
GLU   LYS

>  <FRAG_NAME>  (1692) 
ACET   PRPA

>  <FRAG_ATOM_NUM>  (1692) 
fragi: 7  fragj: 11

>  <atom.prop.CHAIN_ID>  (1692) 
A A A A A A A Z Z Z Z Z Z Z Z Z Z Z

>  <atom.prop.IS_HEAVY_ATOM>  (1692) 
1 0 0 0 1 1 1 1 0 0 0 1 0 0 1 0 0 0

>  <DIFUSE_FUNC_ATOM>  (1692) 
atom 6   atom 7   

>  <FINAL_SINGLE_POINT_ENERGY>  (1692) 
0

>  <NONCOV_INTER_ENERGY_QM>  (1692) 
0

>  <FF_Energy>  (1692) 
33.12

>  <QM_Energy>  (1692) 
5.35

>  <source>  (1692) 
ACET_PRPA_20

>  <Index>  (1692) 
11167

$$$$
ACET-pdb4ry8-A-ASP-75:PRPA-pdb4ry8-A-ARG-78
     RDKit          3D

 18 16  0  0  0  0  0  0  0  0999 V2000
    0.0434    1.5119    0.0701 C   0  0  0  0  0  0  0  0  0  0  0  0
    0.6555    1.8494   -0.6433 H   0  0  0  0  0  0  0  0  0  0  0  0
    0.3902    1.7827    0.9661 H   0  0  0  0  0  0  0  0  0  0  0  0
   -0.9268    1.9883   -0.0704 H   0  0  0  0  0  0  0  0  0  0  0  0
    0.0000    0.0000    0.0000 C   0  0  0  0  0  0  0  0  0  0  0  0
   -1.0901   -0.5927   -0.0000 O   0  0  0  0  0  1  0  0  0  0  0  0
    1.0901   -0.5949    0.0000 O   0  0  0  0  0  0  0  0  0  0  0  0
    0.4120   -0.2875    3.6775 C   0  0  0  0  0  0  0  0  0  0  0  0
    0.0858    0.5517    3.2377 H   0  0  0  0  0  0  0  0  0  0  0  0
    0.9487   -0.0462    4.4874 H   0  0  0  0  0  0  0  0  0  0  0  0
   -0.4579   -0.8562    4.0061 H   0  0  0  0  0  0  0  0  0  0  0  0
    1.3348   -1.0018    2.6995 C   0  0  0  0  0  0  0  0  0  0  0  0
    1.6758   -1.8395    3.1287 H   0  0  0  0  0  0  0  0  0  0  0  0
    0.8127   -1.2399    1.8787 H   0  0  0  0  0  0  0  0  0  0  0  0
    2.4897   -0.1521    2.3066 C   0  0  0  0  0  0  0  0  0  0  0  0
    2.1467    0.6844    1.8780 H   0  0  0  0  0  0  0  0  0  0  0  0
    3.0092    0.0860    3.1284 H   0  0  0  0  0  0  0  0  0  0  0  0
    3.1526   -0.6602    1.6062 H   0  0  0  0  0  0  0  0  0  0  0  0
  1  5  1  0
  5  6  1  0
  5  7  2  0
  1  2  1  0
  1  3  1  0
  1  4  1  0
  8 12  1  0
 12 15  1  0
  8  9  1  0
  8 10  1  0
  8 11  1  0
 12 13  1  0
 12 14  1  0
 15 16  1  0
 15 17  1  0
 15 18  1  0
M  CHG  1   6  -1
M  END
>  <PDB_ID>  (1693) 
pdb4ry8

>  <RESIDUE_NAME>  (1693) 
ASP   ARG

>  <FRAG_NAME>  (1693) 
ACET   PRPA

>  <FRAG_ATOM_NUM>  (1693) 
fragi: 7  fragj: 11

>  <atom.prop.CHAIN_ID>  (1693) 
A A A A A A A Z Z Z Z Z Z Z Z Z Z Z

>  <atom.prop.IS_HEAVY_ATOM>  (1693) 
1 0 0 0 1 1 1 1 0 0 0 1 0 0 1 0 0 0

>  <DIFUSE_FUNC_ATOM>  (1693) 
atom 6   atom 7   

>  <FINAL_SINGLE_POINT_ENERGY>  (1693) 
0

>  <NONCOV_INTER_ENERGY_QM>  (1693) 
0

>  <FF_Energy>  (1693) 
15.45

>  <QM_Energy>  (1693) 
0.24

>  <source>  (1693) 
ACET_PRPA_20

>  <Index>  (1693) 
11512

$$$$
ACET-pdb3tmg-C-GLU-92:PRPA-pdb3tmg-C-LYS-88
     RDKit          3D

 18 16  0  0  0  0  0  0  0  0999 V2000
    0.1903    1.4886    0.0129 C   0  0  0  0  0  0  0  0  0  0  0  0
    0.7061    1.7362   -0.8042 H   0  0  0  0  0  0  0  0  0  0  0  0
    0.7182    1.7195    0.8282 H   0  0  0  0  0  0  0  0  0  0  0  0
   -0.7209    2.0866    0.0246 H   0  0  0  0  0  0  0  0  0  0  0  0
    0.0000    0.0000    0.0000 C   0  0  0  0  0  0  0  0  0  0  0  0
   -1.0884   -0.5513    0.0000 O   0  0  0  0  0  1  0  0  0  0  0  0
    1.0884   -0.6131   -0.0000 O   0  0  0  0  0  0  0  0  0  0  0  0
    2.1781   -0.1584    3.7029 C   0  0  0  0  0  0  0  0  0  0  0  0
    3.0851   -0.2980    3.3017 H   0  0  0  0  0  0  0  0  0  0  0  0
    2.1114   -0.6816    4.5543 H   0  0  0  0  0  0  0  0  0  0  0  0
    2.0777    0.8986    3.9493 H   0  0  0  0  0  0  0  0  0  0  0  0
    1.1370   -0.6963    2.7281 C   0  0  0  0  0  0  0  0  0  0  0  0
    0.2778   -0.8615    3.2282 H   0  0  0  0  0  0  0  0  0  0  0  0
    0.9614   -0.0002    2.0210 H   0  0  0  0  0  0  0  0  0  0  0  0
    1.5574   -1.9926    2.0421 C   0  0  0  0  0  0  0  0  0  0  0  0
    0.7649   -2.3576    1.5358 H   0  0  0  0  0  0  0  0  0  0  0  0
    2.2858   -1.7821    1.3780 H   0  0  0  0  0  0  0  0  0  0  0  0
    1.9216   -2.7686    2.7154 H   0  0  0  0  0  0  0  0  0  0  0  0
  1  5  1  0
  5  6  1  0
  5  7  2  0
  1  2  1  0
  1  3  1  0
  1  4  1  0
  8 12  1  0
 12 15  1  0
  8  9  1  0
  8 10  1  0
  8 11  1  0
 12 13  1  0
 12 14  1  0
 15 16  1  0
 15 17  1  0
 15 18  1  0
M  CHG  1   6  -1
M  END
>  <PDB_ID>  (1694) 
pdb3tmg

>  <RESIDUE_NAME>  (1694) 
GLU   LYS

>  <FRAG_NAME>  (1694) 
ACET   PRPA

>  <FRAG_ATOM_NUM>  (1694) 
fragi: 7  fragj: 11

>  <atom.prop.CHAIN_ID>  (1694) 
A A A A A A A Z Z Z Z Z Z Z Z Z Z Z

>  <atom.prop.IS_HEAVY_ATOM>  (1694) 
1 0 0 0 1 1 1 1 0 0 0 1 0 0 1 0 0 0

>  <DIFUSE_FUNC_ATOM>  (1694) 
atom 6   atom 7   

>  <FINAL_SINGLE_POINT_ENERGY>  (1694) 
0

>  <NONCOV_INTER_ENERGY_QM>  (1694) 
0

>  <FF_Energy>  (1694) 
25.87

>  <QM_Energy>  (1694) 
3.83

>  <source>  (1694) 
ACET_PRPA_20

>  <Index>  (1694) 
12081

$$$$
ACET-pdb3tmg-C-GLU-92:PRPA-pdb3tmg-C-LYS-88
     RDKit          3D

 18 16  0  0  0  0  0  0  0  0999 V2000
    0.1903    1.4886    0.0129 C   0  0  0  0  0  0  0  0  0  0  0  0
    0.7061    1.7362   -0.8042 H   0  0  0  0  0  0  0  0  0  0  0  0
    0.7182    1.7195    0.8282 H   0  0  0  0  0  0  0  0  0  0  0  0
   -0.7209    2.0866    0.0246 H   0  0  0  0  0  0  0  0  0  0  0  0
    0.0000    0.0000    0.0000 C   0  0  0  0  0  0  0  0  0  0  0  0
   -1.0884   -0.5513    0.0000 O   0  0  0  0  0  1  0  0  0  0  0  0
    1.0884   -0.6131   -0.0000 O   0  0  0  0  0  0  0  0  0  0  0  0
    1.1370   -0.6963    2.7281 C   0  0  0  0  0  0  0  0  0  0  0  0
    0.2778   -0.8615    3.2282 H   0  0  0  0  0  0  0  0  0  0  0  0
    0.9614   -0.0002    2.0210 H   0  0  0  0  0  0  0  0  0  0  0  0
    1.8815   -0.3117    3.4252 H   0  0  0  0  0  0  0  0  0  0  0  0
    1.5574   -1.9926    2.0421 C   0  0  0  0  0  0  0  0  0  0  0  0
    0.7649   -2.3576    1.5358 H   0  0  0  0  0  0  0  0  0  0  0  0
    2.2858   -1.7821    1.3780 H   0  0  0  0  0  0  0  0  0  0  0  0
    2.0659   -3.0760    2.9822 C   0  0  0  0  0  0  0  0  0  0  0  0
    2.5554   -3.7745    2.4410 H   0  0  0  0  0  0  0  0  0  0  0  0
    2.7287   -2.6657    3.6257 H   0  0  0  0  0  0  0  0  0  0  0  0
    1.2788   -3.5658    3.5555 H   0  0  0  0  0  0  0  0  0  0  0  0
  1  5  1  0
  5  6  1  0
  5  7  2  0
  1  2  1  0
  1  3  1  0
  1  4  1  0
  8 12  1  0
 12 15  1  0
  8  9  1  0
  8 10  1  0
  8 11  1  0
 12 13  1  0
 12 14  1  0
 15 16  1  0
 15 17  1  0
 15 18  1  0
M  CHG  1   6  -1
M  END
>  <PDB_ID>  (1695) 
pdb3tmg

>  <RESIDUE_NAME>  (1695) 
GLU   LYS

>  <FRAG_NAME>  (1695) 
ACET   PRPA

>  <FRAG_ATOM_NUM>  (1695) 
fragi: 7  fragj: 11

>  <atom.prop.CHAIN_ID>  (1695) 
A A A A A A A Z Z Z Z Z Z Z Z Z Z Z

>  <atom.prop.IS_HEAVY_ATOM>  (1695) 
1 0 0 0 1 1 1 1 0 0 0 1 0 0 1 0 0 0

>  <DIFUSE_FUNC_ATOM>  (1695) 
atom 6   atom 7   

>  <FINAL_SINGLE_POINT_ENERGY>  (1695) 
0

>  <NONCOV_INTER_ENERGY_QM>  (1695) 
0

>  <FF_Energy>  (1695) 
23.34

>  <QM_Energy>  (1695) 
4.01

>  <source>  (1695) 
ACET_PRPA_20

>  <Index>  (1695) 
12082

$$$$
ACET-pdb3twr-A-ASP-617:PRPA-pdb3twr-A-LYS-620
     RDKit          3D

 18 16  0  0  0  0  0  0  0  0999 V2000
    0.0234    1.5264    0.0218 C   0  0  0  0  0  0  0  0  0  0  0  0
    0.6719    1.8412   -0.6626 H   0  0  0  0  0  0  0  0  0  0  0  0
    0.3028    1.8251    0.9271 H   0  0  0  0  0  0  0  0  0  0  0  0
   -0.9462    1.9726   -0.1992 H   0  0  0  0  0  0  0  0  0  0  0  0
    0.0000    0.0000    0.0000 C   0  0  0  0  0  0  0  0  0  0  0  0
   -1.0929   -0.6032    0.0000 O   0  0  0  0  0  1  0  0  0  0  0  0
    1.0929   -0.5946    0.0000 O   0  0  0  0  0  0  0  0  0  0  0  0
    1.3567    1.0855    2.9421 C   0  0  0  0  0  0  0  0  0  0  0  0
    0.6997    0.7022    2.2881 H   0  0  0  0  0  0  0  0  0  0  0  0
    1.5332    2.0436    2.7047 H   0  0  0  0  0  0  0  0  0  0  0  0
    0.9259    1.0418    3.9424 H   0  0  0  0  0  0  0  0  0  0  0  0
    2.6569    0.3071    2.8446 C   0  0  0  0  0  0  0  0  0  0  0  0
    3.2982    0.6608    3.5187 H   0  0  0  0  0  0  0  0  0  0  0  0
    2.4729   -0.6557    3.0171 H   0  0  0  0  0  0  0  0  0  0  0  0
    3.2922    0.4352    1.4619 C   0  0  0  0  0  0  0  0  0  0  0  0
    4.1694   -0.0588    1.4634 H   0  0  0  0  0  0  0  0  0  0  0  0
    2.6851    0.0005    0.7859 H   0  0  0  0  0  0  0  0  0  0  0  0
    3.4661    1.4711    1.1705 H   0  0  0  0  0  0  0  0  0  0  0  0
  1  5  1  0
  5  6  1  0
  5  7  2  0
  1  2  1  0
  1  3  1  0
  1  4  1  0
  8 12  1  0
 12 15  1  0
  8  9  1  0
  8 10  1  0
  8 11  1  0
 12 13  1  0
 12 14  1  0
 15 16  1  0
 15 17  1  0
 15 18  1  0
M  CHG  1   6  -1
M  END
>  <PDB_ID>  (1696) 
pdb3twr

>  <RESIDUE_NAME>  (1696) 
ASP   LYS

>  <FRAG_NAME>  (1696) 
ACET   PRPA

>  <FRAG_ATOM_NUM>  (1696) 
fragi: 7  fragj: 11

>  <atom.prop.CHAIN_ID>  (1696) 
A A A A A A A Z Z Z Z Z Z Z Z Z Z Z

>  <atom.prop.IS_HEAVY_ATOM>  (1696) 
1 0 0 0 1 1 1 1 0 0 0 1 0 0 1 0 0 0

>  <DIFUSE_FUNC_ATOM>  (1696) 
atom 6   atom 7   

>  <FINAL_SINGLE_POINT_ENERGY>  (1696) 
0

>  <NONCOV_INTER_ENERGY_QM>  (1696) 
0

>  <FF_Energy>  (1696) 
23.66

>  <QM_Energy>  (1696) 
1.29

>  <source>  (1696) 
ACET_PRPA_20

>  <Index>  (1696) 
13004

$$$$
ACET-pdb4s17-B-GLU-60:PRPA-pdb4s17-A-LYS-185
     RDKit          3D

 18 16  0  0  0  0  0  0  0  0999 V2000
    0.1753    1.4848    0.0144 C   0  0  0  0  0  0  0  0  0  0  0  0
    0.6941    1.7401   -0.8026 H   0  0  0  0  0  0  0  0  0  0  0  0
    0.7061    1.7217    0.8295 H   0  0  0  0  0  0  0  0  0  0  0  0
   -0.7352    2.0839    0.0268 H   0  0  0  0  0  0  0  0  0  0  0  0
    0.0000    0.0000    0.0000 C   0  0  0  0  0  0  0  0  0  0  0  0
   -1.0892   -0.5576    0.0000 O   0  0  0  0  0  1  0  0  0  0  0  0
    1.0892   -0.6085    0.0000 O   0  0  0  0  0  0  0  0  0  0  0  0
    4.7495   -1.0600    0.8790 C   0  0  0  0  0  0  0  0  0  0  0  0
    5.2465   -1.9053    0.6884 H   0  0  0  0  0  0  0  0  0  0  0  0
    4.0529   -1.2323    1.5754 H   0  0  0  0  0  0  0  0  0  0  0  0
    5.4573   -0.3345    1.2801 H   0  0  0  0  0  0  0  0  0  0  0  0
    4.0529   -0.6164   -0.3963 C   0  0  0  0  0  0  0  0  0  0  0  0
    3.5628    0.2370   -0.2217 H   0  0  0  0  0  0  0  0  0  0  0  0
    4.7368   -0.4704   -1.1096 H   0  0  0  0  0  0  0  0  0  0  0  0
    3.0601   -1.6647   -0.8728 C   0  0  0  0  0  0  0  0  0  0  0  0
    3.5626   -2.4545   -1.2088 H   0  0  0  0  0  0  0  0  0  0  0  0
    2.4746   -1.9235   -0.1124 H   0  0  0  0  0  0  0  0  0  0  0  0
    2.4343   -1.2816   -1.6789 H   0  0  0  0  0  0  0  0  0  0  0  0
  1  5  1  0
  5  6  1  0
  5  7  2  0
  1  2  1  0
  1  3  1  0
  1  4  1  0
  8 12  1  0
 12 15  1  0
  8  9  1  0
  8 10  1  0
  8 11  1  0
 12 13  1  0
 12 14  1  0
 15 16  1  0
 15 17  1  0
 15 18  1  0
M  CHG  1   6  -1
M  END
>  <PDB_ID>  (1697) 
pdb4s17

>  <RESIDUE_NAME>  (1697) 
GLU   LYS

>  <FRAG_NAME>  (1697) 
ACET   PRPA

>  <FRAG_ATOM_NUM>  (1697) 
fragi: 7  fragj: 11

>  <atom.prop.CHAIN_ID>  (1697) 
A A A A A A A Z Z Z Z Z Z Z Z Z Z Z

>  <atom.prop.IS_HEAVY_ATOM>  (1697) 
1 0 0 0 1 1 1 1 0 0 0 1 0 0 1 0 0 0

>  <DIFUSE_FUNC_ATOM>  (1697) 
atom 6   atom 7   

>  <FINAL_SINGLE_POINT_ENERGY>  (1697) 
0

>  <NONCOV_INTER_ENERGY_QM>  (1697) 
0

>  <FF_Energy>  (1697) 
31.19

>  <QM_Energy>  (1697) 
5.88

>  <source>  (1697) 
ACET_PRPA_20

>  <Index>  (1697) 
13467

$$$$
ACET-pdb3u43-A-ASP-9:PRPA-pdb3u43-A-LEU-3
     RDKit          3D

 18 16  0  0  0  0  0  0  0  0999 V2000
    0.0040    1.4967   -0.0944 C   0  0  0  0  0  0  0  0  0  0  0  0
    0.9330    1.7954   -0.2970 H   0  0  0  0  0  0  0  0  0  0  0  0
   -0.2887    1.8668    0.7828 H   0  0  0  0  0  0  0  0  0  0  0  0
   -0.6670    1.8506   -0.8772 H   0  0  0  0  0  0  0  0  0  0  0  0
    0.0000    0.0000    0.0000 C   0  0  0  0  0  0  0  0  0  0  0  0
   -1.1193   -0.5474    0.0000 O   0  0  0  0  0  1  0  0  0  0  0  0
    1.1193   -0.5891    0.0000 O   0  0  0  0  0  0  0  0  0  0  0  0
    1.3961    4.5654    2.2497 C   0  0  0  0  0  0  0  0  0  0  0  0
    1.3835    4.5533    3.2636 H   0  0  0  0  0  0  0  0  0  0  0  0
    1.2108    5.5933    1.9379 H   0  0  0  0  0  0  0  0  0  0  0  0
    2.3481    4.1641    1.9022 H   0  0  0  0  0  0  0  0  0  0  0  0
    0.1635    3.7488    1.7849 C   0  0  0  0  0  0  0  0  0  0  0  0
   -0.0304    4.0221    0.8425 H   0  0  0  0  0  0  0  0  0  0  0  0
    0.4254    2.7849    1.8054 H   0  0  0  0  0  0  0  0  0  0  0  0
   -1.1133    3.9040    2.5883 C   0  0  0  0  0  0  0  0  0  0  0  0
   -1.4001    4.8627    2.5704 H   0  0  0  0  0  0  0  0  0  0  0  0
   -1.9060    3.2850    2.1683 H   0  0  0  0  0  0  0  0  0  0  0  0
   -0.9113    3.6120    3.6188 H   0  0  0  0  0  0  0  0  0  0  0  0
  1  5  1  0
  5  6  1  0
  5  7  2  0
  1  2  1  0
  1  3  1  0
  1  4  1  0
  8 12  1  0
 12 15  1  0
  8  9  1  0
  8 10  1  0
  8 11  1  0
 12 13  1  0
 12 14  1  0
 15 16  1  0
 15 17  1  0
 15 18  1  0
M  CHG  1   6  -1
M  END
>  <PDB_ID>  (1698) 
pdb3u43

>  <RESIDUE_NAME>  (1698) 
ASP   LEU

>  <FRAG_NAME>  (1698) 
ACET   PRPA

>  <FRAG_ATOM_NUM>  (1698) 
fragi: 7  fragj: 11

>  <atom.prop.CHAIN_ID>  (1698) 
A A A A A A A Z Z Z Z Z Z Z Z Z Z Z

>  <atom.prop.IS_HEAVY_ATOM>  (1698) 
1 0 0 0 1 1 1 1 0 0 0 1 0 0 1 0 0 0

>  <DIFUSE_FUNC_ATOM>  (1698) 
atom 6   atom 7   

>  <FINAL_SINGLE_POINT_ENERGY>  (1698) 
0

>  <NONCOV_INTER_ENERGY_QM>  (1698) 
0

>  <FF_Energy>  (1698) 
29.81

>  <QM_Energy>  (1698) 
6.71

>  <source>  (1698) 
ACET_PRPA_20

>  <Index>  (1698) 
14448

$$$$
ACET-pdb3u43-A-ASP-9:PRPA-pdb3u43-A-LEU-3
     RDKit          3D

 18 16  0  0  0  0  0  0  0  0999 V2000
    0.0040    1.4967   -0.0944 C   0  0  0  0  0  0  0  0  0  0  0  0
    0.9330    1.7954   -0.2970 H   0  0  0  0  0  0  0  0  0  0  0  0
   -0.2887    1.8668    0.7828 H   0  0  0  0  0  0  0  0  0  0  0  0
   -0.6670    1.8506   -0.8772 H   0  0  0  0  0  0  0  0  0  0  0  0
    0.0000    0.0000    0.0000 C   0  0  0  0  0  0  0  0  0  0  0  0
   -1.1193   -0.5474    0.0000 O   0  0  0  0  0  1  0  0  0  0  0  0
    1.1193   -0.5891    0.0000 O   0  0  0  0  0  0  0  0  0  0  0  0
    0.1635    3.7488    1.7849 C   0  0  0  0  0  0  0  0  0  0  0  0
   -0.0304    4.0221    0.8425 H   0  0  0  0  0  0  0  0  0  0  0  0
    0.4254    2.7849    1.8054 H   0  0  0  0  0  0  0  0  0  0  0  0
    1.0303    4.3231    2.1118 H   0  0  0  0  0  0  0  0  0  0  0  0
   -1.1133    3.9040    2.5883 C   0  0  0  0  0  0  0  0  0  0  0  0
   -1.4001    4.8627    2.5704 H   0  0  0  0  0  0  0  0  0  0  0  0
   -0.9113    3.6120    3.6188 H   0  0  0  0  0  0  0  0  0  0  0  0
   -2.2195    3.0401    2.0022 C   0  0  0  0  0  0  0  0  0  0  0  0
   -1.9400    2.0796    2.0215 H   0  0  0  0  0  0  0  0  0  0  0  0
   -3.0542    3.1537    2.5427 H   0  0  0  0  0  0  0  0  0  0  0  0
   -2.3961    3.3159    1.0566 H   0  0  0  0  0  0  0  0  0  0  0  0
  1  5  1  0
  5  6  1  0
  5  7  2  0
  1  2  1  0
  1  3  1  0
  1  4  1  0
  8 12  1  0
 12 15  1  0
  8  9  1  0
  8 10  1  0
  8 11  1  0
 12 13  1  0
 12 14  1  0
 15 16  1  0
 15 17  1  0
 15 18  1  0
M  CHG  1   6  -1
M  END
>  <PDB_ID>  (1699) 
pdb3u43

>  <RESIDUE_NAME>  (1699) 
ASP   LEU

>  <FRAG_NAME>  (1699) 
ACET   PRPA

>  <FRAG_ATOM_NUM>  (1699) 
fragi: 7  fragj: 11

>  <atom.prop.CHAIN_ID>  (1699) 
A A A A A A A Z Z Z Z Z Z Z Z Z Z Z

>  <atom.prop.IS_HEAVY_ATOM>  (1699) 
1 0 0 0 1 1 1 1 0 0 0 1 0 0 1 0 0 0

>  <DIFUSE_FUNC_ATOM>  (1699) 
atom 6   atom 7   

>  <FINAL_SINGLE_POINT_ENERGY>  (1699) 
0

>  <NONCOV_INTER_ENERGY_QM>  (1699) 
0

>  <FF_Energy>  (1699) 
29.62

>  <QM_Energy>  (1699) 
7.38

>  <source>  (1699) 
ACET_PRPA_20

>  <Index>  (1699) 
14453

$$$$
ACET-pdb3u43-A-ASP-9:PRPA-pdb3u43-A-LEU-3
     RDKit          3D

 18 16  0  0  0  0  0  0  0  0999 V2000
    0.0040    1.4967   -0.0944 C   0  0  0  0  0  0  0  0  0  0  0  0
    0.9330    1.7954   -0.2970 H   0  0  0  0  0  0  0  0  0  0  0  0
   -0.2887    1.8668    0.7828 H   0  0  0  0  0  0  0  0  0  0  0  0
   -0.6670    1.8506   -0.8772 H   0  0  0  0  0  0  0  0  0  0  0  0
    0.0000    0.0000    0.0000 C   0  0  0  0  0  0  0  0  0  0  0  0
   -1.1193   -0.5474    0.0000 O   0  0  0  0  0  1  0  0  0  0  0  0
    1.1193   -0.5891    0.0000 O   0  0  0  0  0  0  0  0  0  0  0  0
    0.1635    3.7488    1.7849 C   0  0  0  0  0  0  0  0  0  0  0  0
   -0.0304    4.0221    0.8425 H   0  0  0  0  0  0  0  0  0  0  0  0
    0.4254    2.7849    1.8054 H   0  0  0  0  0  0  0  0  0  0  0  0
    1.0303    4.3231    2.1118 H   0  0  0  0  0  0  0  0  0  0  0  0
   -1.1133    3.9040    2.5883 C   0  0  0  0  0  0  0  0  0  0  0  0
   -1.4001    4.8627    2.5704 H   0  0  0  0  0  0  0  0  0  0  0  0
   -1.9060    3.2850    2.1683 H   0  0  0  0  0  0  0  0  0  0  0  0
   -0.8306    3.4955    4.0302 C   0  0  0  0  0  0  0  0  0  0  0  0
   -0.1153    4.0827    4.4086 H   0  0  0  0  0  0  0  0  0  0  0  0
   -1.6655    3.5938    4.5731 H   0  0  0  0  0  0  0  0  0  0  0  0
   -0.5272    2.5432    4.0532 H   0  0  0  0  0  0  0  0  0  0  0  0
  1  5  1  0
  5  6  1  0
  5  7  2  0
  1  2  1  0
  1  3  1  0
  1  4  1  0
  8 12  1  0
 12 15  1  0
  8  9  1  0
  8 10  1  0
  8 11  1  0
 12 13  1  0
 12 14  1  0
 15 16  1  0
 15 17  1  0
 15 18  1  0
M  CHG  1   6  -1
M  END
>  <PDB_ID>  (1700) 
pdb3u43

>  <RESIDUE_NAME>  (1700) 
ASP   LEU

>  <FRAG_NAME>  (1700) 
ACET   PRPA

>  <FRAG_ATOM_NUM>  (1700) 
fragi: 7  fragj: 11

>  <atom.prop.CHAIN_ID>  (1700) 
A A A A A A A Z Z Z Z Z Z Z Z Z Z Z

>  <atom.prop.IS_HEAVY_ATOM>  (1700) 
1 0 0 0 1 1 1 1 0 0 0 1 0 0 1 0 0 0

>  <DIFUSE_FUNC_ATOM>  (1700) 
atom 6   atom 7   

>  <FINAL_SINGLE_POINT_ENERGY>  (1700) 
0

>  <NONCOV_INTER_ENERGY_QM>  (1700) 
0

>  <FF_Energy>  (1700) 
28.61

>  <QM_Energy>  (1700) 
6.82

>  <source>  (1700) 
ACET_PRPA_20

>  <Index>  (1700) 
14460

$$$$
ACET-pdb4tyf-A-ASP-199:PRPA-pdb4tyf-A-LYS-181
     RDKit          3D

 18 16  0  0  0  0  0  0  0  0999 V2000
   -0.0685    1.4777    0.0870 C   0  0  0  0  0  0  0  0  0  0  0  0
    0.5093    1.8776   -0.6189 H   0  0  0  0  0  0  0  0  0  0  0  0
    0.2383    1.7712    0.9873 H   0  0  0  0  0  0  0  0  0  0  0  0
   -1.0838    1.8460   -0.0600 H   0  0  0  0  0  0  0  0  0  0  0  0
    0.0000    0.0000    0.0000 C   0  0  0  0  0  0  0  0  0  0  0  0
   -1.0969   -0.5472    0.0000 O   0  0  0  0  0  1  0  0  0  0  0  0
    1.0969   -0.6099   -0.0000 O   0  0  0  0  0  0  0  0  0  0  0  0
   -0.7330   -3.0098   -3.6907 C   0  0  0  0  0  0  0  0  0  0  0  0
   -1.6096   -2.5170   -3.7729 H   0  0  0  0  0  0  0  0  0  0  0  0
   -0.9382   -3.9909   -3.5666 H   0  0  0  0  0  0  0  0  0  0  0  0
   -0.1895   -2.8943   -4.6284 H   0  0  0  0  0  0  0  0  0  0  0  0
   -0.0266   -2.5145   -2.4619 C   0  0  0  0  0  0  0  0  0  0  0  0
    0.8702   -2.9137   -2.4044 H   0  0  0  0  0  0  0  0  0  0  0  0
    0.0014   -1.5321   -2.4600 H   0  0  0  0  0  0  0  0  0  0  0  0
   -0.8455   -2.9804   -1.2512 C   0  0  0  0  0  0  0  0  0  0  0  0
   -1.0488   -2.1747   -0.6755 H   0  0  0  0  0  0  0  0  0  0  0  0
   -1.7239   -3.3530   -1.5844 H   0  0  0  0  0  0  0  0  0  0  0  0
   -0.3726   -3.7356   -0.6233 H   0  0  0  0  0  0  0  0  0  0  0  0
  1  5  1  0
  5  6  1  0
  5  7  2  0
  1  2  1  0
  1  3  1  0
  1  4  1  0
  8 12  1  0
 12 15  1  0
  8  9  1  0
  8 10  1  0
  8 11  1  0
 12 13  1  0
 12 14  1  0
 15 16  1  0
 15 17  1  0
 15 18  1  0
M  CHG  1   6  -1
M  END
>  <PDB_ID>  (1701) 
pdb4tyf

>  <RESIDUE_NAME>  (1701) 
ASP   LYS

>  <FRAG_NAME>  (1701) 
ACET   PRPA

>  <FRAG_ATOM_NUM>  (1701) 
fragi: 7  fragj: 11

>  <atom.prop.CHAIN_ID>  (1701) 
A A A A A A A Z Z Z Z Z Z Z Z Z Z Z

>  <atom.prop.IS_HEAVY_ATOM>  (1701) 
1 0 0 0 1 1 1 1 0 0 0 1 0 0 1 0 0 0

>  <DIFUSE_FUNC_ATOM>  (1701) 
atom 6   atom 7   

>  <FINAL_SINGLE_POINT_ENERGY>  (1701) 
0

>  <NONCOV_INTER_ENERGY_QM>  (1701) 
0

>  <FF_Energy>  (1701) 
36.98

>  <QM_Energy>  (1701) 
0.35

>  <source>  (1701) 
ACET_PRPA_20

>  <Index>  (1701) 
17667

$$$$
ACET-pdb4tyf-A-ASP-199:PRPA-pdb4tyf-A-LYS-181
     RDKit          3D

 18 16  0  0  0  0  0  0  0  0999 V2000
   -0.0685    1.4777    0.0870 C   0  0  0  0  0  0  0  0  0  0  0  0
    0.5093    1.8776   -0.6189 H   0  0  0  0  0  0  0  0  0  0  0  0
    0.2383    1.7712    0.9873 H   0  0  0  0  0  0  0  0  0  0  0  0
   -1.0838    1.8460   -0.0600 H   0  0  0  0  0  0  0  0  0  0  0  0
    0.0000    0.0000    0.0000 C   0  0  0  0  0  0  0  0  0  0  0  0
   -1.0969   -0.5472    0.0000 O   0  0  0  0  0  1  0  0  0  0  0  0
    1.0969   -0.6099   -0.0000 O   0  0  0  0  0  0  0  0  0  0  0  0
   -0.0266   -2.5145   -2.4619 C   0  0  0  0  0  0  0  0  0  0  0  0
    0.8702   -2.9137   -2.4044 H   0  0  0  0  0  0  0  0  0  0  0  0
    0.0014   -1.5321   -2.4600 H   0  0  0  0  0  0  0  0  0  0  0  0
   -0.5394   -2.8742   -3.3540 H   0  0  0  0  0  0  0  0  0  0  0  0
   -0.8455   -2.9804   -1.2512 C   0  0  0  0  0  0  0  0  0  0  0  0
   -1.0488   -2.1747   -0.6755 H   0  0  0  0  0  0  0  0  0  0  0  0
   -1.7239   -3.3530   -1.5844 H   0  0  0  0  0  0  0  0  0  0  0  0
   -0.1812   -4.0411   -0.3694 C   0  0  0  0  0  0  0  0  0  0  0  0
    0.2278   -4.7493   -0.9600 H   0  0  0  0  0  0  0  0  0  0  0  0
    0.5619   -3.6098    0.1611 H   0  0  0  0  0  0  0  0  0  0  0  0
   -0.8590   -4.5302    0.3303 H   0  0  0  0  0  0  0  0  0  0  0  0
  1  5  1  0
  5  6  1  0
  5  7  2  0
  1  2  1  0
  1  3  1  0
  1  4  1  0
  8 12  1  0
 12 15  1  0
  8  9  1  0
  8 10  1  0
  8 11  1  0
 12 13  1  0
 12 14  1  0
 15 16  1  0
 15 17  1  0
 15 18  1  0
M  CHG  1   6  -1
M  END
>  <PDB_ID>  (1702) 
pdb4tyf

>  <RESIDUE_NAME>  (1702) 
ASP   LYS

>  <FRAG_NAME>  (1702) 
ACET   PRPA

>  <FRAG_ATOM_NUM>  (1702) 
fragi: 7  fragj: 11

>  <atom.prop.CHAIN_ID>  (1702) 
A A A A A A A Z Z Z Z Z Z Z Z Z Z Z

>  <atom.prop.IS_HEAVY_ATOM>  (1702) 
1 0 0 0 1 1 1 1 0 0 0 1 0 0 1 0 0 0

>  <DIFUSE_FUNC_ATOM>  (1702) 
atom 6   atom 7   

>  <FINAL_SINGLE_POINT_ENERGY>  (1702) 
0

>  <NONCOV_INTER_ENERGY_QM>  (1702) 
0

>  <FF_Energy>  (1702) 
43.45

>  <QM_Energy>  (1702) 
-0.72

>  <source>  (1702) 
ACET_PRPA_20

>  <Index>  (1702) 
17675

$$$$
ACET-pdb4u04-A-GLU-145:PRPA-pdb4u04-A-LEU-110
     RDKit          3D

 18 16  0  0  0  0  0  0  0  0999 V2000
    0.1869    1.4872    0.0152 C   0  0  0  0  0  0  0  0  0  0  0  0
    0.7052    1.7374   -0.8020 H   0  0  0  0  0  0  0  0  0  0  0  0
    0.7165    1.7193    0.8302 H   0  0  0  0  0  0  0  0  0  0  0  0
   -0.7231    2.0870    0.0275 H   0  0  0  0  0  0  0  0  0  0  0  0
    0.0000    0.0000    0.0000 C   0  0  0  0  0  0  0  0  0  0  0  0
   -1.0891   -0.5518   -0.0000 O   0  0  0  0  0  1  0  0  0  0  0  0
    1.0891   -0.6125   -0.0000 O   0  0  0  0  0  0  0  0  0  0  0  0
   -3.2078   -3.0599    2.7981 C   0  0  0  0  0  0  0  0  0  0  0  0
   -3.4444   -2.6685    3.6860 H   0  0  0  0  0  0  0  0  0  0  0  0
   -2.7609   -3.9417    2.9242 H   0  0  0  0  0  0  0  0  0  0  0  0
   -4.1392   -3.2391    2.2612 H   0  0  0  0  0  0  0  0  0  0  0  0
   -2.1947   -2.1194    2.1366 C   0  0  0  0  0  0  0  0  0  0  0  0
   -1.8408   -2.5605    1.3073 H   0  0  0  0  0  0  0  0  0  0  0  0
   -1.3305   -1.9606    2.7815 H   0  0  0  0  0  0  0  0  0  0  0  0
   -2.8305   -0.7964    1.7765 C   0  0  0  0  0  0  0  0  0  0  0  0
   -3.1818   -0.3527    2.6031 H   0  0  0  0  0  0  0  0  0  0  0  0
   -2.1511   -0.1987    1.3462 H   0  0  0  0  0  0  0  0  0  0  0  0
   -3.5881   -0.9462    1.1368 H   0  0  0  0  0  0  0  0  0  0  0  0
  1  5  1  0
  5  6  1  0
  5  7  2  0
  1  2  1  0
  1  3  1  0
  1  4  1  0
  8 12  1  0
 12 15  1  0
  8  9  1  0
  8 10  1  0
  8 11  1  0
 12 13  1  0
 12 14  1  0
 15 16  1  0
 15 17  1  0
 15 18  1  0
M  CHG  1   6  -1
M  END
>  <PDB_ID>  (1703) 
pdb4u04

>  <RESIDUE_NAME>  (1703) 
GLU   LEU

>  <FRAG_NAME>  (1703) 
ACET   PRPA

>  <FRAG_ATOM_NUM>  (1703) 
fragi: 7  fragj: 11

>  <atom.prop.CHAIN_ID>  (1703) 
A A A A A A A Z Z Z Z Z Z Z Z Z Z Z

>  <atom.prop.IS_HEAVY_ATOM>  (1703) 
1 0 0 0 1 1 1 1 0 0 0 1 0 0 1 0 0 0

>  <DIFUSE_FUNC_ATOM>  (1703) 
atom 6   atom 7   

>  <FINAL_SINGLE_POINT_ENERGY>  (1703) 
0

>  <NONCOV_INTER_ENERGY_QM>  (1703) 
0

>  <FF_Energy>  (1703) 
48.82

>  <QM_Energy>  (1703) 
6.48

>  <source>  (1703) 
ACET_PRPA_20

>  <Index>  (1703) 
19237

$$$$
ACET-pdb4u04-A-GLU-145:PRPA-pdb4u04-A-LEU-110
     RDKit          3D

 18 16  0  0  0  0  0  0  0  0999 V2000
    0.1869    1.4872    0.0152 C   0  0  0  0  0  0  0  0  0  0  0  0
    0.7052    1.7374   -0.8020 H   0  0  0  0  0  0  0  0  0  0  0  0
    0.7165    1.7193    0.8302 H   0  0  0  0  0  0  0  0  0  0  0  0
   -0.7231    2.0870    0.0275 H   0  0  0  0  0  0  0  0  0  0  0  0
    0.0000    0.0000    0.0000 C   0  0  0  0  0  0  0  0  0  0  0  0
   -1.0891   -0.5518   -0.0000 O   0  0  0  0  0  1  0  0  0  0  0  0
    1.0891   -0.6125   -0.0000 O   0  0  0  0  0  0  0  0  0  0  0  0
   -2.8305   -0.7964    1.7765 C   0  0  0  0  0  0  0  0  0  0  0  0
   -3.1818   -0.3527    2.6031 H   0  0  0  0  0  0  0  0  0  0  0  0
   -2.1511   -0.1987    1.3462 H   0  0  0  0  0  0  0  0  0  0  0  0
   -3.5881   -0.9462    1.1368 H   0  0  0  0  0  0  0  0  0  0  0  0
   -2.1947   -2.1194    2.1366 C   0  0  0  0  0  0  0  0  0  0  0  0
   -1.8408   -2.5605    1.3073 H   0  0  0  0  0  0  0  0  0  0  0  0
   -2.9153   -2.7883    2.6071 H   0  0  0  0  0  0  0  0  0  0  0  0
   -0.9915   -1.8984    3.0345 C   0  0  0  0  0  0  0  0  0  0  0  0
   -0.5420   -2.7753    3.2173 H   0  0  0  0  0  0  0  0  0  0  0  0
   -0.3439   -1.2822    2.5834 H   0  0  0  0  0  0  0  0  0  0  0  0
   -1.2878   -1.4911    3.9005 H   0  0  0  0  0  0  0  0  0  0  0  0
  1  5  1  0
  5  6  1  0
  5  7  2  0
  1  2  1  0
  1  3  1  0
  1  4  1  0
  8 12  1  0
 12 15  1  0
  8  9  1  0
  8 10  1  0
  8 11  1  0
 12 13  1  0
 12 14  1  0
 15 16  1  0
 15 17  1  0
 15 18  1  0
M  CHG  1   6  -1
M  END
>  <PDB_ID>  (1704) 
pdb4u04

>  <RESIDUE_NAME>  (1704) 
GLU   LEU

>  <FRAG_NAME>  (1704) 
ACET   PRPA

>  <FRAG_ATOM_NUM>  (1704) 
fragi: 7  fragj: 11

>  <atom.prop.CHAIN_ID>  (1704) 
A A A A A A A Z Z Z Z Z Z Z Z Z Z Z

>  <atom.prop.IS_HEAVY_ATOM>  (1704) 
1 0 0 0 1 1 1 1 0 0 0 1 0 0 1 0 0 0

>  <DIFUSE_FUNC_ATOM>  (1704) 
atom 6   atom 7   

>  <FINAL_SINGLE_POINT_ENERGY>  (1704) 
0

>  <NONCOV_INTER_ENERGY_QM>  (1704) 
0

>  <FF_Energy>  (1704) 
49.55

>  <QM_Energy>  (1704) 
4.81

>  <source>  (1704) 
ACET_PRPA_20

>  <Index>  (1704) 
19290

$$$$
ACET-pdb3ubk-A-GLU-82:PRPA-pdb3ubk-A-LYS-78
     RDKit          3D

 18 16  0  0  0  0  0  0  0  0999 V2000
    0.0042    1.5270   -0.0101 C   0  0  0  0  0  0  0  0  0  0  0  0
   -0.0563    1.8165   -0.9473 H   0  0  0  0  0  0  0  0  0  0  0  0
    0.8369    1.8230    0.4185 H   0  0  0  0  0  0  0  0  0  0  0  0
   -0.8326    1.9651    0.5341 H   0  0  0  0  0  0  0  0  0  0  0  0
    0.0000    0.0000    0.0000 C   0  0  0  0  0  0  0  0  0  0  0  0
   -1.0991   -0.5956   -0.0000 O   0  0  0  0  0  1  0  0  0  0  0  0
    1.0991   -0.6028    0.0000 O   0  0  0  0  0  0  0  0  0  0  0  0
    5.0010    1.9718   -0.1189 C   0  0  0  0  0  0  0  0  0  0  0  0
    5.0869    2.0938   -1.1153 H   0  0  0  0  0  0  0  0  0  0  0  0
    5.7785    1.4185    0.2007 H   0  0  0  0  0  0  0  0  0  0  0  0
    5.0535    2.9518    0.3554 H   0  0  0  0  0  0  0  0  0  0  0  0
    3.7134    1.2358    0.1796 C   0  0  0  0  0  0  0  0  0  0  0  0
    3.5836    1.1855    1.1606 H   0  0  0  0  0  0  0  0  0  0  0  0
    2.9566    1.7048   -0.2543 H   0  0  0  0  0  0  0  0  0  0  0  0
    3.7667   -0.1964   -0.3704 C   0  0  0  0  0  0  0  0  0  0  0  0
    4.4710   -0.7090    0.1321 H   0  0  0  0  0  0  0  0  0  0  0  0
    2.8771   -0.6379   -0.2092 H   0  0  0  0  0  0  0  0  0  0  0  0
    3.9926   -0.2397   -1.4358 H   0  0  0  0  0  0  0  0  0  0  0  0
  1  5  1  0
  5  6  1  0
  5  7  2  0
  1  2  1  0
  1  3  1  0
  1  4  1  0
  8 12  1  0
 12 15  1  0
  8  9  1  0
  8 10  1  0
  8 11  1  0
 12 13  1  0
 12 14  1  0
 15 16  1  0
 15 17  1  0
 15 18  1  0
M  CHG  1   6  -1
M  END
>  <PDB_ID>  (1705) 
pdb3ubk

>  <RESIDUE_NAME>  (1705) 
GLU   LYS

>  <FRAG_NAME>  (1705) 
ACET   PRPA

>  <FRAG_ATOM_NUM>  (1705) 
fragi: 7  fragj: 11

>  <atom.prop.CHAIN_ID>  (1705) 
A A A A A A A Z Z Z Z Z Z Z Z Z Z Z

>  <atom.prop.IS_HEAVY_ATOM>  (1705) 
1 0 0 0 1 1 1 1 0 0 0 1 0 0 1 0 0 0

>  <DIFUSE_FUNC_ATOM>  (1705) 
atom 6   atom 7   

>  <FINAL_SINGLE_POINT_ENERGY>  (1705) 
0

>  <NONCOV_INTER_ENERGY_QM>  (1705) 
0

>  <FF_Energy>  (1705) 
29.81

>  <QM_Energy>  (1705) 
0.78

>  <source>  (1705) 
ACET_PRPA_20

>  <Index>  (1705) 
19935

$$$$
ACET-pdb3ugs-A-GLU-116:PRPA-pdb3ugs-A-LYS-119
     RDKit          3D

 18 16  0  0  0  0  0  0  0  0999 V2000
    0.0125    1.5389    0.0046 C   0  0  0  0  0  0  0  0  0  0  0  0
    0.6018    1.8261   -0.7274 H   0  0  0  0  0  0  0  0  0  0  0  0
    0.3465    1.8228    0.8843 H   0  0  0  0  0  0  0  0  0  0  0  0
   -0.9698    1.9852   -0.1510 H   0  0  0  0  0  0  0  0  0  0  0  0
    0.0000    0.0000    0.0000 C   0  0  0  0  0  0  0  0  0  0  0  0
   -1.0932   -0.6139    0.0000 O   0  0  0  0  0  1  0  0  0  0  0  0
    1.0932   -0.6197    0.0000 O   0  0  0  0  0  0  0  0  0  0  0  0
    0.2681    6.0660   -1.4632 C   0  0  0  0  0  0  0  0  0  0  0  0
    0.8632    6.4627   -0.7664 H   0  0  0  0  0  0  0  0  0  0  0  0
   -0.5720    5.7330   -1.0393 H   0  0  0  0  0  0  0  0  0  0  0  0
    0.0163    6.8356   -2.1929 H   0  0  0  0  0  0  0  0  0  0  0  0
    0.9883    4.8944   -2.1191 C   0  0  0  0  0  0  0  0  0  0  0  0
    0.3910    4.5046   -2.8189 H   0  0  0  0  0  0  0  0  0  0  0  0
    1.8262    5.2338   -2.5451 H   0  0  0  0  0  0  0  0  0  0  0  0
    1.3478    3.8129   -1.1281 C   0  0  0  0  0  0  0  0  0  0  0  0
    1.9484    4.1962   -0.4264 H   0  0  0  0  0  0  0  0  0  0  0  0
    0.5132    3.4670   -0.7002 H   0  0  0  0  0  0  0  0  0  0  0  0
    1.8610    2.9917   -1.6283 H   0  0  0  0  0  0  0  0  0  0  0  0
  1  5  1  0
  5  6  1  0
  5  7  2  0
  1  2  1  0
  1  3  1  0
  1  4  1  0
  8 12  1  0
 12 15  1  0
  8  9  1  0
  8 10  1  0
  8 11  1  0
 12 13  1  0
 12 14  1  0
 15 16  1  0
 15 17  1  0
 15 18  1  0
M  CHG  1   6  -1
M  END
>  <PDB_ID>  (1706) 
pdb3ugs

>  <RESIDUE_NAME>  (1706) 
GLU   LYS

>  <FRAG_NAME>  (1706) 
ACET   PRPA

>  <FRAG_ATOM_NUM>  (1706) 
fragi: 7  fragj: 11

>  <atom.prop.CHAIN_ID>  (1706) 
A A A A A A A Z Z Z Z Z Z Z Z Z Z Z

>  <atom.prop.IS_HEAVY_ATOM>  (1706) 
1 0 0 0 1 1 1 1 0 0 0 1 0 0 1 0 0 0

>  <DIFUSE_FUNC_ATOM>  (1706) 
atom 6   atom 7   

>  <FINAL_SINGLE_POINT_ENERGY>  (1706) 
0

>  <NONCOV_INTER_ENERGY_QM>  (1706) 
0

>  <FF_Energy>  (1706) 
30.48

>  <QM_Energy>  (1706) 
9.0

>  <source>  (1706) 
ACET_PRPA_20

>  <Index>  (1706) 
22020

$$$$
ACET-pdb3ub1-A-GLU-246:PRPA-pdb3ub1-A-LYS-303
     RDKit          3D

 18 16  0  0  0  0  0  0  0  0999 V2000
    0.0253    1.5254   -0.0158 C   0  0  0  0  0  0  0  0  0  0  0  0
   -0.2570    1.8178   -0.9136 H   0  0  0  0  0  0  0  0  0  0  0  0
    0.9481    1.8086    0.1875 H   0  0  0  0  0  0  0  0  0  0  0  0
   -0.6386    1.9905    0.7129 H   0  0  0  0  0  0  0  0  0  0  0  0
    0.0000    0.0000    0.0000 C   0  0  0  0  0  0  0  0  0  0  0  0
   -1.0916   -0.6111   -0.0000 O   0  0  0  0  0  1  0  0  0  0  0  0
    1.0916   -0.5946    0.0000 O   0  0  0  0  0  0  0  0  0  0  0  0
   -4.6355   -0.6829    0.9864 C   0  0  0  0  0  0  0  0  0  0  0  0
   -5.0816   -1.2014    1.7134 H   0  0  0  0  0  0  0  0  0  0  0  0
   -4.5980   -1.2356    0.1542 H   0  0  0  0  0  0  0  0  0  0  0  0
   -5.2431    0.1978    0.7785 H   0  0  0  0  0  0  0  0  0  0  0  0
   -3.2100   -0.3748    1.4229 C   0  0  0  0  0  0  0  0  0  0  0  0
   -2.7531    0.1432    0.6992 H   0  0  0  0  0  0  0  0  0  0  0  0
   -3.2370    0.1749    2.2582 H   0  0  0  0  0  0  0  0  0  0  0  0
   -2.4223   -1.6441    1.6938 C   0  0  0  0  0  0  0  0  0  0  0  0
   -2.8846   -2.1602    2.4166 H   0  0  0  0  0  0  0  0  0  0  0  0
   -2.3986   -2.1930    0.8571 H   0  0  0  0  0  0  0  0  0  0  0  0
   -1.3985   -1.4426    2.0088 H   0  0  0  0  0  0  0  0  0  0  0  0
  1  5  1  0
  5  6  1  0
  5  7  2  0
  1  2  1  0
  1  3  1  0
  1  4  1  0
  8 12  1  0
 12 15  1  0
  8  9  1  0
  8 10  1  0
  8 11  1  0
 12 13  1  0
 12 14  1  0
 15 16  1  0
 15 17  1  0
 15 18  1  0
M  CHG  1   6  -1
M  END
>  <PDB_ID>  (1707) 
pdb3ub1

>  <RESIDUE_NAME>  (1707) 
GLU   LYS

>  <FRAG_NAME>  (1707) 
ACET   PRPA

>  <FRAG_ATOM_NUM>  (1707) 
fragi: 7  fragj: 11

>  <atom.prop.CHAIN_ID>  (1707) 
A A A A A A A Z Z Z Z Z Z Z Z Z Z Z

>  <atom.prop.IS_HEAVY_ATOM>  (1707) 
1 0 0 0 1 1 1 1 0 0 0 1 0 0 1 0 0 0

>  <DIFUSE_FUNC_ATOM>  (1707) 
atom 6   atom 7   

>  <FINAL_SINGLE_POINT_ENERGY>  (1707) 
0

>  <NONCOV_INTER_ENERGY_QM>  (1707) 
0

>  <FF_Energy>  (1707) 
39.12

>  <QM_Energy>  (1707) 
9.03

>  <source>  (1707) 
ACET_PRPA_20

>  <Index>  (1707) 
22088

$$$$
ACET-pdb3ulb-A-GLU-1084:PRPA-pdb3ulb-B-LYS-1070
     RDKit          3D

 18 16  0  0  0  0  0  0  0  0999 V2000
    0.0306    1.5445   -0.0044 C   0  0  0  0  0  0  0  0  0  0  0  0
    0.6577    1.8020   -0.7086 H   0  0  0  0  0  0  0  0  0  0  0  0
    0.3233    1.8118    0.8887 H   0  0  0  0  0  0  0  0  0  0  0  0
   -0.9595    1.9486   -0.2155 H   0  0  0  0  0  0  0  0  0  0  0  0
    0.0000    0.0000    0.0000 C   0  0  0  0  0  0  0  0  0  0  0  0
   -1.0953   -0.6525   -0.0000 O   0  0  0  0  0  1  0  0  0  0  0  0
    1.0953   -0.5077   -0.0000 O   0  0  0  0  0  0  0  0  0  0  0  0
    4.2275    1.7834    2.2024 C   0  0  0  0  0  0  0  0  0  0  0  0
    4.1789    1.1197    2.9433 H   0  0  0  0  0  0  0  0  0  0  0  0
    3.3750    2.2957    2.1458 H   0  0  0  0  0  0  0  0  0  0  0  0
    5.0502    2.4732    2.3911 H   0  0  0  0  0  0  0  0  0  0  0  0
    4.4532    1.0527    0.8995 C   0  0  0  0  0  0  0  0  0  0  0  0
    4.7659    1.6965    0.2138 H   0  0  0  0  0  0  0  0  0  0  0  0
    5.1189    0.3324    1.0389 H   0  0  0  0  0  0  0  0  0  0  0  0
    3.1556    0.4238    0.4162 C   0  0  0  0  0  0  0  0  0  0  0  0
    3.2161   -0.5714    0.5114 H   0  0  0  0  0  0  0  0  0  0  0  0
    2.3965    0.7621    0.9755 H   0  0  0  0  0  0  0  0  0  0  0  0
    2.9535    0.6629   -0.6279 H   0  0  0  0  0  0  0  0  0  0  0  0
  1  5  1  0
  5  6  1  0
  5  7  2  0
  1  2  1  0
  1  3  1  0
  1  4  1  0
  8 12  1  0
 12 15  1  0
  8  9  1  0
  8 10  1  0
  8 11  1  0
 12 13  1  0
 12 14  1  0
 15 16  1  0
 15 17  1  0
 15 18  1  0
M  CHG  1   6  -1
M  END
>  <PDB_ID>  (1708) 
pdb3ulb

>  <RESIDUE_NAME>  (1708) 
GLU   LYS

>  <FRAG_NAME>  (1708) 
ACET   PRPA

>  <FRAG_ATOM_NUM>  (1708) 
fragi: 7  fragj: 11

>  <atom.prop.CHAIN_ID>  (1708) 
A A A A A A A Z Z Z Z Z Z Z Z Z Z Z

>  <atom.prop.IS_HEAVY_ATOM>  (1708) 
1 0 0 0 1 1 1 1 0 0 0 1 0 0 1 0 0 0

>  <DIFUSE_FUNC_ATOM>  (1708) 
atom 6   atom 7   

>  <FINAL_SINGLE_POINT_ENERGY>  (1708) 
0

>  <NONCOV_INTER_ENERGY_QM>  (1708) 
0

>  <FF_Energy>  (1708) 
37.99

>  <QM_Energy>  (1708) 
11.82

>  <source>  (1708) 
ACET_PRPA_20

>  <Index>  (1708) 
22583

$$$$
ACET-pdb3ul5-B-GLU-24:PRPA-pdb3ul5-B-ILE-30
     RDKit          3D

 18 16  0  0  0  0  0  0  0  0999 V2000
    0.1744    1.4859    0.0155 C   0  0  0  0  0  0  0  0  0  0  0  0
    0.3041    1.7881   -0.9299 H   0  0  0  0  0  0  0  0  0  0  0  0
    0.9996    1.6908    0.5436 H   0  0  0  0  0  0  0  0  0  0  0  0
   -0.6434    2.0691    0.4389 H   0  0  0  0  0  0  0  0  0  0  0  0
    0.0000    0.0000    0.0000 C   0  0  0  0  0  0  0  0  0  0  0  0
   -1.0896   -0.5576   -0.0000 O   0  0  0  0  0  1  0  0  0  0  0  0
    1.0896   -0.6068    0.0000 O   0  0  0  0  0  0  0  0  0  0  0  0
    3.1182   -2.6403    2.8337 C   0  0  0  0  0  0  0  0  0  0  0  0
    2.7649   -3.0185    1.9749 H   0  0  0  0  0  0  0  0  0  0  0  0
    2.2988   -2.6848    3.5510 H   0  0  0  0  0  0  0  0  0  0  0  0
    3.9313   -3.2939    3.1498 H   0  0  0  0  0  0  0  0  0  0  0  0
    3.6477   -1.2037    2.6698 C   0  0  0  0  0  0  0  0  0  0  0  0
    3.9842   -0.9021    3.5600 H   0  0  0  0  0  0  0  0  0  0  0  0
    4.4813   -1.1872    1.9675 H   0  0  0  0  0  0  0  0  0  0  0  0
    2.5450   -0.2673    2.2317 C   0  0  0  0  0  0  0  0  0  0  0  0
    2.3793   -0.3985    1.2552 H   0  0  0  0  0  0  0  0  0  0  0  0
    1.7108   -0.5016    2.7301 H   0  0  0  0  0  0  0  0  0  0  0  0
    2.7737    0.7830    2.4121 H   0  0  0  0  0  0  0  0  0  0  0  0
  1  5  1  0
  5  6  1  0
  5  7  2  0
  1  2  1  0
  1  3  1  0
  1  4  1  0
  8 12  1  0
 12 15  1  0
  8  9  1  0
  8 10  1  0
  8 11  1  0
 12 13  1  0
 12 14  1  0
 15 16  1  0
 15 17  1  0
 15 18  1  0
M  CHG  1   6  -1
M  END
>  <PDB_ID>  (1709) 
pdb3ul5

>  <RESIDUE_NAME>  (1709) 
GLU   ILE

>  <FRAG_NAME>  (1709) 
ACET   PRPA

>  <FRAG_ATOM_NUM>  (1709) 
fragi: 7  fragj: 11

>  <atom.prop.CHAIN_ID>  (1709) 
A A A A A A A Z Z Z Z Z Z Z Z Z Z Z

>  <atom.prop.IS_HEAVY_ATOM>  (1709) 
1 0 0 0 1 1 1 1 0 0 0 1 0 0 1 0 0 0

>  <DIFUSE_FUNC_ATOM>  (1709) 
atom 6   atom 7   

>  <FINAL_SINGLE_POINT_ENERGY>  (1709) 
0

>  <NONCOV_INTER_ENERGY_QM>  (1709) 
0

>  <FF_Energy>  (1709) 
27.45

>  <QM_Energy>  (1709) 
2.08

>  <source>  (1709) 
ACET_PRPA_20

>  <Index>  (1709) 
22841

$$$$
ACET-pdb3ul5-B-GLU-24:PRPA-pdb3ul5-B-ILE-30
     RDKit          3D

 18 16  0  0  0  0  0  0  0  0999 V2000
    0.1744    1.4859    0.0155 C   0  0  0  0  0  0  0  0  0  0  0  0
    0.3041    1.7881   -0.9299 H   0  0  0  0  0  0  0  0  0  0  0  0
    0.9996    1.6908    0.5436 H   0  0  0  0  0  0  0  0  0  0  0  0
   -0.6434    2.0691    0.4389 H   0  0  0  0  0  0  0  0  0  0  0  0
    0.0000    0.0000    0.0000 C   0  0  0  0  0  0  0  0  0  0  0  0
   -1.0896   -0.5576   -0.0000 O   0  0  0  0  0  1  0  0  0  0  0  0
    1.0896   -0.6068    0.0000 O   0  0  0  0  0  0  0  0  0  0  0  0
    3.6477   -1.2037    2.6698 C   0  0  0  0  0  0  0  0  0  0  0  0
    3.9842   -0.9021    3.5600 H   0  0  0  0  0  0  0  0  0  0  0  0
    3.2729   -2.2206    2.7858 H   0  0  0  0  0  0  0  0  0  0  0  0
    4.4813   -1.1872    1.9675 H   0  0  0  0  0  0  0  0  0  0  0  0
    2.5450   -0.2673    2.2317 C   0  0  0  0  0  0  0  0  0  0  0  0
    2.3793   -0.3985    1.2552 H   0  0  0  0  0  0  0  0  0  0  0  0
    1.7108   -0.5016    2.7301 H   0  0  0  0  0  0  0  0  0  0  0  0
    2.8614    1.1855    2.4812 C   0  0  0  0  0  0  0  0  0  0  0  0
    3.6883    1.4382    1.9790 H   0  0  0  0  0  0  0  0  0  0  0  0
    2.0976    1.7517    2.1710 H   0  0  0  0  0  0  0  0  0  0  0  0
    3.0094    1.3317    3.4586 H   0  0  0  0  0  0  0  0  0  0  0  0
  1  5  1  0
  5  6  1  0
  5  7  2  0
  1  2  1  0
  1  3  1  0
  1  4  1  0
  8 12  1  0
 12 15  1  0
  8  9  1  0
  8 10  1  0
  8 11  1  0
 12 13  1  0
 12 14  1  0
 15 16  1  0
 15 17  1  0
 15 18  1  0
M  CHG  1   6  -1
M  END
>  <PDB_ID>  (1710) 
pdb3ul5

>  <RESIDUE_NAME>  (1710) 
GLU   ILE

>  <FRAG_NAME>  (1710) 
ACET   PRPA

>  <FRAG_ATOM_NUM>  (1710) 
fragi: 7  fragj: 11

>  <atom.prop.CHAIN_ID>  (1710) 
A A A A A A A Z Z Z Z Z Z Z Z Z Z Z

>  <atom.prop.IS_HEAVY_ATOM>  (1710) 
1 0 0 0 1 1 1 1 0 0 0 1 0 0 1 0 0 0

>  <DIFUSE_FUNC_ATOM>  (1710) 
atom 6   atom 7   

>  <FINAL_SINGLE_POINT_ENERGY>  (1710) 
0

>  <NONCOV_INTER_ENERGY_QM>  (1710) 
0

>  <FF_Energy>  (1710) 
31.49

>  <QM_Energy>  (1710) 
2.64

>  <source>  (1710) 
ACET_PRPA_20

>  <Index>  (1710) 
22850

$$$$
ACET-pdb3ul5-B-GLU-24:PRPA-pdb3ul5-B-ILE-30
     RDKit          3D

 18 16  0  0  0  0  0  0  0  0999 V2000
    0.1744    1.4859    0.0155 C   0  0  0  0  0  0  0  0  0  0  0  0
    0.3041    1.7881   -0.9299 H   0  0  0  0  0  0  0  0  0  0  0  0
    0.9996    1.6908    0.5436 H   0  0  0  0  0  0  0  0  0  0  0  0
   -0.6434    2.0691    0.4389 H   0  0  0  0  0  0  0  0  0  0  0  0
    0.0000    0.0000    0.0000 C   0  0  0  0  0  0  0  0  0  0  0  0
   -1.0896   -0.5576   -0.0000 O   0  0  0  0  0  1  0  0  0  0  0  0
    1.0896   -0.6068    0.0000 O   0  0  0  0  0  0  0  0  0  0  0  0
    2.5450   -0.2673    2.2317 C   0  0  0  0  0  0  0  0  0  0  0  0
    2.3793   -0.3985    1.2552 H   0  0  0  0  0  0  0  0  0  0  0  0
    1.7108   -0.5016    2.7301 H   0  0  0  0  0  0  0  0  0  0  0  0
    2.7737    0.7830    2.4121 H   0  0  0  0  0  0  0  0  0  0  0  0
    3.6477   -1.2037    2.6698 C   0  0  0  0  0  0  0  0  0  0  0  0
    3.9842   -0.9021    3.5600 H   0  0  0  0  0  0  0  0  0  0  0  0
    3.2729   -2.2206    2.7858 H   0  0  0  0  0  0  0  0  0  0  0  0
    4.8046   -1.1808    1.6951 C   0  0  0  0  0  0  0  0  0  0  0  0
    5.1791   -0.2562    1.6363 H   0  0  0  0  0  0  0  0  0  0  0  0
    5.5204   -1.8066    2.0046 H   0  0  0  0  0  0  0  0  0  0  0  0
    4.4884   -1.4650    0.7884 H   0  0  0  0  0  0  0  0  0  0  0  0
  1  5  1  0
  5  6  1  0
  5  7  2  0
  1  2  1  0
  1  3  1  0
  1  4  1  0
  8 12  1  0
 12 15  1  0
  8  9  1  0
  8 10  1  0
  8 11  1  0
 12 13  1  0
 12 14  1  0
 15 16  1  0
 15 17  1  0
 15 18  1  0
M  CHG  1   6  -1
M  END
>  <PDB_ID>  (1711) 
pdb3ul5

>  <RESIDUE_NAME>  (1711) 
GLU   ILE

>  <FRAG_NAME>  (1711) 
ACET   PRPA

>  <FRAG_ATOM_NUM>  (1711) 
fragi: 7  fragj: 11

>  <atom.prop.CHAIN_ID>  (1711) 
A A A A A A A Z Z Z Z Z Z Z Z Z Z Z

>  <atom.prop.IS_HEAVY_ATOM>  (1711) 
1 0 0 0 1 1 1 1 0 0 0 1 0 0 1 0 0 0

>  <DIFUSE_FUNC_ATOM>  (1711) 
atom 6   atom 7   

>  <FINAL_SINGLE_POINT_ENERGY>  (1711) 
0

>  <NONCOV_INTER_ENERGY_QM>  (1711) 
0

>  <FF_Energy>  (1711) 
27.2

>  <QM_Energy>  (1711) 
2.26

>  <source>  (1711) 
ACET_PRPA_20

>  <Index>  (1711) 
22858

$$$$
ACET-pdb3ulp-B-ASP-104:PRPA-pdb3ulp-B-LEU-100
     RDKit          3D

 18 16  0  0  0  0  0  0  0  0999 V2000
   -0.0191    1.5030   -0.0018 C   0  0  0  0  0  0  0  0  0  0  0  0
    0.4472    1.8313   -0.8154 H   0  0  0  0  0  0  0  0  0  0  0  0
    0.4340    1.8334    0.8171 H   0  0  0  0  0  0  0  0  0  0  0  0
   -1.0346    1.8990   -0.0108 H   0  0  0  0  0  0  0  0  0  0  0  0
    0.0000    0.0000    0.0000 C   0  0  0  0  0  0  0  0  0  0  0  0
   -1.0969   -0.5982    0.0000 O   0  0  0  0  0  1  0  0  0  0  0  0
    1.0969   -0.5847    0.0000 O   0  0  0  0  0  0  0  0  0  0  0  0
    1.2915    5.2449   -1.7236 C   0  0  0  0  0  0  0  0  0  0  0  0
    2.2417    5.4977   -1.9121 H   0  0  0  0  0  0  0  0  0  0  0  0
    1.1362    5.2492   -0.7356 H   0  0  0  0  0  0  0  0  0  0  0  0
    0.6498    6.0066   -2.1664 H   0  0  0  0  0  0  0  0  0  0  0  0
    1.1006    3.8119   -2.2077 C   0  0  0  0  0  0  0  0  0  0  0  0
    1.2677    3.7728   -3.1926 H   0  0  0  0  0  0  0  0  0  0  0  0
    0.0706    3.5162   -2.0082 H   0  0  0  0  0  0  0  0  0  0  0  0
    2.0681    2.8715   -1.4960 C   0  0  0  0  0  0  0  0  0  0  0  0
    1.9014    2.9060   -0.5105 H   0  0  0  0  0  0  0  0  0  0  0  0
    1.9277    1.9378   -1.8259 H   0  0  0  0  0  0  0  0  0  0  0  0
    3.0076    3.1543   -1.6858 H   0  0  0  0  0  0  0  0  0  0  0  0
  1  5  1  0
  5  6  1  0
  5  7  2  0
  1  2  1  0
  1  3  1  0
  1  4  1  0
  8 12  1  0
 12 15  1  0
  8  9  1  0
  8 10  1  0
  8 11  1  0
 12 13  1  0
 12 14  1  0
 15 16  1  0
 15 17  1  0
 15 18  1  0
M  CHG  1   6  -1
M  END
>  <PDB_ID>  (1712) 
pdb3ulp

>  <RESIDUE_NAME>  (1712) 
ASP   LEU

>  <FRAG_NAME>  (1712) 
ACET   PRPA

>  <FRAG_ATOM_NUM>  (1712) 
fragi: 7  fragj: 11

>  <atom.prop.CHAIN_ID>  (1712) 
A A A A A A A Z Z Z Z Z Z Z Z Z Z Z

>  <atom.prop.IS_HEAVY_ATOM>  (1712) 
1 0 0 0 1 1 1 1 0 0 0 1 0 0 1 0 0 0

>  <DIFUSE_FUNC_ATOM>  (1712) 
atom 6   atom 7   

>  <FINAL_SINGLE_POINT_ENERGY>  (1712) 
0

>  <NONCOV_INTER_ENERGY_QM>  (1712) 
0

>  <FF_Energy>  (1712) 
26.01

>  <QM_Energy>  (1712) 
5.9

>  <source>  (1712) 
ACET_PRPA_20

>  <Index>  (1712) 
24618

$$$$
ACET-pdb3ulp-B-ASP-104:PRPA-pdb3ulp-B-LEU-100
     RDKit          3D

 18 16  0  0  0  0  0  0  0  0999 V2000
   -0.0191    1.5030   -0.0018 C   0  0  0  0  0  0  0  0  0  0  0  0
    0.4472    1.8313   -0.8154 H   0  0  0  0  0  0  0  0  0  0  0  0
    0.4340    1.8334    0.8171 H   0  0  0  0  0  0  0  0  0  0  0  0
   -1.0346    1.8990   -0.0108 H   0  0  0  0  0  0  0  0  0  0  0  0
    0.0000    0.0000    0.0000 C   0  0  0  0  0  0  0  0  0  0  0  0
   -1.0969   -0.5982    0.0000 O   0  0  0  0  0  1  0  0  0  0  0  0
    1.0969   -0.5847    0.0000 O   0  0  0  0  0  0  0  0  0  0  0  0
    1.2915    5.2449   -1.7236 C   0  0  0  0  0  0  0  0  0  0  0  0
    2.2417    5.4977   -1.9121 H   0  0  0  0  0  0  0  0  0  0  0  0
    1.1362    5.2492   -0.7356 H   0  0  0  0  0  0  0  0  0  0  0  0
    0.6498    6.0066   -2.1664 H   0  0  0  0  0  0  0  0  0  0  0  0
    1.1006    3.8119   -2.2077 C   0  0  0  0  0  0  0  0  0  0  0  0
    1.2677    3.7728   -3.1926 H   0  0  0  0  0  0  0  0  0  0  0  0
    1.7919    3.1399   -1.6992 H   0  0  0  0  0  0  0  0  0  0  0  0
   -0.3403    3.3982   -1.9285 C   0  0  0  0  0  0  0  0  0  0  0  0
   -0.9635    4.0103   -2.4163 H   0  0  0  0  0  0  0  0  0  0  0  0
   -0.4833    2.4580   -2.2404 H   0  0  0  0  0  0  0  0  0  0  0  0
   -0.5187    3.4548   -0.9458 H   0  0  0  0  0  0  0  0  0  0  0  0
  1  5  1  0
  5  6  1  0
  5  7  2  0
  1  2  1  0
  1  3  1  0
  1  4  1  0
  8 12  1  0
 12 15  1  0
  8  9  1  0
  8 10  1  0
  8 11  1  0
 12 13  1  0
 12 14  1  0
 15 16  1  0
 15 17  1  0
 15 18  1  0
M  CHG  1   6  -1
M  END
>  <PDB_ID>  (1713) 
pdb3ulp

>  <RESIDUE_NAME>  (1713) 
ASP   LEU

>  <FRAG_NAME>  (1713) 
ACET   PRPA

>  <FRAG_ATOM_NUM>  (1713) 
fragi: 7  fragj: 11

>  <atom.prop.CHAIN_ID>  (1713) 
A A A A A A A Z Z Z Z Z Z Z Z Z Z Z

>  <atom.prop.IS_HEAVY_ATOM>  (1713) 
1 0 0 0 1 1 1 1 0 0 0 1 0 0 1 0 0 0

>  <DIFUSE_FUNC_ATOM>  (1713) 
atom 6   atom 7   

>  <FINAL_SINGLE_POINT_ENERGY>  (1713) 
0

>  <NONCOV_INTER_ENERGY_QM>  (1713) 
0

>  <FF_Energy>  (1713) 
33.86

>  <QM_Energy>  (1713) 
10.2

>  <source>  (1713) 
ACET_PRPA_20

>  <Index>  (1713) 
24626

$$$$
ACET-pdb4ub9-E-ASP-414:PRPA-pdb4ub9-A-VAL-50
     RDKit          3D

 18 16  0  0  0  0  0  0  0  0999 V2000
   -0.0305    1.5015   -0.0546 C   0  0  0  0  0  0  0  0  0  0  0  0
   -0.5787    1.7850   -0.8304 H   0  0  0  0  0  0  0  0  0  0  0  0
    0.8965    1.8410   -0.1365 H   0  0  0  0  0  0  0  0  0  0  0  0
   -0.4708    1.9276    0.8469 H   0  0  0  0  0  0  0  0  0  0  0  0
    0.0000    0.0000    0.0000 C   0  0  0  0  0  0  0  0  0  0  0  0
   -1.0975   -0.5909    0.0000 O   0  0  0  0  0  1  0  0  0  0  0  0
    1.0975   -0.6348   -0.0000 O   0  0  0  0  0  0  0  0  0  0  0  0
   -2.5341   -2.5200    1.3870 C   0  0  0  0  0  0  0  0  0  0  0  0
   -2.3264   -2.2821    2.3359 H   0  0  0  0  0  0  0  0  0  0  0  0
   -2.2384   -1.7770    0.7862 H   0  0  0  0  0  0  0  0  0  0  0  0
   -3.5197   -2.6552    1.2868 H   0  0  0  0  0  0  0  0  0  0  0  0
   -1.8038   -3.7991    1.0108 C   0  0  0  0  0  0  0  0  0  0  0  0
   -0.8461   -3.6723    1.2392 H   0  0  0  0  0  0  0  0  0  0  0  0
   -1.8589   -3.9651   -0.0650 H   0  0  0  0  0  0  0  0  0  0  0  0
   -2.3972   -4.9593    1.7881 C   0  0  0  0  0  0  0  0  0  0  0  0
   -3.0872   -4.6147    2.4252 H   0  0  0  0  0  0  0  0  0  0  0  0
   -2.8222   -5.6033    1.1515 H   0  0  0  0  0  0  0  0  0  0  0  0
   -1.6724   -5.4232    2.2986 H   0  0  0  0  0  0  0  0  0  0  0  0
  1  5  1  0
  5  6  1  0
  5  7  2  0
  1  2  1  0
  1  3  1  0
  1  4  1  0
  8 12  1  0
 12 15  1  0
  8  9  1  0
  8 10  1  0
  8 11  1  0
 12 13  1  0
 12 14  1  0
 15 16  1  0
 15 17  1  0
 15 18  1  0
M  CHG  1   6  -1
M  END
>  <PDB_ID>  (1714) 
pdb4ub9

>  <RESIDUE_NAME>  (1714) 
ASP   VAL

>  <FRAG_NAME>  (1714) 
ACET   PRPA

>  <FRAG_ATOM_NUM>  (1714) 
fragi: 7  fragj: 11

>  <atom.prop.CHAIN_ID>  (1714) 
A A A A A A A Z Z Z Z Z Z Z Z Z Z Z

>  <atom.prop.IS_HEAVY_ATOM>  (1714) 
1 0 0 0 1 1 1 1 0 0 0 1 0 0 1 0 0 0

>  <DIFUSE_FUNC_ATOM>  (1714) 
atom 6   atom 7   

>  <FINAL_SINGLE_POINT_ENERGY>  (1714) 
0

>  <NONCOV_INTER_ENERGY_QM>  (1714) 
0

>  <FF_Energy>  (1714) 
23.01

>  <QM_Energy>  (1714) 
0.05

>  <source>  (1714) 
ACET_PRPA_20

>  <Index>  (1714) 
26351

$$$$
ACET-pdb4uuc-A-GLU-160:PRPA-pdb4uuc-A-LEU-163
     RDKit          3D

 18 16  0  0  0  0  0  0  0  0999 V2000
    0.1962    1.4934    0.0148 C   0  0  0  0  0  0  0  0  0  0  0  0
   -0.5333    1.8864    0.5190 H   0  0  0  0  0  0  0  0  0  0  0  0
    0.1392    1.7618   -0.9155 H   0  0  0  0  0  0  0  0  0  0  0  0
    1.1424    1.8436    0.4274 H   0  0  0  0  0  0  0  0  0  0  0  0
    0.0000    0.0000    0.0000 C   0  0  0  0  0  0  0  0  0  0  0  0
   -1.0887   -0.5467   -0.0000 O   0  0  0  0  0  1  0  0  0  0  0  0
    1.0887   -0.6144   -0.0000 O   0  0  0  0  0  0  0  0  0  0  0  0
    0.4040   -2.8311   -3.0403 C   0  0  0  0  0  0  0  0  0  0  0  0
   -0.3950   -3.3610   -3.1822 H   0  0  0  0  0  0  0  0  0  0  0  0
    0.6739   -2.8653   -1.9848 H   0  0  0  0  0  0  0  0  0  0  0  0
    1.2042   -3.2508   -3.6500 H   0  0  0  0  0  0  0  0  0  0  0  0
    0.1096   -1.3943   -3.4722 C   0  0  0  0  0  0  0  0  0  0  0  0
    0.9100   -0.8621   -3.3421 H   0  0  0  0  0  0  0  0  0  0  0  0
   -0.1297   -1.3977   -4.4125 H   0  0  0  0  0  0  0  0  0  0  0  0
   -1.0293   -0.7092   -2.7102 C   0  0  0  0  0  0  0  0  0  0  0  0
   -0.7745   -0.6205   -1.7776 H   0  0  0  0  0  0  0  0  0  0  0  0
   -1.2001    0.2916   -3.1067 H   0  0  0  0  0  0  0  0  0  0  0  0
   -1.9452   -1.2986   -2.7528 H   0  0  0  0  0  0  0  0  0  0  0  0
  1  5  1  0
  5  6  1  0
  5  7  2  0
  1  2  1  0
  1  3  1  0
  1  4  1  0
  8 12  1  0
 12 15  1  0
  8  9  1  0
  8 10  1  0
  8 11  1  0
 12 13  1  0
 12 14  1  0
 15 16  1  0
 15 17  1  0
 15 18  1  0
M  CHG  1   6  -1
M  END
>  <PDB_ID>  (1715) 
pdb4uuc

>  <RESIDUE_NAME>  (1715) 
GLU   LEU

>  <FRAG_NAME>  (1715) 
ACET   PRPA

>  <FRAG_ATOM_NUM>  (1715) 
fragi: 7  fragj: 11

>  <atom.prop.CHAIN_ID>  (1715) 
A A A A A A A Z Z Z Z Z Z Z Z Z Z Z

>  <atom.prop.IS_HEAVY_ATOM>  (1715) 
1 0 0 0 1 1 1 1 0 0 0 1 0 0 1 0 0 0

>  <DIFUSE_FUNC_ATOM>  (1715) 
atom 6   atom 7   

>  <FINAL_SINGLE_POINT_ENERGY>  (1715) 
0

>  <NONCOV_INTER_ENERGY_QM>  (1715) 
0

>  <FF_Energy>  (1715) 
43.08

>  <QM_Energy>  (1715) 
3.53

>  <source>  (1715) 
ACET_PRPA_20

>  <Index>  (1715) 
27669

$$$$
ACET-pdb4uuc-A-GLU-160:PRPA-pdb4uuc-A-LEU-163
     RDKit          3D

 18 16  0  0  0  0  0  0  0  0999 V2000
    0.1962    1.4934    0.0148 C   0  0  0  0  0  0  0  0  0  0  0  0
   -0.5333    1.8864    0.5190 H   0  0  0  0  0  0  0  0  0  0  0  0
    0.1392    1.7618   -0.9155 H   0  0  0  0  0  0  0  0  0  0  0  0
    1.1424    1.8436    0.4274 H   0  0  0  0  0  0  0  0  0  0  0  0
    0.0000    0.0000    0.0000 C   0  0  0  0  0  0  0  0  0  0  0  0
   -1.0887   -0.5467   -0.0000 O   0  0  0  0  0  1  0  0  0  0  0  0
    1.0887   -0.6144   -0.0000 O   0  0  0  0  0  0  0  0  0  0  0  0
    0.1096   -1.3943   -3.4722 C   0  0  0  0  0  0  0  0  0  0  0  0
    0.9100   -0.8621   -3.3421 H   0  0  0  0  0  0  0  0  0  0  0  0
   -0.1297   -1.3977   -4.4125 H   0  0  0  0  0  0  0  0  0  0  0  0
    0.3195   -2.4186   -3.1643 H   0  0  0  0  0  0  0  0  0  0  0  0
   -1.0293   -0.7092   -2.7102 C   0  0  0  0  0  0  0  0  0  0  0  0
   -0.7745   -0.6205   -1.7776 H   0  0  0  0  0  0  0  0  0  0  0  0
   -1.9452   -1.2986   -2.7528 H   0  0  0  0  0  0  0  0  0  0  0  0
   -1.2676    0.6869   -3.2632 C   0  0  0  0  0  0  0  0  0  0  0  0
   -1.5042    0.6181   -4.2014 H   0  0  0  0  0  0  0  0  0  0  0  0
   -1.9899    1.1028   -2.7692 H   0  0  0  0  0  0  0  0  0  0  0  0
   -0.4551    1.2076   -3.1653 H   0  0  0  0  0  0  0  0  0  0  0  0
  1  5  1  0
  5  6  1  0
  5  7  2  0
  1  2  1  0
  1  3  1  0
  1  4  1  0
  8 12  1  0
 12 15  1  0
  8  9  1  0
  8 10  1  0
  8 11  1  0
 12 13  1  0
 12 14  1  0
 15 16  1  0
 15 17  1  0
 15 18  1  0
M  CHG  1   6  -1
M  END
>  <PDB_ID>  (1716) 
pdb4uuc

>  <RESIDUE_NAME>  (1716) 
GLU   LEU

>  <FRAG_NAME>  (1716) 
ACET   PRPA

>  <FRAG_ATOM_NUM>  (1716) 
fragi: 7  fragj: 11

>  <atom.prop.CHAIN_ID>  (1716) 
A A A A A A A Z Z Z Z Z Z Z Z Z Z Z

>  <atom.prop.IS_HEAVY_ATOM>  (1716) 
1 0 0 0 1 1 1 1 0 0 0 1 0 0 1 0 0 0

>  <DIFUSE_FUNC_ATOM>  (1716) 
atom 6   atom 7   

>  <FINAL_SINGLE_POINT_ENERGY>  (1716) 
0

>  <NONCOV_INTER_ENERGY_QM>  (1716) 
0

>  <FF_Energy>  (1716) 
48.95

>  <QM_Energy>  (1716) 
4.08

>  <source>  (1716) 
ACET_PRPA_20

>  <Index>  (1716) 
27675

$$$$
ACET-pdb4uuc-A-GLU-160:PRPA-pdb4uuc-A-LEU-163
     RDKit          3D

 18 16  0  0  0  0  0  0  0  0999 V2000
    0.1962    1.4934    0.0148 C   0  0  0  0  0  0  0  0  0  0  0  0
   -0.5333    1.8864    0.5190 H   0  0  0  0  0  0  0  0  0  0  0  0
    0.1392    1.7618   -0.9155 H   0  0  0  0  0  0  0  0  0  0  0  0
    1.1424    1.8436    0.4274 H   0  0  0  0  0  0  0  0  0  0  0  0
    0.0000    0.0000    0.0000 C   0  0  0  0  0  0  0  0  0  0  0  0
   -1.0887   -0.5467   -0.0000 O   0  0  0  0  0  1  0  0  0  0  0  0
    1.0887   -0.6144   -0.0000 O   0  0  0  0  0  0  0  0  0  0  0  0
    0.1096   -1.3943   -3.4722 C   0  0  0  0  0  0  0  0  0  0  0  0
    0.9100   -0.8621   -3.3421 H   0  0  0  0  0  0  0  0  0  0  0  0
   -0.1297   -1.3977   -4.4125 H   0  0  0  0  0  0  0  0  0  0  0  0
    0.3195   -2.4186   -3.1643 H   0  0  0  0  0  0  0  0  0  0  0  0
   -1.0293   -0.7092   -2.7102 C   0  0  0  0  0  0  0  0  0  0  0  0
   -0.7745   -0.6205   -1.7776 H   0  0  0  0  0  0  0  0  0  0  0  0
   -1.2001    0.2916   -3.1067 H   0  0  0  0  0  0  0  0  0  0  0  0
   -2.3051   -1.5303   -2.7695 C   0  0  0  0  0  0  0  0  0  0  0  0
   -2.1409   -2.3989   -2.3704 H   0  0  0  0  0  0  0  0  0  0  0  0
   -3.0018   -1.0667   -2.2785 H   0  0  0  0  0  0  0  0  0  0  0  0
   -2.5691   -1.6360   -3.6969 H   0  0  0  0  0  0  0  0  0  0  0  0
  1  5  1  0
  5  6  1  0
  5  7  2  0
  1  2  1  0
  1  3  1  0
  1  4  1  0
  8 12  1  0
 12 15  1  0
  8  9  1  0
  8 10  1  0
  8 11  1  0
 12 13  1  0
 12 14  1  0
 15 16  1  0
 15 17  1  0
 15 18  1  0
M  CHG  1   6  -1
M  END
>  <PDB_ID>  (1717) 
pdb4uuc

>  <RESIDUE_NAME>  (1717) 
GLU   LEU

>  <FRAG_NAME>  (1717) 
ACET   PRPA

>  <FRAG_ATOM_NUM>  (1717) 
fragi: 7  fragj: 11

>  <atom.prop.CHAIN_ID>  (1717) 
A A A A A A A Z Z Z Z Z Z Z Z Z Z Z

>  <atom.prop.IS_HEAVY_ATOM>  (1717) 
1 0 0 0 1 1 1 1 0 0 0 1 0 0 1 0 0 0

>  <DIFUSE_FUNC_ATOM>  (1717) 
atom 6   atom 7   

>  <FINAL_SINGLE_POINT_ENERGY>  (1717) 
0

>  <NONCOV_INTER_ENERGY_QM>  (1717) 
0

>  <FF_Energy>  (1717) 
49.69

>  <QM_Energy>  (1717) 
3.33

>  <source>  (1717) 
ACET_PRPA_20

>  <Index>  (1717) 
27685

$$$$
ACET-pdb4uuc-A-GLU-160:PRPA-pdb4uuc-A-LEU-163
     RDKit          3D

 18 16  0  0  0  0  0  0  0  0999 V2000
    0.1962    1.4934    0.0148 C   0  0  0  0  0  0  0  0  0  0  0  0
   -0.5333    1.8864    0.5190 H   0  0  0  0  0  0  0  0  0  0  0  0
    0.1392    1.7618   -0.9155 H   0  0  0  0  0  0  0  0  0  0  0  0
    1.1424    1.8436    0.4274 H   0  0  0  0  0  0  0  0  0  0  0  0
    0.0000    0.0000    0.0000 C   0  0  0  0  0  0  0  0  0  0  0  0
   -1.0887   -0.5467   -0.0000 O   0  0  0  0  0  1  0  0  0  0  0  0
    1.0887   -0.6144   -0.0000 O   0  0  0  0  0  0  0  0  0  0  0  0
   -1.2676    0.6869   -3.2632 C   0  0  0  0  0  0  0  0  0  0  0  0
   -1.5042    0.6181   -4.2014 H   0  0  0  0  0  0  0  0  0  0  0  0
   -1.9899    1.1028   -2.7692 H   0  0  0  0  0  0  0  0  0  0  0  0
   -0.4551    1.2076   -3.1653 H   0  0  0  0  0  0  0  0  0  0  0  0
   -1.0293   -0.7092   -2.7102 C   0  0  0  0  0  0  0  0  0  0  0  0
   -0.7745   -0.6205   -1.7776 H   0  0  0  0  0  0  0  0  0  0  0  0
   -0.2189   -1.1966   -3.2524 H   0  0  0  0  0  0  0  0  0  0  0  0
   -2.3051   -1.5303   -2.7695 C   0  0  0  0  0  0  0  0  0  0  0  0
   -2.1409   -2.3989   -2.3704 H   0  0  0  0  0  0  0  0  0  0  0  0
   -3.0018   -1.0667   -2.2785 H   0  0  0  0  0  0  0  0  0  0  0  0
   -2.5691   -1.6360   -3.6969 H   0  0  0  0  0  0  0  0  0  0  0  0
  1  5  1  0
  5  6  1  0
  5  7  2  0
  1  2  1  0
  1  3  1  0
  1  4  1  0
  8 12  1  0
 12 15  1  0
  8  9  1  0
  8 10  1  0
  8 11  1  0
 12 13  1  0
 12 14  1  0
 15 16  1  0
 15 17  1  0
 15 18  1  0
M  CHG  1   6  -1
M  END
>  <PDB_ID>  (1718) 
pdb4uuc

>  <RESIDUE_NAME>  (1718) 
GLU   LEU

>  <FRAG_NAME>  (1718) 
ACET   PRPA

>  <FRAG_ATOM_NUM>  (1718) 
fragi: 7  fragj: 11

>  <atom.prop.CHAIN_ID>  (1718) 
A A A A A A A Z Z Z Z Z Z Z Z Z Z Z

>  <atom.prop.IS_HEAVY_ATOM>  (1718) 
1 0 0 0 1 1 1 1 0 0 0 1 0 0 1 0 0 0

>  <DIFUSE_FUNC_ATOM>  (1718) 
atom 6   atom 7   

>  <FINAL_SINGLE_POINT_ENERGY>  (1718) 
0

>  <NONCOV_INTER_ENERGY_QM>  (1718) 
0

>  <FF_Energy>  (1718) 
49.52

>  <QM_Energy>  (1718) 
3.07

>  <source>  (1718) 
ACET_PRPA_20

>  <Index>  (1718) 
27696

$$$$
ACET-pdb4txh-D-ASP-263:PRPA-pdb4txh-D-LEU-204
     RDKit          3D

 18 16  0  0  0  0  0  0  0  0999 V2000
    0.0017    1.5127    0.0164 C   0  0  0  0  0  0  0  0  0  0  0  0
    0.7640    1.8399   -0.5318 H   0  0  0  0  0  0  0  0  0  0  0  0
    0.0901    1.8245    0.9556 H   0  0  0  0  0  0  0  0  0  0  0  0
   -0.9132    1.9404   -0.3938 H   0  0  0  0  0  0  0  0  0  0  0  0
    0.0000    0.0000    0.0000 C   0  0  0  0  0  0  0  0  0  0  0  0
   -1.1006   -0.5925    0.0000 O   0  0  0  0  0  1  0  0  0  0  0  0
    1.1006   -0.5942   -0.0000 O   0  0  0  0  0  0  0  0  0  0  0  0
    4.4894   -2.3905    0.2003 C   0  0  0  0  0  0  0  0  0  0  0  0
    5.3217   -1.9160   -0.0656 H   0  0  0  0  0  0  0  0  0  0  0  0
    4.6268   -3.3743    0.1732 H   0  0  0  0  0  0  0  0  0  0  0  0
    4.2629   -2.1136    1.2300 H   0  0  0  0  0  0  0  0  0  0  0  0
    3.4165   -2.0465   -0.8296 C   0  0  0  0  0  0  0  0  0  0  0  0
    3.2687   -1.0614   -0.8339 H   0  0  0  0  0  0  0  0  0  0  0  0
    3.7387   -2.3629   -1.8216 H   0  0  0  0  0  0  0  0  0  0  0  0
    2.1287   -2.7562   -0.4427 C   0  0  0  0  0  0  0  0  0  0  0  0
    1.8382   -2.4527    0.4660 H   0  0  0  0  0  0  0  0  0  0  0  0
    1.4138   -2.5415   -1.1090 H   0  0  0  0  0  0  0  0  0  0  0  0
    2.2822   -3.7455   -0.4284 H   0  0  0  0  0  0  0  0  0  0  0  0
  1  5  1  0
  5  6  1  0
  5  7  2  0
  1  2  1  0
  1  3  1  0
  1  4  1  0
  8 12  1  0
 12 15  1  0
  8  9  1  0
  8 10  1  0
  8 11  1  0
 12 13  1  0
 12 14  1  0
 15 16  1  0
 15 17  1  0
 15 18  1  0
M  CHG  1   6  -1
M  END
>  <PDB_ID>  (1719) 
pdb4txh

>  <RESIDUE_NAME>  (1719) 
ASP   LEU

>  <FRAG_NAME>  (1719) 
ACET   PRPA

>  <FRAG_ATOM_NUM>  (1719) 
fragi: 7  fragj: 11

>  <atom.prop.CHAIN_ID>  (1719) 
A A A A A A A Z Z Z Z Z Z Z Z Z Z Z

>  <atom.prop.IS_HEAVY_ATOM>  (1719) 
1 0 0 0 1 1 1 1 0 0 0 1 0 0 1 0 0 0

>  <DIFUSE_FUNC_ATOM>  (1719) 
atom 6   atom 7   

>  <FINAL_SINGLE_POINT_ENERGY>  (1719) 
0

>  <NONCOV_INTER_ENERGY_QM>  (1719) 
0

>  <FF_Energy>  (1719) 
22.7

>  <QM_Energy>  (1719) 
4.74

>  <source>  (1719) 
ACET_PRPA_20

>  <Index>  (1719) 
27846

$$$$
ACET-pdb4txh-D-ASP-263:PRPA-pdb4txh-D-LEU-204
     RDKit          3D

 18 16  0  0  0  0  0  0  0  0999 V2000
    0.0017    1.5127    0.0164 C   0  0  0  0  0  0  0  0  0  0  0  0
    0.7640    1.8399   -0.5318 H   0  0  0  0  0  0  0  0  0  0  0  0
    0.0901    1.8245    0.9556 H   0  0  0  0  0  0  0  0  0  0  0  0
   -0.9132    1.9404   -0.3938 H   0  0  0  0  0  0  0  0  0  0  0  0
    0.0000    0.0000    0.0000 C   0  0  0  0  0  0  0  0  0  0  0  0
   -1.1006   -0.5925    0.0000 O   0  0  0  0  0  1  0  0  0  0  0  0
    1.1006   -0.5942   -0.0000 O   0  0  0  0  0  0  0  0  0  0  0  0
    3.8699   -2.4918   -2.2254 C   0  0  0  0  0  0  0  0  0  0  0  0
    4.0212   -3.4785   -2.2225 H   0  0  0  0  0  0  0  0  0  0  0  0
    3.1608   -2.2619   -2.8897 H   0  0  0  0  0  0  0  0  0  0  0  0
    4.7181   -2.0206   -2.4603 H   0  0  0  0  0  0  0  0  0  0  0  0
    3.4165   -2.0465   -0.8296 C   0  0  0  0  0  0  0  0  0  0  0  0
    3.2687   -1.0614   -0.8339 H   0  0  0  0  0  0  0  0  0  0  0  0
    4.1826   -2.2921   -0.0941 H   0  0  0  0  0  0  0  0  0  0  0  0
    2.1287   -2.7562   -0.4427 C   0  0  0  0  0  0  0  0  0  0  0  0
    1.8382   -2.4527    0.4660 H   0  0  0  0  0  0  0  0  0  0  0  0
    1.4138   -2.5415   -1.1090 H   0  0  0  0  0  0  0  0  0  0  0  0
    2.2822   -3.7455   -0.4284 H   0  0  0  0  0  0  0  0  0  0  0  0
  1  5  1  0
  5  6  1  0
  5  7  2  0
  1  2  1  0
  1  3  1  0
  1  4  1  0
  8 12  1  0
 12 15  1  0
  8  9  1  0
  8 10  1  0
  8 11  1  0
 12 13  1  0
 12 14  1  0
 15 16  1  0
 15 17  1  0
 15 18  1  0
M  CHG  1   6  -1
M  END
>  <PDB_ID>  (1720) 
pdb4txh

>  <RESIDUE_NAME>  (1720) 
ASP   LEU

>  <FRAG_NAME>  (1720) 
ACET   PRPA

>  <FRAG_ATOM_NUM>  (1720) 
fragi: 7  fragj: 11

>  <atom.prop.CHAIN_ID>  (1720) 
A A A A A A A Z Z Z Z Z Z Z Z Z Z Z

>  <atom.prop.IS_HEAVY_ATOM>  (1720) 
1 0 0 0 1 1 1 1 0 0 0 1 0 0 1 0 0 0

>  <DIFUSE_FUNC_ATOM>  (1720) 
atom 6   atom 7   

>  <FINAL_SINGLE_POINT_ENERGY>  (1720) 
0

>  <NONCOV_INTER_ENERGY_QM>  (1720) 
0

>  <FF_Energy>  (1720) 
22.37

>  <QM_Energy>  (1720) 
4.72

>  <source>  (1720) 
ACET_PRPA_20

>  <Index>  (1720) 
27857

$$$$
ACET-pdb4txh-C-GLU-14:PRPA-pdb4txh-D-LYS-213
     RDKit          3D

 18 16  0  0  0  0  0  0  0  0999 V2000
    0.1755    1.4847    0.0163 C   0  0  0  0  0  0  0  0  0  0  0  0
    0.6939    1.7399   -0.8009 H   0  0  0  0  0  0  0  0  0  0  0  0
    0.7058    1.7210    0.8307 H   0  0  0  0  0  0  0  0  0  0  0  0
   -0.7352    2.0836    0.0285 H   0  0  0  0  0  0  0  0  0  0  0  0
    0.0000    0.0000    0.0000 C   0  0  0  0  0  0  0  0  0  0  0  0
   -1.0895   -0.5578   -0.0000 O   0  0  0  0  0  1  0  0  0  0  0  0
    1.0895   -0.6088    0.0000 O   0  0  0  0  0  0  0  0  0  0  0  0
   -2.3015   -4.9543    0.6728 C   0  0  0  0  0  0  0  0  0  0  0  0
   -3.0202   -4.7032    1.3232 H   0  0  0  0  0  0  0  0  0  0  0  0
   -1.4067   -4.8195    1.1022 H   0  0  0  0  0  0  0  0  0  0  0  0
   -2.4134   -6.0063    0.4104 H   0  0  0  0  0  0  0  0  0  0  0  0
   -2.4044   -4.0570   -0.5462 C   0  0  0  0  0  0  0  0  0  0  0  0
   -1.6845   -4.3129   -1.1942 H   0  0  0  0  0  0  0  0  0  0  0  0
   -3.2991   -4.1950   -0.9736 H   0  0  0  0  0  0  0  0  0  0  0  0
   -2.2511   -2.5928   -0.2062 C   0  0  0  0  0  0  0  0  0  0  0  0
   -2.9693   -2.3280    0.4378 H   0  0  0  0  0  0  0  0  0  0  0  0
   -1.3565   -2.4449    0.2164 H   0  0  0  0  0  0  0  0  0  0  0  0
   -2.3295   -1.9783   -1.1031 H   0  0  0  0  0  0  0  0  0  0  0  0
  1  5  1  0
  5  6  1  0
  5  7  2  0
  1  2  1  0
  1  3  1  0
  1  4  1  0
  8 12  1  0
 12 15  1  0
  8  9  1  0
  8 10  1  0
  8 11  1  0
 12 13  1  0
 12 14  1  0
 15 16  1  0
 15 17  1  0
 15 18  1  0
M  CHG  1   6  -1
M  END
>  <PDB_ID>  (1721) 
pdb4txh

>  <RESIDUE_NAME>  (1721) 
GLU   LYS

>  <FRAG_NAME>  (1721) 
ACET   PRPA

>  <FRAG_ATOM_NUM>  (1721) 
fragi: 7  fragj: 11

>  <atom.prop.CHAIN_ID>  (1721) 
A A A A A A A Z Z Z Z Z Z Z Z Z Z Z

>  <atom.prop.IS_HEAVY_ATOM>  (1721) 
1 0 0 0 1 1 1 1 0 0 0 1 0 0 1 0 0 0

>  <DIFUSE_FUNC_ATOM>  (1721) 
atom 6   atom 7   

>  <FINAL_SINGLE_POINT_ENERGY>  (1721) 
0

>  <NONCOV_INTER_ENERGY_QM>  (1721) 
0

>  <FF_Energy>  (1721) 
35.54

>  <QM_Energy>  (1721) 
10.44

>  <source>  (1721) 
ACET_PRPA_20

>  <Index>  (1721) 
27882

$$$$
ACET-pdb4uur-B-GLU-120:PRPA-pdb4uur-B-ARG-40
     RDKit          3D

 18 16  0  0  0  0  0  0  0  0999 V2000
    0.0083    1.5177    0.0210 C   0  0  0  0  0  0  0  0  0  0  0  0
    0.7032    1.8193   -0.6076 H   0  0  0  0  0  0  0  0  0  0  0  0
    0.1997    1.8003    0.9448 H   0  0  0  0  0  0  0  0  0  0  0  0
   -0.9420    1.9566   -0.2832 H   0  0  0  0  0  0  0  0  0  0  0  0
    0.0000    0.0000    0.0000 C   0  0  0  0  0  0  0  0  0  0  0  0
   -1.0959   -0.5896   -0.0000 O   0  0  0  0  0  1  0  0  0  0  0  0
    1.0959   -0.6106    0.0000 O   0  0  0  0  0  0  0  0  0  0  0  0
    3.1595    1.0081    2.4529 C   0  0  0  0  0  0  0  0  0  0  0  0
    2.6485    0.1935    2.2307 H   0  0  0  0  0  0  0  0  0  0  0  0
    2.5622    1.7564    2.6912 H   0  0  0  0  0  0  0  0  0  0  0  0
    3.8182    0.7963    3.2951 H   0  0  0  0  0  0  0  0  0  0  0  0
    3.9578    1.4060    1.2525 C   0  0  0  0  0  0  0  0  0  0  0  0
    3.8363    2.3758    1.0752 H   0  0  0  0  0  0  0  0  0  0  0  0
    4.9164    1.1958    1.4036 H   0  0  0  0  0  0  0  0  0  0  0  0
    3.4782    0.6381    0.0749 C   0  0  0  0  0  0  0  0  0  0  0  0
    2.6801    0.1081    0.3448 H   0  0  0  0  0  0  0  0  0  0  0  0
    3.2380    1.2811   -0.6462 H   0  0  0  0  0  0  0  0  0  0  0  0
    4.2634   -0.0318   -0.2756 H   0  0  0  0  0  0  0  0  0  0  0  0
  1  5  1  0
  5  6  1  0
  5  7  2  0
  1  2  1  0
  1  3  1  0
  1  4  1  0
  8 12  1  0
 12 15  1  0
  8  9  1  0
  8 10  1  0
  8 11  1  0
 12 13  1  0
 12 14  1  0
 15 16  1  0
 15 17  1  0
 15 18  1  0
M  CHG  1   6  -1
M  END
>  <PDB_ID>  (1722) 
pdb4uur

>  <RESIDUE_NAME>  (1722) 
GLU   ARG

>  <FRAG_NAME>  (1722) 
ACET   PRPA

>  <FRAG_ATOM_NUM>  (1722) 
fragi: 7  fragj: 11

>  <atom.prop.CHAIN_ID>  (1722) 
A A A A A A A Z Z Z Z Z Z Z Z Z Z Z

>  <atom.prop.IS_HEAVY_ATOM>  (1722) 
1 0 0 0 1 1 1 1 0 0 0 1 0 0 1 0 0 0

>  <DIFUSE_FUNC_ATOM>  (1722) 
atom 6   atom 7   

>  <FINAL_SINGLE_POINT_ENERGY>  (1722) 
0

>  <NONCOV_INTER_ENERGY_QM>  (1722) 
0

>  <FF_Energy>  (1722) 
33.8

>  <QM_Energy>  (1722) 
2.24

>  <source>  (1722) 
ACET_PRPA_20

>  <Index>  (1722) 
28405

$$$$
ACET-pdb3u0g-F-GLU-95:PRPA-pdb3u0g-F-LYS-45
     RDKit          3D

 18 16  0  0  0  0  0  0  0  0999 V2000
   -0.0124    1.5237   -0.0334 C   0  0  0  0  0  0  0  0  0  0  0  0
   -0.9522    1.8071   -0.1493 H   0  0  0  0  0  0  0  0  0  0  0  0
    0.5449    1.8048   -0.7993 H   0  0  0  0  0  0  0  0  0  0  0  0
    0.3795    1.9945    0.8683 H   0  0  0  0  0  0  0  0  0  0  0  0
    0.0000    0.0000    0.0000 C   0  0  0  0  0  0  0  0  0  0  0  0
   -1.0954   -0.6025    0.0000 O   0  0  0  0  0  1  0  0  0  0  0  0
    1.0954   -0.6073   -0.0000 O   0  0  0  0  0  0  0  0  0  0  0  0
   -0.8452    0.4863    3.8181 C   0  0  0  0  0  0  0  0  0  0  0  0
   -1.2479    0.7406    2.9348 H   0  0  0  0  0  0  0  0  0  0  0  0
   -0.3922    1.2884    4.2144 H   0  0  0  0  0  0  0  0  0  0  0  0
   -1.6415    0.1628    4.4884 H   0  0  0  0  0  0  0  0  0  0  0  0
    0.1833   -0.6020    3.5946 C   0  0  0  0  0  0  0  0  0  0  0  0
    0.5821   -0.8550    4.4791 H   0  0  0  0  0  0  0  0  0  0  0  0
   -0.2728   -1.4021    3.1987 H   0  0  0  0  0  0  0  0  0  0  0  0
    1.2974   -0.1750    2.6677 C   0  0  0  0  0  0  0  0  0  0  0  0
    0.9084    0.0743    1.7805 H   0  0  0  0  0  0  0  0  0  0  0  0
    1.7629    0.6207    3.0588 H   0  0  0  0  0  0  0  0  0  0  0  0
    2.0182   -0.9812    2.5308 H   0  0  0  0  0  0  0  0  0  0  0  0
  1  5  1  0
  5  6  1  0
  5  7  2  0
  1  2  1  0
  1  3  1  0
  1  4  1  0
  8 12  1  0
 12 15  1  0
  8  9  1  0
  8 10  1  0
  8 11  1  0
 12 13  1  0
 12 14  1  0
 15 16  1  0
 15 17  1  0
 15 18  1  0
M  CHG  1   6  -1
M  END
>  <PDB_ID>  (1723) 
pdb3u0g

>  <RESIDUE_NAME>  (1723) 
GLU   LYS

>  <FRAG_NAME>  (1723) 
ACET   PRPA

>  <FRAG_ATOM_NUM>  (1723) 
fragi: 7  fragj: 11

>  <atom.prop.CHAIN_ID>  (1723) 
A A A A A A A Z Z Z Z Z Z Z Z Z Z Z

>  <atom.prop.IS_HEAVY_ATOM>  (1723) 
1 0 0 0 1 1 1 1 0 0 0 1 0 0 1 0 0 0

>  <DIFUSE_FUNC_ATOM>  (1723) 
atom 6   atom 7   

>  <FINAL_SINGLE_POINT_ENERGY>  (1723) 
0

>  <NONCOV_INTER_ENERGY_QM>  (1723) 
0

>  <FF_Energy>  (1723) 
35.03

>  <QM_Energy>  (1723) 
4.86

>  <source>  (1723) 
ACET_PRPA_20

>  <Index>  (1723) 
28552

$$$$
ACET-pdb3v30-A-GLU-108:PRPA-pdb3v30-A-ARG-111
     RDKit          3D

 18 16  0  0  0  0  0  0  0  0999 V2000
    0.0251    1.5290   -0.0115 C   0  0  0  0  0  0  0  0  0  0  0  0
    0.3554    1.8138   -0.8959 H   0  0  0  0  0  0  0  0  0  0  0  0
    0.6243    1.8211    0.7147 H   0  0  0  0  0  0  0  0  0  0  0  0
   -0.9479    1.9938    0.1479 H   0  0  0  0  0  0  0  0  0  0  0  0
    0.0000    0.0000    0.0000 C   0  0  0  0  0  0  0  0  0  0  0  0
   -1.0950   -0.6033    0.0000 O   0  0  0  0  0  1  0  0  0  0  0  0
    1.0950   -0.6007   -0.0000 O   0  0  0  0  0  0  0  0  0  0  0  0
   -0.9239   -0.8541    5.0969 C   0  0  0  0  0  0  0  0  0  0  0  0
    0.0179   -0.5373    5.2423 H   0  0  0  0  0  0  0  0  0  0  0  0
   -0.9462   -1.8534    5.1881 H   0  0  0  0  0  0  0  0  0  0  0  0
   -1.5524   -0.4257    5.8777 H   0  0  0  0  0  0  0  0  0  0  0  0
   -1.3125   -0.5110    3.6651 C   0  0  0  0  0  0  0  0  0  0  0  0
   -2.2475   -0.8317    3.4981 H   0  0  0  0  0  0  0  0  0  0  0  0
   -1.2831    0.4852    3.5526 H   0  0  0  0  0  0  0  0  0  0  0  0
   -0.4017   -1.1375    2.6720 C   0  0  0  0  0  0  0  0  0  0  0  0
   -0.3823   -2.1260    2.8288 H   0  0  0  0  0  0  0  0  0  0  0  0
   -0.7523   -0.9555    1.7520 H   0  0  0  0  0  0  0  0  0  0  0  0
    0.6147   -0.7505    2.7442 H   0  0  0  0  0  0  0  0  0  0  0  0
  1  5  1  0
  5  6  1  0
  5  7  2  0
  1  2  1  0
  1  3  1  0
  1  4  1  0
  8 12  1  0
 12 15  1  0
  8  9  1  0
  8 10  1  0
  8 11  1  0
 12 13  1  0
 12 14  1  0
 15 16  1  0
 15 17  1  0
 15 18  1  0
M  CHG  1   6  -1
M  END
>  <PDB_ID>  (1724) 
pdb3v30

>  <RESIDUE_NAME>  (1724) 
GLU   ARG

>  <FRAG_NAME>  (1724) 
ACET   PRPA

>  <FRAG_ATOM_NUM>  (1724) 
fragi: 7  fragj: 11

>  <atom.prop.CHAIN_ID>  (1724) 
A A A A A A A Z Z Z Z Z Z Z Z Z Z Z

>  <atom.prop.IS_HEAVY_ATOM>  (1724) 
1 0 0 0 1 1 1 1 0 0 0 1 0 0 1 0 0 0

>  <DIFUSE_FUNC_ATOM>  (1724) 
atom 6   atom 7   

>  <FINAL_SINGLE_POINT_ENERGY>  (1724) 
0

>  <NONCOV_INTER_ENERGY_QM>  (1724) 
0

>  <FF_Energy>  (1724) 
33.45

>  <QM_Energy>  (1724) 
2.29

>  <source>  (1724) 
ACET_PRPA_20

>  <Index>  (1724) 
29320

$$$$
ACET-pdb3v10-A-ASP-133:PRPA-pdb3v10-A-ILE-114
     RDKit          3D

 18 16  0  0  0  0  0  0  0  0999 V2000
   -0.0039    1.5177   -0.0101 C   0  0  0  0  0  0  0  0  0  0  0  0
    0.9328    1.8376    0.0578 H   0  0  0  0  0  0  0  0  0  0  0  0
   -0.5415    1.8395    0.7585 H   0  0  0  0  0  0  0  0  0  0  0  0
   -0.4377    1.9235   -0.9241 H   0  0  0  0  0  0  0  0  0  0  0  0
    0.0000    0.0000    0.0000 C   0  0  0  0  0  0  0  0  0  0  0  0
   -1.0983   -0.5950   -0.0000 O   0  0  0  0  0  1  0  0  0  0  0  0
    1.0983   -0.5963    0.0000 O   0  0  0  0  0  0  0  0  0  0  0  0
    1.1834    1.6072    4.7697 C   0  0  0  0  0  0  0  0  0  0  0  0
    0.6706    0.8180    5.0874 H   0  0  0  0  0  0  0  0  0  0  0  0
    2.2416    1.3920    4.9181 H   0  0  0  0  0  0  0  0  0  0  0  0
    0.8926    2.4827    5.3504 H   0  0  0  0  0  0  0  0  0  0  0  0
    0.8816    1.8134    3.2876 C   0  0  0  0  0  0  0  0  0  0  0  0
   -0.1014    1.6860    3.1453 H   0  0  0  0  0  0  0  0  0  0  0  0
    1.1131    2.7592    3.0505 H   0  0  0  0  0  0  0  0  0  0  0  0
    1.6355    0.8855    2.3710 C   0  0  0  0  0  0  0  0  0  0  0  0
    1.4025   -0.0625    2.5889 H   0  0  0  0  0  0  0  0  0  0  0  0
    1.3874    1.0784    1.4212 H   0  0  0  0  0  0  0  0  0  0  0  0
    2.6185    1.0221    2.4917 H   0  0  0  0  0  0  0  0  0  0  0  0
  1  5  1  0
  5  6  1  0
  5  7  2  0
  1  2  1  0
  1  3  1  0
  1  4  1  0
  8 12  1  0
 12 15  1  0
  8  9  1  0
  8 10  1  0
  8 11  1  0
 12 13  1  0
 12 14  1  0
 15 16  1  0
 15 17  1  0
 15 18  1  0
M  CHG  1   6  -1
M  END
>  <PDB_ID>  (1725) 
pdb3v10

>  <RESIDUE_NAME>  (1725) 
ASP   ILE

>  <FRAG_NAME>  (1725) 
ACET   PRPA

>  <FRAG_ATOM_NUM>  (1725) 
fragi: 7  fragj: 11

>  <atom.prop.CHAIN_ID>  (1725) 
A A A A A A A Z Z Z Z Z Z Z Z Z Z Z

>  <atom.prop.IS_HEAVY_ATOM>  (1725) 
1 0 0 0 1 1 1 1 0 0 0 1 0 0 1 0 0 0

>  <DIFUSE_FUNC_ATOM>  (1725) 
atom 6   atom 7   

>  <FINAL_SINGLE_POINT_ENERGY>  (1725) 
0

>  <NONCOV_INTER_ENERGY_QM>  (1725) 
0

>  <FF_Energy>  (1725) 
35.97

>  <QM_Energy>  (1725) 
6.06

>  <source>  (1725) 
ACET_PRPA_20

>  <Index>  (1725) 
30945

$$$$
ACET-pdb4w8v-A-ASP-186:PRPA-pdb4w8v-A-GLU-189
     RDKit          3D

 18 16  0  0  0  0  0  0  0  0999 V2000
    0.0265    1.5225    0.0089 C   0  0  0  0  0  0  0  0  0  0  0  0
    0.5480    1.8360   -0.7771 H   0  0  0  0  0  0  0  0  0  0  0  0
    0.4519    1.8282    0.8530 H   0  0  0  0  0  0  0  0  0  0  0  0
   -0.9670    1.9673   -0.0480 H   0  0  0  0  0  0  0  0  0  0  0  0
    0.0000    0.0000    0.0000 C   0  0  0  0  0  0  0  0  0  0  0  0
   -1.0958   -0.6008    0.0000 O   0  0  0  0  0  1  0  0  0  0  0  0
    1.0958   -0.5996   -0.0000 O   0  0  0  0  0  0  0  0  0  0  0  0
    0.4691   -0.6193    4.3935 C   0  0  0  0  0  0  0  0  0  0  0  0
    0.9979   -1.4173    4.7247 H   0  0  0  0  0  0  0  0  0  0  0  0
   -0.3460   -0.9609    3.7554 H   0  0  0  0  0  0  0  0  0  0  0  0
    0.1104   -0.0456    5.2480 H   0  0  0  0  0  0  0  0  0  0  0  0
    1.4544    0.2200    3.5729 C   0  0  0  0  0  0  0  0  0  0  0  0
    0.9481    1.0108    3.2186 H   0  0  0  0  0  0  0  0  0  0  0  0
    2.1652    0.5439    4.2019 H   0  0  0  0  0  0  0  0  0  0  0  0
    2.1565   -0.4310    2.3937 C   0  0  0  0  0  0  0  0  0  0  0  0
    2.6667   -1.2190    2.7433 H   0  0  0  0  0  0  0  0  0  0  0  0
    1.4508   -0.7528    1.7596 H   0  0  0  0  0  0  0  0  0  0  0  0
    2.8508    0.1929    1.8307 H   0  0  0  0  0  0  0  0  0  0  0  0
  1  5  1  0
  5  6  1  0
  5  7  2  0
  1  2  1  0
  1  3  1  0
  1  4  1  0
  8 12  1  0
 12 15  1  0
  8  9  1  0
  8 10  1  0
  8 11  1  0
 12 13  1  0
 12 14  1  0
 15 16  1  0
 15 17  1  0
 15 18  1  0
M  CHG  1   6  -1
M  END
>  <PDB_ID>  (1726) 
pdb4w8v

>  <RESIDUE_NAME>  (1726) 
ASP   GLU

>  <FRAG_NAME>  (1726) 
ACET   PRPA

>  <FRAG_ATOM_NUM>  (1726) 
fragi: 7  fragj: 11

>  <atom.prop.CHAIN_ID>  (1726) 
A A A A A A A Z Z Z Z Z Z Z Z Z Z Z

>  <atom.prop.IS_HEAVY_ATOM>  (1726) 
1 0 0 0 1 1 1 1 0 0 0 1 0 0 1 0 0 0

>  <DIFUSE_FUNC_ATOM>  (1726) 
atom 6   atom 7   

>  <FINAL_SINGLE_POINT_ENERGY>  (1726) 
0

>  <NONCOV_INTER_ENERGY_QM>  (1726) 
0

>  <FF_Energy>  (1726) 
31.44

>  <QM_Energy>  (1726) 
4.14

>  <source>  (1726) 
ACET_PRPA_20

>  <Index>  (1726) 
33477

$$$$
ACET-pdb4we2-A-GLU-26:PRPA-pdb4we2-A-LYS-66
     RDKit          3D

 18 16  0  0  0  0  0  0  0  0999 V2000
    0.0378    1.5159    0.0412 C   0  0  0  0  0  0  0  0  0  0  0  0
    0.6316    1.7731    0.7701 H   0  0  0  0  0  0  0  0  0  0  0  0
   -0.8796    1.8272    0.1558 H   0  0  0  0  0  0  0  0  0  0  0  0
    0.4335    1.9106   -0.8946 H   0  0  0  0  0  0  0  0  0  0  0  0
    0.0000    0.0000    0.0000 C   0  0  0  0  0  0  0  0  0  0  0  0
   -1.0946   -0.6060   -0.0000 O   0  0  0  0  0  1  0  0  0  0  0  0
    1.0946   -0.5878   -0.0000 O   0  0  0  0  0  0  0  0  0  0  0  0
   -4.1381    0.9201    1.4426 C   0  0  0  0  0  0  0  0  0  0  0  0
   -3.5687    0.3254    0.8587 H   0  0  0  0  0  0  0  0  0  0  0  0
   -4.4787    1.7750    0.8585 H   0  0  0  0  0  0  0  0  0  0  0  0
   -4.9806    0.3357    1.8124 H   0  0  0  0  0  0  0  0  0  0  0  0
   -3.2321    1.4172    2.5692 C   0  0  0  0  0  0  0  0  0  0  0  0
   -3.6626    2.2137    2.9747 H   0  0  0  0  0  0  0  0  0  0  0  0
   -3.1492    0.6859    3.2361 H   0  0  0  0  0  0  0  0  0  0  0  0
   -1.8858    1.7844    2.0673 C   0  0  0  0  0  0  0  0  0  0  0  0
   -1.5834    1.1041    1.3748 H   0  0  0  0  0  0  0  0  0  0  0  0
   -1.9313    2.6844    1.5962 H   0  0  0  0  0  0  0  0  0  0  0  0
   -1.1221    1.8434    2.8428 H   0  0  0  0  0  0  0  0  0  0  0  0
  1  5  1  0
  5  6  1  0
  5  7  2  0
  1  2  1  0
  1  3  1  0
  1  4  1  0
  8 12  1  0
 12 15  1  0
  8  9  1  0
  8 10  1  0
  8 11  1  0
 12 13  1  0
 12 14  1  0
 15 16  1  0
 15 17  1  0
 15 18  1  0
M  CHG  1   6  -1
M  END
>  <PDB_ID>  (1727) 
pdb4we2

>  <RESIDUE_NAME>  (1727) 
GLU   LYS

>  <FRAG_NAME>  (1727) 
ACET   PRPA

>  <FRAG_ATOM_NUM>  (1727) 
fragi: 7  fragj: 11

>  <atom.prop.CHAIN_ID>  (1727) 
A A A A A A A Z Z Z Z Z Z Z Z Z Z Z

>  <atom.prop.IS_HEAVY_ATOM>  (1727) 
1 0 0 0 1 1 1 1 0 0 0 1 0 0 1 0 0 0

>  <DIFUSE_FUNC_ATOM>  (1727) 
atom 6   atom 7   

>  <FINAL_SINGLE_POINT_ENERGY>  (1727) 
0

>  <NONCOV_INTER_ENERGY_QM>  (1727) 
0

>  <FF_Energy>  (1727) 
38.03

>  <QM_Energy>  (1727) 
5.79

>  <source>  (1727) 
ACET_PRPA_20

>  <Index>  (1727) 
33834

$$$$
ACET-pdb3vc7-A-GLU-41:PRPA-pdb3vc7-A-ARG-59
     RDKit          3D

 18 16  0  0  0  0  0  0  0  0999 V2000
   -0.0030    1.5366    0.0113 C   0  0  0  0  0  0  0  0  0  0  0  0
    0.2168    1.8316   -0.9042 H   0  0  0  0  0  0  0  0  0  0  0  0
    0.6851    1.8198    0.6592 H   0  0  0  0  0  0  0  0  0  0  0  0
   -0.9568    1.9791    0.2985 H   0  0  0  0  0  0  0  0  0  0  0  0
    0.0000    0.0000    0.0000 C   0  0  0  0  0  0  0  0  0  0  0  0
   -1.0924   -0.5892   -0.0000 O   0  0  0  0  0  1  0  0  0  0  0  0
    1.0924   -0.6110    0.0000 O   0  0  0  0  0  0  0  0  0  0  0  0
    3.7619    3.2899    1.6127 C   0  0  0  0  0  0  0  0  0  0  0  0
    3.1404    4.0669    1.5739 H   0  0  0  0  0  0  0  0  0  0  0  0
    4.3693    3.2999    0.8237 H   0  0  0  0  0  0  0  0  0  0  0  0
    4.3697    3.3834    2.5126 H   0  0  0  0  0  0  0  0  0  0  0  0
    2.9332    2.0193    1.5539 C   0  0  0  0  0  0  0  0  0  0  0  0
    2.4884    1.8692    2.4379 H   0  0  0  0  0  0  0  0  0  0  0  0
    2.2350    2.1093    0.8426 H   0  0  0  0  0  0  0  0  0  0  0  0
    3.7721    0.7889    1.2353 C   0  0  0  0  0  0  0  0  0  0  0  0
    4.4498    0.6809    1.9607 H   0  0  0  0  0  0  0  0  0  0  0  0
    3.1637   -0.0030    1.2199 H   0  0  0  0  0  0  0  0  0  0  0  0
    4.2833    0.8673    0.2758 H   0  0  0  0  0  0  0  0  0  0  0  0
  1  5  1  0
  5  6  1  0
  5  7  2  0
  1  2  1  0
  1  3  1  0
  1  4  1  0
  8 12  1  0
 12 15  1  0
  8  9  1  0
  8 10  1  0
  8 11  1  0
 12 13  1  0
 12 14  1  0
 15 16  1  0
 15 17  1  0
 15 18  1  0
M  CHG  1   6  -1
M  END
>  <PDB_ID>  (1728) 
pdb3vc7

>  <RESIDUE_NAME>  (1728) 
GLU   ARG

>  <FRAG_NAME>  (1728) 
ACET   PRPA

>  <FRAG_ATOM_NUM>  (1728) 
fragi: 7  fragj: 11

>  <atom.prop.CHAIN_ID>  (1728) 
A A A A A A A Z Z Z Z Z Z Z Z Z Z Z

>  <atom.prop.IS_HEAVY_ATOM>  (1728) 
1 0 0 0 1 1 1 1 0 0 0 1 0 0 1 0 0 0

>  <DIFUSE_FUNC_ATOM>  (1728) 
atom 6   atom 7   

>  <FINAL_SINGLE_POINT_ENERGY>  (1728) 
0

>  <NONCOV_INTER_ENERGY_QM>  (1728) 
0

>  <FF_Energy>  (1728) 
16.23

>  <QM_Energy>  (1728) 
0.48

>  <source>  (1728) 
ACET_PRPA_20

>  <Index>  (1728) 
34259

$$$$
ACET-pdb4wen-A-ASP-153:PRPA-pdb4wen-A-ARG-212
     RDKit          3D

 18 16  0  0  0  0  0  0  0  0999 V2000
   -0.0658    1.5767   -0.1889 C   0  0  0  0  0  0  0  0  0  0  0  0
    0.8531    1.9128   -0.1430 H   0  0  0  0  0  0  0  0  0  0  0  0
   -0.6361    1.9313    0.5236 H   0  0  0  0  0  0  0  0  0  0  0  0
   -0.4936    1.8478   -1.1541 H   0  0  0  0  0  0  0  0  0  0  0  0
    0.0000    0.0000    0.0000 C   0  0  0  0  0  0  0  0  0  0  0  0
   -1.0735   -0.6089    0.0000 O   0  0  0  0  0  1  0  0  0  0  0  0
    1.0735   -0.6666   -0.0000 O   0  0  0  0  0  0  0  0  0  0  0  0
   -4.3266   -3.3588    0.7286 C   0  0  0  0  0  0  0  0  0  0  0  0
   -4.0631   -4.2920    1.0592 H   0  0  0  0  0  0  0  0  0  0  0  0
   -4.3782   -3.4312   -0.2919 H   0  0  0  0  0  0  0  0  0  0  0  0
   -5.3337   -3.1565    1.0931 H   0  0  0  0  0  0  0  0  0  0  0  0
   -3.2281   -2.4203    1.0694 C   0  0  0  0  0  0  0  0  0  0  0  0
   -3.3316   -1.5584    0.6030 H   0  0  0  0  0  0  0  0  0  0  0  0
   -3.1429   -2.3029    2.0446 H   0  0  0  0  0  0  0  0  0  0  0  0
   -1.8615   -3.0288    0.5767 C   0  0  0  0  0  0  0  0  0  0  0  0
   -2.0377   -3.3607   -0.3184 H   0  0  0  0  0  0  0  0  0  0  0  0
   -1.2269   -2.2949    0.6157 H   0  0  0  0  0  0  0  0  0  0  0  0
   -1.6685   -3.8150    1.3067 H   0  0  0  0  0  0  0  0  0  0  0  0
  1  5  1  0
  5  6  1  0
  5  7  2  0
  1  2  1  0
  1  3  1  0
  1  4  1  0
  8 12  1  0
 12 15  1  0
  8  9  1  0
  8 10  1  0
  8 11  1  0
 12 13  1  0
 12 14  1  0
 15 16  1  0
 15 17  1  0
 15 18  1  0
M  CHG  1   6  -1
M  END
>  <PDB_ID>  (1729) 
pdb4wen

>  <RESIDUE_NAME>  (1729) 
ASP   ARG

>  <FRAG_NAME>  (1729) 
ACET   PRPA

>  <FRAG_ATOM_NUM>  (1729) 
fragi: 7  fragj: 11

>  <atom.prop.CHAIN_ID>  (1729) 
A A A A A A A Z Z Z Z Z Z Z Z Z Z Z

>  <atom.prop.IS_HEAVY_ATOM>  (1729) 
1 0 0 0 1 1 1 1 0 0 0 1 0 0 1 0 0 0

>  <DIFUSE_FUNC_ATOM>  (1729) 
atom 6   atom 7   

>  <FINAL_SINGLE_POINT_ENERGY>  (1729) 
0

>  <NONCOV_INTER_ENERGY_QM>  (1729) 
0

>  <FF_Energy>  (1729) 
31.82

>  <QM_Energy>  (1729) 
1.18

>  <source>  (1729) 
ACET_PRPA_20

>  <Index>  (1729) 
36067

$$$$
ACET-pdb4w9u-A-GLU-229:PRPA-pdb4w9u-A-ARG-162
     RDKit          3D

 18 16  0  0  0  0  0  0  0  0999 V2000
    0.1736    1.4840    0.0133 C   0  0  0  0  0  0  0  0  0  0  0  0
    0.6934    1.7402   -0.8037 H   0  0  0  0  0  0  0  0  0  0  0  0
    0.7045    1.7227    0.8288 H   0  0  0  0  0  0  0  0  0  0  0  0
   -0.7363    2.0840    0.0253 H   0  0  0  0  0  0  0  0  0  0  0  0
    0.0000    0.0000    0.0000 C   0  0  0  0  0  0  0  0  0  0  0  0
   -1.0895   -0.5576   -0.0000 O   0  0  0  0  0  1  0  0  0  0  0  0
    1.0895   -0.6076   -0.0000 O   0  0  0  0  0  0  0  0  0  0  0  0
    1.9354    4.8484   -2.7855 C   0  0  0  0  0  0  0  0  0  0  0  0
    1.2952    4.8630   -2.0197 H   0  0  0  0  0  0  0  0  0  0  0  0
    1.3787    4.9767   -3.7138 H   0  0  0  0  0  0  0  0  0  0  0  0
    2.6326    5.6796   -2.6801 H   0  0  0  0  0  0  0  0  0  0  0  0
    2.6911    3.5181   -2.7542 C   0  0  0  0  0  0  0  0  0  0  0  0
    3.3434    3.5112   -3.5118 H   0  0  0  0  0  0  0  0  0  0  0  0
    3.1861    3.4606   -1.8875 H   0  0  0  0  0  0  0  0  0  0  0  0
    1.8170    2.2742   -2.8771 C   0  0  0  0  0  0  0  0  0  0  0  0
    1.1645    2.2624   -2.1200 H   0  0  0  0  0  0  0  0  0  0  0  0
    1.3213    2.3123   -3.7448 H   0  0  0  0  0  0  0  0  0  0  0  0
    2.4111    1.3607   -2.8485 H   0  0  0  0  0  0  0  0  0  0  0  0
  1  5  1  0
  5  6  1  0
  5  7  2  0
  1  2  1  0
  1  3  1  0
  1  4  1  0
  8 12  1  0
 12 15  1  0
  8  9  1  0
  8 10  1  0
  8 11  1  0
 12 13  1  0
 12 14  1  0
 15 16  1  0
 15 17  1  0
 15 18  1  0
M  CHG  1   6  -1
M  END
>  <PDB_ID>  (1730) 
pdb4w9u

>  <RESIDUE_NAME>  (1730) 
GLU   ARG

>  <FRAG_NAME>  (1730) 
ACET   PRPA

>  <FRAG_ATOM_NUM>  (1730) 
fragi: 7  fragj: 11

>  <atom.prop.CHAIN_ID>  (1730) 
A A A A A A A Z Z Z Z Z Z Z Z Z Z Z

>  <atom.prop.IS_HEAVY_ATOM>  (1730) 
1 0 0 0 1 1 1 1 0 0 0 1 0 0 1 0 0 0

>  <DIFUSE_FUNC_ATOM>  (1730) 
atom 6   atom 7   

>  <FINAL_SINGLE_POINT_ENERGY>  (1730) 
0

>  <NONCOV_INTER_ENERGY_QM>  (1730) 
0

>  <FF_Energy>  (1730) 
27.61

>  <QM_Energy>  (1730) 
3.19

>  <source>  (1730) 
ACET_PRPA_20

>  <Index>  (1730) 
37006

$$$$
ACET-pdb4wny-A-GLU-94:PRPA-pdb4wny-A-GLU-90
     RDKit          3D

 18 16  0  0  0  0  0  0  0  0999 V2000
    0.0019    1.5160   -0.0136 C   0  0  0  0  0  0  0  0  0  0  0  0
    0.8002    1.8156    0.4702 H   0  0  0  0  0  0  0  0  0  0  0  0
   -0.8307    1.8166    0.4095 H   0  0  0  0  0  0  0  0  0  0  0  0
    0.0409    1.9165   -1.0266 H   0  0  0  0  0  0  0  0  0  0  0  0
    0.0000    0.0000    0.0000 C   0  0  0  0  0  0  0  0  0  0  0  0
   -1.0980   -0.5963   -0.0000 O   0  0  0  0  0  1  0  0  0  0  0  0
    1.0980   -0.5964    0.0000 O   0  0  0  0  0  0  0  0  0  0  0  0
   -4.4558    2.0320   -1.2001 C   0  0  0  0  0  0  0  0  0  0  0  0
   -5.1260    1.4102   -0.7788 H   0  0  0  0  0  0  0  0  0  0  0  0
   -3.8355    1.4790   -1.9054 H   0  0  0  0  0  0  0  0  0  0  0  0
   -4.9825    2.8479   -1.6951 H   0  0  0  0  0  0  0  0  0  0  0  0
   -3.6106    2.5760   -0.0460 C   0  0  0  0  0  0  0  0  0  0  0  0
   -2.9310    3.1979   -0.4409 H   0  0  0  0  0  0  0  0  0  0  0  0
   -4.2220    3.0940    0.5545 H   0  0  0  0  0  0  0  0  0  0  0  0
   -2.8594    1.5816    0.8256 C   0  0  0  0  0  0  0  0  0  0  0  0
   -3.5332    0.9602    1.2261 H   0  0  0  0  0  0  0  0  0  0  0  0
   -2.2426    1.0627    0.2317 H   0  0  0  0  0  0  0  0  0  0  0  0
   -2.2652    1.9976    1.6392 H   0  0  0  0  0  0  0  0  0  0  0  0
  1  5  1  0
  5  6  1  0
  5  7  2  0
  1  2  1  0
  1  3  1  0
  1  4  1  0
  8 12  1  0
 12 15  1  0
  8  9  1  0
  8 10  1  0
  8 11  1  0
 12 13  1  0
 12 14  1  0
 15 16  1  0
 15 17  1  0
 15 18  1  0
M  CHG  1   6  -1
M  END
>  <PDB_ID>  (1731) 
pdb4wny

>  <RESIDUE_NAME>  (1731) 
GLU   GLU

>  <FRAG_NAME>  (1731) 
ACET   PRPA

>  <FRAG_ATOM_NUM>  (1731) 
fragi: 7  fragj: 11

>  <atom.prop.CHAIN_ID>  (1731) 
A A A A A A A Z Z Z Z Z Z Z Z Z Z Z

>  <atom.prop.IS_HEAVY_ATOM>  (1731) 
1 0 0 0 1 1 1 1 0 0 0 1 0 0 1 0 0 0

>  <DIFUSE_FUNC_ATOM>  (1731) 
atom 6   atom 7   

>  <FINAL_SINGLE_POINT_ENERGY>  (1731) 
0

>  <NONCOV_INTER_ENERGY_QM>  (1731) 
0

>  <FF_Energy>  (1731) 
35.94

>  <QM_Energy>  (1731) 
6.76

>  <source>  (1731) 
ACET_PRPA_20

>  <Index>  (1731) 
37690

$$$$
ACET-pdb4wec-A-ASP-201:PRPA-pdb4wec-A-ARG-204
     RDKit          3D

 18 16  0  0  0  0  0  0  0  0999 V2000
    0.0146    1.5169    0.0058 C   0  0  0  0  0  0  0  0  0  0  0  0
    0.5795    1.8335   -0.7489 H   0  0  0  0  0  0  0  0  0  0  0  0
    0.3865    1.8304    0.8722 H   0  0  0  0  0  0  0  0  0  0  0  0
   -0.9780    1.9518   -0.1114 H   0  0  0  0  0  0  0  0  0  0  0  0
    0.0000    0.0000    0.0000 C   0  0  0  0  0  0  0  0  0  0  0  0
   -1.0980   -0.5966    0.0000 O   0  0  0  0  0  1  0  0  0  0  0  0
    1.0980   -0.5963   -0.0000 O   0  0  0  0  0  0  0  0  0  0  0  0
   -0.3219   -1.5490    3.9886 C   0  0  0  0  0  0  0  0  0  0  0  0
   -0.1549   -2.4938    4.2869 H   0  0  0  0  0  0  0  0  0  0  0  0
   -1.1993   -1.5333    3.3421 H   0  0  0  0  0  0  0  0  0  0  0  0
   -0.4887   -0.9294    4.8697 H   0  0  0  0  0  0  0  0  0  0  0  0
    0.9185   -1.0698    3.2330 C   0  0  0  0  0  0  0  0  0  0  0  0
    0.7555   -0.1292    2.9303 H   0  0  0  0  0  0  0  0  0  0  0  0
    1.6941   -1.0816    3.8668 H   0  0  0  0  0  0  0  0  0  0  0  0
    1.3027   -1.8937    2.0108 C   0  0  0  0  0  0  0  0  0  0  0  0
    1.4788   -2.8362    2.2979 H   0  0  0  0  0  0  0  0  0  0  0  0
    0.5398   -1.8829    1.3615 H   0  0  0  0  0  0  0  0  0  0  0  0
    2.1923   -1.5001    1.5190 H   0  0  0  0  0  0  0  0  0  0  0  0
  1  5  1  0
  5  6  1  0
  5  7  2  0
  1  2  1  0
  1  3  1  0
  1  4  1  0
  8 12  1  0
 12 15  1  0
  8  9  1  0
  8 10  1  0
  8 11  1  0
 12 13  1  0
 12 14  1  0
 15 16  1  0
 15 17  1  0
 15 18  1  0
M  CHG  1   6  -1
M  END
>  <PDB_ID>  (1732) 
pdb4wec

>  <RESIDUE_NAME>  (1732) 
ASP   ARG

>  <FRAG_NAME>  (1732) 
ACET   PRPA

>  <FRAG_ATOM_NUM>  (1732) 
fragi: 7  fragj: 11

>  <atom.prop.CHAIN_ID>  (1732) 
A A A A A A A Z Z Z Z Z Z Z Z Z Z Z

>  <atom.prop.IS_HEAVY_ATOM>  (1732) 
1 0 0 0 1 1 1 1 0 0 0 1 0 0 1 0 0 0

>  <DIFUSE_FUNC_ATOM>  (1732) 
atom 6   atom 7   

>  <FINAL_SINGLE_POINT_ENERGY>  (1732) 
0

>  <NONCOV_INTER_ENERGY_QM>  (1732) 
0

>  <FF_Energy>  (1732) 
32.65

>  <QM_Energy>  (1732) 
8.06

>  <source>  (1732) 
ACET_PRPA_20

>  <Index>  (1732) 
38803

$$$$
ACET-pdb3vvv-A-ASP-80:PRPA-pdb3vvv-A-LYS-87
     RDKit          3D

 18 16  0  0  0  0  0  0  0  0999 V2000
   -0.0073    1.5219    0.0005 C   0  0  0  0  0  0  0  0  0  0  0  0
    0.8760    1.8440   -0.3172 H   0  0  0  0  0  0  0  0  0  0  0  0
   -0.1856    1.8387    0.9231 H   0  0  0  0  0  0  0  0  0  0  0  0
   -0.7739    1.9366   -0.6540 H   0  0  0  0  0  0  0  0  0  0  0  0
    0.0000    0.0000    0.0000 C   0  0  0  0  0  0  0  0  0  0  0  0
   -1.0982   -0.5964   -0.0000 O   0  0  0  0  0  1  0  0  0  0  0  0
    1.0982   -0.5986   -0.0000 O   0  0  0  0  0  0  0  0  0  0  0  0
    5.2932   -0.0941   -0.1561 C   0  0  0  0  0  0  0  0  0  0  0  0
    4.9597    0.6908   -0.6733 H   0  0  0  0  0  0  0  0  0  0  0  0
    5.0630   -0.9381   -0.6375 H   0  0  0  0  0  0  0  0  0  0  0  0
    6.3795   -0.0243   -0.1009 H   0  0  0  0  0  0  0  0  0  0  0  0
    4.5994   -0.1076    1.1992 C   0  0  0  0  0  0  0  0  0  0  0  0
    4.9264   -0.8941    1.7242 H   0  0  0  0  0  0  0  0  0  0  0  0
    4.8223    0.7358    1.6877 H   0  0  0  0  0  0  0  0  0  0  0  0
    3.0909   -0.2076    1.0492 C   0  0  0  0  0  0  0  0  0  0  0  0
    2.7676    0.5780    0.5217 H   0  0  0  0  0  0  0  0  0  0  0  0
    2.8718   -1.0518    0.5596 H   0  0  0  0  0  0  0  0  0  0  0  0
    2.5757   -0.2183    2.0098 H   0  0  0  0  0  0  0  0  0  0  0  0
  1  5  1  0
  5  6  1  0
  5  7  2  0
  1  2  1  0
  1  3  1  0
  1  4  1  0
  8 12  1  0
 12 15  1  0
  8  9  1  0
  8 10  1  0
  8 11  1  0
 12 13  1  0
 12 14  1  0
 15 16  1  0
 15 17  1  0
 15 18  1  0
M  CHG  1   6  -1
M  END
>  <PDB_ID>  (1733) 
pdb3vvv

>  <RESIDUE_NAME>  (1733) 
ASP   LYS

>  <FRAG_NAME>  (1733) 
ACET   PRPA

>  <FRAG_ATOM_NUM>  (1733) 
fragi: 7  fragj: 11

>  <atom.prop.CHAIN_ID>  (1733) 
A A A A A A A Z Z Z Z Z Z Z Z Z Z Z

>  <atom.prop.IS_HEAVY_ATOM>  (1733) 
1 0 0 0 1 1 1 1 0 0 0 1 0 0 1 0 0 0

>  <DIFUSE_FUNC_ATOM>  (1733) 
atom 6   atom 7   

>  <FINAL_SINGLE_POINT_ENERGY>  (1733) 
0

>  <NONCOV_INTER_ENERGY_QM>  (1733) 
0

>  <FF_Energy>  (1733) 
47.39

>  <QM_Energy>  (1733) 
13.33

>  <source>  (1733) 
ACET_PRPA_21

>  <Index>  (1733) 
2121

$$$$
ACET-pdb3vvv-A-ASP-80:PRPA-pdb3vvv-A-LYS-87
     RDKit          3D

 18 16  0  0  0  0  0  0  0  0999 V2000
   -0.0073    1.5219    0.0005 C   0  0  0  0  0  0  0  0  0  0  0  0
    0.8760    1.8440   -0.3172 H   0  0  0  0  0  0  0  0  0  0  0  0
   -0.1856    1.8387    0.9231 H   0  0  0  0  0  0  0  0  0  0  0  0
   -0.7739    1.9366   -0.6540 H   0  0  0  0  0  0  0  0  0  0  0  0
    0.0000    0.0000    0.0000 C   0  0  0  0  0  0  0  0  0  0  0  0
   -1.0982   -0.5964   -0.0000 O   0  0  0  0  0  1  0  0  0  0  0  0
    1.0982   -0.5986   -0.0000 O   0  0  0  0  0  0  0  0  0  0  0  0
    4.5994   -0.1076    1.1992 C   0  0  0  0  0  0  0  0  0  0  0  0
    4.9264   -0.8941    1.7242 H   0  0  0  0  0  0  0  0  0  0  0  0
    4.8223    0.7358    1.6877 H   0  0  0  0  0  0  0  0  0  0  0  0
    5.0960   -0.0980    0.2290 H   0  0  0  0  0  0  0  0  0  0  0  0
    3.0909   -0.2076    1.0492 C   0  0  0  0  0  0  0  0  0  0  0  0
    2.7676    0.5780    0.5217 H   0  0  0  0  0  0  0  0  0  0  0  0
    2.8718   -1.0518    0.5596 H   0  0  0  0  0  0  0  0  0  0  0  0
    2.3759   -0.2225    2.3825 C   0  0  0  0  0  0  0  0  0  0  0  0
    2.6908   -1.0083    2.9143 H   0  0  0  0  0  0  0  0  0  0  0  0
    2.5871    0.6199    2.8778 H   0  0  0  0  0  0  0  0  0  0  0  0
    1.2976   -0.2943    2.2397 H   0  0  0  0  0  0  0  0  0  0  0  0
  1  5  1  0
  5  6  1  0
  5  7  2  0
  1  2  1  0
  1  3  1  0
  1  4  1  0
  8 12  1  0
 12 15  1  0
  8  9  1  0
  8 10  1  0
  8 11  1  0
 12 13  1  0
 12 14  1  0
 15 16  1  0
 15 17  1  0
 15 18  1  0
M  CHG  1   6  -1
M  END
>  <PDB_ID>  (1734) 
pdb3vvv

>  <RESIDUE_NAME>  (1734) 
ASP   LYS

>  <FRAG_NAME>  (1734) 
ACET   PRPA

>  <FRAG_ATOM_NUM>  (1734) 
fragi: 7  fragj: 11

>  <atom.prop.CHAIN_ID>  (1734) 
A A A A A A A Z Z Z Z Z Z Z Z Z Z Z

>  <atom.prop.IS_HEAVY_ATOM>  (1734) 
1 0 0 0 1 1 1 1 0 0 0 1 0 0 1 0 0 0

>  <DIFUSE_FUNC_ATOM>  (1734) 
atom 6   atom 7   

>  <FINAL_SINGLE_POINT_ENERGY>  (1734) 
0

>  <NONCOV_INTER_ENERGY_QM>  (1734) 
0

>  <FF_Energy>  (1734) 
47.4

>  <QM_Energy>  (1734) 
13.15

>  <source>  (1734) 
ACET_PRPA_21

>  <Index>  (1734) 
2123

$$$$
ACET-pdb3vvw-A-GLU-112:PRPA-pdb3vvw-A-LYS-53
     RDKit          3D

 18 16  0  0  0  0  0  0  0  0999 V2000
    0.0088    1.5119    0.0179 C   0  0  0  0  0  0  0  0  0  0  0  0
    0.5306    1.8166   -0.7602 H   0  0  0  0  0  0  0  0  0  0  0  0
    0.4168    1.7971    0.8680 H   0  0  0  0  0  0  0  0  0  0  0  0
   -0.9888    1.9462   -0.0479 H   0  0  0  0  0  0  0  0  0  0  0  0
    0.0000    0.0000    0.0000 C   0  0  0  0  0  0  0  0  0  0  0  0
   -1.1017   -0.5907    0.0000 O   0  0  0  0  0  1  0  0  0  0  0  0
    1.1017   -0.5960   -0.0000 O   0  0  0  0  0  0  0  0  0  0  0  0
    3.5537    1.5946   -1.5921 C   0  0  0  0  0  0  0  0  0  0  0  0
    4.3714    1.6100   -2.1706 H   0  0  0  0  0  0  0  0  0  0  0  0
    3.6455    0.7889   -0.8638 H   0  0  0  0  0  0  0  0  0  0  0  0
    3.4775    2.5514   -1.0756 H   0  0  0  0  0  0  0  0  0  0  0  0
    2.3481    1.3776   -2.5055 C   0  0  0  0  0  0  0  0  0  0  0  0
    1.5216    1.4453   -1.9495 H   0  0  0  0  0  0  0  0  0  0  0  0
    2.3486    2.1012   -3.1951 H   0  0  0  0  0  0  0  0  0  0  0  0
    2.3457    0.0416   -3.2094 C   0  0  0  0  0  0  0  0  0  0  0  0
    2.6039   -0.6753   -2.5552 H   0  0  0  0  0  0  0  0  0  0  0  0
    1.4220   -0.1488   -3.5520 H   0  0  0  0  0  0  0  0  0  0  0  0
    3.0439    0.0244   -4.0463 H   0  0  0  0  0  0  0  0  0  0  0  0
  1  5  1  0
  5  6  1  0
  5  7  2  0
  1  2  1  0
  1  3  1  0
  1  4  1  0
  8 12  1  0
 12 15  1  0
  8  9  1  0
  8 10  1  0
  8 11  1  0
 12 13  1  0
 12 14  1  0
 15 16  1  0
 15 17  1  0
 15 18  1  0
M  CHG  1   6  -1
M  END
>  <PDB_ID>  (1735) 
pdb3vvw

>  <RESIDUE_NAME>  (1735) 
GLU   LYS

>  <FRAG_NAME>  (1735) 
ACET   PRPA

>  <FRAG_ATOM_NUM>  (1735) 
fragi: 7  fragj: 11

>  <atom.prop.CHAIN_ID>  (1735) 
A A A A A A A Z Z Z Z Z Z Z Z Z Z Z

>  <atom.prop.IS_HEAVY_ATOM>  (1735) 
1 0 0 0 1 1 1 1 0 0 0 1 0 0 1 0 0 0

>  <DIFUSE_FUNC_ATOM>  (1735) 
atom 6   atom 7   

>  <FINAL_SINGLE_POINT_ENERGY>  (1735) 
0

>  <NONCOV_INTER_ENERGY_QM>  (1735) 
0

>  <FF_Energy>  (1735) 
15.09

>  <QM_Energy>  (1735) 
-1.31

>  <source>  (1735) 
ACET_PRPA_21

>  <Index>  (1735) 
2530

$$$$
ACET-pdb3vpb-A-GLU-23:PRPA-pdb3vpb-A-LYS-19
     RDKit          3D

 18 16  0  0  0  0  0  0  0  0999 V2000
    0.0220    1.5297    0.0221 C   0  0  0  0  0  0  0  0  0  0  0  0
    0.4730    1.8233   -0.7996 H   0  0  0  0  0  0  0  0  0  0  0  0
    0.5062    1.7992    0.8324 H   0  0  0  0  0  0  0  0  0  0  0  0
   -0.9778    1.9630    0.0479 H   0  0  0  0  0  0  0  0  0  0  0  0
    0.0000    0.0000    0.0000 C   0  0  0  0  0  0  0  0  0  0  0  0
   -1.0886   -0.6175   -0.0000 O   0  0  0  0  0  1  0  0  0  0  0  0
    1.0886   -0.5955    0.0000 O   0  0  0  0  0  0  0  0  0  0  0  0
    2.3245   -0.5121    3.0151 C   0  0  0  0  0  0  0  0  0  0  0  0
    2.6792   -1.4406    2.8651 H   0  0  0  0  0  0  0  0  0  0  0  0
    1.4042   -0.4524    2.6164 H   0  0  0  0  0  0  0  0  0  0  0  0
    2.2637   -0.3216    4.0866 H   0  0  0  0  0  0  0  0  0  0  0  0
    3.2346    0.4776    2.2870 C   0  0  0  0  0  0  0  0  0  0  0  0
    2.8012    1.3632    2.2720 H   0  0  0  0  0  0  0  0  0  0  0  0
    4.1096    0.5057    2.7397 H   0  0  0  0  0  0  0  0  0  0  0  0
    3.4573    0.0224    0.8317 C   0  0  0  0  0  0  0  0  0  0  0  0
    4.3763   -0.3748    0.7605 H   0  0  0  0  0  0  0  0  0  0  0  0
    2.7804   -0.6859    0.6131 H   0  0  0  0  0  0  0  0  0  0  0  0
    3.3635    0.8418    0.1190 H   0  0  0  0  0  0  0  0  0  0  0  0
  1  5  1  0
  5  6  1  0
  5  7  2  0
  1  2  1  0
  1  3  1  0
  1  4  1  0
  8 12  1  0
 12 15  1  0
  8  9  1  0
  8 10  1  0
  8 11  1  0
 12 13  1  0
 12 14  1  0
 15 16  1  0
 15 17  1  0
 15 18  1  0
M  CHG  1   6  -1
M  END
>  <PDB_ID>  (1736) 
pdb3vpb

>  <RESIDUE_NAME>  (1736) 
GLU   LYS

>  <FRAG_NAME>  (1736) 
ACET   PRPA

>  <FRAG_ATOM_NUM>  (1736) 
fragi: 7  fragj: 11

>  <atom.prop.CHAIN_ID>  (1736) 
A A A A A A A Z Z Z Z Z Z Z Z Z Z Z

>  <atom.prop.IS_HEAVY_ATOM>  (1736) 
1 0 0 0 1 1 1 1 0 0 0 1 0 0 1 0 0 0

>  <DIFUSE_FUNC_ATOM>  (1736) 
atom 6   atom 7   

>  <FINAL_SINGLE_POINT_ENERGY>  (1736) 
0

>  <NONCOV_INTER_ENERGY_QM>  (1736) 
0

>  <FF_Energy>  (1736) 
31.81

>  <QM_Energy>  (1736) 
3.62

>  <source>  (1736) 
ACET_PRPA_21

>  <Index>  (1736) 
2537

$$$$
ACET-pdb4wyi-A-GLU-336:PRPA-pdb4wyi-A-PRO-333
     RDKit          3D

 18 16  0  0  0  0  0  0  0  0999 V2000
    0.0172    1.5206    0.0585 C   0  0  0  0  0  0  0  0  0  0  0  0
    0.6102    1.8357   -0.6412 H   0  0  0  0  0  0  0  0  0  0  0  0
    0.3677    1.7784    0.9250 H   0  0  0  0  0  0  0  0  0  0  0  0
   -0.9590    1.9865   -0.0757 H   0  0  0  0  0  0  0  0  0  0  0  0
    0.0000    0.0000    0.0000 C   0  0  0  0  0  0  0  0  0  0  0  0
   -1.0888   -0.6140   -0.0000 O   0  0  0  0  0  1  0  0  0  0  0  0
    1.0888   -0.5961   -0.0000 O   0  0  0  0  0  0  0  0  0  0  0  0
   -1.3073    0.2520    4.0305 C   0  0  0  0  0  0  0  0  0  0  0  0
   -0.8519    0.9019    3.4717 H   0  0  0  0  0  0  0  0  0  0  0  0
   -0.9057    0.2125    4.9126 H   0  0  0  0  0  0  0  0  0  0  0  0
   -2.3618    0.5139    4.1164 H   0  0  0  0  0  0  0  0  0  0  0  0
   -1.3051   -1.0838    3.3918 C   0  0  0  0  0  0  0  0  0  0  0  0
   -0.4675   -1.2188    2.9215 H   0  0  0  0  0  0  0  0  0  0  0  0
   -1.4324   -1.7684    4.0680 H   0  0  0  0  0  0  0  0  0  0  0  0
   -2.4499   -1.0715    2.4341 C   0  0  0  0  0  0  0  0  0  0  0  0
   -2.1683   -0.7278    1.5716 H   0  0  0  0  0  0  0  0  0  0  0  0
   -2.8376   -1.9575    2.3566 H   0  0  0  0  0  0  0  0  0  0  0  0
   -3.1535   -0.3865    2.9071 H   0  0  0  0  0  0  0  0  0  0  0  0
  1  5  1  0
  5  6  1  0
  5  7  2  0
  1  2  1  0
  1  3  1  0
  1  4  1  0
  8 12  1  0
 12 15  1  0
  8  9  1  0
  8 10  1  0
  8 11  1  0
 12 13  1  0
 12 14  1  0
 15 16  1  0
 15 17  1  0
 15 18  1  0
M  CHG  1   6  -1
M  END
>  <PDB_ID>  (1737) 
pdb4wyi

>  <RESIDUE_NAME>  (1737) 
GLU   PRO

>  <FRAG_NAME>  (1737) 
ACET   PRPA

>  <FRAG_ATOM_NUM>  (1737) 
fragi: 7  fragj: 11

>  <atom.prop.CHAIN_ID>  (1737) 
A A A A A A A Z Z Z Z Z Z Z Z Z Z Z

>  <atom.prop.IS_HEAVY_ATOM>  (1737) 
1 0 0 0 1 1 1 1 0 0 0 1 0 0 1 0 0 0

>  <DIFUSE_FUNC_ATOM>  (1737) 
atom 6   atom 7   

>  <FINAL_SINGLE_POINT_ENERGY>  (1737) 
0

>  <NONCOV_INTER_ENERGY_QM>  (1737) 
0

>  <FF_Energy>  (1737) 
13.05

>  <QM_Energy>  (1737) 
-2.42

>  <source>  (1737) 
ACET_PRPA_21

>  <Index>  (1737) 
4123

$$$$
ACET-pdb3w06-A-ASP-83:PRPA-pdb3w06-A-GLH-5
     RDKit          3D

 18 16  0  0  0  0  0  0  0  0999 V2000
    0.0032    1.5312    0.0709 C   0  0  0  0  0  0  0  0  0  0  0  0
    0.3264    1.8022    0.9722 H   0  0  0  0  0  0  0  0  0  0  0  0
   -0.9267    1.8537   -0.0731 H   0  0  0  0  0  0  0  0  0  0  0  0
    0.6454    2.0002   -0.6745 H   0  0  0  0  0  0  0  0  0  0  0  0
    0.0000    0.0000    0.0000 C   0  0  0  0  0  0  0  0  0  0  0  0
   -1.0944   -0.6220   -0.0000 O   0  0  0  0  0  1  0  0  0  0  0  0
    1.0944   -0.6160   -0.0000 O   0  0  0  0  0  0  0  0  0  0  0  0
   -4.6851   -2.2334    2.5687 C   0  0  0  0  0  0  0  0  0  0  0  0
   -5.1035   -1.3245    2.6601 H   0  0  0  0  0  0  0  0  0  0  0  0
   -3.7392   -2.2754    3.1087 H   0  0  0  0  0  0  0  0  0  0  0  0
   -5.3825   -2.9755    2.9574 H   0  0  0  0  0  0  0  0  0  0  0  0
   -4.4042   -2.2919    1.0564 C   0  0  0  0  0  0  0  0  0  0  0  0
   -4.3643   -3.2448    0.7943 H   0  0  0  0  0  0  0  0  0  0  0  0
   -5.1413   -1.8220    0.5947 H   0  0  0  0  0  0  0  0  0  0  0  0
   -3.0868   -1.6382    0.5905 C   0  0  0  0  0  0  0  0  0  0  0  0
   -2.3397   -2.0966    1.0590 H   0  0  0  0  0  0  0  0  0  0  0  0
   -3.0133   -1.7698   -0.3922 H   0  0  0  0  0  0  0  0  0  0  0  0
   -2.9836   -0.5702    0.7826 H   0  0  0  0  0  0  0  0  0  0  0  0
  1  5  1  0
  5  6  1  0
  5  7  2  0
  1  2  1  0
  1  3  1  0
  1  4  1  0
  8 12  1  0
 12 15  1  0
  8  9  1  0
  8 10  1  0
  8 11  1  0
 12 13  1  0
 12 14  1  0
 15 16  1  0
 15 17  1  0
 15 18  1  0
M  CHG  1   6  -1
M  END
>  <PDB_ID>  (1738) 
pdb3w06

>  <RESIDUE_NAME>  (1738) 
ASP   GLH

>  <FRAG_NAME>  (1738) 
ACET   PRPA

>  <FRAG_ATOM_NUM>  (1738) 
fragi: 7  fragj: 11

>  <atom.prop.CHAIN_ID>  (1738) 
A A A A A A A Z Z Z Z Z Z Z Z Z Z Z

>  <atom.prop.IS_HEAVY_ATOM>  (1738) 
1 0 0 0 1 1 1 1 0 0 0 1 0 0 1 0 0 0

>  <DIFUSE_FUNC_ATOM>  (1738) 
atom 6   atom 7   

>  <FINAL_SINGLE_POINT_ENERGY>  (1738) 
0

>  <NONCOV_INTER_ENERGY_QM>  (1738) 
0

>  <FF_Energy>  (1738) 
34.55

>  <QM_Energy>  (1738) 
8.53

>  <source>  (1738) 
ACET_PRPA_21

>  <Index>  (1738) 
4743

$$$$
ACET-pdb3vxp-A-GLU-53:PRPA-pdb3vxp-A-PRO-50
     RDKit          3D

 18 16  0  0  0  0  0  0  0  0999 V2000
   -0.0056    1.5192    0.0195 C   0  0  0  0  0  0  0  0  0  0  0  0
    0.7395    1.8258   -0.5388 H   0  0  0  0  0  0  0  0  0  0  0  0
    0.0785    1.8041    0.9543 H   0  0  0  0  0  0  0  0  0  0  0  0
   -0.9286    1.9352   -0.3843 H   0  0  0  0  0  0  0  0  0  0  0  0
    0.0000    0.0000    0.0000 C   0  0  0  0  0  0  0  0  0  0  0  0
   -1.0934   -0.5944   -0.0000 O   0  0  0  0  0  1  0  0  0  0  0  0
    1.0934   -0.6070    0.0000 O   0  0  0  0  0  0  0  0  0  0  0  0
   -3.1849   -2.2596    0.6571 C   0  0  0  0  0  0  0  0  0  0  0  0
   -2.2851   -2.0312    0.2322 H   0  0  0  0  0  0  0  0  0  0  0  0
   -3.0367   -2.7146    1.6365 H   0  0  0  0  0  0  0  0  0  0  0  0
   -3.8328   -1.3831    0.6563 H   0  0  0  0  0  0  0  0  0  0  0  0
   -3.8200   -3.3892   -0.1607 C   0  0  0  0  0  0  0  0  0  0  0  0
   -4.8214   -3.3176   -0.1426 H   0  0  0  0  0  0  0  0  0  0  0  0
   -3.5097   -3.3529   -1.1137 H   0  0  0  0  0  0  0  0  0  0  0  0
   -3.3609   -4.6419    0.5055 C   0  0  0  0  0  0  0  0  0  0  0  0
   -4.0003   -5.3938    0.3230 H   0  0  0  0  0  0  0  0  0  0  0  0
   -2.4499   -4.9031    0.1756 H   0  0  0  0  0  0  0  0  0  0  0  0
   -3.3363   -4.4007    1.5682 H   0  0  0  0  0  0  0  0  0  0  0  0
  1  5  1  0
  5  6  1  0
  5  7  2  0
  1  2  1  0
  1  3  1  0
  1  4  1  0
  8 12  1  0
 12 15  1  0
  8  9  1  0
  8 10  1  0
  8 11  1  0
 12 13  1  0
 12 14  1  0
 15 16  1  0
 15 17  1  0
 15 18  1  0
M  CHG  1   6  -1
M  END
>  <PDB_ID>  (1739) 
pdb3vxp

>  <RESIDUE_NAME>  (1739) 
GLU   PRO

>  <FRAG_NAME>  (1739) 
ACET   PRPA

>  <FRAG_ATOM_NUM>  (1739) 
fragi: 7  fragj: 11

>  <atom.prop.CHAIN_ID>  (1739) 
A A A A A A A Z Z Z Z Z Z Z Z Z Z Z

>  <atom.prop.IS_HEAVY_ATOM>  (1739) 
1 0 0 0 1 1 1 1 0 0 0 1 0 0 1 0 0 0

>  <DIFUSE_FUNC_ATOM>  (1739) 
atom 6   atom 7   

>  <FINAL_SINGLE_POINT_ENERGY>  (1739) 
0

>  <NONCOV_INTER_ENERGY_QM>  (1739) 
0

>  <FF_Energy>  (1739) 
16.53

>  <QM_Energy>  (1739) 
0.49

>  <source>  (1739) 
ACET_PRPA_21

>  <Index>  (1739) 
5572

$$$$
ACET-pdb3vtz-A-GLU-192:PRPA-pdb3vtz-A-LYS-187
     RDKit          3D

 18 16  0  0  0  0  0  0  0  0999 V2000
    0.0346    1.5225    0.0207 C   0  0  0  0  0  0  0  0  0  0  0  0
   -0.1554    1.8320   -0.8895 H   0  0  0  0  0  0  0  0  0  0  0  0
    0.9241    1.7898    0.3340 H   0  0  0  0  0  0  0  0  0  0  0  0
   -0.7140    1.9402    0.6940 H   0  0  0  0  0  0  0  0  0  0  0  0
    0.0000    0.0000    0.0000 C   0  0  0  0  0  0  0  0  0  0  0  0
   -1.1044   -0.6133    0.0000 O   0  0  0  0  0  1  0  0  0  0  0  0
    1.1044   -0.5884   -0.0000 O   0  0  0  0  0  0  0  0  0  0  0  0
    2.3037    0.6277   -3.9237 C   0  0  0  0  0  0  0  0  0  0  0  0
    3.2605    0.7612   -3.7016 H   0  0  0  0  0  0  0  0  0  0  0  0
    1.7418    1.3268   -3.5005 H   0  0  0  0  0  0  0  0  0  0  0  0
    2.1649    0.6373   -5.0048 H   0  0  0  0  0  0  0  0  0  0  0  0
    1.8698   -0.7191   -3.4174 C   0  0  0  0  0  0  0  0  0  0  0  0
    0.8996   -0.7030   -3.2260 H   0  0  0  0  0  0  0  0  0  0  0  0
    2.0915   -1.4118   -4.0878 H   0  0  0  0  0  0  0  0  0  0  0  0
    2.6088   -1.0451   -2.1271 C   0  0  0  0  0  0  0  0  0  0  0  0
    2.2885   -0.4383   -1.4072 H   0  0  0  0  0  0  0  0  0  0  0  0
    2.4352   -1.9935   -1.8837 H   0  0  0  0  0  0  0  0  0  0  0  0
    3.6797   -0.9006   -2.2703 H   0  0  0  0  0  0  0  0  0  0  0  0
  1  5  1  0
  5  6  1  0
  5  7  2  0
  1  2  1  0
  1  3  1  0
  1  4  1  0
  8 12  1  0
 12 15  1  0
  8  9  1  0
  8 10  1  0
  8 11  1  0
 12 13  1  0
 12 14  1  0
 15 16  1  0
 15 17  1  0
 15 18  1  0
M  CHG  1   6  -1
M  END
>  <PDB_ID>  (1740) 
pdb3vtz

>  <RESIDUE_NAME>  (1740) 
GLU   LYS

>  <FRAG_NAME>  (1740) 
ACET   PRPA

>  <FRAG_ATOM_NUM>  (1740) 
fragi: 7  fragj: 11

>  <atom.prop.CHAIN_ID>  (1740) 
A A A A A A A Z Z Z Z Z Z Z Z Z Z Z

>  <atom.prop.IS_HEAVY_ATOM>  (1740) 
1 0 0 0 1 1 1 1 0 0 0 1 0 0 1 0 0 0

>  <DIFUSE_FUNC_ATOM>  (1740) 
atom 6   atom 7   

>  <FINAL_SINGLE_POINT_ENERGY>  (1740) 
0

>  <NONCOV_INTER_ENERGY_QM>  (1740) 
0

>  <FF_Energy>  (1740) 
22.99

>  <QM_Energy>  (1740) 
1.64

>  <source>  (1740) 
ACET_PRPA_21

>  <Index>  (1740) 
5870

$$$$
ACET-pdb4x7q-B-ASP-196:PRPA-pdb4x7q-A-LYS-40
     RDKit          3D

 18 16  0  0  0  0  0  0  0  0999 V2000
    0.0325    1.5034   -0.0668 C   0  0  0  0  0  0  0  0  0  0  0  0
    0.1186    1.7877   -1.0185 H   0  0  0  0  0  0  0  0  0  0  0  0
    0.8083    1.8390    0.4599 H   0  0  0  0  0  0  0  0  0  0  0  0
   -0.8635    1.9768    0.3346 H   0  0  0  0  0  0  0  0  0  0  0  0
    0.0000    0.0000    0.0000 C   0  0  0  0  0  0  0  0  0  0  0  0
   -1.1130   -0.6154   -0.0000 O   0  0  0  0  0  1  0  0  0  0  0  0
    1.1130   -0.5616    0.0000 O   0  0  0  0  0  0  0  0  0  0  0  0
   -4.2051   -1.4703    0.2909 C   0  0  0  0  0  0  0  0  0  0  0  0
   -4.9024   -1.9604   -0.2318 H   0  0  0  0  0  0  0  0  0  0  0  0
   -3.9763   -0.6164   -0.1741 H   0  0  0  0  0  0  0  0  0  0  0  0
   -4.5999   -1.2414    1.2808 H   0  0  0  0  0  0  0  0  0  0  0  0
   -2.9576   -2.3357    0.3784 C   0  0  0  0  0  0  0  0  0  0  0  0
   -2.2642   -1.8446    0.9043 H   0  0  0  0  0  0  0  0  0  0  0  0
   -3.1907   -3.1878    0.8462 H   0  0  0  0  0  0  0  0  0  0  0  0
   -2.3893   -2.6688   -0.9827 C   0  0  0  0  0  0  0  0  0  0  0  0
   -3.0762   -3.1640   -1.5132 H   0  0  0  0  0  0  0  0  0  0  0  0
   -2.1496   -1.8208   -1.4550 H   0  0  0  0  0  0  0  0  0  0  0  0
   -1.4974   -3.2876   -0.8848 H   0  0  0  0  0  0  0  0  0  0  0  0
  1  5  1  0
  5  6  1  0
  5  7  2  0
  1  2  1  0
  1  3  1  0
  1  4  1  0
  8 12  1  0
 12 15  1  0
  8  9  1  0
  8 10  1  0
  8 11  1  0
 12 13  1  0
 12 14  1  0
 15 16  1  0
 15 17  1  0
 15 18  1  0
M  CHG  1   6  -1
M  END
>  <PDB_ID>  (1741) 
pdb4x7q

>  <RESIDUE_NAME>  (1741) 
ASP   LYS

>  <FRAG_NAME>  (1741) 
ACET   PRPA

>  <FRAG_ATOM_NUM>  (1741) 
fragi: 7  fragj: 11

>  <atom.prop.CHAIN_ID>  (1741) 
A A A A A A A Z Z Z Z Z Z Z Z Z Z Z

>  <atom.prop.IS_HEAVY_ATOM>  (1741) 
1 0 0 0 1 1 1 1 0 0 0 1 0 0 1 0 0 0

>  <DIFUSE_FUNC_ATOM>  (1741) 
atom 6   atom 7   

>  <FINAL_SINGLE_POINT_ENERGY>  (1741) 
0

>  <NONCOV_INTER_ENERGY_QM>  (1741) 
0

>  <FF_Energy>  (1741) 
29.41

>  <QM_Energy>  (1741) 
2.81

>  <source>  (1741) 
ACET_PRPA_21

>  <Index>  (1741) 
5926

$$$$
ACET-pdb3w20-B-ASP-87:PRPA-pdb3w20-A-LYS-171
     RDKit          3D

 18 16  0  0  0  0  0  0  0  0999 V2000
    0.1776    1.5530    0.0320 C   0  0  0  0  0  0  0  0  0  0  0  0
    0.7293    1.8169   -0.7604 H   0  0  0  0  0  0  0  0  0  0  0  0
    0.6685    1.7910    0.8702 H   0  0  0  0  0  0  0  0  0  0  0  0
   -0.7353    2.1481    0.0075 H   0  0  0  0  0  0  0  0  0  0  0  0
    0.0000    0.0000    0.0000 C   0  0  0  0  0  0  0  0  0  0  0  0
   -1.0636   -0.6032   -0.0000 O   0  0  0  0  0  1  0  0  0  0  0  0
    1.0636   -0.6526    0.0000 O   0  0  0  0  0  0  0  0  0  0  0  0
    5.4826   -1.0134    0.0089 C   0  0  0  0  0  0  0  0  0  0  0  0
    5.8115   -0.3543    0.6794 H   0  0  0  0  0  0  0  0  0  0  0  0
    5.0166   -0.5440   -0.7352 H   0  0  0  0  0  0  0  0  0  0  0  0
    6.3445   -1.5367   -0.4050 H   0  0  0  0  0  0  0  0  0  0  0  0
    4.5155   -1.9803    0.6827 C   0  0  0  0  0  0  0  0  0  0  0  0
    4.3939   -2.7658    0.0926 H   0  0  0  0  0  0  0  0  0  0  0  0
    4.8934   -2.2456    1.5581 H   0  0  0  0  0  0  0  0  0  0  0  0
    3.1919   -1.3101    0.8965 C   0  0  0  0  0  0  0  0  0  0  0  0
    2.9511   -0.7769    0.0969 H   0  0  0  0  0  0  0  0  0  0  0  0
    2.4977   -1.9895    1.0904 H   0  0  0  0  0  0  0  0  0  0  0  0
    3.2796   -0.6418    1.7531 H   0  0  0  0  0  0  0  0  0  0  0  0
  1  5  1  0
  5  6  1  0
  5  7  2  0
  1  2  1  0
  1  3  1  0
  1  4  1  0
  8 12  1  0
 12 15  1  0
  8  9  1  0
  8 10  1  0
  8 11  1  0
 12 13  1  0
 12 14  1  0
 15 16  1  0
 15 17  1  0
 15 18  1  0
M  CHG  1   6  -1
M  END
>  <PDB_ID>  (1742) 
pdb3w20

>  <RESIDUE_NAME>  (1742) 
ASP   LYS

>  <FRAG_NAME>  (1742) 
ACET   PRPA

>  <FRAG_ATOM_NUM>  (1742) 
fragi: 7  fragj: 11

>  <atom.prop.CHAIN_ID>  (1742) 
A A A A A A A Z Z Z Z Z Z Z Z Z Z Z

>  <atom.prop.IS_HEAVY_ATOM>  (1742) 
1 0 0 0 1 1 1 1 0 0 0 1 0 0 1 0 0 0

>  <DIFUSE_FUNC_ATOM>  (1742) 
atom 6   atom 7   

>  <FINAL_SINGLE_POINT_ENERGY>  (1742) 
0

>  <NONCOV_INTER_ENERGY_QM>  (1742) 
0

>  <FF_Energy>  (1742) 
31.66

>  <QM_Energy>  (1742) 
7.76

>  <source>  (1742) 
ACET_PRPA_21

>  <Index>  (1742) 
7062

$$$$
ACET-pdb4woq-A-GLU-34:PRPA-pdb4woq-A-ILE-76
     RDKit          3D

 18 16  0  0  0  0  0  0  0  0999 V2000
    0.0112    1.5171    0.0322 C   0  0  0  0  0  0  0  0  0  0  0  0
    0.8342    1.8189   -0.4177 H   0  0  0  0  0  0  0  0  0  0  0  0
   -0.0130    1.7942    0.9771 H   0  0  0  0  0  0  0  0  0  0  0  0
   -0.8399    1.9679   -0.4782 H   0  0  0  0  0  0  0  0  0  0  0  0
    0.0000    0.0000    0.0000 C   0  0  0  0  0  0  0  0  0  0  0  0
   -1.0970   -0.6041   -0.0000 O   0  0  0  0  0  1  0  0  0  0  0  0
    1.0970   -0.5936   -0.0000 O   0  0  0  0  0  0  0  0  0  0  0  0
    1.4183    1.6065    4.3975 C   0  0  0  0  0  0  0  0  0  0  0  0
    1.0512    2.2100    5.0944 H   0  0  0  0  0  0  0  0  0  0  0  0
    2.1065    0.9133    4.8813 H   0  0  0  0  0  0  0  0  0  0  0  0
    1.9424    2.1888    3.6397 H   0  0  0  0  0  0  0  0  0  0  0  0
    0.2540    0.8363    3.7740 C   0  0  0  0  0  0  0  0  0  0  0  0
    0.6133    0.2284    3.0729 H   0  0  0  0  0  0  0  0  0  0  0  0
   -0.1802    0.2913    4.4861 H   0  0  0  0  0  0  0  0  0  0  0  0
   -0.7988    1.7399    3.1471 C   0  0  0  0  0  0  0  0  0  0  0  0
   -0.3753    2.2848    2.4270 H   0  0  0  0  0  0  0  0  0  0  0  0
   -1.5253    1.1760    2.7608 H   0  0  0  0  0  0  0  0  0  0  0  0
   -1.1740    2.3405    3.8495 H   0  0  0  0  0  0  0  0  0  0  0  0
  1  5  1  0
  5  6  1  0
  5  7  2  0
  1  2  1  0
  1  3  1  0
  1  4  1  0
  8 12  1  0
 12 15  1  0
  8  9  1  0
  8 10  1  0
  8 11  1  0
 12 13  1  0
 12 14  1  0
 15 16  1  0
 15 17  1  0
 15 18  1  0
M  CHG  1   6  -1
M  END
>  <PDB_ID>  (1743) 
pdb4woq

>  <RESIDUE_NAME>  (1743) 
GLU   ILE

>  <FRAG_NAME>  (1743) 
ACET   PRPA

>  <FRAG_ATOM_NUM>  (1743) 
fragi: 7  fragj: 11

>  <atom.prop.CHAIN_ID>  (1743) 
A A A A A A A Z Z Z Z Z Z Z Z Z Z Z

>  <atom.prop.IS_HEAVY_ATOM>  (1743) 
1 0 0 0 1 1 1 1 0 0 0 1 0 0 1 0 0 0

>  <DIFUSE_FUNC_ATOM>  (1743) 
atom 6   atom 7   

>  <FINAL_SINGLE_POINT_ENERGY>  (1743) 
0

>  <NONCOV_INTER_ENERGY_QM>  (1743) 
0

>  <FF_Energy>  (1743) 
16.76

>  <QM_Energy>  (1743) 
1.19

>  <source>  (1743) 
ACET_PRPA_21

>  <Index>  (1743) 
9146

$$$$
ACET-pdb4xfr-A-GLU-176:PRPA-pdb4xfr-A-GLU-172
     RDKit          3D

 18 16  0  0  0  0  0  0  0  0999 V2000
    0.1736    1.4835    0.0150 C   0  0  0  0  0  0  0  0  0  0  0  0
    0.6937    1.7397   -0.8022 H   0  0  0  0  0  0  0  0  0  0  0  0
    0.7050    1.7208    0.8297 H   0  0  0  0  0  0  0  0  0  0  0  0
   -0.7367    2.0829    0.0268 H   0  0  0  0  0  0  0  0  0  0  0  0
    0.0000    0.0000    0.0000 C   0  0  0  0  0  0  0  0  0  0  0  0
   -1.0896   -0.5587   -0.0000 O   0  0  0  0  0  1  0  0  0  0  0  0
    1.0896   -0.6086   -0.0000 O   0  0  0  0  0  0  0  0  0  0  0  0
   -2.5610   -1.3349   -3.2778 C   0  0  0  0  0  0  0  0  0  0  0  0
   -2.4097   -1.6446   -2.3610 H   0  0  0  0  0  0  0  0  0  0  0  0
   -2.6981   -2.1979   -3.9294 H   0  0  0  0  0  0  0  0  0  0  0  0
   -3.4112   -0.6529   -3.2707 H   0  0  0  0  0  0  0  0  0  0  0  0
   -1.3403   -0.5334   -3.7190 C   0  0  0  0  0  0  0  0  0  0  0  0
   -0.6389   -1.1502   -3.9793 H   0  0  0  0  0  0  0  0  0  0  0  0
   -1.5872    0.0219   -4.4756 H   0  0  0  0  0  0  0  0  0  0  0  0
   -0.7769    0.3817   -2.6338 C   0  0  0  0  0  0  0  0  0  0  0  0
   -1.3781    1.1316   -2.5028 H   0  0  0  0  0  0  0  0  0  0  0  0
   -0.6804   -0.1200   -1.8096 H   0  0  0  0  0  0  0  0  0  0  0  0
    0.2011    0.7727   -2.9142 H   0  0  0  0  0  0  0  0  0  0  0  0
  1  5  1  0
  5  6  1  0
  5  7  2  0
  1  2  1  0
  1  3  1  0
  1  4  1  0
  8 12  1  0
 12 15  1  0
  8  9  1  0
  8 10  1  0
  8 11  1  0
 12 13  1  0
 12 14  1  0
 15 16  1  0
 15 17  1  0
 15 18  1  0
M  CHG  1   6  -1
M  END
>  <PDB_ID>  (1744) 
pdb4xfr

>  <RESIDUE_NAME>  (1744) 
GLU   GLU

>  <FRAG_NAME>  (1744) 
ACET   PRPA

>  <FRAG_ATOM_NUM>  (1744) 
fragi: 7  fragj: 11

>  <atom.prop.CHAIN_ID>  (1744) 
A A A A A A A Z Z Z Z Z Z Z Z Z Z Z

>  <atom.prop.IS_HEAVY_ATOM>  (1744) 
1 0 0 0 1 1 1 1 0 0 0 1 0 0 1 0 0 0

>  <DIFUSE_FUNC_ATOM>  (1744) 
atom 6   atom 7   

>  <FINAL_SINGLE_POINT_ENERGY>  (1744) 
0

>  <NONCOV_INTER_ENERGY_QM>  (1744) 
0

>  <FF_Energy>  (1744) 
48.01

>  <QM_Energy>  (1744) 
4.88

>  <source>  (1744) 
ACET_PRPA_21

>  <Index>  (1744) 
12936

$$$$
ACET-pdb4x0y-C-GLU-25:PRPA-pdb4x0y-C-LYS-288
     RDKit          3D

 18 16  0  0  0  0  0  0  0  0999 V2000
    0.1884    1.4901    0.0139 C   0  0  0  0  0  0  0  0  0  0  0  0
    0.7055    1.7383   -0.8043 H   0  0  0  0  0  0  0  0  0  0  0  0
    0.7165    1.7209    0.8287 H   0  0  0  0  0  0  0  0  0  0  0  0
   -0.7225    2.0887    0.0249 H   0  0  0  0  0  0  0  0  0  0  0  0
    0.0000    0.0000    0.0000 C   0  0  0  0  0  0  0  0  0  0  0  0
   -1.0888   -0.5508    0.0000 O   0  0  0  0  0  1  0  0  0  0  0  0
    1.0888   -0.6119   -0.0000 O   0  0  0  0  0  0  0  0  0  0  0  0
   -3.2608    0.5378    2.5525 C   0  0  0  0  0  0  0  0  0  0  0  0
   -2.5121    0.9986    2.0700 H   0  0  0  0  0  0  0  0  0  0  0  0
   -2.8986   -0.2740    3.0174 H   0  0  0  0  0  0  0  0  0  0  0  0
   -3.6527    1.2190    3.3078 H   0  0  0  0  0  0  0  0  0  0  0  0
   -4.2765    0.0750    1.5151 C   0  0  0  0  0  0  0  0  0  0  0  0
   -5.0266   -0.3961    1.9847 H   0  0  0  0  0  0  0  0  0  0  0  0
   -4.6392    0.8762    1.0364 H   0  0  0  0  0  0  0  0  0  0  0  0
   -3.6603   -0.8700    0.5010 C   0  0  0  0  0  0  0  0  0  0  0  0
   -2.9083   -0.3965    0.0364 H   0  0  0  0  0  0  0  0  0  0  0  0
   -3.2971   -1.6684    0.9843 H   0  0  0  0  0  0  0  0  0  0  0  0
   -4.3755   -1.2095   -0.2482 H   0  0  0  0  0  0  0  0  0  0  0  0
  1  5  1  0
  5  6  1  0
  5  7  2  0
  1  2  1  0
  1  3  1  0
  1  4  1  0
  8 12  1  0
 12 15  1  0
  8  9  1  0
  8 10  1  0
  8 11  1  0
 12 13  1  0
 12 14  1  0
 15 16  1  0
 15 17  1  0
 15 18  1  0
M  CHG  1   6  -1
M  END
>  <PDB_ID>  (1745) 
pdb4x0y

>  <RESIDUE_NAME>  (1745) 
GLU   LYS

>  <FRAG_NAME>  (1745) 
ACET   PRPA

>  <FRAG_ATOM_NUM>  (1745) 
fragi: 7  fragj: 11

>  <atom.prop.CHAIN_ID>  (1745) 
A A A A A A A Z Z Z Z Z Z Z Z Z Z Z

>  <atom.prop.IS_HEAVY_ATOM>  (1745) 
1 0 0 0 1 1 1 1 0 0 0 1 0 0 1 0 0 0

>  <DIFUSE_FUNC_ATOM>  (1745) 
atom 6   atom 7   

>  <FINAL_SINGLE_POINT_ENERGY>  (1745) 
0

>  <NONCOV_INTER_ENERGY_QM>  (1745) 
0

>  <FF_Energy>  (1745) 
25.76

>  <QM_Energy>  (1745) 
2.08

>  <source>  (1745) 
ACET_PRPA_21

>  <Index>  (1745) 
13719

$$$$
ACET-pdb4xr8-A-GLU-289:PRPA-pdb4xr8-A-LYS-27
     RDKit          3D

 18 16  0  0  0  0  0  0  0  0999 V2000
    0.0690    1.5035   -0.1404 C   0  0  0  0  0  0  0  0  0  0  0  0
    0.0857    1.7198   -1.1202 H   0  0  0  0  0  0  0  0  0  0  0  0
    0.9311    1.8108    0.2728 H   0  0  0  0  0  0  0  0  0  0  0  0
   -0.7270    2.1023    0.3023 H   0  0  0  0  0  0  0  0  0  0  0  0
    0.0000    0.0000    0.0000 C   0  0  0  0  0  0  0  0  0  0  0  0
   -1.1035   -0.6057    0.0000 O   0  0  0  0  0  1  0  0  0  0  0  0
    1.1035   -0.5743   -0.0000 O   0  0  0  0  0  0  0  0  0  0  0  0
    4.2399   -3.4450   -0.6312 C   0  0  0  0  0  0  0  0  0  0  0  0
    4.8159   -2.7814   -0.1786 H   0  0  0  0  0  0  0  0  0  0  0  0
    3.8572   -3.0761   -1.4663 H   0  0  0  0  0  0  0  0  0  0  0  0
    4.8500   -4.3111   -0.8876 H   0  0  0  0  0  0  0  0  0  0  0  0
    3.1060   -3.8174    0.2994 C   0  0  0  0  0  0  0  0  0  0  0  0
    2.3813   -4.2702   -0.2372 H   0  0  0  0  0  0  0  0  0  0  0  0
    3.4486   -4.4758    0.9817 H   0  0  0  0  0  0  0  0  0  0  0  0
    2.5268   -2.6312    1.0062 C   0  0  0  0  0  0  0  0  0  0  0  0
    3.1993   -2.2547    1.6368 H   0  0  0  0  0  0  0  0  0  0  0  0
    2.2550   -1.9422    0.3409 H   0  0  0  0  0  0  0  0  0  0  0  0
    1.6434   -2.9035    1.5840 H   0  0  0  0  0  0  0  0  0  0  0  0
  1  5  1  0
  5  6  1  0
  5  7  2  0
  1  2  1  0
  1  3  1  0
  1  4  1  0
  8 12  1  0
 12 15  1  0
  8  9  1  0
  8 10  1  0
  8 11  1  0
 12 13  1  0
 12 14  1  0
 15 16  1  0
 15 17  1  0
 15 18  1  0
M  CHG  1   6  -1
M  END
>  <PDB_ID>  (1746) 
pdb4xr8

>  <RESIDUE_NAME>  (1746) 
GLU   LYS

>  <FRAG_NAME>  (1746) 
ACET   PRPA

>  <FRAG_ATOM_NUM>  (1746) 
fragi: 7  fragj: 11

>  <atom.prop.CHAIN_ID>  (1746) 
A A A A A A A Z Z Z Z Z Z Z Z Z Z Z

>  <atom.prop.IS_HEAVY_ATOM>  (1746) 
1 0 0 0 1 1 1 1 0 0 0 1 0 0 1 0 0 0

>  <DIFUSE_FUNC_ATOM>  (1746) 
atom 6   atom 7   

>  <FINAL_SINGLE_POINT_ENERGY>  (1746) 
0

>  <NONCOV_INTER_ENERGY_QM>  (1746) 
0

>  <FF_Energy>  (1746) 
25.15

>  <QM_Energy>  (1746) 
2.02

>  <source>  (1746) 
ACET_PRPA_21

>  <Index>  (1746) 
18144

$$$$
ACET-pdb4xr8-A-GLU-289:PRPA-pdb4xr8-A-LYS-27
     RDKit          3D

 18 16  0  0  0  0  0  0  0  0999 V2000
    0.0690    1.5035   -0.1404 C   0  0  0  0  0  0  0  0  0  0  0  0
    0.0857    1.7198   -1.1202 H   0  0  0  0  0  0  0  0  0  0  0  0
    0.9311    1.8108    0.2728 H   0  0  0  0  0  0  0  0  0  0  0  0
   -0.7270    2.1023    0.3023 H   0  0  0  0  0  0  0  0  0  0  0  0
    0.0000    0.0000    0.0000 C   0  0  0  0  0  0  0  0  0  0  0  0
   -1.1035   -0.6057    0.0000 O   0  0  0  0  0  1  0  0  0  0  0  0
    1.1035   -0.5743   -0.0000 O   0  0  0  0  0  0  0  0  0  0  0  0
    3.1060   -3.8174    0.2994 C   0  0  0  0  0  0  0  0  0  0  0  0
    2.3813   -4.2702   -0.2372 H   0  0  0  0  0  0  0  0  0  0  0  0
    3.4486   -4.4758    0.9817 H   0  0  0  0  0  0  0  0  0  0  0  0
    3.9226   -3.5492   -0.3708 H   0  0  0  0  0  0  0  0  0  0  0  0
    2.5268   -2.6312    1.0062 C   0  0  0  0  0  0  0  0  0  0  0  0
    3.1993   -2.2547    1.6368 H   0  0  0  0  0  0  0  0  0  0  0  0
    2.2550   -1.9422    0.3409 H   0  0  0  0  0  0  0  0  0  0  0  0
    1.2823   -3.0149    1.8202 C   0  0  0  0  0  0  0  0  0  0  0  0
    1.5124   -3.7993    2.4052 H   0  0  0  0  0  0  0  0  0  0  0  0
    1.0340   -2.2383    2.4101 H   0  0  0  0  0  0  0  0  0  0  0  0
    0.4294   -3.2747    1.1932 H   0  0  0  0  0  0  0  0  0  0  0  0
  1  5  1  0
  5  6  1  0
  5  7  2  0
  1  2  1  0
  1  3  1  0
  1  4  1  0
  8 12  1  0
 12 15  1  0
  8  9  1  0
  8 10  1  0
  8 11  1  0
 12 13  1  0
 12 14  1  0
 15 16  1  0
 15 17  1  0
 15 18  1  0
M  CHG  1   6  -1
M  END
>  <PDB_ID>  (1747) 
pdb4xr8

>  <RESIDUE_NAME>  (1747) 
GLU   LYS

>  <FRAG_NAME>  (1747) 
ACET   PRPA

>  <FRAG_ATOM_NUM>  (1747) 
fragi: 7  fragj: 11

>  <atom.prop.CHAIN_ID>  (1747) 
A A A A A A A Z Z Z Z Z Z Z Z Z Z Z

>  <atom.prop.IS_HEAVY_ATOM>  (1747) 
1 0 0 0 1 1 1 1 0 0 0 1 0 0 1 0 0 0

>  <DIFUSE_FUNC_ATOM>  (1747) 
atom 6   atom 7   

>  <FINAL_SINGLE_POINT_ENERGY>  (1747) 
0

>  <NONCOV_INTER_ENERGY_QM>  (1747) 
0

>  <FF_Energy>  (1747) 
29.47

>  <QM_Energy>  (1747) 
0.44

>  <source>  (1747) 
ACET_PRPA_21

>  <Index>  (1747) 
18151

$$$$
ACET-pdb3wmr-A-ASP-103:PRPA-pdb3wmr-A-ARG-128
     RDKit          3D

 18 16  0  0  0  0  0  0  0  0999 V2000
   -0.0178    1.5011    0.0081 C   0  0  0  0  0  0  0  0  0  0  0  0
    0.3248    1.8361   -0.8624 H   0  0  0  0  0  0  0  0  0  0  0  0
    0.5477    1.8306    0.7545 H   0  0  0  0  0  0  0  0  0  0  0  0
   -1.0220    1.9014    0.1475 H   0  0  0  0  0  0  0  0  0  0  0  0
    0.0000    0.0000    0.0000 C   0  0  0  0  0  0  0  0  0  0  0  0
   -1.0827   -0.6003    0.0000 O   0  0  0  0  0  1  0  0  0  0  0  0
    1.0827   -0.5877   -0.0000 O   0  0  0  0  0  0  0  0  0  0  0  0
   -4.7044   -3.4369    0.0527 C   0  0  0  0  0  0  0  0  0  0  0  0
   -4.7617   -3.0973    0.9891 H   0  0  0  0  0  0  0  0  0  0  0  0
   -4.6593   -4.4329    0.0558 H   0  0  0  0  0  0  0  0  0  0  0  0
   -5.6137   -3.1407   -0.4703 H   0  0  0  0  0  0  0  0  0  0  0  0
   -3.4390   -2.9065   -0.5690 C   0  0  0  0  0  0  0  0  0  0  0  0
   -3.2882   -3.3427   -1.4554 H   0  0  0  0  0  0  0  0  0  0  0  0
   -3.5110   -1.9175   -0.6911 H   0  0  0  0  0  0  0  0  0  0  0  0
   -2.2271   -3.1833    0.3015 C   0  0  0  0  0  0  0  0  0  0  0  0
   -1.6148   -2.3928    0.2347 H   0  0  0  0  0  0  0  0  0  0  0  0
   -2.5454   -3.2739    1.2472 H   0  0  0  0  0  0  0  0  0  0  0  0
   -1.6929   -4.0866    0.0066 H   0  0  0  0  0  0  0  0  0  0  0  0
  1  5  1  0
  5  6  1  0
  5  7  2  0
  1  2  1  0
  1  3  1  0
  1  4  1  0
  8 12  1  0
 12 15  1  0
  8  9  1  0
  8 10  1  0
  8 11  1  0
 12 13  1  0
 12 14  1  0
 15 16  1  0
 15 17  1  0
 15 18  1  0
M  CHG  1   6  -1
M  END
>  <PDB_ID>  (1748) 
pdb3wmr

>  <RESIDUE_NAME>  (1748) 
ASP   ARG

>  <FRAG_NAME>  (1748) 
ACET   PRPA

>  <FRAG_ATOM_NUM>  (1748) 
fragi: 7  fragj: 11

>  <atom.prop.CHAIN_ID>  (1748) 
A A A A A A A Z Z Z Z Z Z Z Z Z Z Z

>  <atom.prop.IS_HEAVY_ATOM>  (1748) 
1 0 0 0 1 1 1 1 0 0 0 1 0 0 1 0 0 0

>  <DIFUSE_FUNC_ATOM>  (1748) 
atom 6   atom 7   

>  <FINAL_SINGLE_POINT_ENERGY>  (1748) 
0

>  <NONCOV_INTER_ENERGY_QM>  (1748) 
0

>  <FF_Energy>  (1748) 
14.97

>  <QM_Energy>  (1748) 
-2.27

>  <source>  (1748) 
ACET_PRPA_21

>  <Index>  (1748) 
18456

$$$$
ACET-pdb3wla-A-ASP-224:PRPA-pdb3wla-A-LYS-302
     RDKit          3D

 18 16  0  0  0  0  0  0  0  0999 V2000
   -0.0084    1.5200   -0.0059 C   0  0  0  0  0  0  0  0  0  0  0  0
   -0.4552    1.8288   -0.8384 H   0  0  0  0  0  0  0  0  0  0  0  0
    0.9320    1.8401    0.0215 H   0  0  0  0  0  0  0  0  0  0  0  0
   -0.5416    1.9386    0.8477 H   0  0  0  0  0  0  0  0  0  0  0  0
    0.0000    0.0000    0.0000 C   0  0  0  0  0  0  0  0  0  0  0  0
   -1.1152   -0.5644   -0.0000 O   0  0  0  0  0  1  0  0  0  0  0  0
    1.1152   -0.6171    0.0000 O   0  0  0  0  0  0  0  0  0  0  0  0
    4.8512   -1.3560    1.8321 C   0  0  0  0  0  0  0  0  0  0  0  0
    4.2555   -2.1236    2.0343 H   0  0  0  0  0  0  0  0  0  0  0  0
    4.4839   -0.5155    2.2105 H   0  0  0  0  0  0  0  0  0  0  0  0
    5.8466   -1.5424    2.2352 H   0  0  0  0  0  0  0  0  0  0  0  0
    4.9380   -1.2019    0.3069 C   0  0  0  0  0  0  0  0  0  0  0  0
    5.8323   -0.8360    0.0809 H   0  0  0  0  0  0  0  0  0  0  0  0
    4.8094   -2.0955   -0.1056 H   0  0  0  0  0  0  0  0  0  0  0  0
    3.8748   -0.2626   -0.2023 C   0  0  0  0  0  0  0  0  0  0  0  0
    3.9898   -0.1622   -1.2252 H   0  0  0  0  0  0  0  0  0  0  0  0
    2.9534   -0.7205   -0.0940 H   0  0  0  0  0  0  0  0  0  0  0  0
    3.8131    0.7344    0.2338 H   0  0  0  0  0  0  0  0  0  0  0  0
  1  5  1  0
  5  6  1  0
  5  7  2  0
  1  2  1  0
  1  3  1  0
  1  4  1  0
  8 12  1  0
 12 15  1  0
  8  9  1  0
  8 10  1  0
  8 11  1  0
 12 13  1  0
 12 14  1  0
 15 16  1  0
 15 17  1  0
 15 18  1  0
M  CHG  1   6  -1
M  END
>  <PDB_ID>  (1749) 
pdb3wla

>  <RESIDUE_NAME>  (1749) 
ASP   LYS

>  <FRAG_NAME>  (1749) 
ACET   PRPA

>  <FRAG_ATOM_NUM>  (1749) 
fragi: 7  fragj: 11

>  <atom.prop.CHAIN_ID>  (1749) 
A A A A A A A Z Z Z Z Z Z Z Z Z Z Z

>  <atom.prop.IS_HEAVY_ATOM>  (1749) 
1 0 0 0 1 1 1 1 0 0 0 1 0 0 1 0 0 0

>  <DIFUSE_FUNC_ATOM>  (1749) 
atom 6   atom 7   

>  <FINAL_SINGLE_POINT_ENERGY>  (1749) 
0

>  <NONCOV_INTER_ENERGY_QM>  (1749) 
0

>  <FF_Energy>  (1749) 
20.01

>  <QM_Energy>  (1749) 
0.9

>  <source>  (1749) 
ACET_PRPA_21

>  <Index>  (1749) 
19350

$$$$
ACET-pdb4y0n-A-GLU-42:PRPA-pdb4y0n-A-LYS-50
     RDKit          3D

 18 16  0  0  0  0  0  0  0  0999 V2000
   -0.0020    1.5117    0.0655 C   0  0  0  0  0  0  0  0  0  0  0  0
   -0.4064    1.8464   -0.7642 H   0  0  0  0  0  0  0  0  0  0  0  0
    0.9283    1.8068    0.1745 H   0  0  0  0  0  0  0  0  0  0  0  0
   -0.5832    1.8915    0.9057 H   0  0  0  0  0  0  0  0  0  0  0  0
    0.0000    0.0000    0.0000 C   0  0  0  0  0  0  0  0  0  0  0  0
   -1.1028   -0.5956   -0.0000 O   0  0  0  0  0  1  0  0  0  0  0  0
    1.1028   -0.5860    0.0000 O   0  0  0  0  0  0  0  0  0  0  0  0
   -0.6743    2.4485   -2.8959 C   0  0  0  0  0  0  0  0  0  0  0  0
    0.2980    2.2385   -3.0408 H   0  0  0  0  0  0  0  0  0  0  0  0
   -0.7648    2.9809   -2.0486 H   0  0  0  0  0  0  0  0  0  0  0  0
   -1.0320    3.0505   -3.7312 H   0  0  0  0  0  0  0  0  0  0  0  0
   -1.4401    1.1459   -2.7419 C   0  0  0  0  0  0  0  0  0  0  0  0
   -1.9184    0.9503   -3.5928 H   0  0  0  0  0  0  0  0  0  0  0  0
   -0.7975    0.4159   -2.5323 H   0  0  0  0  0  0  0  0  0  0  0  0
   -2.4600    1.2298   -1.6207 C   0  0  0  0  0  0  0  0  0  0  0  0
   -2.3654    0.4225   -1.0337 H   0  0  0  0  0  0  0  0  0  0  0  0
   -2.2801    2.0528   -1.0771 H   0  0  0  0  0  0  0  0  0  0  0  0
   -3.4765    1.2731   -2.0118 H   0  0  0  0  0  0  0  0  0  0  0  0
  1  5  1  0
  5  6  1  0
  5  7  2  0
  1  2  1  0
  1  3  1  0
  1  4  1  0
  8 12  1  0
 12 15  1  0
  8  9  1  0
  8 10  1  0
  8 11  1  0
 12 13  1  0
 12 14  1  0
 15 16  1  0
 15 17  1  0
 15 18  1  0
M  CHG  1   6  -1
M  END
>  <PDB_ID>  (1750) 
pdb4y0n

>  <RESIDUE_NAME>  (1750) 
GLU   LYS

>  <FRAG_NAME>  (1750) 
ACET   PRPA

>  <FRAG_ATOM_NUM>  (1750) 
fragi: 7  fragj: 11

>  <atom.prop.CHAIN_ID>  (1750) 
A A A A A A A Z Z Z Z Z Z Z Z Z Z Z

>  <atom.prop.IS_HEAVY_ATOM>  (1750) 
1 0 0 0 1 1 1 1 0 0 0 1 0 0 1 0 0 0

>  <DIFUSE_FUNC_ATOM>  (1750) 
atom 6   atom 7   

>  <FINAL_SINGLE_POINT_ENERGY>  (1750) 
0

>  <NONCOV_INTER_ENERGY_QM>  (1750) 
0

>  <FF_Energy>  (1750) 
33.46

>  <QM_Energy>  (1750) 
4.02

>  <source>  (1750) 
ACET_PRPA_21

>  <Index>  (1750) 
19803

$$$$
ACET-pdb3wr7-A-GLU-143:PRPA-pdb3wr7-A-LYS-124
     RDKit          3D

 18 16  0  0  0  0  0  0  0  0999 V2000
    0.0128    1.5373   -0.0092 C   0  0  0  0  0  0  0  0  0  0  0  0
    0.4640    1.8261    0.8128 H   0  0  0  0  0  0  0  0  0  0  0  0
   -0.9221    1.8317   -0.0486 H   0  0  0  0  0  0  0  0  0  0  0  0
    0.5472    1.9508   -0.8645 H   0  0  0  0  0  0  0  0  0  0  0  0
    0.0000    0.0000    0.0000 C   0  0  0  0  0  0  0  0  0  0  0  0
   -1.1213   -0.5831    0.0000 O   0  0  0  0  0  1  0  0  0  0  0  0
    1.1213   -0.6027   -0.0000 O   0  0  0  0  0  0  0  0  0  0  0  0
   -5.1578   -0.5514    0.8921 C   0  0  0  0  0  0  0  0  0  0  0  0
   -4.5836    0.2395    0.6529 H   0  0  0  0  0  0  0  0  0  0  0  0
   -5.3845   -0.4968    1.8714 H   0  0  0  0  0  0  0  0  0  0  0  0
   -6.0855   -0.4837    0.3239 H   0  0  0  0  0  0  0  0  0  0  0  0
   -4.3143   -1.8226    0.6770 C   0  0  0  0  0  0  0  0  0  0  0  0
   -4.8636   -2.6108    0.8945 H   0  0  0  0  0  0  0  0  0  0  0  0
   -3.9954   -1.8418   -0.2545 H   0  0  0  0  0  0  0  0  0  0  0  0
   -3.1105   -1.7733    1.6199 C   0  0  0  0  0  0  0  0  0  0  0  0
   -2.3331   -1.3655    1.1248 H   0  0  0  0  0  0  0  0  0  0  0  0
   -3.3367   -1.1756    2.3987 H   0  0  0  0  0  0  0  0  0  0  0  0
   -2.7930   -2.7385    2.0145 H   0  0  0  0  0  0  0  0  0  0  0  0
  1  5  1  0
  5  6  1  0
  5  7  2  0
  1  2  1  0
  1  3  1  0
  1  4  1  0
  8 12  1  0
 12 15  1  0
  8  9  1  0
  8 10  1  0
  8 11  1  0
 12 13  1  0
 12 14  1  0
 15 16  1  0
 15 17  1  0
 15 18  1  0
M  CHG  1   6  -1
M  END
>  <PDB_ID>  (1751) 
pdb3wr7

>  <RESIDUE_NAME>  (1751) 
GLU   LYS

>  <FRAG_NAME>  (1751) 
ACET   PRPA

>  <FRAG_ATOM_NUM>  (1751) 
fragi: 7  fragj: 11

>  <atom.prop.CHAIN_ID>  (1751) 
A A A A A A A Z Z Z Z Z Z Z Z Z Z Z

>  <atom.prop.IS_HEAVY_ATOM>  (1751) 
1 0 0 0 1 1 1 1 0 0 0 1 0 0 1 0 0 0

>  <DIFUSE_FUNC_ATOM>  (1751) 
atom 6   atom 7   

>  <FINAL_SINGLE_POINT_ENERGY>  (1751) 
0

>  <NONCOV_INTER_ENERGY_QM>  (1751) 
0

>  <FF_Energy>  (1751) 
21.89

>  <QM_Energy>  (1751) 
-1.41

>  <source>  (1751) 
ACET_PRPA_21

>  <Index>  (1751) 
20374

$$$$
ACET-pdb3wr7-A-GLU-143:PRPA-pdb3wr7-A-LYS-124
     RDKit          3D

 18 16  0  0  0  0  0  0  0  0999 V2000
    0.0128    1.5373   -0.0092 C   0  0  0  0  0  0  0  0  0  0  0  0
    0.4640    1.8261    0.8128 H   0  0  0  0  0  0  0  0  0  0  0  0
   -0.9221    1.8317   -0.0486 H   0  0  0  0  0  0  0  0  0  0  0  0
    0.5472    1.9508   -0.8645 H   0  0  0  0  0  0  0  0  0  0  0  0
    0.0000    0.0000    0.0000 C   0  0  0  0  0  0  0  0  0  0  0  0
   -1.1213   -0.5831    0.0000 O   0  0  0  0  0  1  0  0  0  0  0  0
    1.1213   -0.6027   -0.0000 O   0  0  0  0  0  0  0  0  0  0  0  0
   -4.3143   -1.8226    0.6770 C   0  0  0  0  0  0  0  0  0  0  0  0
   -4.8636   -2.6108    0.8945 H   0  0  0  0  0  0  0  0  0  0  0  0
   -3.9954   -1.8418   -0.2545 H   0  0  0  0  0  0  0  0  0  0  0  0
   -4.9111   -0.9232    0.8291 H   0  0  0  0  0  0  0  0  0  0  0  0
   -3.1105   -1.7733    1.6199 C   0  0  0  0  0  0  0  0  0  0  0  0
   -2.3331   -1.3655    1.1248 H   0  0  0  0  0  0  0  0  0  0  0  0
   -3.3367   -1.1756    2.3987 H   0  0  0  0  0  0  0  0  0  0  0  0
   -2.6642   -3.1304    2.1747 C   0  0  0  0  0  0  0  0  0  0  0  0
   -2.4699   -3.0309    3.1450 H   0  0  0  0  0  0  0  0  0  0  0  0
   -3.3968   -3.7893    2.0359 H   0  0  0  0  0  0  0  0  0  0  0  0
   -1.7672   -3.4691    1.6563 H   0  0  0  0  0  0  0  0  0  0  0  0
  1  5  1  0
  5  6  1  0
  5  7  2  0
  1  2  1  0
  1  3  1  0
  1  4  1  0
  8 12  1  0
 12 15  1  0
  8  9  1  0
  8 10  1  0
  8 11  1  0
 12 13  1  0
 12 14  1  0
 15 16  1  0
 15 17  1  0
 15 18  1  0
M  CHG  1   6  -1
M  END
>  <PDB_ID>  (1752) 
pdb3wr7

>  <RESIDUE_NAME>  (1752) 
GLU   LYS

>  <FRAG_NAME>  (1752) 
ACET   PRPA

>  <FRAG_ATOM_NUM>  (1752) 
fragi: 7  fragj: 11

>  <atom.prop.CHAIN_ID>  (1752) 
A A A A A A A Z Z Z Z Z Z Z Z Z Z Z

>  <atom.prop.IS_HEAVY_ATOM>  (1752) 
1 0 0 0 1 1 1 1 0 0 0 1 0 0 1 0 0 0

>  <DIFUSE_FUNC_ATOM>  (1752) 
atom 6   atom 7   

>  <FINAL_SINGLE_POINT_ENERGY>  (1752) 
0

>  <NONCOV_INTER_ENERGY_QM>  (1752) 
0

>  <FF_Energy>  (1752) 
25.38

>  <QM_Energy>  (1752) 
-1.49

>  <source>  (1752) 
ACET_PRPA_21

>  <Index>  (1752) 
20376

$$$$
ACET-pdb3wla-C-ASP-19:PRPA-pdb3wla-C-LYS-26
     RDKit          3D

 18 16  0  0  0  0  0  0  0  0999 V2000
    0.0032    1.4991   -0.0101 C   0  0  0  0  0  0  0  0  0  0  0  0
    0.9304    1.8212   -0.1596 H   0  0  0  0  0  0  0  0  0  0  0  0
   -0.3456    1.8315    0.8582 H   0  0  0  0  0  0  0  0  0  0  0  0
   -0.6259    1.9034   -0.8031 H   0  0  0  0  0  0  0  0  0  0  0  0
    0.0000    0.0000    0.0000 C   0  0  0  0  0  0  0  0  0  0  0  0
   -1.1213   -0.6049    0.0000 O   0  0  0  0  0  1  0  0  0  0  0  0
    1.1213   -0.5536   -0.0000 O   0  0  0  0  0  0  0  0  0  0  0  0
   -4.2104    0.1396    0.5098 C   0  0  0  0  0  0  0  0  0  0  0  0
   -3.6139    0.8624    0.8503 H   0  0  0  0  0  0  0  0  0  0  0  0
   -5.1305    0.2573    0.8723 H   0  0  0  0  0  0  0  0  0  0  0  0
   -4.2520    0.2051   -0.5775 H   0  0  0  0  0  0  0  0  0  0  0  0
   -3.6643   -1.2106    0.9594 C   0  0  0  0  0  0  0  0  0  0  0  0
   -4.3179   -1.9210    0.7391 H   0  0  0  0  0  0  0  0  0  0  0  0
   -2.7924   -1.3783    0.5203 H   0  0  0  0  0  0  0  0  0  0  0  0
   -3.4294   -1.2463    2.5029 C   0  0  0  0  0  0  0  0  0  0  0  0
   -3.2747   -2.2008    2.7754 H   0  0  0  0  0  0  0  0  0  0  0  0
   -2.6028   -0.7145    2.7078 H   0  0  0  0  0  0  0  0  0  0  0  0
   -4.2591   -0.8444    3.0845 H   0  0  0  0  0  0  0  0  0  0  0  0
  1  5  1  0
  5  6  1  0
  5  7  2  0
  1  2  1  0
  1  3  1  0
  1  4  1  0
  8 12  1  0
 12 15  1  0
  8  9  1  0
  8 10  1  0
  8 11  1  0
 12 13  1  0
 12 14  1  0
 15 16  1  0
 15 17  1  0
 15 18  1  0
M  CHG  1   6  -1
M  END
>  <PDB_ID>  (1753) 
pdb3wla

>  <RESIDUE_NAME>  (1753) 
ASP   LYS

>  <FRAG_NAME>  (1753) 
ACET   PRPA

>  <FRAG_ATOM_NUM>  (1753) 
fragi: 7  fragj: 11

>  <atom.prop.CHAIN_ID>  (1753) 
A A A A A A A Z Z Z Z Z Z Z Z Z Z Z

>  <atom.prop.IS_HEAVY_ATOM>  (1753) 
1 0 0 0 1 1 1 1 0 0 0 1 0 0 1 0 0 0

>  <DIFUSE_FUNC_ATOM>  (1753) 
atom 6   atom 7   

>  <FINAL_SINGLE_POINT_ENERGY>  (1753) 
0

>  <NONCOV_INTER_ENERGY_QM>  (1753) 
0

>  <FF_Energy>  (1753) 
15.6

>  <QM_Energy>  (1753) 
-2.68

>  <source>  (1753) 
ACET_PRPA_21

>  <Index>  (1753) 
21351

$$$$
ACET-pdb4y93-A-GLU-70:PRPA-pdb4y93-A-PRO-73
     RDKit          3D

 18 16  0  0  0  0  0  0  0  0999 V2000
    0.0070    1.5230   -0.0015 C   0  0  0  0  0  0  0  0  0  0  0  0
    0.8863    1.8199   -0.2849 H   0  0  0  0  0  0  0  0  0  0  0  0
   -0.1710    1.8253    0.9031 H   0  0  0  0  0  0  0  0  0  0  0  0
   -0.7433    1.9429   -0.6714 H   0  0  0  0  0  0  0  0  0  0  0  0
    0.0000    0.0000    0.0000 C   0  0  0  0  0  0  0  0  0  0  0  0
   -1.0933   -0.6023    0.0000 O   0  0  0  0  0  1  0  0  0  0  0  0
    1.0933   -0.5967   -0.0000 O   0  0  0  0  0  0  0  0  0  0  0  0
    0.4459    1.6739    3.6787 C   0  0  0  0  0  0  0  0  0  0  0  0
   -0.2935    1.0728    3.4511 H   0  0  0  0  0  0  0  0  0  0  0  0
    0.1394    2.7156    3.5840 H   0  0  0  0  0  0  0  0  0  0  0  0
    0.8225    1.4357    4.6735 H   0  0  0  0  0  0  0  0  0  0  0  0
    1.5545    1.5430    2.6383 C   0  0  0  0  0  0  0  0  0  0  0  0
    2.1554    0.8231    2.8865 H   0  0  0  0  0  0  0  0  0  0  0  0
    1.1668    1.3841    1.7630 H   0  0  0  0  0  0  0  0  0  0  0  0
    2.2564    2.8537    2.6755 C   0  0  0  0  0  0  0  0  0  0  0  0
    3.0141    2.7917    3.2779 H   0  0  0  0  0  0  0  0  0  0  0  0
    2.5578    3.0792    1.7815 H   0  0  0  0  0  0  0  0  0  0  0  0
    1.5494    3.6013    3.0351 H   0  0  0  0  0  0  0  0  0  0  0  0
  1  5  1  0
  5  6  1  0
  5  7  2  0
  1  2  1  0
  1  3  1  0
  1  4  1  0
  8 12  1  0
 12 15  1  0
  8  9  1  0
  8 10  1  0
  8 11  1  0
 12 13  1  0
 12 14  1  0
 15 16  1  0
 15 17  1  0
 15 18  1  0
M  CHG  1   6  -1
M  END
>  <PDB_ID>  (1754) 
pdb4y93

>  <RESIDUE_NAME>  (1754) 
GLU   PRO

>  <FRAG_NAME>  (1754) 
ACET   PRPA

>  <FRAG_ATOM_NUM>  (1754) 
fragi: 7  fragj: 11

>  <atom.prop.CHAIN_ID>  (1754) 
A A A A A A A Z Z Z Z Z Z Z Z Z Z Z

>  <atom.prop.IS_HEAVY_ATOM>  (1754) 
1 0 0 0 1 1 1 1 0 0 0 1 0 0 1 0 0 0

>  <DIFUSE_FUNC_ATOM>  (1754) 
atom 6   atom 7   

>  <FINAL_SINGLE_POINT_ENERGY>  (1754) 
0

>  <NONCOV_INTER_ENERGY_QM>  (1754) 
0

>  <FF_Energy>  (1754) 
23.25

>  <QM_Energy>  (1754) 
1.62

>  <source>  (1754) 
ACET_PRPA_21

>  <Index>  (1754) 
22317

$$$$
ACET-pdb4y93-A-GLU-70:PRPA-pdb4y93-A-PRO-73
     RDKit          3D

 18 16  0  0  0  0  0  0  0  0999 V2000
    0.0070    1.5230   -0.0015 C   0  0  0  0  0  0  0  0  0  0  0  0
    0.8863    1.8199   -0.2849 H   0  0  0  0  0  0  0  0  0  0  0  0
   -0.1710    1.8253    0.9031 H   0  0  0  0  0  0  0  0  0  0  0  0
   -0.7433    1.9429   -0.6714 H   0  0  0  0  0  0  0  0  0  0  0  0
    0.0000    0.0000    0.0000 C   0  0  0  0  0  0  0  0  0  0  0  0
   -1.0933   -0.6023    0.0000 O   0  0  0  0  0  1  0  0  0  0  0  0
    1.0933   -0.5967   -0.0000 O   0  0  0  0  0  0  0  0  0  0  0  0
    1.5545    1.5430    2.6383 C   0  0  0  0  0  0  0  0  0  0  0  0
    2.1554    0.8231    2.8865 H   0  0  0  0  0  0  0  0  0  0  0  0
    1.1668    1.3841    1.7630 H   0  0  0  0  0  0  0  0  0  0  0  0
    0.7626    1.6365    3.3815 H   0  0  0  0  0  0  0  0  0  0  0  0
    2.2564    2.8537    2.6755 C   0  0  0  0  0  0  0  0  0  0  0  0
    3.0141    2.7917    3.2779 H   0  0  0  0  0  0  0  0  0  0  0  0
    2.5578    3.0792    1.7815 H   0  0  0  0  0  0  0  0  0  0  0  0
    1.2800    3.8862    3.1721 C   0  0  0  0  0  0  0  0  0  0  0  0
    1.6376    4.3379    3.9524 H   0  0  0  0  0  0  0  0  0  0  0  0
    1.0698    4.5162    2.4650 H   0  0  0  0  0  0  0  0  0  0  0  0
    0.3922    3.3140    3.4413 H   0  0  0  0  0  0  0  0  0  0  0  0
  1  5  1  0
  5  6  1  0
  5  7  2  0
  1  2  1  0
  1  3  1  0
  1  4  1  0
  8 12  1  0
 12 15  1  0
  8  9  1  0
  8 10  1  0
  8 11  1  0
 12 13  1  0
 12 14  1  0
 15 16  1  0
 15 17  1  0
 15 18  1  0
M  CHG  1   6  -1
M  END
>  <PDB_ID>  (1755) 
pdb4y93

>  <RESIDUE_NAME>  (1755) 
GLU   PRO

>  <FRAG_NAME>  (1755) 
ACET   PRPA

>  <FRAG_ATOM_NUM>  (1755) 
fragi: 7  fragj: 11

>  <atom.prop.CHAIN_ID>  (1755) 
A A A A A A A Z Z Z Z Z Z Z Z Z Z Z

>  <atom.prop.IS_HEAVY_ATOM>  (1755) 
1 0 0 0 1 1 1 1 0 0 0 1 0 0 1 0 0 0

>  <DIFUSE_FUNC_ATOM>  (1755) 
atom 6   atom 7   

>  <FINAL_SINGLE_POINT_ENERGY>  (1755) 
0

>  <NONCOV_INTER_ENERGY_QM>  (1755) 
0

>  <FF_Energy>  (1755) 
20.35

>  <QM_Energy>  (1755) 
2.92

>  <source>  (1755) 
ACET_PRPA_21

>  <Index>  (1755) 
22330

$$$$
ACET-pdb3wkm-H-ASP-111:PRPA-pdb3wkm-H-ARG-99
     RDKit          3D

 18 16  0  0  0  0  0  0  0  0999 V2000
   -0.0029    1.5140    0.0146 C   0  0  0  0  0  0  0  0  0  0  0  0
    0.7787    1.8306    0.5422 H   0  0  0  0  0  0  0  0  0  0  0  0
   -0.8498    1.8287    0.4293 H   0  0  0  0  0  0  0  0  0  0  0  0
    0.0667    1.9461   -0.9837 H   0  0  0  0  0  0  0  0  0  0  0  0
    0.0000    0.0000    0.0000 C   0  0  0  0  0  0  0  0  0  0  0  0
   -1.1014   -0.5965    0.0000 O   0  0  0  0  0  1  0  0  0  0  0  0
    1.1014   -0.5972   -0.0000 O   0  0  0  0  0  0  0  0  0  0  0  0
    4.1011    1.0077   -2.9407 C   0  0  0  0  0  0  0  0  0  0  0  0
    3.2858    1.5438   -2.6951 H   0  0  0  0  0  0  0  0  0  0  0  0
    3.9280    0.5232   -3.9017 H   0  0  0  0  0  0  0  0  0  0  0  0
    4.9583    1.6775   -3.0078 H   0  0  0  0  0  0  0  0  0  0  0  0
    4.3192   -0.0147   -1.8188 C   0  0  0  0  0  0  0  0  0  0  0  0
    3.9441   -0.8878   -2.1158 H   0  0  0  0  0  0  0  0  0  0  0  0
    5.2984   -0.1000   -1.6610 H   0  0  0  0  0  0  0  0  0  0  0  0
    3.6595    0.3553   -0.4937 C   0  0  0  0  0  0  0  0  0  0  0  0
    3.5967    1.3434   -0.4213 H   0  0  0  0  0  0  0  0  0  0  0  0
    2.7588   -0.0583   -0.4471 H   0  0  0  0  0  0  0  0  0  0  0  0
    4.2499   -0.0135    0.3450 H   0  0  0  0  0  0  0  0  0  0  0  0
  1  5  1  0
  5  6  1  0
  5  7  2  0
  1  2  1  0
  1  3  1  0
  1  4  1  0
  8 12  1  0
 12 15  1  0
  8  9  1  0
  8 10  1  0
  8 11  1  0
 12 13  1  0
 12 14  1  0
 15 16  1  0
 15 17  1  0
 15 18  1  0
M  CHG  1   6  -1
M  END
>  <PDB_ID>  (1756) 
pdb3wkm

>  <RESIDUE_NAME>  (1756) 
ASP   ARG

>  <FRAG_NAME>  (1756) 
ACET   PRPA

>  <FRAG_ATOM_NUM>  (1756) 
fragi: 7  fragj: 11

>  <atom.prop.CHAIN_ID>  (1756) 
A A A A A A A Z Z Z Z Z Z Z Z Z Z Z

>  <atom.prop.IS_HEAVY_ATOM>  (1756) 
1 0 0 0 1 1 1 1 0 0 0 1 0 0 1 0 0 0

>  <DIFUSE_FUNC_ATOM>  (1756) 
atom 6   atom 7   

>  <FINAL_SINGLE_POINT_ENERGY>  (1756) 
0

>  <NONCOV_INTER_ENERGY_QM>  (1756) 
0

>  <FF_Energy>  (1756) 
27.19

>  <QM_Energy>  (1756) 
0.66

>  <source>  (1756) 
ACET_PRPA_21

>  <Index>  (1756) 
23476

$$$$
ACET-pdb4yds-A-GLU-26:PRPA-pdb4yds-A-PRO-159
     RDKit          3D

 18 16  0  0  0  0  0  0  0  0999 V2000
    0.0017    1.5106   -0.0002 C   0  0  0  0  0  0  0  0  0  0  0  0
    0.3001    1.8075    0.8878 H   0  0  0  0  0  0  0  0  0  0  0  0
   -0.9118    1.8077   -0.2062 H   0  0  0  0  0  0  0  0  0  0  0  0
    0.6791    1.9216   -0.7488 H   0  0  0  0  0  0  0  0  0  0  0  0
    0.0000    0.0000    0.0000 C   0  0  0  0  0  0  0  0  0  0  0  0
   -1.0954   -0.5985    0.0000 O   0  0  0  0  0  1  0  0  0  0  0  0
    1.0954   -0.5877   -0.0000 O   0  0  0  0  0  0  0  0  0  0  0  0
   -2.5911    0.3142    2.1683 C   0  0  0  0  0  0  0  0  0  0  0  0
   -1.8376    0.1401    1.4963 H   0  0  0  0  0  0  0  0  0  0  0  0
   -2.9848    1.3225    2.0403 H   0  0  0  0  0  0  0  0  0  0  0  0
   -3.3329   -0.4827    2.1140 H   0  0  0  0  0  0  0  0  0  0  0  0
   -1.9786    0.3579    3.5704 C   0  0  0  0  0  0  0  0  0  0  0  0
   -2.6551    0.0829    4.2584 H   0  0  0  0  0  0  0  0  0  0  0  0
   -1.1877   -0.2566    3.6288 H   0  0  0  0  0  0  0  0  0  0  0  0
   -1.5739    1.7752    3.7516 C   0  0  0  0  0  0  0  0  0  0  0  0
   -1.5570    2.0206    4.7288 H   0  0  0  0  0  0  0  0  0  0  0  0
   -0.6541    1.9361    3.3711 H   0  0  0  0  0  0  0  0  0  0  0  0
   -2.3165    2.3710    3.2207 H   0  0  0  0  0  0  0  0  0  0  0  0
  1  5  1  0
  5  6  1  0
  5  7  2  0
  1  2  1  0
  1  3  1  0
  1  4  1  0
  8 12  1  0
 12 15  1  0
  8  9  1  0
  8 10  1  0
  8 11  1  0
 12 13  1  0
 12 14  1  0
 15 16  1  0
 15 17  1  0
 15 18  1  0
M  CHG  1   6  -1
M  END
>  <PDB_ID>  (1757) 
pdb4yds

>  <RESIDUE_NAME>  (1757) 
GLU   PRO

>  <FRAG_NAME>  (1757) 
ACET   PRPA

>  <FRAG_ATOM_NUM>  (1757) 
fragi: 7  fragj: 11

>  <atom.prop.CHAIN_ID>  (1757) 
A A A A A A A Z Z Z Z Z Z Z Z Z Z Z

>  <atom.prop.IS_HEAVY_ATOM>  (1757) 
1 0 0 0 1 1 1 1 0 0 0 1 0 0 1 0 0 0

>  <DIFUSE_FUNC_ATOM>  (1757) 
atom 6   atom 7   

>  <FINAL_SINGLE_POINT_ENERGY>  (1757) 
0

>  <NONCOV_INTER_ENERGY_QM>  (1757) 
0

>  <FF_Energy>  (1757) 
24.57

>  <QM_Energy>  (1757) 
1.33

>  <source>  (1757) 
ACET_PRPA_21

>  <Index>  (1757) 
23981

$$$$
ACET-pdb4yi0-C-GLU-139:PRPA-pdb4yi0-C-ARG-101
     RDKit          3D

 18 16  0  0  0  0  0  0  0  0999 V2000
   -0.0199    1.5194    0.0389 C   0  0  0  0  0  0  0  0  0  0  0  0
    0.6094    1.8437   -0.6408 H   0  0  0  0  0  0  0  0  0  0  0  0
    0.2292    1.7980    0.9465 H   0  0  0  0  0  0  0  0  0  0  0  0
   -1.0028    1.9337   -0.1852 H   0  0  0  0  0  0  0  0  0  0  0  0
    0.0000    0.0000    0.0000 C   0  0  0  0  0  0  0  0  0  0  0  0
   -1.0904   -0.5813    0.0000 O   0  0  0  0  0  1  0  0  0  0  0  0
    1.0904   -0.6180    0.0000 O   0  0  0  0  0  0  0  0  0  0  0  0
   -4.2456   -2.1359    0.2041 C   0  0  0  0  0  0  0  0  0  0  0  0
   -4.3949   -1.1691    0.0181 H   0  0  0  0  0  0  0  0  0  0  0  0
   -3.5252   -2.2475    0.8822 H   0  0  0  0  0  0  0  0  0  0  0  0
   -5.1668   -2.5502    0.6138 H   0  0  0  0  0  0  0  0  0  0  0  0
   -3.8100   -2.8031   -1.0660 C   0  0  0  0  0  0  0  0  0  0  0  0
   -4.1803   -3.7173   -1.1086 H   0  0  0  0  0  0  0  0  0  0  0  0
   -4.0906   -2.2609   -1.8423 H   0  0  0  0  0  0  0  0  0  0  0  0
   -2.3174   -2.8888   -1.0558 C   0  0  0  0  0  0  0  0  0  0  0  0
   -1.9819   -2.6900   -1.9795 H   0  0  0  0  0  0  0  0  0  0  0  0
   -1.9653   -2.1931   -0.4235 H   0  0  0  0  0  0  0  0  0  0  0  0
   -1.9587   -3.8705   -0.7465 H   0  0  0  0  0  0  0  0  0  0  0  0
  1  5  1  0
  5  6  1  0
  5  7  2  0
  1  2  1  0
  1  3  1  0
  1  4  1  0
  8 12  1  0
 12 15  1  0
  8  9  1  0
  8 10  1  0
  8 11  1  0
 12 13  1  0
 12 14  1  0
 15 16  1  0
 15 17  1  0
 15 18  1  0
M  CHG  1   6  -1
M  END
>  <PDB_ID>  (1758) 
pdb4yi0

>  <RESIDUE_NAME>  (1758) 
GLU   ARG

>  <FRAG_NAME>  (1758) 
ACET   PRPA

>  <FRAG_ATOM_NUM>  (1758) 
fragi: 7  fragj: 11

>  <atom.prop.CHAIN_ID>  (1758) 
A A A A A A A Z Z Z Z Z Z Z Z Z Z Z

>  <atom.prop.IS_HEAVY_ATOM>  (1758) 
1 0 0 0 1 1 1 1 0 0 0 1 0 0 1 0 0 0

>  <DIFUSE_FUNC_ATOM>  (1758) 
atom 6   atom 7   

>  <FINAL_SINGLE_POINT_ENERGY>  (1758) 
0

>  <NONCOV_INTER_ENERGY_QM>  (1758) 
0

>  <FF_Energy>  (1758) 
15.65

>  <QM_Energy>  (1758) 
-0.84

>  <source>  (1758) 
ACET_PRPA_21

>  <Index>  (1758) 
26192

$$$$
ACET-pdb3wt4-A-ASP-276:PRPA-pdb3wt4-A-ILE-381
     RDKit          3D

 18 16  0  0  0  0  0  0  0  0999 V2000
   -0.0177    1.4412   -0.0425 C   0  0  0  0  0  0  0  0  0  0  0  0
    0.6046    1.7889   -0.7443 H   0  0  0  0  0  0  0  0  0  0  0  0
    0.2287    1.8314    0.8442 H   0  0  0  0  0  0  0  0  0  0  0  0
   -1.0005    1.8443   -0.2866 H   0  0  0  0  0  0  0  0  0  0  0  0
    0.0000    0.0000    0.0000 C   0  0  0  0  0  0  0  0  0  0  0  0
   -1.1095   -0.5475   -0.0000 O   0  0  0  0  0  1  0  0  0  0  0  0
    1.1095   -0.5654    0.0000 O   0  0  0  0  0  0  0  0  0  0  0  0
    1.3601    2.5185    4.5727 C   0  0  0  0  0  0  0  0  0  0  0  0
    2.1541    2.1390    4.0882 H   0  0  0  0  0  0  0  0  0  0  0  0
    1.6323    2.5840    5.6261 H   0  0  0  0  0  0  0  0  0  0  0  0
    1.1950    3.5083    4.1473 H   0  0  0  0  0  0  0  0  0  0  0  0
    0.0823    1.6501    4.4270 C   0  0  0  0  0  0  0  0  0  0  0  0
   -0.5631    1.9375    5.1192 H   0  0  0  0  0  0  0  0  0  0  0  0
    0.3218    0.6025    4.6095 H   0  0  0  0  0  0  0  0  0  0  0  0
   -0.5438    1.8354    3.0433 C   0  0  0  0  0  0  0  0  0  0  0  0
   -1.3828    1.2989    2.9866 H   0  0  0  0  0  0  0  0  0  0  0  0
   -0.7527    2.8007    2.9021 H   0  0  0  0  0  0  0  0  0  0  0  0
    0.0995    1.5268    2.3464 H   0  0  0  0  0  0  0  0  0  0  0  0
  1  5  1  0
  5  6  1  0
  5  7  2  0
  1  2  1  0
  1  3  1  0
  1  4  1  0
  8 12  1  0
 12 15  1  0
  8  9  1  0
  8 10  1  0
  8 11  1  0
 12 13  1  0
 12 14  1  0
 15 16  1  0
 15 17  1  0
 15 18  1  0
M  CHG  1   6  -1
M  END
>  <PDB_ID>  (1759) 
pdb3wt4

>  <RESIDUE_NAME>  (1759) 
ASP   ILE

>  <FRAG_NAME>  (1759) 
ACET   PRPA

>  <FRAG_ATOM_NUM>  (1759) 
fragi: 7  fragj: 11

>  <atom.prop.CHAIN_ID>  (1759) 
A A A A A A A Z Z Z Z Z Z Z Z Z Z Z

>  <atom.prop.IS_HEAVY_ATOM>  (1759) 
1 0 0 0 1 1 1 1 0 0 0 1 0 0 1 0 0 0

>  <DIFUSE_FUNC_ATOM>  (1759) 
atom 6   atom 7   

>  <FINAL_SINGLE_POINT_ENERGY>  (1759) 
0

>  <NONCOV_INTER_ENERGY_QM>  (1759) 
0

>  <FF_Energy>  (1759) 
22.65

>  <QM_Energy>  (1759) 
3.34

>  <source>  (1759) 
ACET_PRPA_21

>  <Index>  (1759) 
27183

$$$$
ACET-pdb3zh9-B-GLU-55:PRPA-pdb3zh9-B-LYS-94
     RDKit          3D

 18 16  0  0  0  0  0  0  0  0999 V2000
    0.0148    1.5193    0.0043 C   0  0  0  0  0  0  0  0  0  0  0  0
    0.2289    1.8152   -0.9105 H   0  0  0  0  0  0  0  0  0  0  0  0
    0.6988    1.8054    0.6534 H   0  0  0  0  0  0  0  0  0  0  0  0
   -0.9397    1.9594    0.2929 H   0  0  0  0  0  0  0  0  0  0  0  0
    0.0000    0.0000    0.0000 C   0  0  0  0  0  0  0  0  0  0  0  0
   -1.0996   -0.5978    0.0000 O   0  0  0  0  0  1  0  0  0  0  0  0
    1.0996   -0.5951   -0.0000 O   0  0  0  0  0  0  0  0  0  0  0  0
   -4.2503   -2.8724    0.5436 C   0  0  0  0  0  0  0  0  0  0  0  0
   -4.6377   -2.4611    1.3724 H   0  0  0  0  0  0  0  0  0  0  0  0
   -4.1455   -3.8585    0.6853 H   0  0  0  0  0  0  0  0  0  0  0  0
   -4.9368   -2.7057   -0.2865 H   0  0  0  0  0  0  0  0  0  0  0  0
   -2.8880   -2.2628    0.2820 C   0  0  0  0  0  0  0  0  0  0  0  0
   -2.5055   -2.6736   -0.5476 H   0  0  0  0  0  0  0  0  0  0  0  0
   -2.9976   -1.2770    0.1407 H   0  0  0  0  0  0  0  0  0  0  0  0
   -1.9205   -2.4820    1.4211 C   0  0  0  0  0  0  0  0  0  0  0  0
   -2.3984   -2.9327    2.1765 H   0  0  0  0  0  0  0  0  0  0  0  0
   -1.1716   -3.0687    1.1077 H   0  0  0  0  0  0  0  0  0  0  0  0
   -1.5112   -1.5340    1.7702 H   0  0  0  0  0  0  0  0  0  0  0  0
  1  5  1  0
  5  6  1  0
  5  7  2  0
  1  2  1  0
  1  3  1  0
  1  4  1  0
  8 12  1  0
 12 15  1  0
  8  9  1  0
  8 10  1  0
  8 11  1  0
 12 13  1  0
 12 14  1  0
 15 16  1  0
 15 17  1  0
 15 18  1  0
M  CHG  1   6  -1
M  END
>  <PDB_ID>  (1760) 
pdb3zh9

>  <RESIDUE_NAME>  (1760) 
GLU   LYS

>  <FRAG_NAME>  (1760) 
ACET   PRPA

>  <FRAG_ATOM_NUM>  (1760) 
fragi: 7  fragj: 11

>  <atom.prop.CHAIN_ID>  (1760) 
A A A A A A A Z Z Z Z Z Z Z Z Z Z Z

>  <atom.prop.IS_HEAVY_ATOM>  (1760) 
1 0 0 0 1 1 1 1 0 0 0 1 0 0 1 0 0 0

>  <DIFUSE_FUNC_ATOM>  (1760) 
atom 6   atom 7   

>  <FINAL_SINGLE_POINT_ENERGY>  (1760) 
0

>  <NONCOV_INTER_ENERGY_QM>  (1760) 
0

>  <FF_Energy>  (1760) 
32.46

>  <QM_Energy>  (1760) 
6.34

>  <source>  (1760) 
ACET_PRPA_21

>  <Index>  (1760) 
27263

$$$$
ACET-pdb3zhw-A-GLU-14:PRPA-pdb3zhw-A-ARG-85
     RDKit          3D

 18 16  0  0  0  0  0  0  0  0999 V2000
    0.0213    1.5099    0.0287 C   0  0  0  0  0  0  0  0  0  0  0  0
    0.9322    1.8014   -0.2105 H   0  0  0  0  0  0  0  0  0  0  0  0
   -0.2247    1.7953    0.9403 H   0  0  0  0  0  0  0  0  0  0  0  0
   -0.6774    1.9655   -0.6729 H   0  0  0  0  0  0  0  0  0  0  0  0
    0.0000    0.0000    0.0000 C   0  0  0  0  0  0  0  0  0  0  0  0
   -1.0916   -0.5946   -0.0000 O   0  0  0  0  0  1  0  0  0  0  0  0
    1.0916   -0.6016    0.0000 O   0  0  0  0  0  0  0  0  0  0  0  0
   -4.1156    1.4270    1.4274 C   0  0  0  0  0  0  0  0  0  0  0  0
   -3.6415    2.2590    1.1547 H   0  0  0  0  0  0  0  0  0  0  0  0
   -3.4833    0.8099    1.8879 H   0  0  0  0  0  0  0  0  0  0  0  0
   -4.9004    1.6990    2.1332 H   0  0  0  0  0  0  0  0  0  0  0  0
   -4.6204    0.7377    0.1738 C   0  0  0  0  0  0  0  0  0  0  0  0
   -5.5651    0.4593    0.3057 H   0  0  0  0  0  0  0  0  0  0  0  0
   -4.5449    1.3576   -0.5989 H   0  0  0  0  0  0  0  0  0  0  0  0
   -3.7951   -0.4939   -0.1208 C   0  0  0  0  0  0  0  0  0  0  0  0
   -3.6916   -0.5706   -1.1118 H   0  0  0  0  0  0  0  0  0  0  0  0
   -2.8960   -0.3744    0.3014 H   0  0  0  0  0  0  0  0  0  0  0  0
   -4.2552   -1.4040    0.2641 H   0  0  0  0  0  0  0  0  0  0  0  0
  1  5  1  0
  5  6  1  0
  5  7  2  0
  1  2  1  0
  1  3  1  0
  1  4  1  0
  8 12  1  0
 12 15  1  0
  8  9  1  0
  8 10  1  0
  8 11  1  0
 12 13  1  0
 12 14  1  0
 15 16  1  0
 15 17  1  0
 15 18  1  0
M  CHG  1   6  -1
M  END
>  <PDB_ID>  (1761) 
pdb3zhw

>  <RESIDUE_NAME>  (1761) 
GLU   ARG

>  <FRAG_NAME>  (1761) 
ACET   PRPA

>  <FRAG_ATOM_NUM>  (1761) 
fragi: 7  fragj: 11

>  <atom.prop.CHAIN_ID>  (1761) 
A A A A A A A Z Z Z Z Z Z Z Z Z Z Z

>  <atom.prop.IS_HEAVY_ATOM>  (1761) 
1 0 0 0 1 1 1 1 0 0 0 1 0 0 1 0 0 0

>  <DIFUSE_FUNC_ATOM>  (1761) 
atom 6   atom 7   

>  <FINAL_SINGLE_POINT_ENERGY>  (1761) 
0

>  <NONCOV_INTER_ENERGY_QM>  (1761) 
0

>  <FF_Energy>  (1761) 
21.48

>  <QM_Energy>  (1761) 
1.29

>  <source>  (1761) 
ACET_PRPA_21

>  <Index>  (1761) 
27549

$$$$
ACET-pdb3w6g-D-GLU-66:PRPA-pdb3w6g-D-ARG-61
     RDKit          3D

 18 16  0  0  0  0  0  0  0  0999 V2000
    0.0073    1.5202   -0.0078 C   0  0  0  0  0  0  0  0  0  0  0  0
   -0.6513    1.8244    0.6516 H   0  0  0  0  0  0  0  0  0  0  0  0
   -0.2057    1.8143   -0.9189 H   0  0  0  0  0  0  0  0  0  0  0  0
    0.9773    1.9355    0.2654 H   0  0  0  0  0  0  0  0  0  0  0  0
    0.0000    0.0000    0.0000 C   0  0  0  0  0  0  0  0  0  0  0  0
   -1.0967   -0.5923   -0.0000 O   0  0  0  0  0  1  0  0  0  0  0  0
    1.0967   -0.6036    0.0000 O   0  0  0  0  0  0  0  0  0  0  0  0
   -0.7024   -3.1703    3.6856 C   0  0  0  0  0  0  0  0  0  0  0  0
    0.1903   -3.5050    3.9679 H   0  0  0  0  0  0  0  0  0  0  0  0
   -1.3956   -3.8664    3.8371 H   0  0  0  0  0  0  0  0  0  0  0  0
   -0.9500   -2.3073    4.3036 H   0  0  0  0  0  0  0  0  0  0  0  0
   -0.6502   -2.8634    2.2039 C   0  0  0  0  0  0  0  0  0  0  0  0
   -1.1249   -3.5851    1.6934 H   0  0  0  0  0  0  0  0  0  0  0  0
   -1.1035   -1.9868    2.0257 H   0  0  0  0  0  0  0  0  0  0  0  0
    0.7737   -2.7693    1.6644 C   0  0  0  0  0  0  0  0  0  0  0  0
    0.7466   -2.2452    0.8174 H   0  0  0  0  0  0  0  0  0  0  0  0
    1.3264   -2.2923    2.3432 H   0  0  0  0  0  0  0  0  0  0  0  0
    1.2045   -3.7514    1.4697 H   0  0  0  0  0  0  0  0  0  0  0  0
  1  5  1  0
  5  6  1  0
  5  7  2  0
  1  2  1  0
  1  3  1  0
  1  4  1  0
  8 12  1  0
 12 15  1  0
  8  9  1  0
  8 10  1  0
  8 11  1  0
 12 13  1  0
 12 14  1  0
 15 16  1  0
 15 17  1  0
 15 18  1  0
M  CHG  1   6  -1
M  END
>  <PDB_ID>  (1762) 
pdb3w6g

>  <RESIDUE_NAME>  (1762) 
GLU   ARG

>  <FRAG_NAME>  (1762) 
ACET   PRPA

>  <FRAG_ATOM_NUM>  (1762) 
fragi: 7  fragj: 11

>  <atom.prop.CHAIN_ID>  (1762) 
A A A A A A A Z Z Z Z Z Z Z Z Z Z Z

>  <atom.prop.IS_HEAVY_ATOM>  (1762) 
1 0 0 0 1 1 1 1 0 0 0 1 0 0 1 0 0 0

>  <DIFUSE_FUNC_ATOM>  (1762) 
atom 6   atom 7   

>  <FINAL_SINGLE_POINT_ENERGY>  (1762) 
0

>  <NONCOV_INTER_ENERGY_QM>  (1762) 
0

>  <FF_Energy>  (1762) 
19.54

>  <QM_Energy>  (1762) 
-0.15

>  <source>  (1762) 
ACET_PRPA_21

>  <Index>  (1762) 
28156

$$$$
ACET-pdb4yhc-A-GLU-709:PRPA-pdb4yhc-A-LYS-681
     RDKit          3D

 18 16  0  0  0  0  0  0  0  0999 V2000
   -0.0152    1.5144    0.0271 C   0  0  0  0  0  0  0  0  0  0  0  0
   -0.5601    1.8188   -0.7232 H   0  0  0  0  0  0  0  0  0  0  0  0
    0.9105    1.8203   -0.0156 H   0  0  0  0  0  0  0  0  0  0  0  0
   -0.4617    1.8828    0.9507 H   0  0  0  0  0  0  0  0  0  0  0  0
    0.0000    0.0000    0.0000 C   0  0  0  0  0  0  0  0  0  0  0  0
   -1.1270   -0.5864   -0.0000 O   0  0  0  0  0  1  0  0  0  0  0  0
    1.1270   -0.5842   -0.0000 O   0  0  0  0  0  0  0  0  0  0  0  0
   -3.5259   -3.5165   -0.4957 C   0  0  0  0  0  0  0  0  0  0  0  0
   -4.1819   -2.8595   -0.1001 H   0  0  0  0  0  0  0  0  0  0  0  0
   -3.8279   -4.4464   -0.2416 H   0  0  0  0  0  0  0  0  0  0  0  0
   -3.5814   -3.4322   -1.5810 H   0  0  0  0  0  0  0  0  0  0  0  0
   -2.1619   -3.2699    0.1565 C   0  0  0  0  0  0  0  0  0  0  0  0
   -1.9357   -2.2824    0.0701 H   0  0  0  0  0  0  0  0  0  0  0  0
   -2.2367   -3.4705    1.1496 H   0  0  0  0  0  0  0  0  0  0  0  0
   -0.9933   -4.0837   -0.4132 C   0  0  0  0  0  0  0  0  0  0  0  0
   -1.1604   -5.0461   -0.2396 H   0  0  0  0  0  0  0  0  0  0  0  0
   -0.9254   -3.9066   -1.3865 H   0  0  0  0  0  0  0  0  0  0  0  0
   -0.0490   -3.8067    0.0554 H   0  0  0  0  0  0  0  0  0  0  0  0
  1  5  1  0
  5  6  1  0
  5  7  2  0
  1  2  1  0
  1  3  1  0
  1  4  1  0
  8 12  1  0
 12 15  1  0
  8  9  1  0
  8 10  1  0
  8 11  1  0
 12 13  1  0
 12 14  1  0
 15 16  1  0
 15 17  1  0
 15 18  1  0
M  CHG  1   6  -1
M  END
>  <PDB_ID>  (1763) 
pdb4yhc

>  <RESIDUE_NAME>  (1763) 
GLU   LYS

>  <FRAG_NAME>  (1763) 
ACET   PRPA

>  <FRAG_ATOM_NUM>  (1763) 
fragi: 7  fragj: 11

>  <atom.prop.CHAIN_ID>  (1763) 
A A A A A A A Z Z Z Z Z Z Z Z Z Z Z

>  <atom.prop.IS_HEAVY_ATOM>  (1763) 
1 0 0 0 1 1 1 1 0 0 0 1 0 0 1 0 0 0

>  <DIFUSE_FUNC_ATOM>  (1763) 
atom 6   atom 7   

>  <FINAL_SINGLE_POINT_ENERGY>  (1763) 
0

>  <NONCOV_INTER_ENERGY_QM>  (1763) 
0

>  <FF_Energy>  (1763) 
17.55

>  <QM_Energy>  (1763) 
-1.53

>  <source>  (1763) 
ACET_PRPA_21

>  <Index>  (1763) 
28191

$$$$
ACET-pdb3zlb-A-ASP-68:PRPA-pdb3zlb-A-LYS-64
     RDKit          3D

 18 16  0  0  0  0  0  0  0  0999 V2000
    0.0142    1.4930   -0.0066 C   0  0  0  0  0  0  0  0  0  0  0  0
    0.8669    1.7831   -0.3663 H   0  0  0  0  0  0  0  0  0  0  0  0
   -0.0804    1.7979    0.9094 H   0  0  0  0  0  0  0  0  0  0  0  0
   -0.7890    1.9198   -0.6073 H   0  0  0  0  0  0  0  0  0  0  0  0
    0.0000    0.0000    0.0000 C   0  0  0  0  0  0  0  0  0  0  0  0
   -1.0970   -0.5922   -0.0000 O   0  0  0  0  0  1  0  0  0  0  0  0
    1.0970   -0.5779    0.0000 O   0  0  0  0  0  0  0  0  0  0  0  0
    4.6627   -0.4952    0.6145 C   0  0  0  0  0  0  0  0  0  0  0  0
    5.5588   -0.2493    0.9261 H   0  0  0  0  0  0  0  0  0  0  0  0
    3.9471    0.2294    1.0029 H   0  0  0  0  0  0  0  0  0  0  0  0
    4.6696   -0.4600   -0.4749 H   0  0  0  0  0  0  0  0  0  0  0  0
    4.3651   -1.9144    1.1211 C   0  0  0  0  0  0  0  0  0  0  0  0
    4.6983   -2.5549    0.4741 H   0  0  0  0  0  0  0  0  0  0  0  0
    4.8137   -2.0439    1.9718 H   0  0  0  0  0  0  0  0  0  0  0  0
    2.8929   -2.1913    1.3291 C   0  0  0  0  0  0  0  0  0  0  0  0
    2.7134   -2.2451    2.2809 H   0  0  0  0  0  0  0  0  0  0  0  0
    2.3776   -1.4716    0.9339 H   0  0  0  0  0  0  0  0  0  0  0  0
    2.5732   -3.1272    0.8708 H   0  0  0  0  0  0  0  0  0  0  0  0
  1  5  1  0
  5  6  1  0
  5  7  2  0
  1  2  1  0
  1  3  1  0
  1  4  1  0
  8 12  1  0
 12 15  1  0
  8  9  1  0
  8 10  1  0
  8 11  1  0
 12 13  1  0
 12 14  1  0
 15 16  1  0
 15 17  1  0
 15 18  1  0
M  CHG  1   6  -1
M  END
>  <PDB_ID>  (1764) 
pdb3zlb

>  <RESIDUE_NAME>  (1764) 
ASP   LYS

>  <FRAG_NAME>  (1764) 
ACET   PRPA

>  <FRAG_ATOM_NUM>  (1764) 
fragi: 7  fragj: 11

>  <atom.prop.CHAIN_ID>  (1764) 
A A A A A A A Z Z Z Z Z Z Z Z Z Z Z

>  <atom.prop.IS_HEAVY_ATOM>  (1764) 
1 0 0 0 1 1 1 1 0 0 0 1 0 0 1 0 0 0

>  <DIFUSE_FUNC_ATOM>  (1764) 
atom 6   atom 7   

>  <FINAL_SINGLE_POINT_ENERGY>  (1764) 
0

>  <NONCOV_INTER_ENERGY_QM>  (1764) 
0

>  <FF_Energy>  (1764) 
24.37

>  <QM_Energy>  (1764) 
1.09

>  <source>  (1764) 
ACET_PRPA_21

>  <Index>  (1764) 
29857

$$$$
ACET-pdb3zlb-A-ASP-68:PRPA-pdb3zlb-A-LYS-64
     RDKit          3D

 18 16  0  0  0  0  0  0  0  0999 V2000
    0.0142    1.4930   -0.0066 C   0  0  0  0  0  0  0  0  0  0  0  0
    0.8669    1.7831   -0.3663 H   0  0  0  0  0  0  0  0  0  0  0  0
   -0.0804    1.7979    0.9094 H   0  0  0  0  0  0  0  0  0  0  0  0
   -0.7890    1.9198   -0.6073 H   0  0  0  0  0  0  0  0  0  0  0  0
    0.0000    0.0000    0.0000 C   0  0  0  0  0  0  0  0  0  0  0  0
   -1.0970   -0.5922   -0.0000 O   0  0  0  0  0  1  0  0  0  0  0  0
    1.0970   -0.5779    0.0000 O   0  0  0  0  0  0  0  0  0  0  0  0
    4.3651   -1.9144    1.1211 C   0  0  0  0  0  0  0  0  0  0  0  0
    4.6983   -2.5549    0.4741 H   0  0  0  0  0  0  0  0  0  0  0  0
    4.8137   -2.0439    1.9718 H   0  0  0  0  0  0  0  0  0  0  0  0
    4.5763   -0.9073    0.7617 H   0  0  0  0  0  0  0  0  0  0  0  0
    2.8929   -2.1913    1.3291 C   0  0  0  0  0  0  0  0  0  0  0  0
    2.7134   -2.2451    2.2809 H   0  0  0  0  0  0  0  0  0  0  0  0
    2.3776   -1.4716    0.9339 H   0  0  0  0  0  0  0  0  0  0  0  0
    2.4470   -3.4967    0.6898 C   0  0  0  0  0  0  0  0  0  0  0  0
    2.8953   -3.6095   -0.1624 H   0  0  0  0  0  0  0  0  0  0  0  0
    2.6578   -4.2355    1.2833 H   0  0  0  0  0  0  0  0  0  0  0  0
    1.3710   -3.4900    0.5157 H   0  0  0  0  0  0  0  0  0  0  0  0
  1  5  1  0
  5  6  1  0
  5  7  2  0
  1  2  1  0
  1  3  1  0
  1  4  1  0
  8 12  1  0
 12 15  1  0
  8  9  1  0
  8 10  1  0
  8 11  1  0
 12 13  1  0
 12 14  1  0
 15 16  1  0
 15 17  1  0
 15 18  1  0
M  CHG  1   6  -1
M  END
>  <PDB_ID>  (1765) 
pdb3zlb

>  <RESIDUE_NAME>  (1765) 
ASP   LYS

>  <FRAG_NAME>  (1765) 
ACET   PRPA

>  <FRAG_ATOM_NUM>  (1765) 
fragi: 7  fragj: 11

>  <atom.prop.CHAIN_ID>  (1765) 
A A A A A A A Z Z Z Z Z Z Z Z Z Z Z

>  <atom.prop.IS_HEAVY_ATOM>  (1765) 
1 0 0 0 1 1 1 1 0 0 0 1 0 0 1 0 0 0

>  <DIFUSE_FUNC_ATOM>  (1765) 
atom 6   atom 7   

>  <FINAL_SINGLE_POINT_ENERGY>  (1765) 
0

>  <NONCOV_INTER_ENERGY_QM>  (1765) 
0

>  <FF_Energy>  (1765) 
28.0

>  <QM_Energy>  (1765) 
-0.24

>  <source>  (1765) 
ACET_PRPA_21

>  <Index>  (1765) 
29896

$$$$
ACET-pdb3zlb-A-ASP-68:PRPA-pdb3zlb-A-LYS-64
     RDKit          3D

 18 16  0  0  0  0  0  0  0  0999 V2000
    0.0142    1.4930   -0.0066 C   0  0  0  0  0  0  0  0  0  0  0  0
    0.8669    1.7831   -0.3663 H   0  0  0  0  0  0  0  0  0  0  0  0
   -0.0804    1.7979    0.9094 H   0  0  0  0  0  0  0  0  0  0  0  0
   -0.7890    1.9198   -0.6073 H   0  0  0  0  0  0  0  0  0  0  0  0
    0.0000    0.0000    0.0000 C   0  0  0  0  0  0  0  0  0  0  0  0
   -1.0970   -0.5922   -0.0000 O   0  0  0  0  0  1  0  0  0  0  0  0
    1.0970   -0.5779    0.0000 O   0  0  0  0  0  0  0  0  0  0  0  0
    2.8929   -2.1913    1.3291 C   0  0  0  0  0  0  0  0  0  0  0  0
    2.7134   -2.2451    2.2809 H   0  0  0  0  0  0  0  0  0  0  0  0
    2.3776   -1.4716    0.9339 H   0  0  0  0  0  0  0  0  0  0  0  0
    3.9539   -1.9917    1.1792 H   0  0  0  0  0  0  0  0  0  0  0  0
    2.4470   -3.4967    0.6898 C   0  0  0  0  0  0  0  0  0  0  0  0
    2.8953   -3.6095   -0.1624 H   0  0  0  0  0  0  0  0  0  0  0  0
    2.6578   -4.2355    1.2833 H   0  0  0  0  0  0  0  0  0  0  0  0
    0.9346   -3.4873    0.4450 C   0  0  0  0  0  0  0  0  0  0  0  0
    0.4761   -3.5641    1.2962 H   0  0  0  0  0  0  0  0  0  0  0  0
    0.6902   -2.6546    0.0119 H   0  0  0  0  0  0  0  0  0  0  0  0
    0.6016   -4.3072   -0.1913 H   0  0  0  0  0  0  0  0  0  0  0  0
  1  5  1  0
  5  6  1  0
  5  7  2  0
  1  2  1  0
  1  3  1  0
  1  4  1  0
  8 12  1  0
 12 15  1  0
  8  9  1  0
  8 10  1  0
  8 11  1  0
 12 13  1  0
 12 14  1  0
 15 16  1  0
 15 17  1  0
 15 18  1  0
M  CHG  1   6  -1
M  END
>  <PDB_ID>  (1766) 
pdb3zlb

>  <RESIDUE_NAME>  (1766) 
ASP   LYS

>  <FRAG_NAME>  (1766) 
ACET   PRPA

>  <FRAG_ATOM_NUM>  (1766) 
fragi: 7  fragj: 11

>  <atom.prop.CHAIN_ID>  (1766) 
A A A A A A A Z Z Z Z Z Z Z Z Z Z Z

>  <atom.prop.IS_HEAVY_ATOM>  (1766) 
1 0 0 0 1 1 1 1 0 0 0 1 0 0 1 0 0 0

>  <DIFUSE_FUNC_ATOM>  (1766) 
atom 6   atom 7   

>  <FINAL_SINGLE_POINT_ENERGY>  (1766) 
0

>  <NONCOV_INTER_ENERGY_QM>  (1766) 
0

>  <FF_Energy>  (1766) 
28.81

>  <QM_Energy>  (1766) 
0.01

>  <source>  (1766) 
ACET_PRPA_21

>  <Index>  (1766) 
29898

$$$$
ACET-pdb4yeg-B-GLU-8:PRPA-pdb4yeg-B-LYS-11
     RDKit          3D

 18 16  0  0  0  0  0  0  0  0999 V2000
   -0.0023    1.5101    0.0562 C   0  0  0  0  0  0  0  0  0  0  0  0
   -0.5731    1.8320   -0.6733 H   0  0  0  0  0  0  0  0  0  0  0  0
    0.9278    1.8101   -0.0328 H   0  0  0  0  0  0  0  0  0  0  0  0
   -0.4014    1.8779    1.0015 H   0  0  0  0  0  0  0  0  0  0  0  0
    0.0000    0.0000    0.0000 C   0  0  0  0  0  0  0  0  0  0  0  0
   -1.0982   -0.5906    0.0000 O   0  0  0  0  0  1  0  0  0  0  0  0
    1.0982   -0.5979   -0.0000 O   0  0  0  0  0  0  0  0  0  0  0  0
    2.2893    3.4215   -1.8030 C   0  0  0  0  0  0  0  0  0  0  0  0
    1.5805    3.7109   -1.1672 H   0  0  0  0  0  0  0  0  0  0  0  0
    2.2307    3.9471   -2.6464 H   0  0  0  0  0  0  0  0  0  0  0  0
    3.2526    3.6447   -1.3446 H   0  0  0  0  0  0  0  0  0  0  0  0
    2.0882    1.9513   -2.1265 C   0  0  0  0  0  0  0  0  0  0  0  0
    2.7990    1.6555   -2.7625 H   0  0  0  0  0  0  0  0  0  0  0  0
    2.1488    1.4194   -1.2834 H   0  0  0  0  0  0  0  0  0  0  0  0
    0.7285    1.7112   -2.7623 C   0  0  0  0  0  0  0  0  0  0  0  0
    0.0186    2.0093   -2.1261 H   0  0  0  0  0  0  0  0  0  0  0  0
    0.6693    2.2448   -3.6047 H   0  0  0  0  0  0  0  0  0  0  0  0
    0.5619    0.6613   -3.0033 H   0  0  0  0  0  0  0  0  0  0  0  0
  1  5  1  0
  5  6  1  0
  5  7  2  0
  1  2  1  0
  1  3  1  0
  1  4  1  0
  8 12  1  0
 12 15  1  0
  8  9  1  0
  8 10  1  0
  8 11  1  0
 12 13  1  0
 12 14  1  0
 15 16  1  0
 15 17  1  0
 15 18  1  0
M  CHG  1   6  -1
M  END
>  <PDB_ID>  (1767) 
pdb4yeg

>  <RESIDUE_NAME>  (1767) 
GLU   LYS

>  <FRAG_NAME>  (1767) 
ACET   PRPA

>  <FRAG_ATOM_NUM>  (1767) 
fragi: 7  fragj: 11

>  <atom.prop.CHAIN_ID>  (1767) 
A A A A A A A Z Z Z Z Z Z Z Z Z Z Z

>  <atom.prop.IS_HEAVY_ATOM>  (1767) 
1 0 0 0 1 1 1 1 0 0 0 1 0 0 1 0 0 0

>  <DIFUSE_FUNC_ATOM>  (1767) 
atom 6   atom 7   

>  <FINAL_SINGLE_POINT_ENERGY>  (1767) 
0

>  <NONCOV_INTER_ENERGY_QM>  (1767) 
0

>  <FF_Energy>  (1767) 
28.95

>  <QM_Energy>  (1767) 
4.38

>  <source>  (1767) 
ACET_PRPA_21

>  <Index>  (1767) 
30457

$$$$
ACET-pdb4yeg-B-GLU-8:PRPA-pdb4yeg-B-LYS-11
     RDKit          3D

 18 16  0  0  0  0  0  0  0  0999 V2000
   -0.0023    1.5101    0.0562 C   0  0  0  0  0  0  0  0  0  0  0  0
   -0.5731    1.8320   -0.6733 H   0  0  0  0  0  0  0  0  0  0  0  0
    0.9278    1.8101   -0.0328 H   0  0  0  0  0  0  0  0  0  0  0  0
   -0.4014    1.8779    1.0015 H   0  0  0  0  0  0  0  0  0  0  0  0
    0.0000    0.0000    0.0000 C   0  0  0  0  0  0  0  0  0  0  0  0
   -1.0982   -0.5906    0.0000 O   0  0  0  0  0  1  0  0  0  0  0  0
    1.0982   -0.5979   -0.0000 O   0  0  0  0  0  0  0  0  0  0  0  0
    2.0882    1.9513   -2.1265 C   0  0  0  0  0  0  0  0  0  0  0  0
    2.7990    1.6555   -2.7625 H   0  0  0  0  0  0  0  0  0  0  0  0
    2.1488    1.4194   -1.2834 H   0  0  0  0  0  0  0  0  0  0  0  0
    2.2325    3.0065   -1.8944 H   0  0  0  0  0  0  0  0  0  0  0  0
    0.7285    1.7112   -2.7623 C   0  0  0  0  0  0  0  0  0  0  0  0
    0.0186    2.0093   -2.1261 H   0  0  0  0  0  0  0  0  0  0  0  0
    0.6693    2.2448   -3.6047 H   0  0  0  0  0  0  0  0  0  0  0  0
    0.4969    0.2515   -3.0974 C   0  0  0  0  0  0  0  0  0  0  0  0
    1.2016   -0.0532   -3.7366 H   0  0  0  0  0  0  0  0  0  0  0  0
    0.5509   -0.2886   -2.2580 H   0  0  0  0  0  0  0  0  0  0  0  0
   -0.4848    0.1143   -3.5506 H   0  0  0  0  0  0  0  0  0  0  0  0
  1  5  1  0
  5  6  1  0
  5  7  2  0
  1  2  1  0
  1  3  1  0
  1  4  1  0
  8 12  1  0
 12 15  1  0
  8  9  1  0
  8 10  1  0
  8 11  1  0
 12 13  1  0
 12 14  1  0
 15 16  1  0
 15 17  1  0
 15 18  1  0
M  CHG  1   6  -1
M  END
>  <PDB_ID>  (1768) 
pdb4yeg

>  <RESIDUE_NAME>  (1768) 
GLU   LYS

>  <FRAG_NAME>  (1768) 
ACET   PRPA

>  <FRAG_ATOM_NUM>  (1768) 
fragi: 7  fragj: 11

>  <atom.prop.CHAIN_ID>  (1768) 
A A A A A A A Z Z Z Z Z Z Z Z Z Z Z

>  <atom.prop.IS_HEAVY_ATOM>  (1768) 
1 0 0 0 1 1 1 1 0 0 0 1 0 0 1 0 0 0

>  <DIFUSE_FUNC_ATOM>  (1768) 
atom 6   atom 7   

>  <FINAL_SINGLE_POINT_ENERGY>  (1768) 
0

>  <NONCOV_INTER_ENERGY_QM>  (1768) 
0

>  <FF_Energy>  (1768) 
35.13

>  <QM_Energy>  (1768) 
4.23

>  <source>  (1768) 
ACET_PRPA_21

>  <Index>  (1768) 
30462

$$$$
ACET-pdb3zrh-A-ASP-248:PRPA-pdb3zrh-A-LYS-251
     RDKit          3D

 18 16  0  0  0  0  0  0  0  0999 V2000
    0.0058    1.5180    0.0095 C   0  0  0  0  0  0  0  0  0  0  0  0
    0.8932    1.8350   -0.3075 H   0  0  0  0  0  0  0  0  0  0  0  0
   -0.1618    1.8316    0.9371 H   0  0  0  0  0  0  0  0  0  0  0  0
   -0.7579    1.9499   -0.6372 H   0  0  0  0  0  0  0  0  0  0  0  0
    0.0000    0.0000    0.0000 C   0  0  0  0  0  0  0  0  0  0  0  0
   -1.1007   -0.5941   -0.0000 O   0  0  0  0  0  1  0  0  0  0  0  0
    1.1007   -0.5998    0.0000 O   0  0  0  0  0  0  0  0  0  0  0  0
    0.0136   -0.6493    3.0316 C   0  0  0  0  0  0  0  0  0  0  0  0
    0.1389   -1.4477    3.6201 H   0  0  0  0  0  0  0  0  0  0  0  0
   -0.2014   -0.9483    2.1025 H   0  0  0  0  0  0  0  0  0  0  0  0
   -0.8138   -0.0520    3.4147 H   0  0  0  0  0  0  0  0  0  0  0  0
    1.3068    0.1496    3.0054 C   0  0  0  0  0  0  0  0  0  0  0  0
    1.1780    0.9488    2.4193 H   0  0  0  0  0  0  0  0  0  0  0  0
    1.5188    0.4479    3.9361 H   0  0  0  0  0  0  0  0  0  0  0  0
    2.4743   -0.6557    2.4769 C   0  0  0  0  0  0  0  0  0  0  0  0
    2.6116   -1.4550    3.0612 H   0  0  0  0  0  0  0  0  0  0  0  0
    2.2710   -0.9554    1.5456 H   0  0  0  0  0  0  0  0  0  0  0  0
    3.3835   -0.0545    2.4714 H   0  0  0  0  0  0  0  0  0  0  0  0
  1  5  1  0
  5  6  1  0
  5  7  2  0
  1  2  1  0
  1  3  1  0
  1  4  1  0
  8 12  1  0
 12 15  1  0
  8  9  1  0
  8 10  1  0
  8 11  1  0
 12 13  1  0
 12 14  1  0
 15 16  1  0
 15 17  1  0
 15 18  1  0
M  CHG  1   6  -1
M  END
>  <PDB_ID>  (1769) 
pdb3zrh

>  <RESIDUE_NAME>  (1769) 
ASP   LYS

>  <FRAG_NAME>  (1769) 
ACET   PRPA

>  <FRAG_ATOM_NUM>  (1769) 
fragi: 7  fragj: 11

>  <atom.prop.CHAIN_ID>  (1769) 
A A A A A A A Z Z Z Z Z Z Z Z Z Z Z

>  <atom.prop.IS_HEAVY_ATOM>  (1769) 
1 0 0 0 1 1 1 1 0 0 0 1 0 0 1 0 0 0

>  <DIFUSE_FUNC_ATOM>  (1769) 
atom 6   atom 7   

>  <FINAL_SINGLE_POINT_ENERGY>  (1769) 
0

>  <NONCOV_INTER_ENERGY_QM>  (1769) 
0

>  <FF_Energy>  (1769) 
15.26

>  <QM_Energy>  (1769) 
-2.1

>  <source>  (1769) 
ACET_PRPA_21

>  <Index>  (1769) 
31978

$$$$
ACET-pdb4yx2-A-GLU-197:PRPA-pdb4yx2-A-LEU-136
     RDKit          3D

 18 16  0  0  0  0  0  0  0  0999 V2000
   -0.0262    1.5437    0.0464 C   0  0  0  0  0  0  0  0  0  0  0  0
    0.2625    1.8138    0.9511 H   0  0  0  0  0  0  0  0  0  0  0  0
   -0.9547    1.8249   -0.1367 H   0  0  0  0  0  0  0  0  0  0  0  0
    0.6236    2.0408   -0.6739 H   0  0  0  0  0  0  0  0  0  0  0  0
    0.0000    0.0000    0.0000 C   0  0  0  0  0  0  0  0  0  0  0  0
   -1.1006   -0.6123   -0.0000 O   0  0  0  0  0  1  0  0  0  0  0  0
    1.1006   -0.6038   -0.0000 O   0  0  0  0  0  0  0  0  0  0  0  0
   -5.8106   -0.0659    0.6024 C   0  0  0  0  0  0  0  0  0  0  0  0
   -6.2094    0.7753    0.2860 H   0  0  0  0  0  0  0  0  0  0  0  0
   -5.6543   -0.0649    1.5724 H   0  0  0  0  0  0  0  0  0  0  0  0
   -6.4992   -0.8779    0.3688 H   0  0  0  0  0  0  0  0  0  0  0  0
   -4.4533   -0.2197   -0.0845 C   0  0  0  0  0  0  0  0  0  0  0  0
   -4.5656   -0.0260   -1.0646 H   0  0  0  0  0  0  0  0  0  0  0  0
   -4.1018   -1.2466    0.0151 H   0  0  0  0  0  0  0  0  0  0  0  0
   -3.4244    0.7130    0.5029 C   0  0  0  0  0  0  0  0  0  0  0  0
   -3.3049    0.5180    1.4789 H   0  0  0  0  0  0  0  0  0  0  0  0
   -2.5465    0.5905    0.0351 H   0  0  0  0  0  0  0  0  0  0  0  0
   -3.7235    1.6635    0.3940 H   0  0  0  0  0  0  0  0  0  0  0  0
  1  5  1  0
  5  6  1  0
  5  7  2  0
  1  2  1  0
  1  3  1  0
  1  4  1  0
  8 12  1  0
 12 15  1  0
  8  9  1  0
  8 10  1  0
  8 11  1  0
 12 13  1  0
 12 14  1  0
 15 16  1  0
 15 17  1  0
 15 18  1  0
M  CHG  1   6  -1
M  END
>  <PDB_ID>  (1770) 
pdb4yx2

>  <RESIDUE_NAME>  (1770) 
GLU   LEU

>  <FRAG_NAME>  (1770) 
ACET   PRPA

>  <FRAG_ATOM_NUM>  (1770) 
fragi: 7  fragj: 11

>  <atom.prop.CHAIN_ID>  (1770) 
A A A A A A A Z Z Z Z Z Z Z Z Z Z Z

>  <atom.prop.IS_HEAVY_ATOM>  (1770) 
1 0 0 0 1 1 1 1 0 0 0 1 0 0 1 0 0 0

>  <DIFUSE_FUNC_ATOM>  (1770) 
atom 6   atom 7   

>  <FINAL_SINGLE_POINT_ENERGY>  (1770) 
0

>  <NONCOV_INTER_ENERGY_QM>  (1770) 
0

>  <FF_Energy>  (1770) 
18.56

>  <QM_Energy>  (1770) 
2.02

>  <source>  (1770) 
ACET_PRPA_21

>  <Index>  (1770) 
32424

$$$$
ACET-pdb4yx2-A-GLU-197:PRPA-pdb4yx2-A-LEU-136
     RDKit          3D

 18 16  0  0  0  0  0  0  0  0999 V2000
   -0.0262    1.5437    0.0464 C   0  0  0  0  0  0  0  0  0  0  0  0
    0.2625    1.8138    0.9511 H   0  0  0  0  0  0  0  0  0  0  0  0
   -0.9547    1.8249   -0.1367 H   0  0  0  0  0  0  0  0  0  0  0  0
    0.6236    2.0408   -0.6739 H   0  0  0  0  0  0  0  0  0  0  0  0
    0.0000    0.0000    0.0000 C   0  0  0  0  0  0  0  0  0  0  0  0
   -1.1006   -0.6123   -0.0000 O   0  0  0  0  0  1  0  0  0  0  0  0
    1.1006   -0.6038   -0.0000 O   0  0  0  0  0  0  0  0  0  0  0  0
   -3.4244    0.7130    0.5029 C   0  0  0  0  0  0  0  0  0  0  0  0
   -3.3049    0.5180    1.4789 H   0  0  0  0  0  0  0  0  0  0  0  0
   -2.5465    0.5905    0.0351 H   0  0  0  0  0  0  0  0  0  0  0  0
   -3.7235    1.6635    0.3940 H   0  0  0  0  0  0  0  0  0  0  0  0
   -4.4533   -0.2197   -0.0845 C   0  0  0  0  0  0  0  0  0  0  0  0
   -4.5656   -0.0260   -1.0646 H   0  0  0  0  0  0  0  0  0  0  0  0
   -5.4210   -0.1101    0.4052 H   0  0  0  0  0  0  0  0  0  0  0  0
   -3.9648   -1.6467    0.0539 C   0  0  0  0  0  0  0  0  0  0  0  0
   -4.6215   -2.2714   -0.3723 H   0  0  0  0  0  0  0  0  0  0  0  0
   -3.0758   -1.7449   -0.3972 H   0  0  0  0  0  0  0  0  0  0  0  0
   -3.8699   -1.8792    1.0239 H   0  0  0  0  0  0  0  0  0  0  0  0
  1  5  1  0
  5  6  1  0
  5  7  2  0
  1  2  1  0
  1  3  1  0
  1  4  1  0
  8 12  1  0
 12 15  1  0
  8  9  1  0
  8 10  1  0
  8 11  1  0
 12 13  1  0
 12 14  1  0
 15 16  1  0
 15 17  1  0
 15 18  1  0
M  CHG  1   6  -1
M  END
>  <PDB_ID>  (1771) 
pdb4yx2

>  <RESIDUE_NAME>  (1771) 
GLU   LEU

>  <FRAG_NAME>  (1771) 
ACET   PRPA

>  <FRAG_ATOM_NUM>  (1771) 
fragi: 7  fragj: 11

>  <atom.prop.CHAIN_ID>  (1771) 
A A A A A A A Z Z Z Z Z Z Z Z Z Z Z

>  <atom.prop.IS_HEAVY_ATOM>  (1771) 
1 0 0 0 1 1 1 1 0 0 0 1 0 0 1 0 0 0

>  <DIFUSE_FUNC_ATOM>  (1771) 
atom 6   atom 7   

>  <FINAL_SINGLE_POINT_ENERGY>  (1771) 
0

>  <NONCOV_INTER_ENERGY_QM>  (1771) 
0

>  <FF_Energy>  (1771) 
20.49

>  <QM_Energy>  (1771) 
1.54

>  <source>  (1771) 
ACET_PRPA_21

>  <Index>  (1771) 
32429

$$$$
ACET-pdb4ywk-A-GLU-232:PRPA-pdb4ywk-A-ARG-241
     RDKit          3D

 18 16  0  0  0  0  0  0  0  0999 V2000
    0.0066    1.5178    0.0114 C   0  0  0  0  0  0  0  0  0  0  0  0
    0.9221    1.8143   -0.1896 H   0  0  0  0  0  0  0  0  0  0  0  0
   -0.2914    1.8103    0.9017 H   0  0  0  0  0  0  0  0  0  0  0  0
   -0.6616    1.9539   -0.7313 H   0  0  0  0  0  0  0  0  0  0  0  0
    0.0000    0.0000    0.0000 C   0  0  0  0  0  0  0  0  0  0  0  0
   -1.0961   -0.5970   -0.0000 O   0  0  0  0  0  1  0  0  0  0  0  0
    1.0961   -0.5990   -0.0000 O   0  0  0  0  0  0  0  0  0  0  0  0
   -5.5287   -0.2502   -2.3745 C   0  0  0  0  0  0  0  0  0  0  0  0
   -5.4260   -1.0927   -2.9136 H   0  0  0  0  0  0  0  0  0  0  0  0
   -5.2986    0.6071   -3.0069 H   0  0  0  0  0  0  0  0  0  0  0  0
   -6.5564   -0.1895   -2.0165 H   0  0  0  0  0  0  0  0  0  0  0  0
   -4.5767   -0.2595   -1.1596 C   0  0  0  0  0  0  0  0  0  0  0  0
   -4.7239    0.5912   -0.6505 H   0  0  0  0  0  0  0  0  0  0  0  0
   -4.8304   -1.0357   -0.5793 H   0  0  0  0  0  0  0  0  0  0  0  0
   -3.0957   -0.3714   -1.4786 C   0  0  0  0  0  0  0  0  0  0  0  0
   -2.9468   -0.0879   -2.4289 H   0  0  0  0  0  0  0  0  0  0  0  0
   -2.5861    0.2395   -0.8705 H   0  0  0  0  0  0  0  0  0  0  0  0
   -2.7278   -1.3892   -1.3487 H   0  0  0  0  0  0  0  0  0  0  0  0
  1  5  1  0
  5  6  1  0
  5  7  2  0
  1  2  1  0
  1  3  1  0
  1  4  1  0
  8 12  1  0
 12 15  1  0
  8  9  1  0
  8 10  1  0
  8 11  1  0
 12 13  1  0
 12 14  1  0
 15 16  1  0
 15 17  1  0
 15 18  1  0
M  CHG  1   6  -1
M  END
>  <PDB_ID>  (1772) 
pdb4ywk

>  <RESIDUE_NAME>  (1772) 
GLU   ARG

>  <FRAG_NAME>  (1772) 
ACET   PRPA

>  <FRAG_ATOM_NUM>  (1772) 
fragi: 7  fragj: 11

>  <atom.prop.CHAIN_ID>  (1772) 
A A A A A A A Z Z Z Z Z Z Z Z Z Z Z

>  <atom.prop.IS_HEAVY_ATOM>  (1772) 
1 0 0 0 1 1 1 1 0 0 0 1 0 0 1 0 0 0

>  <DIFUSE_FUNC_ATOM>  (1772) 
atom 6   atom 7   

>  <FINAL_SINGLE_POINT_ENERGY>  (1772) 
0

>  <NONCOV_INTER_ENERGY_QM>  (1772) 
0

>  <FF_Energy>  (1772) 
22.21

>  <QM_Energy>  (1772) 
6.86

>  <source>  (1772) 
ACET_PRPA_21

>  <Index>  (1772) 
33587

$$$$
ACET-pdb3zu2-A-ASP-193:PRPA-pdb3zu2-A-LYS-200
     RDKit          3D

 18 16  0  0  0  0  0  0  0  0999 V2000
    0.0185    1.5307   -0.0014 C   0  0  0  0  0  0  0  0  0  0  0  0
    0.6722    1.8347   -0.6839 H   0  0  0  0  0  0  0  0  0  0  0  0
    0.2865    1.8411    0.9025 H   0  0  0  0  0  0  0  0  0  0  0  0
   -0.9516    1.9668   -0.2397 H   0  0  0  0  0  0  0  0  0  0  0  0
    0.0000    0.0000    0.0000 C   0  0  0  0  0  0  0  0  0  0  0  0
   -1.0918   -0.6106   -0.0000 O   0  0  0  0  0  1  0  0  0  0  0  0
    1.0918   -0.5992   -0.0000 O   0  0  0  0  0  0  0  0  0  0  0  0
    3.1503    4.6129   -3.0563 C   0  0  0  0  0  0  0  0  0  0  0  0
    4.0870    4.3995   -2.7591 H   0  0  0  0  0  0  0  0  0  0  0  0
    2.6914    5.2852   -2.3313 H   0  0  0  0  0  0  0  0  0  0  0  0
    3.1945    5.0850   -4.0378 H   0  0  0  0  0  0  0  0  0  0  0  0
    2.3760    3.2984   -3.1254 C   0  0  0  0  0  0  0  0  0  0  0  0
    2.0476    3.1776   -4.0638 H   0  0  0  0  0  0  0  0  0  0  0  0
    3.0059    2.5516   -2.8995 H   0  0  0  0  0  0  0  0  0  0  0  0
    1.1786    3.2097   -2.1884 C   0  0  0  0  0  0  0  0  0  0  0  0
    1.4954    3.3221   -1.2450 H   0  0  0  0  0  0  0  0  0  0  0  0
    0.5366    3.9470   -2.4097 H   0  0  0  0  0  0  0  0  0  0  0  0
    0.6640    2.2529   -2.2773 H   0  0  0  0  0  0  0  0  0  0  0  0
  1  5  1  0
  5  6  1  0
  5  7  2  0
  1  2  1  0
  1  3  1  0
  1  4  1  0
  8 12  1  0
 12 15  1  0
  8  9  1  0
  8 10  1  0
  8 11  1  0
 12 13  1  0
 12 14  1  0
 15 16  1  0
 15 17  1  0
 15 18  1  0
M  CHG  1   6  -1
M  END
>  <PDB_ID>  (1773) 
pdb3zu2

>  <RESIDUE_NAME>  (1773) 
ASP   LYS

>  <FRAG_NAME>  (1773) 
ACET   PRPA

>  <FRAG_ATOM_NUM>  (1773) 
fragi: 7  fragj: 11

>  <atom.prop.CHAIN_ID>  (1773) 
A A A A A A A Z Z Z Z Z Z Z Z Z Z Z

>  <atom.prop.IS_HEAVY_ATOM>  (1773) 
1 0 0 0 1 1 1 1 0 0 0 1 0 0 1 0 0 0

>  <DIFUSE_FUNC_ATOM>  (1773) 
atom 6   atom 7   

>  <FINAL_SINGLE_POINT_ENERGY>  (1773) 
0

>  <NONCOV_INTER_ENERGY_QM>  (1773) 
0

>  <FF_Energy>  (1773) 
24.38

>  <QM_Energy>  (1773) 
7.41

>  <source>  (1773) 
ACET_PRPA_21

>  <Index>  (1773) 
34226

$$$$
ACET-pdb4za1-C-GLU-60:PRPA-pdb4za1-C-LEU-18
     RDKit          3D

 18 16  0  0  0  0  0  0  0  0999 V2000
    0.0138    1.5200    0.0019 C   0  0  0  0  0  0  0  0  0  0  0  0
    0.4439    1.8137   -0.8348 H   0  0  0  0  0  0  0  0  0  0  0  0
    0.5190    1.8107    0.7964 H   0  0  0  0  0  0  0  0  0  0  0  0
   -0.9805    1.9643    0.0474 H   0  0  0  0  0  0  0  0  0  0  0  0
    0.0000    0.0000    0.0000 C   0  0  0  0  0  0  0  0  0  0  0  0
   -1.1019   -0.5946    0.0000 O   0  0  0  0  0  1  0  0  0  0  0  0
    1.1019   -0.6001   -0.0000 O   0  0  0  0  0  0  0  0  0  0  0  0
    3.0030    2.4594    2.9055 C   0  0  0  0  0  0  0  0  0  0  0  0
    3.5589    2.2475    3.7312 H   0  0  0  0  0  0  0  0  0  0  0  0
    2.7775    3.5258    2.9124 H   0  0  0  0  0  0  0  0  0  0  0  0
    3.5569    2.1227    2.0292 H   0  0  0  0  0  0  0  0  0  0  0  0
    1.7153    1.6397    3.0725 C   0  0  0  0  0  0  0  0  0  0  0  0
    1.2246    1.6633    2.1954 H   0  0  0  0  0  0  0  0  0  0  0  0
    1.9824    0.6919    3.2684 H   0  0  0  0  0  0  0  0  0  0  0  0
    0.7182    2.0632    4.1587 C   0  0  0  0  0  0  0  0  0  0  0  0
    0.6100    3.0582    4.1273 H   0  0  0  0  0  0  0  0  0  0  0  0
   -0.2513    1.5883    4.0085 H   0  0  0  0  0  0  0  0  0  0  0  0
    1.1030    1.8484    5.1556 H   0  0  0  0  0  0  0  0  0  0  0  0
  1  5  1  0
  5  6  1  0
  5  7  2  0
  1  2  1  0
  1  3  1  0
  1  4  1  0
  8 12  1  0
 12 15  1  0
  8  9  1  0
  8 10  1  0
  8 11  1  0
 12 13  1  0
 12 14  1  0
 15 16  1  0
 15 17  1  0
 15 18  1  0
M  CHG  1   6  -1
M  END
>  <PDB_ID>  (1774) 
pdb4za1

>  <RESIDUE_NAME>  (1774) 
GLU   LEU

>  <FRAG_NAME>  (1774) 
ACET   PRPA

>  <FRAG_ATOM_NUM>  (1774) 
fragi: 7  fragj: 11

>  <atom.prop.CHAIN_ID>  (1774) 
A A A A A A A Z Z Z Z Z Z Z Z Z Z Z

>  <atom.prop.IS_HEAVY_ATOM>  (1774) 
1 0 0 0 1 1 1 1 0 0 0 1 0 0 1 0 0 0

>  <DIFUSE_FUNC_ATOM>  (1774) 
atom 6   atom 7   

>  <FINAL_SINGLE_POINT_ENERGY>  (1774) 
0

>  <NONCOV_INTER_ENERGY_QM>  (1774) 
0

>  <FF_Energy>  (1774) 
16.18

>  <QM_Energy>  (1774) 
0.77

>  <source>  (1774) 
ACET_PRPA_21

>  <Index>  (1774) 
38632

$$$$
ACET-pdb4zsf-A-ASP-175:PRPA-pdb4zsf-A-ARG-171
     RDKit          3D

 18 16  0  0  0  0  0  0  0  0999 V2000
    0.0231    1.5402    0.0165 C   0  0  0  0  0  0  0  0  0  0  0  0
    0.9134    1.8392   -0.2978 H   0  0  0  0  0  0  0  0  0  0  0  0
   -0.1460    1.8420    0.9438 H   0  0  0  0  0  0  0  0  0  0  0  0
   -0.7364    1.9762   -0.6325 H   0  0  0  0  0  0  0  0  0  0  0  0
    0.0000    0.0000    0.0000 C   0  0  0  0  0  0  0  0  0  0  0  0
   -1.0906   -0.6079   -0.0000 O   0  0  0  0  0  1  0  0  0  0  0  0
    1.0906   -0.5935    0.0000 O   0  0  0  0  0  0  0  0  0  0  0  0
    2.9784   -1.7838   -2.9565 C   0  0  0  0  0  0  0  0  0  0  0  0
    2.3860   -2.1203   -3.6963 H   0  0  0  0  0  0  0  0  0  0  0  0
    4.0185   -1.8864   -3.2659 H   0  0  0  0  0  0  0  0  0  0  0  0
    2.7303   -0.7405   -2.7616 H   0  0  0  0  0  0  0  0  0  0  0  0
    2.6938   -2.6502   -1.7127 C   0  0  0  0  0  0  0  0  0  0  0  0
    3.1180   -3.5437   -1.8590 H   0  0  0  0  0  0  0  0  0  0  0  0
    3.1188   -2.2044   -0.9250 H   0  0  0  0  0  0  0  0  0  0  0  0
    1.2225   -2.8700   -1.3963 C   0  0  0  0  0  0  0  0  0  0  0  0
    0.7879   -1.9819   -1.2430 H   0  0  0  0  0  0  0  0  0  0  0  0
    0.7875   -3.3220   -2.1760 H   0  0  0  0  0  0  0  0  0  0  0  0
    1.0897   -3.4888   -0.5089 H   0  0  0  0  0  0  0  0  0  0  0  0
  1  5  1  0
  5  6  1  0
  5  7  2  0
  1  2  1  0
  1  3  1  0
  1  4  1  0
  8 12  1  0
 12 15  1  0
  8  9  1  0
  8 10  1  0
  8 11  1  0
 12 13  1  0
 12 14  1  0
 15 16  1  0
 15 17  1  0
 15 18  1  0
M  CHG  1   6  -1
M  END
>  <PDB_ID>  (1775) 
pdb4zsf

>  <RESIDUE_NAME>  (1775) 
ASP   ARG

>  <FRAG_NAME>  (1775) 
ACET   PRPA

>  <FRAG_ATOM_NUM>  (1775) 
fragi: 7  fragj: 11

>  <atom.prop.CHAIN_ID>  (1775) 
A A A A A A A Z Z Z Z Z Z Z Z Z Z Z

>  <atom.prop.IS_HEAVY_ATOM>  (1775) 
1 0 0 0 1 1 1 1 0 0 0 1 0 0 1 0 0 0

>  <DIFUSE_FUNC_ATOM>  (1775) 
atom 6   atom 7   

>  <FINAL_SINGLE_POINT_ENERGY>  (1775) 
0

>  <NONCOV_INTER_ENERGY_QM>  (1775) 
0

>  <FF_Energy>  (1775) 
19.58

>  <QM_Energy>  (1775) 
0.64

>  <source>  (1775) 
ACET_PRPA_22

>  <Index>  (1775) 
2275

$$$$
ACET-pdb4zsf-A-ASP-175:PRPA-pdb4zsf-A-ARG-171
     RDKit          3D

 18 16  0  0  0  0  0  0  0  0999 V2000
    0.0231    1.5402    0.0165 C   0  0  0  0  0  0  0  0  0  0  0  0
    0.9134    1.8392   -0.2978 H   0  0  0  0  0  0  0  0  0  0  0  0
   -0.1460    1.8420    0.9438 H   0  0  0  0  0  0  0  0  0  0  0  0
   -0.7364    1.9762   -0.6325 H   0  0  0  0  0  0  0  0  0  0  0  0
    0.0000    0.0000    0.0000 C   0  0  0  0  0  0  0  0  0  0  0  0
   -1.0906   -0.6079   -0.0000 O   0  0  0  0  0  1  0  0  0  0  0  0
    1.0906   -0.5935    0.0000 O   0  0  0  0  0  0  0  0  0  0  0  0
    2.6938   -2.6502   -1.7127 C   0  0  0  0  0  0  0  0  0  0  0  0
    3.1180   -3.5437   -1.8590 H   0  0  0  0  0  0  0  0  0  0  0  0
    3.1188   -2.2044   -0.9250 H   0  0  0  0  0  0  0  0  0  0  0  0
    2.8950   -2.0379   -2.5918 H   0  0  0  0  0  0  0  0  0  0  0  0
    1.2225   -2.8700   -1.3963 C   0  0  0  0  0  0  0  0  0  0  0  0
    0.7879   -1.9819   -1.2430 H   0  0  0  0  0  0  0  0  0  0  0  0
    0.7875   -3.3220   -2.1760 H   0  0  0  0  0  0  0  0  0  0  0  0
    1.0412   -3.7145   -0.1853 C   0  0  0  0  0  0  0  0  0  0  0  0
    1.4763   -4.6009   -0.3403 H   0  0  0  0  0  0  0  0  0  0  0  0
    1.4781   -3.2608    0.5930 H   0  0  0  0  0  0  0  0  0  0  0  0
   -0.0116   -3.8752    0.0467 H   0  0  0  0  0  0  0  0  0  0  0  0
  1  5  1  0
  5  6  1  0
  5  7  2  0
  1  2  1  0
  1  3  1  0
  1  4  1  0
  8 12  1  0
 12 15  1  0
  8  9  1  0
  8 10  1  0
  8 11  1  0
 12 13  1  0
 12 14  1  0
 15 16  1  0
 15 17  1  0
 15 18  1  0
M  CHG  1   6  -1
M  END
>  <PDB_ID>  (1776) 
pdb4zsf

>  <RESIDUE_NAME>  (1776) 
ASP   ARG

>  <FRAG_NAME>  (1776) 
ACET   PRPA

>  <FRAG_ATOM_NUM>  (1776) 
fragi: 7  fragj: 11

>  <atom.prop.CHAIN_ID>  (1776) 
A A A A A A A Z Z Z Z Z Z Z Z Z Z Z

>  <atom.prop.IS_HEAVY_ATOM>  (1776) 
1 0 0 0 1 1 1 1 0 0 0 1 0 0 1 0 0 0

>  <DIFUSE_FUNC_ATOM>  (1776) 
atom 6   atom 7   

>  <FINAL_SINGLE_POINT_ENERGY>  (1776) 
0

>  <NONCOV_INTER_ENERGY_QM>  (1776) 
0

>  <FF_Energy>  (1776) 
22.36

>  <QM_Energy>  (1776) 
-0.67

>  <source>  (1776) 
ACET_PRPA_22

>  <Index>  (1776) 
2281

$$$$
ACET-pdb4zr8-A-GLU-92:PRPA-pdb4zr8-A-LYS-98
     RDKit          3D

 18 16  0  0  0  0  0  0  0  0999 V2000
    0.1774    1.4857    0.0156 C   0  0  0  0  0  0  0  0  0  0  0  0
    0.6960    1.7407   -0.8011 H   0  0  0  0  0  0  0  0  0  0  0  0
    0.7071    1.7219    0.8311 H   0  0  0  0  0  0  0  0  0  0  0  0
   -0.7335    2.0842    0.0278 H   0  0  0  0  0  0  0  0  0  0  0  0
    0.0000    0.0000    0.0000 C   0  0  0  0  0  0  0  0  0  0  0  0
   -1.0894   -0.5565    0.0000 O   0  0  0  0  0  1  0  0  0  0  0  0
    1.0894   -0.6080    0.0000 O   0  0  0  0  0  0  0  0  0  0  0  0
    3.9638    1.5867    3.9655 C   0  0  0  0  0  0  0  0  0  0  0  0
    3.7591    1.0311    4.7785 H   0  0  0  0  0  0  0  0  0  0  0  0
    3.5722    2.5923    4.1191 H   0  0  0  0  0  0  0  0  0  0  0  0
    5.0439    1.6089    3.8203 H   0  0  0  0  0  0  0  0  0  0  0  0
    3.3063    0.9184    2.7530 C   0  0  0  0  0  0  0  0  0  0  0  0
    3.5871    1.4225    1.9323 H   0  0  0  0  0  0  0  0  0  0  0  0
    3.6574   -0.0205    2.6905 H   0  0  0  0  0  0  0  0  0  0  0  0
    1.7915    0.8622    2.7841 C   0  0  0  0  0  0  0  0  0  0  0  0
    1.4432    1.7023    3.2013 H   0  0  0  0  0  0  0  0  0  0  0  0
    1.4487    0.7896    1.8472 H   0  0  0  0  0  0  0  0  0  0  0  0
    1.4407    0.0061    3.3604 H   0  0  0  0  0  0  0  0  0  0  0  0
  1  5  1  0
  5  6  1  0
  5  7  2  0
  1  2  1  0
  1  3  1  0
  1  4  1  0
  8 12  1  0
 12 15  1  0
  8  9  1  0
  8 10  1  0
  8 11  1  0
 12 13  1  0
 12 14  1  0
 15 16  1  0
 15 17  1  0
 15 18  1  0
M  CHG  1   6  -1
M  END
>  <PDB_ID>  (1777) 
pdb4zr8

>  <RESIDUE_NAME>  (1777) 
GLU   LYS

>  <FRAG_NAME>  (1777) 
ACET   PRPA

>  <FRAG_ATOM_NUM>  (1777) 
fragi: 7  fragj: 11

>  <atom.prop.CHAIN_ID>  (1777) 
A A A A A A A Z Z Z Z Z Z Z Z Z Z Z

>  <atom.prop.IS_HEAVY_ATOM>  (1777) 
1 0 0 0 1 1 1 1 0 0 0 1 0 0 1 0 0 0

>  <DIFUSE_FUNC_ATOM>  (1777) 
atom 6   atom 7   

>  <FINAL_SINGLE_POINT_ENERGY>  (1777) 
0

>  <NONCOV_INTER_ENERGY_QM>  (1777) 
0

>  <FF_Energy>  (1777) 
20.17

>  <QM_Energy>  (1777) 
1.64

>  <source>  (1777) 
ACET_PRPA_22

>  <Index>  (1777) 
2660

$$$$
ACET-pdb4zr8-A-GLU-92:PRPA-pdb4zr8-A-LYS-98
     RDKit          3D

 18 16  0  0  0  0  0  0  0  0999 V2000
    0.1774    1.4857    0.0156 C   0  0  0  0  0  0  0  0  0  0  0  0
    0.6960    1.7407   -0.8011 H   0  0  0  0  0  0  0  0  0  0  0  0
    0.7071    1.7219    0.8311 H   0  0  0  0  0  0  0  0  0  0  0  0
   -0.7335    2.0842    0.0278 H   0  0  0  0  0  0  0  0  0  0  0  0
    0.0000    0.0000    0.0000 C   0  0  0  0  0  0  0  0  0  0  0  0
   -1.0894   -0.5565    0.0000 O   0  0  0  0  0  1  0  0  0  0  0  0
    1.0894   -0.6080    0.0000 O   0  0  0  0  0  0  0  0  0  0  0  0
    3.3063    0.9184    2.7530 C   0  0  0  0  0  0  0  0  0  0  0  0
    3.5871    1.4225    1.9323 H   0  0  0  0  0  0  0  0  0  0  0  0
    3.6574   -0.0205    2.6905 H   0  0  0  0  0  0  0  0  0  0  0  0
    3.7739    1.3937    3.6153 H   0  0  0  0  0  0  0  0  0  0  0  0
    1.7915    0.8622    2.7841 C   0  0  0  0  0  0  0  0  0  0  0  0
    1.4432    1.7023    3.2013 H   0  0  0  0  0  0  0  0  0  0  0  0
    1.4487    0.7896    1.8472 H   0  0  0  0  0  0  0  0  0  0  0  0
    1.3058   -0.3228    3.5818 C   0  0  0  0  0  0  0  0  0  0  0  0
    1.7279   -1.1497    3.2281 H   0  0  0  0  0  0  0  0  0  0  0  0
    1.5423   -0.1923    4.5386 H   0  0  0  0  0  0  0  0  0  0  0  0
    0.2236   -0.4262    3.5039 H   0  0  0  0  0  0  0  0  0  0  0  0
  1  5  1  0
  5  6  1  0
  5  7  2  0
  1  2  1  0
  1  3  1  0
  1  4  1  0
  8 12  1  0
 12 15  1  0
  8  9  1  0
  8 10  1  0
  8 11  1  0
 12 13  1  0
 12 14  1  0
 15 16  1  0
 15 17  1  0
 15 18  1  0
M  CHG  1   6  -1
M  END
>  <PDB_ID>  (1778) 
pdb4zr8

>  <RESIDUE_NAME>  (1778) 
GLU   LYS

>  <FRAG_NAME>  (1778) 
ACET   PRPA

>  <FRAG_ATOM_NUM>  (1778) 
fragi: 7  fragj: 11

>  <atom.prop.CHAIN_ID>  (1778) 
A A A A A A A Z Z Z Z Z Z Z Z Z Z Z

>  <atom.prop.IS_HEAVY_ATOM>  (1778) 
1 0 0 0 1 1 1 1 0 0 0 1 0 0 1 0 0 0

>  <DIFUSE_FUNC_ATOM>  (1778) 
atom 6   atom 7   

>  <FINAL_SINGLE_POINT_ENERGY>  (1778) 
0

>  <NONCOV_INTER_ENERGY_QM>  (1778) 
0

>  <FF_Energy>  (1778) 
23.22

>  <QM_Energy>  (1778) 
0.38

>  <source>  (1778) 
ACET_PRPA_22

>  <Index>  (1778) 
2664

$$$$
ACET-pdb4zr8-A-GLU-92:PRPA-pdb4zr8-A-LYS-98
     RDKit          3D

 18 16  0  0  0  0  0  0  0  0999 V2000
    0.1774    1.4857    0.0156 C   0  0  0  0  0  0  0  0  0  0  0  0
    0.6960    1.7407   -0.8011 H   0  0  0  0  0  0  0  0  0  0  0  0
    0.7071    1.7219    0.8311 H   0  0  0  0  0  0  0  0  0  0  0  0
   -0.7335    2.0842    0.0278 H   0  0  0  0  0  0  0  0  0  0  0  0
    0.0000    0.0000    0.0000 C   0  0  0  0  0  0  0  0  0  0  0  0
   -1.0894   -0.5565    0.0000 O   0  0  0  0  0  1  0  0  0  0  0  0
    1.0894   -0.6080    0.0000 O   0  0  0  0  0  0  0  0  0  0  0  0
    1.7915    0.8622    2.7841 C   0  0  0  0  0  0  0  0  0  0  0  0
    1.4432    1.7023    3.2013 H   0  0  0  0  0  0  0  0  0  0  0  0
    1.4487    0.7896    1.8472 H   0  0  0  0  0  0  0  0  0  0  0  0
    2.8805    0.9026    2.7617 H   0  0  0  0  0  0  0  0  0  0  0  0
    1.3058   -0.3228    3.5818 C   0  0  0  0  0  0  0  0  0  0  0  0
    1.7279   -1.1497    3.2281 H   0  0  0  0  0  0  0  0  0  0  0  0
    1.5423   -0.1923    4.5386 H   0  0  0  0  0  0  0  0  0  0  0  0
   -0.2012   -0.4669    3.4733 C   0  0  0  0  0  0  0  0  0  0  0  0
   -0.6107    0.4417    3.3958 H   0  0  0  0  0  0  0  0  0  0  0  0
   -0.4189   -1.0011    2.6573 H   0  0  0  0  0  0  0  0  0  0  0  0
   -0.6043   -0.9703    4.3520 H   0  0  0  0  0  0  0  0  0  0  0  0
  1  5  1  0
  5  6  1  0
  5  7  2  0
  1  2  1  0
  1  3  1  0
  1  4  1  0
  8 12  1  0
 12 15  1  0
  8  9  1  0
  8 10  1  0
  8 11  1  0
 12 13  1  0
 12 14  1  0
 15 16  1  0
 15 17  1  0
 15 18  1  0
M  CHG  1   6  -1
M  END
>  <PDB_ID>  (1779) 
pdb4zr8

>  <RESIDUE_NAME>  (1779) 
GLU   LYS

>  <FRAG_NAME>  (1779) 
ACET   PRPA

>  <FRAG_ATOM_NUM>  (1779) 
fragi: 7  fragj: 11

>  <atom.prop.CHAIN_ID>  (1779) 
A A A A A A A Z Z Z Z Z Z Z Z Z Z Z

>  <atom.prop.IS_HEAVY_ATOM>  (1779) 
1 0 0 0 1 1 1 1 0 0 0 1 0 0 1 0 0 0

>  <DIFUSE_FUNC_ATOM>  (1779) 
atom 6   atom 7   

>  <FINAL_SINGLE_POINT_ENERGY>  (1779) 
0

>  <NONCOV_INTER_ENERGY_QM>  (1779) 
0

>  <FF_Energy>  (1779) 
20.47

>  <QM_Energy>  (1779) 
-0.18

>  <source>  (1779) 
ACET_PRPA_22

>  <Index>  (1779) 
2672

$$$$
ACET-pdb4zy8-B-GLU-49:PRPA-pdb4zy8-B-PRO-46
     RDKit          3D

 18 16  0  0  0  0  0  0  0  0999 V2000
    0.1662    1.4871    0.0128 C   0  0  0  0  0  0  0  0  0  0  0  0
    0.6845    1.7455   -0.8037 H   0  0  0  0  0  0  0  0  0  0  0  0
    0.6958    1.7287    0.8285 H   0  0  0  0  0  0  0  0  0  0  0  0
   -0.7455    2.0845    0.0243 H   0  0  0  0  0  0  0  0  0  0  0  0
    0.0000    0.0000    0.0000 C   0  0  0  0  0  0  0  0  0  0  0  0
   -1.0897   -0.5594   -0.0000 O   0  0  0  0  0  1  0  0  0  0  0  0
    1.0897   -0.6019   -0.0000 O   0  0  0  0  0  0  0  0  0  0  0  0
   -0.2801    1.0699    4.8775 C   0  0  0  0  0  0  0  0  0  0  0  0
   -0.1074    0.9034    5.8623 H   0  0  0  0  0  0  0  0  0  0  0  0
   -0.8553    0.2503    4.4469 H   0  0  0  0  0  0  0  0  0  0  0  0
   -0.7573    2.0388    4.7307 H   0  0  0  0  0  0  0  0  0  0  0  0
    1.0381    1.0115    4.1039 C   0  0  0  0  0  0  0  0  0  0  0  0
    1.4197    1.9314    3.9855 H   0  0  0  0  0  0  0  0  0  0  0  0
    1.7069    0.4407    4.5859 H   0  0  0  0  0  0  0  0  0  0  0  0
    0.6702    0.4121    2.7895 C   0  0  0  0  0  0  0  0  0  0  0  0
    0.3472    1.1234    2.1538 H   0  0  0  0  0  0  0  0  0  0  0  0
    1.4660   -0.0449    2.3742 H   0  0  0  0  0  0  0  0  0  0  0  0
   -0.1217   -0.3060    3.0023 H   0  0  0  0  0  0  0  0  0  0  0  0
  1  5  1  0
  5  6  1  0
  5  7  2  0
  1  2  1  0
  1  3  1  0
  1  4  1  0
  8 12  1  0
 12 15  1  0
  8  9  1  0
  8 10  1  0
  8 11  1  0
 12 13  1  0
 12 14  1  0
 15 16  1  0
 15 17  1  0
 15 18  1  0
M  CHG  1   6  -1
M  END
>  <PDB_ID>  (1780) 
pdb4zy8

>  <RESIDUE_NAME>  (1780) 
GLU   PRO

>  <FRAG_NAME>  (1780) 
ACET   PRPA

>  <FRAG_ATOM_NUM>  (1780) 
fragi: 7  fragj: 11

>  <atom.prop.CHAIN_ID>  (1780) 
A A A A A A A Z Z Z Z Z Z Z Z Z Z Z

>  <atom.prop.IS_HEAVY_ATOM>  (1780) 
1 0 0 0 1 1 1 1 0 0 0 1 0 0 1 0 0 0

>  <DIFUSE_FUNC_ATOM>  (1780) 
atom 6   atom 7   

>  <FINAL_SINGLE_POINT_ENERGY>  (1780) 
0

>  <NONCOV_INTER_ENERGY_QM>  (1780) 
0

>  <FF_Energy>  (1780) 
39.44

>  <QM_Energy>  (1780) 
6.2

>  <source>  (1780) 
ACET_PRPA_22

>  <Index>  (1780) 
3631

$$$$
ACET-pdb4zy8-B-GLU-49:PRPA-pdb4zy8-B-PRO-46
     RDKit          3D

 18 16  0  0  0  0  0  0  0  0999 V2000
    0.1662    1.4871    0.0128 C   0  0  0  0  0  0  0  0  0  0  0  0
    0.6845    1.7455   -0.8037 H   0  0  0  0  0  0  0  0  0  0  0  0
    0.6958    1.7287    0.8285 H   0  0  0  0  0  0  0  0  0  0  0  0
   -0.7455    2.0845    0.0243 H   0  0  0  0  0  0  0  0  0  0  0  0
    0.0000    0.0000    0.0000 C   0  0  0  0  0  0  0  0  0  0  0  0
   -1.0897   -0.5594   -0.0000 O   0  0  0  0  0  1  0  0  0  0  0  0
    1.0897   -0.6019   -0.0000 O   0  0  0  0  0  0  0  0  0  0  0  0
    1.0381    1.0115    4.1039 C   0  0  0  0  0  0  0  0  0  0  0  0
    1.4197    1.9314    3.9855 H   0  0  0  0  0  0  0  0  0  0  0  0
    1.7069    0.4407    4.5859 H   0  0  0  0  0  0  0  0  0  0  0  0
    0.0987    1.0531    4.6552 H   0  0  0  0  0  0  0  0  0  0  0  0
    0.6702    0.4121    2.7895 C   0  0  0  0  0  0  0  0  0  0  0  0
    0.3472    1.1234    2.1538 H   0  0  0  0  0  0  0  0  0  0  0  0
    1.4660   -0.0449    2.3742 H   0  0  0  0  0  0  0  0  0  0  0  0
   -0.4220   -0.5783    3.0831 C   0  0  0  0  0  0  0  0  0  0  0  0
   -1.0834   -0.6276    2.3350 H   0  0  0  0  0  0  0  0  0  0  0  0
   -0.0517   -1.4919    3.2597 H   0  0  0  0  0  0  0  0  0  0  0  0
   -0.8902   -0.1758    3.9813 H   0  0  0  0  0  0  0  0  0  0  0  0
  1  5  1  0
  5  6  1  0
  5  7  2  0
  1  2  1  0
  1  3  1  0
  1  4  1  0
  8 12  1  0
 12 15  1  0
  8  9  1  0
  8 10  1  0
  8 11  1  0
 12 13  1  0
 12 14  1  0
 15 16  1  0
 15 17  1  0
 15 18  1  0
M  CHG  1   6  -1
M  END
>  <PDB_ID>  (1781) 
pdb4zy8

>  <RESIDUE_NAME>  (1781) 
GLU   PRO

>  <FRAG_NAME>  (1781) 
ACET   PRPA

>  <FRAG_ATOM_NUM>  (1781) 
fragi: 7  fragj: 11

>  <atom.prop.CHAIN_ID>  (1781) 
A A A A A A A Z Z Z Z Z Z Z Z Z Z Z

>  <atom.prop.IS_HEAVY_ATOM>  (1781) 
1 0 0 0 1 1 1 1 0 0 0 1 0 0 1 0 0 0

>  <DIFUSE_FUNC_ATOM>  (1781) 
atom 6   atom 7   

>  <FINAL_SINGLE_POINT_ENERGY>  (1781) 
0

>  <NONCOV_INTER_ENERGY_QM>  (1781) 
0

>  <FF_Energy>  (1781) 
46.25

>  <QM_Energy>  (1781) 
4.32

>  <source>  (1781) 
ACET_PRPA_22

>  <Index>  (1781) 
3632

$$$$
ACET-pdb4zoq-E-ASP-40:PRPA-pdb4zoq-E-VAL-84
     RDKit          3D

 18 16  0  0  0  0  0  0  0  0999 V2000
   -0.0353    1.4853   -0.1089 C   0  0  0  0  0  0  0  0  0  0  0  0
    0.7425    1.7936   -0.6432 H   0  0  0  0  0  0  0  0  0  0  0  0
   -0.0149    1.8817    0.8004 H   0  0  0  0  0  0  0  0  0  0  0  0
   -0.9434    1.8253   -0.6068 H   0  0  0  0  0  0  0  0  0  0  0  0
    0.0000    0.0000    0.0000 C   0  0  0  0  0  0  0  0  0  0  0  0
   -1.0908   -0.5990    0.0000 O   0  0  0  0  0  1  0  0  0  0  0  0
    1.0908   -0.5801   -0.0000 O   0  0  0  0  0  0  0  0  0  0  0  0
    2.8347    0.3147    2.9771 C   0  0  0  0  0  0  0  0  0  0  0  0
    2.4533    0.3116    3.8995 H   0  0  0  0  0  0  0  0  0  0  0  0
    3.6529    0.8859    2.9537 H   0  0  0  0  0  0  0  0  0  0  0  0
    2.1583    0.6704    2.3345 H   0  0  0  0  0  0  0  0  0  0  0  0
    3.2061   -1.1159    2.5785 C   0  0  0  0  0  0  0  0  0  0  0  0
    2.4019   -1.6781    2.7485 H   0  0  0  0  0  0  0  0  0  0  0  0
    4.0186   -1.4951    3.1983 H   0  0  0  0  0  0  0  0  0  0  0  0
    3.6135   -1.1997    1.1138 C   0  0  0  0  0  0  0  0  0  0  0  0
    4.1338   -0.3818    0.8687 H   0  0  0  0  0  0  0  0  0  0  0  0
    4.1790   -2.0125    0.9748 H   0  0  0  0  0  0  0  0  0  0  0  0
    2.7929   -1.2600    0.5457 H   0  0  0  0  0  0  0  0  0  0  0  0
  1  5  1  0
  5  6  1  0
  5  7  2  0
  1  2  1  0
  1  3  1  0
  1  4  1  0
  8 12  1  0
 12 15  1  0
  8  9  1  0
  8 10  1  0
  8 11  1  0
 12 13  1  0
 12 14  1  0
 15 16  1  0
 15 17  1  0
 15 18  1  0
M  CHG  1   6  -1
M  END
>  <PDB_ID>  (1782) 
pdb4zoq

>  <RESIDUE_NAME>  (1782) 
ASP   VAL

>  <FRAG_NAME>  (1782) 
ACET   PRPA

>  <FRAG_ATOM_NUM>  (1782) 
fragi: 7  fragj: 11

>  <atom.prop.CHAIN_ID>  (1782) 
A A A A A A A Z Z Z Z Z Z Z Z Z Z Z

>  <atom.prop.IS_HEAVY_ATOM>  (1782) 
1 0 0 0 1 1 1 1 0 0 0 1 0 0 1 0 0 0

>  <DIFUSE_FUNC_ATOM>  (1782) 
atom 6   atom 7   

>  <FINAL_SINGLE_POINT_ENERGY>  (1782) 
0

>  <NONCOV_INTER_ENERGY_QM>  (1782) 
0

>  <FF_Energy>  (1782) 
12.99

>  <QM_Energy>  (1782) 
-2.4

>  <source>  (1782) 
ACET_PRPA_22

>  <Index>  (1782) 
4757

$$$$
ACET-pdb6amx-A-GLU-23:PRPA-pdb6amx-A-PRO-29
     RDKit          3D

 18 16  0  0  0  0  0  0  0  0999 V2000
    0.0051    1.5094    0.0002 C   0  0  0  0  0  0  0  0  0  0  0  0
   -0.3440    1.8079   -0.8682 H   0  0  0  0  0  0  0  0  0  0  0  0
    0.9311    1.8032    0.1506 H   0  0  0  0  0  0  0  0  0  0  0  0
   -0.6237    1.9243    0.7879 H   0  0  0  0  0  0  0  0  0  0  0  0
    0.0000    0.0000    0.0000 C   0  0  0  0  0  0  0  0  0  0  0  0
   -1.0972   -0.5962   -0.0000 O   0  0  0  0  0  1  0  0  0  0  0  0
    1.0972   -0.5904   -0.0000 O   0  0  0  0  0  0  0  0  0  0  0  0
    2.6573   -1.3768    2.2540 C   0  0  0  0  0  0  0  0  0  0  0  0
    1.9795   -1.0334    1.5831 H   0  0  0  0  0  0  0  0  0  0  0  0
    3.5671   -0.7778    2.2176 H   0  0  0  0  0  0  0  0  0  0  0  0
    2.2233   -1.4167    3.2530 H   0  0  0  0  0  0  0  0  0  0  0  0
    3.1201   -2.7640    1.7815 C   0  0  0  0  0  0  0  0  0  0  0  0
    2.7728   -3.4817    2.3980 H   0  0  0  0  0  0  0  0  0  0  0  0
    2.7801   -2.9544    0.8528 H   0  0  0  0  0  0  0  0  0  0  0  0
    4.6256   -2.7320    1.7994 C   0  0  0  0  0  0  0  0  0  0  0  0
    4.9679   -3.0695    2.6829 H   0  0  0  0  0  0  0  0  0  0  0  0
    4.9918   -3.3193    1.0695 H   0  0  0  0  0  0  0  0  0  0  0  0
    4.8983   -1.6885    1.6419 H   0  0  0  0  0  0  0  0  0  0  0  0
  1  5  1  0
  5  6  1  0
  5  7  2  0
  1  2  1  0
  1  3  1  0
  1  4  1  0
  8 12  1  0
 12 15  1  0
  8  9  1  0
  8 10  1  0
  8 11  1  0
 12 13  1  0
 12 14  1  0
 15 16  1  0
 15 17  1  0
 15 18  1  0
M  CHG  1   6  -1
M  END
>  <PDB_ID>  (1783) 
pdb6amx

>  <RESIDUE_NAME>  (1783) 
GLU   PRO

>  <FRAG_NAME>  (1783) 
ACET   PRPA

>  <FRAG_ATOM_NUM>  (1783) 
fragi: 7  fragj: 11

>  <atom.prop.CHAIN_ID>  (1783) 
A A A A A A A Z Z Z Z Z Z Z Z Z Z Z

>  <atom.prop.IS_HEAVY_ATOM>  (1783) 
1 0 0 0 1 1 1 1 0 0 0 1 0 0 1 0 0 0

>  <DIFUSE_FUNC_ATOM>  (1783) 
atom 6   atom 7   

>  <FINAL_SINGLE_POINT_ENERGY>  (1783) 
0

>  <NONCOV_INTER_ENERGY_QM>  (1783) 
0

>  <FF_Energy>  (1783) 
17.16

>  <QM_Energy>  (1783) 
-1.75

>  <source>  (1783) 
ACET_PRPA_22

>  <Index>  (1783) 
11052

$$$$
ACET-pdb5ar2-A-GLU-59:PRPA-pdb5ar2-A-LEU-56
     RDKit          3D

 18 16  0  0  0  0  0  0  0  0999 V2000
    0.1791    1.4867    0.0165 C   0  0  0  0  0  0  0  0  0  0  0  0
    0.6979    1.7404   -0.8004 H   0  0  0  0  0  0  0  0  0  0  0  0
    0.7088    1.7213    0.8321 H   0  0  0  0  0  0  0  0  0  0  0  0
   -0.7319    2.0850    0.0284 H   0  0  0  0  0  0  0  0  0  0  0  0
    0.0000    0.0000    0.0000 C   0  0  0  0  0  0  0  0  0  0  0  0
   -1.0891   -0.5557   -0.0000 O   0  0  0  0  0  1  0  0  0  0  0  0
    1.0891   -0.6094    0.0000 O   0  0  0  0  0  0  0  0  0  0  0  0
   -0.8493    0.3079    4.3588 C   0  0  0  0  0  0  0  0  0  0  0  0
   -0.0818   -0.0963    4.8738 H   0  0  0  0  0  0  0  0  0  0  0  0
   -1.6781   -0.4001    4.3633 H   0  0  0  0  0  0  0  0  0  0  0  0
   -1.1159    1.2531    4.8317 H   0  0  0  0  0  0  0  0  0  0  0  0
   -0.3367    0.5302    2.9305 C   0  0  0  0  0  0  0  0  0  0  0  0
   -0.9525    0.0568    2.3103 H   0  0  0  0  0  0  0  0  0  0  0  0
   -0.3471    1.5072    2.7537 H   0  0  0  0  0  0  0  0  0  0  0  0
    1.0760    0.0244    2.6502 C   0  0  0  0  0  0  0  0  0  0  0  0
    1.0449   -0.6530    1.9214 H   0  0  0  0  0  0  0  0  0  0  0  0
    1.7110    0.8542    2.3397 H   0  0  0  0  0  0  0  0  0  0  0  0
    1.4680   -0.4307    3.5597 H   0  0  0  0  0  0  0  0  0  0  0  0
  1  5  1  0
  5  6  1  0
  5  7  2  0
  1  2  1  0
  1  3  1  0
  1  4  1  0
  8 12  1  0
 12 15  1  0
  8  9  1  0
  8 10  1  0
  8 11  1  0
 12 13  1  0
 12 14  1  0
 15 16  1  0
 15 17  1  0
 15 18  1  0
M  CHG  1   6  -1
M  END
>  <PDB_ID>  (1784) 
pdb5ar2

>  <RESIDUE_NAME>  (1784) 
GLU   LEU

>  <FRAG_NAME>  (1784) 
ACET   PRPA

>  <FRAG_ATOM_NUM>  (1784) 
fragi: 7  fragj: 11

>  <atom.prop.CHAIN_ID>  (1784) 
A A A A A A A Z Z Z Z Z Z Z Z Z Z Z

>  <atom.prop.IS_HEAVY_ATOM>  (1784) 
1 0 0 0 1 1 1 1 0 0 0 1 0 0 1 0 0 0

>  <DIFUSE_FUNC_ATOM>  (1784) 
atom 6   atom 7   

>  <FINAL_SINGLE_POINT_ENERGY>  (1784) 
0

>  <NONCOV_INTER_ENERGY_QM>  (1784) 
0

>  <FF_Energy>  (1784) 
26.88

>  <QM_Energy>  (1784) 
3.06

>  <source>  (1784) 
ACET_PRPA_22

>  <Index>  (1784) 
12009

$$$$
ACET-pdb5ar2-A-GLU-59:PRPA-pdb5ar2-A-LEU-56
     RDKit          3D

 18 16  0  0  0  0  0  0  0  0999 V2000
    0.1791    1.4867    0.0165 C   0  0  0  0  0  0  0  0  0  0  0  0
    0.6979    1.7404   -0.8004 H   0  0  0  0  0  0  0  0  0  0  0  0
    0.7088    1.7213    0.8321 H   0  0  0  0  0  0  0  0  0  0  0  0
   -0.7319    2.0850    0.0284 H   0  0  0  0  0  0  0  0  0  0  0  0
    0.0000    0.0000    0.0000 C   0  0  0  0  0  0  0  0  0  0  0  0
   -1.0891   -0.5557   -0.0000 O   0  0  0  0  0  1  0  0  0  0  0  0
    1.0891   -0.6094    0.0000 O   0  0  0  0  0  0  0  0  0  0  0  0
   -0.3367    0.5302    2.9305 C   0  0  0  0  0  0  0  0  0  0  0  0
   -0.9525    0.0568    2.3103 H   0  0  0  0  0  0  0  0  0  0  0  0
   -0.3471    1.5072    2.7537 H   0  0  0  0  0  0  0  0  0  0  0  0
   -0.7010    0.3722    3.9456 H   0  0  0  0  0  0  0  0  0  0  0  0
    1.0760    0.0244    2.6502 C   0  0  0  0  0  0  0  0  0  0  0  0
    1.0449   -0.6530    1.9214 H   0  0  0  0  0  0  0  0  0  0  0  0
    1.7110    0.8542    2.3397 H   0  0  0  0  0  0  0  0  0  0  0  0
    1.6229   -0.6105    3.9190 C   0  0  0  0  0  0  0  0  0  0  0  0
    1.0368   -1.3744    4.1912 H   0  0  0  0  0  0  0  0  0  0  0  0
    2.5506   -0.9484    3.7515 H   0  0  0  0  0  0  0  0  0  0  0  0
    1.6447    0.0698    4.6526 H   0  0  0  0  0  0  0  0  0  0  0  0
  1  5  1  0
  5  6  1  0
  5  7  2  0
  1  2  1  0
  1  3  1  0
  1  4  1  0
  8 12  1  0
 12 15  1  0
  8  9  1  0
  8 10  1  0
  8 11  1  0
 12 13  1  0
 12 14  1  0
 15 16  1  0
 15 17  1  0
 15 18  1  0
M  CHG  1   6  -1
M  END
>  <PDB_ID>  (1785) 
pdb5ar2

>  <RESIDUE_NAME>  (1785) 
GLU   LEU

>  <FRAG_NAME>  (1785) 
ACET   PRPA

>  <FRAG_ATOM_NUM>  (1785) 
fragi: 7  fragj: 11

>  <atom.prop.CHAIN_ID>  (1785) 
A A A A A A A Z Z Z Z Z Z Z Z Z Z Z

>  <atom.prop.IS_HEAVY_ATOM>  (1785) 
1 0 0 0 1 1 1 1 0 0 0 1 0 0 1 0 0 0

>  <DIFUSE_FUNC_ATOM>  (1785) 
atom 6   atom 7   

>  <FINAL_SINGLE_POINT_ENERGY>  (1785) 
0

>  <NONCOV_INTER_ENERGY_QM>  (1785) 
0

>  <FF_Energy>  (1785) 
28.13

>  <QM_Energy>  (1785) 
3.23

>  <source>  (1785) 
ACET_PRPA_22

>  <Index>  (1785) 
12012

$$$$
ACET-pdb5az3-A-GLU-134:PRPA-pdb5az3-A-LEU-151
     RDKit          3D

 18 16  0  0  0  0  0  0  0  0999 V2000
    0.2249    1.5129    0.0150 C   0  0  0  0  0  0  0  0  0  0  0  0
    0.7323    1.7410   -0.8024 H   0  0  0  0  0  0  0  0  0  0  0  0
    0.7432    1.7226    0.8301 H   0  0  0  0  0  0  0  0  0  0  0  0
   -0.6898    2.1054    0.0271 H   0  0  0  0  0  0  0  0  0  0  0  0
    0.0000    0.0000    0.0000 C   0  0  0  0  0  0  0  0  0  0  0  0
   -1.0874   -0.5290   -0.0000 O   0  0  0  0  0  1  0  0  0  0  0  0
    1.0874   -0.6182   -0.0000 O   0  0  0  0  0  0  0  0  0  0  0  0
   -3.5392   -2.0996   -3.4133 C   0  0  0  0  0  0  0  0  0  0  0  0
   -3.0483   -2.2221   -4.2616 H   0  0  0  0  0  0  0  0  0  0  0  0
   -4.3909   -1.6218   -3.5522 H   0  0  0  0  0  0  0  0  0  0  0  0
   -3.7650   -3.0857   -3.0075 H   0  0  0  0  0  0  0  0  0  0  0  0
   -2.6703   -1.2375   -2.5006 C   0  0  0  0  0  0  0  0  0  0  0  0
   -1.8814   -1.7788   -2.1982 H   0  0  0  0  0  0  0  0  0  0  0  0
   -2.3208   -0.3439   -3.0177 H   0  0  0  0  0  0  0  0  0  0  0  0
   -3.4407   -0.8732   -1.2309 C   0  0  0  0  0  0  0  0  0  0  0  0
   -3.6965   -1.7104   -0.7475 H   0  0  0  0  0  0  0  0  0  0  0  0
   -2.8614   -0.3097   -0.6425 H   0  0  0  0  0  0  0  0  0  0  0  0
   -4.2647   -0.3637   -1.4784 H   0  0  0  0  0  0  0  0  0  0  0  0
  1  5  1  0
  5  6  1  0
  5  7  2  0
  1  2  1  0
  1  3  1  0
  1  4  1  0
  8 12  1  0
 12 15  1  0
  8  9  1  0
  8 10  1  0
  8 11  1  0
 12 13  1  0
 12 14  1  0
 15 16  1  0
 15 17  1  0
 15 18  1  0
M  CHG  1   6  -1
M  END
>  <PDB_ID>  (1786) 
pdb5az3

>  <RESIDUE_NAME>  (1786) 
GLU   LEU

>  <FRAG_NAME>  (1786) 
ACET   PRPA

>  <FRAG_ATOM_NUM>  (1786) 
fragi: 7  fragj: 11

>  <atom.prop.CHAIN_ID>  (1786) 
A A A A A A A Z Z Z Z Z Z Z Z Z Z Z

>  <atom.prop.IS_HEAVY_ATOM>  (1786) 
1 0 0 0 1 1 1 1 0 0 0 1 0 0 1 0 0 0

>  <DIFUSE_FUNC_ATOM>  (1786) 
atom 6   atom 7   

>  <FINAL_SINGLE_POINT_ENERGY>  (1786) 
0

>  <NONCOV_INTER_ENERGY_QM>  (1786) 
0

>  <FF_Energy>  (1786) 
16.74

>  <QM_Energy>  (1786) 
0.46

>  <source>  (1786) 
ACET_PRPA_22

>  <Index>  (1786) 
13290

$$$$
ACET-pdb5az3-A-GLU-134:PRPA-pdb5az3-A-LEU-151
     RDKit          3D

 18 16  0  0  0  0  0  0  0  0999 V2000
    0.2249    1.5129    0.0150 C   0  0  0  0  0  0  0  0  0  0  0  0
    0.7323    1.7410   -0.8024 H   0  0  0  0  0  0  0  0  0  0  0  0
    0.7432    1.7226    0.8301 H   0  0  0  0  0  0  0  0  0  0  0  0
   -0.6898    2.1054    0.0271 H   0  0  0  0  0  0  0  0  0  0  0  0
    0.0000    0.0000    0.0000 C   0  0  0  0  0  0  0  0  0  0  0  0
   -1.0874   -0.5290   -0.0000 O   0  0  0  0  0  1  0  0  0  0  0  0
    1.0874   -0.6182   -0.0000 O   0  0  0  0  0  0  0  0  0  0  0  0
   -2.1844    0.0047   -3.2193 C   0  0  0  0  0  0  0  0  0  0  0  0
   -2.9692    0.5498   -3.5185 H   0  0  0  0  0  0  0  0  0  0  0  0
   -1.6177    0.5523   -2.6015 H   0  0  0  0  0  0  0  0  0  0  0  0
   -1.6416   -0.2580   -4.0186 H   0  0  0  0  0  0  0  0  0  0  0  0
   -2.6703   -1.2375   -2.5006 C   0  0  0  0  0  0  0  0  0  0  0  0
   -1.8814   -1.7788   -2.1982 H   0  0  0  0  0  0  0  0  0  0  0  0
   -3.2906   -1.8529   -3.1522 H   0  0  0  0  0  0  0  0  0  0  0  0
   -3.4407   -0.8732   -1.2309 C   0  0  0  0  0  0  0  0  0  0  0  0
   -3.6965   -1.7104   -0.7475 H   0  0  0  0  0  0  0  0  0  0  0  0
   -2.8614   -0.3097   -0.6425 H   0  0  0  0  0  0  0  0  0  0  0  0
   -4.2647   -0.3637   -1.4784 H   0  0  0  0  0  0  0  0  0  0  0  0
  1  5  1  0
  5  6  1  0
  5  7  2  0
  1  2  1  0
  1  3  1  0
  1  4  1  0
  8 12  1  0
 12 15  1  0
  8  9  1  0
  8 10  1  0
  8 11  1  0
 12 13  1  0
 12 14  1  0
 15 16  1  0
 15 17  1  0
 15 18  1  0
M  CHG  1   6  -1
M  END
>  <PDB_ID>  (1787) 
pdb5az3

>  <RESIDUE_NAME>  (1787) 
GLU   LEU

>  <FRAG_NAME>  (1787) 
ACET   PRPA

>  <FRAG_ATOM_NUM>  (1787) 
fragi: 7  fragj: 11

>  <atom.prop.CHAIN_ID>  (1787) 
A A A A A A A Z Z Z Z Z Z Z Z Z Z Z

>  <atom.prop.IS_HEAVY_ATOM>  (1787) 
1 0 0 0 1 1 1 1 0 0 0 1 0 0 1 0 0 0

>  <DIFUSE_FUNC_ATOM>  (1787) 
atom 6   atom 7   

>  <FINAL_SINGLE_POINT_ENERGY>  (1787) 
0

>  <NONCOV_INTER_ENERGY_QM>  (1787) 
0

>  <FF_Energy>  (1787) 
17.23

>  <QM_Energy>  (1787) 
-0.9

>  <source>  (1787) 
ACET_PRPA_22

>  <Index>  (1787) 
13299

$$$$
ACET-pdb6apx-A-GLU-28:PRPA-pdb6apx-A-LYS-34
     RDKit          3D

 18 16  0  0  0  0  0  0  0  0999 V2000
    0.0005    1.5155   -0.0268 C   0  0  0  0  0  0  0  0  0  0  0  0
   -0.1621    1.7948   -0.9555 H   0  0  0  0  0  0  0  0  0  0  0  0
    0.8760    1.8161    0.3042 H   0  0  0  0  0  0  0  0  0  0  0  0
   -0.7771    1.9443    0.6054 H   0  0  0  0  0  0  0  0  0  0  0  0
    0.0000    0.0000    0.0000 C   0  0  0  0  0  0  0  0  0  0  0  0
   -1.1023   -0.5938   -0.0000 O   0  0  0  0  0  1  0  0  0  0  0  0
    1.1023   -0.5965   -0.0000 O   0  0  0  0  0  0  0  0  0  0  0  0
    0.6992   -0.0186   -3.1929 C   0  0  0  0  0  0  0  0  0  0  0  0
    0.5534    0.3648   -2.2721 H   0  0  0  0  0  0  0  0  0  0  0  0
   -0.0462    0.3975   -3.8708 H   0  0  0  0  0  0  0  0  0  0  0  0
    1.7085    0.2319   -3.5193 H   0  0  0  0  0  0  0  0  0  0  0  0
    0.5530   -1.5409   -3.0797 C   0  0  0  0  0  0  0  0  0  0  0  0
    0.6877   -1.9345   -3.9877 H   0  0  0  0  0  0  0  0  0  0  0  0
    1.2638   -1.8761   -2.4618 H   0  0  0  0  0  0  0  0  0  0  0  0
   -0.7976   -2.0058   -2.5523 C   0  0  0  0  0  0  0  0  0  0  0  0
   -0.9403   -1.6212   -1.6399 H   0  0  0  0  0  0  0  0  0  0  0  0
   -1.5172   -1.6805   -3.1666 H   0  0  0  0  0  0  0  0  0  0  0  0
   -0.8506   -3.0928   -2.4894 H   0  0  0  0  0  0  0  0  0  0  0  0
  1  5  1  0
  5  6  1  0
  5  7  2  0
  1  2  1  0
  1  3  1  0
  1  4  1  0
  8 12  1  0
 12 15  1  0
  8  9  1  0
  8 10  1  0
  8 11  1  0
 12 13  1  0
 12 14  1  0
 15 16  1  0
 15 17  1  0
 15 18  1  0
M  CHG  1   6  -1
M  END
>  <PDB_ID>  (1788) 
pdb6apx

>  <RESIDUE_NAME>  (1788) 
GLU   LYS

>  <FRAG_NAME>  (1788) 
ACET   PRPA

>  <FRAG_ATOM_NUM>  (1788) 
fragi: 7  fragj: 11

>  <atom.prop.CHAIN_ID>  (1788) 
A A A A A A A Z Z Z Z Z Z Z Z Z Z Z

>  <atom.prop.IS_HEAVY_ATOM>  (1788) 
1 0 0 0 1 1 1 1 0 0 0 1 0 0 1 0 0 0

>  <DIFUSE_FUNC_ATOM>  (1788) 
atom 6   atom 7   

>  <FINAL_SINGLE_POINT_ENERGY>  (1788) 
0

>  <NONCOV_INTER_ENERGY_QM>  (1788) 
0

>  <FF_Energy>  (1788) 
15.16

>  <QM_Energy>  (1788) 
-2.55

>  <source>  (1788) 
ACET_PRPA_22

>  <Index>  (1788) 
13900

$$$$
ACET-pdb6apx-A-GLU-28:PRPA-pdb6apx-A-LYS-34
     RDKit          3D

 18 16  0  0  0  0  0  0  0  0999 V2000
    0.0005    1.5155   -0.0268 C   0  0  0  0  0  0  0  0  0  0  0  0
   -0.1621    1.7948   -0.9555 H   0  0  0  0  0  0  0  0  0  0  0  0
    0.8760    1.8161    0.3042 H   0  0  0  0  0  0  0  0  0  0  0  0
   -0.7771    1.9443    0.6054 H   0  0  0  0  0  0  0  0  0  0  0  0
    0.0000    0.0000    0.0000 C   0  0  0  0  0  0  0  0  0  0  0  0
   -1.1023   -0.5938   -0.0000 O   0  0  0  0  0  1  0  0  0  0  0  0
    1.1023   -0.5965   -0.0000 O   0  0  0  0  0  0  0  0  0  0  0  0
    0.5530   -1.5409   -3.0797 C   0  0  0  0  0  0  0  0  0  0  0  0
    0.6877   -1.9345   -3.9877 H   0  0  0  0  0  0  0  0  0  0  0  0
    1.2638   -1.8761   -2.4618 H   0  0  0  0  0  0  0  0  0  0  0  0
    0.6569   -0.4588   -3.1602 H   0  0  0  0  0  0  0  0  0  0  0  0
   -0.7976   -2.0058   -2.5523 C   0  0  0  0  0  0  0  0  0  0  0  0
   -0.9403   -1.6212   -1.6399 H   0  0  0  0  0  0  0  0  0  0  0  0
   -1.5172   -1.6805   -3.1666 H   0  0  0  0  0  0  0  0  0  0  0  0
   -0.8716   -3.5203   -2.4647 C   0  0  0  0  0  0  0  0  0  0  0  0
   -0.7265   -3.9020   -3.3790 H   0  0  0  0  0  0  0  0  0  0  0  0
   -0.1506   -3.8430   -1.8510 H   0  0  0  0  0  0  0  0  0  0  0  0
   -1.8326   -3.8719   -2.0893 H   0  0  0  0  0  0  0  0  0  0  0  0
  1  5  1  0
  5  6  1  0
  5  7  2  0
  1  2  1  0
  1  3  1  0
  1  4  1  0
  8 12  1  0
 12 15  1  0
  8  9  1  0
  8 10  1  0
  8 11  1  0
 12 13  1  0
 12 14  1  0
 15 16  1  0
 15 17  1  0
 15 18  1  0
M  CHG  1   6  -1
M  END
>  <PDB_ID>  (1789) 
pdb6apx

>  <RESIDUE_NAME>  (1789) 
GLU   LYS

>  <FRAG_NAME>  (1789) 
ACET   PRPA

>  <FRAG_ATOM_NUM>  (1789) 
fragi: 7  fragj: 11

>  <atom.prop.CHAIN_ID>  (1789) 
A A A A A A A Z Z Z Z Z Z Z Z Z Z Z

>  <atom.prop.IS_HEAVY_ATOM>  (1789) 
1 0 0 0 1 1 1 1 0 0 0 1 0 0 1 0 0 0

>  <DIFUSE_FUNC_ATOM>  (1789) 
atom 6   atom 7   

>  <FINAL_SINGLE_POINT_ENERGY>  (1789) 
0

>  <NONCOV_INTER_ENERGY_QM>  (1789) 
0

>  <FF_Energy>  (1789) 
12.98

>  <QM_Energy>  (1789) 
-2.77

>  <source>  (1789) 
ACET_PRPA_22

>  <Index>  (1789) 
13908

$$$$
ACET-pdb6aq3-A-GLU-181:PRPA-pdb6aq3-A-LEU-151
     RDKit          3D

 18 16  0  0  0  0  0  0  0  0999 V2000
    0.1714    1.4856    0.0140 C   0  0  0  0  0  0  0  0  0  0  0  0
    0.6906    1.7415   -0.8032 H   0  0  0  0  0  0  0  0  0  0  0  0
    0.7026    1.7235    0.8297 H   0  0  0  0  0  0  0  0  0  0  0  0
   -0.7397    2.0840    0.0258 H   0  0  0  0  0  0  0  0  0  0  0  0
    0.0000    0.0000    0.0000 C   0  0  0  0  0  0  0  0  0  0  0  0
   -1.0898   -0.5590   -0.0000 O   0  0  0  0  0  1  0  0  0  0  0  0
    1.0898   -0.6065    0.0000 O   0  0  0  0  0  0  0  0  0  0  0  0
    4.8786    1.5531    1.7479 C   0  0  0  0  0  0  0  0  0  0  0  0
    5.1340    0.9796    2.5080 H   0  0  0  0  0  0  0  0  0  0  0  0
    4.6131    2.4550    2.0387 H   0  0  0  0  0  0  0  0  0  0  0  0
    5.7471    1.6521    1.0967 H   0  0  0  0  0  0  0  0  0  0  0  0
    3.6720    0.9099    1.0661 C   0  0  0  0  0  0  0  0  0  0  0  0
    3.8828   -0.0504    0.8738 H   0  0  0  0  0  0  0  0  0  0  0  0
    3.4899    1.4370    0.1295 H   0  0  0  0  0  0  0  0  0  0  0  0
    2.4486    0.9930    1.9510 C   0  0  0  0  0  0  0  0  0  0  0  0
    2.2343    1.9526    2.1438 H   0  0  0  0  0  0  0  0  0  0  0  0
    1.6670    0.5679    1.4905 H   0  0  0  0  0  0  0  0  0  0  0  0
    2.6211    0.5152    2.8142 H   0  0  0  0  0  0  0  0  0  0  0  0
  1  5  1  0
  5  6  1  0
  5  7  2  0
  1  2  1  0
  1  3  1  0
  1  4  1  0
  8 12  1  0
 12 15  1  0
  8  9  1  0
  8 10  1  0
  8 11  1  0
 12 13  1  0
 12 14  1  0
 15 16  1  0
 15 17  1  0
 15 18  1  0
M  CHG  1   6  -1
M  END
>  <PDB_ID>  (1790) 
pdb6aq3

>  <RESIDUE_NAME>  (1790) 
GLU   LEU

>  <FRAG_NAME>  (1790) 
ACET   PRPA

>  <FRAG_ATOM_NUM>  (1790) 
fragi: 7  fragj: 11

>  <atom.prop.CHAIN_ID>  (1790) 
A A A A A A A Z Z Z Z Z Z Z Z Z Z Z

>  <atom.prop.IS_HEAVY_ATOM>  (1790) 
1 0 0 0 1 1 1 1 0 0 0 1 0 0 1 0 0 0

>  <DIFUSE_FUNC_ATOM>  (1790) 
atom 6   atom 7   

>  <FINAL_SINGLE_POINT_ENERGY>  (1790) 
0

>  <NONCOV_INTER_ENERGY_QM>  (1790) 
0

>  <FF_Energy>  (1790) 
30.91

>  <QM_Energy>  (1790) 
4.73

>  <source>  (1790) 
ACET_PRPA_22

>  <Index>  (1790) 
16380

$$$$
ACET-pdb6aq3-A-GLU-181:PRPA-pdb6aq3-A-LEU-151
     RDKit          3D

 18 16  0  0  0  0  0  0  0  0999 V2000
    0.1714    1.4856    0.0140 C   0  0  0  0  0  0  0  0  0  0  0  0
    0.6906    1.7415   -0.8032 H   0  0  0  0  0  0  0  0  0  0  0  0
    0.7026    1.7235    0.8297 H   0  0  0  0  0  0  0  0  0  0  0  0
   -0.7397    2.0840    0.0258 H   0  0  0  0  0  0  0  0  0  0  0  0
    0.0000    0.0000    0.0000 C   0  0  0  0  0  0  0  0  0  0  0  0
   -1.0898   -0.5590   -0.0000 O   0  0  0  0  0  1  0  0  0  0  0  0
    1.0898   -0.6065    0.0000 O   0  0  0  0  0  0  0  0  0  0  0  0
    2.4486    0.9930    1.9510 C   0  0  0  0  0  0  0  0  0  0  0  0
    2.2343    1.9526    2.1438 H   0  0  0  0  0  0  0  0  0  0  0  0
    1.6670    0.5679    1.4905 H   0  0  0  0  0  0  0  0  0  0  0  0
    2.6211    0.5152    2.8142 H   0  0  0  0  0  0  0  0  0  0  0  0
    3.6720    0.9099    1.0661 C   0  0  0  0  0  0  0  0  0  0  0  0
    3.8828   -0.0504    0.8738 H   0  0  0  0  0  0  0  0  0  0  0  0
    4.5328    1.3687    1.5525 H   0  0  0  0  0  0  0  0  0  0  0  0
    3.4166    1.6492   -0.2475 C   0  0  0  0  0  0  0  0  0  0  0  0
    4.2235    1.5737   -0.8320 H   0  0  0  0  0  0  0  0  0  0  0  0
    2.6292    1.2414   -0.7095 H   0  0  0  0  0  0  0  0  0  0  0  0
    3.2308    2.6123   -0.0542 H   0  0  0  0  0  0  0  0  0  0  0  0
  1  5  1  0
  5  6  1  0
  5  7  2  0
  1  2  1  0
  1  3  1  0
  1  4  1  0
  8 12  1  0
 12 15  1  0
  8  9  1  0
  8 10  1  0
  8 11  1  0
 12 13  1  0
 12 14  1  0
 15 16  1  0
 15 17  1  0
 15 18  1  0
M  CHG  1   6  -1
M  END
>  <PDB_ID>  (1791) 
pdb6aq3

>  <RESIDUE_NAME>  (1791) 
GLU   LEU

>  <FRAG_NAME>  (1791) 
ACET   PRPA

>  <FRAG_ATOM_NUM>  (1791) 
fragi: 7  fragj: 11

>  <atom.prop.CHAIN_ID>  (1791) 
A A A A A A A Z Z Z Z Z Z Z Z Z Z Z

>  <atom.prop.IS_HEAVY_ATOM>  (1791) 
1 0 0 0 1 1 1 1 0 0 0 1 0 0 1 0 0 0

>  <DIFUSE_FUNC_ATOM>  (1791) 
atom 6   atom 7   

>  <FINAL_SINGLE_POINT_ENERGY>  (1791) 
0

>  <NONCOV_INTER_ENERGY_QM>  (1791) 
0

>  <FF_Energy>  (1791) 
33.93

>  <QM_Energy>  (1791) 
4.91

>  <source>  (1791) 
ACET_PRPA_22

>  <Index>  (1791) 
16385

$$$$
ACET-pdb6axe-A-GLU-74:PRPA-pdb6axe-A-ARG-71
     RDKit          3D

 18 16  0  0  0  0  0  0  0  0999 V2000
    0.1733    1.4840    0.0164 C   0  0  0  0  0  0  0  0  0  0  0  0
    0.6930    1.7418   -0.8009 H   0  0  0  0  0  0  0  0  0  0  0  0
    0.7054    1.7223    0.8313 H   0  0  0  0  0  0  0  0  0  0  0  0
   -0.7365    2.0843    0.0289 H   0  0  0  0  0  0  0  0  0  0  0  0
    0.0000    0.0000    0.0000 C   0  0  0  0  0  0  0  0  0  0  0  0
   -1.0898   -0.5581    0.0000 O   0  0  0  0  0  1  0  0  0  0  0  0
    1.0898   -0.6070    0.0000 O   0  0  0  0  0  0  0  0  0  0  0  0
   -1.9261    0.3953    3.5212 C   0  0  0  0  0  0  0  0  0  0  0  0
   -2.5638    0.2542    4.2656 H   0  0  0  0  0  0  0  0  0  0  0  0
   -2.2759    1.0586    2.8747 H   0  0  0  0  0  0  0  0  0  0  0  0
   -0.9973    0.7845    3.9382 H   0  0  0  0  0  0  0  0  0  0  0  0
   -1.7212   -0.9077    2.8094 C   0  0  0  0  0  0  0  0  0  0  0  0
   -1.2921   -0.7441    1.9161 H   0  0  0  0  0  0  0  0  0  0  0  0
   -1.1191   -1.5010    3.3518 H   0  0  0  0  0  0  0  0  0  0  0  0
   -3.0172   -1.6562    2.5721 C   0  0  0  0  0  0  0  0  0  0  0  0
   -3.4322   -1.8442    3.4451 H   0  0  0  0  0  0  0  0  0  0  0  0
   -3.5964   -1.0995    2.0013 H   0  0  0  0  0  0  0  0  0  0  0  0
   -2.7964   -2.5946    2.0634 H   0  0  0  0  0  0  0  0  0  0  0  0
  1  5  1  0
  5  6  1  0
  5  7  2  0
  1  2  1  0
  1  3  1  0
  1  4  1  0
  8 12  1  0
 12 15  1  0
  8  9  1  0
  8 10  1  0
  8 11  1  0
 12 13  1  0
 12 14  1  0
 15 16  1  0
 15 17  1  0
 15 18  1  0
M  CHG  1   6  -1
M  END
>  <PDB_ID>  (1792) 
pdb6axe

>  <RESIDUE_NAME>  (1792) 
GLU   ARG

>  <FRAG_NAME>  (1792) 
ACET   PRPA

>  <FRAG_ATOM_NUM>  (1792) 
fragi: 7  fragj: 11

>  <atom.prop.CHAIN_ID>  (1792) 
A A A A A A A Z Z Z Z Z Z Z Z Z Z Z

>  <atom.prop.IS_HEAVY_ATOM>  (1792) 
1 0 0 0 1 1 1 1 0 0 0 1 0 0 1 0 0 0

>  <DIFUSE_FUNC_ATOM>  (1792) 
atom 6   atom 7   

>  <FINAL_SINGLE_POINT_ENERGY>  (1792) 
0

>  <NONCOV_INTER_ENERGY_QM>  (1792) 
0

>  <FF_Energy>  (1792) 
13.49

>  <QM_Energy>  (1792) 
-1.86

>  <source>  (1792) 
ACET_PRPA_22

>  <Index>  (1792) 
18041

$$$$
ACET-pdb5b2o-A-GLU-149:PRPA-pdb5b2o-A-LEU-146
     RDKit          3D

 18 16  0  0  0  0  0  0  0  0999 V2000
    0.1734    1.4852    0.0141 C   0  0  0  0  0  0  0  0  0  0  0  0
    0.6922    1.7408   -0.8027 H   0  0  0  0  0  0  0  0  0  0  0  0
    0.7041    1.7225    0.8299 H   0  0  0  0  0  0  0  0  0  0  0  0
   -0.7380    2.0829    0.0266 H   0  0  0  0  0  0  0  0  0  0  0  0
    0.0000    0.0000    0.0000 C   0  0  0  0  0  0  0  0  0  0  0  0
   -1.0894   -0.5595    0.0000 O   0  0  0  0  0  1  0  0  0  0  0  0
    1.0894   -0.6072    0.0000 O   0  0  0  0  0  0  0  0  0  0  0  0
    2.5117    0.4745    2.1283 C   0  0  0  0  0  0  0  0  0  0  0  0
    2.0669    0.3072    1.2395 H   0  0  0  0  0  0  0  0  0  0  0  0
    3.5658    0.6898    1.9535 H   0  0  0  0  0  0  0  0  0  0  0  0
    2.0112    1.3138    2.6113 H   0  0  0  0  0  0  0  0  0  0  0  0
    2.3697   -0.7982    2.9648 C   0  0  0  0  0  0  0  0  0  0  0  0
    3.0664   -1.4503    2.6501 H   0  0  0  0  0  0  0  0  0  0  0  0
    2.5606   -0.5586    3.9206 H   0  0  0  0  0  0  0  0  0  0  0  0
    1.0245   -1.5325    2.9439 C   0  0  0  0  0  0  0  0  0  0  0  0
    0.6234   -1.4455    2.0327 H   0  0  0  0  0  0  0  0  0  0  0  0
    1.1611   -2.5872    3.1827 H   0  0  0  0  0  0  0  0  0  0  0  0
    0.3066   -1.0959    3.6383 H   0  0  0  0  0  0  0  0  0  0  0  0
  1  5  1  0
  5  6  1  0
  5  7  2  0
  1  2  1  0
  1  3  1  0
  1  4  1  0
  8 12  1  0
 12 15  1  0
  8  9  1  0
  8 10  1  0
  8 11  1  0
 12 13  1  0
 12 14  1  0
 15 16  1  0
 15 17  1  0
 15 18  1  0
M  CHG  1   6  -1
M  END
>  <PDB_ID>  (1793) 
pdb5b2o

>  <RESIDUE_NAME>  (1793) 
GLU   LEU

>  <FRAG_NAME>  (1793) 
ACET   PRPA

>  <FRAG_ATOM_NUM>  (1793) 
fragi: 7  fragj: 11

>  <atom.prop.CHAIN_ID>  (1793) 
A A A A A A A Z Z Z Z Z Z Z Z Z Z Z

>  <atom.prop.IS_HEAVY_ATOM>  (1793) 
1 0 0 0 1 1 1 1 0 0 0 1 0 0 1 0 0 0

>  <DIFUSE_FUNC_ATOM>  (1793) 
atom 6   atom 7   

>  <FINAL_SINGLE_POINT_ENERGY>  (1793) 
0

>  <NONCOV_INTER_ENERGY_QM>  (1793) 
0

>  <FF_Energy>  (1793) 
30.28

>  <QM_Energy>  (1793) 
0.38

>  <source>  (1793) 
ACET_PRPA_22

>  <Index>  (1793) 
18288

$$$$
ACET-pdb5b2o-A-ASP-133:PRPA-pdb5b2o-A-LYS-164
     RDKit          3D

 18 16  0  0  0  0  0  0  0  0999 V2000
    0.0210    1.5147   -0.0137 C   0  0  0  0  0  0  0  0  0  0  0  0
    0.0164    1.8274   -0.9589 H   0  0  0  0  0  0  0  0  0  0  0  0
    0.8438    1.8290    0.4488 H   0  0  0  0  0  0  0  0  0  0  0  0
   -0.8378    1.9580    0.4903 H   0  0  0  0  0  0  0  0  0  0  0  0
    0.0000    0.0000    0.0000 C   0  0  0  0  0  0  0  0  0  0  0  0
   -1.1048   -0.5982    0.0000 O   0  0  0  0  0  1  0  0  0  0  0  0
    1.1048   -0.5871   -0.0000 O   0  0  0  0  0  0  0  0  0  0  0  0
    1.6270   -4.2171    0.8473 C   0  0  0  0  0  0  0  0  0  0  0  0
    1.1889   -3.8585    1.6745 H   0  0  0  0  0  0  0  0  0  0  0  0
    2.6035   -4.3508    1.0229 H   0  0  0  0  0  0  0  0  0  0  0  0
    1.1774   -5.1784    0.5984 H   0  0  0  0  0  0  0  0  0  0  0  0
    1.4593   -3.2101   -0.2745 C   0  0  0  0  0  0  0  0  0  0  0  0
    1.9638   -2.3782   -0.0373 H   0  0  0  0  0  0  0  0  0  0  0  0
    1.8391   -3.5988   -1.1155 H   0  0  0  0  0  0  0  0  0  0  0  0
    0.0136   -2.8456   -0.5196 C   0  0  0  0  0  0  0  0  0  0  0  0
   -0.4971   -3.6718   -0.7622 H   0  0  0  0  0  0  0  0  0  0  0  0
   -0.3726   -2.4518    0.3148 H   0  0  0  0  0  0  0  0  0  0  0  0
   -0.0698   -2.1214   -1.3300 H   0  0  0  0  0  0  0  0  0  0  0  0
  1  5  1  0
  5  6  1  0
  5  7  2  0
  1  2  1  0
  1  3  1  0
  1  4  1  0
  8 12  1  0
 12 15  1  0
  8  9  1  0
  8 10  1  0
  8 11  1  0
 12 13  1  0
 12 14  1  0
 15 16  1  0
 15 17  1  0
 15 18  1  0
M  CHG  1   6  -1
M  END
>  <PDB_ID>  (1794) 
pdb5b2o

>  <RESIDUE_NAME>  (1794) 
ASP   LYS

>  <FRAG_NAME>  (1794) 
ACET   PRPA

>  <FRAG_ATOM_NUM>  (1794) 
fragi: 7  fragj: 11

>  <atom.prop.CHAIN_ID>  (1794) 
A A A A A A A Z Z Z Z Z Z Z Z Z Z Z

>  <atom.prop.IS_HEAVY_ATOM>  (1794) 
1 0 0 0 1 1 1 1 0 0 0 1 0 0 1 0 0 0

>  <DIFUSE_FUNC_ATOM>  (1794) 
atom 6   atom 7   

>  <FINAL_SINGLE_POINT_ENERGY>  (1794) 
0

>  <NONCOV_INTER_ENERGY_QM>  (1794) 
0

>  <FF_Energy>  (1794) 
39.5

>  <QM_Energy>  (1794) 
11.98

>  <source>  (1794) 
ACET_PRPA_22

>  <Index>  (1794) 
18420

$$$$
ACET-pdb6b05-A-GLU-26:PRPA-pdb6b05-A-PRO-54
     RDKit          3D

 18 16  0  0  0  0  0  0  0  0999 V2000
    0.1660    1.4833    0.0144 C   0  0  0  0  0  0  0  0  0  0  0  0
    0.6859    1.7423   -0.8027 H   0  0  0  0  0  0  0  0  0  0  0  0
    0.6981    1.7247    0.8293 H   0  0  0  0  0  0  0  0  0  0  0  0
   -0.7446    2.0822    0.0264 H   0  0  0  0  0  0  0  0  0  0  0  0
    0.0000    0.0000    0.0000 C   0  0  0  0  0  0  0  0  0  0  0  0
   -1.0900   -0.5607   -0.0000 O   0  0  0  0  0  1  0  0  0  0  0  0
    1.0900   -0.6046   -0.0000 O   0  0  0  0  0  0  0  0  0  0  0  0
    3.1636    4.4990   -0.2972 C   0  0  0  0  0  0  0  0  0  0  0  0
    3.4033    5.4457   -0.0269 H   0  0  0  0  0  0  0  0  0  0  0  0
    3.0980    4.4817   -1.3077 H   0  0  0  0  0  0  0  0  0  0  0  0
    3.9433    3.8130    0.0337 H   0  0  0  0  0  0  0  0  0  0  0  0
    1.9234    4.0518    0.3359 C   0  0  0  0  0  0  0  0  0  0  0  0
    1.3298    4.8471    0.5719 H   0  0  0  0  0  0  0  0  0  0  0  0
    1.3820    3.4690   -0.3016 H   0  0  0  0  0  0  0  0  0  0  0  0
    2.2942    3.2934    1.5545 C   0  0  0  0  0  0  0  0  0  0  0  0
    2.3875    3.8902    2.3530 H   0  0  0  0  0  0  0  0  0  0  0  0
    1.6338    2.5681    1.7598 H   0  0  0  0  0  0  0  0  0  0  0  0
    3.2591    2.8648    1.2836 H   0  0  0  0  0  0  0  0  0  0  0  0
  1  5  1  0
  5  6  1  0
  5  7  2  0
  1  2  1  0
  1  3  1  0
  1  4  1  0
  8 12  1  0
 12 15  1  0
  8  9  1  0
  8 10  1  0
  8 11  1  0
 12 13  1  0
 12 14  1  0
 15 16  1  0
 15 17  1  0
 15 18  1  0
M  CHG  1   6  -1
M  END
>  <PDB_ID>  (1795) 
pdb6b05

>  <RESIDUE_NAME>  (1795) 
GLU   PRO

>  <FRAG_NAME>  (1795) 
ACET   PRPA

>  <FRAG_ATOM_NUM>  (1795) 
fragi: 7  fragj: 11

>  <atom.prop.CHAIN_ID>  (1795) 
A A A A A A A Z Z Z Z Z Z Z Z Z Z Z

>  <atom.prop.IS_HEAVY_ATOM>  (1795) 
1 0 0 0 1 1 1 1 0 0 0 1 0 0 1 0 0 0

>  <DIFUSE_FUNC_ATOM>  (1795) 
atom 6   atom 7   

>  <FINAL_SINGLE_POINT_ENERGY>  (1795) 
0

>  <NONCOV_INTER_ENERGY_QM>  (1795) 
0

>  <FF_Energy>  (1795) 
22.81

>  <QM_Energy>  (1795) 
4.54

>  <source>  (1795) 
ACET_PRPA_22

>  <Index>  (1795) 
18687

$$$$
ACET-pdb5bnf-A-ASP-86:PRPA-pdb5bnf-A-LYS-89
     RDKit          3D

 18 16  0  0  0  0  0  0  0  0999 V2000
   -0.0008    1.5194   -0.0066 C   0  0  0  0  0  0  0  0  0  0  0  0
   -0.3227    1.8329   -0.8922 H   0  0  0  0  0  0  0  0  0  0  0  0
    0.9223    1.8387    0.1642 H   0  0  0  0  0  0  0  0  0  0  0  0
   -0.6531    1.9384    0.7595 H   0  0  0  0  0  0  0  0  0  0  0  0
    0.0000    0.0000    0.0000 C   0  0  0  0  0  0  0  0  0  0  0  0
   -1.0957   -0.6019    0.0000 O   0  0  0  0  0  1  0  0  0  0  0  0
    1.0957   -0.5976   -0.0000 O   0  0  0  0  0  0  0  0  0  0  0  0
    3.2238   -1.3117    2.5245 C   0  0  0  0  0  0  0  0  0  0  0  0
    3.8126   -2.0509    2.2026 H   0  0  0  0  0  0  0  0  0  0  0  0
    2.1915   -1.6611    2.5455 H   0  0  0  0  0  0  0  0  0  0  0  0
    3.5190   -1.0429    3.5388 H   0  0  0  0  0  0  0  0  0  0  0  0
    3.3380   -0.0849    1.6221 C   0  0  0  0  0  0  0  0  0  0  0  0
    2.4574    0.0465    1.1620 H   0  0  0  0  0  0  0  0  0  0  0  0
    3.5256    0.7115    2.2027 H   0  0  0  0  0  0  0  0  0  0  0  0
    4.4197   -0.1710    0.5649 C   0  0  0  0  0  0  0  0  0  0  0  0
    5.1729    0.4323    0.8141 H   0  0  0  0  0  0  0  0  0  0  0  0
    4.7428   -1.1108    0.4987 H   0  0  0  0  0  0  0  0  0  0  0  0
    4.0303    0.1358   -0.4059 H   0  0  0  0  0  0  0  0  0  0  0  0
  1  5  1  0
  5  6  1  0
  5  7  2  0
  1  2  1  0
  1  3  1  0
  1  4  1  0
  8 12  1  0
 12 15  1  0
  8  9  1  0
  8 10  1  0
  8 11  1  0
 12 13  1  0
 12 14  1  0
 15 16  1  0
 15 17  1  0
 15 18  1  0
M  CHG  1   6  -1
M  END
>  <PDB_ID>  (1796) 
pdb5bnf

>  <RESIDUE_NAME>  (1796) 
ASP   LYS

>  <FRAG_NAME>  (1796) 
ACET   PRPA

>  <FRAG_ATOM_NUM>  (1796) 
fragi: 7  fragj: 11

>  <atom.prop.CHAIN_ID>  (1796) 
A A A A A A A Z Z Z Z Z Z Z Z Z Z Z

>  <atom.prop.IS_HEAVY_ATOM>  (1796) 
1 0 0 0 1 1 1 1 0 0 0 1 0 0 1 0 0 0

>  <DIFUSE_FUNC_ATOM>  (1796) 
atom 6   atom 7   

>  <FINAL_SINGLE_POINT_ENERGY>  (1796) 
0

>  <NONCOV_INTER_ENERGY_QM>  (1796) 
0

>  <FF_Energy>  (1796) 
16.39

>  <QM_Energy>  (1796) 
-1.99

>  <source>  (1796) 
ACET_PRPA_22

>  <Index>  (1796) 
18943

$$$$
ACET-pdb5bnf-A-ASP-86:PRPA-pdb5bnf-A-LYS-89
     RDKit          3D

 18 16  0  0  0  0  0  0  0  0999 V2000
   -0.0008    1.5194   -0.0066 C   0  0  0  0  0  0  0  0  0  0  0  0
   -0.3227    1.8329   -0.8922 H   0  0  0  0  0  0  0  0  0  0  0  0
    0.9223    1.8387    0.1642 H   0  0  0  0  0  0  0  0  0  0  0  0
   -0.6531    1.9384    0.7595 H   0  0  0  0  0  0  0  0  0  0  0  0
    0.0000    0.0000    0.0000 C   0  0  0  0  0  0  0  0  0  0  0  0
   -1.0957   -0.6019    0.0000 O   0  0  0  0  0  1  0  0  0  0  0  0
    1.0957   -0.5976   -0.0000 O   0  0  0  0  0  0  0  0  0  0  0  0
    3.3380   -0.0849    1.6221 C   0  0  0  0  0  0  0  0  0  0  0  0
    2.4574    0.0465    1.1620 H   0  0  0  0  0  0  0  0  0  0  0  0
    3.5256    0.7115    2.2027 H   0  0  0  0  0  0  0  0  0  0  0  0
    3.2565   -0.9605    2.2661 H   0  0  0  0  0  0  0  0  0  0  0  0
    4.4197   -0.1710    0.5649 C   0  0  0  0  0  0  0  0  0  0  0  0
    5.1729    0.4323    0.8141 H   0  0  0  0  0  0  0  0  0  0  0  0
    4.7428   -1.1108    0.4987 H   0  0  0  0  0  0  0  0  0  0  0  0
    3.8756    0.2576   -0.7915 C   0  0  0  0  0  0  0  0  0  0  0  0
    4.6154    0.2292   -1.4586 H   0  0  0  0  0  0  0  0  0  0  0  0
    3.1471   -0.3661   -1.0593 H   0  0  0  0  0  0  0  0  0  0  0  0
    3.4717    1.2697   -0.7654 H   0  0  0  0  0  0  0  0  0  0  0  0
  1  5  1  0
  5  6  1  0
  5  7  2  0
  1  2  1  0
  1  3  1  0
  1  4  1  0
  8 12  1  0
 12 15  1  0
  8  9  1  0
  8 10  1  0
  8 11  1  0
 12 13  1  0
 12 14  1  0
 15 16  1  0
 15 17  1  0
 15 18  1  0
M  CHG  1   6  -1
M  END
>  <PDB_ID>  (1797) 
pdb5bnf

>  <RESIDUE_NAME>  (1797) 
ASP   LYS

>  <FRAG_NAME>  (1797) 
ACET   PRPA

>  <FRAG_ATOM_NUM>  (1797) 
fragi: 7  fragj: 11

>  <atom.prop.CHAIN_ID>  (1797) 
A A A A A A A Z Z Z Z Z Z Z Z Z Z Z

>  <atom.prop.IS_HEAVY_ATOM>  (1797) 
1 0 0 0 1 1 1 1 0 0 0 1 0 0 1 0 0 0

>  <DIFUSE_FUNC_ATOM>  (1797) 
atom 6   atom 7   

>  <FINAL_SINGLE_POINT_ENERGY>  (1797) 
0

>  <NONCOV_INTER_ENERGY_QM>  (1797) 
0

>  <FF_Energy>  (1797) 
15.63

>  <QM_Energy>  (1797) 
-0.47

>  <source>  (1797) 
ACET_PRPA_22

>  <Index>  (1797) 
18948

$$$$
ACET-pdb6ay1-F-GLU-32:PRPA-pdb6ay1-E-LYS-17
     RDKit          3D

 18 16  0  0  0  0  0  0  0  0999 V2000
    0.0013    1.5176   -0.0171 C   0  0  0  0  0  0  0  0  0  0  0  0
    0.7528    1.8066   -0.5787 H   0  0  0  0  0  0  0  0  0  0  0  0
    0.0888    1.8240    0.9117 H   0  0  0  0  0  0  0  0  0  0  0  0
   -0.9174    1.9317   -0.4326 H   0  0  0  0  0  0  0  0  0  0  0  0
    0.0000    0.0000    0.0000 C   0  0  0  0  0  0  0  0  0  0  0  0
   -1.0985   -0.5944    0.0000 O   0  0  0  0  0  1  0  0  0  0  0  0
    1.0985   -0.5976   -0.0000 O   0  0  0  0  0  0  0  0  0  0  0  0
    1.5882    4.4002    2.1006 C   0  0  0  0  0  0  0  0  0  0  0  0
    1.7735    3.7942    1.3264 H   0  0  0  0  0  0  0  0  0  0  0  0
    1.7775    3.9179    2.9552 H   0  0  0  0  0  0  0  0  0  0  0  0
    2.2400    5.2711    2.0322 H   0  0  0  0  0  0  0  0  0  0  0  0
    0.1220    4.7990    2.0729 C   0  0  0  0  0  0  0  0  0  0  0  0
   -0.0590    5.4074    2.8461 H   0  0  0  0  0  0  0  0  0  0  0  0
   -0.0633    5.2828    1.2175 H   0  0  0  0  0  0  0  0  0  0  0  0
   -0.8038    3.6075    2.1665 C   0  0  0  0  0  0  0  0  0  0  0  0
   -0.6318    2.9963    1.3944 H   0  0  0  0  0  0  0  0  0  0  0  0
   -0.6273    3.1205    3.0220 H   0  0  0  0  0  0  0  0  0  0  0  0
   -1.8456    3.9276    2.1441 H   0  0  0  0  0  0  0  0  0  0  0  0
  1  5  1  0
  5  6  1  0
  5  7  2  0
  1  2  1  0
  1  3  1  0
  1  4  1  0
  8 12  1  0
 12 15  1  0
  8  9  1  0
  8 10  1  0
  8 11  1  0
 12 13  1  0
 12 14  1  0
 15 16  1  0
 15 17  1  0
 15 18  1  0
M  CHG  1   6  -1
M  END
>  <PDB_ID>  (1798) 
pdb6ay1

>  <RESIDUE_NAME>  (1798) 
GLU   LYS

>  <FRAG_NAME>  (1798) 
ACET   PRPA

>  <FRAG_ATOM_NUM>  (1798) 
fragi: 7  fragj: 11

>  <atom.prop.CHAIN_ID>  (1798) 
A A A A A A A Z Z Z Z Z Z Z Z Z Z Z

>  <atom.prop.IS_HEAVY_ATOM>  (1798) 
1 0 0 0 1 1 1 1 0 0 0 1 0 0 1 0 0 0

>  <DIFUSE_FUNC_ATOM>  (1798) 
atom 6   atom 7   

>  <FINAL_SINGLE_POINT_ENERGY>  (1798) 
0

>  <NONCOV_INTER_ENERGY_QM>  (1798) 
0

>  <FF_Energy>  (1798) 
45.78

>  <QM_Energy>  (1798) 
6.51

>  <source>  (1798) 
ACET_PRPA_22

>  <Index>  (1798) 
21753

$$$$
ACET-pdb6aa8-F-ASP-103:PRPA-pdb6aa8-F-ARG-130
     RDKit          3D

 18 16  0  0  0  0  0  0  0  0999 V2000
    0.0197    1.5242   -0.0278 C   0  0  0  0  0  0  0  0  0  0  0  0
   -0.1151    1.8258   -0.9642 H   0  0  0  0  0  0  0  0  0  0  0  0
    0.8968    1.8365    0.3164 H   0  0  0  0  0  0  0  0  0  0  0  0
   -0.7625    1.9711    0.5859 H   0  0  0  0  0  0  0  0  0  0  0  0
    0.0000    0.0000    0.0000 C   0  0  0  0  0  0  0  0  0  0  0  0
   -1.1011   -0.5952    0.0000 O   0  0  0  0  0  1  0  0  0  0  0  0
    1.1011   -0.5973    0.0000 O   0  0  0  0  0  0  0  0  0  0  0  0
   -3.3574   -2.6464   -2.3780 C   0  0  0  0  0  0  0  0  0  0  0  0
   -4.2621   -3.0069   -2.5888 H   0  0  0  0  0  0  0  0  0  0  0  0
   -3.1212   -2.8501   -1.4320 H   0  0  0  0  0  0  0  0  0  0  0  0
   -2.6364   -3.1512   -3.0208 H   0  0  0  0  0  0  0  0  0  0  0  0
   -3.3977   -1.1345   -2.5416 C   0  0  0  0  0  0  0  0  0  0  0  0
   -2.5881   -0.8329   -3.0440 H   0  0  0  0  0  0  0  0  0  0  0  0
   -4.2200   -0.8767   -3.0485 H   0  0  0  0  0  0  0  0  0  0  0  0
   -3.4221   -0.4103   -1.2038 C   0  0  0  0  0  0  0  0  0  0  0  0
   -2.8539   -0.9310   -0.5657 H   0  0  0  0  0  0  0  0  0  0  0  0
   -3.0204    0.4958   -1.3422 H   0  0  0  0  0  0  0  0  0  0  0  0
   -4.4304   -0.3100   -0.8023 H   0  0  0  0  0  0  0  0  0  0  0  0
  1  5  1  0
  5  6  1  0
  5  7  2  0
  1  2  1  0
  1  3  1  0
  1  4  1  0
  8 12  1  0
 12 15  1  0
  8  9  1  0
  8 10  1  0
  8 11  1  0
 12 13  1  0
 12 14  1  0
 15 16  1  0
 15 17  1  0
 15 18  1  0
M  CHG  1   6  -1
M  END
>  <PDB_ID>  (1799) 
pdb6aa8

>  <RESIDUE_NAME>  (1799) 
ASP   ARG

>  <FRAG_NAME>  (1799) 
ACET   PRPA

>  <FRAG_ATOM_NUM>  (1799) 
fragi: 7  fragj: 11

>  <atom.prop.CHAIN_ID>  (1799) 
A A A A A A A Z Z Z Z Z Z Z Z Z Z Z

>  <atom.prop.IS_HEAVY_ATOM>  (1799) 
1 0 0 0 1 1 1 1 0 0 0 1 0 0 1 0 0 0

>  <DIFUSE_FUNC_ATOM>  (1799) 
atom 6   atom 7   

>  <FINAL_SINGLE_POINT_ENERGY>  (1799) 
0

>  <NONCOV_INTER_ENERGY_QM>  (1799) 
0

>  <FF_Energy>  (1799) 
20.71

>  <QM_Energy>  (1799) 
2.36

>  <source>  (1799) 
ACET_PRPA_22

>  <Index>  (1799) 
23279

$$$$
ACET-pdb6ccf-A-GLU-133:PRPA-pdb6ccf-A-LYS-136
     RDKit          3D

 18 16  0  0  0  0  0  0  0  0999 V2000
    0.0005    1.5167    0.0231 C   0  0  0  0  0  0  0  0  0  0  0  0
    0.8943    1.8162   -0.2540 H   0  0  0  0  0  0  0  0  0  0  0  0
   -0.2192    1.7976    0.9384 H   0  0  0  0  0  0  0  0  0  0  0  0
   -0.7344    1.9466   -0.6576 H   0  0  0  0  0  0  0  0  0  0  0  0
    0.0000    0.0000    0.0000 C   0  0  0  0  0  0  0  0  0  0  0  0
   -1.1006   -0.5991   -0.0000 O   0  0  0  0  0  1  0  0  0  0  0  0
    1.1006   -0.5973    0.0000 O   0  0  0  0  0  0  0  0  0  0  0  0
    4.3409   -0.2807    3.1143 C   0  0  0  0  0  0  0  0  0  0  0  0
    3.4769   -0.2162    3.6254 H   0  0  0  0  0  0  0  0  0  0  0  0
    4.5572    0.6962    2.6820 H   0  0  0  0  0  0  0  0  0  0  0  0
    5.1343   -0.5934    3.7932 H   0  0  0  0  0  0  0  0  0  0  0  0
    4.1466   -1.3423    2.0194 C   0  0  0  0  0  0  0  0  0  0  0  0
    5.0451   -1.7002    1.7738 H   0  0  0  0  0  0  0  0  0  0  0  0
    3.5832   -2.0742    2.3968 H   0  0  0  0  0  0  0  0  0  0  0  0
    3.4744   -0.8206    0.7568 C   0  0  0  0  0  0  0  0  0  0  0  0
    2.5714   -0.4622    0.9930 H   0  0  0  0  0  0  0  0  0  0  0  0
    4.0336   -0.0878    0.3691 H   0  0  0  0  0  0  0  0  0  0  0  0
    3.3583   -1.6084    0.0125 H   0  0  0  0  0  0  0  0  0  0  0  0
  1  5  1  0
  5  6  1  0
  5  7  2  0
  1  2  1  0
  1  3  1  0
  1  4  1  0
  8 12  1  0
 12 15  1  0
  8  9  1  0
  8 10  1  0
  8 11  1  0
 12 13  1  0
 12 14  1  0
 15 16  1  0
 15 17  1  0
 15 18  1  0
M  CHG  1   6  -1
M  END
>  <PDB_ID>  (1800) 
pdb6ccf

>  <RESIDUE_NAME>  (1800) 
GLU   LYS

>  <FRAG_NAME>  (1800) 
ACET   PRPA

>  <FRAG_ATOM_NUM>  (1800) 
fragi: 7  fragj: 11

>  <atom.prop.CHAIN_ID>  (1800) 
A A A A A A A Z Z Z Z Z Z Z Z Z Z Z

>  <atom.prop.IS_HEAVY_ATOM>  (1800) 
1 0 0 0 1 1 1 1 0 0 0 1 0 0 1 0 0 0

>  <DIFUSE_FUNC_ATOM>  (1800) 
atom 6   atom 7   

>  <FINAL_SINGLE_POINT_ENERGY>  (1800) 
0

>  <NONCOV_INTER_ENERGY_QM>  (1800) 
0

>  <FF_Energy>  (1800) 
39.7

>  <QM_Energy>  (1800) 
7.12

>  <source>  (1800) 
ACET_PRPA_22

>  <Index>  (1800) 
31789

$$$$
ACET-pdb6b9s-B-GLU-32:PRPA-pdb6b9s-B-ILE-42
     RDKit          3D

 18 16  0  0  0  0  0  0  0  0999 V2000
    0.1706    1.4837    0.0124 C   0  0  0  0  0  0  0  0  0  0  0  0
    0.6903    1.7404   -0.8058 H   0  0  0  0  0  0  0  0  0  0  0  0
    0.7020    1.7243    0.8272 H   0  0  0  0  0  0  0  0  0  0  0  0
   -0.7401    2.0827    0.0231 H   0  0  0  0  0  0  0  0  0  0  0  0
    0.0000    0.0000    0.0000 C   0  0  0  0  0  0  0  0  0  0  0  0
   -1.0895   -0.5593    0.0000 O   0  0  0  0  0  1  0  0  0  0  0  0
    1.0895   -0.6066   -0.0000 O   0  0  0  0  0  0  0  0  0  0  0  0
    2.6711    4.3471   -3.4106 C   0  0  0  0  0  0  0  0  0  0  0  0
    1.7109    4.2057   -3.6407 H   0  0  0  0  0  0  0  0  0  0  0  0
    2.8868    5.4108   -3.5114 H   0  0  0  0  0  0  0  0  0  0  0  0
    3.2699    3.7619   -4.1085 H   0  0  0  0  0  0  0  0  0  0  0  0
    2.8880    3.8730   -1.9722 C   0  0  0  0  0  0  0  0  0  0  0  0
    3.8485    3.9937   -1.7397 H   0  0  0  0  0  0  0  0  0  0  0  0
    2.3320    4.4375   -1.3685 H   0  0  0  0  0  0  0  0  0  0  0  0
    2.5094    2.4166   -1.7591 C   0  0  0  0  0  0  0  0  0  0  0  0
    3.0661    1.8426   -2.3556 H   0  0  0  0  0  0  0  0  0  0  0  0
    2.6736    2.1713   -0.8055 H   0  0  0  0  0  0  0  0  0  0  0  0
    1.5433    2.2934   -1.9776 H   0  0  0  0  0  0  0  0  0  0  0  0
  1  5  1  0
  5  6  1  0
  5  7  2  0
  1  2  1  0
  1  3  1  0
  1  4  1  0
  8 12  1  0
 12 15  1  0
  8  9  1  0
  8 10  1  0
  8 11  1  0
 12 13  1  0
 12 14  1  0
 15 16  1  0
 15 17  1  0
 15 18  1  0
M  CHG  1   6  -1
M  END
>  <PDB_ID>  (1801) 
pdb6b9s

>  <RESIDUE_NAME>  (1801) 
GLU   ILE

>  <FRAG_NAME>  (1801) 
ACET   PRPA

>  <FRAG_ATOM_NUM>  (1801) 
fragi: 7  fragj: 11

>  <atom.prop.CHAIN_ID>  (1801) 
A A A A A A A Z Z Z Z Z Z Z Z Z Z Z

>  <atom.prop.IS_HEAVY_ATOM>  (1801) 
1 0 0 0 1 1 1 1 0 0 0 1 0 0 1 0 0 0

>  <DIFUSE_FUNC_ATOM>  (1801) 
atom 6   atom 7   

>  <FINAL_SINGLE_POINT_ENERGY>  (1801) 
0

>  <NONCOV_INTER_ENERGY_QM>  (1801) 
0

>  <FF_Energy>  (1801) 
25.5

>  <QM_Energy>  (1801) 
5.53

>  <source>  (1801) 
ACET_PRPA_22

>  <Index>  (1801) 
33942

$$$$
ACET-pdb5chf-B-ASP-14:PRPA-pdb5chf-B-LYS-8
     RDKit          3D

 18 16  0  0  0  0  0  0  0  0999 V2000
   -0.0147    1.5059   -0.0169 C   0  0  0  0  0  0  0  0  0  0  0  0
    0.3275    1.8233   -0.8957 H   0  0  0  0  0  0  0  0  0  0  0  0
    0.5597    1.8441    0.7205 H   0  0  0  0  0  0  0  0  0  0  0  0
   -1.0147    1.9170    0.1213 H   0  0  0  0  0  0  0  0  0  0  0  0
    0.0000    0.0000    0.0000 C   0  0  0  0  0  0  0  0  0  0  0  0
   -1.1035   -0.5838   -0.0000 O   0  0  0  0  0  1  0  0  0  0  0  0
    1.1035   -0.6025    0.0000 O   0  0  0  0  0  0  0  0  0  0  0  0
   -0.9069   -1.0629    4.2422 C   0  0  0  0  0  0  0  0  0  0  0  0
   -0.0328   -0.7980    3.8430 H   0  0  0  0  0  0  0  0  0  0  0  0
   -0.7786   -1.3305    5.1946 H   0  0  0  0  0  0  0  0  0  0  0  0
   -1.5730   -0.2005    4.2149 H   0  0  0  0  0  0  0  0  0  0  0  0
   -1.4304   -2.2791    3.4734 C   0  0  0  0  0  0  0  0  0  0  0  0
   -0.6971   -2.9535    3.3999 H   0  0  0  0  0  0  0  0  0  0  0  0
   -2.1997   -2.6698    3.9747 H   0  0  0  0  0  0  0  0  0  0  0  0
   -1.8906   -1.8928    2.0774 C   0  0  0  0  0  0  0  0  0  0  0  0
   -2.7774   -1.4301    2.1446 H   0  0  0  0  0  0  0  0  0  0  0  0
   -1.2214   -1.2643    1.6764 H   0  0  0  0  0  0  0  0  0  0  0  0
   -2.0013   -2.7450    1.4067 H   0  0  0  0  0  0  0  0  0  0  0  0
  1  5  1  0
  5  6  1  0
  5  7  2  0
  1  2  1  0
  1  3  1  0
  1  4  1  0
  8 12  1  0
 12 15  1  0
  8  9  1  0
  8 10  1  0
  8 11  1  0
 12 13  1  0
 12 14  1  0
 15 16  1  0
 15 17  1  0
 15 18  1  0
M  CHG  1   6  -1
M  END
>  <PDB_ID>  (1802) 
pdb5chf

>  <RESIDUE_NAME>  (1802) 
ASP   LYS

>  <FRAG_NAME>  (1802) 
ACET   PRPA

>  <FRAG_ATOM_NUM>  (1802) 
fragi: 7  fragj: 11

>  <atom.prop.CHAIN_ID>  (1802) 
A A A A A A A Z Z Z Z Z Z Z Z Z Z Z

>  <atom.prop.IS_HEAVY_ATOM>  (1802) 
1 0 0 0 1 1 1 1 0 0 0 1 0 0 1 0 0 0

>  <DIFUSE_FUNC_ATOM>  (1802) 
atom 6   atom 7   

>  <FINAL_SINGLE_POINT_ENERGY>  (1802) 
0

>  <NONCOV_INTER_ENERGY_QM>  (1802) 
0

>  <FF_Energy>  (1802) 
30.97

>  <QM_Energy>  (1802) 
5.08

>  <source>  (1802) 
ACET_PRPA_22

>  <Index>  (1802) 
35215

$$$$
ACET-pdb5chf-B-ASP-14:PRPA-pdb5chf-B-LYS-8
     RDKit          3D

 18 16  0  0  0  0  0  0  0  0999 V2000
   -0.0147    1.5059   -0.0169 C   0  0  0  0  0  0  0  0  0  0  0  0
    0.3275    1.8233   -0.8957 H   0  0  0  0  0  0  0  0  0  0  0  0
    0.5597    1.8441    0.7205 H   0  0  0  0  0  0  0  0  0  0  0  0
   -1.0147    1.9170    0.1213 H   0  0  0  0  0  0  0  0  0  0  0  0
    0.0000    0.0000    0.0000 C   0  0  0  0  0  0  0  0  0  0  0  0
   -1.1035   -0.5838   -0.0000 O   0  0  0  0  0  1  0  0  0  0  0  0
    1.1035   -0.6025    0.0000 O   0  0  0  0  0  0  0  0  0  0  0  0
   -1.4304   -2.2791    3.4734 C   0  0  0  0  0  0  0  0  0  0  0  0
   -0.6971   -2.9535    3.3999 H   0  0  0  0  0  0  0  0  0  0  0  0
   -2.1997   -2.6698    3.9747 H   0  0  0  0  0  0  0  0  0  0  0  0
   -1.0578   -1.4133    4.0207 H   0  0  0  0  0  0  0  0  0  0  0  0
   -1.8906   -1.8928    2.0774 C   0  0  0  0  0  0  0  0  0  0  0  0
   -2.7774   -1.4301    2.1446 H   0  0  0  0  0  0  0  0  0  0  0  0
   -1.2214   -1.2643    1.6764 H   0  0  0  0  0  0  0  0  0  0  0  0
   -2.0459   -3.0890    1.1361 C   0  0  0  0  0  0  0  0  0  0  0  0
   -2.2661   -2.7435    0.2122 H   0  0  0  0  0  0  0  0  0  0  0  0
   -1.1591   -3.5720    1.0813 H   0  0  0  0  0  0  0  0  0  0  0  0
   -2.8172   -3.7936    1.4471 H   0  0  0  0  0  0  0  0  0  0  0  0
  1  5  1  0
  5  6  1  0
  5  7  2  0
  1  2  1  0
  1  3  1  0
  1  4  1  0
  8 12  1  0
 12 15  1  0
  8  9  1  0
  8 10  1  0
  8 11  1  0
 12 13  1  0
 12 14  1  0
 15 16  1  0
 15 17  1  0
 15 18  1  0
M  CHG  1   6  -1
M  END
>  <PDB_ID>  (1803) 
pdb5chf

>  <RESIDUE_NAME>  (1803) 
ASP   LYS

>  <FRAG_NAME>  (1803) 
ACET   PRPA

>  <FRAG_ATOM_NUM>  (1803) 
fragi: 7  fragj: 11

>  <atom.prop.CHAIN_ID>  (1803) 
A A A A A A A Z Z Z Z Z Z Z Z Z Z Z

>  <atom.prop.IS_HEAVY_ATOM>  (1803) 
1 0 0 0 1 1 1 1 0 0 0 1 0 0 1 0 0 0

>  <DIFUSE_FUNC_ATOM>  (1803) 
atom 6   atom 7   

>  <FINAL_SINGLE_POINT_ENERGY>  (1803) 
0

>  <NONCOV_INTER_ENERGY_QM>  (1803) 
0

>  <FF_Energy>  (1803) 
36.09

>  <QM_Energy>  (1803) 
2.98

>  <source>  (1803) 
ACET_PRPA_22

>  <Index>  (1803) 
35218

$$$$
ACET-pdb5cy0-A-ASP-10:PRPA-pdb5cy0-A-LYS-63
     RDKit          3D

 18 16  0  0  0  0  0  0  0  0999 V2000
    0.0404    1.5210   -0.0202 C   0  0  0  0  0  0  0  0  0  0  0  0
   -0.4099    1.8361   -0.8559 H   0  0  0  0  0  0  0  0  0  0  0  0
    0.9973    1.8089   -0.0287 H   0  0  0  0  0  0  0  0  0  0  0  0
   -0.4518    1.9880    0.8329 H   0  0  0  0  0  0  0  0  0  0  0  0
    0.0000    0.0000    0.0000 C   0  0  0  0  0  0  0  0  0  0  0  0
   -1.0949   -0.5966    0.0000 O   0  0  0  0  0  1  0  0  0  0  0  0
    1.0949   -0.5835    0.0000 O   0  0  0  0  0  0  0  0  0  0  0  0
   -3.6820    1.0001   -1.9162 C   0  0  0  0  0  0  0  0  0  0  0  0
   -3.2293    1.5203   -1.1896 H   0  0  0  0  0  0  0  0  0  0  0  0
   -3.9799    0.1162   -1.5511 H   0  0  0  0  0  0  0  0  0  0  0  0
   -4.5684    1.5532   -2.2270 H   0  0  0  0  0  0  0  0  0  0  0  0
   -2.6676    0.7431   -3.0217 C   0  0  0  0  0  0  0  0  0  0  0  0
   -3.1092    0.2181   -3.7519 H   0  0  0  0  0  0  0  0  0  0  0  0
   -2.3582    1.6224   -3.3895 H   0  0  0  0  0  0  0  0  0  0  0  0
   -1.4658   -0.0299   -2.5152 C   0  0  0  0  0  0  0  0  0  0  0  0
   -1.0292    0.4973   -1.7840 H   0  0  0  0  0  0  0  0  0  0  0  0
   -1.7785   -0.9073   -2.1474 H   0  0  0  0  0  0  0  0  0  0  0  0
   -0.7292   -0.2220   -3.2952 H   0  0  0  0  0  0  0  0  0  0  0  0
  1  5  1  0
  5  6  1  0
  5  7  2  0
  1  2  1  0
  1  3  1  0
  1  4  1  0
  8 12  1  0
 12 15  1  0
  8  9  1  0
  8 10  1  0
  8 11  1  0
 12 13  1  0
 12 14  1  0
 15 16  1  0
 15 17  1  0
 15 18  1  0
M  CHG  1   6  -1
M  END
>  <PDB_ID>  (1804) 
pdb5cy0

>  <RESIDUE_NAME>  (1804) 
ASP   LYS

>  <FRAG_NAME>  (1804) 
ACET   PRPA

>  <FRAG_ATOM_NUM>  (1804) 
fragi: 7  fragj: 11

>  <atom.prop.CHAIN_ID>  (1804) 
A A A A A A A Z Z Z Z Z Z Z Z Z Z Z

>  <atom.prop.IS_HEAVY_ATOM>  (1804) 
1 0 0 0 1 1 1 1 0 0 0 1 0 0 1 0 0 0

>  <DIFUSE_FUNC_ATOM>  (1804) 
atom 6   atom 7   

>  <FINAL_SINGLE_POINT_ENERGY>  (1804) 
0

>  <NONCOV_INTER_ENERGY_QM>  (1804) 
0

>  <FF_Energy>  (1804) 
28.58

>  <QM_Energy>  (1804) 
7.29

>  <source>  (1804) 
ACET_PRPA_22

>  <Index>  (1804) 
36639

$$$$
ACET-pdb5cy0-A-ASP-10:PRPA-pdb5cy0-A-LYS-63
     RDKit          3D

 18 16  0  0  0  0  0  0  0  0999 V2000
    0.0404    1.5210   -0.0202 C   0  0  0  0  0  0  0  0  0  0  0  0
   -0.4099    1.8361   -0.8559 H   0  0  0  0  0  0  0  0  0  0  0  0
    0.9973    1.8089   -0.0287 H   0  0  0  0  0  0  0  0  0  0  0  0
   -0.4518    1.9880    0.8329 H   0  0  0  0  0  0  0  0  0  0  0  0
    0.0000    0.0000    0.0000 C   0  0  0  0  0  0  0  0  0  0  0  0
   -1.0949   -0.5966    0.0000 O   0  0  0  0  0  1  0  0  0  0  0  0
    1.0949   -0.5835    0.0000 O   0  0  0  0  0  0  0  0  0  0  0  0
   -2.6676    0.7431   -3.0217 C   0  0  0  0  0  0  0  0  0  0  0  0
   -3.1092    0.2181   -3.7519 H   0  0  0  0  0  0  0  0  0  0  0  0
   -2.3582    1.6224   -3.3895 H   0  0  0  0  0  0  0  0  0  0  0  0
   -3.3940    0.9272   -2.2301 H   0  0  0  0  0  0  0  0  0  0  0  0
   -1.4658   -0.0299   -2.5152 C   0  0  0  0  0  0  0  0  0  0  0  0
   -1.0292    0.4973   -1.7840 H   0  0  0  0  0  0  0  0  0  0  0  0
   -1.7785   -0.9073   -2.1474 H   0  0  0  0  0  0  0  0  0  0  0  0
   -0.4444   -0.2962   -3.5966 C   0  0  0  0  0  0  0  0  0  0  0  0
   -0.8716   -0.8275   -4.3283 H   0  0  0  0  0  0  0  0  0  0  0  0
   -0.1220    0.5767   -3.9662 H   0  0  0  0  0  0  0  0  0  0  0  0
    0.4041   -0.8526   -3.1984 H   0  0  0  0  0  0  0  0  0  0  0  0
  1  5  1  0
  5  6  1  0
  5  7  2  0
  1  2  1  0
  1  3  1  0
  1  4  1  0
  8 12  1  0
 12 15  1  0
  8  9  1  0
  8 10  1  0
  8 11  1  0
 12 13  1  0
 12 14  1  0
 15 16  1  0
 15 17  1  0
 15 18  1  0
M  CHG  1   6  -1
M  END
>  <PDB_ID>  (1805) 
pdb5cy0

>  <RESIDUE_NAME>  (1805) 
ASP   LYS

>  <FRAG_NAME>  (1805) 
ACET   PRPA

>  <FRAG_ATOM_NUM>  (1805) 
fragi: 7  fragj: 11

>  <atom.prop.CHAIN_ID>  (1805) 
A A A A A A A Z Z Z Z Z Z Z Z Z Z Z

>  <atom.prop.IS_HEAVY_ATOM>  (1805) 
1 0 0 0 1 1 1 1 0 0 0 1 0 0 1 0 0 0

>  <DIFUSE_FUNC_ATOM>  (1805) 
atom 6   atom 7   

>  <FINAL_SINGLE_POINT_ENERGY>  (1805) 
0

>  <NONCOV_INTER_ENERGY_QM>  (1805) 
0

>  <FF_Energy>  (1805) 
29.51

>  <QM_Energy>  (1805) 
6.98

>  <source>  (1805) 
ACET_PRPA_22

>  <Index>  (1805) 
36643

$$$$
ACET-pdb6b9s-C-GLU-32:PRPA-pdb6b9s-C-ILE-42
     RDKit          3D

 18 16  0  0  0  0  0  0  0  0999 V2000
    0.1748    1.4841    0.0145 C   0  0  0  0  0  0  0  0  0  0  0  0
    0.6944    1.7396   -0.8032 H   0  0  0  0  0  0  0  0  0  0  0  0
    0.7063    1.7216    0.8300 H   0  0  0  0  0  0  0  0  0  0  0  0
   -0.7352    2.0841    0.0268 H   0  0  0  0  0  0  0  0  0  0  0  0
    0.0000    0.0000    0.0000 C   0  0  0  0  0  0  0  0  0  0  0  0
   -1.0892   -0.5580    0.0000 O   0  0  0  0  0  1  0  0  0  0  0  0
    1.0892   -0.6085   -0.0000 O   0  0  0  0  0  0  0  0  0  0  0  0
    2.3714    4.3341   -3.9305 C   0  0  0  0  0  0  0  0  0  0  0  0
    1.3860    4.3445   -4.0749 H   0  0  0  0  0  0  0  0  0  0  0  0
    2.7524    5.3331   -4.1424 H   0  0  0  0  0  0  0  0  0  0  0  0
    2.8034    3.6022   -4.6130 H   0  0  0  0  0  0  0  0  0  0  0  0
    2.6328    3.9476   -2.4714 C   0  0  0  0  0  0  0  0  0  0  0  0
    3.6200    3.8998   -2.3295 H   0  0  0  0  0  0  0  0  0  0  0  0
    2.2603    4.6674   -1.8862 H   0  0  0  0  0  0  0  0  0  0  0  0
    2.0135    2.6235   -2.0661 C   0  0  0  0  0  0  0  0  0  0  0  0
    2.3882    1.8959   -2.6376 H   0  0  0  0  0  0  0  0  0  0  0  0
    2.2259    2.4403   -1.1076 H   0  0  0  0  0  0  0  0  0  0  0  0
    1.0237    2.6720   -2.1879 H   0  0  0  0  0  0  0  0  0  0  0  0
  1  5  1  0
  5  6  1  0
  5  7  2  0
  1  2  1  0
  1  3  1  0
  1  4  1  0
  8 12  1  0
 12 15  1  0
  8  9  1  0
  8 10  1  0
  8 11  1  0
 12 13  1  0
 12 14  1  0
 15 16  1  0
 15 17  1  0
 15 18  1  0
M  CHG  1   6  -1
M  END
>  <PDB_ID>  (1806) 
pdb6b9s

>  <RESIDUE_NAME>  (1806) 
GLU   ILE

>  <FRAG_NAME>  (1806) 
ACET   PRPA

>  <FRAG_ATOM_NUM>  (1806) 
fragi: 7  fragj: 11

>  <atom.prop.CHAIN_ID>  (1806) 
A A A A A A A Z Z Z Z Z Z Z Z Z Z Z

>  <atom.prop.IS_HEAVY_ATOM>  (1806) 
1 0 0 0 1 1 1 1 0 0 0 1 0 0 1 0 0 0

>  <DIFUSE_FUNC_ATOM>  (1806) 
atom 6   atom 7   

>  <FINAL_SINGLE_POINT_ENERGY>  (1806) 
0

>  <NONCOV_INTER_ENERGY_QM>  (1806) 
0

>  <FF_Energy>  (1806) 
29.69

>  <QM_Energy>  (1806) 
7.46

>  <source>  (1806) 
ACET_PRPA_22

>  <Index>  (1806) 
36839

$$$$
ACET-pdb5d16-A-ASP-455:PRPA-pdb5d16-A-LYS-427
     RDKit          3D

 18 16  0  0  0  0  0  0  0  0999 V2000
    0.0159    1.5152    0.0114 C   0  0  0  0  0  0  0  0  0  0  0  0
    0.6715    1.8347   -0.6650 H   0  0  0  0  0  0  0  0  0  0  0  0
    0.2745    1.8268    0.9189 H   0  0  0  0  0  0  0  0  0  0  0  0
   -0.9529    1.9528   -0.2298 H   0  0  0  0  0  0  0  0  0  0  0  0
    0.0000    0.0000    0.0000 C   0  0  0  0  0  0  0  0  0  0  0  0
   -1.0993   -0.5926    0.0000 O   0  0  0  0  0  1  0  0  0  0  0  0
    1.0993   -0.5965    0.0000 O   0  0  0  0  0  0  0  0  0  0  0  0
    3.4819    2.0153   -1.0624 C   0  0  0  0  0  0  0  0  0  0  0  0
    2.8642    2.6968   -0.6656 H   0  0  0  0  0  0  0  0  0  0  0  0
    4.1265    2.4744   -1.6772 H   0  0  0  0  0  0  0  0  0  0  0  0
    4.0519    1.5620   -0.2514 H   0  0  0  0  0  0  0  0  0  0  0  0
    2.6509    1.0399   -1.8841 C   0  0  0  0  0  0  0  0  0  0  0  0
    3.2607    0.3571   -2.2910 H   0  0  0  0  0  0  0  0  0  0  0  0
    1.9976    0.5795   -1.2809 H   0  0  0  0  0  0  0  0  0  0  0  0
    1.8898    1.7420   -2.9910 C   0  0  0  0  0  0  0  0  0  0  0  0
    2.5475    2.1854   -3.6026 H   0  0  0  0  0  0  0  0  0  0  0  0
    1.3682    1.0597   -3.5074 H   0  0  0  0  0  0  0  0  0  0  0  0
    1.1987    2.4963   -2.6150 H   0  0  0  0  0  0  0  0  0  0  0  0
  1  5  1  0
  5  6  1  0
  5  7  2  0
  1  2  1  0
  1  3  1  0
  1  4  1  0
  8 12  1  0
 12 15  1  0
  8  9  1  0
  8 10  1  0
  8 11  1  0
 12 13  1  0
 12 14  1  0
 15 16  1  0
 15 17  1  0
 15 18  1  0
M  CHG  1   6  -1
M  END
>  <PDB_ID>  (1807) 
pdb5d16

>  <RESIDUE_NAME>  (1807) 
ASP   LYS

>  <FRAG_NAME>  (1807) 
ACET   PRPA

>  <FRAG_ATOM_NUM>  (1807) 
fragi: 7  fragj: 11

>  <atom.prop.CHAIN_ID>  (1807) 
A A A A A A A Z Z Z Z Z Z Z Z Z Z Z

>  <atom.prop.IS_HEAVY_ATOM>  (1807) 
1 0 0 0 1 1 1 1 0 0 0 1 0 0 1 0 0 0

>  <DIFUSE_FUNC_ATOM>  (1807) 
atom 6   atom 7   

>  <FINAL_SINGLE_POINT_ENERGY>  (1807) 
0

>  <NONCOV_INTER_ENERGY_QM>  (1807) 
0

>  <FF_Energy>  (1807) 
15.7

>  <QM_Energy>  (1807) 
-0.06

>  <source>  (1807) 
ACET_PRPA_22

>  <Index>  (1807) 
38715

$$$$
ACET-pdb5czy-A-GLU-206:PRPA-pdb5czy-A-LYS-213
     RDKit          3D

 18 16  0  0  0  0  0  0  0  0999 V2000
   -0.0298    1.5017   -0.0452 C   0  0  0  0  0  0  0  0  0  0  0  0
   -0.9488    1.7764   -0.2803 H   0  0  0  0  0  0  0  0  0  0  0  0
    0.6204    1.7936   -0.7294 H   0  0  0  0  0  0  0  0  0  0  0  0
    0.2360    1.9664    0.9042 H   0  0  0  0  0  0  0  0  0  0  0  0
    0.0000    0.0000    0.0000 C   0  0  0  0  0  0  0  0  0  0  0  0
   -1.1080   -0.5882    0.0000 O   0  0  0  0  0  1  0  0  0  0  0  0
    1.1080   -0.5908    0.0000 O   0  0  0  0  0  0  0  0  0  0  0  0
   -1.2920   -0.2678   -4.0214 C   0  0  0  0  0  0  0  0  0  0  0  0
   -1.5859    0.2190   -3.2024 H   0  0  0  0  0  0  0  0  0  0  0  0
   -1.9676   -0.1541   -4.7458 H   0  0  0  0  0  0  0  0  0  0  0  0
   -0.3480    0.1607   -4.3579 H   0  0  0  0  0  0  0  0  0  0  0  0
   -1.1455   -1.7469   -3.6997 C   0  0  0  0  0  0  0  0  0  0  0  0
   -2.0512   -2.1763   -3.7818 H   0  0  0  0  0  0  0  0  0  0  0  0
   -0.5335   -2.1580   -4.3843 H   0  0  0  0  0  0  0  0  0  0  0  0
   -0.6021   -2.0020   -2.3393 C   0  0  0  0  0  0  0  0  0  0  0  0
    0.4123   -1.8901   -2.3506 H   0  0  0  0  0  0  0  0  0  0  0  0
   -0.9594   -1.2996   -1.6913 H   0  0  0  0  0  0  0  0  0  0  0  0
   -0.8280   -2.9857   -1.9280 H   0  0  0  0  0  0  0  0  0  0  0  0
  1  5  1  0
  5  6  1  0
  5  7  2  0
  1  2  1  0
  1  3  1  0
  1  4  1  0
  8 12  1  0
 12 15  1  0
  8  9  1  0
  8 10  1  0
  8 11  1  0
 12 13  1  0
 12 14  1  0
 15 16  1  0
 15 17  1  0
 15 18  1  0
M  CHG  1   6  -1
M  END
>  <PDB_ID>  (1808) 
pdb5czy

>  <RESIDUE_NAME>  (1808) 
GLU   LYS

>  <FRAG_NAME>  (1808) 
ACET   PRPA

>  <FRAG_ATOM_NUM>  (1808) 
fragi: 7  fragj: 11

>  <atom.prop.CHAIN_ID>  (1808) 
A A A A A A A Z Z Z Z Z Z Z Z Z Z Z

>  <atom.prop.IS_HEAVY_ATOM>  (1808) 
1 0 0 0 1 1 1 1 0 0 0 1 0 0 1 0 0 0

>  <DIFUSE_FUNC_ATOM>  (1808) 
atom 6   atom 7   

>  <FINAL_SINGLE_POINT_ENERGY>  (1808) 
0

>  <NONCOV_INTER_ENERGY_QM>  (1808) 
0

>  <FF_Energy>  (1808) 
23.45

>  <QM_Energy>  (1808) 
1.51

>  <source>  (1808) 
ACET_PRPA_23

>  <Index>  (1808) 
107

$$$$
ACET-pdb6cxo-A-ASP-20:PRPA-pdb6cxo-A-LYS-54
     RDKit          3D

 18 16  0  0  0  0  0  0  0  0999 V2000
   -0.0016    1.5141   -0.0114 C   0  0  0  0  0  0  0  0  0  0  0  0
   -0.5557    1.8314   -0.7773 H   0  0  0  0  0  0  0  0  0  0  0  0
    0.9353    1.8383   -0.1137 H   0  0  0  0  0  0  0  0  0  0  0  0
   -0.4076    1.9623    0.8954 H   0  0  0  0  0  0  0  0  0  0  0  0
    0.0000    0.0000    0.0000 C   0  0  0  0  0  0  0  0  0  0  0  0
   -1.1021   -0.5955    0.0000 O   0  0  0  0  0  1  0  0  0  0  0  0
    1.1021   -0.5905   -0.0000 O   0  0  0  0  0  0  0  0  0  0  0  0
    2.7780    0.3389    3.4555 C   0  0  0  0  0  0  0  0  0  0  0  0
    3.3245   -0.3282    3.9558 H   0  0  0  0  0  0  0  0  0  0  0  0
    1.7403    0.0060    3.4355 H   0  0  0  0  0  0  0  0  0  0  0  0
    2.8218    1.2942    3.9784 H   0  0  0  0  0  0  0  0  0  0  0  0
    3.3584    0.4611    2.0329 C   0  0  0  0  0  0  0  0  0  0  0  0
    2.8164    1.1351    1.5373 H   0  0  0  0  0  0  0  0  0  0  0  0
    4.3011    0.7754    2.1122 H   0  0  0  0  0  0  0  0  0  0  0  0
    3.3474   -0.8409    1.2452 C   0  0  0  0  0  0  0  0  0  0  0  0
    3.8904   -1.5224    1.7346 H   0  0  0  0  0  0  0  0  0  0  0  0
    2.4055   -1.1627    1.1583 H   0  0  0  0  0  0  0  0  0  0  0  0
    3.7677   -0.7047    0.2488 H   0  0  0  0  0  0  0  0  0  0  0  0
  1  5  1  0
  5  6  1  0
  5  7  2  0
  1  2  1  0
  1  3  1  0
  1  4  1  0
  8 12  1  0
 12 15  1  0
  8  9  1  0
  8 10  1  0
  8 11  1  0
 12 13  1  0
 12 14  1  0
 15 16  1  0
 15 17  1  0
 15 18  1  0
M  CHG  1   6  -1
M  END
>  <PDB_ID>  (1809) 
pdb6cxo

>  <RESIDUE_NAME>  (1809) 
ASP   LYS

>  <FRAG_NAME>  (1809) 
ACET   PRPA

>  <FRAG_ATOM_NUM>  (1809) 
fragi: 7  fragj: 11

>  <atom.prop.CHAIN_ID>  (1809) 
A A A A A A A Z Z Z Z Z Z Z Z Z Z Z

>  <atom.prop.IS_HEAVY_ATOM>  (1809) 
1 0 0 0 1 1 1 1 0 0 0 1 0 0 1 0 0 0

>  <DIFUSE_FUNC_ATOM>  (1809) 
atom 6   atom 7   

>  <FINAL_SINGLE_POINT_ENERGY>  (1809) 
0

>  <NONCOV_INTER_ENERGY_QM>  (1809) 
0

>  <FF_Energy>  (1809) 
26.64

>  <QM_Energy>  (1809) 
2.26

>  <source>  (1809) 
ACET_PRPA_23

>  <Index>  (1809) 
437

$$$$
ACET-pdb6cxo-A-ASP-20:PRPA-pdb6cxo-A-LYS-54
     RDKit          3D

 18 16  0  0  0  0  0  0  0  0999 V2000
   -0.0016    1.5141   -0.0114 C   0  0  0  0  0  0  0  0  0  0  0  0
   -0.5557    1.8314   -0.7773 H   0  0  0  0  0  0  0  0  0  0  0  0
    0.9353    1.8383   -0.1137 H   0  0  0  0  0  0  0  0  0  0  0  0
   -0.4076    1.9623    0.8954 H   0  0  0  0  0  0  0  0  0  0  0  0
    0.0000    0.0000    0.0000 C   0  0  0  0  0  0  0  0  0  0  0  0
   -1.1021   -0.5955    0.0000 O   0  0  0  0  0  1  0  0  0  0  0  0
    1.1021   -0.5905   -0.0000 O   0  0  0  0  0  0  0  0  0  0  0  0
    3.3584    0.4611    2.0329 C   0  0  0  0  0  0  0  0  0  0  0  0
    2.8164    1.1351    1.5373 H   0  0  0  0  0  0  0  0  0  0  0  0
    4.3011    0.7754    2.1122 H   0  0  0  0  0  0  0  0  0  0  0  0
    2.9479    0.3747    3.0389 H   0  0  0  0  0  0  0  0  0  0  0  0
    3.3474   -0.8409    1.2452 C   0  0  0  0  0  0  0  0  0  0  0  0
    3.8904   -1.5224    1.7346 H   0  0  0  0  0  0  0  0  0  0  0  0
    2.4055   -1.1627    1.1583 H   0  0  0  0  0  0  0  0  0  0  0  0
    3.9340   -0.6508   -0.1456 C   0  0  0  0  0  0  0  0  0  0  0  0
    3.3897    0.0331   -0.6311 H   0  0  0  0  0  0  0  0  0  0  0  0
    4.8756   -0.3272   -0.0556 H   0  0  0  0  0  0  0  0  0  0  0  0
    3.9348   -1.5731   -0.7265 H   0  0  0  0  0  0  0  0  0  0  0  0
  1  5  1  0
  5  6  1  0
  5  7  2  0
  1  2  1  0
  1  3  1  0
  1  4  1  0
  8 12  1  0
 12 15  1  0
  8  9  1  0
  8 10  1  0
  8 11  1  0
 12 13  1  0
 12 14  1  0
 15 16  1  0
 15 17  1  0
 15 18  1  0
M  CHG  1   6  -1
M  END
>  <PDB_ID>  (1810) 
pdb6cxo

>  <RESIDUE_NAME>  (1810) 
ASP   LYS

>  <FRAG_NAME>  (1810) 
ACET   PRPA

>  <FRAG_ATOM_NUM>  (1810) 
fragi: 7  fragj: 11

>  <atom.prop.CHAIN_ID>  (1810) 
A A A A A A A Z Z Z Z Z Z Z Z Z Z Z

>  <atom.prop.IS_HEAVY_ATOM>  (1810) 
1 0 0 0 1 1 1 1 0 0 0 1 0 0 1 0 0 0

>  <DIFUSE_FUNC_ATOM>  (1810) 
atom 6   atom 7   

>  <FINAL_SINGLE_POINT_ENERGY>  (1810) 
0

>  <NONCOV_INTER_ENERGY_QM>  (1810) 
0

>  <FF_Energy>  (1810) 
31.88

>  <QM_Energy>  (1810) 
1.31

>  <source>  (1810) 
ACET_PRPA_23

>  <Index>  (1810) 
441

$$$$
ACET-pdb6cxo-A-ASP-20:PRPA-pdb6cxo-A-LYS-54
     RDKit          3D

 18 16  0  0  0  0  0  0  0  0999 V2000
   -0.0016    1.5141   -0.0114 C   0  0  0  0  0  0  0  0  0  0  0  0
   -0.5557    1.8314   -0.7773 H   0  0  0  0  0  0  0  0  0  0  0  0
    0.9353    1.8383   -0.1137 H   0  0  0  0  0  0  0  0  0  0  0  0
   -0.4076    1.9623    0.8954 H   0  0  0  0  0  0  0  0  0  0  0  0
    0.0000    0.0000    0.0000 C   0  0  0  0  0  0  0  0  0  0  0  0
   -1.1021   -0.5955    0.0000 O   0  0  0  0  0  1  0  0  0  0  0  0
    1.1021   -0.5905   -0.0000 O   0  0  0  0  0  0  0  0  0  0  0  0
    3.3474   -0.8409    1.2452 C   0  0  0  0  0  0  0  0  0  0  0  0
    3.8904   -1.5224    1.7346 H   0  0  0  0  0  0  0  0  0  0  0  0
    2.4055   -1.1627    1.1583 H   0  0  0  0  0  0  0  0  0  0  0  0
    3.3553    0.0917    1.8094 H   0  0  0  0  0  0  0  0  0  0  0  0
    3.9340   -0.6508   -0.1456 C   0  0  0  0  0  0  0  0  0  0  0  0
    3.3897    0.0331   -0.6311 H   0  0  0  0  0  0  0  0  0  0  0  0
    4.8756   -0.3272   -0.0556 H   0  0  0  0  0  0  0  0  0  0  0  0
    3.9351   -1.9316   -0.9523 C   0  0  0  0  0  0  0  0  0  0  0  0
    4.4800   -2.6188   -0.4742 H   0  0  0  0  0  0  0  0  0  0  0  0
    2.9958   -2.2588   -1.0499 H   0  0  0  0  0  0  0  0  0  0  0  0
    4.3606   -1.7600   -1.9411 H   0  0  0  0  0  0  0  0  0  0  0  0
  1  5  1  0
  5  6  1  0
  5  7  2  0
  1  2  1  0
  1  3  1  0
  1  4  1  0
  8 12  1  0
 12 15  1  0
  8  9  1  0
  8 10  1  0
  8 11  1  0
 12 13  1  0
 12 14  1  0
 15 16  1  0
 15 17  1  0
 15 18  1  0
M  CHG  1   6  -1
M  END
>  <PDB_ID>  (1811) 
pdb6cxo

>  <RESIDUE_NAME>  (1811) 
ASP   LYS

>  <FRAG_NAME>  (1811) 
ACET   PRPA

>  <FRAG_ATOM_NUM>  (1811) 
fragi: 7  fragj: 11

>  <atom.prop.CHAIN_ID>  (1811) 
A A A A A A A Z Z Z Z Z Z Z Z Z Z Z

>  <atom.prop.IS_HEAVY_ATOM>  (1811) 
1 0 0 0 1 1 1 1 0 0 0 1 0 0 1 0 0 0

>  <DIFUSE_FUNC_ATOM>  (1811) 
atom 6   atom 7   

>  <FINAL_SINGLE_POINT_ENERGY>  (1811) 
0

>  <NONCOV_INTER_ENERGY_QM>  (1811) 
0

>  <FF_Energy>  (1811) 
29.38

>  <QM_Energy>  (1811) 
1.41

>  <source>  (1811) 
ACET_PRPA_23

>  <Index>  (1811) 
449

$$$$
ACET-pdb6dch-A-GLU-117:PRPA-pdb6dch-A-ILE-122
     RDKit          3D

 18 16  0  0  0  0  0  0  0  0999 V2000
    0.1809    1.4874    0.0157 C   0  0  0  0  0  0  0  0  0  0  0  0
    0.6982    1.7404   -0.8022 H   0  0  0  0  0  0  0  0  0  0  0  0
    0.7104    1.7223    0.8303 H   0  0  0  0  0  0  0  0  0  0  0  0
   -0.7296    2.0865    0.0275 H   0  0  0  0  0  0  0  0  0  0  0  0
    0.0000    0.0000    0.0000 C   0  0  0  0  0  0  0  0  0  0  0  0
   -1.0890   -0.5544    0.0000 O   0  0  0  0  0  1  0  0  0  0  0  0
    1.0890   -0.6091   -0.0000 O   0  0  0  0  0  0  0  0  0  0  0  0
    0.1731   -0.4077    5.1794 C   0  0  0  0  0  0  0  0  0  0  0  0
   -0.6639   -0.7446    5.5911 H   0  0  0  0  0  0  0  0  0  0  0  0
    0.1972    0.6656    5.3686 H   0  0  0  0  0  0  0  0  0  0  0  0
    0.9988   -0.8526    5.7347 H   0  0  0  0  0  0  0  0  0  0  0  0
    0.2977   -0.7058    3.6736 C   0  0  0  0  0  0  0  0  0  0  0  0
    1.2017   -0.4181    3.3766 H   0  0  0  0  0  0  0  0  0  0  0  0
    0.2071   -1.7729    3.4708 H   0  0  0  0  0  0  0  0  0  0  0  0
   -0.7391    0.0959    2.8755 C   0  0  0  0  0  0  0  0  0  0  0  0
   -0.6095    1.0632    3.0725 H   0  0  0  0  0  0  0  0  0  0  0  0
   -0.5775   -0.0646    1.9048 H   0  0  0  0  0  0  0  0  0  0  0  0
   -1.7683   -0.1778    3.1077 H   0  0  0  0  0  0  0  0  0  0  0  0
  1  5  1  0
  5  6  1  0
  5  7  2  0
  1  2  1  0
  1  3  1  0
  1  4  1  0
  8 12  1  0
 12 15  1  0
  8  9  1  0
  8 10  1  0
  8 11  1  0
 12 13  1  0
 12 14  1  0
 15 16  1  0
 15 17  1  0
 15 18  1  0
M  CHG  1   6  -1
M  END
>  <PDB_ID>  (1812) 
pdb6dch

>  <RESIDUE_NAME>  (1812) 
GLU   ILE

>  <FRAG_NAME>  (1812) 
ACET   PRPA

>  <FRAG_ATOM_NUM>  (1812) 
fragi: 7  fragj: 11

>  <atom.prop.CHAIN_ID>  (1812) 
A A A A A A A Z Z Z Z Z Z Z Z Z Z Z

>  <atom.prop.IS_HEAVY_ATOM>  (1812) 
1 0 0 0 1 1 1 1 0 0 0 1 0 0 1 0 0 0

>  <DIFUSE_FUNC_ATOM>  (1812) 
atom 6   atom 7   

>  <FINAL_SINGLE_POINT_ENERGY>  (1812) 
0

>  <NONCOV_INTER_ENERGY_QM>  (1812) 
0

>  <FF_Energy>  (1812) 
26.65

>  <QM_Energy>  (1812) 
1.63

>  <source>  (1812) 
ACET_PRPA_23

>  <Index>  (1812) 
1904

$$$$
ACET-pdb6dch-A-GLU-117:PRPA-pdb6dch-A-ILE-122
     RDKit          3D

 18 16  0  0  0  0  0  0  0  0999 V2000
    0.1809    1.4874    0.0157 C   0  0  0  0  0  0  0  0  0  0  0  0
    0.6982    1.7404   -0.8022 H   0  0  0  0  0  0  0  0  0  0  0  0
    0.7104    1.7223    0.8303 H   0  0  0  0  0  0  0  0  0  0  0  0
   -0.7296    2.0865    0.0275 H   0  0  0  0  0  0  0  0  0  0  0  0
    0.0000    0.0000    0.0000 C   0  0  0  0  0  0  0  0  0  0  0  0
   -1.0890   -0.5544    0.0000 O   0  0  0  0  0  1  0  0  0  0  0  0
    1.0890   -0.6091   -0.0000 O   0  0  0  0  0  0  0  0  0  0  0  0
    0.2977   -0.7058    3.6736 C   0  0  0  0  0  0  0  0  0  0  0  0
    1.2017   -0.4181    3.3766 H   0  0  0  0  0  0  0  0  0  0  0  0
    0.2096   -0.4948    4.7393 H   0  0  0  0  0  0  0  0  0  0  0  0
    0.2071   -1.7729    3.4708 H   0  0  0  0  0  0  0  0  0  0  0  0
   -0.7391    0.0959    2.8755 C   0  0  0  0  0  0  0  0  0  0  0  0
   -0.6095    1.0632    3.0725 H   0  0  0  0  0  0  0  0  0  0  0  0
   -0.5775   -0.0646    1.9048 H   0  0  0  0  0  0  0  0  0  0  0  0
   -2.1739   -0.2856    3.1992 C   0  0  0  0  0  0  0  0  0  0  0  0
   -2.3462   -0.1222    4.1686 H   0  0  0  0  0  0  0  0  0  0  0  0
   -2.7937    0.2700    2.6481 H   0  0  0  0  0  0  0  0  0  0  0  0
   -2.3116   -1.2520    2.9896 H   0  0  0  0  0  0  0  0  0  0  0  0
  1  5  1  0
  5  6  1  0
  5  7  2  0
  1  2  1  0
  1  3  1  0
  1  4  1  0
  8 12  1  0
 12 15  1  0
  8  9  1  0
  8 10  1  0
  8 11  1  0
 12 13  1  0
 12 14  1  0
 15 16  1  0
 15 17  1  0
 15 18  1  0
M  CHG  1   6  -1
M  END
>  <PDB_ID>  (1813) 
pdb6dch

>  <RESIDUE_NAME>  (1813) 
GLU   ILE

>  <FRAG_NAME>  (1813) 
ACET   PRPA

>  <FRAG_ATOM_NUM>  (1813) 
fragi: 7  fragj: 11

>  <atom.prop.CHAIN_ID>  (1813) 
A A A A A A A Z Z Z Z Z Z Z Z Z Z Z

>  <atom.prop.IS_HEAVY_ATOM>  (1813) 
1 0 0 0 1 1 1 1 0 0 0 1 0 0 1 0 0 0

>  <DIFUSE_FUNC_ATOM>  (1813) 
atom 6   atom 7   

>  <FINAL_SINGLE_POINT_ENERGY>  (1813) 
0

>  <NONCOV_INTER_ENERGY_QM>  (1813) 
0

>  <FF_Energy>  (1813) 
30.88

>  <QM_Energy>  (1813) 
0.36

>  <source>  (1813) 
ACET_PRPA_23

>  <Index>  (1813) 
1918

$$$$
ACET-pdb6dch-A-GLU-117:PRPA-pdb6dch-A-ILE-122
     RDKit          3D

 18 16  0  0  0  0  0  0  0  0999 V2000
    0.1809    1.4874    0.0157 C   0  0  0  0  0  0  0  0  0  0  0  0
    0.6982    1.7404   -0.8022 H   0  0  0  0  0  0  0  0  0  0  0  0
    0.7104    1.7223    0.8303 H   0  0  0  0  0  0  0  0  0  0  0  0
   -0.7296    2.0865    0.0275 H   0  0  0  0  0  0  0  0  0  0  0  0
    0.0000    0.0000    0.0000 C   0  0  0  0  0  0  0  0  0  0  0  0
   -1.0890   -0.5544    0.0000 O   0  0  0  0  0  1  0  0  0  0  0  0
    1.0890   -0.6091   -0.0000 O   0  0  0  0  0  0  0  0  0  0  0  0
   -0.7391    0.0959    2.8755 C   0  0  0  0  0  0  0  0  0  0  0  0
   -0.6095    1.0632    3.0725 H   0  0  0  0  0  0  0  0  0  0  0  0
   -0.5775   -0.0646    1.9048 H   0  0  0  0  0  0  0  0  0  0  0  0
   -1.7683   -0.1778    3.1077 H   0  0  0  0  0  0  0  0  0  0  0  0
    0.2977   -0.7058    3.6736 C   0  0  0  0  0  0  0  0  0  0  0  0
    1.2017   -0.4181    3.3766 H   0  0  0  0  0  0  0  0  0  0  0  0
    0.2096   -0.4948    4.7393 H   0  0  0  0  0  0  0  0  0  0  0  0
    0.1712   -2.1958    3.3904 C   0  0  0  0  0  0  0  0  0  0  0  0
    0.3172   -2.3645    2.4173 H   0  0  0  0  0  0  0  0  0  0  0  0
    0.8552   -2.6953    3.9200 H   0  0  0  0  0  0  0  0  0  0  0  0
   -0.7422   -2.5080    3.6478 H   0  0  0  0  0  0  0  0  0  0  0  0
  1  5  1  0
  5  6  1  0
  5  7  2  0
  1  2  1  0
  1  3  1  0
  1  4  1  0
  8 12  1  0
 12 15  1  0
  8  9  1  0
  8 10  1  0
  8 11  1  0
 12 13  1  0
 12 14  1  0
 15 16  1  0
 15 17  1  0
 15 18  1  0
M  CHG  1   6  -1
M  END
>  <PDB_ID>  (1814) 
pdb6dch

>  <RESIDUE_NAME>  (1814) 
GLU   ILE

>  <FRAG_NAME>  (1814) 
ACET   PRPA

>  <FRAG_ATOM_NUM>  (1814) 
fragi: 7  fragj: 11

>  <atom.prop.CHAIN_ID>  (1814) 
A A A A A A A Z Z Z Z Z Z Z Z Z Z Z

>  <atom.prop.IS_HEAVY_ATOM>  (1814) 
1 0 0 0 1 1 1 1 0 0 0 1 0 0 1 0 0 0

>  <DIFUSE_FUNC_ATOM>  (1814) 
atom 6   atom 7   

>  <FINAL_SINGLE_POINT_ENERGY>  (1814) 
0

>  <NONCOV_INTER_ENERGY_QM>  (1814) 
0

>  <FF_Energy>  (1814) 
26.87

>  <QM_Energy>  (1814) 
0.44

>  <source>  (1814) 
ACET_PRPA_23

>  <Index>  (1814) 
1925

$$$$
ACET-pdb5dl7-A-ASP-399:PRPA-pdb5dl7-A-ARG-13
     RDKit          3D

 18 16  0  0  0  0  0  0  0  0999 V2000
    0.1189    1.5607    0.2246 C   0  0  0  0  0  0  0  0  0  0  0  0
    0.5054    1.9446   -0.6064 H   0  0  0  0  0  0  0  0  0  0  0  0
    0.7349    1.6973    0.9906 H   0  0  0  0  0  0  0  0  0  0  0  0
   -0.8294    2.0545    0.4368 H   0  0  0  0  0  0  0  0  0  0  0  0
    0.0000    0.0000    0.0000 C   0  0  0  0  0  0  0  0  0  0  0  0
   -1.0260   -0.6394    0.0000 O   0  0  0  0  0  1  0  0  0  0  0  0
    1.0260   -0.6716   -0.0000 O   0  0  0  0  0  0  0  0  0  0  0  0
   -1.5873   -2.2410    3.2179 C   0  0  0  0  0  0  0  0  0  0  0  0
   -1.9298   -2.9065    3.8841 H   0  0  0  0  0  0  0  0  0  0  0  0
   -1.5999   -2.6554    2.3059 H   0  0  0  0  0  0  0  0  0  0  0  0
   -2.2708   -1.3921    3.2103 H   0  0  0  0  0  0  0  0  0  0  0  0
   -0.1715   -1.9045    3.5670 C   0  0  0  0  0  0  0  0  0  0  0  0
   -0.0940   -1.0050    3.9152 H   0  0  0  0  0  0  0  0  0  0  0  0
    0.2339   -2.5922    4.1132 H   0  0  0  0  0  0  0  0  0  0  0  0
    0.6129   -1.9164    2.1827 C   0  0  0  0  0  0  0  0  0  0  0  0
   -0.0136   -1.5576    1.5404 H   0  0  0  0  0  0  0  0  0  0  0  0
    1.3995   -1.3779    2.3408 H   0  0  0  0  0  0  0  0  0  0  0  0
    0.8215   -2.9783    2.0529 H   0  0  0  0  0  0  0  0  0  0  0  0
  1  5  1  0
  5  6  1  0
  5  7  2  0
  1  2  1  0
  1  3  1  0
  1  4  1  0
  8 12  1  0
 12 15  1  0
  8  9  1  0
  8 10  1  0
  8 11  1  0
 12 13  1  0
 12 14  1  0
 15 16  1  0
 15 17  1  0
 15 18  1  0
M  CHG  1   6  -1
M  END
>  <PDB_ID>  (1815) 
pdb5dl7

>  <RESIDUE_NAME>  (1815) 
ASP   ARG

>  <FRAG_NAME>  (1815) 
ACET   PRPA

>  <FRAG_ATOM_NUM>  (1815) 
fragi: 7  fragj: 11

>  <atom.prop.CHAIN_ID>  (1815) 
A A A A A A A Z Z Z Z Z Z Z Z Z Z Z

>  <atom.prop.IS_HEAVY_ATOM>  (1815) 
1 0 0 0 1 1 1 1 0 0 0 1 0 0 1 0 0 0

>  <DIFUSE_FUNC_ATOM>  (1815) 
atom 6   atom 7   

>  <FINAL_SINGLE_POINT_ENERGY>  (1815) 
0

>  <NONCOV_INTER_ENERGY_QM>  (1815) 
0

>  <FF_Energy>  (1815) 
24.74

>  <QM_Energy>  (1815) 
3.08

>  <source>  (1815) 
ACET_PRPA_23

>  <Index>  (1815) 
5641

$$$$
ACET-pdb6efw-A-ASP-86:PRPA-pdb6efw-A-LYS-89
     RDKit          3D

 18 16  0  0  0  0  0  0  0  0999 V2000
    0.0458    1.4982    0.0290 C   0  0  0  0  0  0  0  0  0  0  0  0
    0.9333    1.8028   -0.3156 H   0  0  0  0  0  0  0  0  0  0  0  0
   -0.0700    1.8096    0.9717 H   0  0  0  0  0  0  0  0  0  0  0  0
   -0.7279    1.9698   -0.5769 H   0  0  0  0  0  0  0  0  0  0  0  0
    0.0000    0.0000    0.0000 C   0  0  0  0  0  0  0  0  0  0  0  0
   -1.1044   -0.5893    0.0000 O   0  0  0  0  0  1  0  0  0  0  0  0
    1.1044   -0.5863    0.0000 O   0  0  0  0  0  0  0  0  0  0  0  0
   -1.2938    2.5092    3.8554 C   0  0  0  0  0  0  0  0  0  0  0  0
   -1.7179    3.0858    3.1633 H   0  0  0  0  0  0  0  0  0  0  0  0
   -0.9591    3.0701    4.6082 H   0  0  0  0  0  0  0  0  0  0  0  0
   -2.0594    1.8413    4.2501 H   0  0  0  0  0  0  0  0  0  0  0  0
   -0.1097    1.7881    3.2257 C   0  0  0  0  0  0  0  0  0  0  0  0
    0.3225    1.2086    3.9151 H   0  0  0  0  0  0  0  0  0  0  0  0
   -0.4363    1.2241    2.4688 H   0  0  0  0  0  0  0  0  0  0  0  0
    0.9192    2.7759    2.6981 C   0  0  0  0  0  0  0  0  0  0  0  0
    0.4835    3.3562    2.0112 H   0  0  0  0  0  0  0  0  0  0  0  0
    1.2428    3.3395    3.4570 H   0  0  0  0  0  0  0  0  0  0  0  0
    1.7758    2.2791    2.2424 H   0  0  0  0  0  0  0  0  0  0  0  0
  1  5  1  0
  5  6  1  0
  5  7  2  0
  1  2  1  0
  1  3  1  0
  1  4  1  0
  8 12  1  0
 12 15  1  0
  8  9  1  0
  8 10  1  0
  8 11  1  0
 12 13  1  0
 12 14  1  0
 15 16  1  0
 15 17  1  0
 15 18  1  0
M  CHG  1   6  -1
M  END
>  <PDB_ID>  (1816) 
pdb6efw

>  <RESIDUE_NAME>  (1816) 
ASP   LYS

>  <FRAG_NAME>  (1816) 
ACET   PRPA

>  <FRAG_ATOM_NUM>  (1816) 
fragi: 7  fragj: 11

>  <atom.prop.CHAIN_ID>  (1816) 
A A A A A A A Z Z Z Z Z Z Z Z Z Z Z

>  <atom.prop.IS_HEAVY_ATOM>  (1816) 
1 0 0 0 1 1 1 1 0 0 0 1 0 0 1 0 0 0

>  <DIFUSE_FUNC_ATOM>  (1816) 
atom 6   atom 7   

>  <FINAL_SINGLE_POINT_ENERGY>  (1816) 
0

>  <NONCOV_INTER_ENERGY_QM>  (1816) 
0

>  <FF_Energy>  (1816) 
21.15

>  <QM_Energy>  (1816) 
3.31

>  <source>  (1816) 
ACET_PRPA_23

>  <Index>  (1816) 
15012

$$$$
ACET-pdb6efw-A-ASP-86:PRPA-pdb6efw-A-LYS-89
     RDKit          3D

 18 16  0  0  0  0  0  0  0  0999 V2000
    0.0458    1.4982    0.0290 C   0  0  0  0  0  0  0  0  0  0  0  0
    0.9333    1.8028   -0.3156 H   0  0  0  0  0  0  0  0  0  0  0  0
   -0.0700    1.8096    0.9717 H   0  0  0  0  0  0  0  0  0  0  0  0
   -0.7279    1.9698   -0.5769 H   0  0  0  0  0  0  0  0  0  0  0  0
    0.0000    0.0000    0.0000 C   0  0  0  0  0  0  0  0  0  0  0  0
   -1.1044   -0.5893    0.0000 O   0  0  0  0  0  1  0  0  0  0  0  0
    1.1044   -0.5863    0.0000 O   0  0  0  0  0  0  0  0  0  0  0  0
   -0.1097    1.7881    3.2257 C   0  0  0  0  0  0  0  0  0  0  0  0
    0.3225    1.2086    3.9151 H   0  0  0  0  0  0  0  0  0  0  0  0
   -0.4363    1.2241    2.4688 H   0  0  0  0  0  0  0  0  0  0  0  0
   -0.9574    2.3043    3.6764 H   0  0  0  0  0  0  0  0  0  0  0  0
    0.9192    2.7759    2.6981 C   0  0  0  0  0  0  0  0  0  0  0  0
    0.4835    3.3562    2.0112 H   0  0  0  0  0  0  0  0  0  0  0  0
    1.2428    3.3395    3.4570 H   0  0  0  0  0  0  0  0  0  0  0  0
    2.1088    2.0860    2.0653 C   0  0  0  0  0  0  0  0  0  0  0  0
    2.5526    1.5060    2.7478 H   0  0  0  0  0  0  0  0  0  0  0  0
    1.7933    1.5228    1.3021 H   0  0  0  0  0  0  0  0  0  0  0  0
    2.8256    2.8200    1.6974 H   0  0  0  0  0  0  0  0  0  0  0  0
  1  5  1  0
  5  6  1  0
  5  7  2  0
  1  2  1  0
  1  3  1  0
  1  4  1  0
  8 12  1  0
 12 15  1  0
  8  9  1  0
  8 10  1  0
  8 11  1  0
 12 13  1  0
 12 14  1  0
 15 16  1  0
 15 17  1  0
 15 18  1  0
M  CHG  1   6  -1
M  END
>  <PDB_ID>  (1817) 
pdb6efw

>  <RESIDUE_NAME>  (1817) 
ASP   LYS

>  <FRAG_NAME>  (1817) 
ACET   PRPA

>  <FRAG_ATOM_NUM>  (1817) 
fragi: 7  fragj: 11

>  <atom.prop.CHAIN_ID>  (1817) 
A A A A A A A Z Z Z Z Z Z Z Z Z Z Z

>  <atom.prop.IS_HEAVY_ATOM>  (1817) 
1 0 0 0 1 1 1 1 0 0 0 1 0 0 1 0 0 0

>  <DIFUSE_FUNC_ATOM>  (1817) 
atom 6   atom 7   

>  <FINAL_SINGLE_POINT_ENERGY>  (1817) 
0

>  <NONCOV_INTER_ENERGY_QM>  (1817) 
0

>  <FF_Energy>  (1817) 
34.44

>  <QM_Energy>  (1817) 
6.26

>  <source>  (1817) 
ACET_PRPA_23

>  <Index>  (1817) 
15020

$$$$
ACET-pdb5e9h-A-GLU-16:PRPA-pdb5e9h-A-ILE-11
     RDKit          3D

 18 16  0  0  0  0  0  0  0  0999 V2000
    0.0170    1.5306   -0.0011 C   0  0  0  0  0  0  0  0  0  0  0  0
    0.4254    1.8184   -0.8499 H   0  0  0  0  0  0  0  0  0  0  0  0
    0.5484    1.8180    0.7776 H   0  0  0  0  0  0  0  0  0  0  0  0
   -0.9719    1.9832    0.0724 H   0  0  0  0  0  0  0  0  0  0  0  0
    0.0000    0.0000    0.0000 C   0  0  0  0  0  0  0  0  0  0  0  0
   -1.0970   -0.6061   -0.0000 O   0  0  0  0  0  1  0  0  0  0  0  0
    1.0970   -0.6047    0.0000 O   0  0  0  0  0  0  0  0  0  0  0  0
    1.0205    0.7571    5.4212 C   0  0  0  0  0  0  0  0  0  0  0  0
    1.2661    1.6474    5.8009 H   0  0  0  0  0  0  0  0  0  0  0  0
    0.4531    0.2193    6.1807 H   0  0  0  0  0  0  0  0  0  0  0  0
    1.9415    0.2219    5.1902 H   0  0  0  0  0  0  0  0  0  0  0  0
    0.1918    0.9780    4.1773 C   0  0  0  0  0  0  0  0  0  0  0  0
   -0.3140    0.1403    3.9733 H   0  0  0  0  0  0  0  0  0  0  0  0
   -0.4667    1.7100    4.3581 H   0  0  0  0  0  0  0  0  0  0  0  0
    1.0125    1.3573    2.9712 C   0  0  0  0  0  0  0  0  0  0  0  0
    1.6670    0.6291    2.7701 H   0  0  0  0  0  0  0  0  0  0  0  0
    0.4090    1.4899    2.1842 H   0  0  0  0  0  0  0  0  0  0  0  0
    1.5065    2.2069    3.1571 H   0  0  0  0  0  0  0  0  0  0  0  0
  1  5  1  0
  5  6  1  0
  5  7  2  0
  1  2  1  0
  1  3  1  0
  1  4  1  0
  8 12  1  0
 12 15  1  0
  8  9  1  0
  8 10  1  0
  8 11  1  0
 12 13  1  0
 12 14  1  0
 15 16  1  0
 15 17  1  0
 15 18  1  0
M  CHG  1   6  -1
M  END
>  <PDB_ID>  (1818) 
pdb5e9h

>  <RESIDUE_NAME>  (1818) 
GLU   ILE

>  <FRAG_NAME>  (1818) 
ACET   PRPA

>  <FRAG_ATOM_NUM>  (1818) 
fragi: 7  fragj: 11

>  <atom.prop.CHAIN_ID>  (1818) 
A A A A A A A Z Z Z Z Z Z Z Z Z Z Z

>  <atom.prop.IS_HEAVY_ATOM>  (1818) 
1 0 0 0 1 1 1 1 0 0 0 1 0 0 1 0 0 0

>  <DIFUSE_FUNC_ATOM>  (1818) 
atom 6   atom 7   

>  <FINAL_SINGLE_POINT_ENERGY>  (1818) 
0

>  <NONCOV_INTER_ENERGY_QM>  (1818) 
0

>  <FF_Energy>  (1818) 
45.92

>  <QM_Energy>  (1818) 
4.98

>  <source>  (1818) 
ACET_PRPA_23

>  <Index>  (1818) 
17732

$$$$
ACET-pdb6ewj-D-GLU-15:PRPA-pdb6ewj-A-VAL-22
     RDKit          3D

 18 16  0  0  0  0  0  0  0  0999 V2000
    0.0384    1.5270    0.0500 C   0  0  0  0  0  0  0  0  0  0  0  0
    0.9245    1.8072   -0.2788 H   0  0  0  0  0  0  0  0  0  0  0  0
   -0.1047    1.7911    0.9894 H   0  0  0  0  0  0  0  0  0  0  0  0
   -0.7246    2.0049   -0.5645 H   0  0  0  0  0  0  0  0  0  0  0  0
    0.0000    0.0000    0.0000 C   0  0  0  0  0  0  0  0  0  0  0  0
   -1.0978   -0.5934   -0.0000 O   0  0  0  0  0  1  0  0  0  0  0  0
    1.0978   -0.6167   -0.0000 O   0  0  0  0  0  0  0  0  0  0  0  0
    0.6039   -0.7419    4.9523 C   0  0  0  0  0  0  0  0  0  0  0  0
   -0.3361   -0.9589    5.2675 H   0  0  0  0  0  0  0  0  0  0  0  0
    0.9383    0.1495    5.4828 H   0  0  0  0  0  0  0  0  0  0  0  0
    1.2294   -1.6135    5.1452 H   0  0  0  0  0  0  0  0  0  0  0  0
    0.4948   -0.4883    3.4596 C   0  0  0  0  0  0  0  0  0  0  0  0
    1.4140   -0.2519    3.1129 H   0  0  0  0  0  0  0  0  0  0  0  0
    0.1638   -1.3554    2.8881 H   0  0  0  0  0  0  0  0  0  0  0  0
   -0.3913    0.7171    3.1427 C   0  0  0  0  0  0  0  0  0  0  0  0
   -1.2839    0.3927    2.8331 H   0  0  0  0  0  0  0  0  0  0  0  0
   -0.4985    1.2694    3.9685 H   0  0  0  0  0  0  0  0  0  0  0  0
    0.0403    1.2602    2.4251 H   0  0  0  0  0  0  0  0  0  0  0  0
  1  5  1  0
  5  6  1  0
  5  7  2  0
  1  2  1  0
  1  3  1  0
  1  4  1  0
  8 12  1  0
 12 15  1  0
  8  9  1  0
  8 10  1  0
  8 11  1  0
 12 13  1  0
 12 14  1  0
 15 16  1  0
 15 17  1  0
 15 18  1  0
M  CHG  1   6  -1
M  END
>  <PDB_ID>  (1819) 
pdb6ewj

>  <RESIDUE_NAME>  (1819) 
GLU   VAL

>  <FRAG_NAME>  (1819) 
ACET   PRPA

>  <FRAG_ATOM_NUM>  (1819) 
fragi: 7  fragj: 11

>  <atom.prop.CHAIN_ID>  (1819) 
A A A A A A A Z Z Z Z Z Z Z Z Z Z Z

>  <atom.prop.IS_HEAVY_ATOM>  (1819) 
1 0 0 0 1 1 1 1 0 0 0 1 0 0 1 0 0 0

>  <DIFUSE_FUNC_ATOM>  (1819) 
atom 6   atom 7   

>  <FINAL_SINGLE_POINT_ENERGY>  (1819) 
0

>  <NONCOV_INTER_ENERGY_QM>  (1819) 
0

>  <FF_Energy>  (1819) 
21.19

>  <QM_Energy>  (1819) 
0.75

>  <source>  (1819) 
ACET_PRPA_23

>  <Index>  (1819) 
23934

$$$$
ACET-pdb6ewj-D-GLU-15:PRPA-pdb6ewj-A-VAL-22
     RDKit          3D

 18 16  0  0  0  0  0  0  0  0999 V2000
    0.0384    1.5270    0.0500 C   0  0  0  0  0  0  0  0  0  0  0  0
    0.9245    1.8072   -0.2788 H   0  0  0  0  0  0  0  0  0  0  0  0
   -0.1047    1.7911    0.9894 H   0  0  0  0  0  0  0  0  0  0  0  0
   -0.7246    2.0049   -0.5645 H   0  0  0  0  0  0  0  0  0  0  0  0
    0.0000    0.0000    0.0000 C   0  0  0  0  0  0  0  0  0  0  0  0
   -1.0978   -0.5934   -0.0000 O   0  0  0  0  0  1  0  0  0  0  0  0
    1.0978   -0.6167   -0.0000 O   0  0  0  0  0  0  0  0  0  0  0  0
    0.0318   -1.7010    2.6602 C   0  0  0  0  0  0  0  0  0  0  0  0
   -0.3740   -2.3728    3.2793 H   0  0  0  0  0  0  0  0  0  0  0  0
   -0.6491   -1.4156    1.9862 H   0  0  0  0  0  0  0  0  0  0  0  0
    0.8145   -2.1093    2.1921 H   0  0  0  0  0  0  0  0  0  0  0  0
    0.4948   -0.4883    3.4596 C   0  0  0  0  0  0  0  0  0  0  0  0
    1.4140   -0.2519    3.1129 H   0  0  0  0  0  0  0  0  0  0  0  0
    0.5731   -0.6705    4.5314 H   0  0  0  0  0  0  0  0  0  0  0  0
   -0.3913    0.7171    3.1427 C   0  0  0  0  0  0  0  0  0  0  0  0
   -1.2839    0.3927    2.8331 H   0  0  0  0  0  0  0  0  0  0  0  0
   -0.4985    1.2694    3.9685 H   0  0  0  0  0  0  0  0  0  0  0  0
    0.0403    1.2602    2.4251 H   0  0  0  0  0  0  0  0  0  0  0  0
  1  5  1  0
  5  6  1  0
  5  7  2  0
  1  2  1  0
  1  3  1  0
  1  4  1  0
  8 12  1  0
 12 15  1  0
  8  9  1  0
  8 10  1  0
  8 11  1  0
 12 13  1  0
 12 14  1  0
 15 16  1  0
 15 17  1  0
 15 18  1  0
M  CHG  1   6  -1
M  END
>  <PDB_ID>  (1820) 
pdb6ewj

>  <RESIDUE_NAME>  (1820) 
GLU   VAL

>  <FRAG_NAME>  (1820) 
ACET   PRPA

>  <FRAG_ATOM_NUM>  (1820) 
fragi: 7  fragj: 11

>  <atom.prop.CHAIN_ID>  (1820) 
A A A A A A A Z Z Z Z Z Z Z Z Z Z Z

>  <atom.prop.IS_HEAVY_ATOM>  (1820) 
1 0 0 0 1 1 1 1 0 0 0 1 0 0 1 0 0 0

>  <DIFUSE_FUNC_ATOM>  (1820) 
atom 6   atom 7   

>  <FINAL_SINGLE_POINT_ENERGY>  (1820) 
0

>  <NONCOV_INTER_ENERGY_QM>  (1820) 
0

>  <FF_Energy>  (1820) 
25.88

>  <QM_Energy>  (1820) 
0.39

>  <source>  (1820) 
ACET_PRPA_23

>  <Index>  (1820) 
23941

$$$$
ACET-pdb6f6p-B-GLU-178:PRPA-pdb6f6p-A-LYS-175
     RDKit          3D

 18 16  0  0  0  0  0  0  0  0999 V2000
   -0.0012    1.5185    0.0000 C   0  0  0  0  0  0  0  0  0  0  0  0
    0.4174    1.8147   -0.8361 H   0  0  0  0  0  0  0  0  0  0  0  0
    0.4930    1.8140    0.7942 H   0  0  0  0  0  0  0  0  0  0  0  0
   -1.0090    1.9313    0.0455 H   0  0  0  0  0  0  0  0  0  0  0  0
    0.0000    0.0000    0.0000 C   0  0  0  0  0  0  0  0  0  0  0  0
   -1.0971   -0.5969   -0.0000 O   0  0  0  0  0  1  0  0  0  0  0  0
    1.0971   -0.5959    0.0000 O   0  0  0  0  0  0  0  0  0  0  0  0
    1.1318    0.4777   -4.6702 C   0  0  0  0  0  0  0  0  0  0  0  0
    1.5952    1.3073   -4.9874 H   0  0  0  0  0  0  0  0  0  0  0  0
    0.2253    0.7225   -4.3187 H   0  0  0  0  0  0  0  0  0  0  0  0
    0.9964   -0.1838   -5.5259 H   0  0  0  0  0  0  0  0  0  0  0  0
    1.9427   -0.1125   -3.5256 C   0  0  0  0  0  0  0  0  0  0  0  0
    1.5796   -1.0204   -3.3040 H   0  0  0  0  0  0  0  0  0  0  0  0
    2.8977   -0.2031   -3.8157 H   0  0  0  0  0  0  0  0  0  0  0  0
    1.8843    0.7566   -2.2851 C   0  0  0  0  0  0  0  0  0  0  0  0
    2.2463    1.6641   -2.5098 H   0  0  0  0  0  0  0  0  0  0  0  0
    0.9289    0.8457   -1.9983 H   0  0  0  0  0  0  0  0  0  0  0  0
    2.4608    0.3478   -1.4553 H   0  0  0  0  0  0  0  0  0  0  0  0
  1  5  1  0
  5  6  1  0
  5  7  2  0
  1  2  1  0
  1  3  1  0
  1  4  1  0
  8 12  1  0
 12 15  1  0
  8  9  1  0
  8 10  1  0
  8 11  1  0
 12 13  1  0
 12 14  1  0
 15 16  1  0
 15 17  1  0
 15 18  1  0
M  CHG  1   6  -1
M  END
>  <PDB_ID>  (1821) 
pdb6f6p

>  <RESIDUE_NAME>  (1821) 
GLU   LYS

>  <FRAG_NAME>  (1821) 
ACET   PRPA

>  <FRAG_ATOM_NUM>  (1821) 
fragi: 7  fragj: 11

>  <atom.prop.CHAIN_ID>  (1821) 
A A A A A A A Z Z Z Z Z Z Z Z Z Z Z

>  <atom.prop.IS_HEAVY_ATOM>  (1821) 
1 0 0 0 1 1 1 1 0 0 0 1 0 0 1 0 0 0

>  <DIFUSE_FUNC_ATOM>  (1821) 
atom 6   atom 7   

>  <FINAL_SINGLE_POINT_ENERGY>  (1821) 
0

>  <NONCOV_INTER_ENERGY_QM>  (1821) 
0

>  <FF_Energy>  (1821) 
25.81

>  <QM_Energy>  (1821) 
6.01

>  <source>  (1821) 
ACET_PRPA_23

>  <Index>  (1821) 
23980

$$$$
ACET-pdb6ex6-A-ASP-78:PRPA-pdb6ex6-A-LYS-141
     RDKit          3D

 18 16  0  0  0  0  0  0  0  0999 V2000
    0.0711    1.5511   -0.0265 C   0  0  0  0  0  0  0  0  0  0  0  0
    0.5536    1.8224   -0.8506 H   0  0  0  0  0  0  0  0  0  0  0  0
    0.5635    1.8506    0.7813 H   0  0  0  0  0  0  0  0  0  0  0  0
   -0.9040    2.0381   -0.0293 H   0  0  0  0  0  0  0  0  0  0  0  0
    0.0000    0.0000    0.0000 C   0  0  0  0  0  0  0  0  0  0  0  0
   -1.1007   -0.6240    0.0000 O   0  0  0  0  0  1  0  0  0  0  0  0
    1.1007   -0.5996    0.0000 O   0  0  0  0  0  0  0  0  0  0  0  0
   -2.3864   -1.4880    3.7086 C   0  0  0  0  0  0  0  0  0  0  0  0
   -2.3282   -0.6190    3.2396 H   0  0  0  0  0  0  0  0  0  0  0  0
   -1.6701   -1.5773    4.3862 H   0  0  0  0  0  0  0  0  0  0  0  0
   -3.3384   -1.5079    4.2390 H   0  0  0  0  0  0  0  0  0  0  0  0
   -2.2541   -2.6104    2.6932 C   0  0  0  0  0  0  0  0  0  0  0  0
   -2.3202   -3.4865    3.1612 H   0  0  0  0  0  0  0  0  0  0  0  0
   -2.9777   -2.5273    2.0144 H   0  0  0  0  0  0  0  0  0  0  0  0
   -0.9046   -2.5337    1.9839 C   0  0  0  0  0  0  0  0  0  0  0  0
   -0.8391   -1.6545    1.5186 H   0  0  0  0  0  0  0  0  0  0  0  0
   -0.1808   -2.6144    2.6644 H   0  0  0  0  0  0  0  0  0  0  0  0
   -0.7827   -3.3286    1.2482 H   0  0  0  0  0  0  0  0  0  0  0  0
  1  5  1  0
  5  6  1  0
  5  7  2  0
  1  2  1  0
  1  3  1  0
  1  4  1  0
  8 12  1  0
 12 15  1  0
  8  9  1  0
  8 10  1  0
  8 11  1  0
 12 13  1  0
 12 14  1  0
 15 16  1  0
 15 17  1  0
 15 18  1  0
M  CHG  1   6  -1
M  END
>  <PDB_ID>  (1822) 
pdb6ex6

>  <RESIDUE_NAME>  (1822) 
ASP   LYS

>  <FRAG_NAME>  (1822) 
ACET   PRPA

>  <FRAG_ATOM_NUM>  (1822) 
fragi: 7  fragj: 11

>  <atom.prop.CHAIN_ID>  (1822) 
A A A A A A A Z Z Z Z Z Z Z Z Z Z Z

>  <atom.prop.IS_HEAVY_ATOM>  (1822) 
1 0 0 0 1 1 1 1 0 0 0 1 0 0 1 0 0 0

>  <DIFUSE_FUNC_ATOM>  (1822) 
atom 6   atom 7   

>  <FINAL_SINGLE_POINT_ENERGY>  (1822) 
0

>  <NONCOV_INTER_ENERGY_QM>  (1822) 
0

>  <FF_Energy>  (1822) 
21.41

>  <QM_Energy>  (1822) 
0.64

>  <source>  (1822) 
ACET_PRPA_23

>  <Index>  (1822) 
24520

$$$$
ACET-pdb5ewu-A-GLU-1010:PRPA-pdb5ewu-A-LYS-1006
     RDKit          3D

 18 16  0  0  0  0  0  0  0  0999 V2000
    0.2227    1.5139    0.0168 C   0  0  0  0  0  0  0  0  0  0  0  0
    0.8032    1.7297   -0.7554 H   0  0  0  0  0  0  0  0  0  0  0  0
    0.6737    1.7299    0.8713 H   0  0  0  0  0  0  0  0  0  0  0  0
   -0.6878    2.1087   -0.0568 H   0  0  0  0  0  0  0  0  0  0  0  0
    0.0000    0.0000    0.0000 C   0  0  0  0  0  0  0  0  0  0  0  0
   -1.0875   -0.5285    0.0000 O   0  0  0  0  0  1  0  0  0  0  0  0
    1.0875   -0.6158    0.0000 O   0  0  0  0  0  0  0  0  0  0  0  0
   -1.2383   -2.5895    2.9617 C   0  0  0  0  0  0  0  0  0  0  0  0
   -0.6135   -2.1006    3.5807 H   0  0  0  0  0  0  0  0  0  0  0  0
   -1.9628   -3.1430    3.5592 H   0  0  0  0  0  0  0  0  0  0  0  0
   -1.7424   -1.8630    2.3242 H   0  0  0  0  0  0  0  0  0  0  0  0
   -0.4348   -3.5624    2.0918 C   0  0  0  0  0  0  0  0  0  0  0  0
   -0.0044   -4.2385    2.6997 H   0  0  0  0  0  0  0  0  0  0  0  0
   -1.0804   -4.0441    1.4877 H   0  0  0  0  0  0  0  0  0  0  0  0
    0.6521   -2.9410    1.2267 C   0  0  0  0  0  0  0  0  0  0  0  0
    0.2681   -2.1774    0.7154 H   0  0  0  0  0  0  0  0  0  0  0  0
    1.3951   -2.6253    1.8093 H   0  0  0  0  0  0  0  0  0  0  0  0
    1.0467   -3.6712    0.5201 H   0  0  0  0  0  0  0  0  0  0  0  0
  1  5  1  0
  5  6  1  0
  5  7  2  0
  1  2  1  0
  1  3  1  0
  1  4  1  0
  8 12  1  0
 12 15  1  0
  8  9  1  0
  8 10  1  0
  8 11  1  0
 12 13  1  0
 12 14  1  0
 15 16  1  0
 15 17  1  0
 15 18  1  0
M  CHG  1   6  -1
M  END
>  <PDB_ID>  (1823) 
pdb5ewu

>  <RESIDUE_NAME>  (1823) 
GLU   LYS

>  <FRAG_NAME>  (1823) 
ACET   PRPA

>  <FRAG_ATOM_NUM>  (1823) 
fragi: 7  fragj: 11

>  <atom.prop.CHAIN_ID>  (1823) 
A A A A A A A Z Z Z Z Z Z Z Z Z Z Z

>  <atom.prop.IS_HEAVY_ATOM>  (1823) 
1 0 0 0 1 1 1 1 0 0 0 1 0 0 1 0 0 0

>  <DIFUSE_FUNC_ATOM>  (1823) 
atom 6   atom 7   

>  <FINAL_SINGLE_POINT_ENERGY>  (1823) 
0

>  <NONCOV_INTER_ENERGY_QM>  (1823) 
0

>  <FF_Energy>  (1823) 
20.89

>  <QM_Energy>  (1823) 
2.16

>  <source>  (1823) 
ACET_PRPA_23

>  <Index>  (1823) 
24826

$$$$
ACET-pdb5ewu-A-GLU-1010:PRPA-pdb5ewu-A-LYS-1006
     RDKit          3D

 18 16  0  0  0  0  0  0  0  0999 V2000
    0.2227    1.5139    0.0168 C   0  0  0  0  0  0  0  0  0  0  0  0
    0.8032    1.7297   -0.7554 H   0  0  0  0  0  0  0  0  0  0  0  0
    0.6737    1.7299    0.8713 H   0  0  0  0  0  0  0  0  0  0  0  0
   -0.6878    2.1087   -0.0568 H   0  0  0  0  0  0  0  0  0  0  0  0
    0.0000    0.0000    0.0000 C   0  0  0  0  0  0  0  0  0  0  0  0
   -1.0875   -0.5285    0.0000 O   0  0  0  0  0  1  0  0  0  0  0  0
    1.0875   -0.6158    0.0000 O   0  0  0  0  0  0  0  0  0  0  0  0
   -0.4348   -3.5624    2.0918 C   0  0  0  0  0  0  0  0  0  0  0  0
   -0.0044   -4.2385    2.6997 H   0  0  0  0  0  0  0  0  0  0  0  0
   -1.0804   -4.0441    1.4877 H   0  0  0  0  0  0  0  0  0  0  0  0
   -1.0063   -2.8705    2.7104 H   0  0  0  0  0  0  0  0  0  0  0  0
    0.6521   -2.9410    1.2267 C   0  0  0  0  0  0  0  0  0  0  0  0
    0.2681   -2.1774    0.7154 H   0  0  0  0  0  0  0  0  0  0  0  0
    1.3951   -2.6253    1.8093 H   0  0  0  0  0  0  0  0  0  0  0  0
    1.2058   -3.9657    0.2350 C   0  0  0  0  0  0  0  0  0  0  0  0
    1.6628   -4.6873    0.7452 H   0  0  0  0  0  0  0  0  0  0  0  0
    0.4499   -4.3400   -0.2929 H   0  0  0  0  0  0  0  0  0  0  0  0
    1.9225   -3.5174   -0.4532 H   0  0  0  0  0  0  0  0  0  0  0  0
  1  5  1  0
  5  6  1  0
  5  7  2  0
  1  2  1  0
  1  3  1  0
  1  4  1  0
  8 12  1  0
 12 15  1  0
  8  9  1  0
  8 10  1  0
  8 11  1  0
 12 13  1  0
 12 14  1  0
 15 16  1  0
 15 17  1  0
 15 18  1  0
M  CHG  1   6  -1
M  END
>  <PDB_ID>  (1824) 
pdb5ewu

>  <RESIDUE_NAME>  (1824) 
GLU   LYS

>  <FRAG_NAME>  (1824) 
ACET   PRPA

>  <FRAG_ATOM_NUM>  (1824) 
fragi: 7  fragj: 11

>  <atom.prop.CHAIN_ID>  (1824) 
A A A A A A A Z Z Z Z Z Z Z Z Z Z Z

>  <atom.prop.IS_HEAVY_ATOM>  (1824) 
1 0 0 0 1 1 1 1 0 0 0 1 0 0 1 0 0 0

>  <DIFUSE_FUNC_ATOM>  (1824) 
atom 6   atom 7   

>  <FINAL_SINGLE_POINT_ENERGY>  (1824) 
0

>  <NONCOV_INTER_ENERGY_QM>  (1824) 
0

>  <FF_Energy>  (1824) 
23.04

>  <QM_Energy>  (1824) 
2.14

>  <source>  (1824) 
ACET_PRPA_23

>  <Index>  (1824) 
24844

$$$$
ACET-pdb5ewu-A-GLU-1010:PRPA-pdb5ewu-A-LYS-1006
     RDKit          3D

 18 16  0  0  0  0  0  0  0  0999 V2000
    0.2227    1.5139    0.0168 C   0  0  0  0  0  0  0  0  0  0  0  0
    0.8032    1.7297   -0.7554 H   0  0  0  0  0  0  0  0  0  0  0  0
    0.6737    1.7299    0.8713 H   0  0  0  0  0  0  0  0  0  0  0  0
   -0.6878    2.1087   -0.0568 H   0  0  0  0  0  0  0  0  0  0  0  0
    0.0000    0.0000    0.0000 C   0  0  0  0  0  0  0  0  0  0  0  0
   -1.0875   -0.5285    0.0000 O   0  0  0  0  0  1  0  0  0  0  0  0
    1.0875   -0.6158    0.0000 O   0  0  0  0  0  0  0  0  0  0  0  0
    0.6521   -2.9410    1.2267 C   0  0  0  0  0  0  0  0  0  0  0  0
    0.2681   -2.1774    0.7154 H   0  0  0  0  0  0  0  0  0  0  0  0
    1.3951   -2.6253    1.8093 H   0  0  0  0  0  0  0  0  0  0  0  0
   -0.1265   -3.3861    1.8463 H   0  0  0  0  0  0  0  0  0  0  0  0
    1.2058   -3.9657    0.2350 C   0  0  0  0  0  0  0  0  0  0  0  0
    1.6628   -4.6873    0.7452 H   0  0  0  0  0  0  0  0  0  0  0  0
    0.4499   -4.3400   -0.2929 H   0  0  0  0  0  0  0  0  0  0  0  0
    2.2073   -3.3392   -0.7267 C   0  0  0  0  0  0  0  0  0  0  0  0
    2.5201   -4.0429   -1.3683 H   0  0  0  0  0  0  0  0  0  0  0  0
    1.7471   -2.6112   -1.2408 H   0  0  0  0  0  0  0  0  0  0  0  0
    3.0637   -2.9243   -0.1950 H   0  0  0  0  0  0  0  0  0  0  0  0
  1  5  1  0
  5  6  1  0
  5  7  2  0
  1  2  1  0
  1  3  1  0
  1  4  1  0
  8 12  1  0
 12 15  1  0
  8  9  1  0
  8 10  1  0
  8 11  1  0
 12 13  1  0
 12 14  1  0
 15 16  1  0
 15 17  1  0
 15 18  1  0
M  CHG  1   6  -1
M  END
>  <PDB_ID>  (1825) 
pdb5ewu

>  <RESIDUE_NAME>  (1825) 
GLU   LYS

>  <FRAG_NAME>  (1825) 
ACET   PRPA

>  <FRAG_ATOM_NUM>  (1825) 
fragi: 7  fragj: 11

>  <atom.prop.CHAIN_ID>  (1825) 
A A A A A A A Z Z Z Z Z Z Z Z Z Z Z

>  <atom.prop.IS_HEAVY_ATOM>  (1825) 
1 0 0 0 1 1 1 1 0 0 0 1 0 0 1 0 0 0

>  <DIFUSE_FUNC_ATOM>  (1825) 
atom 6   atom 7   

>  <FINAL_SINGLE_POINT_ENERGY>  (1825) 
0

>  <NONCOV_INTER_ENERGY_QM>  (1825) 
0

>  <FF_Energy>  (1825) 
22.57

>  <QM_Energy>  (1825) 
2.34

>  <source>  (1825) 
ACET_PRPA_23

>  <Index>  (1825) 
24864

$$$$
ACET-pdb5f5l-A-GLU-233:PRPA-pdb5f5l-A-VAL-168
     RDKit          3D

 18 16  0  0  0  0  0  0  0  0999 V2000
    0.1649    1.4821    0.0151 C   0  0  0  0  0  0  0  0  0  0  0  0
   -0.7143    1.8924   -0.2426 H   0  0  0  0  0  0  0  0  0  0  0  0
    0.8497    1.7230   -0.6779 H   0  0  0  0  0  0  0  0  0  0  0  0
    0.4753    1.9376    0.9554 H   0  0  0  0  0  0  0  0  0  0  0  0
    0.0000    0.0000    0.0000 C   0  0  0  0  0  0  0  0  0  0  0  0
   -1.0896   -0.5608   -0.0000 O   0  0  0  0  0  1  0  0  0  0  0  0
    1.0896   -0.6038    0.0000 O   0  0  0  0  0  0  0  0  0  0  0  0
    0.6552    0.6265   -5.0372 C   0  0  0  0  0  0  0  0  0  0  0  0
    0.0683    1.4134   -4.8391 H   0  0  0  0  0  0  0  0  0  0  0  0
    0.4950    0.3343   -6.0750 H   0  0  0  0  0  0  0  0  0  0  0  0
    1.6927    0.9343   -4.9072 H   0  0  0  0  0  0  0  0  0  0  0  0
    0.3341   -0.5059   -4.0617 C   0  0  0  0  0  0  0  0  0  0  0  0
    0.9568   -1.2581   -4.2471 H   0  0  0  0  0  0  0  0  0  0  0  0
   -0.6992   -0.8276   -4.1909 H   0  0  0  0  0  0  0  0  0  0  0  0
    0.6032   -0.0535   -2.6301 C   0  0  0  0  0  0  0  0  0  0  0  0
    1.0515   -0.7918   -2.1277 H   0  0  0  0  0  0  0  0  0  0  0  0
    1.1954    0.7512   -2.6419 H   0  0  0  0  0  0  0  0  0  0  0  0
   -0.2620    0.1763   -2.1860 H   0  0  0  0  0  0  0  0  0  0  0  0
  1  5  1  0
  5  6  1  0
  5  7  2  0
  1  2  1  0
  1  3  1  0
  1  4  1  0
  8 12  1  0
 12 15  1  0
  8  9  1  0
  8 10  1  0
  8 11  1  0
 12 13  1  0
 12 14  1  0
 15 16  1  0
 15 17  1  0
 15 18  1  0
M  CHG  1   6  -1
M  END
>  <PDB_ID>  (1826) 
pdb5f5l

>  <RESIDUE_NAME>  (1826) 
GLU   VAL

>  <FRAG_NAME>  (1826) 
ACET   PRPA

>  <FRAG_ATOM_NUM>  (1826) 
fragi: 7  fragj: 11

>  <atom.prop.CHAIN_ID>  (1826) 
A A A A A A A Z Z Z Z Z Z Z Z Z Z Z

>  <atom.prop.IS_HEAVY_ATOM>  (1826) 
1 0 0 0 1 1 1 1 0 0 0 1 0 0 1 0 0 0

>  <DIFUSE_FUNC_ATOM>  (1826) 
atom 6   atom 7   

>  <FINAL_SINGLE_POINT_ENERGY>  (1826) 
0

>  <NONCOV_INTER_ENERGY_QM>  (1826) 
0

>  <FF_Energy>  (1826) 
20.93

>  <QM_Energy>  (1826) 
3.48

>  <source>  (1826) 
ACET_PRPA_23

>  <Index>  (1826) 
26102

$$$$
ACET-pdb5f5l-A-GLU-233:PRPA-pdb5f5l-A-VAL-168
     RDKit          3D

 18 16  0  0  0  0  0  0  0  0999 V2000
    0.1649    1.4821    0.0151 C   0  0  0  0  0  0  0  0  0  0  0  0
   -0.7143    1.8924   -0.2426 H   0  0  0  0  0  0  0  0  0  0  0  0
    0.8497    1.7230   -0.6779 H   0  0  0  0  0  0  0  0  0  0  0  0
    0.4753    1.9376    0.9554 H   0  0  0  0  0  0  0  0  0  0  0  0
    0.0000    0.0000    0.0000 C   0  0  0  0  0  0  0  0  0  0  0  0
   -1.0896   -0.5608   -0.0000 O   0  0  0  0  0  1  0  0  0  0  0  0
    1.0896   -0.6038    0.0000 O   0  0  0  0  0  0  0  0  0  0  0  0
    0.6032   -0.0535   -2.6301 C   0  0  0  0  0  0  0  0  0  0  0  0
    1.0515   -0.7918   -2.1277 H   0  0  0  0  0  0  0  0  0  0  0  0
    1.1954    0.7512   -2.6419 H   0  0  0  0  0  0  0  0  0  0  0  0
   -0.2620    0.1763   -2.1860 H   0  0  0  0  0  0  0  0  0  0  0  0
    0.3341   -0.5059   -4.0617 C   0  0  0  0  0  0  0  0  0  0  0  0
    0.9568   -1.2581   -4.2471 H   0  0  0  0  0  0  0  0  0  0  0  0
    0.5631    0.3016   -4.7573 H   0  0  0  0  0  0  0  0  0  0  0  0
   -1.1259   -0.9604   -4.2442 C   0  0  0  0  0  0  0  0  0  0  0  0
   -1.2155   -1.8957   -3.9099 H   0  0  0  0  0  0  0  0  0  0  0  0
   -1.7187   -0.3512   -3.7243 H   0  0  0  0  0  0  0  0  0  0  0  0
   -1.3563   -0.9193   -5.2128 H   0  0  0  0  0  0  0  0  0  0  0  0
  1  5  1  0
  5  6  1  0
  5  7  2  0
  1  2  1  0
  1  3  1  0
  1  4  1  0
  8 12  1  0
 12 15  1  0
  8  9  1  0
  8 10  1  0
  8 11  1  0
 12 13  1  0
 12 14  1  0
 15 16  1  0
 15 17  1  0
 15 18  1  0
M  CHG  1   6  -1
M  END
>  <PDB_ID>  (1827) 
pdb5f5l

>  <RESIDUE_NAME>  (1827) 
GLU   VAL

>  <FRAG_NAME>  (1827) 
ACET   PRPA

>  <FRAG_ATOM_NUM>  (1827) 
fragi: 7  fragj: 11

>  <atom.prop.CHAIN_ID>  (1827) 
A A A A A A A Z Z Z Z Z Z Z Z Z Z Z

>  <atom.prop.IS_HEAVY_ATOM>  (1827) 
1 0 0 0 1 1 1 1 0 0 0 1 0 0 1 0 0 0

>  <DIFUSE_FUNC_ATOM>  (1827) 
atom 6   atom 7   

>  <FINAL_SINGLE_POINT_ENERGY>  (1827) 
0

>  <NONCOV_INTER_ENERGY_QM>  (1827) 
0

>  <FF_Energy>  (1827) 
21.09

>  <QM_Energy>  (1827) 
3.51

>  <source>  (1827) 
ACET_PRPA_23

>  <Index>  (1827) 
26111

$$$$
ACET-pdb5fa2-A-GLU-267:PRPA-pdb5fa2-A-LYS-231
     RDKit          3D

 18 16  0  0  0  0  0  0  0  0999 V2000
    0.1833    1.4851    0.0120 C   0  0  0  0  0  0  0  0  0  0  0  0
    0.7018    1.7352   -0.8053 H   0  0  0  0  0  0  0  0  0  0  0  0
    0.7136    1.7195    0.8271 H   0  0  0  0  0  0  0  0  0  0  0  0
   -0.7271    2.0843    0.0235 H   0  0  0  0  0  0  0  0  0  0  0  0
    0.0000    0.0000    0.0000 C   0  0  0  0  0  0  0  0  0  0  0  0
   -1.0890   -0.5556    0.0000 O   0  0  0  0  0  1  0  0  0  0  0  0
    1.0890   -0.6111   -0.0000 O   0  0  0  0  0  0  0  0  0  0  0  0
   -2.8542    0.3660    3.0271 C   0  0  0  0  0  0  0  0  0  0  0  0
   -3.8251    0.5906    3.1256 H   0  0  0  0  0  0  0  0  0  0  0  0
   -2.3695    1.1582    2.6512 H   0  0  0  0  0  0  0  0  0  0  0  0
   -2.4524    0.1682    4.0208 H   0  0  0  0  0  0  0  0  0  0  0  0
   -2.7273   -0.7864    2.0432 C   0  0  0  0  0  0  0  0  0  0  0  0
   -1.7563   -1.0152    1.9341 H   0  0  0  0  0  0  0  0  0  0  0  0
   -3.2130   -1.5820    2.4090 H   0  0  0  0  0  0  0  0  0  0  0  0
   -3.3044   -0.4355    0.6872 C   0  0  0  0  0  0  0  0  0  0  0  0
   -4.2731   -0.2053    0.7995 H   0  0  0  0  0  0  0  0  0  0  0  0
   -2.8170    0.3607    0.3244 H   0  0  0  0  0  0  0  0  0  0  0  0
   -3.2218   -1.2515   -0.0307 H   0  0  0  0  0  0  0  0  0  0  0  0
  1  5  1  0
  5  6  1  0
  5  7  2  0
  1  2  1  0
  1  3  1  0
  1  4  1  0
  8 12  1  0
 12 15  1  0
  8  9  1  0
  8 10  1  0
  8 11  1  0
 12 13  1  0
 12 14  1  0
 15 16  1  0
 15 17  1  0
 15 18  1  0
M  CHG  1   6  -1
M  END
>  <PDB_ID>  (1828) 
pdb5fa2

>  <RESIDUE_NAME>  (1828) 
GLU   LYS

>  <FRAG_NAME>  (1828) 
ACET   PRPA

>  <FRAG_ATOM_NUM>  (1828) 
fragi: 7  fragj: 11

>  <atom.prop.CHAIN_ID>  (1828) 
A A A A A A A Z Z Z Z Z Z Z Z Z Z Z

>  <atom.prop.IS_HEAVY_ATOM>  (1828) 
1 0 0 0 1 1 1 1 0 0 0 1 0 0 1 0 0 0

>  <DIFUSE_FUNC_ATOM>  (1828) 
atom 6   atom 7   

>  <FINAL_SINGLE_POINT_ENERGY>  (1828) 
0

>  <NONCOV_INTER_ENERGY_QM>  (1828) 
0

>  <FF_Energy>  (1828) 
44.36

>  <QM_Energy>  (1828) 
10.5

>  <source>  (1828) 
ACET_PRPA_23

>  <Index>  (1828) 
29625

$$$$
ACET-pdb6fhv-A-GLU-232:PRPA-pdb6fhv-A-ARG-228
     RDKit          3D

 18 16  0  0  0  0  0  0  0  0999 V2000
    0.0052    1.5340    0.0333 C   0  0  0  0  0  0  0  0  0  0  0  0
   -0.9169    1.8294   -0.1206 H   0  0  0  0  0  0  0  0  0  0  0  0
    0.6214    1.8358   -0.6666 H   0  0  0  0  0  0  0  0  0  0  0  0
    0.3430    1.9302    0.9910 H   0  0  0  0  0  0  0  0  0  0  0  0
    0.0000    0.0000    0.0000 C   0  0  0  0  0  0  0  0  0  0  0  0
   -1.0766   -0.5727   -0.0000 O   0  0  0  0  0  1  0  0  0  0  0  0
    1.0766   -0.6279    0.0000 O   0  0  0  0  0  0  0  0  0  0  0  0
    3.5478    0.8456   -3.9373 C   0  0  0  0  0  0  0  0  0  0  0  0
    2.7188    1.0735   -4.4555 H   0  0  0  0  0  0  0  0  0  0  0  0
    4.2426    0.5021   -4.5753 H   0  0  0  0  0  0  0  0  0  0  0  0
    3.9290    1.7723   -3.5083 H   0  0  0  0  0  0  0  0  0  0  0  0
    3.2071   -0.2683   -2.9595 C   0  0  0  0  0  0  0  0  0  0  0  0
    3.7662   -1.1047   -3.2143 H   0  0  0  0  0  0  0  0  0  0  0  0
    3.5737   -0.0019   -2.0259 H   0  0  0  0  0  0  0  0  0  0  0  0
    1.7852   -0.7094   -2.7796 C   0  0  0  0  0  0  0  0  0  0  0  0
    1.6091   -0.8099   -1.8075 H   0  0  0  0  0  0  0  0  0  0  0  0
    1.1915   -0.0159   -3.1715 H   0  0  0  0  0  0  0  0  0  0  0  0
    1.6229   -1.6619   -3.2841 H   0  0  0  0  0  0  0  0  0  0  0  0
  1  5  1  0
  5  6  1  0
  5  7  2  0
  1  2  1  0
  1  3  1  0
  1  4  1  0
  8 12  1  0
 12 15  1  0
  8  9  1  0
  8 10  1  0
  8 11  1  0
 12 13  1  0
 12 14  1  0
 15 16  1  0
 15 17  1  0
 15 18  1  0
M  CHG  1   6  -1
M  END
>  <PDB_ID>  (1829) 
pdb6fhv

>  <RESIDUE_NAME>  (1829) 
GLU   ARG

>  <FRAG_NAME>  (1829) 
ACET   PRPA

>  <FRAG_ATOM_NUM>  (1829) 
fragi: 7  fragj: 11

>  <atom.prop.CHAIN_ID>  (1829) 
A A A A A A A Z Z Z Z Z Z Z Z Z Z Z

>  <atom.prop.IS_HEAVY_ATOM>  (1829) 
1 0 0 0 1 1 1 1 0 0 0 1 0 0 1 0 0 0

>  <DIFUSE_FUNC_ATOM>  (1829) 
atom 6   atom 7   

>  <FINAL_SINGLE_POINT_ENERGY>  (1829) 
0

>  <NONCOV_INTER_ENERGY_QM>  (1829) 
0

>  <FF_Energy>  (1829) 
14.33

>  <QM_Energy>  (1829) 
-1.56

>  <source>  (1829) 
ACET_PRPA_23

>  <Index>  (1829) 
30358

$$$$
ACET-pdb6flo-B-GLU-228:PRPA-pdb6flo-A-LYS-372
     RDKit          3D

 18 16  0  0  0  0  0  0  0  0999 V2000
    0.0084    1.5222   -0.0185 C   0  0  0  0  0  0  0  0  0  0  0  0
    0.9390    1.8104    0.0977 H   0  0  0  0  0  0  0  0  0  0  0  0
   -0.5739    1.8256    0.7110 H   0  0  0  0  0  0  0  0  0  0  0  0
   -0.3677    1.9252   -0.9589 H   0  0  0  0  0  0  0  0  0  0  0  0
    0.0000    0.0000    0.0000 C   0  0  0  0  0  0  0  0  0  0  0  0
   -1.0972   -0.5984    0.0000 O   0  0  0  0  0  1  0  0  0  0  0  0
    1.0972   -0.5948   -0.0000 O   0  0  0  0  0  0  0  0  0  0  0  0
    3.4364   -3.7367   -1.7244 C   0  0  0  0  0  0  0  0  0  0  0  0
    2.4763   -3.5884   -1.9909 H   0  0  0  0  0  0  0  0  0  0  0  0
    3.4452   -4.2550   -0.8596 H   0  0  0  0  0  0  0  0  0  0  0  0
    3.9033   -4.3573   -2.4893 H   0  0  0  0  0  0  0  0  0  0  0  0
    4.0768   -2.3910   -1.4811 C   0  0  0  0  0  0  0  0  0  0  0  0
    5.0603   -2.5002   -1.4141 H   0  0  0  0  0  0  0  0  0  0  0  0
    3.8394   -1.7723   -2.2189 H   0  0  0  0  0  0  0  0  0  0  0  0
    3.5555   -1.8200   -0.1728 C   0  0  0  0  0  0  0  0  0  0  0  0
    2.5570   -1.7795   -0.2140 H   0  0  0  0  0  0  0  0  0  0  0  0
    3.8339   -2.4216    0.5758 H   0  0  0  0  0  0  0  0  0  0  0  0
    3.9350   -0.8183    0.0286 H   0  0  0  0  0  0  0  0  0  0  0  0
  1  5  1  0
  5  6  1  0
  5  7  2  0
  1  2  1  0
  1  3  1  0
  1  4  1  0
  8 12  1  0
 12 15  1  0
  8  9  1  0
  8 10  1  0
  8 11  1  0
 12 13  1  0
 12 14  1  0
 15 16  1  0
 15 17  1  0
 15 18  1  0
M  CHG  1   6  -1
M  END
>  <PDB_ID>  (1830) 
pdb6flo

>  <RESIDUE_NAME>  (1830) 
GLU   LYS

>  <FRAG_NAME>  (1830) 
ACET   PRPA

>  <FRAG_ATOM_NUM>  (1830) 
fragi: 7  fragj: 11

>  <atom.prop.CHAIN_ID>  (1830) 
A A A A A A A Z Z Z Z Z Z Z Z Z Z Z

>  <atom.prop.IS_HEAVY_ATOM>  (1830) 
1 0 0 0 1 1 1 1 0 0 0 1 0 0 1 0 0 0

>  <DIFUSE_FUNC_ATOM>  (1830) 
atom 6   atom 7   

>  <FINAL_SINGLE_POINT_ENERGY>  (1830) 
0

>  <NONCOV_INTER_ENERGY_QM>  (1830) 
0

>  <FF_Energy>  (1830) 
15.43

>  <QM_Energy>  (1830) 
0.02

>  <source>  (1830) 
ACET_PRPA_23

>  <Index>  (1830) 
30386

$$$$
ACET-pdb6flo-B-GLU-228:PRPA-pdb6flo-A-LYS-372
     RDKit          3D

 18 16  0  0  0  0  0  0  0  0999 V2000
    0.0084    1.5222   -0.0185 C   0  0  0  0  0  0  0  0  0  0  0  0
    0.9390    1.8104    0.0977 H   0  0  0  0  0  0  0  0  0  0  0  0
   -0.5739    1.8256    0.7110 H   0  0  0  0  0  0  0  0  0  0  0  0
   -0.3677    1.9252   -0.9589 H   0  0  0  0  0  0  0  0  0  0  0  0
    0.0000    0.0000    0.0000 C   0  0  0  0  0  0  0  0  0  0  0  0
   -1.0972   -0.5984    0.0000 O   0  0  0  0  0  1  0  0  0  0  0  0
    1.0972   -0.5948   -0.0000 O   0  0  0  0  0  0  0  0  0  0  0  0
    4.0768   -2.3910   -1.4811 C   0  0  0  0  0  0  0  0  0  0  0  0
    5.0603   -2.5002   -1.4141 H   0  0  0  0  0  0  0  0  0  0  0  0
    3.8394   -1.7723   -2.2189 H   0  0  0  0  0  0  0  0  0  0  0  0
    3.6145   -3.3623   -1.6567 H   0  0  0  0  0  0  0  0  0  0  0  0
    3.5555   -1.8200   -0.1728 C   0  0  0  0  0  0  0  0  0  0  0  0
    2.5570   -1.7795   -0.2140 H   0  0  0  0  0  0  0  0  0  0  0  0
    3.8339   -2.4216    0.5758 H   0  0  0  0  0  0  0  0  0  0  0  0
    4.0841   -0.4244    0.1078 C   0  0  0  0  0  0  0  0  0  0  0  0
    3.7296   -0.1156    0.9958 H   0  0  0  0  0  0  0  0  0  0  0  0
    5.0869   -0.4606    0.1563 H   0  0  0  0  0  0  0  0  0  0  0  0
    3.7872    0.2850   -0.6646 H   0  0  0  0  0  0  0  0  0  0  0  0
  1  5  1  0
  5  6  1  0
  5  7  2  0
  1  2  1  0
  1  3  1  0
  1  4  1  0
  8 12  1  0
 12 15  1  0
  8  9  1  0
  8 10  1  0
  8 11  1  0
 12 13  1  0
 12 14  1  0
 15 16  1  0
 15 17  1  0
 15 18  1  0
M  CHG  1   6  -1
M  END
>  <PDB_ID>  (1831) 
pdb6flo

>  <RESIDUE_NAME>  (1831) 
GLU   LYS

>  <FRAG_NAME>  (1831) 
ACET   PRPA

>  <FRAG_ATOM_NUM>  (1831) 
fragi: 7  fragj: 11

>  <atom.prop.CHAIN_ID>  (1831) 
A A A A A A A Z Z Z Z Z Z Z Z Z Z Z

>  <atom.prop.IS_HEAVY_ATOM>  (1831) 
1 0 0 0 1 1 1 1 0 0 0 1 0 0 1 0 0 0

>  <DIFUSE_FUNC_ATOM>  (1831) 
atom 6   atom 7   

>  <FINAL_SINGLE_POINT_ENERGY>  (1831) 
0

>  <NONCOV_INTER_ENERGY_QM>  (1831) 
0

>  <FF_Energy>  (1831) 
18.62

>  <QM_Energy>  (1831) 
-0.97

>  <source>  (1831) 
ACET_PRPA_23

>  <Index>  (1831) 
30389

$$$$
ACET-pdb6flo-A-GLU-395:PRPA-pdb6flo-A-ARG-392
     RDKit          3D

 18 16  0  0  0  0  0  0  0  0999 V2000
    0.1760    1.4855    0.0166 C   0  0  0  0  0  0  0  0  0  0  0  0
    0.6939    1.7411   -0.8004 H   0  0  0  0  0  0  0  0  0  0  0  0
    0.7058    1.7216    0.8320 H   0  0  0  0  0  0  0  0  0  0  0  0
   -0.7351    2.0835    0.0289 H   0  0  0  0  0  0  0  0  0  0  0  0
    0.0000    0.0000    0.0000 C   0  0  0  0  0  0  0  0  0  0  0  0
   -1.0890   -0.5581   -0.0000 O   0  0  0  0  0  1  0  0  0  0  0  0
    1.0890   -0.6079    0.0000 O   0  0  0  0  0  0  0  0  0  0  0  0
   -0.1278   -0.9356    3.4882 C   0  0  0  0  0  0  0  0  0  0  0  0
   -0.4264   -1.8894    3.5793 H   0  0  0  0  0  0  0  0  0  0  0  0
   -0.4503   -0.5776    2.6076 H   0  0  0  0  0  0  0  0  0  0  0  0
   -0.6043   -0.3577    4.2800 H   0  0  0  0  0  0  0  0  0  0  0  0
    1.3886   -0.9169    3.4755 C   0  0  0  0  0  0  0  0  0  0  0  0
    1.7189    0.0204    3.3616 H   0  0  0  0  0  0  0  0  0  0  0  0
    1.7425   -1.2931    4.3317 H   0  0  0  0  0  0  0  0  0  0  0  0
    1.9945   -1.7593    2.3214 C   0  0  0  0  0  0  0  0  0  0  0  0
    1.5927   -1.4222    1.4648 H   0  0  0  0  0  0  0  0  0  0  0  0
    2.9824   -1.5779    2.3091 H   0  0  0  0  0  0  0  0  0  0  0  0
    1.8261   -2.8333    2.4012 H   0  0  0  0  0  0  0  0  0  0  0  0
  1  5  1  0
  5  6  1  0
  5  7  2  0
  1  2  1  0
  1  3  1  0
  1  4  1  0
  8 12  1  0
 12 15  1  0
  8  9  1  0
  8 10  1  0
  8 11  1  0
 12 13  1  0
 12 14  1  0
 15 16  1  0
 15 17  1  0
 15 18  1  0
M  CHG  1   6  -1
M  END
>  <PDB_ID>  (1832) 
pdb6flo

>  <RESIDUE_NAME>  (1832) 
GLU   ARG

>  <FRAG_NAME>  (1832) 
ACET   PRPA

>  <FRAG_ATOM_NUM>  (1832) 
fragi: 7  fragj: 11

>  <atom.prop.CHAIN_ID>  (1832) 
A A A A A A A Z Z Z Z Z Z Z Z Z Z Z

>  <atom.prop.IS_HEAVY_ATOM>  (1832) 
1 0 0 0 1 1 1 1 0 0 0 1 0 0 1 0 0 0

>  <DIFUSE_FUNC_ATOM>  (1832) 
atom 6   atom 7   

>  <FINAL_SINGLE_POINT_ENERGY>  (1832) 
0

>  <NONCOV_INTER_ENERGY_QM>  (1832) 
0

>  <FF_Energy>  (1832) 
39.04

>  <QM_Energy>  (1832) 
-0.21

>  <source>  (1832) 
ACET_PRPA_23

>  <Index>  (1832) 
30522

$$$$
ACET-pdb6fmg-A-GLU-61:PRPA-pdb6fmg-A-LYS-88
     RDKit          3D

 18 16  0  0  0  0  0  0  0  0999 V2000
    0.0220    1.5119   -0.0410 C   0  0  0  0  0  0  0  0  0  0  0  0
    0.4317    1.7793   -0.8789 H   0  0  0  0  0  0  0  0  0  0  0  0
    0.5655    1.8194    0.7021 H   0  0  0  0  0  0  0  0  0  0  0  0
   -0.9625    1.9744    0.0297 H   0  0  0  0  0  0  0  0  0  0  0  0
    0.0000    0.0000    0.0000 C   0  0  0  0  0  0  0  0  0  0  0  0
   -1.0891   -0.6057   -0.0000 O   0  0  0  0  0  1  0  0  0  0  0  0
    1.0891   -0.6135    0.0000 O   0  0  0  0  0  0  0  0  0  0  0  0
   -0.6895    0.0881   -3.4280 C   0  0  0  0  0  0  0  0  0  0  0  0
   -0.5666    0.6474   -2.6089 H   0  0  0  0  0  0  0  0  0  0  0  0
   -1.3750   -0.6175   -3.2491 H   0  0  0  0  0  0  0  0  0  0  0  0
   -1.0626    0.7300   -4.2260 H   0  0  0  0  0  0  0  0  0  0  0  0
    0.6341   -0.5998   -3.7385 C   0  0  0  0  0  0  0  0  0  0  0  0
    0.5201   -1.1681   -4.5550 H   0  0  0  0  0  0  0  0  0  0  0  0
    1.3298    0.0967   -3.9141 H   0  0  0  0  0  0  0  0  0  0  0  0
    1.0918   -1.4772   -2.5865 C   0  0  0  0  0  0  0  0  0  0  0  0
    1.2018   -0.9059   -1.7730 H   0  0  0  0  0  0  0  0  0  0  0  0
    0.3930   -2.1718   -2.4141 H   0  0  0  0  0  0  0  0  0  0  0  0
    2.0378   -1.9779   -2.7923 H   0  0  0  0  0  0  0  0  0  0  0  0
  1  5  1  0
  5  6  1  0
  5  7  2  0
  1  2  1  0
  1  3  1  0
  1  4  1  0
  8 12  1  0
 12 15  1  0
  8  9  1  0
  8 10  1  0
  8 11  1  0
 12 13  1  0
 12 14  1  0
 15 16  1  0
 15 17  1  0
 15 18  1  0
M  CHG  1   6  -1
M  END
>  <PDB_ID>  (1833) 
pdb6fmg

>  <RESIDUE_NAME>  (1833) 
GLU   LYS

>  <FRAG_NAME>  (1833) 
ACET   PRPA

>  <FRAG_ATOM_NUM>  (1833) 
fragi: 7  fragj: 11

>  <atom.prop.CHAIN_ID>  (1833) 
A A A A A A A Z Z Z Z Z Z Z Z Z Z Z

>  <atom.prop.IS_HEAVY_ATOM>  (1833) 
1 0 0 0 1 1 1 1 0 0 0 1 0 0 1 0 0 0

>  <DIFUSE_FUNC_ATOM>  (1833) 
atom 6   atom 7   

>  <FINAL_SINGLE_POINT_ENERGY>  (1833) 
0

>  <NONCOV_INTER_ENERGY_QM>  (1833) 
0

>  <FF_Energy>  (1833) 
31.14

>  <QM_Energy>  (1833) 
1.75

>  <source>  (1833) 
ACET_PRPA_23

>  <Index>  (1833) 
30894

$$$$
ACET-pdb6fmg-A-GLU-61:PRPA-pdb6fmg-A-LYS-88
     RDKit          3D

 18 16  0  0  0  0  0  0  0  0999 V2000
    0.0220    1.5119   -0.0410 C   0  0  0  0  0  0  0  0  0  0  0  0
    0.4317    1.7793   -0.8789 H   0  0  0  0  0  0  0  0  0  0  0  0
    0.5655    1.8194    0.7021 H   0  0  0  0  0  0  0  0  0  0  0  0
   -0.9625    1.9744    0.0297 H   0  0  0  0  0  0  0  0  0  0  0  0
    0.0000    0.0000    0.0000 C   0  0  0  0  0  0  0  0  0  0  0  0
   -1.0891   -0.6057   -0.0000 O   0  0  0  0  0  1  0  0  0  0  0  0
    1.0891   -0.6135    0.0000 O   0  0  0  0  0  0  0  0  0  0  0  0
    0.6341   -0.5998   -3.7385 C   0  0  0  0  0  0  0  0  0  0  0  0
    0.5201   -1.1681   -4.5550 H   0  0  0  0  0  0  0  0  0  0  0  0
    1.3298    0.0967   -3.9141 H   0  0  0  0  0  0  0  0  0  0  0  0
   -0.3128   -0.1077   -3.5164 H   0  0  0  0  0  0  0  0  0  0  0  0
    1.0918   -1.4772   -2.5865 C   0  0  0  0  0  0  0  0  0  0  0  0
    1.2018   -0.9059   -1.7730 H   0  0  0  0  0  0  0  0  0  0  0  0
    0.3930   -2.1718   -2.4141 H   0  0  0  0  0  0  0  0  0  0  0  0
    2.4036   -2.1716   -2.8720 C   0  0  0  0  0  0  0  0  0  0  0  0
    2.3017   -2.7480   -3.6826 H   0  0  0  0  0  0  0  0  0  0  0  0
    3.1095   -1.4831   -3.0412 H   0  0  0  0  0  0  0  0  0  0  0  0
    2.7036   -2.7909   -2.0267 H   0  0  0  0  0  0  0  0  0  0  0  0
  1  5  1  0
  5  6  1  0
  5  7  2  0
  1  2  1  0
  1  3  1  0
  1  4  1  0
  8 12  1  0
 12 15  1  0
  8  9  1  0
  8 10  1  0
  8 11  1  0
 12 13  1  0
 12 14  1  0
 15 16  1  0
 15 17  1  0
 15 18  1  0
M  CHG  1   6  -1
M  END
>  <PDB_ID>  (1834) 
pdb6fmg

>  <RESIDUE_NAME>  (1834) 
GLU   LYS

>  <FRAG_NAME>  (1834) 
ACET   PRPA

>  <FRAG_ATOM_NUM>  (1834) 
fragi: 7  fragj: 11

>  <atom.prop.CHAIN_ID>  (1834) 
A A A A A A A Z Z Z Z Z Z Z Z Z Z Z

>  <atom.prop.IS_HEAVY_ATOM>  (1834) 
1 0 0 0 1 1 1 1 0 0 0 1 0 0 1 0 0 0

>  <DIFUSE_FUNC_ATOM>  (1834) 
atom 6   atom 7   

>  <FINAL_SINGLE_POINT_ENERGY>  (1834) 
0

>  <NONCOV_INTER_ENERGY_QM>  (1834) 
0

>  <FF_Energy>  (1834) 
34.99

>  <QM_Energy>  (1834) 
1.71

>  <source>  (1834) 
ACET_PRPA_23

>  <Index>  (1834) 
30902

$$$$
ACET-pdb5fax-A-GLU-162:PRPA-pdb5fax-A-PRO-132
     RDKit          3D

 18 16  0  0  0  0  0  0  0  0999 V2000
   -0.0101    1.5101   -0.0574 C   0  0  0  0  0  0  0  0  0  0  0  0
   -0.3638    1.7768   -0.9392 H   0  0  0  0  0  0  0  0  0  0  0  0
    0.9178    1.8233    0.0710 H   0  0  0  0  0  0  0  0  0  0  0  0
   -0.6307    1.9775    0.7070 H   0  0  0  0  0  0  0  0  0  0  0  0
    0.0000    0.0000    0.0000 C   0  0  0  0  0  0  0  0  0  0  0  0
   -1.1022   -0.5812   -0.0000 O   0  0  0  0  0  1  0  0  0  0  0  0
    1.1022   -0.6057    0.0000 O   0  0  0  0  0  0  0  0  0  0  0  0
   -1.8248   -2.5278   -1.2827 C   0  0  0  0  0  0  0  0  0  0  0  0
   -2.0843   -1.7306   -1.8268 H   0  0  0  0  0  0  0  0  0  0  0  0
   -1.2123   -2.2469   -0.5459 H   0  0  0  0  0  0  0  0  0  0  0  0
   -2.7028   -3.0428   -0.8929 H   0  0  0  0  0  0  0  0  0  0  0  0
   -1.1426   -3.5660   -2.1661 C   0  0  0  0  0  0  0  0  0  0  0  0
   -1.5807   -3.5859   -3.0605 H   0  0  0  0  0  0  0  0  0  0  0  0
   -0.1771   -3.3409   -2.2637 H   0  0  0  0  0  0  0  0  0  0  0  0
   -1.3403   -4.8468   -1.4242 C   0  0  0  0  0  0  0  0  0  0  0  0
   -1.4013   -5.6322   -2.0475 H   0  0  0  0  0  0  0  0  0  0  0  0
   -0.5983   -5.0147   -0.7669 H   0  0  0  0  0  0  0  0  0  0  0  0
   -2.2852   -4.7073   -0.8991 H   0  0  0  0  0  0  0  0  0  0  0  0
  1  5  1  0
  5  6  1  0
  5  7  2  0
  1  2  1  0
  1  3  1  0
  1  4  1  0
  8 12  1  0
 12 15  1  0
  8  9  1  0
  8 10  1  0
  8 11  1  0
 12 13  1  0
 12 14  1  0
 15 16  1  0
 15 17  1  0
 15 18  1  0
M  CHG  1   6  -1
M  END
>  <PDB_ID>  (1835) 
pdb5fax

>  <RESIDUE_NAME>  (1835) 
GLU   PRO

>  <FRAG_NAME>  (1835) 
ACET   PRPA

>  <FRAG_ATOM_NUM>  (1835) 
fragi: 7  fragj: 11

>  <atom.prop.CHAIN_ID>  (1835) 
A A A A A A A Z Z Z Z Z Z Z Z Z Z Z

>  <atom.prop.IS_HEAVY_ATOM>  (1835) 
1 0 0 0 1 1 1 1 0 0 0 1 0 0 1 0 0 0

>  <DIFUSE_FUNC_ATOM>  (1835) 
atom 6   atom 7   

>  <FINAL_SINGLE_POINT_ENERGY>  (1835) 
0

>  <NONCOV_INTER_ENERGY_QM>  (1835) 
0

>  <FF_Energy>  (1835) 
49.64

>  <QM_Energy>  (1835) 
8.71

>  <source>  (1835) 
ACET_PRPA_23

>  <Index>  (1835) 
31377

$$$$
ACET-pdb5flg-A-GLU-255:PRPA-pdb5flg-A-LYS-158
     RDKit          3D

 18 16  0  0  0  0  0  0  0  0999 V2000
    0.0045    1.5160    0.0180 C   0  0  0  0  0  0  0  0  0  0  0  0
    0.9136    1.8119   -0.2247 H   0  0  0  0  0  0  0  0  0  0  0  0
   -0.2410    1.8016    0.9294 H   0  0  0  0  0  0  0  0  0  0  0  0
   -0.7008    1.9593   -0.6851 H   0  0  0  0  0  0  0  0  0  0  0  0
    0.0000    0.0000    0.0000 C   0  0  0  0  0  0  0  0  0  0  0  0
   -1.0948   -0.5997   -0.0000 O   0  0  0  0  0  1  0  0  0  0  0  0
    1.0948   -0.5825    0.0000 O   0  0  0  0  0  0  0  0  0  0  0  0
   -3.7039   -2.1588   -2.2799 C   0  0  0  0  0  0  0  0  0  0  0  0
   -3.7680   -1.3098   -1.7410 H   0  0  0  0  0  0  0  0  0  0  0  0
   -3.6859   -2.9378   -1.6413 H   0  0  0  0  0  0  0  0  0  0  0  0
   -4.5763   -2.2422   -2.9281 H   0  0  0  0  0  0  0  0  0  0  0  0
   -2.3945   -2.1395   -3.0541 C   0  0  0  0  0  0  0  0  0  0  0  0
   -2.4207   -2.8384   -3.7487 H   0  0  0  0  0  0  0  0  0  0  0  0
   -2.2605   -1.2430   -3.4403 H   0  0  0  0  0  0  0  0  0  0  0  0
   -1.2417   -2.4385   -2.1042 C   0  0  0  0  0  0  0  0  0  0  0  0
   -1.2321   -1.7397   -1.3762 H   0  0  0  0  0  0  0  0  0  0  0  0
   -1.4012   -3.3363   -1.6731 H   0  0  0  0  0  0  0  0  0  0  0  0
   -0.2704   -2.4498   -2.5986 H   0  0  0  0  0  0  0  0  0  0  0  0
  1  5  1  0
  5  6  1  0
  5  7  2  0
  1  2  1  0
  1  3  1  0
  1  4  1  0
  8 12  1  0
 12 15  1  0
  8  9  1  0
  8 10  1  0
  8 11  1  0
 12 13  1  0
 12 14  1  0
 15 16  1  0
 15 17  1  0
 15 18  1  0
M  CHG  1   6  -1
M  END
>  <PDB_ID>  (1836) 
pdb5flg

>  <RESIDUE_NAME>  (1836) 
GLU   LYS

>  <FRAG_NAME>  (1836) 
ACET   PRPA

>  <FRAG_ATOM_NUM>  (1836) 
fragi: 7  fragj: 11

>  <atom.prop.CHAIN_ID>  (1836) 
A A A A A A A Z Z Z Z Z Z Z Z Z Z Z

>  <atom.prop.IS_HEAVY_ATOM>  (1836) 
1 0 0 0 1 1 1 1 0 0 0 1 0 0 1 0 0 0

>  <DIFUSE_FUNC_ATOM>  (1836) 
atom 6   atom 7   

>  <FINAL_SINGLE_POINT_ENERGY>  (1836) 
0

>  <NONCOV_INTER_ENERGY_QM>  (1836) 
0

>  <FF_Energy>  (1836) 
29.03

>  <QM_Energy>  (1836) 
-0.03

>  <source>  (1836) 
ACET_PRPA_23

>  <Index>  (1836) 
32417

$$$$
ACET-pdb5fmr-A-ASP-233:PRPA-pdb5fmr-A-LYS-32
     RDKit          3D

 18 16  0  0  0  0  0  0  0  0999 V2000
   -0.0268    1.5275    0.0192 C   0  0  0  0  0  0  0  0  0  0  0  0
    0.7917    1.8617   -0.4250 H   0  0  0  0  0  0  0  0  0  0  0  0
   -0.0734    1.8291    0.9589 H   0  0  0  0  0  0  0  0  0  0  0  0
   -0.8913    1.9254   -0.5124 H   0  0  0  0  0  0  0  0  0  0  0  0
    0.0000    0.0000    0.0000 C   0  0  0  0  0  0  0  0  0  0  0  0
   -1.0920   -0.5952    0.0000 O   0  0  0  0  0  1  0  0  0  0  0  0
    1.0920   -0.6101    0.0000 O   0  0  0  0  0  0  0  0  0  0  0  0
   -1.1485   -4.2785    0.8358 C   0  0  0  0  0  0  0  0  0  0  0  0
   -1.1444   -5.2811    0.9388 H   0  0  0  0  0  0  0  0  0  0  0  0
   -1.0952   -4.0320   -0.2246 H   0  0  0  0  0  0  0  0  0  0  0  0
   -2.0610   -3.8875    1.2859 H   0  0  0  0  0  0  0  0  0  0  0  0
    0.0891   -3.7491    1.5794 C   0  0  0  0  0  0  0  0  0  0  0  0
   -0.2045   -2.9998    2.1715 H   0  0  0  0  0  0  0  0  0  0  0  0
    0.4550   -4.4937    2.1377 H   0  0  0  0  0  0  0  0  0  0  0  0
    1.1986   -3.2387    0.6725 C   0  0  0  0  0  0  0  0  0  0  0  0
    1.5009   -3.9840    0.0764 H   0  0  0  0  0  0  0  0  0  0  0  0
    0.8427   -2.4904    0.1114 H   0  0  0  0  0  0  0  0  0  0  0  0
    2.0511   -2.8766    1.2472 H   0  0  0  0  0  0  0  0  0  0  0  0
  1  5  1  0
  5  6  1  0
  5  7  2  0
  1  2  1  0
  1  3  1  0
  1  4  1  0
  8 12  1  0
 12 15  1  0
  8  9  1  0
  8 10  1  0
  8 11  1  0
 12 13  1  0
 12 14  1  0
 15 16  1  0
 15 17  1  0
 15 18  1  0
M  CHG  1   6  -1
M  END
>  <PDB_ID>  (1837) 
pdb5fmr

>  <RESIDUE_NAME>  (1837) 
ASP   LYS

>  <FRAG_NAME>  (1837) 
ACET   PRPA

>  <FRAG_ATOM_NUM>  (1837) 
fragi: 7  fragj: 11

>  <atom.prop.CHAIN_ID>  (1837) 
A A A A A A A Z Z Z Z Z Z Z Z Z Z Z

>  <atom.prop.IS_HEAVY_ATOM>  (1837) 
1 0 0 0 1 1 1 1 0 0 0 1 0 0 1 0 0 0

>  <DIFUSE_FUNC_ATOM>  (1837) 
atom 6   atom 7   

>  <FINAL_SINGLE_POINT_ENERGY>  (1837) 
0

>  <NONCOV_INTER_ENERGY_QM>  (1837) 
0

>  <FF_Energy>  (1837) 
16.39

>  <QM_Energy>  (1837) 
0.7

>  <source>  (1837) 
ACET_PRPA_23

>  <Index>  (1837) 
33414

$$$$
ACET-pdb5fmr-A-ASP-233:PRPA-pdb5fmr-A-LYS-32
     RDKit          3D

 18 16  0  0  0  0  0  0  0  0999 V2000
   -0.0268    1.5275    0.0192 C   0  0  0  0  0  0  0  0  0  0  0  0
    0.7917    1.8617   -0.4250 H   0  0  0  0  0  0  0  0  0  0  0  0
   -0.0734    1.8291    0.9589 H   0  0  0  0  0  0  0  0  0  0  0  0
   -0.8913    1.9254   -0.5124 H   0  0  0  0  0  0  0  0  0  0  0  0
    0.0000    0.0000    0.0000 C   0  0  0  0  0  0  0  0  0  0  0  0
   -1.0920   -0.5952    0.0000 O   0  0  0  0  0  1  0  0  0  0  0  0
    1.0920   -0.6101    0.0000 O   0  0  0  0  0  0  0  0  0  0  0  0
    0.0891   -3.7491    1.5794 C   0  0  0  0  0  0  0  0  0  0  0  0
   -0.2045   -2.9998    2.1715 H   0  0  0  0  0  0  0  0  0  0  0  0
    0.4550   -4.4937    2.1377 H   0  0  0  0  0  0  0  0  0  0  0  0
   -0.7881   -4.1243    1.0524 H   0  0  0  0  0  0  0  0  0  0  0  0
    1.1986   -3.2387    0.6725 C   0  0  0  0  0  0  0  0  0  0  0  0
    1.5009   -3.9840    0.0764 H   0  0  0  0  0  0  0  0  0  0  0  0
    0.8427   -2.4904    0.1114 H   0  0  0  0  0  0  0  0  0  0  0  0
    2.3861   -2.7344    1.4728 C   0  0  0  0  0  0  0  0  0  0  0  0
    2.0799   -1.9910    2.0676 H   0  0  0  0  0  0  0  0  0  0  0  0
    2.7390   -3.4843    2.0325 H   0  0  0  0  0  0  0  0  0  0  0  0
    3.1914   -2.3635    0.8388 H   0  0  0  0  0  0  0  0  0  0  0  0
  1  5  1  0
  5  6  1  0
  5  7  2  0
  1  2  1  0
  1  3  1  0
  1  4  1  0
  8 12  1  0
 12 15  1  0
  8  9  1  0
  8 10  1  0
  8 11  1  0
 12 13  1  0
 12 14  1  0
 15 16  1  0
 15 17  1  0
 15 18  1  0
M  CHG  1   6  -1
M  END
>  <PDB_ID>  (1838) 
pdb5fmr

>  <RESIDUE_NAME>  (1838) 
ASP   LYS

>  <FRAG_NAME>  (1838) 
ACET   PRPA

>  <FRAG_ATOM_NUM>  (1838) 
fragi: 7  fragj: 11

>  <atom.prop.CHAIN_ID>  (1838) 
A A A A A A A Z Z Z Z Z Z Z Z Z Z Z

>  <atom.prop.IS_HEAVY_ATOM>  (1838) 
1 0 0 0 1 1 1 1 0 0 0 1 0 0 1 0 0 0

>  <DIFUSE_FUNC_ATOM>  (1838) 
atom 6   atom 7   

>  <FINAL_SINGLE_POINT_ENERGY>  (1838) 
0

>  <NONCOV_INTER_ENERGY_QM>  (1838) 
0

>  <FF_Energy>  (1838) 
19.94

>  <QM_Energy>  (1838) 
-0.26

>  <source>  (1838) 
ACET_PRPA_23

>  <Index>  (1838) 
33417

$$$$
ACET-pdb5fmr-A-ASP-233:PRPA-pdb5fmr-A-LYS-32
     RDKit          3D

 18 16  0  0  0  0  0  0  0  0999 V2000
   -0.0268    1.5275    0.0192 C   0  0  0  0  0  0  0  0  0  0  0  0
    0.7917    1.8617   -0.4250 H   0  0  0  0  0  0  0  0  0  0  0  0
   -0.0734    1.8291    0.9589 H   0  0  0  0  0  0  0  0  0  0  0  0
   -0.8913    1.9254   -0.5124 H   0  0  0  0  0  0  0  0  0  0  0  0
    0.0000    0.0000    0.0000 C   0  0  0  0  0  0  0  0  0  0  0  0
   -1.0920   -0.5952    0.0000 O   0  0  0  0  0  1  0  0  0  0  0  0
    1.0920   -0.6101    0.0000 O   0  0  0  0  0  0  0  0  0  0  0  0
    1.1986   -3.2387    0.6725 C   0  0  0  0  0  0  0  0  0  0  0  0
    1.5009   -3.9840    0.0764 H   0  0  0  0  0  0  0  0  0  0  0  0
    0.8427   -2.4904    0.1114 H   0  0  0  0  0  0  0  0  0  0  0  0
    0.4036   -3.6044    1.3223 H   0  0  0  0  0  0  0  0  0  0  0  0
    2.3861   -2.7344    1.4728 C   0  0  0  0  0  0  0  0  0  0  0  0
    2.0799   -1.9910    2.0676 H   0  0  0  0  0  0  0  0  0  0  0  0
    2.7390   -3.4843    2.0325 H   0  0  0  0  0  0  0  0  0  0  0  0
    3.5037   -2.2197    0.5930 C   0  0  0  0  0  0  0  0  0  0  0  0
    3.8190   -2.9590   -0.0027 H   0  0  0  0  0  0  0  0  0  0  0  0
    3.1599   -1.4656    0.0324 H   0  0  0  0  0  0  0  0  0  0  0  0
    4.3386   -1.8664    1.1981 H   0  0  0  0  0  0  0  0  0  0  0  0
  1  5  1  0
  5  6  1  0
  5  7  2  0
  1  2  1  0
  1  3  1  0
  1  4  1  0
  8 12  1  0
 12 15  1  0
  8  9  1  0
  8 10  1  0
  8 11  1  0
 12 13  1  0
 12 14  1  0
 15 16  1  0
 15 17  1  0
 15 18  1  0
M  CHG  1   6  -1
M  END
>  <PDB_ID>  (1839) 
pdb5fmr

>  <RESIDUE_NAME>  (1839) 
ASP   LYS

>  <FRAG_NAME>  (1839) 
ACET   PRPA

>  <FRAG_ATOM_NUM>  (1839) 
fragi: 7  fragj: 11

>  <atom.prop.CHAIN_ID>  (1839) 
A A A A A A A Z Z Z Z Z Z Z Z Z Z Z

>  <atom.prop.IS_HEAVY_ATOM>  (1839) 
1 0 0 0 1 1 1 1 0 0 0 1 0 0 1 0 0 0

>  <DIFUSE_FUNC_ATOM>  (1839) 
atom 6   atom 7   

>  <FINAL_SINGLE_POINT_ENERGY>  (1839) 
0

>  <NONCOV_INTER_ENERGY_QM>  (1839) 
0

>  <FF_Energy>  (1839) 
20.41

>  <QM_Energy>  (1839) 
-0.58

>  <source>  (1839) 
ACET_PRPA_23

>  <Index>  (1839) 
33420

$$$$
ACET-pdb5foe-A-ASP-120:PRPA-pdb5foe-A-ILE-116
     RDKit          3D

 18 16  0  0  0  0  0  0  0  0999 V2000
    0.0417    1.5123   -0.0229 C   0  0  0  0  0  0  0  0  0  0  0  0
    0.8837    1.8017   -0.4722 H   0  0  0  0  0  0  0  0  0  0  0  0
    0.0261    1.8465    0.9159 H   0  0  0  0  0  0  0  0  0  0  0  0
   -0.7976    1.9584   -0.5565 H   0  0  0  0  0  0  0  0  0  0  0  0
    0.0000    0.0000    0.0000 C   0  0  0  0  0  0  0  0  0  0  0  0
   -1.1046   -0.5878    0.0000 O   0  0  0  0  0  1  0  0  0  0  0  0
    1.1046   -0.6063   -0.0000 O   0  0  0  0  0  0  0  0  0  0  0  0
    5.0708    1.1244   -0.5094 C   0  0  0  0  0  0  0  0  0  0  0  0
    4.9006    0.3155    0.0671 H   0  0  0  0  0  0  0  0  0  0  0  0
    6.1496    1.2794   -0.5019 H   0  0  0  0  0  0  0  0  0  0  0  0
    4.6957    0.8809   -1.5035 H   0  0  0  0  0  0  0  0  0  0  0  0
    4.3829    2.4208   -0.0510 C   0  0  0  0  0  0  0  0  0  0  0  0
    4.5927    3.1293   -0.7126 H   0  0  0  0  0  0  0  0  0  0  0  0
    4.7831    2.7280    0.9151 H   0  0  0  0  0  0  0  0  0  0  0  0
    2.8912    2.2613    0.0520 C   0  0  0  0  0  0  0  0  0  0  0  0
    2.4713    3.1300    0.3210 H   0  0  0  0  0  0  0  0  0  0  0  0
    2.5145    1.9787   -0.8326 H   0  0  0  0  0  0  0  0  0  0  0  0
    2.6677    1.5658    0.7374 H   0  0  0  0  0  0  0  0  0  0  0  0
  1  5  1  0
  5  6  1  0
  5  7  2  0
  1  2  1  0
  1  3  1  0
  1  4  1  0
  8 12  1  0
 12 15  1  0
  8  9  1  0
  8 10  1  0
  8 11  1  0
 12 13  1  0
 12 14  1  0
 15 16  1  0
 15 17  1  0
 15 18  1  0
M  CHG  1   6  -1
M  END
>  <PDB_ID>  (1840) 
pdb5foe

>  <RESIDUE_NAME>  (1840) 
ASP   ILE

>  <FRAG_NAME>  (1840) 
ACET   PRPA

>  <FRAG_ATOM_NUM>  (1840) 
fragi: 7  fragj: 11

>  <atom.prop.CHAIN_ID>  (1840) 
A A A A A A A Z Z Z Z Z Z Z Z Z Z Z

>  <atom.prop.IS_HEAVY_ATOM>  (1840) 
1 0 0 0 1 1 1 1 0 0 0 1 0 0 1 0 0 0

>  <DIFUSE_FUNC_ATOM>  (1840) 
atom 6   atom 7   

>  <FINAL_SINGLE_POINT_ENERGY>  (1840) 
0

>  <NONCOV_INTER_ENERGY_QM>  (1840) 
0

>  <FF_Energy>  (1840) 
18.85

>  <QM_Energy>  (1840) 
3.46

>  <source>  (1840) 
ACET_PRPA_23

>  <Index>  (1840) 
35566

$$$$
ACET-pdb5f75-B-ASP-257:PRPA-pdb5f75-B-ARG-253
     RDKit          3D

 18 16  0  0  0  0  0  0  0  0999 V2000
    0.0094    1.5290   -0.0093 C   0  0  0  0  0  0  0  0  0  0  0  0
    0.8544    1.8367   -0.4314 H   0  0  0  0  0  0  0  0  0  0  0  0
   -0.0497    1.8515    0.9270 H   0  0  0  0  0  0  0  0  0  0  0  0
   -0.8223    1.9593   -0.5672 H   0  0  0  0  0  0  0  0  0  0  0  0
    0.0000    0.0000    0.0000 C   0  0  0  0  0  0  0  0  0  0  0  0
   -1.0829   -0.6133    0.0000 O   0  0  0  0  0  1  0  0  0  0  0  0
    1.0829   -0.6057    0.0000 O   0  0  0  0  0  0  0  0  0  0  0  0
    2.8354   -1.1122   -1.9352 C   0  0  0  0  0  0  0  0  0  0  0  0
    3.6275   -0.6442   -1.5361 H   0  0  0  0  0  0  0  0  0  0  0  0
    2.0099   -0.8407   -1.4343 H   0  0  0  0  0  0  0  0  0  0  0  0
    2.7289   -0.7713   -2.9651 H   0  0  0  0  0  0  0  0  0  0  0  0
    3.0326   -2.6256   -1.7259 C   0  0  0  0  0  0  0  0  0  0  0  0
    3.8641   -2.9137   -2.2118 H   0  0  0  0  0  0  0  0  0  0  0  0
    3.1566   -2.8029   -0.7442 H   0  0  0  0  0  0  0  0  0  0  0  0
    1.8721   -3.4780   -2.2193 C   0  0  0  0  0  0  0  0  0  0  0  0
    1.8238   -3.3876   -3.2078 H   0  0  0  0  0  0  0  0  0  0  0  0
    2.0547   -4.4214   -1.9639 H   0  0  0  0  0  0  0  0  0  0  0  0
    0.9303   -3.1550   -1.7757 H   0  0  0  0  0  0  0  0  0  0  0  0
  1  5  1  0
  5  6  1  0
  5  7  2  0
  1  2  1  0
  1  3  1  0
  1  4  1  0
  8 12  1  0
 12 15  1  0
  8  9  1  0
  8 10  1  0
  8 11  1  0
 12 13  1  0
 12 14  1  0
 15 16  1  0
 15 17  1  0
 15 18  1  0
M  CHG  1   6  -1
M  END
>  <PDB_ID>  (1841) 
pdb5f75

>  <RESIDUE_NAME>  (1841) 
ASP   ARG

>  <FRAG_NAME>  (1841) 
ACET   PRPA

>  <FRAG_ATOM_NUM>  (1841) 
fragi: 7  fragj: 11

>  <atom.prop.CHAIN_ID>  (1841) 
A A A A A A A Z Z Z Z Z Z Z Z Z Z Z

>  <atom.prop.IS_HEAVY_ATOM>  (1841) 
1 0 0 0 1 1 1 1 0 0 0 1 0 0 1 0 0 0

>  <DIFUSE_FUNC_ATOM>  (1841) 
atom 6   atom 7   

>  <FINAL_SINGLE_POINT_ENERGY>  (1841) 
0

>  <NONCOV_INTER_ENERGY_QM>  (1841) 
0

>  <FF_Energy>  (1841) 
48.97

>  <QM_Energy>  (1841) 
2.23

>  <source>  (1841) 
ACET_PRPA_23

>  <Index>  (1841) 
38113

$$$$
ACET-pdb5gjh-A-ASP-152:PRPA-pdb5gjh-A-ARG-148
     RDKit          3D

 18 16  0  0  0  0  0  0  0  0999 V2000
    0.0423    1.5403   -0.0281 C   0  0  0  0  0  0  0  0  0  0  0  0
    0.4606    1.8208   -0.8857 H   0  0  0  0  0  0  0  0  0  0  0  0
    0.5916    1.8465    0.7416 H   0  0  0  0  0  0  0  0  0  0  0  0
   -0.9424    2.0020    0.0437 H   0  0  0  0  0  0  0  0  0  0  0  0
    0.0000    0.0000    0.0000 C   0  0  0  0  0  0  0  0  0  0  0  0
   -1.0905   -0.6032    0.0000 O   0  0  0  0  0  1  0  0  0  0  0  0
    1.0905   -0.6058   -0.0000 O   0  0  0  0  0  0  0  0  0  0  0  0
    3.6583   -0.0686    2.5428 C   0  0  0  0  0  0  0  0  0  0  0  0
    4.0324    0.0885    1.6264 H   0  0  0  0  0  0  0  0  0  0  0  0
    4.3829   -0.6385    3.1245 H   0  0  0  0  0  0  0  0  0  0  0  0
    3.4949    0.8891    3.0370 H   0  0  0  0  0  0  0  0  0  0  0  0
    2.3641   -0.8330    2.3427 C   0  0  0  0  0  0  0  0  0  0  0  0
    1.7741   -0.2827    1.7417 H   0  0  0  0  0  0  0  0  0  0  0  0
    2.5862   -1.6929    1.8682 H   0  0  0  0  0  0  0  0  0  0  0  0
    1.6223   -1.1497    3.5802 C   0  0  0  0  0  0  0  0  0  0  0  0
    2.2055   -1.6183    4.2323 H   0  0  0  0  0  0  0  0  0  0  0  0
    1.2357   -0.3288    3.9809 H   0  0  0  0  0  0  0  0  0  0  0  0
    0.7938   -1.8176    3.3444 H   0  0  0  0  0  0  0  0  0  0  0  0
  1  5  1  0
  5  6  1  0
  5  7  2  0
  1  2  1  0
  1  3  1  0
  1  4  1  0
  8 12  1  0
 12 15  1  0
  8  9  1  0
  8 10  1  0
  8 11  1  0
 12 13  1  0
 12 14  1  0
 15 16  1  0
 15 17  1  0
 15 18  1  0
M  CHG  1   6  -1
M  END
>  <PDB_ID>  (1842) 
pdb5gjh

>  <RESIDUE_NAME>  (1842) 
ASP   ARG

>  <FRAG_NAME>  (1842) 
ACET   PRPA

>  <FRAG_ATOM_NUM>  (1842) 
fragi: 7  fragj: 11

>  <atom.prop.CHAIN_ID>  (1842) 
A A A A A A A Z Z Z Z Z Z Z Z Z Z Z

>  <atom.prop.IS_HEAVY_ATOM>  (1842) 
1 0 0 0 1 1 1 1 0 0 0 1 0 0 1 0 0 0

>  <DIFUSE_FUNC_ATOM>  (1842) 
atom 6   atom 7   

>  <FINAL_SINGLE_POINT_ENERGY>  (1842) 
0

>  <NONCOV_INTER_ENERGY_QM>  (1842) 
0

>  <FF_Energy>  (1842) 
18.37

>  <QM_Energy>  (1842) 
1.77

>  <source>  (1842) 
ACET_PRPA_23

>  <Index>  (1842) 
38776

$$$$
ACET-pdb6git-A-GLU-497:PRPA-pdb6git-A-PRO-2
     RDKit          3D

 18 16  0  0  0  0  0  0  0  0999 V2000
   -0.0102    1.5225   -0.0144 C   0  0  0  0  0  0  0  0  0  0  0  0
    0.6593    1.8142   -0.6652 H   0  0  0  0  0  0  0  0  0  0  0  0
    0.1823    1.8254    0.8955 H   0  0  0  0  0  0  0  0  0  0  0  0
   -0.9807    1.9174   -0.3149 H   0  0  0  0  0  0  0  0  0  0  0  0
    0.0000    0.0000    0.0000 C   0  0  0  0  0  0  0  0  0  0  0  0
   -1.0992   -0.6013    0.0000 O   0  0  0  0  0  1  0  0  0  0  0  0
    1.0992   -0.5946    0.0000 O   0  0  0  0  0  0  0  0  0  0  0  0
    2.5036    1.9108    3.5849 C   0  0  0  0  0  0  0  0  0  0  0  0
    2.7935    2.4386    2.7732 H   0  0  0  0  0  0  0  0  0  0  0  0
    3.1752    1.0696    3.7563 H   0  0  0  0  0  0  0  0  0  0  0  0
    2.4328    2.5571    4.4598 H   0  0  0  0  0  0  0  0  0  0  0  0
    1.1578    1.2323    3.3232 C   0  0  0  0  0  0  0  0  0  0  0  0
    0.6423    1.1326    4.1788 H   0  0  0  0  0  0  0  0  0  0  0  0
    0.6124    1.7713    2.6763 H   0  0  0  0  0  0  0  0  0  0  0  0
    1.5185   -0.0875    2.7555 C   0  0  0  0  0  0  0  0  0  0  0  0
    0.7877   -0.7633    2.9281 H   0  0  0  0  0  0  0  0  0  0  0  0
    1.6498   -0.0229    1.7557 H   0  0  0  0  0  0  0  0  0  0  0  0
    2.4441   -0.3891    3.2460 H   0  0  0  0  0  0  0  0  0  0  0  0
  1  5  1  0
  5  6  1  0
  5  7  2  0
  1  2  1  0
  1  3  1  0
  1  4  1  0
  8 12  1  0
 12 15  1  0
  8  9  1  0
  8 10  1  0
  8 11  1  0
 12 13  1  0
 12 14  1  0
 15 16  1  0
 15 17  1  0
 15 18  1  0
M  CHG  1   6  -1
M  END
>  <PDB_ID>  (1843) 
pdb6git

>  <RESIDUE_NAME>  (1843) 
GLU   PRO

>  <FRAG_NAME>  (1843) 
ACET   PRPA

>  <FRAG_ATOM_NUM>  (1843) 
fragi: 7  fragj: 11

>  <atom.prop.CHAIN_ID>  (1843) 
A A A A A A A Z Z Z Z Z Z Z Z Z Z Z

>  <atom.prop.IS_HEAVY_ATOM>  (1843) 
1 0 0 0 1 1 1 1 0 0 0 1 0 0 1 0 0 0

>  <DIFUSE_FUNC_ATOM>  (1843) 
atom 6   atom 7   

>  <FINAL_SINGLE_POINT_ENERGY>  (1843) 
0

>  <NONCOV_INTER_ENERGY_QM>  (1843) 
0

>  <FF_Energy>  (1843) 
16.25

>  <QM_Energy>  (1843) 
0.74

>  <source>  (1843) 
ACET_PRPA_24

>  <Index>  (1843) 
482

$$$$
ACET-pdb6git-A-GLU-497:PRPA-pdb6git-A-PRO-2
     RDKit          3D

 18 16  0  0  0  0  0  0  0  0999 V2000
   -0.0102    1.5225   -0.0144 C   0  0  0  0  0  0  0  0  0  0  0  0
    0.6593    1.8142   -0.6652 H   0  0  0  0  0  0  0  0  0  0  0  0
    0.1823    1.8254    0.8955 H   0  0  0  0  0  0  0  0  0  0  0  0
   -0.9807    1.9174   -0.3149 H   0  0  0  0  0  0  0  0  0  0  0  0
    0.0000    0.0000    0.0000 C   0  0  0  0  0  0  0  0  0  0  0  0
   -1.0992   -0.6013    0.0000 O   0  0  0  0  0  1  0  0  0  0  0  0
    1.0992   -0.5946    0.0000 O   0  0  0  0  0  0  0  0  0  0  0  0
    1.1578    1.2323    3.3232 C   0  0  0  0  0  0  0  0  0  0  0  0
    0.6423    1.1326    4.1788 H   0  0  0  0  0  0  0  0  0  0  0  0
    0.6124    1.7713    2.6763 H   0  0  0  0  0  0  0  0  0  0  0  0
    2.1168    1.7157    3.5096 H   0  0  0  0  0  0  0  0  0  0  0  0
    1.5185   -0.0875    2.7555 C   0  0  0  0  0  0  0  0  0  0  0  0
    0.7877   -0.7633    2.9281 H   0  0  0  0  0  0  0  0  0  0  0  0
    1.6498   -0.0229    1.7557 H   0  0  0  0  0  0  0  0  0  0  0  0
    2.7939   -0.5031    3.4315 C   0  0  0  0  0  0  0  0  0  0  0  0
    2.6155   -1.0627    4.2410 H   0  0  0  0  0  0  0  0  0  0  0  0
    3.3944   -1.0062    2.8071 H   0  0  0  0  0  0  0  0  0  0  0  0
    3.2473    0.4465    3.7156 H   0  0  0  0  0  0  0  0  0  0  0  0
  1  5  1  0
  5  6  1  0
  5  7  2  0
  1  2  1  0
  1  3  1  0
  1  4  1  0
  8 12  1  0
 12 15  1  0
  8  9  1  0
  8 10  1  0
  8 11  1  0
 12 13  1  0
 12 14  1  0
 15 16  1  0
 15 17  1  0
 15 18  1  0
M  CHG  1   6  -1
M  END
>  <PDB_ID>  (1844) 
pdb6git

>  <RESIDUE_NAME>  (1844) 
GLU   PRO

>  <FRAG_NAME>  (1844) 
ACET   PRPA

>  <FRAG_ATOM_NUM>  (1844) 
fragi: 7  fragj: 11

>  <atom.prop.CHAIN_ID>  (1844) 
A A A A A A A Z Z Z Z Z Z Z Z Z Z Z

>  <atom.prop.IS_HEAVY_ATOM>  (1844) 
1 0 0 0 1 1 1 1 0 0 0 1 0 0 1 0 0 0

>  <DIFUSE_FUNC_ATOM>  (1844) 
atom 6   atom 7   

>  <FINAL_SINGLE_POINT_ENERGY>  (1844) 
0

>  <NONCOV_INTER_ENERGY_QM>  (1844) 
0

>  <FF_Energy>  (1844) 
17.63

>  <QM_Energy>  (1844) 
0.73

>  <source>  (1844) 
ACET_PRPA_24

>  <Index>  (1844) 
486

$$$$
ACET-pdb6f8z-C-ASP-693:PRPA-pdb6f8z-C-LYS-728
     RDKit          3D

 18 16  0  0  0  0  0  0  0  0999 V2000
    0.0246    1.5363    0.0173 C   0  0  0  0  0  0  0  0  0  0  0  0
    0.8289    1.8440   -0.4762 H   0  0  0  0  0  0  0  0  0  0  0  0
    0.0552    1.8405    0.9612 H   0  0  0  0  0  0  0  0  0  0  0  0
   -0.8483    1.9895   -0.4524 H   0  0  0  0  0  0  0  0  0  0  0  0
    0.0000    0.0000    0.0000 C   0  0  0  0  0  0  0  0  0  0  0  0
   -1.1002   -0.6003   -0.0000 O   0  0  0  0  0  1  0  0  0  0  0  0
    1.1002   -0.6038    0.0000 O   0  0  0  0  0  0  0  0  0  0  0  0
   -3.9808   -0.3153    1.5910 C   0  0  0  0  0  0  0  0  0  0  0  0
   -3.7859    0.3619    0.8546 H   0  0  0  0  0  0  0  0  0  0  0  0
   -3.1136   -0.3637    2.2496 H   0  0  0  0  0  0  0  0  0  0  0  0
   -4.9097   -0.0290    2.0841 H   0  0  0  0  0  0  0  0  0  0  0  0
   -4.1684   -1.6423    0.8350 C   0  0  0  0  0  0  0  0  0  0  0  0
   -4.3120   -2.3635    1.5096 H   0  0  0  0  0  0  0  0  0  0  0  0
   -4.9798   -1.5558    0.2578 H   0  0  0  0  0  0  0  0  0  0  0  0
   -2.9904   -2.0336   -0.0458 C   0  0  0  0  0  0  0  0  0  0  0  0
   -2.8413   -1.3175   -0.7278 H   0  0  0  0  0  0  0  0  0  0  0  0
   -2.1743   -2.1263    0.5245 H   0  0  0  0  0  0  0  0  0  0  0  0
   -3.1727   -2.9776   -0.5594 H   0  0  0  0  0  0  0  0  0  0  0  0
  1  5  1  0
  5  6  1  0
  5  7  2  0
  1  2  1  0
  1  3  1  0
  1  4  1  0
  8 12  1  0
 12 15  1  0
  8  9  1  0
  8 10  1  0
  8 11  1  0
 12 13  1  0
 12 14  1  0
 15 16  1  0
 15 17  1  0
 15 18  1  0
M  CHG  1   6  -1
M  END
>  <PDB_ID>  (1845) 
pdb6f8z

>  <RESIDUE_NAME>  (1845) 
ASP   LYS

>  <FRAG_NAME>  (1845) 
ACET   PRPA

>  <FRAG_ATOM_NUM>  (1845) 
fragi: 7  fragj: 11

>  <atom.prop.CHAIN_ID>  (1845) 
A A A A A A A Z Z Z Z Z Z Z Z Z Z Z

>  <atom.prop.IS_HEAVY_ATOM>  (1845) 
1 0 0 0 1 1 1 1 0 0 0 1 0 0 1 0 0 0

>  <DIFUSE_FUNC_ATOM>  (1845) 
atom 6   atom 7   

>  <FINAL_SINGLE_POINT_ENERGY>  (1845) 
0

>  <NONCOV_INTER_ENERGY_QM>  (1845) 
0

>  <FF_Energy>  (1845) 
36.15

>  <QM_Energy>  (1845) 
8.65

>  <source>  (1845) 
ACET_PRPA_24

>  <Index>  (1845) 
5760

$$$$
ACET-pdb6f8z-C-ASP-693:PRPA-pdb6f8z-C-LYS-728
     RDKit          3D

 18 16  0  0  0  0  0  0  0  0999 V2000
    0.0246    1.5363    0.0173 C   0  0  0  0  0  0  0  0  0  0  0  0
    0.8289    1.8440   -0.4762 H   0  0  0  0  0  0  0  0  0  0  0  0
    0.0552    1.8405    0.9612 H   0  0  0  0  0  0  0  0  0  0  0  0
   -0.8483    1.9895   -0.4524 H   0  0  0  0  0  0  0  0  0  0  0  0
    0.0000    0.0000    0.0000 C   0  0  0  0  0  0  0  0  0  0  0  0
   -1.1002   -0.6003   -0.0000 O   0  0  0  0  0  1  0  0  0  0  0  0
    1.1002   -0.6038    0.0000 O   0  0  0  0  0  0  0  0  0  0  0  0
   -4.1684   -1.6423    0.8350 C   0  0  0  0  0  0  0  0  0  0  0  0
   -4.3120   -2.3635    1.5096 H   0  0  0  0  0  0  0  0  0  0  0  0
   -4.9798   -1.5558    0.2578 H   0  0  0  0  0  0  0  0  0  0  0  0
   -4.0355   -0.7023    1.3706 H   0  0  0  0  0  0  0  0  0  0  0  0
   -2.9904   -2.0336   -0.0458 C   0  0  0  0  0  0  0  0  0  0  0  0
   -2.8413   -1.3175   -0.7278 H   0  0  0  0  0  0  0  0  0  0  0  0
   -2.1743   -2.1263    0.5245 H   0  0  0  0  0  0  0  0  0  0  0  0
   -3.2445   -3.3493   -0.7617 C   0  0  0  0  0  0  0  0  0  0  0  0
   -3.3955   -4.0637   -0.0766 H   0  0  0  0  0  0  0  0  0  0  0  0
   -4.0616   -3.2546   -1.3287 H   0  0  0  0  0  0  0  0  0  0  0  0
   -2.4106   -3.6467   -1.3975 H   0  0  0  0  0  0  0  0  0  0  0  0
  1  5  1  0
  5  6  1  0
  5  7  2  0
  1  2  1  0
  1  3  1  0
  1  4  1  0
  8 12  1  0
 12 15  1  0
  8  9  1  0
  8 10  1  0
  8 11  1  0
 12 13  1  0
 12 14  1  0
 15 16  1  0
 15 17  1  0
 15 18  1  0
M  CHG  1   6  -1
M  END
>  <PDB_ID>  (1846) 
pdb6f8z

>  <RESIDUE_NAME>  (1846) 
ASP   LYS

>  <FRAG_NAME>  (1846) 
ACET   PRPA

>  <FRAG_ATOM_NUM>  (1846) 
fragi: 7  fragj: 11

>  <atom.prop.CHAIN_ID>  (1846) 
A A A A A A A Z Z Z Z Z Z Z Z Z Z Z

>  <atom.prop.IS_HEAVY_ATOM>  (1846) 
1 0 0 0 1 1 1 1 0 0 0 1 0 0 1 0 0 0

>  <DIFUSE_FUNC_ATOM>  (1846) 
atom 6   atom 7   

>  <FINAL_SINGLE_POINT_ENERGY>  (1846) 
0

>  <NONCOV_INTER_ENERGY_QM>  (1846) 
0

>  <FF_Energy>  (1846) 
33.71

>  <QM_Energy>  (1846) 
9.22

>  <source>  (1846) 
ACET_PRPA_24

>  <Index>  (1846) 
5775

$$$$
ACET-pdb6f8z-C-ASP-693:PRPA-pdb6f8z-C-LYS-728
     RDKit          3D

 18 16  0  0  0  0  0  0  0  0999 V2000
    0.0246    1.5363    0.0173 C   0  0  0  0  0  0  0  0  0  0  0  0
    0.8289    1.8440   -0.4762 H   0  0  0  0  0  0  0  0  0  0  0  0
    0.0552    1.8405    0.9612 H   0  0  0  0  0  0  0  0  0  0  0  0
   -0.8483    1.9895   -0.4524 H   0  0  0  0  0  0  0  0  0  0  0  0
    0.0000    0.0000    0.0000 C   0  0  0  0  0  0  0  0  0  0  0  0
   -1.1002   -0.6003   -0.0000 O   0  0  0  0  0  1  0  0  0  0  0  0
    1.1002   -0.6038    0.0000 O   0  0  0  0  0  0  0  0  0  0  0  0
   -2.9904   -2.0336   -0.0458 C   0  0  0  0  0  0  0  0  0  0  0  0
   -2.8413   -1.3175   -0.7278 H   0  0  0  0  0  0  0  0  0  0  0  0
   -2.1743   -2.1263    0.5245 H   0  0  0  0  0  0  0  0  0  0  0  0
   -3.8340   -1.7534    0.5850 H   0  0  0  0  0  0  0  0  0  0  0  0
   -3.2445   -3.3493   -0.7617 C   0  0  0  0  0  0  0  0  0  0  0  0
   -3.3955   -4.0637   -0.0766 H   0  0  0  0  0  0  0  0  0  0  0  0
   -4.0616   -3.2546   -1.3287 H   0  0  0  0  0  0  0  0  0  0  0  0
   -2.0874   -3.7620   -1.6439 C   0  0  0  0  0  0  0  0  0  0  0  0
   -1.9326   -3.0552   -2.3341 H   0  0  0  0  0  0  0  0  0  0  0  0
   -1.2656   -3.8641   -1.0818 H   0  0  0  0  0  0  0  0  0  0  0  0
   -2.3014   -4.7083   -2.1406 H   0  0  0  0  0  0  0  0  0  0  0  0
  1  5  1  0
  5  6  1  0
  5  7  2  0
  1  2  1  0
  1  3  1  0
  1  4  1  0
  8 12  1  0
 12 15  1  0
  8  9  1  0
  8 10  1  0
  8 11  1  0
 12 13  1  0
 12 14  1  0
 15 16  1  0
 15 17  1  0
 15 18  1  0
M  CHG  1   6  -1
M  END
>  <PDB_ID>  (1847) 
pdb6f8z

>  <RESIDUE_NAME>  (1847) 
ASP   LYS

>  <FRAG_NAME>  (1847) 
ACET   PRPA

>  <FRAG_ATOM_NUM>  (1847) 
fragi: 7  fragj: 11

>  <atom.prop.CHAIN_ID>  (1847) 
A A A A A A A Z Z Z Z Z Z Z Z Z Z Z

>  <atom.prop.IS_HEAVY_ATOM>  (1847) 
1 0 0 0 1 1 1 1 0 0 0 1 0 0 1 0 0 0

>  <DIFUSE_FUNC_ATOM>  (1847) 
atom 6   atom 7   

>  <FINAL_SINGLE_POINT_ENERGY>  (1847) 
0

>  <NONCOV_INTER_ENERGY_QM>  (1847) 
0

>  <FF_Energy>  (1847) 
35.84

>  <QM_Energy>  (1847) 
9.23

>  <source>  (1847) 
ACET_PRPA_24

>  <Index>  (1847) 
5788

$$$$
ACET-pdb5gwz-A-ASP-186:PRPA-pdb5gwz-A-ARG-40
     RDKit          3D

 18 16  0  0  0  0  0  0  0  0999 V2000
    0.0077    1.4578    0.0286 C   0  0  0  0  0  0  0  0  0  0  0  0
    0.6163    1.8132   -0.6826 H   0  0  0  0  0  0  0  0  0  0  0  0
    0.3204    1.7834    0.9223 H   0  0  0  0  0  0  0  0  0  0  0  0
   -0.9769    1.8919   -0.1455 H   0  0  0  0  0  0  0  0  0  0  0  0
    0.0000    0.0000    0.0000 C   0  0  0  0  0  0  0  0  0  0  0  0
   -1.0735   -0.5901    0.0000 O   0  0  0  0  0  1  0  0  0  0  0  0
    1.0735   -0.5855   -0.0000 O   0  0  0  0  0  0  0  0  0  0  0  0
    3.1045   -4.6801    1.2212 C   0  0  0  0  0  0  0  0  0  0  0  0
    3.6721   -4.7373    2.0307 H   0  0  0  0  0  0  0  0  0  0  0  0
    3.6533   -4.7301    0.3989 H   0  0  0  0  0  0  0  0  0  0  0  0
    2.4204   -5.5288    1.2254 H   0  0  0  0  0  0  0  0  0  0  0  0
    2.3853   -3.3461    1.2347 C   0  0  0  0  0  0  0  0  0  0  0  0
    1.5881   -3.3903    0.6186 H   0  0  0  0  0  0  0  0  0  0  0  0
    2.0495   -3.1581    2.1670 H   0  0  0  0  0  0  0  0  0  0  0  0
    3.2442   -2.1719    0.8039 C   0  0  0  0  0  0  0  0  0  0  0  0
    3.6227   -2.3877   -0.1162 H   0  0  0  0  0  0  0  0  0  0  0  0
    2.6290   -1.3691    0.6848 H   0  0  0  0  0  0  0  0  0  0  0  0
    4.0646   -1.8927    1.4650 H   0  0  0  0  0  0  0  0  0  0  0  0
  1  5  1  0
  5  6  1  0
  5  7  2  0
  1  2  1  0
  1  3  1  0
  1  4  1  0
  8 12  1  0
 12 15  1  0
  8  9  1  0
  8 10  1  0
  8 11  1  0
 12 13  1  0
 12 14  1  0
 15 16  1  0
 15 17  1  0
 15 18  1  0
M  CHG  1   6  -1
M  END
>  <PDB_ID>  (1848) 
pdb5gwz

>  <RESIDUE_NAME>  (1848) 
ASP   ARG

>  <FRAG_NAME>  (1848) 
ACET   PRPA

>  <FRAG_ATOM_NUM>  (1848) 
fragi: 7  fragj: 11

>  <atom.prop.CHAIN_ID>  (1848) 
A A A A A A A Z Z Z Z Z Z Z Z Z Z Z

>  <atom.prop.IS_HEAVY_ATOM>  (1848) 
1 0 0 0 1 1 1 1 0 0 0 1 0 0 1 0 0 0

>  <DIFUSE_FUNC_ATOM>  (1848) 
atom 6   atom 7   

>  <FINAL_SINGLE_POINT_ENERGY>  (1848) 
0

>  <NONCOV_INTER_ENERGY_QM>  (1848) 
0

>  <FF_Energy>  (1848) 
16.5

>  <QM_Energy>  (1848) 
-1.99

>  <source>  (1848) 
ACET_PRPA_24

>  <Index>  (1848) 
8821

$$$$
ACET-pdb5fqd-B-ASP-255:PRPA-pdb5fqd-B-LYS-258
     RDKit          3D

 18 16  0  0  0  0  0  0  0  0999 V2000
   -0.0002    1.5128    0.1054 C   0  0  0  0  0  0  0  0  0  0  0  0
   -0.7604    1.8685   -0.4204 H   0  0  0  0  0  0  0  0  0  0  0  0
    0.8616    1.8571   -0.2394 H   0  0  0  0  0  0  0  0  0  0  0  0
   -0.1132    1.8498    1.1357 H   0  0  0  0  0  0  0  0  0  0  0  0
    0.0000    0.0000    0.0000 C   0  0  0  0  0  0  0  0  0  0  0  0
   -1.1053   -0.5947    0.0000 O   0  0  0  0  0  1  0  0  0  0  0  0
    1.1053   -0.5994   -0.0000 O   0  0  0  0  0  0  0  0  0  0  0  0
   -1.9577    1.0525    3.7707 C   0  0  0  0  0  0  0  0  0  0  0  0
   -2.3391    1.9030    4.0850 H   0  0  0  0  0  0  0  0  0  0  0  0
   -1.0229    1.1458    3.4828 H   0  0  0  0  0  0  0  0  0  0  0  0
   -2.0280    0.3046    4.5604 H   0  0  0  0  0  0  0  0  0  0  0  0
   -2.7879    0.5435    2.5997 C   0  0  0  0  0  0  0  0  0  0  0  0
   -2.4897   -0.3929    2.3831 H   0  0  0  0  0  0  0  0  0  0  0  0
   -3.7524    0.5139    2.8824 H   0  0  0  0  0  0  0  0  0  0  0  0
   -2.6709    1.3878    1.3588 C   0  0  0  0  0  0  0  0  0  0  0  0
   -2.9751    2.3191    1.5620 H   0  0  0  0  0  0  0  0  0  0  0  0
   -1.7166    1.4087    1.0593 H   0  0  0  0  0  0  0  0  0  0  0  0
   -3.2864    0.9800    0.5569 H   0  0  0  0  0  0  0  0  0  0  0  0
  1  5  1  0
  5  6  1  0
  5  7  2  0
  1  2  1  0
  1  3  1  0
  1  4  1  0
  8 12  1  0
 12 15  1  0
  8  9  1  0
  8 10  1  0
  8 11  1  0
 12 13  1  0
 12 14  1  0
 15 16  1  0
 15 17  1  0
 15 18  1  0
M  CHG  1   6  -1
M  END
>  <PDB_ID>  (1849) 
pdb5fqd

>  <RESIDUE_NAME>  (1849) 
ASP   LYS

>  <FRAG_NAME>  (1849) 
ACET   PRPA

>  <FRAG_ATOM_NUM>  (1849) 
fragi: 7  fragj: 11

>  <atom.prop.CHAIN_ID>  (1849) 
A A A A A A A Z Z Z Z Z Z Z Z Z Z Z

>  <atom.prop.IS_HEAVY_ATOM>  (1849) 
1 0 0 0 1 1 1 1 0 0 0 1 0 0 1 0 0 0

>  <DIFUSE_FUNC_ATOM>  (1849) 
atom 6   atom 7   

>  <FINAL_SINGLE_POINT_ENERGY>  (1849) 
0

>  <NONCOV_INTER_ENERGY_QM>  (1849) 
0

>  <FF_Energy>  (1849) 
41.36

>  <QM_Energy>  (1849) 
6.59

>  <source>  (1849) 
ACET_PRPA_24

>  <Index>  (1849) 
10643

$$$$
ACET-pdb5ggf-B-ASP-556:PRPA-pdb5ggf-B-LYS-559
     RDKit          3D

 18 16  0  0  0  0  0  0  0  0999 V2000
    0.0078    1.4948   -0.0561 C   0  0  0  0  0  0  0  0  0  0  0  0
    0.2817    1.7878   -0.9691 H   0  0  0  0  0  0  0  0  0  0  0  0
    0.6504    1.8453    0.6200 H   0  0  0  0  0  0  0  0  0  0  0  0
   -0.9683    1.9321    0.1538 H   0  0  0  0  0  0  0  0  0  0  0  0
    0.0000    0.0000    0.0000 C   0  0  0  0  0  0  0  0  0  0  0  0
   -1.0983   -0.5891    0.0000 O   0  0  0  0  0  1  0  0  0  0  0  0
    1.0983   -0.5919   -0.0000 O   0  0  0  0  0  0  0  0  0  0  0  0
    0.9720   -1.4955    4.2019 C   0  0  0  0  0  0  0  0  0  0  0  0
    1.4262   -2.3766    4.3518 H   0  0  0  0  0  0  0  0  0  0  0  0
    0.1142   -1.6438    3.5460 H   0  0  0  0  0  0  0  0  0  0  0  0
    0.6320   -1.1078    5.1623 H   0  0  0  0  0  0  0  0  0  0  0  0
    1.9685   -0.5320    3.5616 C   0  0  0  0  0  0  0  0  0  0  0  0
    1.5068    0.3457    3.4160 H   0  0  0  0  0  0  0  0  0  0  0  0
    2.7302   -0.3995    4.2003 H   0  0  0  0  0  0  0  0  0  0  0  0
    2.5417   -0.9936    2.2283 C   0  0  0  0  0  0  0  0  0  0  0  0
    3.0122   -1.8678    2.3627 H   0  0  0  0  0  0  0  0  0  0  0  0
    1.7889   -1.1225    1.5785 H   0  0  0  0  0  0  0  0  0  0  0  0
    3.2462   -0.2711    1.8163 H   0  0  0  0  0  0  0  0  0  0  0  0
  1  5  1  0
  5  6  1  0
  5  7  2  0
  1  2  1  0
  1  3  1  0
  1  4  1  0
  8 12  1  0
 12 15  1  0
  8  9  1  0
  8 10  1  0
  8 11  1  0
 12 13  1  0
 12 14  1  0
 15 16  1  0
 15 17  1  0
 15 18  1  0
M  CHG  1   6  -1
M  END
>  <PDB_ID>  (1850) 
pdb5ggf

>  <RESIDUE_NAME>  (1850) 
ASP   LYS

>  <FRAG_NAME>  (1850) 
ACET   PRPA

>  <FRAG_ATOM_NUM>  (1850) 
fragi: 7  fragj: 11

>  <atom.prop.CHAIN_ID>  (1850) 
A A A A A A A Z Z Z Z Z Z Z Z Z Z Z

>  <atom.prop.IS_HEAVY_ATOM>  (1850) 
1 0 0 0 1 1 1 1 0 0 0 1 0 0 1 0 0 0

>  <DIFUSE_FUNC_ATOM>  (1850) 
atom 6   atom 7   

>  <FINAL_SINGLE_POINT_ENERGY>  (1850) 
0

>  <NONCOV_INTER_ENERGY_QM>  (1850) 
0

>  <FF_Energy>  (1850) 
28.31

>  <QM_Energy>  (1850) 
2.04

>  <source>  (1850) 
ACET_PRPA_24

>  <Index>  (1850) 
10650

$$$$
ACET-pdb5ggf-B-ASP-556:PRPA-pdb5ggf-B-LYS-559
     RDKit          3D

 18 16  0  0  0  0  0  0  0  0999 V2000
    0.0078    1.4948   -0.0561 C   0  0  0  0  0  0  0  0  0  0  0  0
    0.2817    1.7878   -0.9691 H   0  0  0  0  0  0  0  0  0  0  0  0
    0.6504    1.8453    0.6200 H   0  0  0  0  0  0  0  0  0  0  0  0
   -0.9683    1.9321    0.1538 H   0  0  0  0  0  0  0  0  0  0  0  0
    0.0000    0.0000    0.0000 C   0  0  0  0  0  0  0  0  0  0  0  0
   -1.0983   -0.5891    0.0000 O   0  0  0  0  0  1  0  0  0  0  0  0
    1.0983   -0.5919   -0.0000 O   0  0  0  0  0  0  0  0  0  0  0  0
    1.9685   -0.5320    3.5616 C   0  0  0  0  0  0  0  0  0  0  0  0
    1.5068    0.3457    3.4160 H   0  0  0  0  0  0  0  0  0  0  0  0
    2.7302   -0.3995    4.2003 H   0  0  0  0  0  0  0  0  0  0  0  0
    1.2572   -1.2198    4.0188 H   0  0  0  0  0  0  0  0  0  0  0  0
    2.5417   -0.9936    2.2283 C   0  0  0  0  0  0  0  0  0  0  0  0
    3.0122   -1.8678    2.3627 H   0  0  0  0  0  0  0  0  0  0  0  0
    1.7889   -1.1225    1.5785 H   0  0  0  0  0  0  0  0  0  0  0  0
    3.5216    0.0114    1.6552 C   0  0  0  0  0  0  0  0  0  0  0  0
    3.0475    0.8841    1.5241 H   0  0  0  0  0  0  0  0  0  0  0  0
    4.2709    0.1375    2.3082 H   0  0  0  0  0  0  0  0  0  0  0  0
    3.9402   -0.3047    0.6997 H   0  0  0  0  0  0  0  0  0  0  0  0
  1  5  1  0
  5  6  1  0
  5  7  2  0
  1  2  1  0
  1  3  1  0
  1  4  1  0
  8 12  1  0
 12 15  1  0
  8  9  1  0
  8 10  1  0
  8 11  1  0
 12 13  1  0
 12 14  1  0
 15 16  1  0
 15 17  1  0
 15 18  1  0
M  CHG  1   6  -1
M  END
>  <PDB_ID>  (1851) 
pdb5ggf

>  <RESIDUE_NAME>  (1851) 
ASP   LYS

>  <FRAG_NAME>  (1851) 
ACET   PRPA

>  <FRAG_ATOM_NUM>  (1851) 
fragi: 7  fragj: 11

>  <atom.prop.CHAIN_ID>  (1851) 
A A A A A A A Z Z Z Z Z Z Z Z Z Z Z

>  <atom.prop.IS_HEAVY_ATOM>  (1851) 
1 0 0 0 1 1 1 1 0 0 0 1 0 0 1 0 0 0

>  <DIFUSE_FUNC_ATOM>  (1851) 
atom 6   atom 7   

>  <FINAL_SINGLE_POINT_ENERGY>  (1851) 
0

>  <NONCOV_INTER_ENERGY_QM>  (1851) 
0

>  <FF_Energy>  (1851) 
33.57

>  <QM_Energy>  (1851) 
1.08

>  <source>  (1851) 
ACET_PRPA_24

>  <Index>  (1851) 
10655

$$$$
ACET-pdb6ggy-A-GLU-571:PRPA-pdb6ggy-A-LEU-612
     RDKit          3D

 18 16  0  0  0  0  0  0  0  0999 V2000
    0.1903    1.4889    0.0120 C   0  0  0  0  0  0  0  0  0  0  0  0
    0.7068    1.7359   -0.8052 H   0  0  0  0  0  0  0  0  0  0  0  0
    0.7178    1.7200    0.8276 H   0  0  0  0  0  0  0  0  0  0  0  0
   -0.7205    2.0875    0.0234 H   0  0  0  0  0  0  0  0  0  0  0  0
    0.0000    0.0000    0.0000 C   0  0  0  0  0  0  0  0  0  0  0  0
   -1.0889   -0.5504    0.0000 O   0  0  0  0  0  1  0  0  0  0  0  0
    1.0889   -0.6132   -0.0000 O   0  0  0  0  0  0  0  0  0  0  0  0
    0.0290    3.2977   -3.7262 C   0  0  0  0  0  0  0  0  0  0  0  0
    0.2278    3.2353   -4.7053 H   0  0  0  0  0  0  0  0  0  0  0  0
   -0.8021    2.7775   -3.5232 H   0  0  0  0  0  0  0  0  0  0  0  0
   -0.1127    4.2575   -3.4781 H   0  0  0  0  0  0  0  0  0  0  0  0
    1.1914    2.7317   -2.9322 C   0  0  0  0  0  0  0  0  0  0  0  0
    0.9896    2.7931   -1.9521 H   0  0  0  0  0  0  0  0  0  0  0  0
    2.1109    3.2809   -3.1347 H   0  0  0  0  0  0  0  0  0  0  0  0
    1.3570    1.2486   -3.2281 C   0  0  0  0  0  0  0  0  0  0  0  0
    2.0850    0.8718   -2.6542 H   0  0  0  0  0  0  0  0  0  0  0  0
    0.4998    0.7709   -3.0339 H   0  0  0  0  0  0  0  0  0  0  0  0
    1.5958    1.1245   -4.1917 H   0  0  0  0  0  0  0  0  0  0  0  0
  1  5  1  0
  5  6  1  0
  5  7  2  0
  1  2  1  0
  1  3  1  0
  1  4  1  0
  8 12  1  0
 12 15  1  0
  8  9  1  0
  8 10  1  0
  8 11  1  0
 12 13  1  0
 12 14  1  0
 15 16  1  0
 15 17  1  0
 15 18  1  0
M  CHG  1   6  -1
M  END
>  <PDB_ID>  (1852) 
pdb6ggy

>  <RESIDUE_NAME>  (1852) 
GLU   LEU

>  <FRAG_NAME>  (1852) 
ACET   PRPA

>  <FRAG_ATOM_NUM>  (1852) 
fragi: 7  fragj: 11

>  <atom.prop.CHAIN_ID>  (1852) 
A A A A A A A Z Z Z Z Z Z Z Z Z Z Z

>  <atom.prop.IS_HEAVY_ATOM>  (1852) 
1 0 0 0 1 1 1 1 0 0 0 1 0 0 1 0 0 0

>  <DIFUSE_FUNC_ATOM>  (1852) 
atom 6   atom 7   

>  <FINAL_SINGLE_POINT_ENERGY>  (1852) 
0

>  <NONCOV_INTER_ENERGY_QM>  (1852) 
0

>  <FF_Energy>  (1852) 
16.92

>  <QM_Energy>  (1852) 
0.89

>  <source>  (1852) 
ACET_PRPA_24

>  <Index>  (1852) 
12220

$$$$
ACET-pdb6hol-A-GLU-12:PRPA-pdb6hol-A-LYS-16
     RDKit          3D

 18 16  0  0  0  0  0  0  0  0999 V2000
    0.0234    1.5009   -0.0361 C   0  0  0  0  0  0  0  0  0  0  0  0
    0.2219    1.7767   -0.9639 H   0  0  0  0  0  0  0  0  0  0  0  0
    0.7273    1.8064    0.5873 H   0  0  0  0  0  0  0  0  0  0  0  0
   -0.9201    1.9583    0.2616 H   0  0  0  0  0  0  0  0  0  0  0  0
    0.0000    0.0000    0.0000 C   0  0  0  0  0  0  0  0  0  0  0  0
   -1.1060   -0.5882    0.0000 O   0  0  0  0  0  1  0  0  0  0  0  0
    1.1060   -0.5885   -0.0000 O   0  0  0  0  0  0  0  0  0  0  0  0
    3.2212   -0.0032    2.7509 C   0  0  0  0  0  0  0  0  0  0  0  0
    3.6569   -0.8746    2.5520 H   0  0  0  0  0  0  0  0  0  0  0  0
    2.2387   -0.0689    2.6204 H   0  0  0  0  0  0  0  0  0  0  0  0
    3.4386    0.2916    3.7775 H   0  0  0  0  0  0  0  0  0  0  0  0
    3.7707    1.0452    1.7859 C   0  0  0  0  0  0  0  0  0  0  0  0
    3.3366    1.9187    1.9806 H   0  0  0  0  0  0  0  0  0  0  0  0
    4.7559    1.1129    1.9108 H   0  0  0  0  0  0  0  0  0  0  0  0
    3.4913    0.6799    0.3286 C   0  0  0  0  0  0  0  0  0  0  0  0
    3.9247   -0.1952    0.1298 H   0  0  0  0  0  0  0  0  0  0  0  0
    2.5068    0.6118    0.1983 H   0  0  0  0  0  0  0  0  0  0  0  0
    3.8956    1.4462   -0.3327 H   0  0  0  0  0  0  0  0  0  0  0  0
  1  5  1  0
  5  6  1  0
  5  7  2  0
  1  2  1  0
  1  3  1  0
  1  4  1  0
  8 12  1  0
 12 15  1  0
  8  9  1  0
  8 10  1  0
  8 11  1  0
 12 13  1  0
 12 14  1  0
 15 16  1  0
 15 17  1  0
 15 18  1  0
M  CHG  1   6  -1
M  END
>  <PDB_ID>  (1853) 
pdb6hol

>  <RESIDUE_NAME>  (1853) 
GLU   LYS

>  <FRAG_NAME>  (1853) 
ACET   PRPA

>  <FRAG_ATOM_NUM>  (1853) 
fragi: 7  fragj: 11

>  <atom.prop.CHAIN_ID>  (1853) 
A A A A A A A Z Z Z Z Z Z Z Z Z Z Z

>  <atom.prop.IS_HEAVY_ATOM>  (1853) 
1 0 0 0 1 1 1 1 0 0 0 1 0 0 1 0 0 0

>  <DIFUSE_FUNC_ATOM>  (1853) 
atom 6   atom 7   

>  <FINAL_SINGLE_POINT_ENERGY>  (1853) 
0

>  <NONCOV_INTER_ENERGY_QM>  (1853) 
0

>  <FF_Energy>  (1853) 
21.1

>  <QM_Energy>  (1853) 
1.52

>  <source>  (1853) 
ACET_PRPA_24

>  <Index>  (1853) 
14740

$$$$
ACET-pdb5hes-A-GLU-185:PRPA-pdb5hes-A-LYS-128
     RDKit          3D

 18 16  0  0  0  0  0  0  0  0999 V2000
    0.0255    1.5330    0.0787 C   0  0  0  0  0  0  0  0  0  0  0  0
    0.5686    1.8432   -0.6808 H   0  0  0  0  0  0  0  0  0  0  0  0
    0.4342    1.7607    0.9443 H   0  0  0  0  0  0  0  0  0  0  0  0
   -0.9714    1.9695    0.0174 H   0  0  0  0  0  0  0  0  0  0  0  0
    0.0000    0.0000    0.0000 C   0  0  0  0  0  0  0  0  0  0  0  0
   -1.0976   -0.6352    0.0000 O   0  0  0  0  0  1  0  0  0  0  0  0
    1.0976   -0.5636   -0.0000 O   0  0  0  0  0  0  0  0  0  0  0  0
    4.4375   -1.1018    2.8776 C   0  0  0  0  0  0  0  0  0  0  0  0
    3.9134   -0.9732    3.6985 H   0  0  0  0  0  0  0  0  0  0  0  0
    4.4853   -0.2876    2.3318 H   0  0  0  0  0  0  0  0  0  0  0  0
    5.4455   -1.4241    3.1387 H   0  0  0  0  0  0  0  0  0  0  0  0
    3.8120   -2.2173    2.0563 C   0  0  0  0  0  0  0  0  0  0  0  0
    4.5368   -2.8602    1.8073 H   0  0  0  0  0  0  0  0  0  0  0  0
    3.1356   -2.6806    2.6278 H   0  0  0  0  0  0  0  0  0  0  0  0
    3.1722   -1.6890    0.8501 C   0  0  0  0  0  0  0  0  0  0  0  0
    2.7650   -2.4778    0.3008 H   0  0  0  0  0  0  0  0  0  0  0  0
    2.3295   -1.1354    1.1202 H   0  0  0  0  0  0  0  0  0  0  0  0
    3.7512   -1.0784    0.1574 H   0  0  0  0  0  0  0  0  0  0  0  0
  1  5  1  0
  5  6  1  0
  5  7  2  0
  1  2  1  0
  1  3  1  0
  1  4  1  0
  8 12  1  0
 12 15  1  0
  8  9  1  0
  8 10  1  0
  8 11  1  0
 12 13  1  0
 12 14  1  0
 15 16  1  0
 15 17  1  0
 15 18  1  0
M  CHG  1   6  -1
M  END
>  <PDB_ID>  (1854) 
pdb5hes

>  <RESIDUE_NAME>  (1854) 
GLU   LYS

>  <FRAG_NAME>  (1854) 
ACET   PRPA

>  <FRAG_ATOM_NUM>  (1854) 
fragi: 7  fragj: 11

>  <atom.prop.CHAIN_ID>  (1854) 
A A A A A A A Z Z Z Z Z Z Z Z Z Z Z

>  <atom.prop.IS_HEAVY_ATOM>  (1854) 
1 0 0 0 1 1 1 1 0 0 0 1 0 0 1 0 0 0

>  <DIFUSE_FUNC_ATOM>  (1854) 
atom 6   atom 7   

>  <FINAL_SINGLE_POINT_ENERGY>  (1854) 
0

>  <NONCOV_INTER_ENERGY_QM>  (1854) 
0

>  <FF_Energy>  (1854) 
43.18

>  <QM_Energy>  (1854) 
6.61

>  <source>  (1854) 
ACET_PRPA_24

>  <Index>  (1854) 
18482

$$$$
ACET-pdb6hx3-A-GLU-48:PRPA-pdb6hx3-A-ILE-67
     RDKit          3D

 18 16  0  0  0  0  0  0  0  0999 V2000
    0.2209    1.5125    0.0143 C   0  0  0  0  0  0  0  0  0  0  0  0
    0.7298    1.7404   -0.8031 H   0  0  0  0  0  0  0  0  0  0  0  0
    0.7414    1.7232    0.8292 H   0  0  0  0  0  0  0  0  0  0  0  0
   -0.6935    2.1056    0.0263 H   0  0  0  0  0  0  0  0  0  0  0  0
    0.0000    0.0000    0.0000 C   0  0  0  0  0  0  0  0  0  0  0  0
   -1.0873   -0.5303   -0.0000 O   0  0  0  0  0  1  0  0  0  0  0  0
    1.0873   -0.6162   -0.0000 O   0  0  0  0  0  0  0  0  0  0  0  0
    2.0021    5.6038   -3.0355 C   0  0  0  0  0  0  0  0  0  0  0  0
    2.5745    5.9867   -3.7501 H   0  0  0  0  0  0  0  0  0  0  0  0
    1.9282    6.3633   -2.2572 H   0  0  0  0  0  0  0  0  0  0  0  0
    1.0065    5.4850   -3.4632 H   0  0  0  0  0  0  0  0  0  0  0  0
    2.4349    4.2508   -2.4436 C   0  0  0  0  0  0  0  0  0  0  0  0
    3.2659    4.3995   -1.9124 H   0  0  0  0  0  0  0  0  0  0  0  0
    2.6616    3.5305   -3.2297 H   0  0  0  0  0  0  0  0  0  0  0  0
    1.3337    3.7058   -1.5473 C   0  0  0  0  0  0  0  0  0  0  0  0
    1.6346    2.8487   -1.1322 H   0  0  0  0  0  0  0  0  0  0  0  0
    1.1292    4.3684   -0.8285 H   0  0  0  0  0  0  0  0  0  0  0  0
    0.5115    3.5412   -2.0909 H   0  0  0  0  0  0  0  0  0  0  0  0
  1  5  1  0
  5  6  1  0
  5  7  2  0
  1  2  1  0
  1  3  1  0
  1  4  1  0
  8 12  1  0
 12 15  1  0
  8  9  1  0
  8 10  1  0
  8 11  1  0
 12 13  1  0
 12 14  1  0
 15 16  1  0
 15 17  1  0
 15 18  1  0
M  CHG  1   6  -1
M  END
>  <PDB_ID>  (1855) 
pdb6hx3

>  <RESIDUE_NAME>  (1855) 
GLU   ILE

>  <FRAG_NAME>  (1855) 
ACET   PRPA

>  <FRAG_ATOM_NUM>  (1855) 
fragi: 7  fragj: 11

>  <atom.prop.CHAIN_ID>  (1855) 
A A A A A A A Z Z Z Z Z Z Z Z Z Z Z

>  <atom.prop.IS_HEAVY_ATOM>  (1855) 
1 0 0 0 1 1 1 1 0 0 0 1 0 0 1 0 0 0

>  <DIFUSE_FUNC_ATOM>  (1855) 
atom 6   atom 7   

>  <FINAL_SINGLE_POINT_ENERGY>  (1855) 
0

>  <NONCOV_INTER_ENERGY_QM>  (1855) 
0

>  <FF_Energy>  (1855) 
44.79

>  <QM_Energy>  (1855) 
8.62

>  <source>  (1855) 
ACET_PRPA_24

>  <Index>  (1855) 
20873

$$$$
ACET-pdb6hx3-A-GLU-48:PRPA-pdb6hx3-A-ILE-67
     RDKit          3D

 18 16  0  0  0  0  0  0  0  0999 V2000
    0.2209    1.5125    0.0143 C   0  0  0  0  0  0  0  0  0  0  0  0
    0.7298    1.7404   -0.8031 H   0  0  0  0  0  0  0  0  0  0  0  0
    0.7414    1.7232    0.8292 H   0  0  0  0  0  0  0  0  0  0  0  0
   -0.6935    2.1056    0.0263 H   0  0  0  0  0  0  0  0  0  0  0  0
    0.0000    0.0000    0.0000 C   0  0  0  0  0  0  0  0  0  0  0  0
   -1.0873   -0.5303   -0.0000 O   0  0  0  0  0  1  0  0  0  0  0  0
    1.0873   -0.6162   -0.0000 O   0  0  0  0  0  0  0  0  0  0  0  0
    2.7530    3.2398   -3.5470 C   0  0  0  0  0  0  0  0  0  0  0  0
    2.7298    2.3224   -3.1492 H   0  0  0  0  0  0  0  0  0  0  0  0
    2.0340    3.3004   -4.2416 H   0  0  0  0  0  0  0  0  0  0  0  0
    3.7188    3.3945   -4.0280 H   0  0  0  0  0  0  0  0  0  0  0  0
    2.4349    4.2508   -2.4436 C   0  0  0  0  0  0  0  0  0  0  0  0
    3.2659    4.3995   -1.9124 H   0  0  0  0  0  0  0  0  0  0  0  0
    2.1284    5.2091   -2.8629 H   0  0  0  0  0  0  0  0  0  0  0  0
    1.3337    3.7058   -1.5473 C   0  0  0  0  0  0  0  0  0  0  0  0
    1.6346    2.8487   -1.1322 H   0  0  0  0  0  0  0  0  0  0  0  0
    1.1292    4.3684   -0.8285 H   0  0  0  0  0  0  0  0  0  0  0  0
    0.5115    3.5412   -2.0909 H   0  0  0  0  0  0  0  0  0  0  0  0
  1  5  1  0
  5  6  1  0
  5  7  2  0
  1  2  1  0
  1  3  1  0
  1  4  1  0
  8 12  1  0
 12 15  1  0
  8  9  1  0
  8 10  1  0
  8 11  1  0
 12 13  1  0
 12 14  1  0
 15 16  1  0
 15 17  1  0
 15 18  1  0
M  CHG  1   6  -1
M  END
>  <PDB_ID>  (1856) 
pdb6hx3

>  <RESIDUE_NAME>  (1856) 
GLU   ILE

>  <FRAG_NAME>  (1856) 
ACET   PRPA

>  <FRAG_ATOM_NUM>  (1856) 
fragi: 7  fragj: 11

>  <atom.prop.CHAIN_ID>  (1856) 
A A A A A A A Z Z Z Z Z Z Z Z Z Z Z

>  <atom.prop.IS_HEAVY_ATOM>  (1856) 
1 0 0 0 1 1 1 1 0 0 0 1 0 0 1 0 0 0

>  <DIFUSE_FUNC_ATOM>  (1856) 
atom 6   atom 7   

>  <FINAL_SINGLE_POINT_ENERGY>  (1856) 
0

>  <NONCOV_INTER_ENERGY_QM>  (1856) 
0

>  <FF_Energy>  (1856) 
44.78

>  <QM_Energy>  (1856) 
8.28

>  <source>  (1856) 
ACET_PRPA_24

>  <Index>  (1856) 
20885

$$$$
ACET-pdb6hx3-A-ASP-264:PRPA-pdb6hx3-A-LYS-267
     RDKit          3D

 18 16  0  0  0  0  0  0  0  0999 V2000
   -0.0120    1.5226   -0.0072 C   0  0  0  0  0  0  0  0  0  0  0  0
   -0.4170    1.8403    0.8416 H   0  0  0  0  0  0  0  0  0  0  0  0
   -0.5434    1.8323   -0.7858 H   0  0  0  0  0  0  0  0  0  0  0  0
    0.9867    1.9520   -0.0864 H   0  0  0  0  0  0  0  0  0  0  0  0
    0.0000    0.0000    0.0000 C   0  0  0  0  0  0  0  0  0  0  0  0
   -1.1007   -0.6006    0.0000 O   0  0  0  0  0  1  0  0  0  0  0  0
    1.1007   -0.5967   -0.0000 O   0  0  0  0  0  0  0  0  0  0  0  0
   -1.3613   -1.1506   -3.4135 C   0  0  0  0  0  0  0  0  0  0  0  0
   -1.1076   -0.2195   -3.1524 H   0  0  0  0  0  0  0  0  0  0  0  0
   -2.1525   -1.1213   -4.0249 H   0  0  0  0  0  0  0  0  0  0  0  0
   -0.5269   -1.5873   -3.9623 H   0  0  0  0  0  0  0  0  0  0  0  0
   -1.7571   -1.9080   -2.1543 C   0  0  0  0  0  0  0  0  0  0  0  0
   -2.0179   -2.8420   -2.4049 H   0  0  0  0  0  0  0  0  0  0  0  0
   -0.9730   -1.9402   -1.5324 H   0  0  0  0  0  0  0  0  0  0  0  0
   -2.9232   -1.2453   -1.4444 C   0  0  0  0  0  0  0  0  0  0  0  0
   -2.6594   -0.3121   -1.1977 H   0  0  0  0  0  0  0  0  0  0  0  0
   -3.7049   -1.2159   -2.0688 H   0  0  0  0  0  0  0  0  0  0  0  0
   -3.2200   -1.7756   -0.5395 H   0  0  0  0  0  0  0  0  0  0  0  0
  1  5  1  0
  5  6  1  0
  5  7  2  0
  1  2  1  0
  1  3  1  0
  1  4  1  0
  8 12  1  0
 12 15  1  0
  8  9  1  0
  8 10  1  0
  8 11  1  0
 12 13  1  0
 12 14  1  0
 15 16  1  0
 15 17  1  0
 15 18  1  0
M  CHG  1   6  -1
M  END
>  <PDB_ID>  (1857) 
pdb6hx3

>  <RESIDUE_NAME>  (1857) 
ASP   LYS

>  <FRAG_NAME>  (1857) 
ACET   PRPA

>  <FRAG_ATOM_NUM>  (1857) 
fragi: 7  fragj: 11

>  <atom.prop.CHAIN_ID>  (1857) 
A A A A A A A Z Z Z Z Z Z Z Z Z Z Z

>  <atom.prop.IS_HEAVY_ATOM>  (1857) 
1 0 0 0 1 1 1 1 0 0 0 1 0 0 1 0 0 0

>  <DIFUSE_FUNC_ATOM>  (1857) 
atom 6   atom 7   

>  <FINAL_SINGLE_POINT_ENERGY>  (1857) 
0

>  <NONCOV_INTER_ENERGY_QM>  (1857) 
0

>  <FF_Energy>  (1857) 
35.64

>  <QM_Energy>  (1857) 
6.61

>  <source>  (1857) 
ACET_PRPA_24

>  <Index>  (1857) 
22206

$$$$
ACET-pdb6hx3-A-ASP-264:PRPA-pdb6hx3-A-LYS-267
     RDKit          3D

 18 16  0  0  0  0  0  0  0  0999 V2000
   -0.0120    1.5226   -0.0072 C   0  0  0  0  0  0  0  0  0  0  0  0
   -0.4170    1.8403    0.8416 H   0  0  0  0  0  0  0  0  0  0  0  0
   -0.5434    1.8323   -0.7858 H   0  0  0  0  0  0  0  0  0  0  0  0
    0.9867    1.9520   -0.0864 H   0  0  0  0  0  0  0  0  0  0  0  0
    0.0000    0.0000    0.0000 C   0  0  0  0  0  0  0  0  0  0  0  0
   -1.1007   -0.6006    0.0000 O   0  0  0  0  0  1  0  0  0  0  0  0
    1.1007   -0.5967   -0.0000 O   0  0  0  0  0  0  0  0  0  0  0  0
   -1.7571   -1.9080   -2.1543 C   0  0  0  0  0  0  0  0  0  0  0  0
   -2.0179   -2.8420   -2.4049 H   0  0  0  0  0  0  0  0  0  0  0  0
   -0.9730   -1.9402   -1.5324 H   0  0  0  0  0  0  0  0  0  0  0  0
   -1.4736   -1.3655   -3.0562 H   0  0  0  0  0  0  0  0  0  0  0  0
   -2.9232   -1.2453   -1.4444 C   0  0  0  0  0  0  0  0  0  0  0  0
   -2.6594   -0.3121   -1.1977 H   0  0  0  0  0  0  0  0  0  0  0  0
   -3.7049   -1.2159   -2.0688 H   0  0  0  0  0  0  0  0  0  0  0  0
   -3.3348   -1.9806   -0.1897 C   0  0  0  0  0  0  0  0  0  0  0  0
   -3.6039   -2.9137   -0.4289 H   0  0  0  0  0  0  0  0  0  0  0  0
   -2.5602   -2.0112    0.4426 H   0  0  0  0  0  0  0  0  0  0  0  0
   -4.1725   -1.4788    0.2945 H   0  0  0  0  0  0  0  0  0  0  0  0
  1  5  1  0
  5  6  1  0
  5  7  2  0
  1  2  1  0
  1  3  1  0
  1  4  1  0
  8 12  1  0
 12 15  1  0
  8  9  1  0
  8 10  1  0
  8 11  1  0
 12 13  1  0
 12 14  1  0
 15 16  1  0
 15 17  1  0
 15 18  1  0
M  CHG  1   6  -1
M  END
>  <PDB_ID>  (1858) 
pdb6hx3

>  <RESIDUE_NAME>  (1858) 
ASP   LYS

>  <FRAG_NAME>  (1858) 
ACET   PRPA

>  <FRAG_ATOM_NUM>  (1858) 
fragi: 7  fragj: 11

>  <atom.prop.CHAIN_ID>  (1858) 
A A A A A A A Z Z Z Z Z Z Z Z Z Z Z

>  <atom.prop.IS_HEAVY_ATOM>  (1858) 
1 0 0 0 1 1 1 1 0 0 0 1 0 0 1 0 0 0

>  <DIFUSE_FUNC_ATOM>  (1858) 
atom 6   atom 7   

>  <FINAL_SINGLE_POINT_ENERGY>  (1858) 
0

>  <NONCOV_INTER_ENERGY_QM>  (1858) 
0

>  <FF_Energy>  (1858) 
43.42

>  <QM_Energy>  (1858) 
7.38

>  <source>  (1858) 
ACET_PRPA_24

>  <Index>  (1858) 
22216

$$$$
ACET-pdb6hpd-A-ASP-972:PRPA-pdb6hpd-A-GLU-932
     RDKit          3D

 18 16  0  0  0  0  0  0  0  0999 V2000
   -0.0307    1.4971   -0.0144 C   0  0  0  0  0  0  0  0  0  0  0  0
    0.6764    1.8325   -0.6251 H   0  0  0  0  0  0  0  0  0  0  0  0
    0.1129    1.8364    0.9062 H   0  0  0  0  0  0  0  0  0  0  0  0
   -0.9882    1.8800   -0.3674 H   0  0  0  0  0  0  0  0  0  0  0  0
    0.0000    0.0000    0.0000 C   0  0  0  0  0  0  0  0  0  0  0  0
   -1.0963   -0.5896    0.0000 O   0  0  0  0  0  1  0  0  0  0  0  0
    1.0963   -0.5921    0.0000 O   0  0  0  0  0  0  0  0  0  0  0  0
    1.2811   -4.3369   -0.1261 C   0  0  0  0  0  0  0  0  0  0  0  0
    2.2499   -4.3185   -0.4153 H   0  0  0  0  0  0  0  0  0  0  0  0
    0.7087   -3.6275   -0.7238 H   0  0  0  0  0  0  0  0  0  0  0  0
    0.8972   -5.3529   -0.2183 H   0  0  0  0  0  0  0  0  0  0  0  0
    1.2831   -3.8981    1.3432 C   0  0  0  0  0  0  0  0  0  0  0  0
    0.3287   -3.8901    1.6518 H   0  0  0  0  0  0  0  0  0  0  0  0
    1.7870   -4.5940    1.8601 H   0  0  0  0  0  0  0  0  0  0  0  0
    1.8837   -2.5481    1.6955 C   0  0  0  0  0  0  0  0  0  0  0  0
    2.8387   -2.5539    1.3925 H   0  0  0  0  0  0  0  0  0  0  0  0
    1.3814   -1.8486    1.1845 H   0  0  0  0  0  0  0  0  0  0  0  0
    1.8692   -2.2654    2.7481 H   0  0  0  0  0  0  0  0  0  0  0  0
  1  5  1  0
  5  6  1  0
  5  7  2  0
  1  2  1  0
  1  3  1  0
  1  4  1  0
  8 12  1  0
 12 15  1  0
  8  9  1  0
  8 10  1  0
  8 11  1  0
 12 13  1  0
 12 14  1  0
 15 16  1  0
 15 17  1  0
 15 18  1  0
M  CHG  1   6  -1
M  END
>  <PDB_ID>  (1859) 
pdb6hpd

>  <RESIDUE_NAME>  (1859) 
ASP   GLU

>  <FRAG_NAME>  (1859) 
ACET   PRPA

>  <FRAG_ATOM_NUM>  (1859) 
fragi: 7  fragj: 11

>  <atom.prop.CHAIN_ID>  (1859) 
A A A A A A A Z Z Z Z Z Z Z Z Z Z Z

>  <atom.prop.IS_HEAVY_ATOM>  (1859) 
1 0 0 0 1 1 1 1 0 0 0 1 0 0 1 0 0 0

>  <DIFUSE_FUNC_ATOM>  (1859) 
atom 6   atom 7   

>  <FINAL_SINGLE_POINT_ENERGY>  (1859) 
0

>  <NONCOV_INTER_ENERGY_QM>  (1859) 
0

>  <FF_Energy>  (1859) 
39.99

>  <QM_Energy>  (1859) 
1.27

>  <source>  (1859) 
ACET_PRPA_24

>  <Index>  (1859) 
24538

$$$$
ACET-pdb6hx3-C-ASP-281:PRPA-pdb6hx3-C-VAL-284
     RDKit          3D

 18 16  0  0  0  0  0  0  0  0999 V2000
    0.0031    1.5187    0.0008 C   0  0  0  0  0  0  0  0  0  0  0  0
    0.5597    1.8367   -0.7572 H   0  0  0  0  0  0  0  0  0  0  0  0
    0.3744    1.8365    0.8647 H   0  0  0  0  0  0  0  0  0  0  0  0
   -0.9960    1.9391   -0.1136 H   0  0  0  0  0  0  0  0  0  0  0  0
    0.0000    0.0000    0.0000 C   0  0  0  0  0  0  0  0  0  0  0  0
   -1.0957   -0.5975    0.0000 O   0  0  0  0  0  1  0  0  0  0  0  0
    1.0957   -0.5971   -0.0000 O   0  0  0  0  0  0  0  0  0  0  0  0
   -0.0758   -0.2451    4.6374 C   0  0  0  0  0  0  0  0  0  0  0  0
    0.4183   -0.9649    5.1314 H   0  0  0  0  0  0  0  0  0  0  0  0
   -0.8169   -0.7168    3.9922 H   0  0  0  0  0  0  0  0  0  0  0  0
   -0.5745    0.3845    5.3743 H   0  0  0  0  0  0  0  0  0  0  0  0
    0.8929    0.6317    3.8173 C   0  0  0  0  0  0  0  0  0  0  0  0
    0.3902    1.4355    3.5178 H   0  0  0  0  0  0  0  0  0  0  0  0
    1.7123    0.9809    4.4458 H   0  0  0  0  0  0  0  0  0  0  0  0
    1.4219   -0.1342    2.6121 C   0  0  0  0  0  0  0  0  0  0  0  0
    1.1504   -1.0930    2.6856 H   0  0  0  0  0  0  0  0  0  0  0  0
    1.0400    0.2603    1.7767 H   0  0  0  0  0  0  0  0  0  0  0  0
    2.4185   -0.0677    2.5909 H   0  0  0  0  0  0  0  0  0  0  0  0
  1  5  1  0
  5  6  1  0
  5  7  2  0
  1  2  1  0
  1  3  1  0
  1  4  1  0
  8 12  1  0
 12 15  1  0
  8  9  1  0
  8 10  1  0
  8 11  1  0
 12 13  1  0
 12 14  1  0
 15 16  1  0
 15 17  1  0
 15 18  1  0
M  CHG  1   6  -1
M  END
>  <PDB_ID>  (1860) 
pdb6hx3

>  <RESIDUE_NAME>  (1860) 
ASP   VAL

>  <FRAG_NAME>  (1860) 
ACET   PRPA

>  <FRAG_ATOM_NUM>  (1860) 
fragi: 7  fragj: 11

>  <atom.prop.CHAIN_ID>  (1860) 
A A A A A A A Z Z Z Z Z Z Z Z Z Z Z

>  <atom.prop.IS_HEAVY_ATOM>  (1860) 
1 0 0 0 1 1 1 1 0 0 0 1 0 0 1 0 0 0

>  <DIFUSE_FUNC_ATOM>  (1860) 
atom 6   atom 7   

>  <FINAL_SINGLE_POINT_ENERGY>  (1860) 
0

>  <NONCOV_INTER_ENERGY_QM>  (1860) 
0

>  <FF_Energy>  (1860) 
26.94

>  <QM_Energy>  (1860) 
5.33

>  <source>  (1860) 
ACET_PRPA_24

>  <Index>  (1860) 
24701

$$$$
ACET-pdb6hx3-E-ASP-281:PRPA-pdb6hx3-E-VAL-284
     RDKit          3D

 18 16  0  0  0  0  0  0  0  0999 V2000
    0.0129    1.5304    0.0178 C   0  0  0  0  0  0  0  0  0  0  0  0
    0.9553    1.8362    0.0612 H   0  0  0  0  0  0  0  0  0  0  0  0
   -0.4942    1.8396    0.8115 H   0  0  0  0  0  0  0  0  0  0  0  0
   -0.4447    1.9667   -0.8701 H   0  0  0  0  0  0  0  0  0  0  0  0
    0.0000    0.0000    0.0000 C   0  0  0  0  0  0  0  0  0  0  0  0
   -1.0981   -0.6046   -0.0000 O   0  0  0  0  0  1  0  0  0  0  0  0
    1.0981   -0.5954    0.0000 O   0  0  0  0  0  0  0  0  0  0  0  0
   -3.5923   -0.5897    2.4036 C   0  0  0  0  0  0  0  0  0  0  0  0
   -3.7277   -1.3890    2.9980 H   0  0  0  0  0  0  0  0  0  0  0  0
   -3.4125   -0.9452    1.3890 H   0  0  0  0  0  0  0  0  0  0  0  0
   -4.4992    0.0139    2.4425 H   0  0  0  0  0  0  0  0  0  0  0  0
   -2.4098    0.2480    2.9259 C   0  0  0  0  0  0  0  0  0  0  0  0
   -2.3817    1.0915    2.4003 H   0  0  0  0  0  0  0  0  0  0  0  0
   -2.5721    0.5257    3.9674 H   0  0  0  0  0  0  0  0  0  0  0  0
   -1.1032   -0.5156    2.7673 C   0  0  0  0  0  0  0  0  0  0  0  0
   -0.3507    0.0399    3.1202 H   0  0  0  0  0  0  0  0  0  0  0  0
   -1.1576   -1.3728    3.2793 H   0  0  0  0  0  0  0  0  0  0  0  0
   -0.9509   -0.7113    1.7989 H   0  0  0  0  0  0  0  0  0  0  0  0
  1  5  1  0
  5  6  1  0
  5  7  2  0
  1  2  1  0
  1  3  1  0
  1  4  1  0
  8 12  1  0
 12 15  1  0
  8  9  1  0
  8 10  1  0
  8 11  1  0
 12 13  1  0
 12 14  1  0
 15 16  1  0
 15 17  1  0
 15 18  1  0
M  CHG  1   6  -1
M  END
>  <PDB_ID>  (1861) 
pdb6hx3

>  <RESIDUE_NAME>  (1861) 
ASP   VAL

>  <FRAG_NAME>  (1861) 
ACET   PRPA

>  <FRAG_ATOM_NUM>  (1861) 
fragi: 7  fragj: 11

>  <atom.prop.CHAIN_ID>  (1861) 
A A A A A A A Z Z Z Z Z Z Z Z Z Z Z

>  <atom.prop.IS_HEAVY_ATOM>  (1861) 
1 0 0 0 1 1 1 1 0 0 0 1 0 0 1 0 0 0

>  <DIFUSE_FUNC_ATOM>  (1861) 
atom 6   atom 7   

>  <FINAL_SINGLE_POINT_ENERGY>  (1861) 
0

>  <NONCOV_INTER_ENERGY_QM>  (1861) 
0

>  <FF_Energy>  (1861) 
34.45

>  <QM_Energy>  (1861) 
0.79

>  <source>  (1861) 
ACET_PRPA_24

>  <Index>  (1861) 
26485

$$$$
ACET-pdb6iqc-A-GLU-14:PRPA-pdb6iqc-A-ARG-17
     RDKit          3D

 18 16  0  0  0  0  0  0  0  0999 V2000
    0.0106    1.5287   -0.0382 C   0  0  0  0  0  0  0  0  0  0  0  0
    0.7457    1.7983   -0.6823 H   0  0  0  0  0  0  0  0  0  0  0  0
    0.2900    1.8398    0.8848 H   0  0  0  0  0  0  0  0  0  0  0  0
   -0.8887    2.0788   -0.3154 H   0  0  0  0  0  0  0  0  0  0  0  0
    0.0000    0.0000    0.0000 C   0  0  0  0  0  0  0  0  0  0  0  0
   -1.0807   -0.6392    0.0000 O   0  0  0  0  0  1  0  0  0  0  0  0
    1.0807   -0.5685    0.0000 O   0  0  0  0  0  0  0  0  0  0  0  0
   -3.7792   -1.3745   -2.2366 C   0  0  0  0  0  0  0  0  0  0  0  0
   -3.4398   -2.3089   -2.1418 H   0  0  0  0  0  0  0  0  0  0  0  0
   -3.0109   -0.7472   -2.3531 H   0  0  0  0  0  0  0  0  0  0  0  0
   -4.3978   -1.3259   -3.1328 H   0  0  0  0  0  0  0  0  0  0  0  0
   -4.4987   -1.0034   -0.9528 C   0  0  0  0  0  0  0  0  0  0  0  0
   -5.1284   -0.2566   -1.1281 H   0  0  0  0  0  0  0  0  0  0  0  0
   -4.9840   -1.7951   -0.6033 H   0  0  0  0  0  0  0  0  0  0  0  0
   -3.5033   -0.5515    0.0986 C   0  0  0  0  0  0  0  0  0  0  0  0
   -2.8758   -1.3152    0.2777 H   0  0  0  0  0  0  0  0  0  0  0  0
   -2.9786    0.2155   -0.2835 H   0  0  0  0  0  0  0  0  0  0  0  0
   -3.9666   -0.2401    1.0348 H   0  0  0  0  0  0  0  0  0  0  0  0
  1  5  1  0
  5  6  1  0
  5  7  2  0
  1  2  1  0
  1  3  1  0
  1  4  1  0
  8 12  1  0
 12 15  1  0
  8  9  1  0
  8 10  1  0
  8 11  1  0
 12 13  1  0
 12 14  1  0
 15 16  1  0
 15 17  1  0
 15 18  1  0
M  CHG  1   6  -1
M  END
>  <PDB_ID>  (1862) 
pdb6iqc

>  <RESIDUE_NAME>  (1862) 
GLU   ARG

>  <FRAG_NAME>  (1862) 
ACET   PRPA

>  <FRAG_ATOM_NUM>  (1862) 
fragi: 7  fragj: 11

>  <atom.prop.CHAIN_ID>  (1862) 
A A A A A A A Z Z Z Z Z Z Z Z Z Z Z

>  <atom.prop.IS_HEAVY_ATOM>  (1862) 
1 0 0 0 1 1 1 1 0 0 0 1 0 0 1 0 0 0

>  <DIFUSE_FUNC_ATOM>  (1862) 
atom 6   atom 7   

>  <FINAL_SINGLE_POINT_ENERGY>  (1862) 
0

>  <NONCOV_INTER_ENERGY_QM>  (1862) 
0

>  <FF_Energy>  (1862) 
28.04

>  <QM_Energy>  (1862) 
8.43

>  <source>  (1862) 
ACET_PRPA_24

>  <Index>  (1862) 
27877

$$$$
ACET-pdb6hx3-G-ASP-264:PRPA-pdb6hx3-G-LYS-267
     RDKit          3D

 18 16  0  0  0  0  0  0  0  0999 V2000
    0.0008    1.5233    0.0031 C   0  0  0  0  0  0  0  0  0  0  0  0
   -0.6082    1.8396    0.7203 H   0  0  0  0  0  0  0  0  0  0  0  0
   -0.3052    1.8435   -0.8840 H   0  0  0  0  0  0  0  0  0  0  0  0
    0.9893    1.9426    0.1906 H   0  0  0  0  0  0  0  0  0  0  0  0
    0.0000    0.0000    0.0000 C   0  0  0  0  0  0  0  0  0  0  0  0
   -1.0974   -0.5992   -0.0000 O   0  0  0  0  0  1  0  0  0  0  0  0
    1.0974   -0.5977    0.0000 O   0  0  0  0  0  0  0  0  0  0  0  0
    0.2279   -0.7794   -4.2860 C   0  0  0  0  0  0  0  0  0  0  0  0
   -0.2034   -1.6039   -4.6676 H   0  0  0  0  0  0  0  0  0  0  0  0
    0.9816   -1.0790   -3.5578 H   0  0  0  0  0  0  0  0  0  0  0  0
    0.6824   -0.2157   -5.1007 H   0  0  0  0  0  0  0  0  0  0  0  0
   -0.8647    0.0616   -3.6165 C   0  0  0  0  0  0  0  0  0  0  0  0
   -0.4356    0.8798   -3.2324 H   0  0  0  0  0  0  0  0  0  0  0  0
   -1.5238    0.3313   -4.3200 H   0  0  0  0  0  0  0  0  0  0  0  0
   -1.6197   -0.6498   -2.5025 C   0  0  0  0  0  0  0  0  0  0  0  0
   -2.0580   -1.4687   -2.8785 H   0  0  0  0  0  0  0  0  0  0  0  0
   -0.9702   -0.9195   -1.7897 H   0  0  0  0  0  0  0  0  0  0  0  0
   -2.3844   -0.0101   -2.0619 H   0  0  0  0  0  0  0  0  0  0  0  0
  1  5  1  0
  5  6  1  0
  5  7  2  0
  1  2  1  0
  1  3  1  0
  1  4  1  0
  8 12  1  0
 12 15  1  0
  8  9  1  0
  8 10  1  0
  8 11  1  0
 12 13  1  0
 12 14  1  0
 15 16  1  0
 15 17  1  0
 15 18  1  0
M  CHG  1   6  -1
M  END
>  <PDB_ID>  (1863) 
pdb6hx3

>  <RESIDUE_NAME>  (1863) 
ASP   LYS

>  <FRAG_NAME>  (1863) 
ACET   PRPA

>  <FRAG_ATOM_NUM>  (1863) 
fragi: 7  fragj: 11

>  <atom.prop.CHAIN_ID>  (1863) 
A A A A A A A Z Z Z Z Z Z Z Z Z Z Z

>  <atom.prop.IS_HEAVY_ATOM>  (1863) 
1 0 0 0 1 1 1 1 0 0 0 1 0 0 1 0 0 0

>  <DIFUSE_FUNC_ATOM>  (1863) 
atom 6   atom 7   

>  <FINAL_SINGLE_POINT_ENERGY>  (1863) 
0

>  <NONCOV_INTER_ENERGY_QM>  (1863) 
0

>  <FF_Energy>  (1863) 
34.06

>  <QM_Energy>  (1863) 
6.11

>  <source>  (1863) 
ACET_PRPA_24

>  <Index>  (1863) 
28735

$$$$
ACET-pdb6hx3-G-ASP-264:PRPA-pdb6hx3-G-LYS-267
     RDKit          3D

 18 16  0  0  0  0  0  0  0  0999 V2000
    0.0008    1.5233    0.0031 C   0  0  0  0  0  0  0  0  0  0  0  0
   -0.6082    1.8396    0.7203 H   0  0  0  0  0  0  0  0  0  0  0  0
   -0.3052    1.8435   -0.8840 H   0  0  0  0  0  0  0  0  0  0  0  0
    0.9893    1.9426    0.1906 H   0  0  0  0  0  0  0  0  0  0  0  0
    0.0000    0.0000    0.0000 C   0  0  0  0  0  0  0  0  0  0  0  0
   -1.0974   -0.5992   -0.0000 O   0  0  0  0  0  1  0  0  0  0  0  0
    1.0974   -0.5977    0.0000 O   0  0  0  0  0  0  0  0  0  0  0  0
   -0.8647    0.0616   -3.6165 C   0  0  0  0  0  0  0  0  0  0  0  0
   -0.4356    0.8798   -3.2324 H   0  0  0  0  0  0  0  0  0  0  0  0
   -1.5238    0.3313   -4.3200 H   0  0  0  0  0  0  0  0  0  0  0  0
   -0.0877   -0.5364   -4.0926 H   0  0  0  0  0  0  0  0  0  0  0  0
   -1.6197   -0.6498   -2.5025 C   0  0  0  0  0  0  0  0  0  0  0  0
   -2.0580   -1.4687   -2.8785 H   0  0  0  0  0  0  0  0  0  0  0  0
   -0.9702   -0.9195   -1.7897 H   0  0  0  0  0  0  0  0  0  0  0  0
   -2.6844    0.2408   -1.8890 C   0  0  0  0  0  0  0  0  0  0  0  0
   -2.2426    1.0588   -1.5164 H   0  0  0  0  0  0  0  0  0  0  0  0
   -3.3312    0.5090   -2.6034 H   0  0  0  0  0  0  0  0  0  0  0  0
   -3.2344   -0.2534   -1.0883 H   0  0  0  0  0  0  0  0  0  0  0  0
  1  5  1  0
  5  6  1  0
  5  7  2  0
  1  2  1  0
  1  3  1  0
  1  4  1  0
  8 12  1  0
 12 15  1  0
  8  9  1  0
  8 10  1  0
  8 11  1  0
 12 13  1  0
 12 14  1  0
 15 16  1  0
 15 17  1  0
 15 18  1  0
M  CHG  1   6  -1
M  END
>  <PDB_ID>  (1864) 
pdb6hx3

>  <RESIDUE_NAME>  (1864) 
ASP   LYS

>  <FRAG_NAME>  (1864) 
ACET   PRPA

>  <FRAG_ATOM_NUM>  (1864) 
fragi: 7  fragj: 11

>  <atom.prop.CHAIN_ID>  (1864) 
A A A A A A A Z Z Z Z Z Z Z Z Z Z Z

>  <atom.prop.IS_HEAVY_ATOM>  (1864) 
1 0 0 0 1 1 1 1 0 0 0 1 0 0 1 0 0 0

>  <DIFUSE_FUNC_ATOM>  (1864) 
atom 6   atom 7   

>  <FINAL_SINGLE_POINT_ENERGY>  (1864) 
0

>  <NONCOV_INTER_ENERGY_QM>  (1864) 
0

>  <FF_Energy>  (1864) 
45.23

>  <QM_Energy>  (1864) 
7.3

>  <source>  (1864) 
ACET_PRPA_24

>  <Index>  (1864) 
28740

$$$$
ACET-pdb5i81-A-ASP-223:PRPA-pdb5i81-A-PRO-127
     RDKit          3D

 18 16  0  0  0  0  0  0  0  0999 V2000
   -0.0082    1.5078   -0.0001 C   0  0  0  0  0  0  0  0  0  0  0  0
    0.8304    1.8351   -0.4214 H   0  0  0  0  0  0  0  0  0  0  0  0
   -0.0760    1.8308    0.9361 H   0  0  0  0  0  0  0  0  0  0  0  0
   -0.8487    1.9176   -0.5602 H   0  0  0  0  0  0  0  0  0  0  0  0
    0.0000    0.0000    0.0000 C   0  0  0  0  0  0  0  0  0  0  0  0
   -1.0974   -0.6057    0.0000 O   0  0  0  0  0  1  0  0  0  0  0  0
    1.0974   -0.5890   -0.0000 O   0  0  0  0  0  0  0  0  0  0  0  0
   -4.2815   -2.5044   -0.4086 C   0  0  0  0  0  0  0  0  0  0  0  0
   -3.8378   -2.7565    0.4593 H   0  0  0  0  0  0  0  0  0  0  0  0
   -4.1067   -3.2347   -1.0785 H   0  0  0  0  0  0  0  0  0  0  0  0
   -5.3535   -2.3723   -0.2617 H   0  0  0  0  0  0  0  0  0  0  0  0
   -3.7914   -1.1939   -0.9017 C   0  0  0  0  0  0  0  0  0  0  0  0
   -2.9278   -0.9303   -0.3978 H   0  0  0  0  0  0  0  0  0  0  0  0
   -3.4949   -1.2791   -1.8888 H   0  0  0  0  0  0  0  0  0  0  0  0
   -4.8247   -0.1390   -0.7557 C   0  0  0  0  0  0  0  0  0  0  0  0
   -4.5242    0.6000   -0.1539 H   0  0  0  0  0  0  0  0  0  0  0  0
   -5.1002    0.2425   -1.6387 H   0  0  0  0  0  0  0  0  0  0  0  0
   -5.6555   -0.6804   -0.3032 H   0  0  0  0  0  0  0  0  0  0  0  0
  1  5  1  0
  5  6  1  0
  5  7  2  0
  1  2  1  0
  1  3  1  0
  1  4  1  0
  8 12  1  0
 12 15  1  0
  8  9  1  0
  8 10  1  0
  8 11  1  0
 12 13  1  0
 12 14  1  0
 15 16  1  0
 15 17  1  0
 15 18  1  0
M  CHG  1   6  -1
M  END
>  <PDB_ID>  (1865) 
pdb5i81

>  <RESIDUE_NAME>  (1865) 
ASP   PRO

>  <FRAG_NAME>  (1865) 
ACET   PRPA

>  <FRAG_ATOM_NUM>  (1865) 
fragi: 7  fragj: 11

>  <atom.prop.CHAIN_ID>  (1865) 
A A A A A A A Z Z Z Z Z Z Z Z Z Z Z

>  <atom.prop.IS_HEAVY_ATOM>  (1865) 
1 0 0 0 1 1 1 1 0 0 0 1 0 0 1 0 0 0

>  <DIFUSE_FUNC_ATOM>  (1865) 
atom 6   atom 7   

>  <FINAL_SINGLE_POINT_ENERGY>  (1865) 
0

>  <NONCOV_INTER_ENERGY_QM>  (1865) 
0

>  <FF_Energy>  (1865) 
14.9

>  <QM_Energy>  (1865) 
-2.19

>  <source>  (1865) 
ACET_PRPA_24

>  <Index>  (1865) 
29045

$$$$
ACET-pdb5h9f-D-ASP-302:PRPA-pdb5h9f-D-GLU-218
     RDKit          3D

 18 16  0  0  0  0  0  0  0  0999 V2000
    0.0377    1.5157   -0.0184 C   0  0  0  0  0  0  0  0  0  0  0  0
   -0.8183    1.8615    0.3656 H   0  0  0  0  0  0  0  0  0  0  0  0
    0.1265    1.8226   -0.9654 H   0  0  0  0  0  0  0  0  0  0  0  0
    0.8591    1.9492    0.5521 H   0  0  0  0  0  0  0  0  0  0  0  0
    0.0000    0.0000    0.0000 C   0  0  0  0  0  0  0  0  0  0  0  0
   -1.0953   -0.5986    0.0000 O   0  0  0  0  0  1  0  0  0  0  0  0
    1.0953   -0.5856   -0.0000 O   0  0  0  0  0  0  0  0  0  0  0  0
    4.7800   -1.6216   -0.5689 C   0  0  0  0  0  0  0  0  0  0  0  0
    5.1226   -2.4904   -0.9326 H   0  0  0  0  0  0  0  0  0  0  0  0
    4.4459   -1.7578    0.4597 H   0  0  0  0  0  0  0  0  0  0  0  0
    5.5728   -0.8741   -0.5970 H   0  0  0  0  0  0  0  0  0  0  0  0
    3.6121   -1.1982   -1.4578 C   0  0  0  0  0  0  0  0  0  0  0  0
    3.3515   -0.2864   -1.1970 H   0  0  0  0  0  0  0  0  0  0  0  0
    3.9119   -1.2479   -2.3920 H   0  0  0  0  0  0  0  0  0  0  0  0
    2.3858   -2.0857   -1.3186 C   0  0  0  0  0  0  0  0  0  0  0  0
    2.5340   -2.9000   -1.8486 H   0  0  0  0  0  0  0  0  0  0  0  0
    2.2523   -2.2812   -0.3648 H   0  0  0  0  0  0  0  0  0  0  0  0
    1.4779   -1.6096   -1.6890 H   0  0  0  0  0  0  0  0  0  0  0  0
  1  5  1  0
  5  6  1  0
  5  7  2  0
  1  2  1  0
  1  3  1  0
  1  4  1  0
  8 12  1  0
 12 15  1  0
  8  9  1  0
  8 10  1  0
  8 11  1  0
 12 13  1  0
 12 14  1  0
 15 16  1  0
 15 17  1  0
 15 18  1  0
M  CHG  1   6  -1
M  END
>  <PDB_ID>  (1866) 
pdb5h9f

>  <RESIDUE_NAME>  (1866) 
ASP   GLU

>  <FRAG_NAME>  (1866) 
ACET   PRPA

>  <FRAG_ATOM_NUM>  (1866) 
fragi: 7  fragj: 11

>  <atom.prop.CHAIN_ID>  (1866) 
A A A A A A A Z Z Z Z Z Z Z Z Z Z Z

>  <atom.prop.IS_HEAVY_ATOM>  (1866) 
1 0 0 0 1 1 1 1 0 0 0 1 0 0 1 0 0 0

>  <DIFUSE_FUNC_ATOM>  (1866) 
atom 6   atom 7   

>  <FINAL_SINGLE_POINT_ENERGY>  (1866) 
0

>  <NONCOV_INTER_ENERGY_QM>  (1866) 
0

>  <FF_Energy>  (1866) 
30.43

>  <QM_Energy>  (1866) 
7.56

>  <source>  (1866) 
ACET_PRPA_24

>  <Index>  (1866) 
33607

$$$$
ACET-pdb5ihx-A-GLU-263:PRPA-pdb5ihx-A-LYS-259
     RDKit          3D

 18 16  0  0  0  0  0  0  0  0999 V2000
    0.1716    1.4856    0.0152 C   0  0  0  0  0  0  0  0  0  0  0  0
    0.6900    1.7427   -0.8016 H   0  0  0  0  0  0  0  0  0  0  0  0
    0.7022    1.7235    0.8304 H   0  0  0  0  0  0  0  0  0  0  0  0
   -0.7400    2.0830    0.0282 H   0  0  0  0  0  0  0  0  0  0  0  0
    0.0000    0.0000    0.0000 C   0  0  0  0  0  0  0  0  0  0  0  0
   -1.0895   -0.5595   -0.0000 O   0  0  0  0  0  1  0  0  0  0  0  0
    1.0895   -0.6058   -0.0000 O   0  0  0  0  0  0  0  0  0  0  0  0
    2.2663   -0.8334    2.4250 C   0  0  0  0  0  0  0  0  0  0  0  0
    1.3082   -0.6533    2.2009 H   0  0  0  0  0  0  0  0  0  0  0  0
    2.8558   -0.2618    1.8551 H   0  0  0  0  0  0  0  0  0  0  0  0
    2.4393   -0.5940    3.4742 H   0  0  0  0  0  0  0  0  0  0  0  0
    2.5701   -2.2982    2.1298 C   0  0  0  0  0  0  0  0  0  0  0  0
    3.5273   -2.4761    2.3563 H   0  0  0  0  0  0  0  0  0  0  0  0
    1.9801   -2.8671    2.7004 H   0  0  0  0  0  0  0  0  0  0  0  0
    2.3386   -2.6565    0.6798 C   0  0  0  0  0  0  0  0  0  0  0  0
    1.3817   -2.4830    0.4478 H   0  0  0  0  0  0  0  0  0  0  0  0
    2.9285   -2.0912    0.1032 H   0  0  0  0  0  0  0  0  0  0  0  0
    2.5654   -3.7081    0.5044 H   0  0  0  0  0  0  0  0  0  0  0  0
  1  5  1  0
  5  6  1  0
  5  7  2  0
  1  2  1  0
  1  3  1  0
  1  4  1  0
  8 12  1  0
 12 15  1  0
  8  9  1  0
  8 10  1  0
  8 11  1  0
 12 13  1  0
 12 14  1  0
 15 16  1  0
 15 17  1  0
 15 18  1  0
M  CHG  1   6  -1
M  END
>  <PDB_ID>  (1867) 
pdb5ihx

>  <RESIDUE_NAME>  (1867) 
GLU   LYS

>  <FRAG_NAME>  (1867) 
ACET   PRPA

>  <FRAG_ATOM_NUM>  (1867) 
fragi: 7  fragj: 11

>  <atom.prop.CHAIN_ID>  (1867) 
A A A A A A A Z Z Z Z Z Z Z Z Z Z Z

>  <atom.prop.IS_HEAVY_ATOM>  (1867) 
1 0 0 0 1 1 1 1 0 0 0 1 0 0 1 0 0 0

>  <DIFUSE_FUNC_ATOM>  (1867) 
atom 6   atom 7   

>  <FINAL_SINGLE_POINT_ENERGY>  (1867) 
0

>  <NONCOV_INTER_ENERGY_QM>  (1867) 
0

>  <FF_Energy>  (1867) 
27.0

>  <QM_Energy>  (1867) 
5.36

>  <source>  (1867) 
ACET_PRPA_24

>  <Index>  (1867) 
33819

$$$$
ACET-pdb6ife-B-GLU-295:PRPA-pdb6ife-B-VAL-304
     RDKit          3D

 18 16  0  0  0  0  0  0  0  0999 V2000
    0.1929    1.4897    0.0130 C   0  0  0  0  0  0  0  0  0  0  0  0
    0.7083    1.7359   -0.8046 H   0  0  0  0  0  0  0  0  0  0  0  0
    0.7204    1.7186    0.8284 H   0  0  0  0  0  0  0  0  0  0  0  0
   -0.7185    2.0875    0.0249 H   0  0  0  0  0  0  0  0  0  0  0  0
    0.0000    0.0000    0.0000 C   0  0  0  0  0  0  0  0  0  0  0  0
   -1.0885   -0.5505   -0.0000 O   0  0  0  0  0  1  0  0  0  0  0  0
    1.0885   -0.6141    0.0000 O   0  0  0  0  0  0  0  0  0  0  0  0
    1.5796    0.6776    4.8611 C   0  0  0  0  0  0  0  0  0  0  0  0
    0.7390    0.2246    4.5629 H   0  0  0  0  0  0  0  0  0  0  0  0
    1.3401    1.7064    5.1300 H   0  0  0  0  0  0  0  0  0  0  0  0
    1.9490    0.1523    5.7418 H   0  0  0  0  0  0  0  0  0  0  0  0
    2.5982    0.6628    3.7110 C   0  0  0  0  0  0  0  0  0  0  0  0
    3.3521    1.2608    3.9636 H   0  0  0  0  0  0  0  0  0  0  0  0
    3.0149   -0.3361    3.5821 H   0  0  0  0  0  0  0  0  0  0  0  0
    1.9520    1.1487    2.4283 C   0  0  0  0  0  0  0  0  0  0  0  0
    1.5390    0.3732    1.9486 H   0  0  0  0  0  0  0  0  0  0  0  0
    1.2446    1.8222    2.6465 H   0  0  0  0  0  0  0  0  0  0  0  0
    2.6465    1.5714    1.8449 H   0  0  0  0  0  0  0  0  0  0  0  0
  1  5  1  0
  5  6  1  0
  5  7  2  0
  1  2  1  0
  1  3  1  0
  1  4  1  0
  8 12  1  0
 12 15  1  0
  8  9  1  0
  8 10  1  0
  8 11  1  0
 12 13  1  0
 12 14  1  0
 15 16  1  0
 15 17  1  0
 15 18  1  0
M  CHG  1   6  -1
M  END
>  <PDB_ID>  (1868) 
pdb6ife

>  <RESIDUE_NAME>  (1868) 
GLU   VAL

>  <FRAG_NAME>  (1868) 
ACET   PRPA

>  <FRAG_ATOM_NUM>  (1868) 
fragi: 7  fragj: 11

>  <atom.prop.CHAIN_ID>  (1868) 
A A A A A A A Z Z Z Z Z Z Z Z Z Z Z

>  <atom.prop.IS_HEAVY_ATOM>  (1868) 
1 0 0 0 1 1 1 1 0 0 0 1 0 0 1 0 0 0

>  <DIFUSE_FUNC_ATOM>  (1868) 
atom 6   atom 7   

>  <FINAL_SINGLE_POINT_ENERGY>  (1868) 
0

>  <NONCOV_INTER_ENERGY_QM>  (1868) 
0

>  <FF_Energy>  (1868) 
18.26

>  <QM_Energy>  (1868) 
2.03

>  <source>  (1868) 
ACET_PRPA_24

>  <Index>  (1868) 
34172

$$$$
ACET-pdb6ife-B-GLU-295:PRPA-pdb6ife-B-VAL-304
     RDKit          3D

 18 16  0  0  0  0  0  0  0  0999 V2000
    0.1929    1.4897    0.0130 C   0  0  0  0  0  0  0  0  0  0  0  0
    0.7083    1.7359   -0.8046 H   0  0  0  0  0  0  0  0  0  0  0  0
    0.7204    1.7186    0.8284 H   0  0  0  0  0  0  0  0  0  0  0  0
   -0.7185    2.0875    0.0249 H   0  0  0  0  0  0  0  0  0  0  0  0
    0.0000    0.0000    0.0000 C   0  0  0  0  0  0  0  0  0  0  0  0
   -1.0885   -0.5505   -0.0000 O   0  0  0  0  0  1  0  0  0  0  0  0
    1.0885   -0.6141    0.0000 O   0  0  0  0  0  0  0  0  0  0  0  0
    3.1807   -0.7335    3.5309 C   0  0  0  0  0  0  0  0  0  0  0  0
    4.1491   -0.6626    3.2918 H   0  0  0  0  0  0  0  0  0  0  0  0
    3.0856   -1.2469    4.3835 H   0  0  0  0  0  0  0  0  0  0  0  0
    2.6901   -1.2075    2.7996 H   0  0  0  0  0  0  0  0  0  0  0  0
    2.5982    0.6628    3.7110 C   0  0  0  0  0  0  0  0  0  0  0  0
    3.3521    1.2608    3.9636 H   0  0  0  0  0  0  0  0  0  0  0  0
    1.8755    0.6733    4.5270 H   0  0  0  0  0  0  0  0  0  0  0  0
    1.9520    1.1487    2.4283 C   0  0  0  0  0  0  0  0  0  0  0  0
    1.5390    0.3732    1.9486 H   0  0  0  0  0  0  0  0  0  0  0  0
    1.2446    1.8222    2.6465 H   0  0  0  0  0  0  0  0  0  0  0  0
    2.6465    1.5714    1.8449 H   0  0  0  0  0  0  0  0  0  0  0  0
  1  5  1  0
  5  6  1  0
  5  7  2  0
  1  2  1  0
  1  3  1  0
  1  4  1  0
  8 12  1  0
 12 15  1  0
  8  9  1  0
  8 10  1  0
  8 11  1  0
 12 13  1  0
 12 14  1  0
 15 16  1  0
 15 17  1  0
 15 18  1  0
M  CHG  1   6  -1
M  END
>  <PDB_ID>  (1869) 
pdb6ife

>  <RESIDUE_NAME>  (1869) 
GLU   VAL

>  <FRAG_NAME>  (1869) 
ACET   PRPA

>  <FRAG_ATOM_NUM>  (1869) 
fragi: 7  fragj: 11

>  <atom.prop.CHAIN_ID>  (1869) 
A A A A A A A Z Z Z Z Z Z Z Z Z Z Z

>  <atom.prop.IS_HEAVY_ATOM>  (1869) 
1 0 0 0 1 1 1 1 0 0 0 1 0 0 1 0 0 0

>  <DIFUSE_FUNC_ATOM>  (1869) 
atom 6   atom 7   

>  <FINAL_SINGLE_POINT_ENERGY>  (1869) 
0

>  <NONCOV_INTER_ENERGY_QM>  (1869) 
0

>  <FF_Energy>  (1869) 
18.18

>  <QM_Energy>  (1869) 
1.73

>  <source>  (1869) 
ACET_PRPA_24

>  <Index>  (1869) 
34177

$$$$
ACET-pdb6j9b-A-ASP-173:PRPA-pdb6j9b-A-LYS-192
     RDKit          3D

 18 16  0  0  0  0  0  0  0  0999 V2000
    0.0424    1.5259   -0.0147 C   0  0  0  0  0  0  0  0  0  0  0  0
    0.6493    1.8179   -0.7526 H   0  0  0  0  0  0  0  0  0  0  0  0
    0.4035    1.8411    0.8615 H   0  0  0  0  0  0  0  0  0  0  0  0
   -0.9263    2.0010   -0.1696 H   0  0  0  0  0  0  0  0  0  0  0  0
    0.0000    0.0000    0.0000 C   0  0  0  0  0  0  0  0  0  0  0  0
   -1.0483   -0.5955    0.0000 O   0  0  0  0  0  1  0  0  0  0  0  0
    1.0483   -0.6007   -0.0000 O   0  0  0  0  0  0  0  0  0  0  0  0
   -1.5640   -0.8771    3.2151 C   0  0  0  0  0  0  0  0  0  0  0  0
   -1.2091   -0.2624    2.4696 H   0  0  0  0  0  0  0  0  0  0  0  0
   -1.2439   -0.4721    4.1750 H   0  0  0  0  0  0  0  0  0  0  0  0
   -2.6415   -0.9871    3.0935 H   0  0  0  0  0  0  0  0  0  0  0  0
   -0.8840   -2.2128    2.9506 C   0  0  0  0  0  0  0  0  0  0  0  0
   -0.8611   -2.7267    3.8117 H   0  0  0  0  0  0  0  0  0  0  0  0
   -1.4416   -2.7198    2.2870 H   0  0  0  0  0  0  0  0  0  0  0  0
    0.5212   -2.1119    2.4171 C   0  0  0  0  0  0  0  0  0  0  0  0
    0.5279   -1.4999    1.6265 H   0  0  0  0  0  0  0  0  0  0  0  0
    1.1177   -1.7464    3.1301 H   0  0  0  0  0  0  0  0  0  0  0  0
    0.8808   -3.0955    2.1147 H   0  0  0  0  0  0  0  0  0  0  0  0
  1  5  1  0
  5  6  1  0
  5  7  2  0
  1  2  1  0
  1  3  1  0
  1  4  1  0
  8 12  1  0
 12 15  1  0
  8  9  1  0
  8 10  1  0
  8 11  1  0
 12 13  1  0
 12 14  1  0
 15 16  1  0
 15 17  1  0
 15 18  1  0
M  CHG  1   6  -1
M  END
>  <PDB_ID>  (1870) 
pdb6j9b

>  <RESIDUE_NAME>  (1870) 
ASP   LYS

>  <FRAG_NAME>  (1870) 
ACET   PRPA

>  <FRAG_ATOM_NUM>  (1870) 
fragi: 7  fragj: 11

>  <atom.prop.CHAIN_ID>  (1870) 
A A A A A A A Z Z Z Z Z Z Z Z Z Z Z

>  <atom.prop.IS_HEAVY_ATOM>  (1870) 
1 0 0 0 1 1 1 1 0 0 0 1 0 0 1 0 0 0

>  <DIFUSE_FUNC_ATOM>  (1870) 
atom 6   atom 7   

>  <FINAL_SINGLE_POINT_ENERGY>  (1870) 
0

>  <NONCOV_INTER_ENERGY_QM>  (1870) 
0

>  <FF_Energy>  (1870) 
15.66

>  <QM_Energy>  (1870) 
-2.14

>  <source>  (1870) 
ACET_PRPA_24

>  <Index>  (1870) 
35707

$$$$
ACET-pdb6j9b-A-ASP-173:PRPA-pdb6j9b-A-LYS-192
     RDKit          3D

 18 16  0  0  0  0  0  0  0  0999 V2000
    0.0424    1.5259   -0.0147 C   0  0  0  0  0  0  0  0  0  0  0  0
    0.6493    1.8179   -0.7526 H   0  0  0  0  0  0  0  0  0  0  0  0
    0.4035    1.8411    0.8615 H   0  0  0  0  0  0  0  0  0  0  0  0
   -0.9263    2.0010   -0.1696 H   0  0  0  0  0  0  0  0  0  0  0  0
    0.0000    0.0000    0.0000 C   0  0  0  0  0  0  0  0  0  0  0  0
   -1.0483   -0.5955    0.0000 O   0  0  0  0  0  1  0  0  0  0  0  0
    1.0483   -0.6007   -0.0000 O   0  0  0  0  0  0  0  0  0  0  0  0
   -0.8840   -2.2128    2.9506 C   0  0  0  0  0  0  0  0  0  0  0  0
   -0.8611   -2.7267    3.8117 H   0  0  0  0  0  0  0  0  0  0  0  0
   -1.4416   -2.7198    2.2870 H   0  0  0  0  0  0  0  0  0  0  0  0
   -1.3710   -1.2562    3.1400 H   0  0  0  0  0  0  0  0  0  0  0  0
    0.5212   -2.1119    2.4171 C   0  0  0  0  0  0  0  0  0  0  0  0
    0.5279   -1.4999    1.6265 H   0  0  0  0  0  0  0  0  0  0  0  0
    1.1177   -1.7464    3.1301 H   0  0  0  0  0  0  0  0  0  0  0  0
    1.0148   -3.4622    2.0019 C   0  0  0  0  0  0  0  0  0  0  0  0
    0.5865   -4.1628    2.5891 H   0  0  0  0  0  0  0  0  0  0  0  0
    0.7316   -3.6381    1.0493 H   0  0  0  0  0  0  0  0  0  0  0  0
    2.0971   -3.5752    2.0647 H   0  0  0  0  0  0  0  0  0  0  0  0
  1  5  1  0
  5  6  1  0
  5  7  2  0
  1  2  1  0
  1  3  1  0
  1  4  1  0
  8 12  1  0
 12 15  1  0
  8  9  1  0
  8 10  1  0
  8 11  1  0
 12 13  1  0
 12 14  1  0
 15 16  1  0
 15 17  1  0
 15 18  1  0
M  CHG  1   6  -1
M  END
>  <PDB_ID>  (1871) 
pdb6j9b

>  <RESIDUE_NAME>  (1871) 
ASP   LYS

>  <FRAG_NAME>  (1871) 
ACET   PRPA

>  <FRAG_ATOM_NUM>  (1871) 
fragi: 7  fragj: 11

>  <atom.prop.CHAIN_ID>  (1871) 
A A A A A A A Z Z Z Z Z Z Z Z Z Z Z

>  <atom.prop.IS_HEAVY_ATOM>  (1871) 
1 0 0 0 1 1 1 1 0 0 0 1 0 0 1 0 0 0

>  <DIFUSE_FUNC_ATOM>  (1871) 
atom 6   atom 7   

>  <FINAL_SINGLE_POINT_ENERGY>  (1871) 
0

>  <NONCOV_INTER_ENERGY_QM>  (1871) 
0

>  <FF_Energy>  (1871) 
17.8

>  <QM_Energy>  (1871) 
-2.22

>  <source>  (1871) 
ACET_PRPA_24

>  <Index>  (1871) 
35717

$$$$
ACET-pdb5igo-B-GLU-406:PRPA-pdb5igo-B-GLN-411
     RDKit          3D

 18 16  0  0  0  0  0  0  0  0999 V2000
    0.1771    1.4856    0.0160 C   0  0  0  0  0  0  0  0  0  0  0  0
    0.6953    1.7408   -0.8008 H   0  0  0  0  0  0  0  0  0  0  0  0
    0.7069    1.7211    0.8310 H   0  0  0  0  0  0  0  0  0  0  0  0
   -0.7337    2.0841    0.0285 H   0  0  0  0  0  0  0  0  0  0  0  0
    0.0000    0.0000    0.0000 C   0  0  0  0  0  0  0  0  0  0  0  0
   -1.0895   -0.5572   -0.0000 O   0  0  0  0  0  1  0  0  0  0  0  0
    1.0895   -0.6092    0.0000 O   0  0  0  0  0  0  0  0  0  0  0  0
    1.0352   -3.3994    1.9761 C   0  0  0  0  0  0  0  0  0  0  0  0
    1.5176   -2.5190    1.9055 H   0  0  0  0  0  0  0  0  0  0  0  0
    1.0444   -3.8738    0.9947 H   0  0  0  0  0  0  0  0  0  0  0  0
    1.5703   -4.0123    2.7014 H   0  0  0  0  0  0  0  0  0  0  0  0
   -0.4098   -3.2005    2.4116 C   0  0  0  0  0  0  0  0  0  0  0  0
   -0.8198   -4.0912    2.5891 H   0  0  0  0  0  0  0  0  0  0  0  0
   -0.4243   -2.6472    3.2420 H   0  0  0  0  0  0  0  0  0  0  0  0
   -1.2414   -2.4973    1.3583 C   0  0  0  0  0  0  0  0  0  0  0  0
   -0.6885   -2.3851    0.5368 H   0  0  0  0  0  0  0  0  0  0  0  0
   -2.0420   -3.0565    1.1572 H   0  0  0  0  0  0  0  0  0  0  0  0
   -1.5709   -1.5160    1.6998 H   0  0  0  0  0  0  0  0  0  0  0  0
  1  5  1  0
  5  6  1  0
  5  7  2  0
  1  2  1  0
  1  3  1  0
  1  4  1  0
  8 12  1  0
 12 15  1  0
  8  9  1  0
  8 10  1  0
  8 11  1  0
 12 13  1  0
 12 14  1  0
 15 16  1  0
 15 17  1  0
 15 18  1  0
M  CHG  1   6  -1
M  END
>  <PDB_ID>  (1872) 
pdb5igo

>  <RESIDUE_NAME>  (1872) 
GLU   GLN

>  <FRAG_NAME>  (1872) 
ACET   PRPA

>  <FRAG_ATOM_NUM>  (1872) 
fragi: 7  fragj: 11

>  <atom.prop.CHAIN_ID>  (1872) 
A A A A A A A Z Z Z Z Z Z Z Z Z Z Z

>  <atom.prop.IS_HEAVY_ATOM>  (1872) 
1 0 0 0 1 1 1 1 0 0 0 1 0 0 1 0 0 0

>  <DIFUSE_FUNC_ATOM>  (1872) 
atom 6   atom 7   

>  <FINAL_SINGLE_POINT_ENERGY>  (1872) 
0

>  <NONCOV_INTER_ENERGY_QM>  (1872) 
0

>  <FF_Energy>  (1872) 
37.32

>  <QM_Energy>  (1872) 
11.59

>  <source>  (1872) 
ACET_PRPA_24

>  <Index>  (1872) 
36913

$$$$
ACET-pdb5h9f-F-ASP-135:PRPA-pdb5h9f-F-LYS-138
     RDKit          3D

 18 16  0  0  0  0  0  0  0  0999 V2000
    0.0061    1.5094   -0.0002 C   0  0  0  0  0  0  0  0  0  0  0  0
    0.1837    1.8304   -0.9252 H   0  0  0  0  0  0  0  0  0  0  0  0
    0.7162    1.8285    0.6175 H   0  0  0  0  0  0  0  0  0  0  0  0
   -0.9430    1.9339    0.3272 H   0  0  0  0  0  0  0  0  0  0  0  0
    0.0000    0.0000    0.0000 C   0  0  0  0  0  0  0  0  0  0  0  0
   -1.0977   -0.5902   -0.0000 O   0  0  0  0  0  1  0  0  0  0  0  0
    1.0977   -0.5940    0.0000 O   0  0  0  0  0  0  0  0  0  0  0  0
   -4.3464   -2.0384   -1.4139 C   0  0  0  0  0  0  0  0  0  0  0  0
   -4.3739   -2.9704   -1.7953 H   0  0  0  0  0  0  0  0  0  0  0  0
   -3.6361   -1.4437   -1.9881 H   0  0  0  0  0  0  0  0  0  0  0  0
   -5.3462   -1.6077   -1.4691 H   0  0  0  0  0  0  0  0  0  0  0  0
   -3.9040   -2.1515    0.0444 C   0  0  0  0  0  0  0  0  0  0  0  0
   -3.8623   -1.2298    0.4316 H   0  0  0  0  0  0  0  0  0  0  0  0
   -4.5905   -2.6867    0.5384 H   0  0  0  0  0  0  0  0  0  0  0  0
   -2.5469   -2.8133    0.2483 C   0  0  0  0  0  0  0  0  0  0  0  0
   -2.5786   -3.7407   -0.1294 H   0  0  0  0  0  0  0  0  0  0  0  0
   -1.8497   -2.2833   -0.2367 H   0  0  0  0  0  0  0  0  0  0  0  0
   -2.2795   -2.8703    1.3034 H   0  0  0  0  0  0  0  0  0  0  0  0
  1  5  1  0
  5  6  1  0
  5  7  2  0
  1  2  1  0
  1  3  1  0
  1  4  1  0
  8 12  1  0
 12 15  1  0
  8  9  1  0
  8 10  1  0
  8 11  1  0
 12 13  1  0
 12 14  1  0
 15 16  1  0
 15 17  1  0
 15 18  1  0
M  CHG  1   6  -1
M  END
>  <PDB_ID>  (1873) 
pdb5h9f

>  <RESIDUE_NAME>  (1873) 
ASP   LYS

>  <FRAG_NAME>  (1873) 
ACET   PRPA

>  <FRAG_ATOM_NUM>  (1873) 
fragi: 7  fragj: 11

>  <atom.prop.CHAIN_ID>  (1873) 
A A A A A A A Z Z Z Z Z Z Z Z Z Z Z

>  <atom.prop.IS_HEAVY_ATOM>  (1873) 
1 0 0 0 1 1 1 1 0 0 0 1 0 0 1 0 0 0

>  <DIFUSE_FUNC_ATOM>  (1873) 
atom 6   atom 7   

>  <FINAL_SINGLE_POINT_ENERGY>  (1873) 
0

>  <NONCOV_INTER_ENERGY_QM>  (1873) 
0

>  <FF_Energy>  (1873) 
20.44

>  <QM_Energy>  (1873) 
0.64

>  <source>  (1873) 
ACET_PRPA_24

>  <Index>  (1873) 
37698

$$$$
ACET-pdb5h9f-F-ASP-135:PRPA-pdb5h9f-F-LYS-138
     RDKit          3D

 18 16  0  0  0  0  0  0  0  0999 V2000
    0.0061    1.5094   -0.0002 C   0  0  0  0  0  0  0  0  0  0  0  0
    0.1837    1.8304   -0.9252 H   0  0  0  0  0  0  0  0  0  0  0  0
    0.7162    1.8285    0.6175 H   0  0  0  0  0  0  0  0  0  0  0  0
   -0.9430    1.9339    0.3272 H   0  0  0  0  0  0  0  0  0  0  0  0
    0.0000    0.0000    0.0000 C   0  0  0  0  0  0  0  0  0  0  0  0
   -1.0977   -0.5902   -0.0000 O   0  0  0  0  0  1  0  0  0  0  0  0
    1.0977   -0.5940    0.0000 O   0  0  0  0  0  0  0  0  0  0  0  0
   -3.9040   -2.1515    0.0444 C   0  0  0  0  0  0  0  0  0  0  0  0
   -3.8623   -1.2298    0.4316 H   0  0  0  0  0  0  0  0  0  0  0  0
   -4.5905   -2.6867    0.5384 H   0  0  0  0  0  0  0  0  0  0  0  0
   -4.2195   -2.0709   -0.9958 H   0  0  0  0  0  0  0  0  0  0  0  0
   -2.5469   -2.8133    0.2483 C   0  0  0  0  0  0  0  0  0  0  0  0
   -2.5786   -3.7407   -0.1294 H   0  0  0  0  0  0  0  0  0  0  0  0
   -1.8497   -2.2833   -0.2367 H   0  0  0  0  0  0  0  0  0  0  0  0
   -2.1746   -2.8926    1.7170 C   0  0  0  0  0  0  0  0  0  0  0  0
   -2.1470   -1.9646    2.0916 H   0  0  0  0  0  0  0  0  0  0  0  0
   -2.8738   -3.4232    2.1984 H   0  0  0  0  0  0  0  0  0  0  0  0
   -1.2055   -3.3642    1.8797 H   0  0  0  0  0  0  0  0  0  0  0  0
  1  5  1  0
  5  6  1  0
  5  7  2  0
  1  2  1  0
  1  3  1  0
  1  4  1  0
  8 12  1  0
 12 15  1  0
  8  9  1  0
  8 10  1  0
  8 11  1  0
 12 13  1  0
 12 14  1  0
 15 16  1  0
 15 17  1  0
 15 18  1  0
M  CHG  1   6  -1
M  END
>  <PDB_ID>  (1874) 
pdb5h9f

>  <RESIDUE_NAME>  (1874) 
ASP   LYS

>  <FRAG_NAME>  (1874) 
ACET   PRPA

>  <FRAG_ATOM_NUM>  (1874) 
fragi: 7  fragj: 11

>  <atom.prop.CHAIN_ID>  (1874) 
A A A A A A A Z Z Z Z Z Z Z Z Z Z Z

>  <atom.prop.IS_HEAVY_ATOM>  (1874) 
1 0 0 0 1 1 1 1 0 0 0 1 0 0 1 0 0 0

>  <DIFUSE_FUNC_ATOM>  (1874) 
atom 6   atom 7   

>  <FINAL_SINGLE_POINT_ENERGY>  (1874) 
0

>  <NONCOV_INTER_ENERGY_QM>  (1874) 
0

>  <FF_Energy>  (1874) 
23.58

>  <QM_Energy>  (1874) 
-0.45

>  <source>  (1874) 
ACET_PRPA_24

>  <Index>  (1874) 
37700

$$$$
ACET-pdb5h9f-F-ASP-135:PRPA-pdb5h9f-F-LYS-138
     RDKit          3D

 18 16  0  0  0  0  0  0  0  0999 V2000
    0.0061    1.5094   -0.0002 C   0  0  0  0  0  0  0  0  0  0  0  0
    0.1837    1.8304   -0.9252 H   0  0  0  0  0  0  0  0  0  0  0  0
    0.7162    1.8285    0.6175 H   0  0  0  0  0  0  0  0  0  0  0  0
   -0.9430    1.9339    0.3272 H   0  0  0  0  0  0  0  0  0  0  0  0
    0.0000    0.0000    0.0000 C   0  0  0  0  0  0  0  0  0  0  0  0
   -1.0977   -0.5902   -0.0000 O   0  0  0  0  0  1  0  0  0  0  0  0
    1.0977   -0.5940    0.0000 O   0  0  0  0  0  0  0  0  0  0  0  0
   -2.5469   -2.8133    0.2483 C   0  0  0  0  0  0  0  0  0  0  0  0
   -2.5786   -3.7407   -0.1294 H   0  0  0  0  0  0  0  0  0  0  0  0
   -1.8497   -2.2833   -0.2367 H   0  0  0  0  0  0  0  0  0  0  0  0
   -3.5178   -2.3399    0.1024 H   0  0  0  0  0  0  0  0  0  0  0  0
   -2.1746   -2.8926    1.7170 C   0  0  0  0  0  0  0  0  0  0  0  0
   -2.1470   -1.9646    2.0916 H   0  0  0  0  0  0  0  0  0  0  0  0
   -2.8738   -3.4232    2.1984 H   0  0  0  0  0  0  0  0  0  0  0  0
   -0.8314   -3.5463    1.9425 C   0  0  0  0  0  0  0  0  0  0  0  0
   -0.8528   -4.4772    1.5754 H   0  0  0  0  0  0  0  0  0  0  0  0
   -0.1254   -3.0186    1.4695 H   0  0  0  0  0  0  0  0  0  0  0  0
   -0.5956   -3.5862    3.0060 H   0  0  0  0  0  0  0  0  0  0  0  0
  1  5  1  0
  5  6  1  0
  5  7  2  0
  1  2  1  0
  1  3  1  0
  1  4  1  0
  8 12  1  0
 12 15  1  0
  8  9  1  0
  8 10  1  0
  8 11  1  0
 12 13  1  0
 12 14  1  0
 15 16  1  0
 15 17  1  0
 15 18  1  0
M  CHG  1   6  -1
M  END
>  <PDB_ID>  (1875) 
pdb5h9f

>  <RESIDUE_NAME>  (1875) 
ASP   LYS

>  <FRAG_NAME>  (1875) 
ACET   PRPA

>  <FRAG_ATOM_NUM>  (1875) 
fragi: 7  fragj: 11

>  <atom.prop.CHAIN_ID>  (1875) 
A A A A A A A Z Z Z Z Z Z Z Z Z Z Z

>  <atom.prop.IS_HEAVY_ATOM>  (1875) 
1 0 0 0 1 1 1 1 0 0 0 1 0 0 1 0 0 0

>  <DIFUSE_FUNC_ATOM>  (1875) 
atom 6   atom 7   

>  <FINAL_SINGLE_POINT_ENERGY>  (1875) 
0

>  <NONCOV_INTER_ENERGY_QM>  (1875) 
0

>  <FF_Energy>  (1875) 
20.78

>  <QM_Energy>  (1875) 
-1.0

>  <source>  (1875) 
ACET_PRPA_24

>  <Index>  (1875) 
37706

$$$$
ACET-pdb5ixg-A-ASP-96:PRPA-pdb5ixg-A-VAL-101
     RDKit          3D

 18 16  0  0  0  0  0  0  0  0999 V2000
    0.0319    1.5363    0.0205 C   0  0  0  0  0  0  0  0  0  0  0  0
    0.6113    1.8487   -0.7328 H   0  0  0  0  0  0  0  0  0  0  0  0
    0.4293    1.8312    0.8891 H   0  0  0  0  0  0  0  0  0  0  0  0
   -0.9392    2.0205   -0.0831 H   0  0  0  0  0  0  0  0  0  0  0  0
    0.0000    0.0000    0.0000 C   0  0  0  0  0  0  0  0  0  0  0  0
   -1.1919   -0.5212   -0.0000 O   0  0  0  0  0  1  0  0  0  0  0  0
    1.1919   -0.5901    0.0000 O   0  0  0  0  0  0  0  0  0  0  0  0
    3.3708    5.2216   -0.4607 C   0  0  0  0  0  0  0  0  0  0  0  0
    3.8799    5.1294    0.4170 H   0  0  0  0  0  0  0  0  0  0  0  0
    2.6107    5.9929   -0.3365 H   0  0  0  0  0  0  0  0  0  0  0  0
    4.0998    5.4463   -1.2392 H   0  0  0  0  0  0  0  0  0  0  0  0
    2.7714    3.8398   -0.7510 C   0  0  0  0  0  0  0  0  0  0  0  0
    3.5159    3.2131   -0.8808 H   0  0  0  0  0  0  0  0  0  0  0  0
    2.2084    3.8049   -1.6836 H   0  0  0  0  0  0  0  0  0  0  0  0
    2.0436    3.4263    0.4973 C   0  0  0  0  0  0  0  0  0  0  0  0
    1.1285    3.8369    0.5132 H   0  0  0  0  0  0  0  0  0  0  0  0
    1.9525    2.4280    0.5275 H   0  0  0  0  0  0  0  0  0  0  0  0
    2.5507    3.7309    1.3071 H   0  0  0  0  0  0  0  0  0  0  0  0
  1  5  1  0
  5  6  1  0
  5  7  2  0
  1  2  1  0
  1  3  1  0
  1  4  1  0
  8 12  1  0
 12 15  1  0
  8  9  1  0
  8 10  1  0
  8 11  1  0
 12 13  1  0
 12 14  1  0
 15 16  1  0
 15 17  1  0
 15 18  1  0
M  CHG  1   6  -1
M  END
>  <PDB_ID>  (1876) 
pdb5ixg

>  <RESIDUE_NAME>  (1876) 
ASP   VAL

>  <FRAG_NAME>  (1876) 
ACET   PRPA

>  <FRAG_ATOM_NUM>  (1876) 
fragi: 7  fragj: 11

>  <atom.prop.CHAIN_ID>  (1876) 
A A A A A A A Z Z Z Z Z Z Z Z Z Z Z

>  <atom.prop.IS_HEAVY_ATOM>  (1876) 
1 0 0 0 1 1 1 1 0 0 0 1 0 0 1 0 0 0

>  <DIFUSE_FUNC_ATOM>  (1876) 
atom 6   atom 7   

>  <FINAL_SINGLE_POINT_ENERGY>  (1876) 
0

>  <NONCOV_INTER_ENERGY_QM>  (1876) 
0

>  <FF_Energy>  (1876) 
24.23

>  <QM_Energy>  (1876) 
8.25

>  <source>  (1876) 
ACET_PRPA_24

>  <Index>  (1876) 
38191

$$$$
ACET-pdb5ixg-A-ASP-96:PRPA-pdb5ixg-A-VAL-101
     RDKit          3D

 18 16  0  0  0  0  0  0  0  0999 V2000
    0.0319    1.5363    0.0205 C   0  0  0  0  0  0  0  0  0  0  0  0
    0.6113    1.8487   -0.7328 H   0  0  0  0  0  0  0  0  0  0  0  0
    0.4293    1.8312    0.8891 H   0  0  0  0  0  0  0  0  0  0  0  0
   -0.9392    2.0205   -0.0831 H   0  0  0  0  0  0  0  0  0  0  0  0
    0.0000    0.0000    0.0000 C   0  0  0  0  0  0  0  0  0  0  0  0
   -1.1919   -0.5212   -0.0000 O   0  0  0  0  0  1  0  0  0  0  0  0
    1.1919   -0.5901    0.0000 O   0  0  0  0  0  0  0  0  0  0  0  0
    2.0436    3.4263    0.4973 C   0  0  0  0  0  0  0  0  0  0  0  0
    1.1285    3.8369    0.5132 H   0  0  0  0  0  0  0  0  0  0  0  0
    1.9525    2.4280    0.5275 H   0  0  0  0  0  0  0  0  0  0  0  0
    2.5507    3.7309    1.3071 H   0  0  0  0  0  0  0  0  0  0  0  0
    2.7714    3.8398   -0.7510 C   0  0  0  0  0  0  0  0  0  0  0  0
    3.5159    3.2131   -0.8808 H   0  0  0  0  0  0  0  0  0  0  0  0
    3.1973    4.8218   -0.5447 H   0  0  0  0  0  0  0  0  0  0  0  0
    1.9852    3.7910   -2.0532 C   0  0  0  0  0  0  0  0  0  0  0  0
    1.4715    2.9340   -2.0971 H   0  0  0  0  0  0  0  0  0  0  0  0
    1.3528    4.5649   -2.0858 H   0  0  0  0  0  0  0  0  0  0  0  0
    2.6193    3.8422   -2.8242 H   0  0  0  0  0  0  0  0  0  0  0  0
  1  5  1  0
  5  6  1  0
  5  7  2  0
  1  2  1  0
  1  3  1  0
  1  4  1  0
  8 12  1  0
 12 15  1  0
  8  9  1  0
  8 10  1  0
  8 11  1  0
 12 13  1  0
 12 14  1  0
 15 16  1  0
 15 17  1  0
 15 18  1  0
M  CHG  1   6  -1
M  END
>  <PDB_ID>  (1877) 
pdb5ixg

>  <RESIDUE_NAME>  (1877) 
ASP   VAL

>  <FRAG_NAME>  (1877) 
ACET   PRPA

>  <FRAG_ATOM_NUM>  (1877) 
fragi: 7  fragj: 11

>  <atom.prop.CHAIN_ID>  (1877) 
A A A A A A A Z Z Z Z Z Z Z Z Z Z Z

>  <atom.prop.IS_HEAVY_ATOM>  (1877) 
1 0 0 0 1 1 1 1 0 0 0 1 0 0 1 0 0 0

>  <DIFUSE_FUNC_ATOM>  (1877) 
atom 6   atom 7   

>  <FINAL_SINGLE_POINT_ENERGY>  (1877) 
0

>  <NONCOV_INTER_ENERGY_QM>  (1877) 
0

>  <FF_Energy>  (1877) 
25.47

>  <QM_Energy>  (1877) 
8.85

>  <source>  (1877) 
ACET_PRPA_24

>  <Index>  (1877) 
38202

$$$$
ACET-pdb6jhw-A-ASP-38:PRPA-pdb6jhw-A-LEU-41
     RDKit          3D

 18 16  0  0  0  0  0  0  0  0999 V2000
    0.0188    1.5342    0.0102 C   0  0  0  0  0  0  0  0  0  0  0  0
    0.7507    1.8436   -0.6040 H   0  0  0  0  0  0  0  0  0  0  0  0
    0.2275    1.8401    0.9427 H   0  0  0  0  0  0  0  0  0  0  0  0
   -0.9048    2.0223   -0.3009 H   0  0  0  0  0  0  0  0  0  0  0  0
    0.0000    0.0000    0.0000 C   0  0  0  0  0  0  0  0  0  0  0  0
   -1.1167   -0.6081    0.0000 O   0  0  0  0  0  1  0  0  0  0  0  0
    1.1167   -0.6052    0.0000 O   0  0  0  0  0  0  0  0  0  0  0  0
    2.0851    0.5391   -4.0075 C   0  0  0  0  0  0  0  0  0  0  0  0
    1.2384    0.1669   -3.6390 H   0  0  0  0  0  0  0  0  0  0  0  0
    2.7246   -0.1931   -4.2132 H   0  0  0  0  0  0  0  0  0  0  0  0
    1.8497    1.0544   -4.9387 H   0  0  0  0  0  0  0  0  0  0  0  0
    2.7150    1.4029   -2.9167 C   0  0  0  0  0  0  0  0  0  0  0  0
    2.1308    2.2009   -2.7616 H   0  0  0  0  0  0  0  0  0  0  0  0
    3.6817    1.7994   -3.2268 H   0  0  0  0  0  0  0  0  0  0  0  0
    2.8567    0.6186   -1.6404 C   0  0  0  0  0  0  0  0  0  0  0  0
    3.4405   -0.1829   -1.7928 H   0  0  0  0  0  0  0  0  0  0  0  0
    3.2707    1.1925   -0.9298 H   0  0  0  0  0  0  0  0  0  0  0  0
    1.9556    0.3102   -1.3253 H   0  0  0  0  0  0  0  0  0  0  0  0
  1  5  1  0
  5  6  1  0
  5  7  2  0
  1  2  1  0
  1  3  1  0
  1  4  1  0
  8 12  1  0
 12 15  1  0
  8  9  1  0
  8 10  1  0
  8 11  1  0
 12 13  1  0
 12 14  1  0
 15 16  1  0
 15 17  1  0
 15 18  1  0
M  CHG  1   6  -1
M  END
>  <PDB_ID>  (1878) 
pdb6jhw

>  <RESIDUE_NAME>  (1878) 
ASP   LEU

>  <FRAG_NAME>  (1878) 
ACET   PRPA

>  <FRAG_ATOM_NUM>  (1878) 
fragi: 7  fragj: 11

>  <atom.prop.CHAIN_ID>  (1878) 
A A A A A A A Z Z Z Z Z Z Z Z Z Z Z

>  <atom.prop.IS_HEAVY_ATOM>  (1878) 
1 0 0 0 1 1 1 1 0 0 0 1 0 0 1 0 0 0

>  <DIFUSE_FUNC_ATOM>  (1878) 
atom 6   atom 7   

>  <FINAL_SINGLE_POINT_ENERGY>  (1878) 
0

>  <NONCOV_INTER_ENERGY_QM>  (1878) 
0

>  <FF_Energy>  (1878) 
28.95

>  <QM_Energy>  (1878) 
3.45

>  <source>  (1878) 
ACET_PRPA_24

>  <Index>  (1878) 
38728

$$$$
ACET-pdb6jhw-A-ASP-38:PRPA-pdb6jhw-A-LEU-41
     RDKit          3D

 18 16  0  0  0  0  0  0  0  0999 V2000
    0.0188    1.5342    0.0102 C   0  0  0  0  0  0  0  0  0  0  0  0
    0.7507    1.8436   -0.6040 H   0  0  0  0  0  0  0  0  0  0  0  0
    0.2275    1.8401    0.9427 H   0  0  0  0  0  0  0  0  0  0  0  0
   -0.9048    2.0223   -0.3009 H   0  0  0  0  0  0  0  0  0  0  0  0
    0.0000    0.0000    0.0000 C   0  0  0  0  0  0  0  0  0  0  0  0
   -1.1167   -0.6081    0.0000 O   0  0  0  0  0  1  0  0  0  0  0  0
    1.1167   -0.6052    0.0000 O   0  0  0  0  0  0  0  0  0  0  0  0
    2.8567    0.6186   -1.6404 C   0  0  0  0  0  0  0  0  0  0  0  0
    3.4405   -0.1829   -1.7928 H   0  0  0  0  0  0  0  0  0  0  0  0
    3.2707    1.1925   -0.9298 H   0  0  0  0  0  0  0  0  0  0  0  0
    1.9556    0.3102   -1.3253 H   0  0  0  0  0  0  0  0  0  0  0  0
    2.7150    1.4029   -2.9167 C   0  0  0  0  0  0  0  0  0  0  0  0
    2.1308    2.2009   -2.7616 H   0  0  0  0  0  0  0  0  0  0  0  0
    2.2654    0.7865   -3.6951 H   0  0  0  0  0  0  0  0  0  0  0  0
    4.0602    1.9547   -3.3483 C   0  0  0  0  0  0  0  0  0  0  0  0
    3.9455    2.5179   -4.1684 H   0  0  0  0  0  0  0  0  0  0  0  0
    4.4460    2.5152   -2.6134 H   0  0  0  0  0  0  0  0  0  0  0  0
    4.6856    1.1992   -3.5512 H   0  0  0  0  0  0  0  0  0  0  0  0
  1  5  1  0
  5  6  1  0
  5  7  2  0
  1  2  1  0
  1  3  1  0
  1  4  1  0
  8 12  1  0
 12 15  1  0
  8  9  1  0
  8 10  1  0
  8 11  1  0
 12 13  1  0
 12 14  1  0
 15 16  1  0
 15 17  1  0
 15 18  1  0
M  CHG  1   6  -1
M  END
>  <PDB_ID>  (1879) 
pdb6jhw

>  <RESIDUE_NAME>  (1879) 
ASP   LEU

>  <FRAG_NAME>  (1879) 
ACET   PRPA

>  <FRAG_ATOM_NUM>  (1879) 
fragi: 7  fragj: 11

>  <atom.prop.CHAIN_ID>  (1879) 
A A A A A A A Z Z Z Z Z Z Z Z Z Z Z

>  <atom.prop.IS_HEAVY_ATOM>  (1879) 
1 0 0 0 1 1 1 1 0 0 0 1 0 0 1 0 0 0

>  <DIFUSE_FUNC_ATOM>  (1879) 
atom 6   atom 7   

>  <FINAL_SINGLE_POINT_ENERGY>  (1879) 
0

>  <NONCOV_INTER_ENERGY_QM>  (1879) 
0

>  <FF_Energy>  (1879) 
28.78

>  <QM_Energy>  (1879) 
4.4

>  <source>  (1879) 
ACET_PRPA_24

>  <Index>  (1879) 
38744

$$$$
ACET-pdb5ids-C-GLU-270:PRPA-pdb5ids-C-LEU-289
     RDKit          3D

 18 16  0  0  0  0  0  0  0  0999 V2000
    0.1769    1.4861    0.0132 C   0  0  0  0  0  0  0  0  0  0  0  0
    0.6951    1.7393   -0.8034 H   0  0  0  0  0  0  0  0  0  0  0  0
    0.7076    1.7222    0.8280 H   0  0  0  0  0  0  0  0  0  0  0  0
   -0.7341    2.0844    0.0251 H   0  0  0  0  0  0  0  0  0  0  0  0
    0.0000    0.0000    0.0000 C   0  0  0  0  0  0  0  0  0  0  0  0
   -1.0893   -0.5566    0.0000 O   0  0  0  0  0  1  0  0  0  0  0  0
    1.0893   -0.6089    0.0000 O   0  0  0  0  0  0  0  0  0  0  0  0
    2.4481    3.1136   -1.6284 C   0  0  0  0  0  0  0  0  0  0  0  0
    1.8399    2.3202   -1.6604 H   0  0  0  0  0  0  0  0  0  0  0  0
    2.0517    3.8127   -1.0325 H   0  0  0  0  0  0  0  0  0  0  0  0
    2.5580    3.4865   -2.5507 H   0  0  0  0  0  0  0  0  0  0  0  0
    3.8053    2.6923   -1.0854 C   0  0  0  0  0  0  0  0  0  0  0  0
    4.4101    3.4863   -1.0558 H   0  0  0  0  0  0  0  0  0  0  0  0
    4.2435    1.9304   -1.7301 H   0  0  0  0  0  0  0  0  0  0  0  0
    3.6702    2.1294    0.3161 C   0  0  0  0  0  0  0  0  0  0  0  0
    4.5733    1.8712    0.6649 H   0  0  0  0  0  0  0  0  0  0  0  0
    3.2680    2.8202    0.9197 H   0  0  0  0  0  0  0  0  0  0  0  0
    3.0792    1.3207    0.2995 H   0  0  0  0  0  0  0  0  0  0  0  0
  1  5  1  0
  5  6  1  0
  5  7  2  0
  1  2  1  0
  1  3  1  0
  1  4  1  0
  8 12  1  0
 12 15  1  0
  8  9  1  0
  8 10  1  0
  8 11  1  0
 12 13  1  0
 12 14  1  0
 15 16  1  0
 15 17  1  0
 15 18  1  0
M  CHG  1   6  -1
M  END
>  <PDB_ID>  (1880) 
pdb5ids

>  <RESIDUE_NAME>  (1880) 
GLU   LEU

>  <FRAG_NAME>  (1880) 
ACET   PRPA

>  <FRAG_ATOM_NUM>  (1880) 
fragi: 7  fragj: 11

>  <atom.prop.CHAIN_ID>  (1880) 
A A A A A A A Z Z Z Z Z Z Z Z Z Z Z

>  <atom.prop.IS_HEAVY_ATOM>  (1880) 
1 0 0 0 1 1 1 1 0 0 0 1 0 0 1 0 0 0

>  <DIFUSE_FUNC_ATOM>  (1880) 
atom 6   atom 7   

>  <FINAL_SINGLE_POINT_ENERGY>  (1880) 
0

>  <NONCOV_INTER_ENERGY_QM>  (1880) 
0

>  <FF_Energy>  (1880) 
19.45

>  <QM_Energy>  (1880) 
1.86

>  <source>  (1880) 
ACET_PRPA_25

>  <Index>  (1880) 
563

$$$$
ACET-pdb6k93-A-ASP-164:PRPA-pdb6k93-A-ARG-225
     RDKit          3D

 18 16  0  0  0  0  0  0  0  0999 V2000
    0.0358    1.5280    0.0124 C   0  0  0  0  0  0  0  0  0  0  0  0
    0.5338    1.8172   -0.7681 H   0  0  0  0  0  0  0  0  0  0  0  0
    0.4966    1.8047    0.8204 H   0  0  0  0  0  0  0  0  0  0  0  0
   -0.9478    1.9971   -0.0070 H   0  0  0  0  0  0  0  0  0  0  0  0
    0.0000    0.0000    0.0000 C   0  0  0  0  0  0  0  0  0  0  0  0
   -1.0798   -0.5613   -0.0000 O   0  0  0  0  0  1  0  0  0  0  0  0
    1.0798   -0.6186    0.0000 O   0  0  0  0  0  0  0  0  0  0  0  0
   -4.7300   -1.1697    2.0164 C   0  0  0  0  0  0  0  0  0  0  0  0
   -5.2582   -1.9126    2.3476 H   0  0  0  0  0  0  0  0  0  0  0  0
   -4.5788   -1.2694    1.0633 H   0  0  0  0  0  0  0  0  0  0  0  0
   -5.2649   -0.2380    2.2002 H   0  0  0  0  0  0  0  0  0  0  0  0
   -3.3806   -1.1888    2.7201 C   0  0  0  0  0  0  0  0  0  0  0  0
   -3.0337   -0.2846    2.7665 H   0  0  0  0  0  0  0  0  0  0  0  0
   -3.4942   -1.5463    3.6151 H   0  0  0  0  0  0  0  0  0  0  0  0
   -2.3145   -2.0891    1.9618 C   0  0  0  0  0  0  0  0  0  0  0  0
   -2.0671   -1.6727    1.1209 H   0  0  0  0  0  0  0  0  0  0  0  0
   -1.5283   -2.2098    2.5165 H   0  0  0  0  0  0  0  0  0  0  0  0
   -2.7612   -3.0626    1.7594 H   0  0  0  0  0  0  0  0  0  0  0  0
  1  5  1  0
  5  6  1  0
  5  7  2  0
  1  2  1  0
  1  3  1  0
  1  4  1  0
  8 12  1  0
 12 15  1  0
  8  9  1  0
  8 10  1  0
  8 11  1  0
 12 13  1  0
 12 14  1  0
 15 16  1  0
 15 17  1  0
 15 18  1  0
M  CHG  1   6  -1
M  END
>  <PDB_ID>  (1881) 
pdb6k93

>  <RESIDUE_NAME>  (1881) 
ASP   ARG

>  <FRAG_NAME>  (1881) 
ACET   PRPA

>  <FRAG_ATOM_NUM>  (1881) 
fragi: 7  fragj: 11

>  <atom.prop.CHAIN_ID>  (1881) 
A A A A A A A Z Z Z Z Z Z Z Z Z Z Z

>  <atom.prop.IS_HEAVY_ATOM>  (1881) 
1 0 0 0 1 1 1 1 0 0 0 1 0 0 1 0 0 0

>  <DIFUSE_FUNC_ATOM>  (1881) 
atom 6   atom 7   

>  <FINAL_SINGLE_POINT_ENERGY>  (1881) 
0

>  <NONCOV_INTER_ENERGY_QM>  (1881) 
0

>  <FF_Energy>  (1881) 
18.41

>  <QM_Energy>  (1881) 
-0.55

>  <source>  (1881) 
ACET_PRPA_25

>  <Index>  (1881) 
2630

$$$$
ACET-pdb5jbo-A-GLU-13:PRPA-pdb5jbo-A-LYS-76
     RDKit          3D

 18 16  0  0  0  0  0  0  0  0999 V2000
   -0.0060    1.5089    0.0084 C   0  0  0  0  0  0  0  0  0  0  0  0
    0.2407    1.8133   -0.8907 H   0  0  0  0  0  0  0  0  0  0  0  0
    0.6301    1.8049    0.6949 H   0  0  0  0  0  0  0  0  0  0  0  0
   -0.9903    1.9097    0.2508 H   0  0  0  0  0  0  0  0  0  0  0  0
    0.0000    0.0000    0.0000 C   0  0  0  0  0  0  0  0  0  0  0  0
   -1.1007   -0.5953    0.0000 O   0  0  0  0  0  1  0  0  0  0  0  0
    1.1007   -0.5902    0.0000 O   0  0  0  0  0  0  0  0  0  0  0  0
    2.8068    3.3681    2.2045 C   0  0  0  0  0  0  0  0  0  0  0  0
    2.5730    3.9215    1.4050 H   0  0  0  0  0  0  0  0  0  0  0  0
    3.0051    2.4316    1.9178 H   0  0  0  0  0  0  0  0  0  0  0  0
    3.6924    3.7896    2.6799 H   0  0  0  0  0  0  0  0  0  0  0  0
    1.6230    3.3522    3.1562 C   0  0  0  0  0  0  0  0  0  0  0  0
    1.8610    2.8016    3.9554 H   0  0  0  0  0  0  0  0  0  0  0  0
    1.4280    4.2900    3.4428 H   0  0  0  0  0  0  0  0  0  0  0  0
    0.3779    2.7713    2.5211 C   0  0  0  0  0  0  0  0  0  0  0  0
    0.1311    3.3193    1.7233 H   0  0  0  0  0  0  0  0  0  0  0  0
    0.5638    1.8319    2.2361 H   0  0  0  0  0  0  0  0  0  0  0  0
   -0.4509    2.7745    3.2290 H   0  0  0  0  0  0  0  0  0  0  0  0
  1  5  1  0
  5  6  1  0
  5  7  2  0
  1  2  1  0
  1  3  1  0
  1  4  1  0
  8 12  1  0
 12 15  1  0
  8  9  1  0
  8 10  1  0
  8 11  1  0
 12 13  1  0
 12 14  1  0
 15 16  1  0
 15 17  1  0
 15 18  1  0
M  CHG  1   6  -1
M  END
>  <PDB_ID>  (1882) 
pdb5jbo

>  <RESIDUE_NAME>  (1882) 
GLU   LYS

>  <FRAG_NAME>  (1882) 
ACET   PRPA

>  <FRAG_ATOM_NUM>  (1882) 
fragi: 7  fragj: 11

>  <atom.prop.CHAIN_ID>  (1882) 
A A A A A A A Z Z Z Z Z Z Z Z Z Z Z

>  <atom.prop.IS_HEAVY_ATOM>  (1882) 
1 0 0 0 1 1 1 1 0 0 0 1 0 0 1 0 0 0

>  <DIFUSE_FUNC_ATOM>  (1882) 
atom 6   atom 7   

>  <FINAL_SINGLE_POINT_ENERGY>  (1882) 
0

>  <NONCOV_INTER_ENERGY_QM>  (1882) 
0

>  <FF_Energy>  (1882) 
38.93

>  <QM_Energy>  (1882) 
9.11

>  <source>  (1882) 
ACET_PRPA_25

>  <Index>  (1882) 
3583

$$$$
ACET-pdb6k0c-A-GLU-53:PRPA-pdb6k0c-A-LYS-151
     RDKit          3D

 18 16  0  0  0  0  0  0  0  0999 V2000
   -0.0027    1.5009   -0.0016 C   0  0  0  0  0  0  0  0  0  0  0  0
    0.8487    1.8040    0.3895 H   0  0  0  0  0  0  0  0  0  0  0  0
   -0.7775    1.8008    0.5275 H   0  0  0  0  0  0  0  0  0  0  0  0
   -0.0873    1.9199   -1.0044 H   0  0  0  0  0  0  0  0  0  0  0  0
    0.0000    0.0000    0.0000 C   0  0  0  0  0  0  0  0  0  0  0  0
   -1.1108   -0.5822   -0.0000 O   0  0  0  0  0  1  0  0  0  0  0  0
    1.1108   -0.5900    0.0000 O   0  0  0  0  0  0  0  0  0  0  0  0
    3.3121    1.8871    2.3630 C   0  0  0  0  0  0  0  0  0  0  0  0
    2.4623    2.3977    2.2199 H   0  0  0  0  0  0  0  0  0  0  0  0
    4.0881    2.4504    2.0731 H   0  0  0  0  0  0  0  0  0  0  0  0
    3.4143    1.6607    3.4243 H   0  0  0  0  0  0  0  0  0  0  0  0
    3.2766    0.6269    1.5206 C   0  0  0  0  0  0  0  0  0  0  0  0
    4.1261    0.1176    1.6675 H   0  0  0  0  0  0  0  0  0  0  0  0
    2.5006    0.0662    1.8128 H   0  0  0  0  0  0  0  0  0  0  0  0
    3.1357    0.9155    0.0435 C   0  0  0  0  0  0  0  0  0  0  0  0
    2.2849    1.4196   -0.1124 H   0  0  0  0  0  0  0  0  0  0  0  0
    3.9105    1.4710   -0.2576 H   0  0  0  0  0  0  0  0  0  0  0  0
    3.1136   -0.0109   -0.5306 H   0  0  0  0  0  0  0  0  0  0  0  0
  1  5  1  0
  5  6  1  0
  5  7  2  0
  1  2  1  0
  1  3  1  0
  1  4  1  0
  8 12  1  0
 12 15  1  0
  8  9  1  0
  8 10  1  0
  8 11  1  0
 12 13  1  0
 12 14  1  0
 15 16  1  0
 15 17  1  0
 15 18  1  0
M  CHG  1   6  -1
M  END
>  <PDB_ID>  (1883) 
pdb6k0c

>  <RESIDUE_NAME>  (1883) 
GLU   LYS

>  <FRAG_NAME>  (1883) 
ACET   PRPA

>  <FRAG_ATOM_NUM>  (1883) 
fragi: 7  fragj: 11

>  <atom.prop.CHAIN_ID>  (1883) 
A A A A A A A Z Z Z Z Z Z Z Z Z Z Z

>  <atom.prop.IS_HEAVY_ATOM>  (1883) 
1 0 0 0 1 1 1 1 0 0 0 1 0 0 1 0 0 0

>  <DIFUSE_FUNC_ATOM>  (1883) 
atom 6   atom 7   

>  <FINAL_SINGLE_POINT_ENERGY>  (1883) 
0

>  <NONCOV_INTER_ENERGY_QM>  (1883) 
0

>  <FF_Energy>  (1883) 
33.35

>  <QM_Energy>  (1883) 
7.97

>  <source>  (1883) 
ACET_PRPA_25

>  <Index>  (1883) 
3733

$$$$
ACET-pdb5j7o-A-GLU-392:PRPA-pdb5j7o-A-LYS-74
     RDKit          3D

 18 16  0  0  0  0  0  0  0  0999 V2000
    0.0032    1.5164   -0.0028 C   0  0  0  0  0  0  0  0  0  0  0  0
    0.9289    1.8128   -0.1528 H   0  0  0  0  0  0  0  0  0  0  0  0
   -0.3459    1.8163    0.8664 H   0  0  0  0  0  0  0  0  0  0  0  0
   -0.6216    1.9438   -0.7871 H   0  0  0  0  0  0  0  0  0  0  0  0
    0.0000    0.0000    0.0000 C   0  0  0  0  0  0  0  0  0  0  0  0
   -1.0984   -0.5977   -0.0000 O   0  0  0  0  0  1  0  0  0  0  0  0
    1.0984   -0.5947   -0.0000 O   0  0  0  0  0  0  0  0  0  0  0  0
    1.1187   -1.4044   -4.2813 C   0  0  0  0  0  0  0  0  0  0  0  0
    0.3785   -1.8749   -4.7739 H   0  0  0  0  0  0  0  0  0  0  0  0
    1.8363   -2.0785   -4.0688 H   0  0  0  0  0  0  0  0  0  0  0  0
    1.5469   -0.6593   -4.9518 H   0  0  0  0  0  0  0  0  0  0  0  0
    0.5621   -0.8736   -2.9788 C   0  0  0  0  0  0  0  0  0  0  0  0
    1.3110   -0.5952   -2.3883 H   0  0  0  0  0  0  0  0  0  0  0  0
   -0.0401   -0.1059   -3.1639 H   0  0  0  0  0  0  0  0  0  0  0  0
   -0.2343   -1.9655   -2.2797 C   0  0  0  0  0  0  0  0  0  0  0  0
   -0.7305   -1.5656   -1.5201 H   0  0  0  0  0  0  0  0  0  0  0  0
   -0.8566   -2.3790   -2.9309 H   0  0  0  0  0  0  0  0  0  0  0  0
    0.4286   -2.7395   -1.8929 H   0  0  0  0  0  0  0  0  0  0  0  0
  1  5  1  0
  5  6  1  0
  5  7  2  0
  1  2  1  0
  1  3  1  0
  1  4  1  0
  8 12  1  0
 12 15  1  0
  8  9  1  0
  8 10  1  0
  8 11  1  0
 12 13  1  0
 12 14  1  0
 15 16  1  0
 15 17  1  0
 15 18  1  0
M  CHG  1   6  -1
M  END
>  <PDB_ID>  (1884) 
pdb5j7o

>  <RESIDUE_NAME>  (1884) 
GLU   LYS

>  <FRAG_NAME>  (1884) 
ACET   PRPA

>  <FRAG_ATOM_NUM>  (1884) 
fragi: 7  fragj: 11

>  <atom.prop.CHAIN_ID>  (1884) 
A A A A A A A Z Z Z Z Z Z Z Z Z Z Z

>  <atom.prop.IS_HEAVY_ATOM>  (1884) 
1 0 0 0 1 1 1 1 0 0 0 1 0 0 1 0 0 0

>  <DIFUSE_FUNC_ATOM>  (1884) 
atom 6   atom 7   

>  <FINAL_SINGLE_POINT_ENERGY>  (1884) 
0

>  <NONCOV_INTER_ENERGY_QM>  (1884) 
0

>  <FF_Energy>  (1884) 
27.72

>  <QM_Energy>  (1884) 
0.28

>  <source>  (1884) 
ACET_PRPA_25

>  <Index>  (1884) 
5321

$$$$
ACET-pdb5j7o-A-GLU-392:PRPA-pdb5j7o-A-LYS-74
     RDKit          3D

 18 16  0  0  0  0  0  0  0  0999 V2000
    0.0032    1.5164   -0.0028 C   0  0  0  0  0  0  0  0  0  0  0  0
    0.9289    1.8128   -0.1528 H   0  0  0  0  0  0  0  0  0  0  0  0
   -0.3459    1.8163    0.8664 H   0  0  0  0  0  0  0  0  0  0  0  0
   -0.6216    1.9438   -0.7871 H   0  0  0  0  0  0  0  0  0  0  0  0
    0.0000    0.0000    0.0000 C   0  0  0  0  0  0  0  0  0  0  0  0
   -1.0984   -0.5977   -0.0000 O   0  0  0  0  0  1  0  0  0  0  0  0
    1.0984   -0.5947   -0.0000 O   0  0  0  0  0  0  0  0  0  0  0  0
    0.5621   -0.8736   -2.9788 C   0  0  0  0  0  0  0  0  0  0  0  0
    1.3110   -0.5952   -2.3883 H   0  0  0  0  0  0  0  0  0  0  0  0
   -0.0401   -0.1059   -3.1639 H   0  0  0  0  0  0  0  0  0  0  0  0
    0.9632   -1.2561   -3.9174 H   0  0  0  0  0  0  0  0  0  0  0  0
   -0.2343   -1.9655   -2.2797 C   0  0  0  0  0  0  0  0  0  0  0  0
   -0.7305   -1.5656   -1.5201 H   0  0  0  0  0  0  0  0  0  0  0  0
   -0.8566   -2.3790   -2.9309 H   0  0  0  0  0  0  0  0  0  0  0  0
    0.6920   -3.0470   -1.7393 C   0  0  0  0  0  0  0  0  0  0  0  0
    1.1184   -3.5260   -2.5166 H   0  0  0  0  0  0  0  0  0  0  0  0
    1.4220   -2.6080   -1.2009 H   0  0  0  0  0  0  0  0  0  0  0  0
    0.1735   -3.7731   -1.1131 H   0  0  0  0  0  0  0  0  0  0  0  0
  1  5  1  0
  5  6  1  0
  5  7  2  0
  1  2  1  0
  1  3  1  0
  1  4  1  0
  8 12  1  0
 12 15  1  0
  8  9  1  0
  8 10  1  0
  8 11  1  0
 12 13  1  0
 12 14  1  0
 15 16  1  0
 15 17  1  0
 15 18  1  0
M  CHG  1   6  -1
M  END
>  <PDB_ID>  (1885) 
pdb5j7o

>  <RESIDUE_NAME>  (1885) 
GLU   LYS

>  <FRAG_NAME>  (1885) 
ACET   PRPA

>  <FRAG_ATOM_NUM>  (1885) 
fragi: 7  fragj: 11

>  <atom.prop.CHAIN_ID>  (1885) 
A A A A A A A Z Z Z Z Z Z Z Z Z Z Z

>  <atom.prop.IS_HEAVY_ATOM>  (1885) 
1 0 0 0 1 1 1 1 0 0 0 1 0 0 1 0 0 0

>  <DIFUSE_FUNC_ATOM>  (1885) 
atom 6   atom 7   

>  <FINAL_SINGLE_POINT_ENERGY>  (1885) 
0

>  <NONCOV_INTER_ENERGY_QM>  (1885) 
0

>  <FF_Energy>  (1885) 
33.47

>  <QM_Energy>  (1885) 
-0.69

>  <source>  (1885) 
ACET_PRPA_25

>  <Index>  (1885) 
5332

$$$$
ACET-pdb6mcw-A-ASP-93:PRPA-pdb6mcw-A-ARG-88
     RDKit          3D

 18 16  0  0  0  0  0  0  0  0999 V2000
    0.0004    1.5195   -0.0004 C   0  0  0  0  0  0  0  0  0  0  0  0
    0.2903    1.8383   -0.8992 H   0  0  0  0  0  0  0  0  0  0  0  0
    0.6367    1.8385    0.6956 H   0  0  0  0  0  0  0  0  0  0  0  0
   -0.9762    1.9549    0.2117 H   0  0  0  0  0  0  0  0  0  0  0  0
    0.0000    0.0000    0.0000 C   0  0  0  0  0  0  0  0  0  0  0  0
   -1.1009   -0.5854   -0.0000 O   0  0  0  0  0  1  0  0  0  0  0  0
    1.1009   -0.5850    0.0000 O   0  0  0  0  0  0  0  0  0  0  0  0
    3.4090   -1.1976    1.2711 C   0  0  0  0  0  0  0  0  0  0  0  0
    2.7219   -1.0474    0.5643 H   0  0  0  0  0  0  0  0  0  0  0  0
    4.3470   -0.7361    0.9624 H   0  0  0  0  0  0  0  0  0  0  0  0
    3.0712   -0.7187    2.1900 H   0  0  0  0  0  0  0  0  0  0  0  0
    3.5554   -2.7147    1.4314 C   0  0  0  0  0  0  0  0  0  0  0  0
    2.7360   -3.0600    1.8857 H   0  0  0  0  0  0  0  0  0  0  0  0
    3.6281   -3.1187    0.5208 H   0  0  0  0  0  0  0  0  0  0  0  0
    4.7650   -3.1603    2.2408 C   0  0  0  0  0  0  0  0  0  0  0  0
    5.6028   -2.9298    1.7377 H   0  0  0  0  0  0  0  0  0  0  0  0
    4.7723   -2.6741    3.1194 H   0  0  0  0  0  0  0  0  0  0  0  0
    4.7769   -4.2306    2.4467 H   0  0  0  0  0  0  0  0  0  0  0  0
  1  5  1  0
  5  6  1  0
  5  7  2  0
  1  2  1  0
  1  3  1  0
  1  4  1  0
  8 12  1  0
 12 15  1  0
  8  9  1  0
  8 10  1  0
  8 11  1  0
 12 13  1  0
 12 14  1  0
 15 16  1  0
 15 17  1  0
 15 18  1  0
M  CHG  1   6  -1
M  END
>  <PDB_ID>  (1886) 
pdb6mcw

>  <RESIDUE_NAME>  (1886) 
ASP   ARG

>  <FRAG_NAME>  (1886) 
ACET   PRPA

>  <FRAG_ATOM_NUM>  (1886) 
fragi: 7  fragj: 11

>  <atom.prop.CHAIN_ID>  (1886) 
A A A A A A A Z Z Z Z Z Z Z Z Z Z Z

>  <atom.prop.IS_HEAVY_ATOM>  (1886) 
1 0 0 0 1 1 1 1 0 0 0 1 0 0 1 0 0 0

>  <DIFUSE_FUNC_ATOM>  (1886) 
atom 6   atom 7   

>  <FINAL_SINGLE_POINT_ENERGY>  (1886) 
0

>  <NONCOV_INTER_ENERGY_QM>  (1886) 
0

>  <FF_Energy>  (1886) 
32.74

>  <QM_Energy>  (1886) 
1.2

>  <source>  (1886) 
ACET_PRPA_25

>  <Index>  (1886) 
7448

$$$$
ACET-pdb6mfl-A-GLU-183:PRPA-pdb6mfl-A-LYS-186
     RDKit          3D

 18 16  0  0  0  0  0  0  0  0999 V2000
   -0.0080    1.5211   -0.0058 C   0  0  0  0  0  0  0  0  0  0  0  0
   -0.0013    1.8222    0.9161 H   0  0  0  0  0  0  0  0  0  0  0  0
   -0.8229    1.8128   -0.4447 H   0  0  0  0  0  0  0  0  0  0  0  0
    0.8475    1.9523   -0.5259 H   0  0  0  0  0  0  0  0  0  0  0  0
    0.0000    0.0000    0.0000 C   0  0  0  0  0  0  0  0  0  0  0  0
   -1.1064   -0.5902    0.0000 O   0  0  0  0  0  1  0  0  0  0  0  0
    1.1064   -0.5977   -0.0000 O   0  0  0  0  0  0  0  0  0  0  0  0
   -0.3597   -2.2580   -3.2638 C   0  0  0  0  0  0  0  0  0  0  0  0
   -0.8844   -1.4499   -2.9982 H   0  0  0  0  0  0  0  0  0  0  0  0
   -0.9868   -2.9913   -3.5256 H   0  0  0  0  0  0  0  0  0  0  0  0
    0.2694   -2.0072   -4.1178 H   0  0  0  0  0  0  0  0  0  0  0  0
    0.4702   -2.7193   -2.0772 C   0  0  0  0  0  0  0  0  0  0  0  0
    0.9961   -3.5263   -2.3484 H   0  0  0  0  0  0  0  0  0  0  0  0
    1.0979   -1.9848   -1.8189 H   0  0  0  0  0  0  0  0  0  0  0  0
   -0.3797   -3.0746   -0.8786 C   0  0  0  0  0  0  0  0  0  0  0  0
   -0.9058   -2.2714   -0.6001 H   0  0  0  0  0  0  0  0  0  0  0  0
   -1.0068   -3.8131   -1.1275 H   0  0  0  0  0  0  0  0  0  0  0  0
    0.2453   -3.4013   -0.0475 H   0  0  0  0  0  0  0  0  0  0  0  0
  1  5  1  0
  5  6  1  0
  5  7  2  0
  1  2  1  0
  1  3  1  0
  1  4  1  0
  8 12  1  0
 12 15  1  0
  8  9  1  0
  8 10  1  0
  8 11  1  0
 12 13  1  0
 12 14  1  0
 15 16  1  0
 15 17  1  0
 15 18  1  0
M  CHG  1   6  -1
M  END
>  <PDB_ID>  (1887) 
pdb6mfl

>  <RESIDUE_NAME>  (1887) 
GLU   LYS

>  <FRAG_NAME>  (1887) 
ACET   PRPA

>  <FRAG_ATOM_NUM>  (1887) 
fragi: 7  fragj: 11

>  <atom.prop.CHAIN_ID>  (1887) 
A A A A A A A Z Z Z Z Z Z Z Z Z Z Z

>  <atom.prop.IS_HEAVY_ATOM>  (1887) 
1 0 0 0 1 1 1 1 0 0 0 1 0 0 1 0 0 0

>  <DIFUSE_FUNC_ATOM>  (1887) 
atom 6   atom 7   

>  <FINAL_SINGLE_POINT_ENERGY>  (1887) 
0

>  <NONCOV_INTER_ENERGY_QM>  (1887) 
0

>  <FF_Energy>  (1887) 
32.89

>  <QM_Energy>  (1887) 
1.04

>  <source>  (1887) 
ACET_PRPA_25

>  <Index>  (1887) 
9349

$$$$
ACET-pdb6mcp-A-GLU-170:PRPA-pdb6mcp-A-LEU-175
     RDKit          3D

 18 16  0  0  0  0  0  0  0  0999 V2000
   -0.0077    1.5173   -0.0016 C   0  0  0  0  0  0  0  0  0  0  0  0
   -0.9364    1.8103    0.1411 H   0  0  0  0  0  0  0  0  0  0  0  0
    0.3439    1.8148   -0.8721 H   0  0  0  0  0  0  0  0  0  0  0  0
    0.6111    1.9503    0.7844 H   0  0  0  0  0  0  0  0  0  0  0  0
    0.0000    0.0000    0.0000 C   0  0  0  0  0  0  0  0  0  0  0  0
   -1.0988   -0.5966    0.0000 O   0  0  0  0  0  1  0  0  0  0  0  0
    1.0988   -0.5972    0.0000 O   0  0  0  0  0  0  0  0  0  0  0  0
   -2.2977    4.2181   -3.5297 C   0  0  0  0  0  0  0  0  0  0  0  0
   -2.2760    4.7696   -4.3588 H   0  0  0  0  0  0  0  0  0  0  0  0
   -2.8934    4.6381   -2.8527 H   0  0  0  0  0  0  0  0  0  0  0  0
   -2.7171    3.2453   -3.7864 H   0  0  0  0  0  0  0  0  0  0  0  0
   -0.8851    4.2055   -2.9523 C   0  0  0  0  0  0  0  0  0  0  0  0
   -0.2616    3.8022   -3.6170 H   0  0  0  0  0  0  0  0  0  0  0  0
   -0.5620    5.2226   -2.7307 H   0  0  0  0  0  0  0  0  0  0  0  0
   -0.8890    3.3658   -1.6829 C   0  0  0  0  0  0  0  0  0  0  0  0
   -1.1773    2.4328   -1.9000 H   0  0  0  0  0  0  0  0  0  0  0  0
    0.0313    3.3478   -1.2917 H   0  0  0  0  0  0  0  0  0  0  0  0
   -1.5242    3.7640   -1.0203 H   0  0  0  0  0  0  0  0  0  0  0  0
  1  5  1  0
  5  6  1  0
  5  7  2  0
  1  2  1  0
  1  3  1  0
  1  4  1  0
  8 12  1  0
 12 15  1  0
  8  9  1  0
  8 10  1  0
  8 11  1  0
 12 13  1  0
 12 14  1  0
 15 16  1  0
 15 17  1  0
 15 18  1  0
M  CHG  1   6  -1
M  END
>  <PDB_ID>  (1888) 
pdb6mcp

>  <RESIDUE_NAME>  (1888) 
GLU   LEU

>  <FRAG_NAME>  (1888) 
ACET   PRPA

>  <FRAG_ATOM_NUM>  (1888) 
fragi: 7  fragj: 11

>  <atom.prop.CHAIN_ID>  (1888) 
A A A A A A A Z Z Z Z Z Z Z Z Z Z Z

>  <atom.prop.IS_HEAVY_ATOM>  (1888) 
1 0 0 0 1 1 1 1 0 0 0 1 0 0 1 0 0 0

>  <DIFUSE_FUNC_ATOM>  (1888) 
atom 6   atom 7   

>  <FINAL_SINGLE_POINT_ENERGY>  (1888) 
0

>  <NONCOV_INTER_ENERGY_QM>  (1888) 
0

>  <FF_Energy>  (1888) 
38.98

>  <QM_Energy>  (1888) 
12.43

>  <source>  (1888) 
ACET_PRPA_25

>  <Index>  (1888) 
11196

$$$$
ACET-pdb6mcp-A-GLU-170:PRPA-pdb6mcp-A-LEU-175
     RDKit          3D

 18 16  0  0  0  0  0  0  0  0999 V2000
   -0.0077    1.5173   -0.0016 C   0  0  0  0  0  0  0  0  0  0  0  0
   -0.9364    1.8103    0.1411 H   0  0  0  0  0  0  0  0  0  0  0  0
    0.3439    1.8148   -0.8721 H   0  0  0  0  0  0  0  0  0  0  0  0
    0.6111    1.9503    0.7844 H   0  0  0  0  0  0  0  0  0  0  0  0
    0.0000    0.0000    0.0000 C   0  0  0  0  0  0  0  0  0  0  0  0
   -1.0988   -0.5966    0.0000 O   0  0  0  0  0  1  0  0  0  0  0  0
    1.0988   -0.5972    0.0000 O   0  0  0  0  0  0  0  0  0  0  0  0
   -0.4310    5.6351   -2.6409 C   0  0  0  0  0  0  0  0  0  0  0  0
   -1.0556    6.0412   -1.9765 H   0  0  0  0  0  0  0  0  0  0  0  0
    0.4940    5.6127   -2.2650 H   0  0  0  0  0  0  0  0  0  0  0  0
   -0.4386    6.1737   -3.4823 H   0  0  0  0  0  0  0  0  0  0  0  0
   -0.8851    4.2055   -2.9523 C   0  0  0  0  0  0  0  0  0  0  0  0
   -0.2616    3.8022   -3.6170 H   0  0  0  0  0  0  0  0  0  0  0  0
   -1.8940    4.2144   -3.3647 H   0  0  0  0  0  0  0  0  0  0  0  0
   -0.8890    3.3658   -1.6829 C   0  0  0  0  0  0  0  0  0  0  0  0
   -1.1773    2.4328   -1.9000 H   0  0  0  0  0  0  0  0  0  0  0  0
    0.0313    3.3478   -1.2917 H   0  0  0  0  0  0  0  0  0  0  0  0
   -1.5242    3.7640   -1.0203 H   0  0  0  0  0  0  0  0  0  0  0  0
  1  5  1  0
  5  6  1  0
  5  7  2  0
  1  2  1  0
  1  3  1  0
  1  4  1  0
  8 12  1  0
 12 15  1  0
  8  9  1  0
  8 10  1  0
  8 11  1  0
 12 13  1  0
 12 14  1  0
 15 16  1  0
 15 17  1  0
 15 18  1  0
M  CHG  1   6  -1
M  END
>  <PDB_ID>  (1889) 
pdb6mcp

>  <RESIDUE_NAME>  (1889) 
GLU   LEU

>  <FRAG_NAME>  (1889) 
ACET   PRPA

>  <FRAG_ATOM_NUM>  (1889) 
fragi: 7  fragj: 11

>  <atom.prop.CHAIN_ID>  (1889) 
A A A A A A A Z Z Z Z Z Z Z Z Z Z Z

>  <atom.prop.IS_HEAVY_ATOM>  (1889) 
1 0 0 0 1 1 1 1 0 0 0 1 0 0 1 0 0 0

>  <DIFUSE_FUNC_ATOM>  (1889) 
atom 6   atom 7   

>  <FINAL_SINGLE_POINT_ENERGY>  (1889) 
0

>  <NONCOV_INTER_ENERGY_QM>  (1889) 
0

>  <FF_Energy>  (1889) 
38.85

>  <QM_Energy>  (1889) 
12.34

>  <source>  (1889) 
ACET_PRPA_25

>  <Index>  (1889) 
11201

$$$$
ACET-pdb6n1f-A-GLU-90:PRPA-pdb6n1f-A-LEU-83
     RDKit          3D

 18 16  0  0  0  0  0  0  0  0999 V2000
    0.1715    1.4839    0.0153 C   0  0  0  0  0  0  0  0  0  0  0  0
    0.6911    1.7411   -0.8020 H   0  0  0  0  0  0  0  0  0  0  0  0
    0.7022    1.7227    0.8304 H   0  0  0  0  0  0  0  0  0  0  0  0
   -0.7394    2.0825    0.0272 H   0  0  0  0  0  0  0  0  0  0  0  0
    0.0000    0.0000    0.0000 C   0  0  0  0  0  0  0  0  0  0  0  0
   -1.0900   -0.5601    0.0000 O   0  0  0  0  0  1  0  0  0  0  0  0
    1.0900   -0.6067    0.0000 O   0  0  0  0  0  0  0  0  0  0  0  0
    4.7770    1.8184   -1.5892 C   0  0  0  0  0  0  0  0  0  0  0  0
    4.9715    0.9820   -2.1381 H   0  0  0  0  0  0  0  0  0  0  0  0
    4.5661    1.5031   -0.6448 H   0  0  0  0  0  0  0  0  0  0  0  0
    5.7018    2.3930   -1.5385 H   0  0  0  0  0  0  0  0  0  0  0  0
    3.4984    2.4304   -2.1509 C   0  0  0  0  0  0  0  0  0  0  0  0
    3.6570    2.7069   -3.0967 H   0  0  0  0  0  0  0  0  0  0  0  0
    3.2302    3.3195   -1.5801 H   0  0  0  0  0  0  0  0  0  0  0  0
    2.3745    1.4103   -2.1040 C   0  0  0  0  0  0  0  0  0  0  0  0
    2.2164    1.1286   -1.1571 H   0  0  0  0  0  0  0  0  0  0  0  0
    1.5376    1.8158   -2.4737 H   0  0  0  0  0  0  0  0  0  0  0  0
    2.6239    0.6104   -2.6506 H   0  0  0  0  0  0  0  0  0  0  0  0
  1  5  1  0
  5  6  1  0
  5  7  2  0
  1  2  1  0
  1  3  1  0
  1  4  1  0
  8 12  1  0
 12 15  1  0
  8  9  1  0
  8 10  1  0
  8 11  1  0
 12 13  1  0
 12 14  1  0
 15 16  1  0
 15 17  1  0
 15 18  1  0
M  CHG  1   6  -1
M  END
>  <PDB_ID>  (1890) 
pdb6n1f

>  <RESIDUE_NAME>  (1890) 
GLU   LEU

>  <FRAG_NAME>  (1890) 
ACET   PRPA

>  <FRAG_ATOM_NUM>  (1890) 
fragi: 7  fragj: 11

>  <atom.prop.CHAIN_ID>  (1890) 
A A A A A A A Z Z Z Z Z Z Z Z Z Z Z

>  <atom.prop.IS_HEAVY_ATOM>  (1890) 
1 0 0 0 1 1 1 1 0 0 0 1 0 0 1 0 0 0

>  <DIFUSE_FUNC_ATOM>  (1890) 
atom 6   atom 7   

>  <FINAL_SINGLE_POINT_ENERGY>  (1890) 
0

>  <NONCOV_INTER_ENERGY_QM>  (1890) 
0

>  <FF_Energy>  (1890) 
18.97

>  <QM_Energy>  (1890) 
3.62

>  <source>  (1890) 
ACET_PRPA_25

>  <Index>  (1890) 
17000

$$$$
ACET-pdb5kia-A-GLU-68:PRPA-pdb5kia-A-ARG-33
     RDKit          3D

 18 16  0  0  0  0  0  0  0  0999 V2000
    0.1805    1.4867    0.0116 C   0  0  0  0  0  0  0  0  0  0  0  0
    0.6986    1.7389   -0.8056 H   0  0  0  0  0  0  0  0  0  0  0  0
    0.7104    1.7225    0.8268 H   0  0  0  0  0  0  0  0  0  0  0  0
   -0.7304    2.0852    0.0230 H   0  0  0  0  0  0  0  0  0  0  0  0
    0.0000    0.0000    0.0000 C   0  0  0  0  0  0  0  0  0  0  0  0
   -1.0893   -0.5547    0.0000 O   0  0  0  0  0  1  0  0  0  0  0  0
    1.0893   -0.6095   -0.0000 O   0  0  0  0  0  0  0  0  0  0  0  0
    5.4991    2.0556    0.2549 C   0  0  0  0  0  0  0  0  0  0  0  0
    4.9880    2.8062   -0.1416 H   0  0  0  0  0  0  0  0  0  0  0  0
    6.1991    1.7361   -0.3686 H   0  0  0  0  0  0  0  0  0  0  0  0
    5.9906    2.4205    1.1567 H   0  0  0  0  0  0  0  0  0  0  0  0
    4.5356    0.9085    0.5211 C   0  0  0  0  0  0  0  0  0  0  0  0
    4.9903    0.0373    0.3166 H   0  0  0  0  0  0  0  0  0  0  0  0
    4.2689    0.9161    1.4890 H   0  0  0  0  0  0  0  0  0  0  0  0
    3.2655    0.9842   -0.3161 C   0  0  0  0  0  0  0  0  0  0  0  0
    2.5273    0.5617    0.2061 H   0  0  0  0  0  0  0  0  0  0  0  0
    3.0579    1.9493   -0.4724 H   0  0  0  0  0  0  0  0  0  0  0  0
    3.3666    0.4760   -1.2751 H   0  0  0  0  0  0  0  0  0  0  0  0
  1  5  1  0
  5  6  1  0
  5  7  2  0
  1  2  1  0
  1  3  1  0
  1  4  1  0
  8 12  1  0
 12 15  1  0
  8  9  1  0
  8 10  1  0
  8 11  1  0
 12 13  1  0
 12 14  1  0
 15 16  1  0
 15 17  1  0
 15 18  1  0
M  CHG  1   6  -1
M  END
>  <PDB_ID>  (1891) 
pdb5kia

>  <RESIDUE_NAME>  (1891) 
GLU   ARG

>  <FRAG_NAME>  (1891) 
ACET   PRPA

>  <FRAG_ATOM_NUM>  (1891) 
fragi: 7  fragj: 11

>  <atom.prop.CHAIN_ID>  (1891) 
A A A A A A A Z Z Z Z Z Z Z Z Z Z Z

>  <atom.prop.IS_HEAVY_ATOM>  (1891) 
1 0 0 0 1 1 1 1 0 0 0 1 0 0 1 0 0 0

>  <DIFUSE_FUNC_ATOM>  (1891) 
atom 6   atom 7   

>  <FINAL_SINGLE_POINT_ENERGY>  (1891) 
0

>  <NONCOV_INTER_ENERGY_QM>  (1891) 
0

>  <FF_Energy>  (1891) 
21.23

>  <QM_Energy>  (1891) 
3.77

>  <source>  (1891) 
ACET_PRPA_25

>  <Index>  (1891) 
17851

$$$$
ACET-pdb6n0u-A-ASP-117:PRPA-pdb6n0u-A-LYS-120
     RDKit          3D

 18 16  0  0  0  0  0  0  0  0999 V2000
   -0.0076    1.5103   -0.0461 C   0  0  0  0  0  0  0  0  0  0  0  0
    0.4496    1.8094   -0.8743 H   0  0  0  0  0  0  0  0  0  0  0  0
    0.4568    1.8588    0.7571 H   0  0  0  0  0  0  0  0  0  0  0  0
   -1.0193    1.9160   -0.0544 H   0  0  0  0  0  0  0  0  0  0  0  0
    0.0000    0.0000    0.0000 C   0  0  0  0  0  0  0  0  0  0  0  0
   -1.1061   -0.6009    0.0000 O   0  0  0  0  0  1  0  0  0  0  0  0
    1.1061   -0.5720    0.0000 O   0  0  0  0  0  0  0  0  0  0  0  0
   -1.2096   -0.4685    3.8479 C   0  0  0  0  0  0  0  0  0  0  0  0
   -0.7029    0.1752    3.2738 H   0  0  0  0  0  0  0  0  0  0  0  0
   -0.5639   -0.9896    4.4084 H   0  0  0  0  0  0  0  0  0  0  0  0
   -1.8450    0.1096    4.5190 H   0  0  0  0  0  0  0  0  0  0  0  0
   -1.9508   -1.4385    2.9415 C   0  0  0  0  0  0  0  0  0  0  0  0
   -2.4587   -2.0900    3.5098 H   0  0  0  0  0  0  0  0  0  0  0  0
   -2.5964   -0.9255    2.3737 H   0  0  0  0  0  0  0  0  0  0  0  0
   -1.0019   -2.2038    2.0423 C   0  0  0  0  0  0  0  0  0  0  0  0
   -0.4951   -1.5503    1.4780 H   0  0  0  0  0  0  0  0  0  0  0  0
   -0.3574   -2.7160    2.6130 H   0  0  0  0  0  0  0  0  0  0  0  0
   -1.5171   -2.9047    1.3854 H   0  0  0  0  0  0  0  0  0  0  0  0
  1  5  1  0
  5  6  1  0
  5  7  2  0
  1  2  1  0
  1  3  1  0
  1  4  1  0
  8 12  1  0
 12 15  1  0
  8  9  1  0
  8 10  1  0
  8 11  1  0
 12 13  1  0
 12 14  1  0
 15 16  1  0
 15 17  1  0
 15 18  1  0
M  CHG  1   6  -1
M  END
>  <PDB_ID>  (1892) 
pdb6n0u

>  <RESIDUE_NAME>  (1892) 
ASP   LYS

>  <FRAG_NAME>  (1892) 
ACET   PRPA

>  <FRAG_ATOM_NUM>  (1892) 
fragi: 7  fragj: 11

>  <atom.prop.CHAIN_ID>  (1892) 
A A A A A A A Z Z Z Z Z Z Z Z Z Z Z

>  <atom.prop.IS_HEAVY_ATOM>  (1892) 
1 0 0 0 1 1 1 1 0 0 0 1 0 0 1 0 0 0

>  <DIFUSE_FUNC_ATOM>  (1892) 
atom 6   atom 7   

>  <FINAL_SINGLE_POINT_ENERGY>  (1892) 
0

>  <NONCOV_INTER_ENERGY_QM>  (1892) 
0

>  <FF_Energy>  (1892) 
29.26

>  <QM_Energy>  (1892) 
3.33

>  <source>  (1892) 
ACET_PRPA_25

>  <Index>  (1892) 
18464

$$$$
ACET-pdb6n0u-A-ASP-117:PRPA-pdb6n0u-A-LYS-120
     RDKit          3D

 18 16  0  0  0  0  0  0  0  0999 V2000
   -0.0076    1.5103   -0.0461 C   0  0  0  0  0  0  0  0  0  0  0  0
    0.4496    1.8094   -0.8743 H   0  0  0  0  0  0  0  0  0  0  0  0
    0.4568    1.8588    0.7571 H   0  0  0  0  0  0  0  0  0  0  0  0
   -1.0193    1.9160   -0.0544 H   0  0  0  0  0  0  0  0  0  0  0  0
    0.0000    0.0000    0.0000 C   0  0  0  0  0  0  0  0  0  0  0  0
   -1.1061   -0.6009    0.0000 O   0  0  0  0  0  1  0  0  0  0  0  0
    1.1061   -0.5720    0.0000 O   0  0  0  0  0  0  0  0  0  0  0  0
   -1.9508   -1.4385    2.9415 C   0  0  0  0  0  0  0  0  0  0  0  0
   -2.4587   -2.0900    3.5098 H   0  0  0  0  0  0  0  0  0  0  0  0
   -2.5964   -0.9255    2.3737 H   0  0  0  0  0  0  0  0  0  0  0  0
   -1.4194   -0.7430    3.5914 H   0  0  0  0  0  0  0  0  0  0  0  0
   -1.0019   -2.2038    2.0423 C   0  0  0  0  0  0  0  0  0  0  0  0
   -0.4951   -1.5503    1.4780 H   0  0  0  0  0  0  0  0  0  0  0  0
   -0.3574   -2.7160    2.6130 H   0  0  0  0  0  0  0  0  0  0  0  0
   -1.7165   -3.1761    1.1310 C   0  0  0  0  0  0  0  0  0  0  0  0
   -2.2219   -3.8369    1.6876 H   0  0  0  0  0  0  0  0  0  0  0  0
   -2.3589   -2.6713    0.5518 H   0  0  0  0  0  0  0  0  0  0  0  0
   -1.0057   -3.7081    0.4987 H   0  0  0  0  0  0  0  0  0  0  0  0
  1  5  1  0
  5  6  1  0
  5  7  2  0
  1  2  1  0
  1  3  1  0
  1  4  1  0
  8 12  1  0
 12 15  1  0
  8  9  1  0
  8 10  1  0
  8 11  1  0
 12 13  1  0
 12 14  1  0
 15 16  1  0
 15 17  1  0
 15 18  1  0
M  CHG  1   6  -1
M  END
>  <PDB_ID>  (1893) 
pdb6n0u

>  <RESIDUE_NAME>  (1893) 
ASP   LYS

>  <FRAG_NAME>  (1893) 
ACET   PRPA

>  <FRAG_ATOM_NUM>  (1893) 
fragi: 7  fragj: 11

>  <atom.prop.CHAIN_ID>  (1893) 
A A A A A A A Z Z Z Z Z Z Z Z Z Z Z

>  <atom.prop.IS_HEAVY_ATOM>  (1893) 
1 0 0 0 1 1 1 1 0 0 0 1 0 0 1 0 0 0

>  <DIFUSE_FUNC_ATOM>  (1893) 
atom 6   atom 7   

>  <FINAL_SINGLE_POINT_ENERGY>  (1893) 
0

>  <NONCOV_INTER_ENERGY_QM>  (1893) 
0

>  <FF_Energy>  (1893) 
34.56

>  <QM_Energy>  (1893) 
2.23

>  <source>  (1893) 
ACET_PRPA_25

>  <Index>  (1893) 
18469

$$$$
ACET-pdb6nkl-C-GLU-65:PRPA-pdb6nkl-A-LYS-15
     RDKit          3D

 18 16  0  0  0  0  0  0  0  0999 V2000
    0.0001    1.5195    0.0040 C   0  0  0  0  0  0  0  0  0  0  0  0
    0.3105    1.8150   -0.8816 H   0  0  0  0  0  0  0  0  0  0  0  0
    0.6044    1.8099    0.7242 H   0  0  0  0  0  0  0  0  0  0  0  0
   -0.9887    1.9408    0.1855 H   0  0  0  0  0  0  0  0  0  0  0  0
    0.0000    0.0000    0.0000 C   0  0  0  0  0  0  0  0  0  0  0  0
   -1.1025   -0.5950   -0.0000 O   0  0  0  0  0  1  0  0  0  0  0  0
    1.1025   -0.5951    0.0000 O   0  0  0  0  0  0  0  0  0  0  0  0
    3.0851   -2.8519    2.7175 C   0  0  0  0  0  0  0  0  0  0  0  0
    2.3342   -3.4011    3.0790 H   0  0  0  0  0  0  0  0  0  0  0  0
    3.1118   -1.9688    3.1809 H   0  0  0  0  0  0  0  0  0  0  0  0
    4.0240   -3.3751    2.8983 H   0  0  0  0  0  0  0  0  0  0  0  0
    2.8347   -2.6096    1.2120 C   0  0  0  0  0  0  0  0  0  0  0  0
    3.3281   -3.3147    0.7045 H   0  0  0  0  0  0  0  0  0  0  0  0
    1.8545   -2.6997    1.0476 H   0  0  0  0  0  0  0  0  0  0  0  0
    3.2953   -1.2588    0.7705 C   0  0  0  0  0  0  0  0  0  0  0  0
    2.8045   -0.5520    1.2820 H   0  0  0  0  0  0  0  0  0  0  0  0
    4.2774   -1.1664    0.9378 H   0  0  0  0  0  0  0  0  0  0  0  0
    3.1049   -1.1206   -0.2938 H   0  0  0  0  0  0  0  0  0  0  0  0
  1  5  1  0
  5  6  1  0
  5  7  2  0
  1  2  1  0
  1  3  1  0
  1  4  1  0
  8 12  1  0
 12 15  1  0
  8  9  1  0
  8 10  1  0
  8 11  1  0
 12 13  1  0
 12 14  1  0
 15 16  1  0
 15 17  1  0
 15 18  1  0
M  CHG  1   6  -1
M  END
>  <PDB_ID>  (1894) 
pdb6nkl

>  <RESIDUE_NAME>  (1894) 
GLU   LYS

>  <FRAG_NAME>  (1894) 
ACET   PRPA

>  <FRAG_ATOM_NUM>  (1894) 
fragi: 7  fragj: 11

>  <atom.prop.CHAIN_ID>  (1894) 
A A A A A A A Z Z Z Z Z Z Z Z Z Z Z

>  <atom.prop.IS_HEAVY_ATOM>  (1894) 
1 0 0 0 1 1 1 1 0 0 0 1 0 0 1 0 0 0

>  <DIFUSE_FUNC_ATOM>  (1894) 
atom 6   atom 7   

>  <FINAL_SINGLE_POINT_ENERGY>  (1894) 
0

>  <NONCOV_INTER_ENERGY_QM>  (1894) 
0

>  <FF_Energy>  (1894) 
23.72

>  <QM_Energy>  (1894) 
5.32

>  <source>  (1894) 
ACET_PRPA_25

>  <Index>  (1894) 
20261

$$$$
ACET-pdb5l1a-A-GLU-110:PRPA-pdb5l1a-A-VAL-75
     RDKit          3D

 18 16  0  0  0  0  0  0  0  0999 V2000
    0.1626    1.4855    0.0142 C   0  0  0  0  0  0  0  0  0  0  0  0
   -0.5376    1.8661    0.6208 H   0  0  0  0  0  0  0  0  0  0  0  0
    0.0056    1.8201   -0.9181 H   0  0  0  0  0  0  0  0  0  0  0  0
    1.1263    1.8736    0.3439 H   0  0  0  0  0  0  0  0  0  0  0  0
    0.0000    0.0000    0.0000 C   0  0  0  0  0  0  0  0  0  0  0  0
   -1.0895   -0.5608   -0.0000 O   0  0  0  0  0  1  0  0  0  0  0  0
    1.0895   -0.6017    0.0000 O   0  0  0  0  0  0  0  0  0  0  0  0
   -3.6378    0.4226    2.9703 C   0  0  0  0  0  0  0  0  0  0  0  0
   -3.2468   -0.4045    2.5514 H   0  0  0  0  0  0  0  0  0  0  0  0
   -4.6202    0.1693    3.3688 H   0  0  0  0  0  0  0  0  0  0  0  0
   -2.9684    0.7451    3.7676 H   0  0  0  0  0  0  0  0  0  0  0  0
   -3.7623    1.4992    1.8760 C   0  0  0  0  0  0  0  0  0  0  0  0
   -4.2346    2.2790    2.2722 H   0  0  0  0  0  0  0  0  0  0  0  0
   -4.3071    1.1046    1.0184 H   0  0  0  0  0  0  0  0  0  0  0  0
   -2.3850    1.9800    1.4506 C   0  0  0  0  0  0  0  0  0  0  0  0
   -2.4043    2.9705    1.3090 H   0  0  0  0  0  0  0  0  0  0  0  0
   -1.7186    1.7599    2.1635 H   0  0  0  0  0  0  0  0  0  0  0  0
   -2.1213    1.5283    0.5983 H   0  0  0  0  0  0  0  0  0  0  0  0
  1  5  1  0
  5  6  1  0
  5  7  2  0
  1  2  1  0
  1  3  1  0
  1  4  1  0
  8 12  1  0
 12 15  1  0
  8  9  1  0
  8 10  1  0
  8 11  1  0
 12 13  1  0
 12 14  1  0
 15 16  1  0
 15 17  1  0
 15 18  1  0
M  CHG  1   6  -1
M  END
>  <PDB_ID>  (1895) 
pdb5l1a

>  <RESIDUE_NAME>  (1895) 
GLU   VAL

>  <FRAG_NAME>  (1895) 
ACET   PRPA

>  <FRAG_ATOM_NUM>  (1895) 
fragi: 7  fragj: 11

>  <atom.prop.CHAIN_ID>  (1895) 
A A A A A A A Z Z Z Z Z Z Z Z Z Z Z

>  <atom.prop.IS_HEAVY_ATOM>  (1895) 
1 0 0 0 1 1 1 1 0 0 0 1 0 0 1 0 0 0

>  <DIFUSE_FUNC_ATOM>  (1895) 
atom 6   atom 7   

>  <FINAL_SINGLE_POINT_ENERGY>  (1895) 
0

>  <NONCOV_INTER_ENERGY_QM>  (1895) 
0

>  <FF_Energy>  (1895) 
33.43

>  <QM_Energy>  (1895) 
4.93

>  <source>  (1895) 
ACET_PRPA_25

>  <Index>  (1895) 
23471

$$$$
ACET-pdb5l1a-A-GLU-110:PRPA-pdb5l1a-A-VAL-75
     RDKit          3D

 18 16  0  0  0  0  0  0  0  0999 V2000
    0.1626    1.4855    0.0142 C   0  0  0  0  0  0  0  0  0  0  0  0
   -0.5376    1.8661    0.6208 H   0  0  0  0  0  0  0  0  0  0  0  0
    0.0056    1.8201   -0.9181 H   0  0  0  0  0  0  0  0  0  0  0  0
    1.1263    1.8736    0.3439 H   0  0  0  0  0  0  0  0  0  0  0  0
    0.0000    0.0000    0.0000 C   0  0  0  0  0  0  0  0  0  0  0  0
   -1.0895   -0.5608   -0.0000 O   0  0  0  0  0  1  0  0  0  0  0  0
    1.0895   -0.6017    0.0000 O   0  0  0  0  0  0  0  0  0  0  0  0
   -2.3850    1.9800    1.4506 C   0  0  0  0  0  0  0  0  0  0  0  0
   -2.4043    2.9705    1.3090 H   0  0  0  0  0  0  0  0  0  0  0  0
   -1.7186    1.7599    2.1635 H   0  0  0  0  0  0  0  0  0  0  0  0
   -2.1213    1.5283    0.5983 H   0  0  0  0  0  0  0  0  0  0  0  0
   -3.7623    1.4992    1.8760 C   0  0  0  0  0  0  0  0  0  0  0  0
   -4.2346    2.2790    2.2722 H   0  0  0  0  0  0  0  0  0  0  0  0
   -3.6742    0.7372    2.6505 H   0  0  0  0  0  0  0  0  0  0  0  0
   -4.5168    0.9528    0.6883 C   0  0  0  0  0  0  0  0  0  0  0  0
   -5.0878    1.6745    0.2913 H   0  0  0  0  0  0  0  0  0  0  0  0
   -3.8671    0.6270   -0.0016 H   0  0  0  0  0  0  0  0  0  0  0  0
   -5.0993    0.1920    0.9803 H   0  0  0  0  0  0  0  0  0  0  0  0
  1  5  1  0
  5  6  1  0
  5  7  2  0
  1  2  1  0
  1  3  1  0
  1  4  1  0
  8 12  1  0
 12 15  1  0
  8  9  1  0
  8 10  1  0
  8 11  1  0
 12 13  1  0
 12 14  1  0
 15 16  1  0
 15 17  1  0
 15 18  1  0
M  CHG  1   6  -1
M  END
>  <PDB_ID>  (1896) 
pdb5l1a

>  <RESIDUE_NAME>  (1896) 
GLU   VAL

>  <FRAG_NAME>  (1896) 
ACET   PRPA

>  <FRAG_ATOM_NUM>  (1896) 
fragi: 7  fragj: 11

>  <atom.prop.CHAIN_ID>  (1896) 
A A A A A A A Z Z Z Z Z Z Z Z Z Z Z

>  <atom.prop.IS_HEAVY_ATOM>  (1896) 
1 0 0 0 1 1 1 1 0 0 0 1 0 0 1 0 0 0

>  <DIFUSE_FUNC_ATOM>  (1896) 
atom 6   atom 7   

>  <FINAL_SINGLE_POINT_ENERGY>  (1896) 
0

>  <NONCOV_INTER_ENERGY_QM>  (1896) 
0

>  <FF_Energy>  (1896) 
33.3

>  <QM_Energy>  (1896) 
4.81

>  <source>  (1896) 
ACET_PRPA_25

>  <Index>  (1896) 
23481

$$$$
ACET-pdb5k0s-C-ASP-70:PRPA-pdb5k0s-C-ILE-66
     RDKit          3D

 18 16  0  0  0  0  0  0  0  0999 V2000
   -0.0021    1.5134    0.0081 C   0  0  0  0  0  0  0  0  0  0  0  0
    0.7835    1.8380   -0.5056 H   0  0  0  0  0  0  0  0  0  0  0  0
    0.0415    1.8296    0.9488 H   0  0  0  0  0  0  0  0  0  0  0  0
   -0.8989    1.9330   -0.4479 H   0  0  0  0  0  0  0  0  0  0  0  0
    0.0000    0.0000    0.0000 C   0  0  0  0  0  0  0  0  0  0  0  0
   -1.0988   -0.5957   -0.0000 O   0  0  0  0  0  1  0  0  0  0  0  0
    1.0988   -0.5938    0.0000 O   0  0  0  0  0  0  0  0  0  0  0  0
    4.6769    3.2166    0.4346 C   0  0  0  0  0  0  0  0  0  0  0  0
    4.9936    2.2904    0.6239 H   0  0  0  0  0  0  0  0  0  0  0  0
    5.5121    3.8803    0.6587 H   0  0  0  0  0  0  0  0  0  0  0  0
    4.4702    3.2644   -0.6345 H   0  0  0  0  0  0  0  0  0  0  0  0
    3.4113    3.5699    1.2411 C   0  0  0  0  0  0  0  0  0  0  0  0
    3.1454    4.4970    0.9942 H   0  0  0  0  0  0  0  0  0  0  0  0
    3.6203    3.5423    2.3105 H   0  0  0  0  0  0  0  0  0  0  0  0
    2.2821    2.6346    0.8794 C   0  0  0  0  0  0  0  0  0  0  0  0
    1.4507    2.9000    1.3702 H   0  0  0  0  0  0  0  0  0  0  0  0
    2.1091    2.6763   -0.1055 H   0  0  0  0  0  0  0  0  0  0  0  0
    2.5247    1.6973    1.1293 H   0  0  0  0  0  0  0  0  0  0  0  0
  1  5  1  0
  5  6  1  0
  5  7  2  0
  1  2  1  0
  1  3  1  0
  1  4  1  0
  8 12  1  0
 12 15  1  0
  8  9  1  0
  8 10  1  0
  8 11  1  0
 12 13  1  0
 12 14  1  0
 15 16  1  0
 15 17  1  0
 15 18  1  0
M  CHG  1   6  -1
M  END
>  <PDB_ID>  (1897) 
pdb5k0s

>  <RESIDUE_NAME>  (1897) 
ASP   ILE

>  <FRAG_NAME>  (1897) 
ACET   PRPA

>  <FRAG_ATOM_NUM>  (1897) 
fragi: 7  fragj: 11

>  <atom.prop.CHAIN_ID>  (1897) 
A A A A A A A Z Z Z Z Z Z Z Z Z Z Z

>  <atom.prop.IS_HEAVY_ATOM>  (1897) 
1 0 0 0 1 1 1 1 0 0 0 1 0 0 1 0 0 0

>  <DIFUSE_FUNC_ATOM>  (1897) 
atom 6   atom 7   

>  <FINAL_SINGLE_POINT_ENERGY>  (1897) 
0

>  <NONCOV_INTER_ENERGY_QM>  (1897) 
0

>  <FF_Energy>  (1897) 
32.67

>  <QM_Energy>  (1897) 
10.04

>  <source>  (1897) 
ACET_PRPA_25

>  <Index>  (1897) 
24305

$$$$
ACET-pdb5k0s-C-ASP-70:PRPA-pdb5k0s-C-ILE-66
     RDKit          3D

 18 16  0  0  0  0  0  0  0  0999 V2000
   -0.0021    1.5134    0.0081 C   0  0  0  0  0  0  0  0  0  0  0  0
    0.7835    1.8380   -0.5056 H   0  0  0  0  0  0  0  0  0  0  0  0
    0.0415    1.8296    0.9488 H   0  0  0  0  0  0  0  0  0  0  0  0
   -0.8989    1.9330   -0.4479 H   0  0  0  0  0  0  0  0  0  0  0  0
    0.0000    0.0000    0.0000 C   0  0  0  0  0  0  0  0  0  0  0  0
   -1.0988   -0.5957   -0.0000 O   0  0  0  0  0  1  0  0  0  0  0  0
    1.0988   -0.5938    0.0000 O   0  0  0  0  0  0  0  0  0  0  0  0
    3.7016    3.5316    2.7260 C   0  0  0  0  0  0  0  0  0  0  0  0
    3.7213    2.5810    3.0266 H   0  0  0  0  0  0  0  0  0  0  0  0
    4.5989    3.9384    2.8861 H   0  0  0  0  0  0  0  0  0  0  0  0
    2.9647    4.0734    3.3188 H   0  0  0  0  0  0  0  0  0  0  0  0
    3.4113    3.5699    1.2411 C   0  0  0  0  0  0  0  0  0  0  0  0
    3.1454    4.4970    0.9942 H   0  0  0  0  0  0  0  0  0  0  0  0
    4.3061    3.3201    0.6709 H   0  0  0  0  0  0  0  0  0  0  0  0
    2.2821    2.6346    0.8794 C   0  0  0  0  0  0  0  0  0  0  0  0
    1.4507    2.9000    1.3702 H   0  0  0  0  0  0  0  0  0  0  0  0
    2.1091    2.6763   -0.1055 H   0  0  0  0  0  0  0  0  0  0  0  0
    2.5247    1.6973    1.1293 H   0  0  0  0  0  0  0  0  0  0  0  0
  1  5  1  0
  5  6  1  0
  5  7  2  0
  1  2  1  0
  1  3  1  0
  1  4  1  0
  8 12  1  0
 12 15  1  0
  8  9  1  0
  8 10  1  0
  8 11  1  0
 12 13  1  0
 12 14  1  0
 15 16  1  0
 15 17  1  0
 15 18  1  0
M  CHG  1   6  -1
M  END
>  <PDB_ID>  (1898) 
pdb5k0s

>  <RESIDUE_NAME>  (1898) 
ASP   ILE

>  <FRAG_NAME>  (1898) 
ACET   PRPA

>  <FRAG_ATOM_NUM>  (1898) 
fragi: 7  fragj: 11

>  <atom.prop.CHAIN_ID>  (1898) 
A A A A A A A Z Z Z Z Z Z Z Z Z Z Z

>  <atom.prop.IS_HEAVY_ATOM>  (1898) 
1 0 0 0 1 1 1 1 0 0 0 1 0 0 1 0 0 0

>  <DIFUSE_FUNC_ATOM>  (1898) 
atom 6   atom 7   

>  <FINAL_SINGLE_POINT_ENERGY>  (1898) 
0

>  <NONCOV_INTER_ENERGY_QM>  (1898) 
0

>  <FF_Energy>  (1898) 
32.58

>  <QM_Energy>  (1898) 
10.26

>  <source>  (1898) 
ACET_PRPA_25

>  <Index>  (1898) 
24315

$$$$
ACET-pdb6o7y-A-ASP-32:PRPA-pdb6o7y-A-LYS-35
     RDKit          3D

 18 16  0  0  0  0  0  0  0  0999 V2000
   -0.0009    1.5178   -0.0023 C   0  0  0  0  0  0  0  0  0  0  0  0
    0.5765    1.8387   -0.7579 H   0  0  0  0  0  0  0  0  0  0  0  0
    0.3880    1.8408    0.8639 H   0  0  0  0  0  0  0  0  0  0  0  0
   -0.9797    1.9834   -0.1171 H   0  0  0  0  0  0  0  0  0  0  0  0
    0.0000    0.0000    0.0000 C   0  0  0  0  0  0  0  0  0  0  0  0
   -1.1012   -0.5995   -0.0000 O   0  0  0  0  0  1  0  0  0  0  0  0
    1.1012   -0.5894    0.0000 O   0  0  0  0  0  0  0  0  0  0  0  0
    0.5982   -0.0823    4.5104 C   0  0  0  0  0  0  0  0  0  0  0  0
    1.1920   -0.8764    4.6820 H   0  0  0  0  0  0  0  0  0  0  0  0
   -0.2886   -0.4145    3.9707 H   0  0  0  0  0  0  0  0  0  0  0  0
    0.3318    0.3627    5.4691 H   0  0  0  0  0  0  0  0  0  0  0  0
    1.4430    0.8823    3.6520 C   0  0  0  0  0  0  0  0  0  0  0  0
    0.8789    1.6759    3.4384 H   0  0  0  0  0  0  0  0  0  0  0  0
    2.2314    1.1630    4.1944 H   0  0  0  0  0  0  0  0  0  0  0  0
    1.9421    0.2789    2.3481 C   0  0  0  0  0  0  0  0  0  0  0  0
    2.5110   -0.5181    2.5537 H   0  0  0  0  0  0  0  0  0  0  0  0
    1.1574   -0.0042    1.7974 H   0  0  0  0  0  0  0  0  0  0  0  0
    2.5331    0.9964    1.7790 H   0  0  0  0  0  0  0  0  0  0  0  0
  1  5  1  0
  5  6  1  0
  5  7  2  0
  1  2  1  0
  1  3  1  0
  1  4  1  0
  8 12  1  0
 12 15  1  0
  8  9  1  0
  8 10  1  0
  8 11  1  0
 12 13  1  0
 12 14  1  0
 15 16  1  0
 15 17  1  0
 15 18  1  0
M  CHG  1   6  -1
M  END
>  <PDB_ID>  (1899) 
pdb6o7y

>  <RESIDUE_NAME>  (1899) 
ASP   LYS

>  <FRAG_NAME>  (1899) 
ACET   PRPA

>  <FRAG_ATOM_NUM>  (1899) 
fragi: 7  fragj: 11

>  <atom.prop.CHAIN_ID>  (1899) 
A A A A A A A Z Z Z Z Z Z Z Z Z Z Z

>  <atom.prop.IS_HEAVY_ATOM>  (1899) 
1 0 0 0 1 1 1 1 0 0 0 1 0 0 1 0 0 0

>  <DIFUSE_FUNC_ATOM>  (1899) 
atom 6   atom 7   

>  <FINAL_SINGLE_POINT_ENERGY>  (1899) 
0

>  <NONCOV_INTER_ENERGY_QM>  (1899) 
0

>  <FF_Energy>  (1899) 
27.7

>  <QM_Energy>  (1899) 
5.56

>  <source>  (1899) 
ACET_PRPA_25

>  <Index>  (1899) 
24633

$$$$
ACET-pdb6o7y-A-ASP-32:PRPA-pdb6o7y-A-LYS-35
     RDKit          3D

 18 16  0  0  0  0  0  0  0  0999 V2000
   -0.0009    1.5178   -0.0023 C   0  0  0  0  0  0  0  0  0  0  0  0
    0.5765    1.8387   -0.7579 H   0  0  0  0  0  0  0  0  0  0  0  0
    0.3880    1.8408    0.8639 H   0  0  0  0  0  0  0  0  0  0  0  0
   -0.9797    1.9834   -0.1171 H   0  0  0  0  0  0  0  0  0  0  0  0
    0.0000    0.0000    0.0000 C   0  0  0  0  0  0  0  0  0  0  0  0
   -1.1012   -0.5995   -0.0000 O   0  0  0  0  0  1  0  0  0  0  0  0
    1.1012   -0.5894    0.0000 O   0  0  0  0  0  0  0  0  0  0  0  0
    1.4430    0.8823    3.6520 C   0  0  0  0  0  0  0  0  0  0  0  0
    0.8789    1.6759    3.4384 H   0  0  0  0  0  0  0  0  0  0  0  0
    2.2314    1.1630    4.1944 H   0  0  0  0  0  0  0  0  0  0  0  0
    0.8462    0.2009    4.2584 H   0  0  0  0  0  0  0  0  0  0  0  0
    1.9421    0.2789    2.3481 C   0  0  0  0  0  0  0  0  0  0  0  0
    2.5110   -0.5181    2.5537 H   0  0  0  0  0  0  0  0  0  0  0  0
    1.1574   -0.0042    1.7974 H   0  0  0  0  0  0  0  0  0  0  0  0
    2.7665    1.2796    1.5543 C   0  0  0  0  0  0  0  0  0  0  0  0
    2.1959    2.0757    1.3525 H   0  0  0  0  0  0  0  0  0  0  0  0
    3.5502    1.5615    2.1083 H   0  0  0  0  0  0  0  0  0  0  0  0
    3.1342    0.8657    0.6153 H   0  0  0  0  0  0  0  0  0  0  0  0
  1  5  1  0
  5  6  1  0
  5  7  2  0
  1  2  1  0
  1  3  1  0
  1  4  1  0
  8 12  1  0
 12 15  1  0
  8  9  1  0
  8 10  1  0
  8 11  1  0
 12 13  1  0
 12 14  1  0
 15 16  1  0
 15 17  1  0
 15 18  1  0
M  CHG  1   6  -1
M  END
>  <PDB_ID>  (1900) 
pdb6o7y

>  <RESIDUE_NAME>  (1900) 
ASP   LYS

>  <FRAG_NAME>  (1900) 
ACET   PRPA

>  <FRAG_ATOM_NUM>  (1900) 
fragi: 7  fragj: 11

>  <atom.prop.CHAIN_ID>  (1900) 
A A A A A A A Z Z Z Z Z Z Z Z Z Z Z

>  <atom.prop.IS_HEAVY_ATOM>  (1900) 
1 0 0 0 1 1 1 1 0 0 0 1 0 0 1 0 0 0

>  <DIFUSE_FUNC_ATOM>  (1900) 
atom 6   atom 7   

>  <FINAL_SINGLE_POINT_ENERGY>  (1900) 
0

>  <NONCOV_INTER_ENERGY_QM>  (1900) 
0

>  <FF_Energy>  (1900) 
35.2

>  <QM_Energy>  (1900) 
6.37

>  <source>  (1900) 
ACET_PRPA_25

>  <Index>  (1900) 
24641

$$$$
ACET-pdb6o43-A-ASP-200:PRPA-pdb6o43-A-LYS-16
     RDKit          3D

 18 16  0  0  0  0  0  0  0  0999 V2000
    0.0312    1.5166   -0.0166 C   0  0  0  0  0  0  0  0  0  0  0  0
    0.5276    1.8153   -0.8333 H   0  0  0  0  0  0  0  0  0  0  0  0
    0.5164    1.8344    0.7991 H   0  0  0  0  0  0  0  0  0  0  0  0
   -0.9521    1.9867   -0.0286 H   0  0  0  0  0  0  0  0  0  0  0  0
    0.0000    0.0000    0.0000 C   0  0  0  0  0  0  0  0  0  0  0  0
   -1.0956   -0.6003   -0.0000 O   0  0  0  0  0  1  0  0  0  0  0  0
    1.0956   -0.5818    0.0000 O   0  0  0  0  0  0  0  0  0  0  0  0
   -3.8242   -3.2631    1.0538 C   0  0  0  0  0  0  0  0  0  0  0  0
   -3.7921   -2.8688    1.9715 H   0  0  0  0  0  0  0  0  0  0  0  0
   -3.7418   -4.2569    1.1136 H   0  0  0  0  0  0  0  0  0  0  0  0
   -4.7778   -3.0103    0.5902 H   0  0  0  0  0  0  0  0  0  0  0  0
   -2.6543   -2.7205    0.2447 C   0  0  0  0  0  0  0  0  0  0  0  0
   -2.6909   -3.1145   -0.6734 H   0  0  0  0  0  0  0  0  0  0  0  0
   -2.7396   -1.7261    0.1860 H   0  0  0  0  0  0  0  0  0  0  0  0
   -1.3171   -3.0578    0.8656 C   0  0  0  0  0  0  0  0  0  0  0  0
   -1.2732   -2.6630    1.7835 H   0  0  0  0  0  0  0  0  0  0  0  0
   -1.2232   -4.0515    0.9248 H   0  0  0  0  0  0  0  0  0  0  0  0
   -0.5031   -2.6555    0.2625 H   0  0  0  0  0  0  0  0  0  0  0  0
  1  5  1  0
  5  6  1  0
  5  7  2  0
  1  2  1  0
  1  3  1  0
  1  4  1  0
  8 12  1  0
 12 15  1  0
  8  9  1  0
  8 10  1  0
  8 11  1  0
 12 13  1  0
 12 14  1  0
 15 16  1  0
 15 17  1  0
 15 18  1  0
M  CHG  1   6  -1
M  END
>  <PDB_ID>  (1901) 
pdb6o43

>  <RESIDUE_NAME>  (1901) 
ASP   LYS

>  <FRAG_NAME>  (1901) 
ACET   PRPA

>  <FRAG_ATOM_NUM>  (1901) 
fragi: 7  fragj: 11

>  <atom.prop.CHAIN_ID>  (1901) 
A A A A A A A Z Z Z Z Z Z Z Z Z Z Z

>  <atom.prop.IS_HEAVY_ATOM>  (1901) 
1 0 0 0 1 1 1 1 0 0 0 1 0 0 1 0 0 0

>  <DIFUSE_FUNC_ATOM>  (1901) 
atom 6   atom 7   

>  <FINAL_SINGLE_POINT_ENERGY>  (1901) 
0

>  <NONCOV_INTER_ENERGY_QM>  (1901) 
0

>  <FF_Energy>  (1901) 
19.43

>  <QM_Energy>  (1901) 
2.62

>  <source>  (1901) 
ACET_PRPA_25

>  <Index>  (1901) 
25539

$$$$
ACET-pdb5l8i-B-ASP-47:PRPA-pdb5l8i-A-LYS-36
     RDKit          3D

 18 16  0  0  0  0  0  0  0  0999 V2000
    0.0299    1.5315    0.0061 C   0  0  0  0  0  0  0  0  0  0  0  0
    0.8557    1.8267   -0.4636 H   0  0  0  0  0  0  0  0  0  0  0  0
    0.0430    1.8372    0.9520 H   0  0  0  0  0  0  0  0  0  0  0  0
   -0.8315    1.9765   -0.4920 H   0  0  0  0  0  0  0  0  0  0  0  0
    0.0000    0.0000    0.0000 C   0  0  0  0  0  0  0  0  0  0  0  0
   -1.1014   -0.6015    0.0000 O   0  0  0  0  0  1  0  0  0  0  0  0
    1.1014   -0.6107    0.0000 O   0  0  0  0  0  0  0  0  0  0  0  0
    1.8821   -0.4012    4.6883 C   0  0  0  0  0  0  0  0  0  0  0  0
    1.1087    0.1925    4.9156 H   0  0  0  0  0  0  0  0  0  0  0  0
    2.6143    0.1504    4.2867 H   0  0  0  0  0  0  0  0  0  0  0  0
    2.2501   -0.8696    5.6011 H   0  0  0  0  0  0  0  0  0  0  0  0
    1.4294   -1.4330    3.6735 C   0  0  0  0  0  0  0  0  0  0  0  0
    2.2047   -2.0261    3.4488 H   0  0  0  0  0  0  0  0  0  0  0  0
    0.6980   -1.9834    4.0764 H   0  0  0  0  0  0  0  0  0  0  0  0
    0.9144   -0.8080    2.3958 C   0  0  0  0  0  0  0  0  0  0  0  0
    0.1905   -0.1554    2.6192 H   0  0  0  0  0  0  0  0  0  0  0  0
    1.6643   -0.3271    1.9400 H   0  0  0  0  0  0  0  0  0  0  0  0
    0.5180   -1.5703    1.7252 H   0  0  0  0  0  0  0  0  0  0  0  0
  1  5  1  0
  5  6  1  0
  5  7  2  0
  1  2  1  0
  1  3  1  0
  1  4  1  0
  8 12  1  0
 12 15  1  0
  8  9  1  0
  8 10  1  0
  8 11  1  0
 12 13  1  0
 12 14  1  0
 15 16  1  0
 15 17  1  0
 15 18  1  0
M  CHG  1   6  -1
M  END
>  <PDB_ID>  (1902) 
pdb5l8i

>  <RESIDUE_NAME>  (1902) 
ASP   LYS

>  <FRAG_NAME>  (1902) 
ACET   PRPA

>  <FRAG_ATOM_NUM>  (1902) 
fragi: 7  fragj: 11

>  <atom.prop.CHAIN_ID>  (1902) 
A A A A A A A Z Z Z Z Z Z Z Z Z Z Z

>  <atom.prop.IS_HEAVY_ATOM>  (1902) 
1 0 0 0 1 1 1 1 0 0 0 1 0 0 1 0 0 0

>  <DIFUSE_FUNC_ATOM>  (1902) 
atom 6   atom 7   

>  <FINAL_SINGLE_POINT_ENERGY>  (1902) 
0

>  <NONCOV_INTER_ENERGY_QM>  (1902) 
0

>  <FF_Energy>  (1902) 
35.74

>  <QM_Energy>  (1902) 
10.47

>  <source>  (1902) 
ACET_PRPA_25

>  <Index>  (1902) 
26246

$$$$
ACET-pdb5k0s-C-GLU-397:PRPA-pdb5k0s-C-LYS-401
     RDKit          3D

 18 16  0  0  0  0  0  0  0  0999 V2000
    0.0108    1.5166   -0.0062 C   0  0  0  0  0  0  0  0  0  0  0  0
    0.4595    1.8072   -0.8320 H   0  0  0  0  0  0  0  0  0  0  0  0
    0.4908    1.8132    0.7996 H   0  0  0  0  0  0  0  0  0  0  0  0
   -0.9888    1.9507    0.0101 H   0  0  0  0  0  0  0  0  0  0  0  0
    0.0000    0.0000    0.0000 C   0  0  0  0  0  0  0  0  0  0  0  0
   -1.0975   -0.5980    0.0000 O   0  0  0  0  0  1  0  0  0  0  0  0
    1.0975   -0.5976   -0.0000 O   0  0  0  0  0  0  0  0  0  0  0  0
    2.1888   -0.7301    4.0467 C   0  0  0  0  0  0  0  0  0  0  0  0
    2.2470   -1.7243    4.1621 H   0  0  0  0  0  0  0  0  0  0  0  0
    1.2891   -0.4955    3.6723 H   0  0  0  0  0  0  0  0  0  0  0  0
    2.2994   -0.2554    5.0217 H   0  0  0  0  0  0  0  0  0  0  0  0
    3.2609   -0.2825    3.0741 C   0  0  0  0  0  0  0  0  0  0  0  0
    3.2010    0.7115    2.9635 H   0  0  0  0  0  0  0  0  0  0  0  0
    4.1581   -0.5176    3.4521 H   0  0  0  0  0  0  0  0  0  0  0  0
    3.1257   -0.9288    1.7163 C   0  0  0  0  0  0  0  0  0  0  0  0
    3.1905   -1.9223    1.8173 H   0  0  0  0  0  0  0  0  0  0  0  0
    2.2326   -0.6936    1.3275 H   0  0  0  0  0  0  0  0  0  0  0  0
    3.9108   -0.5846    1.0431 H   0  0  0  0  0  0  0  0  0  0  0  0
  1  5  1  0
  5  6  1  0
  5  7  2  0
  1  2  1  0
  1  3  1  0
  1  4  1  0
  8 12  1  0
 12 15  1  0
  8  9  1  0
  8 10  1  0
  8 11  1  0
 12 13  1  0
 12 14  1  0
 15 16  1  0
 15 17  1  0
 15 18  1  0
M  CHG  1   6  -1
M  END
>  <PDB_ID>  (1903) 
pdb5k0s

>  <RESIDUE_NAME>  (1903) 
GLU   LYS

>  <FRAG_NAME>  (1903) 
ACET   PRPA

>  <FRAG_ATOM_NUM>  (1903) 
fragi: 7  fragj: 11

>  <atom.prop.CHAIN_ID>  (1903) 
A A A A A A A Z Z Z Z Z Z Z Z Z Z Z

>  <atom.prop.IS_HEAVY_ATOM>  (1903) 
1 0 0 0 1 1 1 1 0 0 0 1 0 0 1 0 0 0

>  <DIFUSE_FUNC_ATOM>  (1903) 
atom 6   atom 7   

>  <FINAL_SINGLE_POINT_ENERGY>  (1903) 
0

>  <NONCOV_INTER_ENERGY_QM>  (1903) 
0

>  <FF_Energy>  (1903) 
40.16

>  <QM_Energy>  (1903) 
2.89

>  <source>  (1903) 
ACET_PRPA_25

>  <Index>  (1903) 
26523

$$$$
ACET-pdb5l8i-A-GLU-17:PRPA-pdb5l8i-A-VAL-118
     RDKit          3D

 18 16  0  0  0  0  0  0  0  0999 V2000
    0.0371    1.5669    0.0233 C   0  0  0  0  0  0  0  0  0  0  0  0
   -0.1001    1.8572   -0.9024 H   0  0  0  0  0  0  0  0  0  0  0  0
    0.9188    1.8132    0.3731 H   0  0  0  0  0  0  0  0  0  0  0  0
   -0.7371    2.0022    0.6552 H   0  0  0  0  0  0  0  0  0  0  0  0
    0.0000    0.0000    0.0000 C   0  0  0  0  0  0  0  0  0  0  0  0
   -1.1023   -0.6306   -0.0000 O   0  0  0  0  0  1  0  0  0  0  0  0
    1.1023   -0.6274    0.0000 O   0  0  0  0  0  0  0  0  0  0  0  0
   -0.7735    1.6438   -3.3528 C   0  0  0  0  0  0  0  0  0  0  0  0
   -0.4622    1.6390   -2.4020 H   0  0  0  0  0  0  0  0  0  0  0  0
   -1.0980    2.5593   -3.5907 H   0  0  0  0  0  0  0  0  0  0  0  0
   -1.5211    0.9878   -3.4595 H   0  0  0  0  0  0  0  0  0  0  0  0
    0.3766    1.2579   -4.2677 C   0  0  0  0  0  0  0  0  0  0  0  0
    0.3783    1.9106   -5.0201 H   0  0  0  0  0  0  0  0  0  0  0  0
    0.2119    0.2633   -4.6823 H   0  0  0  0  0  0  0  0  0  0  0  0
    1.7367    1.3129   -3.5670 C   0  0  0  0  0  0  0  0  0  0  0  0
    1.7810    0.5862   -2.8843 H   0  0  0  0  0  0  0  0  0  0  0  0
    2.4581    1.1857   -4.2457 H   0  0  0  0  0  0  0  0  0  0  0  0
    1.8391    2.2021   -3.1240 H   0  0  0  0  0  0  0  0  0  0  0  0
  1  5  1  0
  5  6  1  0
  5  7  2  0
  1  2  1  0
  1  3  1  0
  1  4  1  0
  8 12  1  0
 12 15  1  0
  8  9  1  0
  8 10  1  0
  8 11  1  0
 12 13  1  0
 12 14  1  0
 15 16  1  0
 15 17  1  0
 15 18  1  0
M  CHG  1   6  -1
M  END
>  <PDB_ID>  (1904) 
pdb5l8i

>  <RESIDUE_NAME>  (1904) 
GLU   VAL

>  <FRAG_NAME>  (1904) 
ACET   PRPA

>  <FRAG_ATOM_NUM>  (1904) 
fragi: 7  fragj: 11

>  <atom.prop.CHAIN_ID>  (1904) 
A A A A A A A Z Z Z Z Z Z Z Z Z Z Z

>  <atom.prop.IS_HEAVY_ATOM>  (1904) 
1 0 0 0 1 1 1 1 0 0 0 1 0 0 1 0 0 0

>  <DIFUSE_FUNC_ATOM>  (1904) 
atom 6   atom 7   

>  <FINAL_SINGLE_POINT_ENERGY>  (1904) 
0

>  <NONCOV_INTER_ENERGY_QM>  (1904) 
0

>  <FF_Energy>  (1904) 
15.87

>  <QM_Energy>  (1904) 
0.79

>  <source>  (1904) 
ACET_PRPA_25

>  <Index>  (1904) 
26618

$$$$
ACET-pdb5m2y-A-GLU-331:PRPA-pdb5m2y-A-ARG-423
     RDKit          3D

 18 16  0  0  0  0  0  0  0  0999 V2000
    0.0371    1.5207    0.0973 C   0  0  0  0  0  0  0  0  0  0  0  0
    0.8581    1.8233   -0.3700 H   0  0  0  0  0  0  0  0  0  0  0  0
    0.0784    1.7499    1.0620 H   0  0  0  0  0  0  0  0  0  0  0  0
   -0.8182    2.0326   -0.3437 H   0  0  0  0  0  0  0  0  0  0  0  0
    0.0000    0.0000    0.0000 C   0  0  0  0  0  0  0  0  0  0  0  0
   -1.0964   -0.5953    0.0000 O   0  0  0  0  0  1  0  0  0  0  0  0
    1.0964   -0.5934   -0.0000 O   0  0  0  0  0  0  0  0  0  0  0  0
    3.8369    0.6008    3.6098 C   0  0  0  0  0  0  0  0  0  0  0  0
    4.5637    0.0461    3.1805 H   0  0  0  0  0  0  0  0  0  0  0  0
    3.5892    0.1619    4.4847 H   0  0  0  0  0  0  0  0  0  0  0  0
    4.2588    1.5796    3.8380 H   0  0  0  0  0  0  0  0  0  0  0  0
    2.6288    0.5677    2.7110 C   0  0  0  0  0  0  0  0  0  0  0  0
    1.8477    0.9310    3.1850 H   0  0  0  0  0  0  0  0  0  0  0  0
    2.8176    1.0539    1.8772 H   0  0  0  0  0  0  0  0  0  0  0  0
    2.3547   -0.8765    2.3702 C   0  0  0  0  0  0  0  0  0  0  0  0
    1.6668   -0.8996    1.6406 H   0  0  0  0  0  0  0  0  0  0  0  0
    3.2071   -1.2830    2.0277 H   0  0  0  0  0  0  0  0  0  0  0  0
    1.9963   -1.4568    3.2205 H   0  0  0  0  0  0  0  0  0  0  0  0
  1  5  1  0
  5  6  1  0
  5  7  2  0
  1  2  1  0
  1  3  1  0
  1  4  1  0
  8 12  1  0
 12 15  1  0
  8  9  1  0
  8 10  1  0
  8 11  1  0
 12 13  1  0
 12 14  1  0
 15 16  1  0
 15 17  1  0
 15 18  1  0
M  CHG  1   6  -1
M  END
>  <PDB_ID>  (1905) 
pdb5m2y

>  <RESIDUE_NAME>  (1905) 
GLU   ARG

>  <FRAG_NAME>  (1905) 
ACET   PRPA

>  <FRAG_ATOM_NUM>  (1905) 
fragi: 7  fragj: 11

>  <atom.prop.CHAIN_ID>  (1905) 
A A A A A A A Z Z Z Z Z Z Z Z Z Z Z

>  <atom.prop.IS_HEAVY_ATOM>  (1905) 
1 0 0 0 1 1 1 1 0 0 0 1 0 0 1 0 0 0

>  <DIFUSE_FUNC_ATOM>  (1905) 
atom 6   atom 7   

>  <FINAL_SINGLE_POINT_ENERGY>  (1905) 
0

>  <NONCOV_INTER_ENERGY_QM>  (1905) 
0

>  <FF_Energy>  (1905) 
36.4

>  <QM_Energy>  (1905) 
1.13

>  <source>  (1905) 
ACET_PRPA_25

>  <Index>  (1905) 
36090

$$$$
ACET-pdb6pex-A-ASP-37:PRPA-pdb6pex-A-PRO-33
     RDKit          3D

 18 16  0  0  0  0  0  0  0  0999 V2000
    0.0357    1.5163   -0.0200 C   0  0  0  0  0  0  0  0  0  0  0  0
    0.5283    1.8137   -0.8371 H   0  0  0  0  0  0  0  0  0  0  0  0
    0.5175    1.8354    0.7942 H   0  0  0  0  0  0  0  0  0  0  0  0
   -0.9482    1.9850   -0.0329 H   0  0  0  0  0  0  0  0  0  0  0  0
    0.0000    0.0000    0.0000 C   0  0  0  0  0  0  0  0  0  0  0  0
   -1.0955   -0.5998   -0.0000 O   0  0  0  0  0  1  0  0  0  0  0  0
    1.0955   -0.5838    0.0000 O   0  0  0  0  0  0  0  0  0  0  0  0
    3.4175   -2.0131   -1.1035 C   0  0  0  0  0  0  0  0  0  0  0  0
    2.4336   -2.2132   -1.0774 H   0  0  0  0  0  0  0  0  0  0  0  0
    3.9206   -2.8730   -1.2243 H   0  0  0  0  0  0  0  0  0  0  0  0
    3.6444   -1.3209   -1.9144 H   0  0  0  0  0  0  0  0  0  0  0  0
    3.8536   -1.3051    0.1364 C   0  0  0  0  0  0  0  0  0  0  0  0
    3.3348   -1.6382    0.9331 H   0  0  0  0  0  0  0  0  0  0  0  0
    4.8327   -1.4665    0.3067 H   0  0  0  0  0  0  0  0  0  0  0  0
    3.5841    0.1485   -0.1100 C   0  0  0  0  0  0  0  0  0  0  0  0
    2.6569    0.4022    0.1612 H   0  0  0  0  0  0  0  0  0  0  0  0
    4.2424    0.7318    0.3679 H   0  0  0  0  0  0  0  0  0  0  0  0
    3.7049    0.2405   -1.1893 H   0  0  0  0  0  0  0  0  0  0  0  0
  1  5  1  0
  5  6  1  0
  5  7  2  0
  1  2  1  0
  1  3  1  0
  1  4  1  0
  8 12  1  0
 12 15  1  0
  8  9  1  0
  8 10  1  0
  8 11  1  0
 12 13  1  0
 12 14  1  0
 15 16  1  0
 15 17  1  0
 15 18  1  0
M  CHG  1   6  -1
M  END
>  <PDB_ID>  (1906) 
pdb6pex

>  <RESIDUE_NAME>  (1906) 
ASP   PRO

>  <FRAG_NAME>  (1906) 
ACET   PRPA

>  <FRAG_ATOM_NUM>  (1906) 
fragi: 7  fragj: 11

>  <atom.prop.CHAIN_ID>  (1906) 
A A A A A A A Z Z Z Z Z Z Z Z Z Z Z

>  <atom.prop.IS_HEAVY_ATOM>  (1906) 
1 0 0 0 1 1 1 1 0 0 0 1 0 0 1 0 0 0

>  <DIFUSE_FUNC_ATOM>  (1906) 
atom 6   atom 7   

>  <FINAL_SINGLE_POINT_ENERGY>  (1906) 
0

>  <NONCOV_INTER_ENERGY_QM>  (1906) 
0

>  <FF_Energy>  (1906) 
27.91

>  <QM_Energy>  (1906) 
2.18

>  <source>  (1906) 
ACET_PRPA_25

>  <Index>  (1906) 
36155

$$$$
ACET-pdb6qmp-B-GLU-54:PRPA-pdb6qmp-A-LYS-290
     RDKit          3D

 18 16  0  0  0  0  0  0  0  0999 V2000
    0.2266    1.5075    0.0117 C   0  0  0  0  0  0  0  0  0  0  0  0
    0.7339    1.7361   -0.8057 H   0  0  0  0  0  0  0  0  0  0  0  0
    0.7453    1.7209    0.8269 H   0  0  0  0  0  0  0  0  0  0  0  0
   -0.6863    2.1029    0.0228 H   0  0  0  0  0  0  0  0  0  0  0  0
    0.0000    0.0000    0.0000 C   0  0  0  0  0  0  0  0  0  0  0  0
   -1.0872   -0.5303   -0.0000 O   0  0  0  0  0  1  0  0  0  0  0  0
    1.0872   -0.6218   -0.0000 O   0  0  0  0  0  0  0  0  0  0  0  0
   -0.9929   -1.9021   -2.1405 C   0  0  0  0  0  0  0  0  0  0  0  0
   -1.0182   -0.9519   -1.8082 H   0  0  0  0  0  0  0  0  0  0  0  0
   -0.1282   -2.4047   -1.7070 H   0  0  0  0  0  0  0  0  0  0  0  0
   -1.9189   -2.3974   -1.8486 H   0  0  0  0  0  0  0  0  0  0  0  0
   -0.8769   -1.8455   -3.6661 C   0  0  0  0  0  0  0  0  0  0  0  0
   -1.1615   -2.7313   -4.0329 H   0  0  0  0  0  0  0  0  0  0  0  0
   -1.4962   -1.1339   -3.9991 H   0  0  0  0  0  0  0  0  0  0  0  0
    0.5221   -1.5421   -4.1855 C   0  0  0  0  0  0  0  0  0  0  0  0
    0.8157   -0.6533   -3.8278 H   0  0  0  0  0  0  0  0  0  0  0  0
    1.1506   -2.2519   -3.8635 H   0  0  0  0  0  0  0  0  0  0  0  0
    0.5504   -1.5119   -5.2747 H   0  0  0  0  0  0  0  0  0  0  0  0
  1  5  1  0
  5  6  1  0
  5  7  2  0
  1  2  1  0
  1  3  1  0
  1  4  1  0
  8 12  1  0
 12 15  1  0
  8  9  1  0
  8 10  1  0
  8 11  1  0
 12 13  1  0
 12 14  1  0
 15 16  1  0
 15 17  1  0
 15 18  1  0
M  CHG  1   6  -1
M  END
>  <PDB_ID>  (1907) 
pdb6qmp

>  <RESIDUE_NAME>  (1907) 
GLU   LYS

>  <FRAG_NAME>  (1907) 
ACET   PRPA

>  <FRAG_ATOM_NUM>  (1907) 
fragi: 7  fragj: 11

>  <atom.prop.CHAIN_ID>  (1907) 
A A A A A A A Z Z Z Z Z Z Z Z Z Z Z

>  <atom.prop.IS_HEAVY_ATOM>  (1907) 
1 0 0 0 1 1 1 1 0 0 0 1 0 0 1 0 0 0

>  <DIFUSE_FUNC_ATOM>  (1907) 
atom 6   atom 7   

>  <FINAL_SINGLE_POINT_ENERGY>  (1907) 
0

>  <NONCOV_INTER_ENERGY_QM>  (1907) 
0

>  <FF_Energy>  (1907) 
29.39

>  <QM_Energy>  (1907) 
5.96

>  <source>  (1907) 
ACET_PRPA_25

>  <Index>  (1907) 
39800

$$$$
ACET-pdb5mp0-D-GLU-147:PRPA-pdb5mp0-D-ARG-143
     RDKit          3D

 18 16  0  0  0  0  0  0  0  0999 V2000
    0.1736    1.4864    0.0151 C   0  0  0  0  0  0  0  0  0  0  0  0
    0.6922    1.7419   -0.8025 H   0  0  0  0  0  0  0  0  0  0  0  0
    0.7046    1.7235    0.8304 H   0  0  0  0  0  0  0  0  0  0  0  0
   -0.7370    2.0855    0.0271 H   0  0  0  0  0  0  0  0  0  0  0  0
    0.0000    0.0000    0.0000 C   0  0  0  0  0  0  0  0  0  0  0  0
   -1.0890   -0.5573   -0.0000 O   0  0  0  0  0  1  0  0  0  0  0  0
    1.0890   -0.6062    0.0000 O   0  0  0  0  0  0  0  0  0  0  0  0
    4.5552    1.3858   -0.0526 C   0  0  0  0  0  0  0  0  0  0  0  0
    4.5418    2.1122   -0.7483 H   0  0  0  0  0  0  0  0  0  0  0  0
    5.4240    1.5235    0.5911 H   0  0  0  0  0  0  0  0  0  0  0  0
    3.6282    1.4453    0.5176 H   0  0  0  0  0  0  0  0  0  0  0  0
    4.6236    0.0077   -0.7249 C   0  0  0  0  0  0  0  0  0  0  0  0
    5.4364   -0.0314   -1.2812 H   0  0  0  0  0  0  0  0  0  0  0  0
    4.6256   -0.6851   -0.0239 H   0  0  0  0  0  0  0  0  0  0  0  0
    3.4118   -0.2606   -1.6454 C   0  0  0  0  0  0  0  0  0  0  0  0
    2.5838   -0.2771   -1.0889 H   0  0  0  0  0  0  0  0  0  0  0  0
    3.3519    0.4745   -2.3181 H   0  0  0  0  0  0  0  0  0  0  0  0
    3.4951   -1.2096   -2.1750 H   0  0  0  0  0  0  0  0  0  0  0  0
  1  5  1  0
  5  6  1  0
  5  7  2  0
  1  2  1  0
  1  3  1  0
  1  4  1  0
  8 12  1  0
 12 15  1  0
  8  9  1  0
  8 10  1  0
  8 11  1  0
 12 13  1  0
 12 14  1  0
 15 16  1  0
 15 17  1  0
 15 18  1  0
M  CHG  1   6  -1
M  END
>  <PDB_ID>  (1908) 
pdb5mp0

>  <RESIDUE_NAME>  (1908) 
GLU   ARG

>  <FRAG_NAME>  (1908) 
ACET   PRPA

>  <FRAG_ATOM_NUM>  (1908) 
fragi: 7  fragj: 11

>  <atom.prop.CHAIN_ID>  (1908) 
A A A A A A A Z Z Z Z Z Z Z Z Z Z Z

>  <atom.prop.IS_HEAVY_ATOM>  (1908) 
1 0 0 0 1 1 1 1 0 0 0 1 0 0 1 0 0 0

>  <DIFUSE_FUNC_ATOM>  (1908) 
atom 6   atom 7   

>  <FINAL_SINGLE_POINT_ENERGY>  (1908) 
0

>  <NONCOV_INTER_ENERGY_QM>  (1908) 
0

>  <FF_Energy>  (1908) 
15.15

>  <QM_Energy>  (1908) 
-1.85

>  <source>  (1908) 
ACET_PRPA_26

>  <Index>  (1908) 
1509

$$$$
ACET-pdb5mp0-D-GLU-147:PRPA-pdb5mp0-D-ARG-143
     RDKit          3D

 18 16  0  0  0  0  0  0  0  0999 V2000
    0.1736    1.4864    0.0151 C   0  0  0  0  0  0  0  0  0  0  0  0
    0.6922    1.7419   -0.8025 H   0  0  0  0  0  0  0  0  0  0  0  0
    0.7046    1.7235    0.8304 H   0  0  0  0  0  0  0  0  0  0  0  0
   -0.7370    2.0855    0.0271 H   0  0  0  0  0  0  0  0  0  0  0  0
    0.0000    0.0000    0.0000 C   0  0  0  0  0  0  0  0  0  0  0  0
   -1.0890   -0.5573   -0.0000 O   0  0  0  0  0  1  0  0  0  0  0  0
    1.0890   -0.6062    0.0000 O   0  0  0  0  0  0  0  0  0  0  0  0
    4.6236    0.0077   -0.7249 C   0  0  0  0  0  0  0  0  0  0  0  0
    5.4364   -0.0314   -1.2812 H   0  0  0  0  0  0  0  0  0  0  0  0
    4.6256   -0.6851   -0.0239 H   0  0  0  0  0  0  0  0  0  0  0  0
    4.5750    0.9864   -0.2475 H   0  0  0  0  0  0  0  0  0  0  0  0
    3.4118   -0.2606   -1.6454 C   0  0  0  0  0  0  0  0  0  0  0  0
    2.5838   -0.2771   -1.0889 H   0  0  0  0  0  0  0  0  0  0  0  0
    3.3519    0.4745   -2.3181 H   0  0  0  0  0  0  0  0  0  0  0  0
    3.5276   -1.5806   -2.3820 C   0  0  0  0  0  0  0  0  0  0  0  0
    2.6584   -1.7429   -2.8667 H   0  0  0  0  0  0  0  0  0  0  0  0
    4.2593   -1.4882   -3.0693 H   0  0  0  0  0  0  0  0  0  0  0  0
    3.7448   -2.4379   -1.7449 H   0  0  0  0  0  0  0  0  0  0  0  0
  1  5  1  0
  5  6  1  0
  5  7  2  0
  1  2  1  0
  1  3  1  0
  1  4  1  0
  8 12  1  0
 12 15  1  0
  8  9  1  0
  8 10  1  0
  8 11  1  0
 12 13  1  0
 12 14  1  0
 15 16  1  0
 15 17  1  0
 15 18  1  0
M  CHG  1   6  -1
M  END
>  <PDB_ID>  (1909) 
pdb5mp0

>  <RESIDUE_NAME>  (1909) 
GLU   ARG

>  <FRAG_NAME>  (1909) 
ACET   PRPA

>  <FRAG_ATOM_NUM>  (1909) 
fragi: 7  fragj: 11

>  <atom.prop.CHAIN_ID>  (1909) 
A A A A A A A Z Z Z Z Z Z Z Z Z Z Z

>  <atom.prop.IS_HEAVY_ATOM>  (1909) 
1 0 0 0 1 1 1 1 0 0 0 1 0 0 1 0 0 0

>  <DIFUSE_FUNC_ATOM>  (1909) 
atom 6   atom 7   

>  <FINAL_SINGLE_POINT_ENERGY>  (1909) 
0

>  <NONCOV_INTER_ENERGY_QM>  (1909) 
0

>  <FF_Energy>  (1909) 
18.16

>  <QM_Energy>  (1909) 
-1.63

>  <source>  (1909) 
ACET_PRPA_26

>  <Index>  (1909) 
1532

$$$$
ACET-pdb5mr7-A-GLU-306:PRPA-pdb5mr7-A-PRO-388
     RDKit          3D

 18 16  0  0  0  0  0  0  0  0999 V2000
   -0.0006    1.5200    0.0821 C   0  0  0  0  0  0  0  0  0  0  0  0
    0.8556    1.8347   -0.3054 H   0  0  0  0  0  0  0  0  0  0  0  0
   -0.0621    1.7618    1.0420 H   0  0  0  0  0  0  0  0  0  0  0  0
   -0.8180    2.0073   -0.4494 H   0  0  0  0  0  0  0  0  0  0  0  0
    0.0000    0.0000    0.0000 C   0  0  0  0  0  0  0  0  0  0  0  0
   -1.1008   -0.5981    0.0000 O   0  0  0  0  0  1  0  0  0  0  0  0
    1.1008   -0.5974   -0.0000 O   0  0  0  0  0  0  0  0  0  0  0  0
   -0.2552    1.9173    4.5849 C   0  0  0  0  0  0  0  0  0  0  0  0
   -0.5069    2.8724    4.3787 H   0  0  0  0  0  0  0  0  0  0  0  0
    0.5984    1.9277    5.1202 H   0  0  0  0  0  0  0  0  0  0  0  0
   -1.0505    1.4267    5.1463 H   0  0  0  0  0  0  0  0  0  0  0  0
   -0.0994    1.1245    3.3421 C   0  0  0  0  0  0  0  0  0  0  0  0
   -0.4482    1.6575    2.5338 H   0  0  0  0  0  0  0  0  0  0  0  0
    0.8986    0.9647    3.1450 H   0  0  0  0  0  0  0  0  0  0  0  0
   -0.8239   -0.1847    3.4531 C   0  0  0  0  0  0  0  0  0  0  0  0
   -1.5247   -0.2806    2.7443 H   0  0  0  0  0  0  0  0  0  0  0  0
   -0.1928   -0.9625    3.3979 H   0  0  0  0  0  0  0  0  0  0  0  0
   -1.2864   -0.1412    4.4392 H   0  0  0  0  0  0  0  0  0  0  0  0
  1  5  1  0
  5  6  1  0
  5  7  2  0
  1  2  1  0
  1  3  1  0
  1  4  1  0
  8 12  1  0
 12 15  1  0
  8  9  1  0
  8 10  1  0
  8 11  1  0
 12 13  1  0
 12 14  1  0
 15 16  1  0
 15 17  1  0
 15 18  1  0
M  CHG  1   6  -1
M  END
>  <PDB_ID>  (1910) 
pdb5mr7

>  <RESIDUE_NAME>  (1910) 
GLU   PRO

>  <FRAG_NAME>  (1910) 
ACET   PRPA

>  <FRAG_ATOM_NUM>  (1910) 
fragi: 7  fragj: 11

>  <atom.prop.CHAIN_ID>  (1910) 
A A A A A A A Z Z Z Z Z Z Z Z Z Z Z

>  <atom.prop.IS_HEAVY_ATOM>  (1910) 
1 0 0 0 1 1 1 1 0 0 0 1 0 0 1 0 0 0

>  <DIFUSE_FUNC_ATOM>  (1910) 
atom 6   atom 7   

>  <FINAL_SINGLE_POINT_ENERGY>  (1910) 
0

>  <NONCOV_INTER_ENERGY_QM>  (1910) 
0

>  <FF_Energy>  (1910) 
21.92

>  <QM_Energy>  (1910) 
0.65

>  <source>  (1910) 
ACET_PRPA_26

>  <Index>  (1910) 
3720

$$$$
ACET-pdb5mtw-A-ASP-110:PRPA-pdb5mtw-A-ARG-26
     RDKit          3D

 18 16  0  0  0  0  0  0  0  0999 V2000
    0.0051    1.4944    0.0208 C   0  0  0  0  0  0  0  0  0  0  0  0
    0.9025    1.8221   -0.2623 H   0  0  0  0  0  0  0  0  0  0  0  0
   -0.1990    1.8096    0.9424 H   0  0  0  0  0  0  0  0  0  0  0  0
   -0.7370    1.9224   -0.6531 H   0  0  0  0  0  0  0  0  0  0  0  0
    0.0000    0.0000    0.0000 C   0  0  0  0  0  0  0  0  0  0  0  0
   -1.0987   -0.5733    0.0000 O   0  0  0  0  0  1  0  0  0  0  0  0
    1.0987   -0.6072    0.0000 O   0  0  0  0  0  0  0  0  0  0  0  0
    3.3064   -1.5488   -4.3313 C   0  0  0  0  0  0  0  0  0  0  0  0
    4.1025   -1.3982   -3.7207 H   0  0  0  0  0  0  0  0  0  0  0  0
    3.0536   -0.6140   -4.8316 H   0  0  0  0  0  0  0  0  0  0  0  0
    3.5673   -2.3433   -5.0304 H   0  0  0  0  0  0  0  0  0  0  0  0
    2.1886   -2.0460   -3.4407 C   0  0  0  0  0  0  0  0  0  0  0  0
    1.3405   -1.9935   -3.9522 H   0  0  0  0  0  0  0  0  0  0  0  0
    2.3894   -2.9829   -3.1873 H   0  0  0  0  0  0  0  0  0  0  0  0
    2.0664   -1.2287   -2.2151 C   0  0  0  0  0  0  0  0  0  0  0  0
    1.9206   -0.2623   -2.4471 H   0  0  0  0  0  0  0  0  0  0  0  0
    1.2963   -1.5467   -1.6539 H   0  0  0  0  0  0  0  0  0  0  0  0
    2.9596   -1.2790   -1.5926 H   0  0  0  0  0  0  0  0  0  0  0  0
  1  5  1  0
  5  6  1  0
  5  7  2  0
  1  2  1  0
  1  3  1  0
  1  4  1  0
  8 12  1  0
 12 15  1  0
  8  9  1  0
  8 10  1  0
  8 11  1  0
 12 13  1  0
 12 14  1  0
 15 16  1  0
 15 17  1  0
 15 18  1  0
M  CHG  1   6  -1
M  END
>  <PDB_ID>  (1911) 
pdb5mtw

>  <RESIDUE_NAME>  (1911) 
ASP   ARG

>  <FRAG_NAME>  (1911) 
ACET   PRPA

>  <FRAG_ATOM_NUM>  (1911) 
fragi: 7  fragj: 11

>  <atom.prop.CHAIN_ID>  (1911) 
A A A A A A A Z Z Z Z Z Z Z Z Z Z Z

>  <atom.prop.IS_HEAVY_ATOM>  (1911) 
1 0 0 0 1 1 1 1 0 0 0 1 0 0 1 0 0 0

>  <DIFUSE_FUNC_ATOM>  (1911) 
atom 6   atom 7   

>  <FINAL_SINGLE_POINT_ENERGY>  (1911) 
0

>  <NONCOV_INTER_ENERGY_QM>  (1911) 
0

>  <FF_Energy>  (1911) 
22.1

>  <QM_Energy>  (1911) 
4.79

>  <source>  (1911) 
ACET_PRPA_26

>  <Index>  (1911) 
4576

$$$$
ACET-pdb5mtw-A-ASP-110:PRPA-pdb5mtw-A-ARG-26
     RDKit          3D

 18 16  0  0  0  0  0  0  0  0999 V2000
    0.0051    1.4944    0.0208 C   0  0  0  0  0  0  0  0  0  0  0  0
    0.9025    1.8221   -0.2623 H   0  0  0  0  0  0  0  0  0  0  0  0
   -0.1990    1.8096    0.9424 H   0  0  0  0  0  0  0  0  0  0  0  0
   -0.7370    1.9224   -0.6531 H   0  0  0  0  0  0  0  0  0  0  0  0
    0.0000    0.0000    0.0000 C   0  0  0  0  0  0  0  0  0  0  0  0
   -1.0987   -0.5733    0.0000 O   0  0  0  0  0  1  0  0  0  0  0  0
    1.0987   -0.6072    0.0000 O   0  0  0  0  0  0  0  0  0  0  0  0
    2.1886   -2.0460   -3.4407 C   0  0  0  0  0  0  0  0  0  0  0  0
    1.3405   -1.9935   -3.9522 H   0  0  0  0  0  0  0  0  0  0  0  0
    2.3894   -2.9829   -3.1873 H   0  0  0  0  0  0  0  0  0  0  0  0
    2.9938   -1.6879   -4.0822 H   0  0  0  0  0  0  0  0  0  0  0  0
    2.0664   -1.2287   -2.2151 C   0  0  0  0  0  0  0  0  0  0  0  0
    1.9206   -0.2623   -2.4471 H   0  0  0  0  0  0  0  0  0  0  0  0
    1.2963   -1.5467   -1.6539 H   0  0  0  0  0  0  0  0  0  0  0  0
    3.3188   -1.2992   -1.3423 C   0  0  0  0  0  0  0  0  0  0  0  0
    3.4217   -2.2389   -1.0314 H   0  0  0  0  0  0  0  0  0  0  0  0
    4.0965   -1.0332   -1.9038 H   0  0  0  0  0  0  0  0  0  0  0  0
    3.2470   -0.6361   -0.4802 H   0  0  0  0  0  0  0  0  0  0  0  0
  1  5  1  0
  5  6  1  0
  5  7  2  0
  1  2  1  0
  1  3  1  0
  1  4  1  0
  8 12  1  0
 12 15  1  0
  8  9  1  0
  8 10  1  0
  8 11  1  0
 12 13  1  0
 12 14  1  0
 15 16  1  0
 15 17  1  0
 15 18  1  0
M  CHG  1   6  -1
M  END
>  <PDB_ID>  (1912) 
pdb5mtw

>  <RESIDUE_NAME>  (1912) 
ASP   ARG

>  <FRAG_NAME>  (1912) 
ACET   PRPA

>  <FRAG_ATOM_NUM>  (1912) 
fragi: 7  fragj: 11

>  <atom.prop.CHAIN_ID>  (1912) 
A A A A A A A Z Z Z Z Z Z Z Z Z Z Z

>  <atom.prop.IS_HEAVY_ATOM>  (1912) 
1 0 0 0 1 1 1 1 0 0 0 1 0 0 1 0 0 0

>  <DIFUSE_FUNC_ATOM>  (1912) 
atom 6   atom 7   

>  <FINAL_SINGLE_POINT_ENERGY>  (1912) 
0

>  <NONCOV_INTER_ENERGY_QM>  (1912) 
0

>  <FF_Energy>  (1912) 
28.17

>  <QM_Energy>  (1912) 
4.69

>  <source>  (1912) 
ACET_PRPA_26

>  <Index>  (1912) 
4579

$$$$
ACET-pdb5mpq-A-GLU-211:PRPA-pdb5mpq-A-ARG-219
     RDKit          3D

 18 16  0  0  0  0  0  0  0  0999 V2000
    0.0004    1.5099    0.0201 C   0  0  0  0  0  0  0  0  0  0  0  0
   -0.2401    1.8172   -0.8832 H   0  0  0  0  0  0  0  0  0  0  0  0
    0.9034    1.8006    0.2821 H   0  0  0  0  0  0  0  0  0  0  0  0
   -0.7202    1.9137    0.7313 H   0  0  0  0  0  0  0  0  0  0  0  0
    0.0000    0.0000    0.0000 C   0  0  0  0  0  0  0  0  0  0  0  0
   -1.1019   -0.5915   -0.0000 O   0  0  0  0  0  1  0  0  0  0  0  0
    1.1019   -0.5918   -0.0000 O   0  0  0  0  0  0  0  0  0  0  0  0
    4.9248    0.9284    1.1775 C   0  0  0  0  0  0  0  0  0  0  0  0
    5.6639    0.9472    0.5101 H   0  0  0  0  0  0  0  0  0  0  0  0
    4.2963    0.1847    0.9699 H   0  0  0  0  0  0  0  0  0  0  0  0
    5.3600    0.7404    2.1590 H   0  0  0  0  0  0  0  0  0  0  0  0
    4.1600    2.2370    1.0749 C   0  0  0  0  0  0  0  0  0  0  0  0
    3.6032    2.3625    1.8966 H   0  0  0  0  0  0  0  0  0  0  0  0
    4.8073    2.9956    0.9936 H   0  0  0  0  0  0  0  0  0  0  0  0
    3.2360    2.2766   -0.1324 C   0  0  0  0  0  0  0  0  0  0  0  0
    2.4362    1.7077    0.0718 H   0  0  0  0  0  0  0  0  0  0  0  0
    2.9397    3.2256   -0.2622 H   0  0  0  0  0  0  0  0  0  0  0  0
    3.7074    1.9183   -1.0476 H   0  0  0  0  0  0  0  0  0  0  0  0
  1  5  1  0
  5  6  1  0
  5  7  2  0
  1  2  1  0
  1  3  1  0
  1  4  1  0
  8 12  1  0
 12 15  1  0
  8  9  1  0
  8 10  1  0
  8 11  1  0
 12 13  1  0
 12 14  1  0
 15 16  1  0
 15 17  1  0
 15 18  1  0
M  CHG  1   6  -1
M  END
>  <PDB_ID>  (1913) 
pdb5mpq

>  <RESIDUE_NAME>  (1913) 
GLU   ARG

>  <FRAG_NAME>  (1913) 
ACET   PRPA

>  <FRAG_ATOM_NUM>  (1913) 
fragi: 7  fragj: 11

>  <atom.prop.CHAIN_ID>  (1913) 
A A A A A A A Z Z Z Z Z Z Z Z Z Z Z

>  <atom.prop.IS_HEAVY_ATOM>  (1913) 
1 0 0 0 1 1 1 1 0 0 0 1 0 0 1 0 0 0

>  <DIFUSE_FUNC_ATOM>  (1913) 
atom 6   atom 7   

>  <FINAL_SINGLE_POINT_ENERGY>  (1913) 
0

>  <NONCOV_INTER_ENERGY_QM>  (1913) 
0

>  <FF_Energy>  (1913) 
18.62

>  <QM_Energy>  (1913) 
1.42

>  <source>  (1913) 
ACET_PRPA_26

>  <Index>  (1913) 
4823

$$$$
ACET-pdb6r76-A-GLU-281:PRPA-pdb6r76-A-VAL-162
     RDKit          3D

 18 16  0  0  0  0  0  0  0  0999 V2000
   -0.0249    1.5028   -0.1048 C   0  0  0  0  0  0  0  0  0  0  0  0
    0.8922    1.8256   -0.1279 H   0  0  0  0  0  0  0  0  0  0  0  0
   -0.5520    1.8542    0.6328 H   0  0  0  0  0  0  0  0  0  0  0  0
   -0.5059    1.8144   -1.0320 H   0  0  0  0  0  0  0  0  0  0  0  0
    0.0000    0.0000    0.0000 C   0  0  0  0  0  0  0  0  0  0  0  0
   -1.1174   -0.5460   -0.0000 O   0  0  0  0  0  1  0  0  0  0  0  0
    1.1174   -0.6305    0.0000 O   0  0  0  0  0  0  0  0  0  0  0  0
   -3.7222   -3.2539    0.5312 C   0  0  0  0  0  0  0  0  0  0  0  0
   -4.4351   -3.5830   -0.0806 H   0  0  0  0  0  0  0  0  0  0  0  0
   -4.1543   -2.5014    1.1910 H   0  0  0  0  0  0  0  0  0  0  0  0
   -3.3928   -4.0923    1.1449 H   0  0  0  0  0  0  0  0  0  0  0  0
   -2.5499   -2.6537   -0.2659 C   0  0  0  0  0  0  0  0  0  0  0  0
   -1.9812   -2.1383    0.3720 H   0  0  0  0  0  0  0  0  0  0  0  0
   -2.8979   -1.9456   -1.0179 H   0  0  0  0  0  0  0  0  0  0  0  0
   -1.6723   -3.7468   -0.8602 C   0  0  0  0  0  0  0  0  0  0  0  0
   -1.1853   -4.2200   -0.1263 H   0  0  0  0  0  0  0  0  0  0  0  0
   -2.2437   -4.4009   -1.3560 H   0  0  0  0  0  0  0  0  0  0  0  0
   -1.0111   -3.3383   -1.4893 H   0  0  0  0  0  0  0  0  0  0  0  0
  1  5  1  0
  5  6  1  0
  5  7  2  0
  1  2  1  0
  1  3  1  0
  1  4  1  0
  8 12  1  0
 12 15  1  0
  8  9  1  0
  8 10  1  0
  8 11  1  0
 12 13  1  0
 12 14  1  0
 15 16  1  0
 15 17  1  0
 15 18  1  0
M  CHG  1   6  -1
M  END
>  <PDB_ID>  (1914) 
pdb6r76

>  <RESIDUE_NAME>  (1914) 
GLU   VAL

>  <FRAG_NAME>  (1914) 
ACET   PRPA

>  <FRAG_ATOM_NUM>  (1914) 
fragi: 7  fragj: 11

>  <atom.prop.CHAIN_ID>  (1914) 
A A A A A A A Z Z Z Z Z Z Z Z Z Z Z

>  <atom.prop.IS_HEAVY_ATOM>  (1914) 
1 0 0 0 1 1 1 1 0 0 0 1 0 0 1 0 0 0

>  <DIFUSE_FUNC_ATOM>  (1914) 
atom 6   atom 7   

>  <FINAL_SINGLE_POINT_ENERGY>  (1914) 
0

>  <NONCOV_INTER_ENERGY_QM>  (1914) 
0

>  <FF_Energy>  (1914) 
26.89

>  <QM_Energy>  (1914) 
3.4

>  <source>  (1914) 
ACET_PRPA_26

>  <Index>  (1914) 
7319

$$$$
ACET-pdb6r76-A-GLU-281:PRPA-pdb6r76-A-VAL-162
     RDKit          3D

 18 16  0  0  0  0  0  0  0  0999 V2000
   -0.0249    1.5028   -0.1048 C   0  0  0  0  0  0  0  0  0  0  0  0
    0.8922    1.8256   -0.1279 H   0  0  0  0  0  0  0  0  0  0  0  0
   -0.5520    1.8542    0.6328 H   0  0  0  0  0  0  0  0  0  0  0  0
   -0.5059    1.8144   -1.0320 H   0  0  0  0  0  0  0  0  0  0  0  0
    0.0000    0.0000    0.0000 C   0  0  0  0  0  0  0  0  0  0  0  0
   -1.1174   -0.5460   -0.0000 O   0  0  0  0  0  1  0  0  0  0  0  0
    1.1174   -0.6305    0.0000 O   0  0  0  0  0  0  0  0  0  0  0  0
   -3.7222   -3.2539    0.5312 C   0  0  0  0  0  0  0  0  0  0  0  0
   -4.4351   -3.5830   -0.0806 H   0  0  0  0  0  0  0  0  0  0  0  0
   -4.1543   -2.5014    1.1910 H   0  0  0  0  0  0  0  0  0  0  0  0
   -3.3928   -4.0923    1.1449 H   0  0  0  0  0  0  0  0  0  0  0  0
   -2.5499   -2.6537   -0.2659 C   0  0  0  0  0  0  0  0  0  0  0  0
   -1.9812   -2.1383    0.3720 H   0  0  0  0  0  0  0  0  0  0  0  0
   -1.9217   -3.4362   -0.6913 H   0  0  0  0  0  0  0  0  0  0  0  0
   -3.0417   -1.6530   -1.3287 C   0  0  0  0  0  0  0  0  0  0  0  0
   -2.2910   -1.4533   -1.9529 H   0  0  0  0  0  0  0  0  0  0  0  0
   -3.8027   -2.0611   -1.8258 H   0  0  0  0  0  0  0  0  0  0  0  0
   -3.3385   -0.8189   -0.8706 H   0  0  0  0  0  0  0  0  0  0  0  0
  1  5  1  0
  5  6  1  0
  5  7  2  0
  1  2  1  0
  1  3  1  0
  1  4  1  0
  8 12  1  0
 12 15  1  0
  8  9  1  0
  8 10  1  0
  8 11  1  0
 12 13  1  0
 12 14  1  0
 15 16  1  0
 15 17  1  0
 15 18  1  0
M  CHG  1   6  -1
M  END
>  <PDB_ID>  (1915) 
pdb6r76

>  <RESIDUE_NAME>  (1915) 
GLU   VAL

>  <FRAG_NAME>  (1915) 
ACET   PRPA

>  <FRAG_ATOM_NUM>  (1915) 
fragi: 7  fragj: 11

>  <atom.prop.CHAIN_ID>  (1915) 
A A A A A A A Z Z Z Z Z Z Z Z Z Z Z

>  <atom.prop.IS_HEAVY_ATOM>  (1915) 
1 0 0 0 1 1 1 1 0 0 0 1 0 0 1 0 0 0

>  <DIFUSE_FUNC_ATOM>  (1915) 
atom 6   atom 7   

>  <FINAL_SINGLE_POINT_ENERGY>  (1915) 
0

>  <NONCOV_INTER_ENERGY_QM>  (1915) 
0

>  <FF_Energy>  (1915) 
34.83

>  <QM_Energy>  (1915) 
4.18

>  <source>  (1915) 
ACET_PRPA_26

>  <Index>  (1915) 
7334

$$$$
ACET-pdb6r76-A-GLU-281:PRPA-pdb6r76-A-VAL-162
     RDKit          3D

 18 16  0  0  0  0  0  0  0  0999 V2000
   -0.0249    1.5028   -0.1048 C   0  0  0  0  0  0  0  0  0  0  0  0
    0.8922    1.8256   -0.1279 H   0  0  0  0  0  0  0  0  0  0  0  0
   -0.5520    1.8542    0.6328 H   0  0  0  0  0  0  0  0  0  0  0  0
   -0.5059    1.8144   -1.0320 H   0  0  0  0  0  0  0  0  0  0  0  0
    0.0000    0.0000    0.0000 C   0  0  0  0  0  0  0  0  0  0  0  0
   -1.1174   -0.5460   -0.0000 O   0  0  0  0  0  1  0  0  0  0  0  0
    1.1174   -0.6305    0.0000 O   0  0  0  0  0  0  0  0  0  0  0  0
   -1.6723   -3.7468   -0.8602 C   0  0  0  0  0  0  0  0  0  0  0  0
   -1.1853   -4.2200   -0.1263 H   0  0  0  0  0  0  0  0  0  0  0  0
   -2.2437   -4.4009   -1.3560 H   0  0  0  0  0  0  0  0  0  0  0  0
   -1.0111   -3.3383   -1.4893 H   0  0  0  0  0  0  0  0  0  0  0  0
   -2.5499   -2.6537   -0.2659 C   0  0  0  0  0  0  0  0  0  0  0  0
   -1.9812   -2.1383    0.3720 H   0  0  0  0  0  0  0  0  0  0  0  0
   -3.3799   -3.0786    0.2986 H   0  0  0  0  0  0  0  0  0  0  0  0
   -3.0417   -1.6530   -1.3287 C   0  0  0  0  0  0  0  0  0  0  0  0
   -2.2910   -1.4533   -1.9529 H   0  0  0  0  0  0  0  0  0  0  0  0
   -3.8027   -2.0611   -1.8258 H   0  0  0  0  0  0  0  0  0  0  0  0
   -3.3385   -0.8189   -0.8706 H   0  0  0  0  0  0  0  0  0  0  0  0
  1  5  1  0
  5  6  1  0
  5  7  2  0
  1  2  1  0
  1  3  1  0
  1  4  1  0
  8 12  1  0
 12 15  1  0
  8  9  1  0
  8 10  1  0
  8 11  1  0
 12 13  1  0
 12 14  1  0
 15 16  1  0
 15 17  1  0
 15 18  1  0
M  CHG  1   6  -1
M  END
>  <PDB_ID>  (1916) 
pdb6r76

>  <RESIDUE_NAME>  (1916) 
GLU   VAL

>  <FRAG_NAME>  (1916) 
ACET   PRPA

>  <FRAG_ATOM_NUM>  (1916) 
fragi: 7  fragj: 11

>  <atom.prop.CHAIN_ID>  (1916) 
A A A A A A A Z Z Z Z Z Z Z Z Z Z Z

>  <atom.prop.IS_HEAVY_ATOM>  (1916) 
1 0 0 0 1 1 1 1 0 0 0 1 0 0 1 0 0 0

>  <DIFUSE_FUNC_ATOM>  (1916) 
atom 6   atom 7   

>  <FINAL_SINGLE_POINT_ENERGY>  (1916) 
0

>  <NONCOV_INTER_ENERGY_QM>  (1916) 
0

>  <FF_Energy>  (1916) 
35.39

>  <QM_Energy>  (1916) 
3.4

>  <source>  (1916) 
ACET_PRPA_26

>  <Index>  (1916) 
7342

$$$$
ACET-pdb5n2p-A-GLU-217:PRPA-pdb5n2p-A-VAL-48
     RDKit          3D

 18 16  0  0  0  0  0  0  0  0999 V2000
   -0.0270    1.4926    0.0370 C   0  0  0  0  0  0  0  0  0  0  0  0
   -0.9497    1.7701    0.2048 H   0  0  0  0  0  0  0  0  0  0  0  0
    0.3229    1.8182   -0.8165 H   0  0  0  0  0  0  0  0  0  0  0  0
    0.6071    1.8568    0.8453 H   0  0  0  0  0  0  0  0  0  0  0  0
    0.0000    0.0000    0.0000 C   0  0  0  0  0  0  0  0  0  0  0  0
   -1.0960   -0.5776   -0.0000 O   0  0  0  0  0  1  0  0  0  0  0  0
    1.0960   -0.5937   -0.0000 O   0  0  0  0  0  0  0  0  0  0  0  0
   -5.8667   -0.7647   -1.2085 C   0  0  0  0  0  0  0  0  0  0  0  0
   -5.7766   -1.5024   -0.5214 H   0  0  0  0  0  0  0  0  0  0  0  0
   -6.1605   -1.2137   -2.1574 H   0  0  0  0  0  0  0  0  0  0  0  0
   -6.6113   -0.0592   -0.8399 H   0  0  0  0  0  0  0  0  0  0  0  0
   -4.4881   -0.1201   -1.3906 C   0  0  0  0  0  0  0  0  0  0  0  0
   -4.4983    0.3822   -2.2549 H   0  0  0  0  0  0  0  0  0  0  0  0
   -4.2818    0.6035   -0.6020 H   0  0  0  0  0  0  0  0  0  0  0  0
   -3.4479   -1.2028   -1.4554 C   0  0  0  0  0  0  0  0  0  0  0  0
   -2.5841   -0.8676   -1.0703 H   0  0  0  0  0  0  0  0  0  0  0  0
   -3.7540   -2.0000   -0.9297 H   0  0  0  0  0  0  0  0  0  0  0  0
   -3.2993   -1.4750   -2.4092 H   0  0  0  0  0  0  0  0  0  0  0  0
  1  5  1  0
  5  6  1  0
  5  7  2  0
  1  2  1  0
  1  3  1  0
  1  4  1  0
  8 12  1  0
 12 15  1  0
  8  9  1  0
  8 10  1  0
  8 11  1  0
 12 13  1  0
 12 14  1  0
 15 16  1  0
 15 17  1  0
 15 18  1  0
M  CHG  1   6  -1
M  END
>  <PDB_ID>  (1917) 
pdb5n2p

>  <RESIDUE_NAME>  (1917) 
GLU   VAL

>  <FRAG_NAME>  (1917) 
ACET   PRPA

>  <FRAG_ATOM_NUM>  (1917) 
fragi: 7  fragj: 11

>  <atom.prop.CHAIN_ID>  (1917) 
A A A A A A A Z Z Z Z Z Z Z Z Z Z Z

>  <atom.prop.IS_HEAVY_ATOM>  (1917) 
1 0 0 0 1 1 1 1 0 0 0 1 0 0 1 0 0 0

>  <DIFUSE_FUNC_ATOM>  (1917) 
atom 6   atom 7   

>  <FINAL_SINGLE_POINT_ENERGY>  (1917) 
0

>  <NONCOV_INTER_ENERGY_QM>  (1917) 
0

>  <FF_Energy>  (1917) 
18.02

>  <QM_Energy>  (1917) 
-0.85

>  <source>  (1917) 
ACET_PRPA_26

>  <Index>  (1917) 
7440

$$$$
ACET-pdb5n2p-A-GLU-217:PRPA-pdb5n2p-A-VAL-48
     RDKit          3D

 18 16  0  0  0  0  0  0  0  0999 V2000
   -0.0270    1.4926    0.0370 C   0  0  0  0  0  0  0  0  0  0  0  0
   -0.9497    1.7701    0.2048 H   0  0  0  0  0  0  0  0  0  0  0  0
    0.3229    1.8182   -0.8165 H   0  0  0  0  0  0  0  0  0  0  0  0
    0.6071    1.8568    0.8453 H   0  0  0  0  0  0  0  0  0  0  0  0
    0.0000    0.0000    0.0000 C   0  0  0  0  0  0  0  0  0  0  0  0
   -1.0960   -0.5776   -0.0000 O   0  0  0  0  0  1  0  0  0  0  0  0
    1.0960   -0.5937   -0.0000 O   0  0  0  0  0  0  0  0  0  0  0  0
   -4.2018    0.8844   -0.2958 C   0  0  0  0  0  0  0  0  0  0  0  0
   -3.7768    1.7013   -0.6885 H   0  0  0  0  0  0  0  0  0  0  0  0
   -5.0566    1.1436    0.1571 H   0  0  0  0  0  0  0  0  0  0  0  0
   -3.5801    0.4821    0.3788 H   0  0  0  0  0  0  0  0  0  0  0  0
   -4.4881   -0.1201   -1.3906 C   0  0  0  0  0  0  0  0  0  0  0  0
   -4.4983    0.3822   -2.2549 H   0  0  0  0  0  0  0  0  0  0  0  0
   -5.4685   -0.5785   -1.2611 H   0  0  0  0  0  0  0  0  0  0  0  0
   -3.4479   -1.2028   -1.4554 C   0  0  0  0  0  0  0  0  0  0  0  0
   -2.5841   -0.8676   -1.0703 H   0  0  0  0  0  0  0  0  0  0  0  0
   -3.7540   -2.0000   -0.9297 H   0  0  0  0  0  0  0  0  0  0  0  0
   -3.2993   -1.4750   -2.4092 H   0  0  0  0  0  0  0  0  0  0  0  0
  1  5  1  0
  5  6  1  0
  5  7  2  0
  1  2  1  0
  1  3  1  0
  1  4  1  0
  8 12  1  0
 12 15  1  0
  8  9  1  0
  8 10  1  0
  8 11  1  0
 12 13  1  0
 12 14  1  0
 15 16  1  0
 15 17  1  0
 15 18  1  0
M  CHG  1   6  -1
M  END
>  <PDB_ID>  (1918) 
pdb5n2p

>  <RESIDUE_NAME>  (1918) 
GLU   VAL

>  <FRAG_NAME>  (1918) 
ACET   PRPA

>  <FRAG_ATOM_NUM>  (1918) 
fragi: 7  fragj: 11

>  <atom.prop.CHAIN_ID>  (1918) 
A A A A A A A Z Z Z Z Z Z Z Z Z Z Z

>  <atom.prop.IS_HEAVY_ATOM>  (1918) 
1 0 0 0 1 1 1 1 0 0 0 1 0 0 1 0 0 0

>  <DIFUSE_FUNC_ATOM>  (1918) 
atom 6   atom 7   

>  <FINAL_SINGLE_POINT_ENERGY>  (1918) 
0

>  <NONCOV_INTER_ENERGY_QM>  (1918) 
0

>  <FF_Energy>  (1918) 
18.11

>  <QM_Energy>  (1918) 
-1.44

>  <source>  (1918) 
ACET_PRPA_26

>  <Index>  (1918) 
7446

$$$$
ACET-pdb6ryv-A-GLU-13:PRPA-pdb6ryv-A-LYS-19
     RDKit          3D

 18 16  0  0  0  0  0  0  0  0999 V2000
    0.0112    1.5263    0.0083 C   0  0  0  0  0  0  0  0  0  0  0  0
   -0.3129    1.8173    0.8912 H   0  0  0  0  0  0  0  0  0  0  0  0
   -0.5793    1.8283   -0.7190 H   0  0  0  0  0  0  0  0  0  0  0  0
    1.0004    1.9553   -0.1515 H   0  0  0  0  0  0  0  0  0  0  0  0
    0.0000    0.0000    0.0000 C   0  0  0  0  0  0  0  0  0  0  0  0
   -1.1011   -0.6030   -0.0000 O   0  0  0  0  0  1  0  0  0  0  0  0
    1.1011   -0.5913    0.0000 O   0  0  0  0  0  0  0  0  0  0  0  0
   -0.3760    2.3764   -3.3959 C   0  0  0  0  0  0  0  0  0  0  0  0
    0.1089    2.4949   -2.5287 H   0  0  0  0  0  0  0  0  0  0  0  0
   -1.3489    2.5613   -3.2615 H   0  0  0  0  0  0  0  0  0  0  0  0
    0.0230    3.0819   -4.1246 H   0  0  0  0  0  0  0  0  0  0  0  0
   -0.2061    0.9399   -3.8617 C   0  0  0  0  0  0  0  0  0  0  0  0
   -0.6903    0.8256   -4.7301 H   0  0  0  0  0  0  0  0  0  0  0  0
    0.7676    0.7579   -3.9965 H   0  0  0  0  0  0  0  0  0  0  0  0
   -0.7522   -0.0603   -2.8679 C   0  0  0  0  0  0  0  0  0  0  0  0
   -0.2706    0.0449   -1.9980 H   0  0  0  0  0  0  0  0  0  0  0  0
   -1.7280    0.1122   -2.7308 H   0  0  0  0  0  0  0  0  0  0  0  0
   -0.6159   -1.0785   -3.2325 H   0  0  0  0  0  0  0  0  0  0  0  0
  1  5  1  0
  5  6  1  0
  5  7  2  0
  1  2  1  0
  1  3  1  0
  1  4  1  0
  8 12  1  0
 12 15  1  0
  8  9  1  0
  8 10  1  0
  8 11  1  0
 12 13  1  0
 12 14  1  0
 15 16  1  0
 15 17  1  0
 15 18  1  0
M  CHG  1   6  -1
M  END
>  <PDB_ID>  (1919) 
pdb6ryv

>  <RESIDUE_NAME>  (1919) 
GLU   LYS

>  <FRAG_NAME>  (1919) 
ACET   PRPA

>  <FRAG_ATOM_NUM>  (1919) 
fragi: 7  fragj: 11

>  <atom.prop.CHAIN_ID>  (1919) 
A A A A A A A Z Z Z Z Z Z Z Z Z Z Z

>  <atom.prop.IS_HEAVY_ATOM>  (1919) 
1 0 0 0 1 1 1 1 0 0 0 1 0 0 1 0 0 0

>  <DIFUSE_FUNC_ATOM>  (1919) 
atom 6   atom 7   

>  <FINAL_SINGLE_POINT_ENERGY>  (1919) 
0

>  <NONCOV_INTER_ENERGY_QM>  (1919) 
0

>  <FF_Energy>  (1919) 
21.44

>  <QM_Energy>  (1919) 
2.39

>  <source>  (1919) 
ACET_PRPA_26

>  <Index>  (1919) 
7556

$$$$
ACET-pdb6pbz-B-GLU-250:PRPA-pdb6pbz-C-LEU-263
     RDKit          3D

 18 16  0  0  0  0  0  0  0  0999 V2000
    0.0058    1.5254   -0.0038 C   0  0  0  0  0  0  0  0  0  0  0  0
    0.6980    1.8147   -0.6382 H   0  0  0  0  0  0  0  0  0  0  0  0
    0.1925    1.8201    0.9144 H   0  0  0  0  0  0  0  0  0  0  0  0
   -0.9479    1.9503   -0.3169 H   0  0  0  0  0  0  0  0  0  0  0  0
    0.0000    0.0000    0.0000 C   0  0  0  0  0  0  0  0  0  0  0  0
   -1.0979   -0.6045   -0.0000 O   0  0  0  0  0  1  0  0  0  0  0  0
    1.0979   -0.6012    0.0000 O   0  0  0  0  0  0  0  0  0  0  0  0
   -1.2092   -0.6925    3.9045 C   0  0  0  0  0  0  0  0  0  0  0  0
   -1.6428    0.1996    3.9316 H   0  0  0  0  0  0  0  0  0  0  0  0
   -0.2384   -0.6192    4.0896 H   0  0  0  0  0  0  0  0  0  0  0  0
   -1.6542   -1.3049    4.6887 H   0  0  0  0  0  0  0  0  0  0  0  0
   -1.3674   -1.2375    2.4844 C   0  0  0  0  0  0  0  0  0  0  0  0
   -1.5971   -0.4824    1.8699 H   0  0  0  0  0  0  0  0  0  0  0  0
   -2.1981   -1.9403    2.4208 H   0  0  0  0  0  0  0  0  0  0  0  0
   -0.0795   -1.8983    2.0127 C   0  0  0  0  0  0  0  0  0  0  0  0
    0.1507   -2.6558    2.6250 H   0  0  0  0  0  0  0  0  0  0  0  0
   -0.2036   -2.2479    1.0839 H   0  0  0  0  0  0  0  0  0  0  0  0
    0.6622   -1.2272    2.0193 H   0  0  0  0  0  0  0  0  0  0  0  0
  1  5  1  0
  5  6  1  0
  5  7  2  0
  1  2  1  0
  1  3  1  0
  1  4  1  0
  8 12  1  0
 12 15  1  0
  8  9  1  0
  8 10  1  0
  8 11  1  0
 12 13  1  0
 12 14  1  0
 15 16  1  0
 15 17  1  0
 15 18  1  0
M  CHG  1   6  -1
M  END
>  <PDB_ID>  (1920) 
pdb6pbz

>  <RESIDUE_NAME>  (1920) 
GLU   LEU

>  <FRAG_NAME>  (1920) 
ACET   PRPA

>  <FRAG_ATOM_NUM>  (1920) 
fragi: 7  fragj: 11

>  <atom.prop.CHAIN_ID>  (1920) 
A A A A A A A Z Z Z Z Z Z Z Z Z Z Z

>  <atom.prop.IS_HEAVY_ATOM>  (1920) 
1 0 0 0 1 1 1 1 0 0 0 1 0 0 1 0 0 0

>  <DIFUSE_FUNC_ATOM>  (1920) 
atom 6   atom 7   

>  <FINAL_SINGLE_POINT_ENERGY>  (1920) 
0

>  <NONCOV_INTER_ENERGY_QM>  (1920) 
0

>  <FF_Energy>  (1920) 
41.11

>  <QM_Energy>  (1920) 
10.26

>  <source>  (1920) 
ACET_PRPA_26

>  <Index>  (1920) 
8172

$$$$
ACET-pdb6pbz-B-GLU-250:PRPA-pdb6pbz-C-LEU-263
     RDKit          3D

 18 16  0  0  0  0  0  0  0  0999 V2000
    0.0058    1.5254   -0.0038 C   0  0  0  0  0  0  0  0  0  0  0  0
    0.6980    1.8147   -0.6382 H   0  0  0  0  0  0  0  0  0  0  0  0
    0.1925    1.8201    0.9144 H   0  0  0  0  0  0  0  0  0  0  0  0
   -0.9479    1.9503   -0.3169 H   0  0  0  0  0  0  0  0  0  0  0  0
    0.0000    0.0000    0.0000 C   0  0  0  0  0  0  0  0  0  0  0  0
   -1.0979   -0.6045   -0.0000 O   0  0  0  0  0  1  0  0  0  0  0  0
    1.0979   -0.6012    0.0000 O   0  0  0  0  0  0  0  0  0  0  0  0
   -1.2092   -0.6925    3.9045 C   0  0  0  0  0  0  0  0  0  0  0  0
   -1.6428    0.1996    3.9316 H   0  0  0  0  0  0  0  0  0  0  0  0
   -0.2384   -0.6192    4.0896 H   0  0  0  0  0  0  0  0  0  0  0  0
   -1.6542   -1.3049    4.6887 H   0  0  0  0  0  0  0  0  0  0  0  0
   -1.3674   -1.2375    2.4844 C   0  0  0  0  0  0  0  0  0  0  0  0
   -1.5971   -0.4824    1.8699 H   0  0  0  0  0  0  0  0  0  0  0  0
   -0.4453   -1.7107    2.1467 H   0  0  0  0  0  0  0  0  0  0  0  0
   -2.5280   -2.2194    2.3957 C   0  0  0  0  0  0  0  0  0  0  0  0
   -3.3766   -1.7579    2.6559 H   0  0  0  0  0  0  0  0  0  0  0  0
   -2.6073   -2.5585    1.4576 H   0  0  0  0  0  0  0  0  0  0  0  0
   -2.3640   -2.9880    3.0153 H   0  0  0  0  0  0  0  0  0  0  0  0
  1  5  1  0
  5  6  1  0
  5  7  2  0
  1  2  1  0
  1  3  1  0
  1  4  1  0
  8 12  1  0
 12 15  1  0
  8  9  1  0
  8 10  1  0
  8 11  1  0
 12 13  1  0
 12 14  1  0
 15 16  1  0
 15 17  1  0
 15 18  1  0
M  CHG  1   6  -1
M  END
>  <PDB_ID>  (1921) 
pdb6pbz

>  <RESIDUE_NAME>  (1921) 
GLU   LEU

>  <FRAG_NAME>  (1921) 
ACET   PRPA

>  <FRAG_ATOM_NUM>  (1921) 
fragi: 7  fragj: 11

>  <atom.prop.CHAIN_ID>  (1921) 
A A A A A A A Z Z Z Z Z Z Z Z Z Z Z

>  <atom.prop.IS_HEAVY_ATOM>  (1921) 
1 0 0 0 1 1 1 1 0 0 0 1 0 0 1 0 0 0

>  <DIFUSE_FUNC_ATOM>  (1921) 
atom 6   atom 7   

>  <FINAL_SINGLE_POINT_ENERGY>  (1921) 
0

>  <NONCOV_INTER_ENERGY_QM>  (1921) 
0

>  <FF_Energy>  (1921) 
18.09

>  <QM_Energy>  (1921) 
2.31

>  <source>  (1921) 
ACET_PRPA_26

>  <Index>  (1921) 
8177

$$$$
ACET-pdb6pbz-B-GLU-250:PRPA-pdb6pbz-C-LEU-263
     RDKit          3D

 18 16  0  0  0  0  0  0  0  0999 V2000
    0.0058    1.5254   -0.0038 C   0  0  0  0  0  0  0  0  0  0  0  0
    0.6980    1.8147   -0.6382 H   0  0  0  0  0  0  0  0  0  0  0  0
    0.1925    1.8201    0.9144 H   0  0  0  0  0  0  0  0  0  0  0  0
   -0.9479    1.9503   -0.3169 H   0  0  0  0  0  0  0  0  0  0  0  0
    0.0000    0.0000    0.0000 C   0  0  0  0  0  0  0  0  0  0  0  0
   -1.0979   -0.6045   -0.0000 O   0  0  0  0  0  1  0  0  0  0  0  0
    1.0979   -0.6012    0.0000 O   0  0  0  0  0  0  0  0  0  0  0  0
   -0.0795   -1.8983    2.0127 C   0  0  0  0  0  0  0  0  0  0  0  0
    0.1507   -2.6558    2.6250 H   0  0  0  0  0  0  0  0  0  0  0  0
   -0.2036   -2.2479    1.0839 H   0  0  0  0  0  0  0  0  0  0  0  0
    0.6622   -1.2272    2.0193 H   0  0  0  0  0  0  0  0  0  0  0  0
   -1.3674   -1.2375    2.4844 C   0  0  0  0  0  0  0  0  0  0  0  0
   -1.5971   -0.4824    1.8699 H   0  0  0  0  0  0  0  0  0  0  0  0
   -1.2546   -0.8491    3.4966 H   0  0  0  0  0  0  0  0  0  0  0  0
   -2.5280   -2.2194    2.3957 C   0  0  0  0  0  0  0  0  0  0  0  0
   -3.3766   -1.7579    2.6559 H   0  0  0  0  0  0  0  0  0  0  0  0
   -2.6073   -2.5585    1.4576 H   0  0  0  0  0  0  0  0  0  0  0  0
   -2.3640   -2.9880    3.0153 H   0  0  0  0  0  0  0  0  0  0  0  0
  1  5  1  0
  5  6  1  0
  5  7  2  0
  1  2  1  0
  1  3  1  0
  1  4  1  0
  8 12  1  0
 12 15  1  0
  8  9  1  0
  8 10  1  0
  8 11  1  0
 12 13  1  0
 12 14  1  0
 15 16  1  0
 15 17  1  0
 15 18  1  0
M  CHG  1   6  -1
M  END
>  <PDB_ID>  (1922) 
pdb6pbz

>  <RESIDUE_NAME>  (1922) 
GLU   LEU

>  <FRAG_NAME>  (1922) 
ACET   PRPA

>  <FRAG_ATOM_NUM>  (1922) 
fragi: 7  fragj: 11

>  <atom.prop.CHAIN_ID>  (1922) 
A A A A A A A Z Z Z Z Z Z Z Z Z Z Z

>  <atom.prop.IS_HEAVY_ATOM>  (1922) 
1 0 0 0 1 1 1 1 0 0 0 1 0 0 1 0 0 0

>  <DIFUSE_FUNC_ATOM>  (1922) 
atom 6   atom 7   

>  <FINAL_SINGLE_POINT_ENERGY>  (1922) 
0

>  <NONCOV_INTER_ENERGY_QM>  (1922) 
0

>  <FF_Energy>  (1922) 
42.19

>  <QM_Energy>  (1922) 
9.35

>  <source>  (1922) 
ACET_PRPA_26

>  <Index>  (1922) 
8184

$$$$
ACET-pdb6smv-A-ASP-59:PRPA-pdb6smv-A-LEU-8
     RDKit          3D

 18 16  0  0  0  0  0  0  0  0999 V2000
    0.0366    1.5157   -0.0171 C   0  0  0  0  0  0  0  0  0  0  0  0
    0.5284    1.8149   -0.8344 H   0  0  0  0  0  0  0  0  0  0  0  0
    0.5175    1.8337    0.7979 H   0  0  0  0  0  0  0  0  0  0  0  0
   -0.9473    1.9847   -0.0294 H   0  0  0  0  0  0  0  0  0  0  0  0
    0.0000    0.0000    0.0000 C   0  0  0  0  0  0  0  0  0  0  0  0
   -1.0953   -0.6003    0.0000 O   0  0  0  0  0  1  0  0  0  0  0  0
    1.0953   -0.5849    0.0000 O   0  0  0  0  0  0  0  0  0  0  0  0
    3.6028   -0.7815    1.1569 C   0  0  0  0  0  0  0  0  0  0  0  0
    4.0034   -1.6241    1.5014 H   0  0  0  0  0  0  0  0  0  0  0  0
    2.8232   -0.9806    0.5749 H   0  0  0  0  0  0  0  0  0  0  0  0
    3.2438   -0.2095    2.0125 H   0  0  0  0  0  0  0  0  0  0  0  0
    4.6564   -0.0917    0.2941 C   0  0  0  0  0  0  0  0  0  0  0  0
    5.4584    0.1065    0.8503 H   0  0  0  0  0  0  0  0  0  0  0  0
    4.2361    0.8376   -0.0904 H   0  0  0  0  0  0  0  0  0  0  0  0
    5.0655   -1.0096   -0.8650 C   0  0  0  0  0  0  0  0  0  0  0  0
    4.2620   -1.2124   -1.4227 H   0  0  0  0  0  0  0  0  0  0  0  0
    5.7538   -0.5485   -1.4217 H   0  0  0  0  0  0  0  0  0  0  0  0
    5.4417   -1.8572   -0.4963 H   0  0  0  0  0  0  0  0  0  0  0  0
  1  5  1  0
  5  6  1  0
  5  7  2  0
  1  2  1  0
  1  3  1  0
  1  4  1  0
  8 12  1  0
 12 15  1  0
  8  9  1  0
  8 10  1  0
  8 11  1  0
 12 13  1  0
 12 14  1  0
 15 16  1  0
 15 17  1  0
 15 18  1  0
M  CHG  1   6  -1
M  END
>  <PDB_ID>  (1923) 
pdb6smv

>  <RESIDUE_NAME>  (1923) 
ASP   LEU

>  <FRAG_NAME>  (1923) 
ACET   PRPA

>  <FRAG_ATOM_NUM>  (1923) 
fragi: 7  fragj: 11

>  <atom.prop.CHAIN_ID>  (1923) 
A A A A A A A Z Z Z Z Z Z Z Z Z Z Z

>  <atom.prop.IS_HEAVY_ATOM>  (1923) 
1 0 0 0 1 1 1 1 0 0 0 1 0 0 1 0 0 0

>  <DIFUSE_FUNC_ATOM>  (1923) 
atom 6   atom 7   

>  <FINAL_SINGLE_POINT_ENERGY>  (1923) 
0

>  <NONCOV_INTER_ENERGY_QM>  (1923) 
0

>  <FF_Energy>  (1923) 
18.07

>  <QM_Energy>  (1923) 
0.02

>  <source>  (1923) 
ACET_PRPA_26

>  <Index>  (1923) 
9051

$$$$
ACET-pdb6smv-A-ASP-59:PRPA-pdb6smv-A-LEU-8
     RDKit          3D

 18 16  0  0  0  0  0  0  0  0999 V2000
    0.0366    1.5157   -0.0171 C   0  0  0  0  0  0  0  0  0  0  0  0
    0.5284    1.8149   -0.8344 H   0  0  0  0  0  0  0  0  0  0  0  0
    0.5175    1.8337    0.7979 H   0  0  0  0  0  0  0  0  0  0  0  0
   -0.9473    1.9847   -0.0294 H   0  0  0  0  0  0  0  0  0  0  0  0
    0.0000    0.0000    0.0000 C   0  0  0  0  0  0  0  0  0  0  0  0
   -1.0953   -0.6003    0.0000 O   0  0  0  0  0  1  0  0  0  0  0  0
    1.0953   -0.5849    0.0000 O   0  0  0  0  0  0  0  0  0  0  0  0
    3.6028   -0.7815    1.1569 C   0  0  0  0  0  0  0  0  0  0  0  0
    4.0034   -1.6241    1.5014 H   0  0  0  0  0  0  0  0  0  0  0  0
    2.8232   -0.9806    0.5749 H   0  0  0  0  0  0  0  0  0  0  0  0
    3.2438   -0.2095    2.0125 H   0  0  0  0  0  0  0  0  0  0  0  0
    4.6564   -0.0917    0.2941 C   0  0  0  0  0  0  0  0  0  0  0  0
    5.4584    0.1065    0.8503 H   0  0  0  0  0  0  0  0  0  0  0  0
    4.9471   -0.7439   -0.5294 H   0  0  0  0  0  0  0  0  0  0  0  0
    4.0703    1.2043   -0.2420 C   0  0  0  0  0  0  0  0  0  0  0  0
    3.8150    1.7984    0.5220 H   0  0  0  0  0  0  0  0  0  0  0  0
    4.7498    1.6700   -0.8114 H   0  0  0  0  0  0  0  0  0  0  0  0
    3.2586    1.0029   -0.7922 H   0  0  0  0  0  0  0  0  0  0  0  0
  1  5  1  0
  5  6  1  0
  5  7  2  0
  1  2  1  0
  1  3  1  0
  1  4  1  0
  8 12  1  0
 12 15  1  0
  8  9  1  0
  8 10  1  0
  8 11  1  0
 12 13  1  0
 12 14  1  0
 15 16  1  0
 15 17  1  0
 15 18  1  0
M  CHG  1   6  -1
M  END
>  <PDB_ID>  (1924) 
pdb6smv

>  <RESIDUE_NAME>  (1924) 
ASP   LEU

>  <FRAG_NAME>  (1924) 
ACET   PRPA

>  <FRAG_ATOM_NUM>  (1924) 
fragi: 7  fragj: 11

>  <atom.prop.CHAIN_ID>  (1924) 
A A A A A A A Z Z Z Z Z Z Z Z Z Z Z

>  <atom.prop.IS_HEAVY_ATOM>  (1924) 
1 0 0 0 1 1 1 1 0 0 0 1 0 0 1 0 0 0

>  <DIFUSE_FUNC_ATOM>  (1924) 
atom 6   atom 7   

>  <FINAL_SINGLE_POINT_ENERGY>  (1924) 
0

>  <NONCOV_INTER_ENERGY_QM>  (1924) 
0

>  <FF_Energy>  (1924) 
17.94

>  <QM_Energy>  (1924) 
-0.43

>  <source>  (1924) 
ACET_PRPA_26

>  <Index>  (1924) 
9052

$$$$
ACET-pdb6smv-A-ASP-181:PRPA-pdb6smv-A-LYS-171
     RDKit          3D

 18 16  0  0  0  0  0  0  0  0999 V2000
   -0.0027    1.5135    0.0032 C   0  0  0  0  0  0  0  0  0  0  0  0
   -0.5559    1.8342   -0.7568 H   0  0  0  0  0  0  0  0  0  0  0  0
    0.9323    1.8361   -0.0859 H   0  0  0  0  0  0  0  0  0  0  0  0
   -0.4177    1.9283    0.9218 H   0  0  0  0  0  0  0  0  0  0  0  0
    0.0000    0.0000    0.0000 C   0  0  0  0  0  0  0  0  0  0  0  0
   -1.0979   -0.5938   -0.0000 O   0  0  0  0  0  1  0  0  0  0  0  0
    1.0979   -0.5964    0.0000 O   0  0  0  0  0  0  0  0  0  0  0  0
    1.3686    3.0273   -3.4449 C   0  0  0  0  0  0  0  0  0  0  0  0
    0.6740    2.3290   -3.6249 H   0  0  0  0  0  0  0  0  0  0  0  0
    2.1803    2.8331   -3.9991 H   0  0  0  0  0  0  0  0  0  0  0  0
    0.9689    3.9933   -3.7535 H   0  0  0  0  0  0  0  0  0  0  0  0
    1.7631    2.9371   -1.9759 C   0  0  0  0  0  0  0  0  0  0  0  0
    2.4632    3.6271   -1.7858 H   0  0  0  0  0  0  0  0  0  0  0  0
    0.9564    3.1224   -1.4110 H   0  0  0  0  0  0  0  0  0  0  0  0
    2.3097    1.5681   -1.6214 C   0  0  0  0  0  0  0  0  0  0  0  0
    1.6079    0.8808   -1.8163 H   0  0  0  0  0  0  0  0  0  0  0  0
    3.1150    1.3862   -2.1888 H   0  0  0  0  0  0  0  0  0  0  0  0
    2.5967    1.4875   -0.5730 H   0  0  0  0  0  0  0  0  0  0  0  0
  1  5  1  0
  5  6  1  0
  5  7  2  0
  1  2  1  0
  1  3  1  0
  1  4  1  0
  8 12  1  0
 12 15  1  0
  8  9  1  0
  8 10  1  0
  8 11  1  0
 12 13  1  0
 12 14  1  0
 15 16  1  0
 15 17  1  0
 15 18  1  0
M  CHG  1   6  -1
M  END
>  <PDB_ID>  (1925) 
pdb6smv

>  <RESIDUE_NAME>  (1925) 
ASP   LYS

>  <FRAG_NAME>  (1925) 
ACET   PRPA

>  <FRAG_ATOM_NUM>  (1925) 
fragi: 7  fragj: 11

>  <atom.prop.CHAIN_ID>  (1925) 
A A A A A A A Z Z Z Z Z Z Z Z Z Z Z

>  <atom.prop.IS_HEAVY_ATOM>  (1925) 
1 0 0 0 1 1 1 1 0 0 0 1 0 0 1 0 0 0

>  <DIFUSE_FUNC_ATOM>  (1925) 
atom 6   atom 7   

>  <FINAL_SINGLE_POINT_ENERGY>  (1925) 
0

>  <NONCOV_INTER_ENERGY_QM>  (1925) 
0

>  <FF_Energy>  (1925) 
32.88

>  <QM_Energy>  (1925) 
7.9

>  <source>  (1925) 
ACET_PRPA_26

>  <Index>  (1925) 
9947

$$$$
ACET-pdb6rya-A-ASP-174:PRPA-pdb6rya-A-ARG-171
     RDKit          3D

 18 16  0  0  0  0  0  0  0  0999 V2000
   -0.0156    1.5111   -0.1017 C   0  0  0  0  0  0  0  0  0  0  0  0
    0.0211    1.7698   -1.0640 H   0  0  0  0  0  0  0  0  0  0  0  0
    0.7771    1.8751    0.3799 H   0  0  0  0  0  0  0  0  0  0  0  0
   -0.9058    1.9680    0.3306 H   0  0  0  0  0  0  0  0  0  0  0  0
    0.0000    0.0000    0.0000 C   0  0  0  0  0  0  0  0  0  0  0  0
   -1.0972   -0.6012    0.0000 O   0  0  0  0  0  1  0  0  0  0  0  0
    1.0972   -0.5590   -0.0000 O   0  0  0  0  0  0  0  0  0  0  0  0
   -0.9421   -1.0582   -3.7458 C   0  0  0  0  0  0  0  0  0  0  0  0
   -1.0333   -1.6476   -4.5398 H   0  0  0  0  0  0  0  0  0  0  0  0
   -0.0484   -0.4468   -3.8703 H   0  0  0  0  0  0  0  0  0  0  0  0
   -1.8053   -0.3946   -3.6944 H   0  0  0  0  0  0  0  0  0  0  0  0
   -0.8106   -1.9431   -2.5053 C   0  0  0  0  0  0  0  0  0  0  0  0
    0.1435   -2.2317   -2.4277 H   0  0  0  0  0  0  0  0  0  0  0  0
   -1.0571   -1.3970   -1.7043 H   0  0  0  0  0  0  0  0  0  0  0  0
   -1.6800   -3.1933   -2.5051 C   0  0  0  0  0  0  0  0  0  0  0  0
   -2.6398   -2.9314   -2.4297 H   0  0  0  0  0  0  0  0  0  0  0  0
   -1.5319   -3.7017   -3.3506 H   0  0  0  0  0  0  0  0  0  0  0  0
   -1.4446   -3.8541   -1.6708 H   0  0  0  0  0  0  0  0  0  0  0  0
  1  5  1  0
  5  6  1  0
  5  7  2  0
  1  2  1  0
  1  3  1  0
  1  4  1  0
  8 12  1  0
 12 15  1  0
  8  9  1  0
  8 10  1  0
  8 11  1  0
 12 13  1  0
 12 14  1  0
 15 16  1  0
 15 17  1  0
 15 18  1  0
M  CHG  1   6  -1
M  END
>  <PDB_ID>  (1926) 
pdb6rya

>  <RESIDUE_NAME>  (1926) 
ASP   ARG

>  <FRAG_NAME>  (1926) 
ACET   PRPA

>  <FRAG_ATOM_NUM>  (1926) 
fragi: 7  fragj: 11

>  <atom.prop.CHAIN_ID>  (1926) 
A A A A A A A Z Z Z Z Z Z Z Z Z Z Z

>  <atom.prop.IS_HEAVY_ATOM>  (1926) 
1 0 0 0 1 1 1 1 0 0 0 1 0 0 1 0 0 0

>  <DIFUSE_FUNC_ATOM>  (1926) 
atom 6   atom 7   

>  <FINAL_SINGLE_POINT_ENERGY>  (1926) 
0

>  <NONCOV_INTER_ENERGY_QM>  (1926) 
0

>  <FF_Energy>  (1926) 
19.06

>  <QM_Energy>  (1926) 
-1.0

>  <source>  (1926) 
ACET_PRPA_26

>  <Index>  (1926) 
10308

$$$$
ACET-pdb6rya-A-ASP-174:PRPA-pdb6rya-A-ARG-171
     RDKit          3D

 18 16  0  0  0  0  0  0  0  0999 V2000
   -0.0156    1.5111   -0.1017 C   0  0  0  0  0  0  0  0  0  0  0  0
    0.0211    1.7698   -1.0640 H   0  0  0  0  0  0  0  0  0  0  0  0
    0.7771    1.8751    0.3799 H   0  0  0  0  0  0  0  0  0  0  0  0
   -0.9058    1.9680    0.3306 H   0  0  0  0  0  0  0  0  0  0  0  0
    0.0000    0.0000    0.0000 C   0  0  0  0  0  0  0  0  0  0  0  0
   -1.0972   -0.6012    0.0000 O   0  0  0  0  0  1  0  0  0  0  0  0
    1.0972   -0.5590   -0.0000 O   0  0  0  0  0  0  0  0  0  0  0  0
   -0.8106   -1.9431   -2.5053 C   0  0  0  0  0  0  0  0  0  0  0  0
    0.1435   -2.2317   -2.4277 H   0  0  0  0  0  0  0  0  0  0  0  0
   -1.0571   -1.3970   -1.7043 H   0  0  0  0  0  0  0  0  0  0  0  0
   -0.9043   -1.3125   -3.3894 H   0  0  0  0  0  0  0  0  0  0  0  0
   -1.6800   -3.1933   -2.5051 C   0  0  0  0  0  0  0  0  0  0  0  0
   -2.6398   -2.9314   -2.4297 H   0  0  0  0  0  0  0  0  0  0  0  0
   -1.5319   -3.7017   -3.3506 H   0  0  0  0  0  0  0  0  0  0  0  0
   -1.3502   -4.1190   -1.3362 C   0  0  0  0  0  0  0  0  0  0  0  0
   -1.4384   -3.5902   -0.4908 H   0  0  0  0  0  0  0  0  0  0  0  0
   -2.0235   -4.8607   -1.3339 H   0  0  0  0  0  0  0  0  0  0  0  0
   -0.3478   -4.5436   -1.3911 H   0  0  0  0  0  0  0  0  0  0  0  0
  1  5  1  0
  5  6  1  0
  5  7  2  0
  1  2  1  0
  1  3  1  0
  1  4  1  0
  8 12  1  0
 12 15  1  0
  8  9  1  0
  8 10  1  0
  8 11  1  0
 12 13  1  0
 12 14  1  0
 15 16  1  0
 15 17  1  0
 15 18  1  0
M  CHG  1   6  -1
M  END
>  <PDB_ID>  (1927) 
pdb6rya

>  <RESIDUE_NAME>  (1927) 
ASP   ARG

>  <FRAG_NAME>  (1927) 
ACET   PRPA

>  <FRAG_ATOM_NUM>  (1927) 
fragi: 7  fragj: 11

>  <atom.prop.CHAIN_ID>  (1927) 
A A A A A A A Z Z Z Z Z Z Z Z Z Z Z

>  <atom.prop.IS_HEAVY_ATOM>  (1927) 
1 0 0 0 1 1 1 1 0 0 0 1 0 0 1 0 0 0

>  <DIFUSE_FUNC_ATOM>  (1927) 
atom 6   atom 7   

>  <FINAL_SINGLE_POINT_ENERGY>  (1927) 
0

>  <NONCOV_INTER_ENERGY_QM>  (1927) 
0

>  <FF_Energy>  (1927) 
16.94

>  <QM_Energy>  (1927) 
-1.26

>  <source>  (1927) 
ACET_PRPA_26

>  <Index>  (1927) 
10312

$$$$
ACET-pdb6ujk-A-GLU-134:PRPA-pdb6ujk-A-LYS-2
     RDKit          3D

 18 16  0  0  0  0  0  0  0  0999 V2000
    0.0051    1.5242    0.0041 C   0  0  0  0  0  0  0  0  0  0  0  0
   -0.6465    1.8198   -0.6619 H   0  0  0  0  0  0  0  0  0  0  0  0
    0.9178    1.8128   -0.1927 H   0  0  0  0  0  0  0  0  0  0  0  0
   -0.2859    1.9194    0.9774 H   0  0  0  0  0  0  0  0  0  0  0  0
    0.0000    0.0000    0.0000 C   0  0  0  0  0  0  0  0  0  0  0  0
   -1.0992   -0.6087   -0.0000 O   0  0  0  0  0  1  0  0  0  0  0  0
    1.0992   -0.5971   -0.0000 O   0  0  0  0  0  0  0  0  0  0  0  0
   -0.2653   -1.3928    4.7711 C   0  0  0  0  0  0  0  0  0  0  0  0
   -0.6594   -0.6889    5.3642 H   0  0  0  0  0  0  0  0  0  0  0  0
    0.6719   -1.1358    4.5313 H   0  0  0  0  0  0  0  0  0  0  0  0
   -0.2467   -2.3402    5.3097 H   0  0  0  0  0  0  0  0  0  0  0  0
   -1.0916   -1.4856    3.5011 C   0  0  0  0  0  0  0  0  0  0  0  0
   -0.6951   -2.1917    2.9121 H   0  0  0  0  0  0  0  0  0  0  0  0
   -2.0269   -1.7442    3.7444 H   0  0  0  0  0  0  0  0  0  0  0  0
   -1.1314   -0.1837    2.7361 C   0  0  0  0  0  0  0  0  0  0  0  0
   -0.5894    0.5010    3.2245 H   0  0  0  0  0  0  0  0  0  0  0  0
   -0.7422   -0.3250    1.8253 H   0  0  0  0  0  0  0  0  0  0  0  0
   -2.1563    0.1740    2.6367 H   0  0  0  0  0  0  0  0  0  0  0  0
  1  5  1  0
  5  6  1  0
  5  7  2  0
  1  2  1  0
  1  3  1  0
  1  4  1  0
  8 12  1  0
 12 15  1  0
  8  9  1  0
  8 10  1  0
  8 11  1  0
 12 13  1  0
 12 14  1  0
 15 16  1  0
 15 17  1  0
 15 18  1  0
M  CHG  1   6  -1
M  END
>  <PDB_ID>  (1928) 
pdb6ujk

>  <RESIDUE_NAME>  (1928) 
GLU   LYS

>  <FRAG_NAME>  (1928) 
ACET   PRPA

>  <FRAG_ATOM_NUM>  (1928) 
fragi: 7  fragj: 11

>  <atom.prop.CHAIN_ID>  (1928) 
A A A A A A A Z Z Z Z Z Z Z Z Z Z Z

>  <atom.prop.IS_HEAVY_ATOM>  (1928) 
1 0 0 0 1 1 1 1 0 0 0 1 0 0 1 0 0 0

>  <DIFUSE_FUNC_ATOM>  (1928) 
atom 6   atom 7   

>  <FINAL_SINGLE_POINT_ENERGY>  (1928) 
0

>  <NONCOV_INTER_ENERGY_QM>  (1928) 
0

>  <FF_Energy>  (1928) 
36.82

>  <QM_Energy>  (1928) 
3.79

>  <source>  (1928) 
ACET_PRPA_26

>  <Index>  (1928) 
11213

$$$$
ACET-pdb6tzc-A-ASP-203:PRPA-pdb6tzc-A-LYS-196
     RDKit          3D

 18 16  0  0  0  0  0  0  0  0999 V2000
    0.0082    1.5045   -0.0040 C   0  0  0  0  0  0  0  0  0  0  0  0
    0.7271    1.7995   -0.5846 H   0  0  0  0  0  0  0  0  0  0  0  0
    0.1685    1.8066    0.9036 H   0  0  0  0  0  0  0  0  0  0  0  0
   -0.9323    1.9260   -0.3587 H   0  0  0  0  0  0  0  0  0  0  0  0
    0.0000    0.0000    0.0000 C   0  0  0  0  0  0  0  0  0  0  0  0
   -1.0986   -0.5911    0.0000 O   0  0  0  0  0  1  0  0  0  0  0  0
    1.0986   -0.5929   -0.0000 O   0  0  0  0  0  0  0  0  0  0  0  0
    2.7619    3.9693    2.4412 C   0  0  0  0  0  0  0  0  0  0  0  0
    3.4667    4.0704    3.1452 H   0  0  0  0  0  0  0  0  0  0  0  0
    2.0845    3.2988    2.7480 H   0  0  0  0  0  0  0  0  0  0  0  0
    2.2587    4.9292    2.3249 H   0  0  0  0  0  0  0  0  0  0  0  0
    3.4226    3.4361    1.1780 C   0  0  0  0  0  0  0  0  0  0  0  0
    3.2800    4.0934    0.4349 H   0  0  0  0  0  0  0  0  0  0  0  0
    4.4058    3.3357    1.3428 H   0  0  0  0  0  0  0  0  0  0  0  0
    2.8510    2.0947    0.7664 C   0  0  0  0  0  0  0  0  0  0  0  0
    2.9942    1.4411    1.5119 H   0  0  0  0  0  0  0  0  0  0  0  0
    1.8683    2.1986    0.6026 H   0  0  0  0  0  0  0  0  0  0  0  0
    3.3140    1.6986   -0.1373 H   0  0  0  0  0  0  0  0  0  0  0  0
  1  5  1  0
  5  6  1  0
  5  7  2  0
  1  2  1  0
  1  3  1  0
  1  4  1  0
  8 12  1  0
 12 15  1  0
  8  9  1  0
  8 10  1  0
  8 11  1  0
 12 13  1  0
 12 14  1  0
 15 16  1  0
 15 17  1  0
 15 18  1  0
M  CHG  1   6  -1
M  END
>  <PDB_ID>  (1929) 
pdb6tzc

>  <RESIDUE_NAME>  (1929) 
ASP   LYS

>  <FRAG_NAME>  (1929) 
ACET   PRPA

>  <FRAG_ATOM_NUM>  (1929) 
fragi: 7  fragj: 11

>  <atom.prop.CHAIN_ID>  (1929) 
A A A A A A A Z Z Z Z Z Z Z Z Z Z Z

>  <atom.prop.IS_HEAVY_ATOM>  (1929) 
1 0 0 0 1 1 1 1 0 0 0 1 0 0 1 0 0 0

>  <DIFUSE_FUNC_ATOM>  (1929) 
atom 6   atom 7   

>  <FINAL_SINGLE_POINT_ENERGY>  (1929) 
0

>  <NONCOV_INTER_ENERGY_QM>  (1929) 
0

>  <FF_Energy>  (1929) 
23.55

>  <QM_Energy>  (1929) 
5.55

>  <source>  (1929) 
ACET_PRPA_26

>  <Index>  (1929) 
11864

$$$$
ACET-pdb6tzc-A-ASP-203:PRPA-pdb6tzc-A-LYS-196
     RDKit          3D

 18 16  0  0  0  0  0  0  0  0999 V2000
    0.0082    1.5045   -0.0040 C   0  0  0  0  0  0  0  0  0  0  0  0
    0.7271    1.7995   -0.5846 H   0  0  0  0  0  0  0  0  0  0  0  0
    0.1685    1.8066    0.9036 H   0  0  0  0  0  0  0  0  0  0  0  0
   -0.9323    1.9260   -0.3587 H   0  0  0  0  0  0  0  0  0  0  0  0
    0.0000    0.0000    0.0000 C   0  0  0  0  0  0  0  0  0  0  0  0
   -1.0986   -0.5911    0.0000 O   0  0  0  0  0  1  0  0  0  0  0  0
    1.0986   -0.5929   -0.0000 O   0  0  0  0  0  0  0  0  0  0  0  0
    3.4226    3.4361    1.1780 C   0  0  0  0  0  0  0  0  0  0  0  0
    3.2800    4.0934    0.4349 H   0  0  0  0  0  0  0  0  0  0  0  0
    4.4058    3.3357    1.3428 H   0  0  0  0  0  0  0  0  0  0  0  0
    2.9494    3.8180    2.0827 H   0  0  0  0  0  0  0  0  0  0  0  0
    2.8510    2.0947    0.7664 C   0  0  0  0  0  0  0  0  0  0  0  0
    2.9942    1.4411    1.5119 H   0  0  0  0  0  0  0  0  0  0  0  0
    1.8683    2.1986    0.6026 H   0  0  0  0  0  0  0  0  0  0  0  0
    3.4930    1.5455   -0.4867 C   0  0  0  0  0  0  0  0  0  0  0  0
    3.3502    2.1902   -1.2380 H   0  0  0  0  0  0  0  0  0  0  0  0
    4.4753    1.4321   -0.3307 H   0  0  0  0  0  0  0  0  0  0  0  0
    3.0594    0.5816   -0.7531 H   0  0  0  0  0  0  0  0  0  0  0  0
  1  5  1  0
  5  6  1  0
  5  7  2  0
  1  2  1  0
  1  3  1  0
  1  4  1  0
  8 12  1  0
 12 15  1  0
  8  9  1  0
  8 10  1  0
  8 11  1  0
 12 13  1  0
 12 14  1  0
 15 16  1  0
 15 17  1  0
 15 18  1  0
M  CHG  1   6  -1
M  END
>  <PDB_ID>  (1930) 
pdb6tzc

>  <RESIDUE_NAME>  (1930) 
ASP   LYS

>  <FRAG_NAME>  (1930) 
ACET   PRPA

>  <FRAG_ATOM_NUM>  (1930) 
fragi: 7  fragj: 11

>  <atom.prop.CHAIN_ID>  (1930) 
A A A A A A A Z Z Z Z Z Z Z Z Z Z Z

>  <atom.prop.IS_HEAVY_ATOM>  (1930) 
1 0 0 0 1 1 1 1 0 0 0 1 0 0 1 0 0 0

>  <DIFUSE_FUNC_ATOM>  (1930) 
atom 6   atom 7   

>  <FINAL_SINGLE_POINT_ENERGY>  (1930) 
0

>  <NONCOV_INTER_ENERGY_QM>  (1930) 
0

>  <FF_Energy>  (1930) 
27.36

>  <QM_Energy>  (1930) 
3.59

>  <source>  (1930) 
ACET_PRPA_26

>  <Index>  (1930) 
11866

$$$$
ACET-pdb5n8r-A-GLU-568:PRPA-pdb5n8r-A-VAL-285
     RDKit          3D

 18 16  0  0  0  0  0  0  0  0999 V2000
   -0.0255    1.5251    0.0002 C   0  0  0  0  0  0  0  0  0  0  0  0
    0.7470    1.8227   -0.5231 H   0  0  0  0  0  0  0  0  0  0  0  0
    0.0160    1.8106    0.9363 H   0  0  0  0  0  0  0  0  0  0  0  0
   -0.9392    1.9061   -0.4557 H   0  0  0  0  0  0  0  0  0  0  0  0
    0.0000    0.0000    0.0000 C   0  0  0  0  0  0  0  0  0  0  0  0
   -1.1082   -0.5923    0.0000 O   0  0  0  0  0  1  0  0  0  0  0  0
    1.1082   -0.6013   -0.0000 O   0  0  0  0  0  0  0  0  0  0  0  0
    3.0362    1.5115    2.6397 C   0  0  0  0  0  0  0  0  0  0  0  0
    2.7826    2.4649    2.8202 H   0  0  0  0  0  0  0  0  0  0  0  0
    2.9455    1.3319    1.5685 H   0  0  0  0  0  0  0  0  0  0  0  0
    4.0708    1.3728    2.9533 H   0  0  0  0  0  0  0  0  0  0  0  0
    2.0978    0.5579    3.4157 C   0  0  0  0  0  0  0  0  0  0  0  0
    2.2571   -0.3614    3.0694 H   0  0  0  0  0  0  0  0  0  0  0  0
    2.3503    0.5575    4.4760 H   0  0  0  0  0  0  0  0  0  0  0  0
    0.6574    0.9186    3.2291 C   0  0  0  0  0  0  0  0  0  0  0  0
    0.4433    1.7543    3.7434 H   0  0  0  0  0  0  0  0  0  0  0  0
    0.4671    1.0767    2.2562 H   0  0  0  0  0  0  0  0  0  0  0  0
    0.0715    0.1729    3.5602 H   0  0  0  0  0  0  0  0  0  0  0  0
  1  5  1  0
  5  6  1  0
  5  7  2  0
  1  2  1  0
  1  3  1  0
  1  4  1  0
  8 12  1  0
 12 15  1  0
  8  9  1  0
  8 10  1  0
  8 11  1  0
 12 13  1  0
 12 14  1  0
 15 16  1  0
 15 17  1  0
 15 18  1  0
M  CHG  1   6  -1
M  END
>  <PDB_ID>  (1931) 
pdb5n8r

>  <RESIDUE_NAME>  (1931) 
GLU   VAL

>  <FRAG_NAME>  (1931) 
ACET   PRPA

>  <FRAG_ATOM_NUM>  (1931) 
fragi: 7  fragj: 11

>  <atom.prop.CHAIN_ID>  (1931) 
A A A A A A A Z Z Z Z Z Z Z Z Z Z Z

>  <atom.prop.IS_HEAVY_ATOM>  (1931) 
1 0 0 0 1 1 1 1 0 0 0 1 0 0 1 0 0 0

>  <DIFUSE_FUNC_ATOM>  (1931) 
atom 6   atom 7   

>  <FINAL_SINGLE_POINT_ENERGY>  (1931) 
0

>  <NONCOV_INTER_ENERGY_QM>  (1931) 
0

>  <FF_Energy>  (1931) 
16.38

>  <QM_Energy>  (1931) 
-0.3

>  <source>  (1931) 
ACET_PRPA_26

>  <Index>  (1931) 
15400

$$$$
ACET-pdb5n8r-A-GLU-568:PRPA-pdb5n8r-A-VAL-285
     RDKit          3D

 18 16  0  0  0  0  0  0  0  0999 V2000
   -0.0255    1.5251    0.0002 C   0  0  0  0  0  0  0  0  0  0  0  0
    0.7470    1.8227   -0.5231 H   0  0  0  0  0  0  0  0  0  0  0  0
    0.0160    1.8106    0.9363 H   0  0  0  0  0  0  0  0  0  0  0  0
   -0.9392    1.9061   -0.4557 H   0  0  0  0  0  0  0  0  0  0  0  0
    0.0000    0.0000    0.0000 C   0  0  0  0  0  0  0  0  0  0  0  0
   -1.1082   -0.5923    0.0000 O   0  0  0  0  0  1  0  0  0  0  0  0
    1.1082   -0.6013   -0.0000 O   0  0  0  0  0  0  0  0  0  0  0  0
    2.4469    0.5573    4.8814 C   0  0  0  0  0  0  0  0  0  0  0  0
    1.7742    1.0963    5.3928 H   0  0  0  0  0  0  0  0  0  0  0  0
    2.4478   -0.3822    5.2317 H   0  0  0  0  0  0  0  0  0  0  0  0
    3.3562    0.9569    5.0161 H   0  0  0  0  0  0  0  0  0  0  0  0
    2.0978    0.5579    3.4157 C   0  0  0  0  0  0  0  0  0  0  0  0
    2.2571   -0.3614    3.0694 H   0  0  0  0  0  0  0  0  0  0  0  0
    2.7591    1.2300    2.8688 H   0  0  0  0  0  0  0  0  0  0  0  0
    0.6574    0.9186    3.2291 C   0  0  0  0  0  0  0  0  0  0  0  0
    0.4433    1.7543    3.7434 H   0  0  0  0  0  0  0  0  0  0  0  0
    0.4671    1.0767    2.2562 H   0  0  0  0  0  0  0  0  0  0  0  0
    0.0715    0.1729    3.5602 H   0  0  0  0  0  0  0  0  0  0  0  0
  1  5  1  0
  5  6  1  0
  5  7  2  0
  1  2  1  0
  1  3  1  0
  1  4  1  0
  8 12  1  0
 12 15  1  0
  8  9  1  0
  8 10  1  0
  8 11  1  0
 12 13  1  0
 12 14  1  0
 15 16  1  0
 15 17  1  0
 15 18  1  0
M  CHG  1   6  -1
M  END
>  <PDB_ID>  (1932) 
pdb5n8r

>  <RESIDUE_NAME>  (1932) 
GLU   VAL

>  <FRAG_NAME>  (1932) 
ACET   PRPA

>  <FRAG_ATOM_NUM>  (1932) 
fragi: 7  fragj: 11

>  <atom.prop.CHAIN_ID>  (1932) 
A A A A A A A Z Z Z Z Z Z Z Z Z Z Z

>  <atom.prop.IS_HEAVY_ATOM>  (1932) 
1 0 0 0 1 1 1 1 0 0 0 1 0 0 1 0 0 0

>  <DIFUSE_FUNC_ATOM>  (1932) 
atom 6   atom 7   

>  <FINAL_SINGLE_POINT_ENERGY>  (1932) 
0

>  <NONCOV_INTER_ENERGY_QM>  (1932) 
0

>  <FF_Energy>  (1932) 
16.36

>  <QM_Energy>  (1932) 
1.15

>  <source>  (1932) 
ACET_PRPA_26

>  <Index>  (1932) 
15414

$$$$
ACET-pdb5mwn-C-GLU-48:PRPA-pdb5mwn-C-ARG-63
     RDKit          3D

 18 16  0  0  0  0  0  0  0  0999 V2000
    0.0110    1.5149   -0.0201 C   0  0  0  0  0  0  0  0  0  0  0  0
    0.1788    1.7997   -0.9612 H   0  0  0  0  0  0  0  0  0  0  0  0
    0.7627    1.8143    0.5632 H   0  0  0  0  0  0  0  0  0  0  0  0
   -0.8987    2.0082    0.3223 H   0  0  0  0  0  0  0  0  0  0  0  0
    0.0000    0.0000    0.0000 C   0  0  0  0  0  0  0  0  0  0  0  0
   -1.1002   -0.5961    0.0000 O   0  0  0  0  0  1  0  0  0  0  0  0
    1.1002   -0.5956   -0.0000 O   0  0  0  0  0  0  0  0  0  0  0  0
   -2.7614   -0.6404    3.0050 C   0  0  0  0  0  0  0  0  0  0  0  0
   -2.1751   -0.0939    2.3995 H   0  0  0  0  0  0  0  0  0  0  0  0
   -2.1890   -1.3066    3.4925 H   0  0  0  0  0  0  0  0  0  0  0  0
   -3.1964    0.0318    3.7446 H   0  0  0  0  0  0  0  0  0  0  0  0
   -3.7431   -1.4128    2.1365 C   0  0  0  0  0  0  0  0  0  0  0  0
   -4.2020   -2.0924    2.6783 H   0  0  0  0  0  0  0  0  0  0  0  0
   -4.3720   -0.7883    1.7111 H   0  0  0  0  0  0  0  0  0  0  0  0
   -2.9575   -2.1225    1.0418 C   0  0  0  0  0  0  0  0  0  0  0  0
   -2.6664   -1.4350    0.3769 H   0  0  0  0  0  0  0  0  0  0  0  0
   -2.1535   -2.5417    1.4631 H   0  0  0  0  0  0  0  0  0  0  0  0
   -3.5385   -2.8908    0.5316 H   0  0  0  0  0  0  0  0  0  0  0  0
  1  5  1  0
  5  6  1  0
  5  7  2  0
  1  2  1  0
  1  3  1  0
  1  4  1  0
  8 12  1  0
 12 15  1  0
  8  9  1  0
  8 10  1  0
  8 11  1  0
 12 13  1  0
 12 14  1  0
 15 16  1  0
 15 17  1  0
 15 18  1  0
M  CHG  1   6  -1
M  END
>  <PDB_ID>  (1933) 
pdb5mwn

>  <RESIDUE_NAME>  (1933) 
GLU   ARG

>  <FRAG_NAME>  (1933) 
ACET   PRPA

>  <FRAG_ATOM_NUM>  (1933) 
fragi: 7  fragj: 11

>  <atom.prop.CHAIN_ID>  (1933) 
A A A A A A A Z Z Z Z Z Z Z Z Z Z Z

>  <atom.prop.IS_HEAVY_ATOM>  (1933) 
1 0 0 0 1 1 1 1 0 0 0 1 0 0 1 0 0 0

>  <DIFUSE_FUNC_ATOM>  (1933) 
atom 6   atom 7   

>  <FINAL_SINGLE_POINT_ENERGY>  (1933) 
0

>  <NONCOV_INTER_ENERGY_QM>  (1933) 
0

>  <FF_Energy>  (1933) 
27.71

>  <QM_Energy>  (1933) 
1.85

>  <source>  (1933) 
ACET_PRPA_26

>  <Index>  (1933) 
15712

$$$$
ACET-pdb5ntf-B-GLU-138:PRPA-pdb5ntf-B-ARG-182
     RDKit          3D

 18 16  0  0  0  0  0  0  0  0999 V2000
    0.0301    1.5357   -0.0951 C   0  0  0  0  0  0  0  0  0  0  0  0
   -0.4472    1.7842   -0.9277 H   0  0  0  0  0  0  0  0  0  0  0  0
    0.9837    1.8040   -0.1407 H   0  0  0  0  0  0  0  0  0  0  0  0
   -0.4351    2.0678    0.7348 H   0  0  0  0  0  0  0  0  0  0  0  0
    0.0000    0.0000    0.0000 C   0  0  0  0  0  0  0  0  0  0  0  0
   -1.1033   -0.5984    0.0000 O   0  0  0  0  0  1  0  0  0  0  0  0
    1.1033   -0.6068   -0.0000 O   0  0  0  0  0  0  0  0  0  0  0  0
    4.6828    1.9102    0.6926 C   0  0  0  0  0  0  0  0  0  0  0  0
    5.1827    2.7659    0.6359 H   0  0  0  0  0  0  0  0  0  0  0  0
    4.7634    1.4003   -0.1538 H   0  0  0  0  0  0  0  0  0  0  0  0
    5.1400    1.3134    1.4819 H   0  0  0  0  0  0  0  0  0  0  0  0
    3.2130    2.2236    0.9290 C   0  0  0  0  0  0  0  0  0  0  0  0
    2.7034    1.3705    0.9892 H   0  0  0  0  0  0  0  0  0  0  0  0
    3.1221    2.7369    1.7780 H   0  0  0  0  0  0  0  0  0  0  0  0
    2.6568    3.0439   -0.1922 C   0  0  0  0  0  0  0  0  0  0  0  0
    3.1693    3.8963   -0.2517 H   0  0  0  0  0  0  0  0  0  0  0  0
    2.7500    2.5298   -1.0413 H   0  0  0  0  0  0  0  0  0  0  0  0
    1.6034    3.2745   -0.0330 H   0  0  0  0  0  0  0  0  0  0  0  0
  1  5  1  0
  5  6  1  0
  5  7  2  0
  1  2  1  0
  1  3  1  0
  1  4  1  0
  8 12  1  0
 12 15  1  0
  8  9  1  0
  8 10  1  0
  8 11  1  0
 12 13  1  0
 12 14  1  0
 15 16  1  0
 15 17  1  0
 15 18  1  0
M  CHG  1   6  -1
M  END
>  <PDB_ID>  (1934) 
pdb5ntf

>  <RESIDUE_NAME>  (1934) 
GLU   ARG

>  <FRAG_NAME>  (1934) 
ACET   PRPA

>  <FRAG_ATOM_NUM>  (1934) 
fragi: 7  fragj: 11

>  <atom.prop.CHAIN_ID>  (1934) 
A A A A A A A Z Z Z Z Z Z Z Z Z Z Z

>  <atom.prop.IS_HEAVY_ATOM>  (1934) 
1 0 0 0 1 1 1 1 0 0 0 1 0 0 1 0 0 0

>  <DIFUSE_FUNC_ATOM>  (1934) 
atom 6   atom 7   

>  <FINAL_SINGLE_POINT_ENERGY>  (1934) 
0

>  <NONCOV_INTER_ENERGY_QM>  (1934) 
0

>  <FF_Energy>  (1934) 
28.44

>  <QM_Energy>  (1934) 
4.93

>  <source>  (1934) 
ACET_PRPA_26

>  <Index>  (1934) 
21178

$$$$
ACET-pdb5oe8-B-ASP-291:PRPA-pdb5oe8-B-LYS-294
     RDKit          3D

 18 16  0  0  0  0  0  0  0  0999 V2000
    0.0283    1.5365   -0.0147 C   0  0  0  0  0  0  0  0  0  0  0  0
    0.8107    1.8307   -0.5466 H   0  0  0  0  0  0  0  0  0  0  0  0
    0.0946    1.8582    0.9199 H   0  0  0  0  0  0  0  0  0  0  0  0
   -0.8653    1.9744   -0.4595 H   0  0  0  0  0  0  0  0  0  0  0  0
    0.0000    0.0000    0.0000 C   0  0  0  0  0  0  0  0  0  0  0  0
   -1.1108   -0.6142    0.0000 O   0  0  0  0  0  1  0  0  0  0  0  0
    1.1108   -0.5914   -0.0000 O   0  0  0  0  0  0  0  0  0  0  0  0
    0.0361    0.7877    3.5726 C   0  0  0  0  0  0  0  0  0  0  0  0
   -0.2543    1.5114    2.9482 H   0  0  0  0  0  0  0  0  0  0  0  0
    0.5554    1.1866    4.3280 H   0  0  0  0  0  0  0  0  0  0  0  0
   -0.8568    0.3194    3.9869 H   0  0  0  0  0  0  0  0  0  0  0  0
    0.9498   -0.1621    2.8117 C   0  0  0  0  0  0  0  0  0  0  0  0
    1.2510   -0.8890    3.4297 H   0  0  0  0  0  0  0  0  0  0  0  0
    0.4413   -0.5642    2.0499 H   0  0  0  0  0  0  0  0  0  0  0  0
    2.1718    0.5556    2.2651 C   0  0  0  0  0  0  0  0  0  0  0  0
    1.8671    1.2833    1.6489 H   0  0  0  0  0  0  0  0  0  0  0  0
    2.6776    0.9574    3.0286 H   0  0  0  0  0  0  0  0  0  0  0  0
    2.8384   -0.1096    1.7162 H   0  0  0  0  0  0  0  0  0  0  0  0
  1  5  1  0
  5  6  1  0
  5  7  2  0
  1  2  1  0
  1  3  1  0
  1  4  1  0
  8 12  1  0
 12 15  1  0
  8  9  1  0
  8 10  1  0
  8 11  1  0
 12 13  1  0
 12 14  1  0
 15 16  1  0
 15 17  1  0
 15 18  1  0
M  CHG  1   6  -1
M  END
>  <PDB_ID>  (1935) 
pdb5oe8

>  <RESIDUE_NAME>  (1935) 
ASP   LYS

>  <FRAG_NAME>  (1935) 
ACET   PRPA

>  <FRAG_ATOM_NUM>  (1935) 
fragi: 7  fragj: 11

>  <atom.prop.CHAIN_ID>  (1935) 
A A A A A A A Z Z Z Z Z Z Z Z Z Z Z

>  <atom.prop.IS_HEAVY_ATOM>  (1935) 
1 0 0 0 1 1 1 1 0 0 0 1 0 0 1 0 0 0

>  <DIFUSE_FUNC_ATOM>  (1935) 
atom 6   atom 7   

>  <FINAL_SINGLE_POINT_ENERGY>  (1935) 
0

>  <NONCOV_INTER_ENERGY_QM>  (1935) 
0

>  <FF_Energy>  (1935) 
19.23

>  <QM_Energy>  (1935) 
2.32

>  <source>  (1935) 
ACET_PRPA_26

>  <Index>  (1935) 
26478

$$$$
ACET-pdb5nz7-B-GLU-222:PRPA-pdb5nz7-B-LYS-237
     RDKit          3D

 18 16  0  0  0  0  0  0  0  0999 V2000
   -0.0017    1.5284    0.0252 C   0  0  0  0  0  0  0  0  0  0  0  0
    0.6144    1.8314   -0.6736 H   0  0  0  0  0  0  0  0  0  0  0  0
    0.2757    1.8043    0.9238 H   0  0  0  0  0  0  0  0  0  0  0  0
   -0.9894    1.9419   -0.1786 H   0  0  0  0  0  0  0  0  0  0  0  0
    0.0000    0.0000    0.0000 C   0  0  0  0  0  0  0  0  0  0  0  0
   -1.0946   -0.6103   -0.0000 O   0  0  0  0  0  1  0  0  0  0  0  0
    1.0946   -0.6064   -0.0000 O   0  0  0  0  0  0  0  0  0  0  0  0
   -4.8021    0.3474   -1.4978 C   0  0  0  0  0  0  0  0  0  0  0  0
   -4.3094    0.7193   -0.7044 H   0  0  0  0  0  0  0  0  0  0  0  0
   -5.4331   -0.3667   -1.1768 H   0  0  0  0  0  0  0  0  0  0  0  0
   -5.3974    1.1514   -1.9306 H   0  0  0  0  0  0  0  0  0  0  0  0
   -3.7857   -0.2991   -2.4282 C   0  0  0  0  0  0  0  0  0  0  0  0
   -4.2705   -0.6796   -3.2211 H   0  0  0  0  0  0  0  0  0  0  0  0
   -3.1467    0.4055   -2.7490 H   0  0  0  0  0  0  0  0  0  0  0  0
   -3.0099   -1.3993   -1.7492 C   0  0  0  0  0  0  0  0  0  0  0  0
   -2.5272   -1.0158   -0.9567 H   0  0  0  0  0  0  0  0  0  0  0  0
   -3.6517   -2.1015   -1.4303 H   0  0  0  0  0  0  0  0  0  0  0  0
   -2.2775   -1.8715   -2.4040 H   0  0  0  0  0  0  0  0  0  0  0  0
  1  5  1  0
  5  6  1  0
  5  7  2  0
  1  2  1  0
  1  3  1  0
  1  4  1  0
  8 12  1  0
 12 15  1  0
  8  9  1  0
  8 10  1  0
  8 11  1  0
 12 13  1  0
 12 14  1  0
 15 16  1  0
 15 17  1  0
 15 18  1  0
M  CHG  1   6  -1
M  END
>  <PDB_ID>  (1936) 
pdb5nz7

>  <RESIDUE_NAME>  (1936) 
GLU   LYS

>  <FRAG_NAME>  (1936) 
ACET   PRPA

>  <FRAG_ATOM_NUM>  (1936) 
fragi: 7  fragj: 11

>  <atom.prop.CHAIN_ID>  (1936) 
A A A A A A A Z Z Z Z Z Z Z Z Z Z Z

>  <atom.prop.IS_HEAVY_ATOM>  (1936) 
1 0 0 0 1 1 1 1 0 0 0 1 0 0 1 0 0 0

>  <DIFUSE_FUNC_ATOM>  (1936) 
atom 6   atom 7   

>  <FINAL_SINGLE_POINT_ENERGY>  (1936) 
0

>  <NONCOV_INTER_ENERGY_QM>  (1936) 
0

>  <FF_Energy>  (1936) 
34.36

>  <QM_Energy>  (1936) 
1.26

>  <source>  (1936) 
ACET_PRPA_26

>  <Index>  (1936) 
26547

$$$$
ACET-pdb5nz7-B-GLU-222:PRPA-pdb5nz7-B-LYS-237
     RDKit          3D

 18 16  0  0  0  0  0  0  0  0999 V2000
   -0.0017    1.5284    0.0252 C   0  0  0  0  0  0  0  0  0  0  0  0
    0.6144    1.8314   -0.6736 H   0  0  0  0  0  0  0  0  0  0  0  0
    0.2757    1.8043    0.9238 H   0  0  0  0  0  0  0  0  0  0  0  0
   -0.9894    1.9419   -0.1786 H   0  0  0  0  0  0  0  0  0  0  0  0
    0.0000    0.0000    0.0000 C   0  0  0  0  0  0  0  0  0  0  0  0
   -1.0946   -0.6103   -0.0000 O   0  0  0  0  0  1  0  0  0  0  0  0
    1.0946   -0.6064   -0.0000 O   0  0  0  0  0  0  0  0  0  0  0  0
   -3.7857   -0.2991   -2.4282 C   0  0  0  0  0  0  0  0  0  0  0  0
   -4.2705   -0.6796   -3.2211 H   0  0  0  0  0  0  0  0  0  0  0  0
   -3.1467    0.4055   -2.7490 H   0  0  0  0  0  0  0  0  0  0  0  0
   -4.5135    0.1639   -1.7619 H   0  0  0  0  0  0  0  0  0  0  0  0
   -3.0099   -1.3993   -1.7492 C   0  0  0  0  0  0  0  0  0  0  0  0
   -2.5272   -1.0158   -0.9567 H   0  0  0  0  0  0  0  0  0  0  0  0
   -3.6517   -2.1015   -1.4303 H   0  0  0  0  0  0  0  0  0  0  0  0
   -1.9950   -2.0536   -2.6566 C   0  0  0  0  0  0  0  0  0  0  0  0
   -2.4668   -2.4476   -3.4476 H   0  0  0  0  0  0  0  0  0  0  0  0
   -1.3433   -1.3620   -2.9743 H   0  0  0  0  0  0  0  0  0  0  0  0
   -1.4537   -2.8419   -2.1334 H   0  0  0  0  0  0  0  0  0  0  0  0
  1  5  1  0
  5  6  1  0
  5  7  2  0
  1  2  1  0
  1  3  1  0
  1  4  1  0
  8 12  1  0
 12 15  1  0
  8  9  1  0
  8 10  1  0
  8 11  1  0
 12 13  1  0
 12 14  1  0
 15 16  1  0
 15 17  1  0
 15 18  1  0
M  CHG  1   6  -1
M  END
>  <PDB_ID>  (1937) 
pdb5nz7

>  <RESIDUE_NAME>  (1937) 
GLU   LYS

>  <FRAG_NAME>  (1937) 
ACET   PRPA

>  <FRAG_ATOM_NUM>  (1937) 
fragi: 7  fragj: 11

>  <atom.prop.CHAIN_ID>  (1937) 
A A A A A A A Z Z Z Z Z Z Z Z Z Z Z

>  <atom.prop.IS_HEAVY_ATOM>  (1937) 
1 0 0 0 1 1 1 1 0 0 0 1 0 0 1 0 0 0

>  <DIFUSE_FUNC_ATOM>  (1937) 
atom 6   atom 7   

>  <FINAL_SINGLE_POINT_ENERGY>  (1937) 
0

>  <NONCOV_INTER_ENERGY_QM>  (1937) 
0

>  <FF_Energy>  (1937) 
40.39

>  <QM_Energy>  (1937) 
0.47

>  <source>  (1937) 
ACET_PRPA_26

>  <Index>  (1937) 
26550

$$$$
ACET-pdb5o8y-G-ASP-148:PRPA-pdb5o8y-G-LYS-140
     RDKit          3D

 18 16  0  0  0  0  0  0  0  0999 V2000
    0.0349    1.5167   -0.0171 C   0  0  0  0  0  0  0  0  0  0  0  0
    0.5302    1.8136   -0.8337 H   0  0  0  0  0  0  0  0  0  0  0  0
    0.5191    1.8329    0.7985 H   0  0  0  0  0  0  0  0  0  0  0  0
   -0.9487    1.9862   -0.0293 H   0  0  0  0  0  0  0  0  0  0  0  0
    0.0000    0.0000    0.0000 C   0  0  0  0  0  0  0  0  0  0  0  0
   -1.0952   -0.5996   -0.0000 O   0  0  0  0  0  1  0  0  0  0  0  0
    1.0952   -0.5831   -0.0000 O   0  0  0  0  0  0  0  0  0  0  0  0
   -3.0197   -2.2736    1.0572 C   0  0  0  0  0  0  0  0  0  0  0  0
   -2.3920   -1.4762    1.1316 H   0  0  0  0  0  0  0  0  0  0  0  0
   -3.2249   -2.6445    2.0615 H   0  0  0  0  0  0  0  0  0  0  0  0
   -3.9044   -1.9610    0.5026 H   0  0  0  0  0  0  0  0  0  0  0  0
   -2.2497   -3.3145    0.2320 C   0  0  0  0  0  0  0  0  0  0  0  0
   -2.7779   -4.1639    0.2352 H   0  0  0  0  0  0  0  0  0  0  0  0
   -2.1760   -2.9717   -0.7051 H   0  0  0  0  0  0  0  0  0  0  0  0
   -0.8516   -3.6178    0.7432 C   0  0  0  0  0  0  0  0  0  0  0  0
   -0.3436   -2.7640    0.8337 H   0  0  0  0  0  0  0  0  0  0  0  0
   -0.9177   -4.0682    1.6308 H   0  0  0  0  0  0  0  0  0  0  0  0
   -0.3199   -4.2730    0.0531 H   0  0  0  0  0  0  0  0  0  0  0  0
  1  5  1  0
  5  6  1  0
  5  7  2  0
  1  2  1  0
  1  3  1  0
  1  4  1  0
  8 12  1  0
 12 15  1  0
  8  9  1  0
  8 10  1  0
  8 11  1  0
 12 13  1  0
 12 14  1  0
 15 16  1  0
 15 17  1  0
 15 18  1  0
M  CHG  1   6  -1
M  END
>  <PDB_ID>  (1938) 
pdb5o8y

>  <RESIDUE_NAME>  (1938) 
ASP   LYS

>  <FRAG_NAME>  (1938) 
ACET   PRPA

>  <FRAG_ATOM_NUM>  (1938) 
fragi: 7  fragj: 11

>  <atom.prop.CHAIN_ID>  (1938) 
A A A A A A A Z Z Z Z Z Z Z Z Z Z Z

>  <atom.prop.IS_HEAVY_ATOM>  (1938) 
1 0 0 0 1 1 1 1 0 0 0 1 0 0 1 0 0 0

>  <DIFUSE_FUNC_ATOM>  (1938) 
atom 6   atom 7   

>  <FINAL_SINGLE_POINT_ENERGY>  (1938) 
0

>  <NONCOV_INTER_ENERGY_QM>  (1938) 
0

>  <FF_Energy>  (1938) 
14.57

>  <QM_Energy>  (1938) 
-3.06

>  <source>  (1938) 
ACET_PRPA_26

>  <Index>  (1938) 
26784

$$$$
ACET-pdb5ts9-A-ASP-54:PRPA-pdb5ts9-A-ARG-57
     RDKit          3D

 18 16  0  0  0  0  0  0  0  0999 V2000
    0.0382    1.5351   -0.0105 C   0  0  0  0  0  0  0  0  0  0  0  0
    0.4971    1.8288   -0.8410 H   0  0  0  0  0  0  0  0  0  0  0  0
    0.5392    1.8397    0.7910 H   0  0  0  0  0  0  0  0  0  0  0  0
   -0.9527    1.9885    0.0117 H   0  0  0  0  0  0  0  0  0  0  0  0
    0.0000    0.0000    0.0000 C   0  0  0  0  0  0  0  0  0  0  0  0
   -1.0944   -0.6115    0.0000 O   0  0  0  0  0  1  0  0  0  0  0  0
    1.0944   -0.6023    0.0000 O   0  0  0  0  0  0  0  0  0  0  0  0
    0.4606   -1.2446    4.0187 C   0  0  0  0  0  0  0  0  0  0  0  0
    0.8126   -2.1108    4.4025 H   0  0  0  0  0  0  0  0  0  0  0  0
   -0.4422   -1.4557    3.4454 H   0  0  0  0  0  0  0  0  0  0  0  0
    0.2706   -0.5550    4.8411 H   0  0  0  0  0  0  0  0  0  0  0  0
    1.5515   -0.6911    3.1062 C   0  0  0  0  0  0  0  0  0  0  0  0
    1.2151    0.1607    2.6955 H   0  0  0  0  0  0  0  0  0  0  0  0
    2.3562   -0.4848    3.6683 H   0  0  0  0  0  0  0  0  0  0  0  0
    1.9993   -1.6076    1.9743 C   0  0  0  0  0  0  0  0  0  0  0  0
    2.3485   -2.4601    2.3677 H   0  0  0  0  0  0  0  0  0  0  0  0
    1.2072   -1.8139    1.3942 H   0  0  0  0  0  0  0  0  0  0  0  0
    2.7776   -1.1520    1.3621 H   0  0  0  0  0  0  0  0  0  0  0  0
  1  5  1  0
  5  6  1  0
  5  7  2  0
  1  2  1  0
  1  3  1  0
  1  4  1  0
  8 12  1  0
 12 15  1  0
  8  9  1  0
  8 10  1  0
  8 11  1  0
 12 13  1  0
 12 14  1  0
 15 16  1  0
 15 17  1  0
 15 18  1  0
M  CHG  1   6  -1
M  END
>  <PDB_ID>  (1939) 
pdb5ts9

>  <RESIDUE_NAME>  (1939) 
ASP   ARG

>  <FRAG_NAME>  (1939) 
ACET   PRPA

>  <FRAG_ATOM_NUM>  (1939) 
fragi: 7  fragj: 11

>  <atom.prop.CHAIN_ID>  (1939) 
A A A A A A A Z Z Z Z Z Z Z Z Z Z Z

>  <atom.prop.IS_HEAVY_ATOM>  (1939) 
1 0 0 0 1 1 1 1 0 0 0 1 0 0 1 0 0 0

>  <DIFUSE_FUNC_ATOM>  (1939) 
atom 6   atom 7   

>  <FINAL_SINGLE_POINT_ENERGY>  (1939) 
0

>  <NONCOV_INTER_ENERGY_QM>  (1939) 
0

>  <FF_Energy>  (1939) 
38.33

>  <QM_Energy>  (1939) 
7.73

>  <source>  (1939) 
ACET_PRPA_26

>  <Index>  (1939) 
33555

$$$$
ACET-pdb5ts9-B-ASP-54:PRPA-pdb5ts9-B-ARG-57
     RDKit          3D

 18 16  0  0  0  0  0  0  0  0999 V2000
    0.0293    1.5246    0.0051 C   0  0  0  0  0  0  0  0  0  0  0  0
    0.8625    1.8269   -0.4451 H   0  0  0  0  0  0  0  0  0  0  0  0
    0.0109    1.8387    0.9474 H   0  0  0  0  0  0  0  0  0  0  0  0
   -0.8175    1.9699   -0.5171 H   0  0  0  0  0  0  0  0  0  0  0  0
    0.0000    0.0000    0.0000 C   0  0  0  0  0  0  0  0  0  0  0  0
   -1.0919   -0.6048   -0.0000 O   0  0  0  0  0  1  0  0  0  0  0  0
    1.0919   -0.5998    0.0000 O   0  0  0  0  0  0  0  0  0  0  0  0
   -0.1701    0.1037    3.3939 C   0  0  0  0  0  0  0  0  0  0  0  0
   -0.3309    0.8803    2.7837 H   0  0  0  0  0  0  0  0  0  0  0  0
    0.3620    0.4077    4.1842 H   0  0  0  0  0  0  0  0  0  0  0  0
   -1.1365   -0.2507    3.7523 H   0  0  0  0  0  0  0  0  0  0  0  0
    0.6611   -0.9243    2.6365 C   0  0  0  0  0  0  0  0  0  0  0  0
    0.8377   -1.7045    3.2377 H   0  0  0  0  0  0  0  0  0  0  0  0
    0.1453   -1.2314    1.8366 H   0  0  0  0  0  0  0  0  0  0  0  0
    1.9613   -0.3567    2.1850 C   0  0  0  0  0  0  0  0  0  0  0  0
    1.7824    0.4228    1.5844 H   0  0  0  0  0  0  0  0  0  0  0  0
    2.4748   -0.0493    2.9865 H   0  0  0  0  0  0  0  0  0  0  0  0
    2.5590   -1.0890    1.6423 H   0  0  0  0  0  0  0  0  0  0  0  0
  1  5  1  0
  5  6  1  0
  5  7  2  0
  1  2  1  0
  1  3  1  0
  1  4  1  0
  8 12  1  0
 12 15  1  0
  8  9  1  0
  8 10  1  0
  8 11  1  0
 12 13  1  0
 12 14  1  0
 15 16  1  0
 15 17  1  0
 15 18  1  0
M  CHG  1   6  -1
M  END
>  <PDB_ID>  (1940) 
pdb5ts9

>  <RESIDUE_NAME>  (1940) 
ASP   ARG

>  <FRAG_NAME>  (1940) 
ACET   PRPA

>  <FRAG_ATOM_NUM>  (1940) 
fragi: 7  fragj: 11

>  <atom.prop.CHAIN_ID>  (1940) 
A A A A A A A Z Z Z Z Z Z Z Z Z Z Z

>  <atom.prop.IS_HEAVY_ATOM>  (1940) 
1 0 0 0 1 1 1 1 0 0 0 1 0 0 1 0 0 0

>  <DIFUSE_FUNC_ATOM>  (1940) 
atom 6   atom 7   

>  <FINAL_SINGLE_POINT_ENERGY>  (1940) 
0

>  <NONCOV_INTER_ENERGY_QM>  (1940) 
0

>  <FF_Energy>  (1940) 
48.46

>  <QM_Energy>  (1940) 
10.9

>  <source>  (1940) 
ACET_PRPA_26

>  <Index>  (1940) 
34317

$$$$
ACET-pdb5tea-F-ASP-3:PRPA-pdb5tea-F-GLN-6
     RDKit          3D

 18 16  0  0  0  0  0  0  0  0999 V2000
   -0.0005    1.5172   -0.0025 C   0  0  0  0  0  0  0  0  0  0  0  0
   -0.3496    1.8352   -0.8758 H   0  0  0  0  0  0  0  0  0  0  0  0
    0.9266    1.8374    0.1421 H   0  0  0  0  0  0  0  0  0  0  0  0
   -0.6291    1.9352    0.7837 H   0  0  0  0  0  0  0  0  0  0  0  0
    0.0000    0.0000    0.0000 C   0  0  0  0  0  0  0  0  0  0  0  0
   -1.0976   -0.5988   -0.0000 O   0  0  0  0  0  1  0  0  0  0  0  0
    1.0976   -0.5946    0.0000 O   0  0  0  0  0  0  0  0  0  0  0  0
    3.2896   -1.5566    2.9792 C   0  0  0  0  0  0  0  0  0  0  0  0
    3.7567   -2.4604    2.9653 H   0  0  0  0  0  0  0  0  0  0  0  0
    2.2154   -1.7386    2.9462 H   0  0  0  0  0  0  0  0  0  0  0  0
    3.6156   -1.0287    3.8754 H   0  0  0  0  0  0  0  0  0  0  0  0
    3.7415   -0.7647    1.7444 C   0  0  0  0  0  0  0  0  0  0  0  0
    3.2565    0.1134    1.7367 H   0  0  0  0  0  0  0  0  0  0  0  0
    4.7277   -0.5908    1.8224 H   0  0  0  0  0  0  0  0  0  0  0  0
    3.4843   -1.4631    0.4277 C   0  0  0  0  0  0  0  0  0  0  0  0
    3.9705   -2.3396    0.4290 H   0  0  0  0  0  0  0  0  0  0  0  0
    2.5000   -1.6356    0.3426 H   0  0  0  0  0  0  0  0  0  0  0  0
    3.8145   -0.8808   -0.4324 H   0  0  0  0  0  0  0  0  0  0  0  0
  1  5  1  0
  5  6  1  0
  5  7  2  0
  1  2  1  0
  1  3  1  0
  1  4  1  0
  8 12  1  0
 12 15  1  0
  8  9  1  0
  8 10  1  0
  8 11  1  0
 12 13  1  0
 12 14  1  0
 15 16  1  0
 15 17  1  0
 15 18  1  0
M  CHG  1   6  -1
M  END
>  <PDB_ID>  (1941) 
pdb5tea

>  <RESIDUE_NAME>  (1941) 
ASP   GLN

>  <FRAG_NAME>  (1941) 
ACET   PRPA

>  <FRAG_ATOM_NUM>  (1941) 
fragi: 7  fragj: 11

>  <atom.prop.CHAIN_ID>  (1941) 
A A A A A A A Z Z Z Z Z Z Z Z Z Z Z

>  <atom.prop.IS_HEAVY_ATOM>  (1941) 
1 0 0 0 1 1 1 1 0 0 0 1 0 0 1 0 0 0

>  <DIFUSE_FUNC_ATOM>  (1941) 
atom 6   atom 7   

>  <FINAL_SINGLE_POINT_ENERGY>  (1941) 
0

>  <NONCOV_INTER_ENERGY_QM>  (1941) 
0

>  <FF_Energy>  (1941) 
36.73

>  <QM_Energy>  (1941) 
2.46

>  <source>  (1941) 
ACET_PRPA_26

>  <Index>  (1941) 
35107

$$$$
ACET-pdb5ts9-C-ASP-54:PRPA-pdb5ts9-C-ARG-57
     RDKit          3D

 18 16  0  0  0  0  0  0  0  0999 V2000
    0.0646    1.5206    0.0046 C   0  0  0  0  0  0  0  0  0  0  0  0
    0.7143    1.8132   -0.6946 H   0  0  0  0  0  0  0  0  0  0  0  0
    0.3768    1.8232    0.9027 H   0  0  0  0  0  0  0  0  0  0  0  0
   -0.8897    2.0057   -0.2006 H   0  0  0  0  0  0  0  0  0  0  0  0
    0.0000    0.0000    0.0000 C   0  0  0  0  0  0  0  0  0  0  0  0
   -1.0955   -0.5925    0.0000 O   0  0  0  0  0  1  0  0  0  0  0  0
    1.0955   -0.6078   -0.0000 O   0  0  0  0  0  0  0  0  0  0  0  0
   -0.8490   -1.2379    3.9684 C   0  0  0  0  0  0  0  0  0  0  0  0
   -0.6379   -2.1413    4.3667 H   0  0  0  0  0  0  0  0  0  0  0  0
   -1.6028   -1.3668    3.1917 H   0  0  0  0  0  0  0  0  0  0  0  0
   -1.2022   -0.5800    4.7625 H   0  0  0  0  0  0  0  0  0  0  0  0
    0.4609   -0.6982    3.3770 C   0  0  0  0  0  0  0  0  0  0  0  0
    0.2697    0.1915    2.9622 H   0  0  0  0  0  0  0  0  0  0  0  0
    1.1132   -0.5807    4.1266 H   0  0  0  0  0  0  0  0  0  0  0  0
    1.1115   -1.5801    2.3207 C   0  0  0  0  0  0  0  0  0  0  0  0
    1.3158   -2.4729    2.7250 H   0  0  0  0  0  0  0  0  0  0  0  0
    0.4723   -1.6998    1.5600 H   0  0  0  0  0  0  0  0  0  0  0  0
    2.0353   -1.1426    1.9420 H   0  0  0  0  0  0  0  0  0  0  0  0
  1  5  1  0
  5  6  1  0
  5  7  2  0
  1  2  1  0
  1  3  1  0
  1  4  1  0
  8 12  1  0
 12 15  1  0
  8  9  1  0
  8 10  1  0
  8 11  1  0
 12 13  1  0
 12 14  1  0
 15 16  1  0
 15 17  1  0
 15 18  1  0
M  CHG  1   6  -1
M  END
>  <PDB_ID>  (1942) 
pdb5ts9

>  <RESIDUE_NAME>  (1942) 
ASP   ARG

>  <FRAG_NAME>  (1942) 
ACET   PRPA

>  <FRAG_ATOM_NUM>  (1942) 
fragi: 7  fragj: 11

>  <atom.prop.CHAIN_ID>  (1942) 
A A A A A A A Z Z Z Z Z Z Z Z Z Z Z

>  <atom.prop.IS_HEAVY_ATOM>  (1942) 
1 0 0 0 1 1 1 1 0 0 0 1 0 0 1 0 0 0

>  <DIFUSE_FUNC_ATOM>  (1942) 
atom 6   atom 7   

>  <FINAL_SINGLE_POINT_ENERGY>  (1942) 
0

>  <NONCOV_INTER_ENERGY_QM>  (1942) 
0

>  <FF_Energy>  (1942) 
20.36

>  <QM_Energy>  (1942) 
3.99

>  <source>  (1942) 
ACET_PRPA_26

>  <Index>  (1942) 
35282

$$$$
ACET-pdb5u8v-A-GLU-40:PRPA-pdb5u8v-A-LYS-100
     RDKit          3D

 18 16  0  0  0  0  0  0  0  0999 V2000
    0.1746    1.4849    0.0125 C   0  0  0  0  0  0  0  0  0  0  0  0
    0.6937    1.7392   -0.8050 H   0  0  0  0  0  0  0  0  0  0  0  0
    0.7046    1.7232    0.8276 H   0  0  0  0  0  0  0  0  0  0  0  0
   -0.7362    2.0834    0.0242 H   0  0  0  0  0  0  0  0  0  0  0  0
    0.0000    0.0000    0.0000 C   0  0  0  0  0  0  0  0  0  0  0  0
   -1.0891   -0.5585    0.0000 O   0  0  0  0  0  1  0  0  0  0  0  0
    1.0891   -0.6077   -0.0000 O   0  0  0  0  0  0  0  0  0  0  0  0
    4.3810   -1.3033    3.0235 C   0  0  0  0  0  0  0  0  0  0  0  0
    4.4812   -0.3489    2.8828 H   0  0  0  0  0  0  0  0  0  0  0  0
    5.1947   -1.7620    2.7625 H   0  0  0  0  0  0  0  0  0  0  0  0
    4.1966   -1.4870    4.0820 H   0  0  0  0  0  0  0  0  0  0  0  0
    3.2559   -1.7951    2.1203 C   0  0  0  0  0  0  0  0  0  0  0  0
    3.2500   -2.7646    2.1224 H   0  0  0  0  0  0  0  0  0  0  0  0
    2.4114   -1.4566    2.4558 H   0  0  0  0  0  0  0  0  0  0  0  0
    3.4112   -1.3270    0.6754 C   0  0  0  0  0  0  0  0  0  0  0  0
    2.6056   -1.5463    0.1817 H   0  0  0  0  0  0  0  0  0  0  0  0
    3.5593   -0.3690    0.6646 H   0  0  0  0  0  0  0  0  0  0  0  0
    4.2549   -1.8066    0.1791 H   0  0  0  0  0  0  0  0  0  0  0  0
  1  5  1  0
  5  6  1  0
  5  7  2  0
  1  2  1  0
  1  3  1  0
  1  4  1  0
  8 12  1  0
 12 15  1  0
  8  9  1  0
  8 10  1  0
  8 11  1  0
 12 13  1  0
 12 14  1  0
 15 16  1  0
 15 17  1  0
 15 18  1  0
M  CHG  1   6  -1
M  END
>  <PDB_ID>  (1943) 
pdb5u8v

>  <RESIDUE_NAME>  (1943) 
GLU   LYS

>  <FRAG_NAME>  (1943) 
ACET   PRPA

>  <FRAG_ATOM_NUM>  (1943) 
fragi: 7  fragj: 11

>  <atom.prop.CHAIN_ID>  (1943) 
A A A A A A A Z Z Z Z Z Z Z Z Z Z Z

>  <atom.prop.IS_HEAVY_ATOM>  (1943) 
1 0 0 0 1 1 1 1 0 0 0 1 0 0 1 0 0 0

>  <DIFUSE_FUNC_ATOM>  (1943) 
atom 6   atom 7   

>  <FINAL_SINGLE_POINT_ENERGY>  (1943) 
0

>  <NONCOV_INTER_ENERGY_QM>  (1943) 
0

>  <FF_Energy>  (1943) 
35.81

>  <QM_Energy>  (1943) 
3.4

>  <source>  (1943) 
ACET_PRPA_26

>  <Index>  (1943) 
36349

$$$$
ACET-pdb5tz1-B-ASP-278:PRPA-pdb5tz1-B-ARG-274
     RDKit          3D

 18 16  0  0  0  0  0  0  0  0999 V2000
    0.0065    1.5118    0.0799 C   0  0  0  0  0  0  0  0  0  0  0  0
    0.8999    1.8439   -0.2015 H   0  0  0  0  0  0  0  0  0  0  0  0
   -0.1870    1.7845    1.0151 H   0  0  0  0  0  0  0  0  0  0  0  0
   -0.7416    1.9705   -0.5666 H   0  0  0  0  0  0  0  0  0  0  0  0
    0.0000    0.0000    0.0000 C   0  0  0  0  0  0  0  0  0  0  0  0
   -1.0983   -0.5943   -0.0000 O   0  0  0  0  0  1  0  0  0  0  0  0
    1.0983   -0.5957   -0.0000 O   0  0  0  0  0  0  0  0  0  0  0  0
    3.4351   -2.1023    0.8707 C   0  0  0  0  0  0  0  0  0  0  0  0
    3.0964   -2.0142   -0.0738 H   0  0  0  0  0  0  0  0  0  0  0  0
    4.0318   -2.9115    0.9180 H   0  0  0  0  0  0  0  0  0  0  0  0
    4.0388   -1.2234    1.0966 H   0  0  0  0  0  0  0  0  0  0  0  0
    2.2376   -2.3548    1.7720 C   0  0  0  0  0  0  0  0  0  0  0  0
    2.4927   -2.9503    2.5007 H   0  0  0  0  0  0  0  0  0  0  0  0
    1.8651   -1.5049    2.0719 H   0  0  0  0  0  0  0  0  0  0  0  0
    1.2045   -3.0580    0.9104 C   0  0  0  0  0  0  0  0  0  0  0  0
    0.5874   -2.3616    0.5363 H   0  0  0  0  0  0  0  0  0  0  0  0
    1.6871   -3.5069    0.1538 H   0  0  0  0  0  0  0  0  0  0  0  0
    0.6190   -3.8007    1.4526 H   0  0  0  0  0  0  0  0  0  0  0  0
  1  5  1  0
  5  6  1  0
  5  7  2  0
  1  2  1  0
  1  3  1  0
  1  4  1  0
  8 12  1  0
 12 15  1  0
  8  9  1  0
  8 10  1  0
  8 11  1  0
 12 13  1  0
 12 14  1  0
 15 16  1  0
 15 17  1  0
 15 18  1  0
M  CHG  1   6  -1
M  END
>  <PDB_ID>  (1944) 
pdb5tz1

>  <RESIDUE_NAME>  (1944) 
ASP   ARG

>  <FRAG_NAME>  (1944) 
ACET   PRPA

>  <FRAG_ATOM_NUM>  (1944) 
fragi: 7  fragj: 11

>  <atom.prop.CHAIN_ID>  (1944) 
A A A A A A A Z Z Z Z Z Z Z Z Z Z Z

>  <atom.prop.IS_HEAVY_ATOM>  (1944) 
1 0 0 0 1 1 1 1 0 0 0 1 0 0 1 0 0 0

>  <DIFUSE_FUNC_ATOM>  (1944) 
atom 6   atom 7   

>  <FINAL_SINGLE_POINT_ENERGY>  (1944) 
0

>  <NONCOV_INTER_ENERGY_QM>  (1944) 
0

>  <FF_Energy>  (1944) 
23.12

>  <QM_Energy>  (1944) 
0.59

>  <source>  (1944) 
ACET_PRPA_26

>  <Index>  (1944) 
37761

$$$$
ACET-pdb5ts9-G-ASP-54:PRPA-pdb5ts9-G-ARG-57
     RDKit          3D

 18 16  0  0  0  0  0  0  0  0999 V2000
    0.0294    1.5303    0.0199 C   0  0  0  0  0  0  0  0  0  0  0  0
    0.8247    1.8360   -0.4908 H   0  0  0  0  0  0  0  0  0  0  0  0
    0.0857    1.8317    0.9642 H   0  0  0  0  0  0  0  0  0  0  0  0
   -0.8554    1.9822   -0.4285 H   0  0  0  0  0  0  0  0  0  0  0  0
    0.0000    0.0000    0.0000 C   0  0  0  0  0  0  0  0  0  0  0  0
   -1.0969   -0.6076   -0.0000 O   0  0  0  0  0  1  0  0  0  0  0  0
    1.0969   -0.5988   -0.0000 O   0  0  0  0  0  0  0  0  0  0  0  0
   -0.0419   -0.2500    3.4661 C   0  0  0  0  0  0  0  0  0  0  0  0
   -0.1669    0.5635    2.8902 H   0  0  0  0  0  0  0  0  0  0  0  0
    0.5300   -0.0035    4.2538 H   0  0  0  0  0  0  0  0  0  0  0  0
   -1.0194   -0.5565    3.8385 H   0  0  0  0  0  0  0  0  0  0  0  0
    0.7160   -1.2874    2.6476 C   0  0  0  0  0  0  0  0  0  0  0  0
    0.8580   -2.1030    3.2131 H   0  0  0  0  0  0  0  0  0  0  0  0
    0.1623   -1.5352    1.8496 H   0  0  0  0  0  0  0  0  0  0  0  0
    2.0327   -0.7809    2.1847 C   0  0  0  0  0  0  0  0  0  0  0  0
    1.8866    0.0331    1.6191 H   0  0  0  0  0  0  0  0  0  0  0  0
    2.5831   -0.5335    2.9844 H   0  0  0  0  0  0  0  0  0  0  0  0
    2.5760   -1.5222    1.5986 H   0  0  0  0  0  0  0  0  0  0  0  0
  1  5  1  0
  5  6  1  0
  5  7  2  0
  1  2  1  0
  1  3  1  0
  1  4  1  0
  8 12  1  0
 12 15  1  0
  8  9  1  0
  8 10  1  0
  8 11  1  0
 12 13  1  0
 12 14  1  0
 15 16  1  0
 15 17  1  0
 15 18  1  0
M  CHG  1   6  -1
M  END
>  <PDB_ID>  (1945) 
pdb5ts9

>  <RESIDUE_NAME>  (1945) 
ASP   ARG

>  <FRAG_NAME>  (1945) 
ACET   PRPA

>  <FRAG_ATOM_NUM>  (1945) 
fragi: 7  fragj: 11

>  <atom.prop.CHAIN_ID>  (1945) 
A A A A A A A Z Z Z Z Z Z Z Z Z Z Z

>  <atom.prop.IS_HEAVY_ATOM>  (1945) 
1 0 0 0 1 1 1 1 0 0 0 1 0 0 1 0 0 0

>  <DIFUSE_FUNC_ATOM>  (1945) 
atom 6   atom 7   

>  <FINAL_SINGLE_POINT_ENERGY>  (1945) 
0

>  <NONCOV_INTER_ENERGY_QM>  (1945) 
0

>  <FF_Energy>  (1945) 
40.75

>  <QM_Energy>  (1945) 
8.03

>  <source>  (1945) 
ACET_PRPA_26

>  <Index>  (1945) 
38467

$$$$
ACET-pdb5uju-A-GLU-10:PRPA-pdb5uju-A-LYS-14
     RDKit          3D

 18 16  0  0  0  0  0  0  0  0999 V2000
    0.0047    1.5175    0.0209 C   0  0  0  0  0  0  0  0  0  0  0  0
    0.2760    1.8255   -0.8727 H   0  0  0  0  0  0  0  0  0  0  0  0
    0.6359    1.8014    0.7195 H   0  0  0  0  0  0  0  0  0  0  0  0
   -0.9744    1.9397    0.2469 H   0  0  0  0  0  0  0  0  0  0  0  0
    0.0000    0.0000    0.0000 C   0  0  0  0  0  0  0  0  0  0  0  0
   -1.0985   -0.5954    0.0000 O   0  0  0  0  0  1  0  0  0  0  0  0
    1.0985   -0.5945    0.0000 O   0  0  0  0  0  0  0  0  0  0  0  0
    2.6491    3.4718   -2.5069 C   0  0  0  0  0  0  0  0  0  0  0  0
    3.4984    3.1095   -2.1131 H   0  0  0  0  0  0  0  0  0  0  0  0
    1.9929    3.6384   -1.7678 H   0  0  0  0  0  0  0  0  0  0  0  0
    2.8672    4.4160   -3.0058 H   0  0  0  0  0  0  0  0  0  0  0  0
    2.0707    2.4458   -3.4594 C   0  0  0  0  0  0  0  0  0  0  0  0
    1.2242    2.8127   -3.8511 H   0  0  0  0  0  0  0  0  0  0  0  0
    2.7297    2.2825   -4.1965 H   0  0  0  0  0  0  0  0  0  0  0  0
    1.7618    1.1307   -2.7873 C   0  0  0  0  0  0  0  0  0  0  0  0
    2.6039    0.7541   -2.3968 H   0  0  0  0  0  0  0  0  0  0  0  0
    1.0988    1.2837   -2.0520 H   0  0  0  0  0  0  0  0  0  0  0  0
    1.3474    0.4176   -3.5000 H   0  0  0  0  0  0  0  0  0  0  0  0
  1  5  1  0
  5  6  1  0
  5  7  2  0
  1  2  1  0
  1  3  1  0
  1  4  1  0
  8 12  1  0
 12 15  1  0
  8  9  1  0
  8 10  1  0
  8 11  1  0
 12 13  1  0
 12 14  1  0
 15 16  1  0
 15 17  1  0
 15 18  1  0
M  CHG  1   6  -1
M  END
>  <PDB_ID>  (1946) 
pdb5uju

>  <RESIDUE_NAME>  (1946) 
GLU   LYS

>  <FRAG_NAME>  (1946) 
ACET   PRPA

>  <FRAG_ATOM_NUM>  (1946) 
fragi: 7  fragj: 11

>  <atom.prop.CHAIN_ID>  (1946) 
A A A A A A A Z Z Z Z Z Z Z Z Z Z Z

>  <atom.prop.IS_HEAVY_ATOM>  (1946) 
1 0 0 0 1 1 1 1 0 0 0 1 0 0 1 0 0 0

>  <DIFUSE_FUNC_ATOM>  (1946) 
atom 6   atom 7   

>  <FINAL_SINGLE_POINT_ENERGY>  (1946) 
0

>  <NONCOV_INTER_ENERGY_QM>  (1946) 
0

>  <FF_Energy>  (1946) 
20.89

>  <QM_Energy>  (1946) 
2.24

>  <source>  (1946) 
ACET_PRPA_26

>  <Index>  (1946) 
38854

$$$$
ACET-pdb5v1q-A-ASP-139:PRPA-pdb5v1q-A-LYS-135
     RDKit          3D

 18 16  0  0  0  0  0  0  0  0999 V2000
   -0.0006    1.5167   -0.0004 C   0  0  0  0  0  0  0  0  0  0  0  0
    0.8358    1.8360   -0.4301 H   0  0  0  0  0  0  0  0  0  0  0  0
   -0.0547    1.8370    0.9378 H   0  0  0  0  0  0  0  0  0  0  0  0
   -0.8433    1.9364   -0.5499 H   0  0  0  0  0  0  0  0  0  0  0  0
    0.0000    0.0000    0.0000 C   0  0  0  0  0  0  0  0  0  0  0  0
   -1.0972   -0.5960    0.0000 O   0  0  0  0  0  1  0  0  0  0  0  0
    1.0972   -0.5949   -0.0000 O   0  0  0  0  0  0  0  0  0  0  0  0
    5.3594    0.1465   -1.1631 C   0  0  0  0  0  0  0  0  0  0  0  0
    5.3369   -0.8600   -1.1338 H   0  0  0  0  0  0  0  0  0  0  0  0
    6.3899    0.4816   -1.0456 H   0  0  0  0  0  0  0  0  0  0  0  0
    4.9493    0.4746   -2.1182 H   0  0  0  0  0  0  0  0  0  0  0  0
    4.4955    0.6686   -0.0144 C   0  0  0  0  0  0  0  0  0  0  0  0
    5.1004    0.9217    0.7419 H   0  0  0  0  0  0  0  0  0  0  0  0
    4.0108    1.4846   -0.3340 H   0  0  0  0  0  0  0  0  0  0  0  0
    3.4647   -0.3213    0.5118 C   0  0  0  0  0  0  0  0  0  0  0  0
    2.8495   -0.5771   -0.2362 H   0  0  0  0  0  0  0  0  0  0  0  0
    3.9390   -1.1393    0.8417 H   0  0  0  0  0  0  0  0  0  0  0  0
    2.8768    0.1007    1.3269 H   0  0  0  0  0  0  0  0  0  0  0  0
  1  5  1  0
  5  6  1  0
  5  7  2  0
  1  2  1  0
  1  3  1  0
  1  4  1  0
  8 12  1  0
 12 15  1  0
  8  9  1  0
  8 10  1  0
  8 11  1  0
 12 13  1  0
 12 14  1  0
 15 16  1  0
 15 17  1  0
 15 18  1  0
M  CHG  1   6  -1
M  END
>  <PDB_ID>  (1947) 
pdb5v1q

>  <RESIDUE_NAME>  (1947) 
ASP   LYS

>  <FRAG_NAME>  (1947) 
ACET   PRPA

>  <FRAG_ATOM_NUM>  (1947) 
fragi: 7  fragj: 11

>  <atom.prop.CHAIN_ID>  (1947) 
A A A A A A A Z Z Z Z Z Z Z Z Z Z Z

>  <atom.prop.IS_HEAVY_ATOM>  (1947) 
1 0 0 0 1 1 1 1 0 0 0 1 0 0 1 0 0 0

>  <DIFUSE_FUNC_ATOM>  (1947) 
atom 6   atom 7   

>  <FINAL_SINGLE_POINT_ENERGY>  (1947) 
0

>  <NONCOV_INTER_ENERGY_QM>  (1947) 
0

>  <FF_Energy>  (1947) 
46.51

>  <QM_Energy>  (1947) 
10.35

>  <source>  (1947) 
ACET_PRPA_27

>  <Index>  (1947) 
2516

$$$$
ACET-pdb5v8d-A-ASP-235:PRPA-pdb5v8d-A-LYS-271
     RDKit          3D

 18 16  0  0  0  0  0  0  0  0999 V2000
   -0.0163    1.5209   -0.0431 C   0  0  0  0  0  0  0  0  0  0  0  0
    0.8040    1.8343   -0.4981 H   0  0  0  0  0  0  0  0  0  0  0  0
   -0.0679    1.8647    0.8821 H   0  0  0  0  0  0  0  0  0  0  0  0
   -0.8759    1.9012   -0.5948 H   0  0  0  0  0  0  0  0  0  0  0  0
    0.0000    0.0000    0.0000 C   0  0  0  0  0  0  0  0  0  0  0  0
   -1.0845   -0.6056   -0.0000 O   0  0  0  0  0  1  0  0  0  0  0  0
    1.0845   -0.5909    0.0000 O   0  0  0  0  0  0  0  0  0  0  0  0
   -3.7498    2.3864    2.1384 C   0  0  0  0  0  0  0  0  0  0  0  0
   -3.0319    2.8616    1.6253 H   0  0  0  0  0  0  0  0  0  0  0  0
   -3.4898    2.3427    3.1044 H   0  0  0  0  0  0  0  0  0  0  0  0
   -4.6799    2.9471    2.0464 H   0  0  0  0  0  0  0  0  0  0  0  0
   -3.8877    0.9751    1.5998 C   0  0  0  0  0  0  0  0  0  0  0  0
   -4.6075    0.5047    2.1141 H   0  0  0  0  0  0  0  0  0  0  0  0
   -4.1488    1.0232    0.6349 H   0  0  0  0  0  0  0  0  0  0  0  0
   -2.6096    0.1782    1.7173 C   0  0  0  0  0  0  0  0  0  0  0  0
   -1.8869    0.6391    1.2021 H   0  0  0  0  0  0  0  0  0  0  0  0
   -2.3453    0.1213    2.6806 H   0  0  0  0  0  0  0  0  0  0  0  0
   -2.7445   -0.8290    1.3228 H   0  0  0  0  0  0  0  0  0  0  0  0
  1  5  1  0
  5  6  1  0
  5  7  2  0
  1  2  1  0
  1  3  1  0
  1  4  1  0
  8 12  1  0
 12 15  1  0
  8  9  1  0
  8 10  1  0
  8 11  1  0
 12 13  1  0
 12 14  1  0
 15 16  1  0
 15 17  1  0
 15 18  1  0
M  CHG  1   6  -1
M  END
>  <PDB_ID>  (1948) 
pdb5v8d

>  <RESIDUE_NAME>  (1948) 
ASP   LYS

>  <FRAG_NAME>  (1948) 
ACET   PRPA

>  <FRAG_ATOM_NUM>  (1948) 
fragi: 7  fragj: 11

>  <atom.prop.CHAIN_ID>  (1948) 
A A A A A A A Z Z Z Z Z Z Z Z Z Z Z

>  <atom.prop.IS_HEAVY_ATOM>  (1948) 
1 0 0 0 1 1 1 1 0 0 0 1 0 0 1 0 0 0

>  <DIFUSE_FUNC_ATOM>  (1948) 
atom 6   atom 7   

>  <FINAL_SINGLE_POINT_ENERGY>  (1948) 
0

>  <NONCOV_INTER_ENERGY_QM>  (1948) 
0

>  <FF_Energy>  (1948) 
34.41

>  <QM_Energy>  (1948) 
11.63

>  <source>  (1948) 
ACET_PRPA_27

>  <Index>  (1948) 
3752

$$$$
ACET-pdb5tw7-D-GLU-94:PRPA-pdb5tw7-D-LYS-139
     RDKit          3D

 18 16  0  0  0  0  0  0  0  0999 V2000
    0.0182    1.5199    0.0016 C   0  0  0  0  0  0  0  0  0  0  0  0
    0.5684    1.8120   -0.7645 H   0  0  0  0  0  0  0  0  0  0  0  0
    0.4069    1.8120    0.8607 H   0  0  0  0  0  0  0  0  0  0  0  0
   -0.9665    1.9771   -0.0969 H   0  0  0  0  0  0  0  0  0  0  0  0
    0.0000    0.0000    0.0000 C   0  0  0  0  0  0  0  0  0  0  0  0
   -1.0976   -0.5971   -0.0000 O   0  0  0  0  0  1  0  0  0  0  0  0
    1.0976   -0.5993   -0.0000 O   0  0  0  0  0  0  0  0  0  0  0  0
   -3.1336    0.0341    2.8385 C   0  0  0  0  0  0  0  0  0  0  0  0
   -3.7375   -0.4496    3.4716 H   0  0  0  0  0  0  0  0  0  0  0  0
   -3.6139    0.2024    1.9793 H   0  0  0  0  0  0  0  0  0  0  0  0
   -2.8465    0.9884    3.2802 H   0  0  0  0  0  0  0  0  0  0  0  0
   -1.9162   -0.8333    2.5593 C   0  0  0  0  0  0  0  0  0  0  0  0
   -1.3131   -0.3457    1.9295 H   0  0  0  0  0  0  0  0  0  0  0  0
   -1.4361   -0.9994    3.4209 H   0  0  0  0  0  0  0  0  0  0  0  0
   -2.2842   -2.1671    1.9456 C   0  0  0  0  0  0  0  0  0  0  0  0
   -2.8852   -2.6611    2.5731 H   0  0  0  0  0  0  0  0  0  0  0  0
   -2.7619   -2.0082    1.0812 H   0  0  0  0  0  0  0  0  0  0  0  0
   -1.3907   -2.7627    1.7582 H   0  0  0  0  0  0  0  0  0  0  0  0
  1  5  1  0
  5  6  1  0
  5  7  2  0
  1  2  1  0
  1  3  1  0
  1  4  1  0
  8 12  1  0
 12 15  1  0
  8  9  1  0
  8 10  1  0
  8 11  1  0
 12 13  1  0
 12 14  1  0
 15 16  1  0
 15 17  1  0
 15 18  1  0
M  CHG  1   6  -1
M  END
>  <PDB_ID>  (1949) 
pdb5tw7

>  <RESIDUE_NAME>  (1949) 
GLU   LYS

>  <FRAG_NAME>  (1949) 
ACET   PRPA

>  <FRAG_ATOM_NUM>  (1949) 
fragi: 7  fragj: 11

>  <atom.prop.CHAIN_ID>  (1949) 
A A A A A A A Z Z Z Z Z Z Z Z Z Z Z

>  <atom.prop.IS_HEAVY_ATOM>  (1949) 
1 0 0 0 1 1 1 1 0 0 0 1 0 0 1 0 0 0

>  <DIFUSE_FUNC_ATOM>  (1949) 
atom 6   atom 7   

>  <FINAL_SINGLE_POINT_ENERGY>  (1949) 
0

>  <NONCOV_INTER_ENERGY_QM>  (1949) 
0

>  <FF_Energy>  (1949) 
18.83

>  <QM_Energy>  (1949) 
0.89

>  <source>  (1949) 
ACET_PRPA_27

>  <Index>  (1949) 
4291

$$$$
ACET-pdb5vm8-A-ASP-17:PRPA-pdb5vm8-A-GLU-60
     RDKit          3D

 18 16  0  0  0  0  0  0  0  0999 V2000
    0.0356    1.5156   -0.0183 C   0  0  0  0  0  0  0  0  0  0  0  0
    0.5265    1.8145   -0.8354 H   0  0  0  0  0  0  0  0  0  0  0  0
    0.5162    1.8356    0.7966 H   0  0  0  0  0  0  0  0  0  0  0  0
   -0.9486    1.9839   -0.0310 H   0  0  0  0  0  0  0  0  0  0  0  0
    0.0000    0.0000    0.0000 C   0  0  0  0  0  0  0  0  0  0  0  0
   -1.0955   -0.6012   -0.0000 O   0  0  0  0  0  1  0  0  0  0  0  0
    1.0955   -0.5846    0.0000 O   0  0  0  0  0  0  0  0  0  0  0  0
   -3.5687    0.6771    3.2944 C   0  0  0  0  0  0  0  0  0  0  0  0
   -3.2891    1.1116    2.4369 H   0  0  0  0  0  0  0  0  0  0  0  0
   -2.9692    1.0658    4.1177 H   0  0  0  0  0  0  0  0  0  0  0  0
   -4.6228    0.8830    3.4803 H   0  0  0  0  0  0  0  0  0  0  0  0
   -3.3848   -0.8643    3.0964 C   0  0  0  0  0  0  0  0  0  0  0  0
   -3.0209   -1.2236    3.9407 H   0  0  0  0  0  0  0  0  0  0  0  0
   -4.2756   -1.2402    2.8959 H   0  0  0  0  0  0  0  0  0  0  0  0
   -2.4317   -1.2982    1.9592 C   0  0  0  0  0  0  0  0  0  0  0  0
   -2.5302   -0.6581    1.2212 H   0  0  0  0  0  0  0  0  0  0  0  0
   -1.5180   -1.3191    2.3191 H   0  0  0  0  0  0  0  0  0  0  0  0
   -2.6465   -2.2896    1.5604 H   0  0  0  0  0  0  0  0  0  0  0  0
  1  5  1  0
  5  6  1  0
  5  7  2  0
  1  2  1  0
  1  3  1  0
  1  4  1  0
  8 12  1  0
 12 15  1  0
  8  9  1  0
  8 10  1  0
  8 11  1  0
 12 13  1  0
 12 14  1  0
 15 16  1  0
 15 17  1  0
 15 18  1  0
M  CHG  1   6  -1
M  END
>  <PDB_ID>  (1950) 
pdb5vm8

>  <RESIDUE_NAME>  (1950) 
ASP   GLU

>  <FRAG_NAME>  (1950) 
ACET   PRPA

>  <FRAG_ATOM_NUM>  (1950) 
fragi: 7  fragj: 11

>  <atom.prop.CHAIN_ID>  (1950) 
A A A A A A A Z Z Z Z Z Z Z Z Z Z Z

>  <atom.prop.IS_HEAVY_ATOM>  (1950) 
1 0 0 0 1 1 1 1 0 0 0 1 0 0 1 0 0 0

>  <DIFUSE_FUNC_ATOM>  (1950) 
atom 6   atom 7   

>  <FINAL_SINGLE_POINT_ENERGY>  (1950) 
0

>  <NONCOV_INTER_ENERGY_QM>  (1950) 
0

>  <FF_Energy>  (1950) 
25.9

>  <QM_Energy>  (1950) 
5.82

>  <source>  (1950) 
ACET_PRPA_27

>  <Index>  (1950) 
4296

$$$$
ACET-pdb5vqi-B-GLU-173:PRPA-pdb5vqi-B-ILE-170
     RDKit          3D

 18 16  0  0  0  0  0  0  0  0999 V2000
    0.1736    1.4861    0.0147 C   0  0  0  0  0  0  0  0  0  0  0  0
    0.6918    1.7431   -0.8019 H   0  0  0  0  0  0  0  0  0  0  0  0
    0.7039    1.7239    0.8307 H   0  0  0  0  0  0  0  0  0  0  0  0
   -0.7369    2.0852    0.0269 H   0  0  0  0  0  0  0  0  0  0  0  0
    0.0000    0.0000    0.0000 C   0  0  0  0  0  0  0  0  0  0  0  0
   -1.0896   -0.5564    0.0000 O   0  0  0  0  0  1  0  0  0  0  0  0
    1.0896   -0.6067    0.0000 O   0  0  0  0  0  0  0  0  0  0  0  0
    3.1338    1.2148   -0.0451 C   0  0  0  0  0  0  0  0  0  0  0  0
    2.1914    0.8819    0.0585 H   0  0  0  0  0  0  0  0  0  0  0  0
    3.5203    0.7674   -0.9608 H   0  0  0  0  0  0  0  0  0  0  0  0
    3.0721    2.2988   -0.1417 H   0  0  0  0  0  0  0  0  0  0  0  0
    3.9837    0.8537    1.1476 C   0  0  0  0  0  0  0  0  0  0  0  0
    4.8630    1.2979    1.0572 H   0  0  0  0  0  0  0  0  0  0  0  0
    3.4993    1.1894    2.0646 H   0  0  0  0  0  0  0  0  0  0  0  0
    4.2130   -0.6471    1.1280 C   0  0  0  0  0  0  0  0  0  0  0  0
    3.3179   -1.1004    1.0801 H   0  0  0  0  0  0  0  0  0  0  0  0
    4.7155   -0.8730    0.2867 H   0  0  0  0  0  0  0  0  0  0  0  0
    4.7663   -1.0247    1.9879 H   0  0  0  0  0  0  0  0  0  0  0  0
  1  5  1  0
  5  6  1  0
  5  7  2  0
  1  2  1  0
  1  3  1  0
  1  4  1  0
  8 12  1  0
 12 15  1  0
  8  9  1  0
  8 10  1  0
  8 11  1  0
 12 13  1  0
 12 14  1  0
 15 16  1  0
 15 17  1  0
 15 18  1  0
M  CHG  1   6  -1
M  END
>  <PDB_ID>  (1951) 
pdb5vqi

>  <RESIDUE_NAME>  (1951) 
GLU   ILE

>  <FRAG_NAME>  (1951) 
ACET   PRPA

>  <FRAG_ATOM_NUM>  (1951) 
fragi: 7  fragj: 11

>  <atom.prop.CHAIN_ID>  (1951) 
A A A A A A A Z Z Z Z Z Z Z Z Z Z Z

>  <atom.prop.IS_HEAVY_ATOM>  (1951) 
1 0 0 0 1 1 1 1 0 0 0 1 0 0 1 0 0 0

>  <DIFUSE_FUNC_ATOM>  (1951) 
atom 6   atom 7   

>  <FINAL_SINGLE_POINT_ENERGY>  (1951) 
0

>  <NONCOV_INTER_ENERGY_QM>  (1951) 
0

>  <FF_Energy>  (1951) 
39.38

>  <QM_Energy>  (1951) 
5.55

>  <source>  (1951) 
ACET_PRPA_27

>  <Index>  (1951) 
5097

$$$$
ACET-pdb5vqi-B-GLU-173:PRPA-pdb5vqi-B-ILE-170
     RDKit          3D

 18 16  0  0  0  0  0  0  0  0999 V2000
    0.1736    1.4861    0.0147 C   0  0  0  0  0  0  0  0  0  0  0  0
    0.6918    1.7431   -0.8019 H   0  0  0  0  0  0  0  0  0  0  0  0
    0.7039    1.7239    0.8307 H   0  0  0  0  0  0  0  0  0  0  0  0
   -0.7369    2.0852    0.0269 H   0  0  0  0  0  0  0  0  0  0  0  0
    0.0000    0.0000    0.0000 C   0  0  0  0  0  0  0  0  0  0  0  0
   -1.0896   -0.5564    0.0000 O   0  0  0  0  0  1  0  0  0  0  0  0
    1.0896   -0.6067    0.0000 O   0  0  0  0  0  0  0  0  0  0  0  0
    3.1338    1.2148   -0.0451 C   0  0  0  0  0  0  0  0  0  0  0  0
    2.1914    0.8819    0.0585 H   0  0  0  0  0  0  0  0  0  0  0  0
    3.5203    0.7674   -0.9608 H   0  0  0  0  0  0  0  0  0  0  0  0
    3.0721    2.2988   -0.1417 H   0  0  0  0  0  0  0  0  0  0  0  0
    3.9837    0.8537    1.1476 C   0  0  0  0  0  0  0  0  0  0  0  0
    4.8630    1.2979    1.0572 H   0  0  0  0  0  0  0  0  0  0  0  0
    4.1484   -0.2237    1.1335 H   0  0  0  0  0  0  0  0  0  0  0  0
    3.3056    1.3236    2.4311 C   0  0  0  0  0  0  0  0  0  0  0  0
    3.8785    1.0889    3.2144 H   0  0  0  0  0  0  0  0  0  0  0  0
    3.1773    2.3129    2.3952 H   0  0  0  0  0  0  0  0  0  0  0  0
    2.4186    0.8753    2.5204 H   0  0  0  0  0  0  0  0  0  0  0  0
  1  5  1  0
  5  6  1  0
  5  7  2  0
  1  2  1  0
  1  3  1  0
  1  4  1  0
  8 12  1  0
 12 15  1  0
  8  9  1  0
  8 10  1  0
  8 11  1  0
 12 13  1  0
 12 14  1  0
 15 16  1  0
 15 17  1  0
 15 18  1  0
M  CHG  1   6  -1
M  END
>  <PDB_ID>  (1952) 
pdb5vqi

>  <RESIDUE_NAME>  (1952) 
GLU   ILE

>  <FRAG_NAME>  (1952) 
ACET   PRPA

>  <FRAG_ATOM_NUM>  (1952) 
fragi: 7  fragj: 11

>  <atom.prop.CHAIN_ID>  (1952) 
A A A A A A A Z Z Z Z Z Z Z Z Z Z Z

>  <atom.prop.IS_HEAVY_ATOM>  (1952) 
1 0 0 0 1 1 1 1 0 0 0 1 0 0 1 0 0 0

>  <DIFUSE_FUNC_ATOM>  (1952) 
atom 6   atom 7   

>  <FINAL_SINGLE_POINT_ENERGY>  (1952) 
0

>  <NONCOV_INTER_ENERGY_QM>  (1952) 
0

>  <FF_Energy>  (1952) 
38.93

>  <QM_Energy>  (1952) 
6.2

>  <source>  (1952) 
ACET_PRPA_27

>  <Index>  (1952) 
5101

$$$$
ACET-pdb5vbn-E-GLU-388:PRPA-pdb5vbn-E-LYS-343
     RDKit          3D

 18 16  0  0  0  0  0  0  0  0999 V2000
   -0.0160    1.5359    0.0080 C   0  0  0  0  0  0  0  0  0  0  0  0
    0.2565    1.8204    0.9077 H   0  0  0  0  0  0  0  0  0  0  0  0
   -0.9315    1.8134   -0.2129 H   0  0  0  0  0  0  0  0  0  0  0  0
    0.6694    1.9689   -0.7205 H   0  0  0  0  0  0  0  0  0  0  0  0
    0.0000    0.0000    0.0000 C   0  0  0  0  0  0  0  0  0  0  0  0
   -1.1056   -0.5979    0.0000 O   0  0  0  0  0  1  0  0  0  0  0  0
    1.1056   -0.6011    0.0000 O   0  0  0  0  0  0  0  0  0  0  0  0
    1.4073   -1.6597    2.8008 C   0  0  0  0  0  0  0  0  0  0  0  0
    0.8111   -0.8879    3.0334 H   0  0  0  0  0  0  0  0  0  0  0  0
    1.9413   -1.4274    1.9860 H   0  0  0  0  0  0  0  0  0  0  0  0
    2.0819   -1.8610    3.6330 H   0  0  0  0  0  0  0  0  0  0  0  0
    0.5213   -2.8696    2.4674 C   0  0  0  0  0  0  0  0  0  0  0  0
    0.9379   -3.3748    1.7290 H   0  0  0  0  0  0  0  0  0  0  0  0
    0.4202   -3.4234    3.2770 H   0  0  0  0  0  0  0  0  0  0  0  0
   -0.8690   -2.4023    2.0181 C   0  0  0  0  0  0  0  0  0  0  0  0
   -1.2268   -1.7482    2.7067 H   0  0  0  0  0  0  0  0  0  0  0  0
   -0.7715   -1.8915    1.1461 H   0  0  0  0  0  0  0  0  0  0  0  0
   -1.6017   -3.1969    1.8772 H   0  0  0  0  0  0  0  0  0  0  0  0
  1  5  1  0
  5  6  1  0
  5  7  2  0
  1  2  1  0
  1  3  1  0
  1  4  1  0
  8 12  1  0
 12 15  1  0
  8  9  1  0
  8 10  1  0
  8 11  1  0
 12 13  1  0
 12 14  1  0
 15 16  1  0
 15 17  1  0
 15 18  1  0
M  CHG  1   6  -1
M  END
>  <PDB_ID>  (1953) 
pdb5vbn

>  <RESIDUE_NAME>  (1953) 
GLU   LYS

>  <FRAG_NAME>  (1953) 
ACET   PRPA

>  <FRAG_ATOM_NUM>  (1953) 
fragi: 7  fragj: 11

>  <atom.prop.CHAIN_ID>  (1953) 
A A A A A A A Z Z Z Z Z Z Z Z Z Z Z

>  <atom.prop.IS_HEAVY_ATOM>  (1953) 
1 0 0 0 1 1 1 1 0 0 0 1 0 0 1 0 0 0

>  <DIFUSE_FUNC_ATOM>  (1953) 
atom 6   atom 7   

>  <FINAL_SINGLE_POINT_ENERGY>  (1953) 
0

>  <NONCOV_INTER_ENERGY_QM>  (1953) 
0

>  <FF_Energy>  (1953) 
41.13

>  <QM_Energy>  (1953) 
1.3

>  <source>  (1953) 
ACET_PRPA_27

>  <Index>  (1953) 
6451

$$$$
ACET-pdb5w16-A-GLU-170:PRPA-pdb5w16-A-ARG-109
     RDKit          3D

 18 16  0  0  0  0  0  0  0  0999 V2000
    0.0130    1.5078    0.1069 C   0  0  0  0  0  0  0  0  0  0  0  0
   -0.5778    1.8666   -0.5750 H   0  0  0  0  0  0  0  0  0  0  0  0
    0.9203    1.8154   -0.0388 H   0  0  0  0  0  0  0  0  0  0  0  0
   -0.3276    1.8374    1.0885 H   0  0  0  0  0  0  0  0  0  0  0  0
    0.0000    0.0000    0.0000 C   0  0  0  0  0  0  0  0  0  0  0  0
   -1.1028   -0.5916   -0.0000 O   0  0  0  0  0  1  0  0  0  0  0  0
    1.1028   -0.5926   -0.0000 O   0  0  0  0  0  0  0  0  0  0  0  0
    2.6240   -2.8102    1.5452 C   0  0  0  0  0  0  0  0  0  0  0  0
    2.8745   -3.7033    1.8304 H   0  0  0  0  0  0  0  0  0  0  0  0
    1.6073   -2.6041    1.8800 H   0  0  0  0  0  0  0  0  0  0  0  0
    3.3428   -2.1092    1.9694 H   0  0  0  0  0  0  0  0  0  0  0  0
    2.6972   -2.7642    0.0161 C   0  0  0  0  0  0  0  0  0  0  0  0
    2.4304   -1.8441   -0.2799 H   0  0  0  0  0  0  0  0  0  0  0  0
    3.6478   -2.9312   -0.2551 H   0  0  0  0  0  0  0  0  0  0  0  0
    1.8178   -3.7662   -0.7194 C   0  0  0  0  0  0  0  0  0  0  0  0
    2.0789   -4.6921   -0.4400 H   0  0  0  0  0  0  0  0  0  0  0  0
    0.8625   -3.6038   -0.4656 H   0  0  0  0  0  0  0  0  0  0  0  0
    1.9174   -3.6796   -1.8014 H   0  0  0  0  0  0  0  0  0  0  0  0
  1  5  1  0
  5  6  1  0
  5  7  2  0
  1  2  1  0
  1  3  1  0
  1  4  1  0
  8 12  1  0
 12 15  1  0
  8  9  1  0
  8 10  1  0
  8 11  1  0
 12 13  1  0
 12 14  1  0
 15 16  1  0
 15 17  1  0
 15 18  1  0
M  CHG  1   6  -1
M  END
>  <PDB_ID>  (1954) 
pdb5w16

>  <RESIDUE_NAME>  (1954) 
GLU   ARG

>  <FRAG_NAME>  (1954) 
ACET   PRPA

>  <FRAG_ATOM_NUM>  (1954) 
fragi: 7  fragj: 11

>  <atom.prop.CHAIN_ID>  (1954) 
A A A A A A A Z Z Z Z Z Z Z Z Z Z Z

>  <atom.prop.IS_HEAVY_ATOM>  (1954) 
1 0 0 0 1 1 1 1 0 0 0 1 0 0 1 0 0 0

>  <DIFUSE_FUNC_ATOM>  (1954) 
atom 6   atom 7   

>  <FINAL_SINGLE_POINT_ENERGY>  (1954) 
0

>  <NONCOV_INTER_ENERGY_QM>  (1954) 
0

>  <FF_Energy>  (1954) 
25.89

>  <QM_Energy>  (1954) 
-0.63

>  <source>  (1954) 
ACET_PRPA_27

>  <Index>  (1954) 
7171

$$$$
ACET-pdb5w16-A-GLU-170:PRPA-pdb5w16-A-ARG-109
     RDKit          3D

 18 16  0  0  0  0  0  0  0  0999 V2000
    0.0130    1.5078    0.1069 C   0  0  0  0  0  0  0  0  0  0  0  0
   -0.5778    1.8666   -0.5750 H   0  0  0  0  0  0  0  0  0  0  0  0
    0.9203    1.8154   -0.0388 H   0  0  0  0  0  0  0  0  0  0  0  0
   -0.3276    1.8374    1.0885 H   0  0  0  0  0  0  0  0  0  0  0  0
    0.0000    0.0000    0.0000 C   0  0  0  0  0  0  0  0  0  0  0  0
   -1.1028   -0.5916   -0.0000 O   0  0  0  0  0  1  0  0  0  0  0  0
    1.1028   -0.5926   -0.0000 O   0  0  0  0  0  0  0  0  0  0  0  0
    2.6972   -2.7642    0.0161 C   0  0  0  0  0  0  0  0  0  0  0  0
    2.4304   -1.8441   -0.2799 H   0  0  0  0  0  0  0  0  0  0  0  0
    3.6478   -2.9312   -0.2551 H   0  0  0  0  0  0  0  0  0  0  0  0
    2.6451   -2.7969    1.1043 H   0  0  0  0  0  0  0  0  0  0  0  0
    1.8178   -3.7662   -0.7194 C   0  0  0  0  0  0  0  0  0  0  0  0
    2.0789   -4.6921   -0.4400 H   0  0  0  0  0  0  0  0  0  0  0  0
    0.8625   -3.6038   -0.4656 H   0  0  0  0  0  0  0  0  0  0  0  0
    1.9536   -3.6482   -2.1941 C   0  0  0  0  0  0  0  0  0  0  0  0
    1.6913   -2.7219   -2.4708 H   0  0  0  0  0  0  0  0  0  0  0  0
    2.9102   -3.8101   -2.4445 H   0  0  0  0  0  0  0  0  0  0  0  0
    1.3254   -4.3643   -2.7237 H   0  0  0  0  0  0  0  0  0  0  0  0
  1  5  1  0
  5  6  1  0
  5  7  2  0
  1  2  1  0
  1  3  1  0
  1  4  1  0
  8 12  1  0
 12 15  1  0
  8  9  1  0
  8 10  1  0
  8 11  1  0
 12 13  1  0
 12 14  1  0
 15 16  1  0
 15 17  1  0
 15 18  1  0
M  CHG  1   6  -1
M  END
>  <PDB_ID>  (1955) 
pdb5w16

>  <RESIDUE_NAME>  (1955) 
GLU   ARG

>  <FRAG_NAME>  (1955) 
ACET   PRPA

>  <FRAG_ATOM_NUM>  (1955) 
fragi: 7  fragj: 11

>  <atom.prop.CHAIN_ID>  (1955) 
A A A A A A A Z Z Z Z Z Z Z Z Z Z Z

>  <atom.prop.IS_HEAVY_ATOM>  (1955) 
1 0 0 0 1 1 1 1 0 0 0 1 0 0 1 0 0 0

>  <DIFUSE_FUNC_ATOM>  (1955) 
atom 6   atom 7   

>  <FINAL_SINGLE_POINT_ENERGY>  (1955) 
0

>  <NONCOV_INTER_ENERGY_QM>  (1955) 
0

>  <FF_Energy>  (1955) 
22.26

>  <QM_Energy>  (1955) 
-0.12

>  <source>  (1955) 
ACET_PRPA_27

>  <Index>  (1955) 
7173

$$$$
ACET-pdb5wjd-A-GLU-63:PRPA-pdb5wjd-A-PRO-12
     RDKit          3D

 18 16  0  0  0  0  0  0  0  0999 V2000
    0.1723    1.4842    0.0137 C   0  0  0  0  0  0  0  0  0  0  0  0
    0.6918    1.7403   -0.8025 H   0  0  0  0  0  0  0  0  0  0  0  0
    0.7035    1.7226    0.8296 H   0  0  0  0  0  0  0  0  0  0  0  0
   -0.7383    2.0831    0.0260 H   0  0  0  0  0  0  0  0  0  0  0  0
    0.0000    0.0000    0.0000 C   0  0  0  0  0  0  0  0  0  0  0  0
   -1.0895   -0.5593    0.0000 O   0  0  0  0  0  1  0  0  0  0  0  0
    1.0895   -0.6071   -0.0000 O   0  0  0  0  0  0  0  0  0  0  0  0
    3.2171   -0.1788   -0.8861 C   0  0  0  0  0  0  0  0  0  0  0  0
    3.6296    0.2549   -0.0832 H   0  0  0  0  0  0  0  0  0  0  0  0
    2.7990   -1.0467   -0.6124 H   0  0  0  0  0  0  0  0  0  0  0  0
    2.4770    0.4791   -1.3417 H   0  0  0  0  0  0  0  0  0  0  0  0
    4.2289   -0.3861   -1.9615 C   0  0  0  0  0  0  0  0  0  0  0  0
    4.9060    0.3587   -1.9615 H   0  0  0  0  0  0  0  0  0  0  0  0
    4.7147   -1.2569   -1.8285 H   0  0  0  0  0  0  0  0  0  0  0  0
    3.4548   -0.4016   -3.2594 C   0  0  0  0  0  0  0  0  0  0  0  0
    3.9712    0.0336   -3.9961 H   0  0  0  0  0  0  0  0  0  0  0  0
    3.2133   -1.3351   -3.5275 H   0  0  0  0  0  0  0  0  0  0  0  0
    2.5592    0.1747   -3.0272 H   0  0  0  0  0  0  0  0  0  0  0  0
  1  5  1  0
  5  6  1  0
  5  7  2  0
  1  2  1  0
  1  3  1  0
  1  4  1  0
  8 12  1  0
 12 15  1  0
  8  9  1  0
  8 10  1  0
  8 11  1  0
 12 13  1  0
 12 14  1  0
 15 16  1  0
 15 17  1  0
 15 18  1  0
M  CHG  1   6  -1
M  END
>  <PDB_ID>  (1956) 
pdb5wjd

>  <RESIDUE_NAME>  (1956) 
GLU   PRO

>  <FRAG_NAME>  (1956) 
ACET   PRPA

>  <FRAG_ATOM_NUM>  (1956) 
fragi: 7  fragj: 11

>  <atom.prop.CHAIN_ID>  (1956) 
A A A A A A A Z Z Z Z Z Z Z Z Z Z Z

>  <atom.prop.IS_HEAVY_ATOM>  (1956) 
1 0 0 0 1 1 1 1 0 0 0 1 0 0 1 0 0 0

>  <DIFUSE_FUNC_ATOM>  (1956) 
atom 6   atom 7   

>  <FINAL_SINGLE_POINT_ENERGY>  (1956) 
0

>  <NONCOV_INTER_ENERGY_QM>  (1956) 
0

>  <FF_Energy>  (1956) 
40.79

>  <QM_Energy>  (1956) 
11.94

>  <source>  (1956) 
ACET_PRPA_27

>  <Index>  (1956) 
8379

$$$$
ACET-pdb5w3t-B-ASP-182:PRPA-pdb5w3t-B-LEU-185
     RDKit          3D

 18 16  0  0  0  0  0  0  0  0999 V2000
    0.0009    1.5147   -0.0011 C   0  0  0  0  0  0  0  0  0  0  0  0
   -0.6026    1.8345   -0.7222 H   0  0  0  0  0  0  0  0  0  0  0  0
    0.9279    1.8345   -0.1538 H   0  0  0  0  0  0  0  0  0  0  0  0
   -0.3495    1.9334    0.9424 H   0  0  0  0  0  0  0  0  0  0  0  0
    0.0000    0.0000    0.0000 C   0  0  0  0  0  0  0  0  0  0  0  0
   -1.0983   -0.5919   -0.0000 O   0  0  0  0  0  1  0  0  0  0  0  0
    1.0983   -0.5982    0.0000 O   0  0  0  0  0  0  0  0  0  0  0  0
    4.6907    0.3398    1.2193 C   0  0  0  0  0  0  0  0  0  0  0  0
    5.4373   -0.2431    0.8876 H   0  0  0  0  0  0  0  0  0  0  0  0
    3.8577   -0.2957    1.5199 H   0  0  0  0  0  0  0  0  0  0  0  0
    5.0573    0.9140    2.0702 H   0  0  0  0  0  0  0  0  0  0  0  0
    4.2804    1.2752    0.0814 C   0  0  0  0  0  0  0  0  0  0  0  0
    3.8519    2.0826    0.4885 H   0  0  0  0  0  0  0  0  0  0  0  0
    5.1098    1.5472   -0.4055 H   0  0  0  0  0  0  0  0  0  0  0  0
    3.3033    0.7215   -0.9594 C   0  0  0  0  0  0  0  0  0  0  0  0
    2.4260    0.5370   -0.5168 H   0  0  0  0  0  0  0  0  0  0  0  0
    3.1556    1.4358   -1.7693 H   0  0  0  0  0  0  0  0  0  0  0  0
    3.6482   -0.2355   -1.3509 H   0  0  0  0  0  0  0  0  0  0  0  0
  1  5  1  0
  5  6  1  0
  5  7  2  0
  1  2  1  0
  1  3  1  0
  1  4  1  0
  8 12  1  0
 12 15  1  0
  8  9  1  0
  8 10  1  0
  8 11  1  0
 12 13  1  0
 12 14  1  0
 15 16  1  0
 15 17  1  0
 15 18  1  0
M  CHG  1   6  -1
M  END
>  <PDB_ID>  (1957) 
pdb5w3t

>  <RESIDUE_NAME>  (1957) 
ASP   LEU

>  <FRAG_NAME>  (1957) 
ACET   PRPA

>  <FRAG_ATOM_NUM>  (1957) 
fragi: 7  fragj: 11

>  <atom.prop.CHAIN_ID>  (1957) 
A A A A A A A Z Z Z Z Z Z Z Z Z Z Z

>  <atom.prop.IS_HEAVY_ATOM>  (1957) 
1 0 0 0 1 1 1 1 0 0 0 1 0 0 1 0 0 0

>  <DIFUSE_FUNC_ATOM>  (1957) 
atom 6   atom 7   

>  <FINAL_SINGLE_POINT_ENERGY>  (1957) 
0

>  <NONCOV_INTER_ENERGY_QM>  (1957) 
0

>  <FF_Energy>  (1957) 
25.94

>  <QM_Energy>  (1957) 
1.78

>  <source>  (1957) 
ACET_PRPA_27

>  <Index>  (1957) 
9522

$$$$
ACET-pdb5w3t-B-ASP-182:PRPA-pdb5w3t-B-LEU-185
     RDKit          3D

 18 16  0  0  0  0  0  0  0  0999 V2000
    0.0009    1.5147   -0.0011 C   0  0  0  0  0  0  0  0  0  0  0  0
   -0.6026    1.8345   -0.7222 H   0  0  0  0  0  0  0  0  0  0  0  0
    0.9279    1.8345   -0.1538 H   0  0  0  0  0  0  0  0  0  0  0  0
   -0.3495    1.9334    0.9424 H   0  0  0  0  0  0  0  0  0  0  0  0
    0.0000    0.0000    0.0000 C   0  0  0  0  0  0  0  0  0  0  0  0
   -1.0983   -0.5919   -0.0000 O   0  0  0  0  0  1  0  0  0  0  0  0
    1.0983   -0.5982    0.0000 O   0  0  0  0  0  0  0  0  0  0  0  0
    4.2804    1.2752    0.0814 C   0  0  0  0  0  0  0  0  0  0  0  0
    3.8519    2.0826    0.4885 H   0  0  0  0  0  0  0  0  0  0  0  0
    5.1098    1.5472   -0.4055 H   0  0  0  0  0  0  0  0  0  0  0  0
    4.5729    0.6084    0.8925 H   0  0  0  0  0  0  0  0  0  0  0  0
    3.3033    0.7215   -0.9594 C   0  0  0  0  0  0  0  0  0  0  0  0
    2.4260    0.5370   -0.5168 H   0  0  0  0  0  0  0  0  0  0  0  0
    3.6482   -0.2355   -1.3509 H   0  0  0  0  0  0  0  0  0  0  0  0
    3.0965    1.7216   -2.0933 C   0  0  0  0  0  0  0  0  0  0  0  0
    3.9723    1.9060   -2.5388 H   0  0  0  0  0  0  0  0  0  0  0  0
    2.4563    1.3404   -2.7603 H   0  0  0  0  0  0  0  0  0  0  0  0
    2.7241    2.5722   -1.7221 H   0  0  0  0  0  0  0  0  0  0  0  0
  1  5  1  0
  5  6  1  0
  5  7  2  0
  1  2  1  0
  1  3  1  0
  1  4  1  0
  8 12  1  0
 12 15  1  0
  8  9  1  0
  8 10  1  0
  8 11  1  0
 12 13  1  0
 12 14  1  0
 15 16  1  0
 15 17  1  0
 15 18  1  0
M  CHG  1   6  -1
M  END
>  <PDB_ID>  (1958) 
pdb5w3t

>  <RESIDUE_NAME>  (1958) 
ASP   LEU

>  <FRAG_NAME>  (1958) 
ACET   PRPA

>  <FRAG_ATOM_NUM>  (1958) 
fragi: 7  fragj: 11

>  <atom.prop.CHAIN_ID>  (1958) 
A A A A A A A Z Z Z Z Z Z Z Z Z Z Z

>  <atom.prop.IS_HEAVY_ATOM>  (1958) 
1 0 0 0 1 1 1 1 0 0 0 1 0 0 1 0 0 0

>  <DIFUSE_FUNC_ATOM>  (1958) 
atom 6   atom 7   

>  <FINAL_SINGLE_POINT_ENERGY>  (1958) 
0

>  <NONCOV_INTER_ENERGY_QM>  (1958) 
0

>  <FF_Energy>  (1958) 
29.28

>  <QM_Energy>  (1958) 
1.94

>  <source>  (1958) 
ACET_PRPA_27

>  <Index>  (1958) 
9532

$$$$
ACET-pdb5w3t-B-ASP-182:PRPA-pdb5w3t-B-LEU-185
     RDKit          3D

 18 16  0  0  0  0  0  0  0  0999 V2000
    0.0009    1.5147   -0.0011 C   0  0  0  0  0  0  0  0  0  0  0  0
   -0.6026    1.8345   -0.7222 H   0  0  0  0  0  0  0  0  0  0  0  0
    0.9279    1.8345   -0.1538 H   0  0  0  0  0  0  0  0  0  0  0  0
   -0.3495    1.9334    0.9424 H   0  0  0  0  0  0  0  0  0  0  0  0
    0.0000    0.0000    0.0000 C   0  0  0  0  0  0  0  0  0  0  0  0
   -1.0983   -0.5919   -0.0000 O   0  0  0  0  0  1  0  0  0  0  0  0
    1.0983   -0.5982    0.0000 O   0  0  0  0  0  0  0  0  0  0  0  0
    4.2804    1.2752    0.0814 C   0  0  0  0  0  0  0  0  0  0  0  0
    3.8519    2.0826    0.4885 H   0  0  0  0  0  0  0  0  0  0  0  0
    5.1098    1.5472   -0.4055 H   0  0  0  0  0  0  0  0  0  0  0  0
    4.5729    0.6084    0.8925 H   0  0  0  0  0  0  0  0  0  0  0  0
    3.3033    0.7215   -0.9594 C   0  0  0  0  0  0  0  0  0  0  0  0
    2.4260    0.5370   -0.5168 H   0  0  0  0  0  0  0  0  0  0  0  0
    3.1556    1.4358   -1.7693 H   0  0  0  0  0  0  0  0  0  0  0  0
    3.7846   -0.6140   -1.5058 C   0  0  0  0  0  0  0  0  0  0  0  0
    3.8610   -1.2744   -0.7579 H   0  0  0  0  0  0  0  0  0  0  0  0
    3.1308   -0.9548   -2.1836 H   0  0  0  0  0  0  0  0  0  0  0  0
    4.6792   -0.4966   -1.9382 H   0  0  0  0  0  0  0  0  0  0  0  0
  1  5  1  0
  5  6  1  0
  5  7  2  0
  1  2  1  0
  1  3  1  0
  1  4  1  0
  8 12  1  0
 12 15  1  0
  8  9  1  0
  8 10  1  0
  8 11  1  0
 12 13  1  0
 12 14  1  0
 15 16  1  0
 15 17  1  0
 15 18  1  0
M  CHG  1   6  -1
M  END
>  <PDB_ID>  (1959) 
pdb5w3t

>  <RESIDUE_NAME>  (1959) 
ASP   LEU

>  <FRAG_NAME>  (1959) 
ACET   PRPA

>  <FRAG_ATOM_NUM>  (1959) 
fragi: 7  fragj: 11

>  <atom.prop.CHAIN_ID>  (1959) 
A A A A A A A Z Z Z Z Z Z Z Z Z Z Z

>  <atom.prop.IS_HEAVY_ATOM>  (1959) 
1 0 0 0 1 1 1 1 0 0 0 1 0 0 1 0 0 0

>  <DIFUSE_FUNC_ATOM>  (1959) 
atom 6   atom 7   

>  <FINAL_SINGLE_POINT_ENERGY>  (1959) 
0

>  <NONCOV_INTER_ENERGY_QM>  (1959) 
0

>  <FF_Energy>  (1959) 
30.67

>  <QM_Energy>  (1959) 
0.78

>  <source>  (1959) 
ACET_PRPA_27

>  <Index>  (1959) 
9539

$$$$
ACET-pdb5w3t-B-ASP-182:PRPA-pdb5w3t-B-LEU-185
     RDKit          3D

 18 16  0  0  0  0  0  0  0  0999 V2000
    0.0009    1.5147   -0.0011 C   0  0  0  0  0  0  0  0  0  0  0  0
   -0.6026    1.8345   -0.7222 H   0  0  0  0  0  0  0  0  0  0  0  0
    0.9279    1.8345   -0.1538 H   0  0  0  0  0  0  0  0  0  0  0  0
   -0.3495    1.9334    0.9424 H   0  0  0  0  0  0  0  0  0  0  0  0
    0.0000    0.0000    0.0000 C   0  0  0  0  0  0  0  0  0  0  0  0
   -1.0983   -0.5919   -0.0000 O   0  0  0  0  0  1  0  0  0  0  0  0
    1.0983   -0.5982    0.0000 O   0  0  0  0  0  0  0  0  0  0  0  0
    3.0965    1.7216   -2.0933 C   0  0  0  0  0  0  0  0  0  0  0  0
    3.9723    1.9060   -2.5388 H   0  0  0  0  0  0  0  0  0  0  0  0
    2.4563    1.3404   -2.7603 H   0  0  0  0  0  0  0  0  0  0  0  0
    2.7241    2.5722   -1.7221 H   0  0  0  0  0  0  0  0  0  0  0  0
    3.3033    0.7215   -0.9594 C   0  0  0  0  0  0  0  0  0  0  0  0
    2.4260    0.5370   -0.5168 H   0  0  0  0  0  0  0  0  0  0  0  0
    3.9988    1.1156   -0.2185 H   0  0  0  0  0  0  0  0  0  0  0  0
    3.7846   -0.6140   -1.5058 C   0  0  0  0  0  0  0  0  0  0  0  0
    3.8610   -1.2744   -0.7579 H   0  0  0  0  0  0  0  0  0  0  0  0
    3.1308   -0.9548   -2.1836 H   0  0  0  0  0  0  0  0  0  0  0  0
    4.6792   -0.4966   -1.9382 H   0  0  0  0  0  0  0  0  0  0  0  0
  1  5  1  0
  5  6  1  0
  5  7  2  0
  1  2  1  0
  1  3  1  0
  1  4  1  0
  8 12  1  0
 12 15  1  0
  8  9  1  0
  8 10  1  0
  8 11  1  0
 12 13  1  0
 12 14  1  0
 15 16  1  0
 15 17  1  0
 15 18  1  0
M  CHG  1   6  -1
M  END
>  <PDB_ID>  (1960) 
pdb5w3t

>  <RESIDUE_NAME>  (1960) 
ASP   LEU

>  <FRAG_NAME>  (1960) 
ACET   PRPA

>  <FRAG_ATOM_NUM>  (1960) 
fragi: 7  fragj: 11

>  <atom.prop.CHAIN_ID>  (1960) 
A A A A A A A Z Z Z Z Z Z Z Z Z Z Z

>  <atom.prop.IS_HEAVY_ATOM>  (1960) 
1 0 0 0 1 1 1 1 0 0 0 1 0 0 1 0 0 0

>  <DIFUSE_FUNC_ATOM>  (1960) 
atom 6   atom 7   

>  <FINAL_SINGLE_POINT_ENERGY>  (1960) 
0

>  <NONCOV_INTER_ENERGY_QM>  (1960) 
0

>  <FF_Energy>  (1960) 
30.44

>  <QM_Energy>  (1960) 
0.55

>  <source>  (1960) 
ACET_PRPA_27

>  <Index>  (1960) 
9549

$$$$
ACET-pdb5wuj-B-ASP-14:PRPA-pdb5wuj-B-LYS-10
     RDKit          3D

 18 16  0  0  0  0  0  0  0  0999 V2000
   -0.0019    1.5076   -0.0098 C   0  0  0  0  0  0  0  0  0  0  0  0
    0.8216    1.8285   -0.4627 H   0  0  0  0  0  0  0  0  0  0  0  0
   -0.0382    1.8376    0.9256 H   0  0  0  0  0  0  0  0  0  0  0  0
   -0.8597    1.9161   -0.5440 H   0  0  0  0  0  0  0  0  0  0  0  0
    0.0000    0.0000    0.0000 C   0  0  0  0  0  0  0  0  0  0  0  0
   -1.1021   -0.5966   -0.0000 O   0  0  0  0  0  1  0  0  0  0  0  0
    1.1021   -0.5843   -0.0000 O   0  0  0  0  0  0  0  0  0  0  0  0
    1.7751   -3.6762   -2.3573 C   0  0  0  0  0  0  0  0  0  0  0  0
    1.5027   -4.6390   -2.3108 H   0  0  0  0  0  0  0  0  0  0  0  0
    2.5544   -3.5248   -1.7462 H   0  0  0  0  0  0  0  0  0  0  0  0
    2.0701   -3.4381   -3.3792 H   0  0  0  0  0  0  0  0  0  0  0  0
    0.6173   -2.8165   -1.9002 C   0  0  0  0  0  0  0  0  0  0  0  0
    0.8791   -1.8594   -1.9633 H   0  0  0  0  0  0  0  0  0  0  0  0
   -0.1716   -2.9993   -2.4772 H   0  0  0  0  0  0  0  0  0  0  0  0
    0.2455   -3.1226   -0.4622 C   0  0  0  0  0  0  0  0  0  0  0  0
    1.0811   -3.1430    0.0934 H   0  0  0  0  0  0  0  0  0  0  0  0
   -0.3546   -2.3939   -0.1181 H   0  0  0  0  0  0  0  0  0  0  0  0
   -0.2671   -4.0804   -0.3727 H   0  0  0  0  0  0  0  0  0  0  0  0
  1  5  1  0
  5  6  1  0
  5  7  2  0
  1  2  1  0
  1  3  1  0
  1  4  1  0
  8 12  1  0
 12 15  1  0
  8  9  1  0
  8 10  1  0
  8 11  1  0
 12 13  1  0
 12 14  1  0
 15 16  1  0
 15 17  1  0
 15 18  1  0
M  CHG  1   6  -1
M  END
>  <PDB_ID>  (1961) 
pdb5wuj

>  <RESIDUE_NAME>  (1961) 
ASP   LYS

>  <FRAG_NAME>  (1961) 
ACET   PRPA

>  <FRAG_ATOM_NUM>  (1961) 
fragi: 7  fragj: 11

>  <atom.prop.CHAIN_ID>  (1961) 
A A A A A A A Z Z Z Z Z Z Z Z Z Z Z

>  <atom.prop.IS_HEAVY_ATOM>  (1961) 
1 0 0 0 1 1 1 1 0 0 0 1 0 0 1 0 0 0

>  <DIFUSE_FUNC_ATOM>  (1961) 
atom 6   atom 7   

>  <FINAL_SINGLE_POINT_ENERGY>  (1961) 
0

>  <NONCOV_INTER_ENERGY_QM>  (1961) 
0

>  <FF_Energy>  (1961) 
18.01

>  <QM_Energy>  (1961) 
-0.35

>  <source>  (1961) 
ACET_PRPA_27

>  <Index>  (1961) 
11032

$$$$
ACET-pdb5w3t-C-ASP-224:PRPA-pdb5w3t-C-VAL-227
     RDKit          3D

 18 16  0  0  0  0  0  0  0  0999 V2000
    0.0007    1.5162    0.0082 C   0  0  0  0  0  0  0  0  0  0  0  0
    0.1963    1.8406   -0.9103 H   0  0  0  0  0  0  0  0  0  0  0  0
    0.6936    1.8325    0.6446 H   0  0  0  0  0  0  0  0  0  0  0  0
   -0.9574    1.9341    0.3170 H   0  0  0  0  0  0  0  0  0  0  0  0
    0.0000    0.0000    0.0000 C   0  0  0  0  0  0  0  0  0  0  0  0
   -1.0986   -0.5929   -0.0000 O   0  0  0  0  0  1  0  0  0  0  0  0
    1.0986   -0.5994   -0.0000 O   0  0  0  0  0  0  0  0  0  0  0  0
    2.1929   -0.6444    3.9436 C   0  0  0  0  0  0  0  0  0  0  0  0
    2.5864   -1.4790    4.3663 H   0  0  0  0  0  0  0  0  0  0  0  0
    1.1470   -0.8453    3.7117 H   0  0  0  0  0  0  0  0  0  0  0  0
    2.3252    0.1777    4.6470 H   0  0  0  0  0  0  0  0  0  0  0  0
    2.9959   -0.3268    2.6694 C   0  0  0  0  0  0  0  0  0  0  0  0
    2.6002    0.5051    2.2605 H   0  0  0  0  0  0  0  0  0  0  0  0
    4.0490   -0.1180    2.8574 H   0  0  0  0  0  0  0  0  0  0  0  0
    2.8481   -1.4258    1.6205 C   0  0  0  0  0  0  0  0  0  0  0  0
    1.8773   -1.5995    1.4624 H   0  0  0  0  0  0  0  0  0  0  0  0
    3.2814   -1.1281    0.7704 H   0  0  0  0  0  0  0  0  0  0  0  0
    3.2911   -2.2565    1.9524 H   0  0  0  0  0  0  0  0  0  0  0  0
  1  5  1  0
  5  6  1  0
  5  7  2  0
  1  2  1  0
  1  3  1  0
  1  4  1  0
  8 12  1  0
 12 15  1  0
  8  9  1  0
  8 10  1  0
  8 11  1  0
 12 13  1  0
 12 14  1  0
 15 16  1  0
 15 17  1  0
 15 18  1  0
M  CHG  1   6  -1
M  END
>  <PDB_ID>  (1962) 
pdb5w3t

>  <RESIDUE_NAME>  (1962) 
ASP   VAL

>  <FRAG_NAME>  (1962) 
ACET   PRPA

>  <FRAG_ATOM_NUM>  (1962) 
fragi: 7  fragj: 11

>  <atom.prop.CHAIN_ID>  (1962) 
A A A A A A A Z Z Z Z Z Z Z Z Z Z Z

>  <atom.prop.IS_HEAVY_ATOM>  (1962) 
1 0 0 0 1 1 1 1 0 0 0 1 0 0 1 0 0 0

>  <DIFUSE_FUNC_ATOM>  (1962) 
atom 6   atom 7   

>  <FINAL_SINGLE_POINT_ENERGY>  (1962) 
0

>  <NONCOV_INTER_ENERGY_QM>  (1962) 
0

>  <FF_Energy>  (1962) 
19.28

>  <QM_Energy>  (1962) 
2.52

>  <source>  (1962) 
ACET_PRPA_27

>  <Index>  (1962) 
11197

$$$$
ACET-pdb5w3t-C-ASP-224:PRPA-pdb5w3t-C-VAL-227
     RDKit          3D

 18 16  0  0  0  0  0  0  0  0999 V2000
    0.0007    1.5162    0.0082 C   0  0  0  0  0  0  0  0  0  0  0  0
    0.1963    1.8406   -0.9103 H   0  0  0  0  0  0  0  0  0  0  0  0
    0.6936    1.8325    0.6446 H   0  0  0  0  0  0  0  0  0  0  0  0
   -0.9574    1.9341    0.3170 H   0  0  0  0  0  0  0  0  0  0  0  0
    0.0000    0.0000    0.0000 C   0  0  0  0  0  0  0  0  0  0  0  0
   -1.0986   -0.5929   -0.0000 O   0  0  0  0  0  1  0  0  0  0  0  0
    1.0986   -0.5994   -0.0000 O   0  0  0  0  0  0  0  0  0  0  0  0
    4.4627   -0.0360    2.9313 C   0  0  0  0  0  0  0  0  0  0  0  0
    4.9843   -0.1507    2.0854 H   0  0  0  0  0  0  0  0  0  0  0  0
    4.5654    0.9032    3.2601 H   0  0  0  0  0  0  0  0  0  0  0  0
    4.8113   -0.6683    3.6235 H   0  0  0  0  0  0  0  0  0  0  0  0
    2.9959   -0.3268    2.6694 C   0  0  0  0  0  0  0  0  0  0  0  0
    2.6002    0.5051    2.2605 H   0  0  0  0  0  0  0  0  0  0  0  0
    2.4272   -0.5517    3.5717 H   0  0  0  0  0  0  0  0  0  0  0  0
    2.8481   -1.4258    1.6205 C   0  0  0  0  0  0  0  0  0  0  0  0
    1.8773   -1.5995    1.4624 H   0  0  0  0  0  0  0  0  0  0  0  0
    3.2814   -1.1281    0.7704 H   0  0  0  0  0  0  0  0  0  0  0  0
    3.2911   -2.2565    1.9524 H   0  0  0  0  0  0  0  0  0  0  0  0
  1  5  1  0
  5  6  1  0
  5  7  2  0
  1  2  1  0
  1  3  1  0
  1  4  1  0
  8 12  1  0
 12 15  1  0
  8  9  1  0
  8 10  1  0
  8 11  1  0
 12 13  1  0
 12 14  1  0
 15 16  1  0
 15 17  1  0
 15 18  1  0
M  CHG  1   6  -1
M  END
>  <PDB_ID>  (1963) 
pdb5w3t

>  <RESIDUE_NAME>  (1963) 
ASP   VAL

>  <FRAG_NAME>  (1963) 
ACET   PRPA

>  <FRAG_ATOM_NUM>  (1963) 
fragi: 7  fragj: 11

>  <atom.prop.CHAIN_ID>  (1963) 
A A A A A A A Z Z Z Z Z Z Z Z Z Z Z

>  <atom.prop.IS_HEAVY_ATOM>  (1963) 
1 0 0 0 1 1 1 1 0 0 0 1 0 0 1 0 0 0

>  <DIFUSE_FUNC_ATOM>  (1963) 
atom 6   atom 7   

>  <FINAL_SINGLE_POINT_ENERGY>  (1963) 
0

>  <NONCOV_INTER_ENERGY_QM>  (1963) 
0

>  <FF_Energy>  (1963) 
19.01

>  <QM_Energy>  (1963) 
3.15

>  <source>  (1963) 
ACET_PRPA_27

>  <Index>  (1963) 
11198

$$$$
ACET-pdb5wup-A-GLU-185:PRPA-pdb5wup-A-LYS-182
     RDKit          3D

 18 16  0  0  0  0  0  0  0  0999 V2000
    0.0005    1.5162   -0.0010 C   0  0  0  0  0  0  0  0  0  0  0  0
   -0.4309    1.8139   -0.8317 H   0  0  0  0  0  0  0  0  0  0  0  0
    0.9344    1.8131    0.0628 H   0  0  0  0  0  0  0  0  0  0  0  0
   -0.5516    1.9357    0.8399 H   0  0  0  0  0  0  0  0  0  0  0  0
    0.0000    0.0000    0.0000 C   0  0  0  0  0  0  0  0  0  0  0  0
   -1.0977   -0.5958   -0.0000 O   0  0  0  0  0  1  0  0  0  0  0  0
    1.0977   -0.5956   -0.0000 O   0  0  0  0  0  0  0  0  0  0  0  0
    1.8290    1.0904   -2.3561 C   0  0  0  0  0  0  0  0  0  0  0  0
    1.4174    0.6573   -1.5406 H   0  0  0  0  0  0  0  0  0  0  0  0
    1.1297    1.0115   -3.1885 H   0  0  0  0  0  0  0  0  0  0  0  0
    2.0614    2.1279   -2.1156 H   0  0  0  0  0  0  0  0  0  0  0  0
    3.1058    0.2925   -2.6429 C   0  0  0  0  0  0  0  0  0  0  0  0
    3.3904    0.4858   -3.5773 H   0  0  0  0  0  0  0  0  0  0  0  0
    3.8092    0.5902   -2.0035 H   0  0  0  0  0  0  0  0  0  0  0  0
    2.9337   -1.2160   -2.4976 C   0  0  0  0  0  0  0  0  0  0  0  0
    2.6187   -1.4185   -1.5686 H   0  0  0  0  0  0  0  0  0  0  0  0
    2.2467   -1.5298   -3.1543 H   0  0  0  0  0  0  0  0  0  0  0  0
    3.8654   -1.7519   -2.6785 H   0  0  0  0  0  0  0  0  0  0  0  0
  1  5  1  0
  5  6  1  0
  5  7  2  0
  1  2  1  0
  1  3  1  0
  1  4  1  0
  8 12  1  0
 12 15  1  0
  8  9  1  0
  8 10  1  0
  8 11  1  0
 12 13  1  0
 12 14  1  0
 15 16  1  0
 15 17  1  0
 15 18  1  0
M  CHG  1   6  -1
M  END
>  <PDB_ID>  (1964) 
pdb5wup

>  <RESIDUE_NAME>  (1964) 
GLU   LYS

>  <FRAG_NAME>  (1964) 
ACET   PRPA

>  <FRAG_ATOM_NUM>  (1964) 
fragi: 7  fragj: 11

>  <atom.prop.CHAIN_ID>  (1964) 
A A A A A A A Z Z Z Z Z Z Z Z Z Z Z

>  <atom.prop.IS_HEAVY_ATOM>  (1964) 
1 0 0 0 1 1 1 1 0 0 0 1 0 0 1 0 0 0

>  <DIFUSE_FUNC_ATOM>  (1964) 
atom 6   atom 7   

>  <FINAL_SINGLE_POINT_ENERGY>  (1964) 
0

>  <NONCOV_INTER_ENERGY_QM>  (1964) 
0

>  <FF_Energy>  (1964) 
20.42

>  <QM_Energy>  (1964) 
0.47

>  <source>  (1964) 
ACET_PRPA_27

>  <Index>  (1964) 
11948

$$$$
ACET-pdb5wyb-B-ASP-58:PRPA-pdb5wyb-B-LYS-9
     RDKit          3D

 18 16  0  0  0  0  0  0  0  0999 V2000
    0.0085    1.5173    0.0071 C   0  0  0  0  0  0  0  0  0  0  0  0
    0.7535    1.8349   -0.5700 H   0  0  0  0  0  0  0  0  0  0  0  0
    0.1366    1.8314    0.9410 H   0  0  0  0  0  0  0  0  0  0  0  0
   -0.9189    1.9476   -0.3711 H   0  0  0  0  0  0  0  0  0  0  0  0
    0.0000    0.0000    0.0000 C   0  0  0  0  0  0  0  0  0  0  0  0
   -1.0961   -0.5964    0.0000 O   0  0  0  0  0  1  0  0  0  0  0  0
    1.0961   -0.5994   -0.0000 O   0  0  0  0  0  0  0  0  0  0  0  0
    4.4460   -1.5666    2.3644 C   0  0  0  0  0  0  0  0  0  0  0  0
    4.9602   -1.4538    3.2155 H   0  0  0  0  0  0  0  0  0  0  0  0
    4.2483   -0.6647    1.9766 H   0  0  0  0  0  0  0  0  0  0  0  0
    5.0645   -2.1186    1.6567 H   0  0  0  0  0  0  0  0  0  0  0  0
    3.1170   -2.2353    2.7026 C   0  0  0  0  0  0  0  0  0  0  0  0
    3.2481   -3.2276    2.7191 H   0  0  0  0  0  0  0  0  0  0  0  0
    2.8186   -1.9264    3.6072 H   0  0  0  0  0  0  0  0  0  0  0  0
    2.0400   -1.8969    1.6860 C   0  0  0  0  0  0  0  0  0  0  0  0
    1.9145   -0.9038    1.6707 H   0  0  0  0  0  0  0  0  0  0  0  0
    2.3435   -2.2062    0.7831 H   0  0  0  0  0  0  0  0  0  0  0  0
    1.0839   -2.3678    1.9144 H   0  0  0  0  0  0  0  0  0  0  0  0
  1  5  1  0
  5  6  1  0
  5  7  2  0
  1  2  1  0
  1  3  1  0
  1  4  1  0
  8 12  1  0
 12 15  1  0
  8  9  1  0
  8 10  1  0
  8 11  1  0
 12 13  1  0
 12 14  1  0
 15 16  1  0
 15 17  1  0
 15 18  1  0
M  CHG  1   6  -1
M  END
>  <PDB_ID>  (1965) 
pdb5wyb

>  <RESIDUE_NAME>  (1965) 
ASP   LYS

>  <FRAG_NAME>  (1965) 
ACET   PRPA

>  <FRAG_ATOM_NUM>  (1965) 
fragi: 7  fragj: 11

>  <atom.prop.CHAIN_ID>  (1965) 
A A A A A A A Z Z Z Z Z Z Z Z Z Z Z

>  <atom.prop.IS_HEAVY_ATOM>  (1965) 
1 0 0 0 1 1 1 1 0 0 0 1 0 0 1 0 0 0

>  <DIFUSE_FUNC_ATOM>  (1965) 
atom 6   atom 7   

>  <FINAL_SINGLE_POINT_ENERGY>  (1965) 
0

>  <NONCOV_INTER_ENERGY_QM>  (1965) 
0

>  <FF_Energy>  (1965) 
42.03

>  <QM_Energy>  (1965) 
10.85

>  <source>  (1965) 
ACET_PRPA_27

>  <Index>  (1965) 
12138

$$$$
ACET-pdb5wyb-B-ASP-58:PRPA-pdb5wyb-B-LYS-9
     RDKit          3D

 18 16  0  0  0  0  0  0  0  0999 V2000
    0.0085    1.5173    0.0071 C   0  0  0  0  0  0  0  0  0  0  0  0
    0.7535    1.8349   -0.5700 H   0  0  0  0  0  0  0  0  0  0  0  0
    0.1366    1.8314    0.9410 H   0  0  0  0  0  0  0  0  0  0  0  0
   -0.9189    1.9476   -0.3711 H   0  0  0  0  0  0  0  0  0  0  0  0
    0.0000    0.0000    0.0000 C   0  0  0  0  0  0  0  0  0  0  0  0
   -1.0961   -0.5964    0.0000 O   0  0  0  0  0  1  0  0  0  0  0  0
    1.0961   -0.5994   -0.0000 O   0  0  0  0  0  0  0  0  0  0  0  0
    3.1170   -2.2353    2.7026 C   0  0  0  0  0  0  0  0  0  0  0  0
    3.2481   -3.2276    2.7191 H   0  0  0  0  0  0  0  0  0  0  0  0
    2.8186   -1.9264    3.6072 H   0  0  0  0  0  0  0  0  0  0  0  0
    4.0664   -1.7576    2.4610 H   0  0  0  0  0  0  0  0  0  0  0  0
    2.0400   -1.8969    1.6860 C   0  0  0  0  0  0  0  0  0  0  0  0
    1.9145   -0.9038    1.6707 H   0  0  0  0  0  0  0  0  0  0  0  0
    2.3435   -2.2062    0.7831 H   0  0  0  0  0  0  0  0  0  0  0  0
    0.7166   -2.5486    2.0021 C   0  0  0  0  0  0  0  0  0  0  0  0
    0.8329   -3.5419    2.0140 H   0  0  0  0  0  0  0  0  0  0  0  0
    0.4034   -2.2407    2.9022 H   0  0  0  0  0  0  0  0  0  0  0  0
   -0.0317   -2.2851    1.2547 H   0  0  0  0  0  0  0  0  0  0  0  0
  1  5  1  0
  5  6  1  0
  5  7  2  0
  1  2  1  0
  1  3  1  0
  1  4  1  0
  8 12  1  0
 12 15  1  0
  8  9  1  0
  8 10  1  0
  8 11  1  0
 12 13  1  0
 12 14  1  0
 15 16  1  0
 15 17  1  0
 15 18  1  0
M  CHG  1   6  -1
M  END
>  <PDB_ID>  (1966) 
pdb5wyb

>  <RESIDUE_NAME>  (1966) 
ASP   LYS

>  <FRAG_NAME>  (1966) 
ACET   PRPA

>  <FRAG_ATOM_NUM>  (1966) 
fragi: 7  fragj: 11

>  <atom.prop.CHAIN_ID>  (1966) 
A A A A A A A Z Z Z Z Z Z Z Z Z Z Z

>  <atom.prop.IS_HEAVY_ATOM>  (1966) 
1 0 0 0 1 1 1 1 0 0 0 1 0 0 1 0 0 0

>  <DIFUSE_FUNC_ATOM>  (1966) 
atom 6   atom 7   

>  <FINAL_SINGLE_POINT_ENERGY>  (1966) 
0

>  <NONCOV_INTER_ENERGY_QM>  (1966) 
0

>  <FF_Energy>  (1966) 
42.67

>  <QM_Energy>  (1966) 
9.43

>  <source>  (1966) 
ACET_PRPA_27

>  <Index>  (1966) 
12144

$$$$
ACET-pdb5w3t-D-ASP-182:PRPA-pdb5w3t-D-LEU-185
     RDKit          3D

 18 16  0  0  0  0  0  0  0  0999 V2000
    0.0026    1.5150   -0.0115 C   0  0  0  0  0  0  0  0  0  0  0  0
   -0.5969    1.8317   -0.7387 H   0  0  0  0  0  0  0  0  0  0  0  0
    0.9314    1.8331   -0.1638 H   0  0  0  0  0  0  0  0  0  0  0  0
   -0.3505    1.9452    0.9257 H   0  0  0  0  0  0  0  0  0  0  0  0
    0.0000    0.0000    0.0000 C   0  0  0  0  0  0  0  0  0  0  0  0
   -1.0980   -0.5964   -0.0000 O   0  0  0  0  0  1  0  0  0  0  0  0
    1.0980   -0.5947   -0.0000 O   0  0  0  0  0  0  0  0  0  0  0  0
    4.4373    1.2085    0.1039 C   0  0  0  0  0  0  0  0  0  0  0  0
    4.2461    2.1119    0.4812 H   0  0  0  0  0  0  0  0  0  0  0  0
    5.2207    1.2548   -0.5101 H   0  0  0  0  0  0  0  0  0  0  0  0
    4.6971    0.5479    0.9311 H   0  0  0  0  0  0  0  0  0  0  0  0
    3.2240    0.8023   -0.7365 C   0  0  0  0  0  0  0  0  0  0  0  0
    2.4063    0.8336   -0.1616 H   0  0  0  0  0  0  0  0  0  0  0  0
    3.3283   -0.2255   -1.0842 H   0  0  0  0  0  0  0  0  0  0  0  0
    3.0500    1.7428   -1.9168 C   0  0  0  0  0  0  0  0  0  0  0  0
    3.8668    1.7117   -2.4939 H   0  0  0  0  0  0  0  0  0  0  0  0
    2.2541    1.4630   -2.4545 H   0  0  0  0  0  0  0  0  0  0  0  0
    2.9134    2.6761   -1.5844 H   0  0  0  0  0  0  0  0  0  0  0  0
  1  5  1  0
  5  6  1  0
  5  7  2  0
  1  2  1  0
  1  3  1  0
  1  4  1  0
  8 12  1  0
 12 15  1  0
  8  9  1  0
  8 10  1  0
  8 11  1  0
 12 13  1  0
 12 14  1  0
 15 16  1  0
 15 17  1  0
 15 18  1  0
M  CHG  1   6  -1
M  END
>  <PDB_ID>  (1967) 
pdb5w3t

>  <RESIDUE_NAME>  (1967) 
ASP   LEU

>  <FRAG_NAME>  (1967) 
ACET   PRPA

>  <FRAG_ATOM_NUM>  (1967) 
fragi: 7  fragj: 11

>  <atom.prop.CHAIN_ID>  (1967) 
A A A A A A A Z Z Z Z Z Z Z Z Z Z Z

>  <atom.prop.IS_HEAVY_ATOM>  (1967) 
1 0 0 0 1 1 1 1 0 0 0 1 0 0 1 0 0 0

>  <DIFUSE_FUNC_ATOM>  (1967) 
atom 6   atom 7   

>  <FINAL_SINGLE_POINT_ENERGY>  (1967) 
0

>  <NONCOV_INTER_ENERGY_QM>  (1967) 
0

>  <FF_Energy>  (1967) 
20.09

>  <QM_Energy>  (1967) 
4.8

>  <source>  (1967) 
ACET_PRPA_27

>  <Index>  (1967) 
12448

$$$$
ACET-pdb5w3t-D-ASP-182:PRPA-pdb5w3t-D-LEU-185
     RDKit          3D

 18 16  0  0  0  0  0  0  0  0999 V2000
    0.0026    1.5150   -0.0115 C   0  0  0  0  0  0  0  0  0  0  0  0
   -0.5969    1.8317   -0.7387 H   0  0  0  0  0  0  0  0  0  0  0  0
    0.9314    1.8331   -0.1638 H   0  0  0  0  0  0  0  0  0  0  0  0
   -0.3505    1.9452    0.9257 H   0  0  0  0  0  0  0  0  0  0  0  0
    0.0000    0.0000    0.0000 C   0  0  0  0  0  0  0  0  0  0  0  0
   -1.0980   -0.5964   -0.0000 O   0  0  0  0  0  1  0  0  0  0  0  0
    1.0980   -0.5947   -0.0000 O   0  0  0  0  0  0  0  0  0  0  0  0
    4.4373    1.2085    0.1039 C   0  0  0  0  0  0  0  0  0  0  0  0
    4.2461    2.1119    0.4812 H   0  0  0  0  0  0  0  0  0  0  0  0
    5.2207    1.2548   -0.5101 H   0  0  0  0  0  0  0  0  0  0  0  0
    4.6971    0.5479    0.9311 H   0  0  0  0  0  0  0  0  0  0  0  0
    3.2240    0.8023   -0.7365 C   0  0  0  0  0  0  0  0  0  0  0  0
    2.4063    0.8336   -0.1616 H   0  0  0  0  0  0  0  0  0  0  0  0
    3.0992    1.4771   -1.5833 H   0  0  0  0  0  0  0  0  0  0  0  0
    3.3698   -0.6350   -1.2227 C   0  0  0  0  0  0  0  0  0  0  0  0
    3.4399   -1.2482   -0.4346 H   0  0  0  0  0  0  0  0  0  0  0  0
    2.5702   -0.8849   -1.7693 H   0  0  0  0  0  0  0  0  0  0  0  0
    4.1946   -0.7158   -1.7826 H   0  0  0  0  0  0  0  0  0  0  0  0
  1  5  1  0
  5  6  1  0
  5  7  2  0
  1  2  1  0
  1  3  1  0
  1  4  1  0
  8 12  1  0
 12 15  1  0
  8  9  1  0
  8 10  1  0
  8 11  1  0
 12 13  1  0
 12 14  1  0
 15 16  1  0
 15 17  1  0
 15 18  1  0
M  CHG  1   6  -1
M  END
>  <PDB_ID>  (1968) 
pdb5w3t

>  <RESIDUE_NAME>  (1968) 
ASP   LEU

>  <FRAG_NAME>  (1968) 
ACET   PRPA

>  <FRAG_ATOM_NUM>  (1968) 
fragi: 7  fragj: 11

>  <atom.prop.CHAIN_ID>  (1968) 
A A A A A A A Z Z Z Z Z Z Z Z Z Z Z

>  <atom.prop.IS_HEAVY_ATOM>  (1968) 
1 0 0 0 1 1 1 1 0 0 0 1 0 0 1 0 0 0

>  <DIFUSE_FUNC_ATOM>  (1968) 
atom 6   atom 7   

>  <FINAL_SINGLE_POINT_ENERGY>  (1968) 
0

>  <NONCOV_INTER_ENERGY_QM>  (1968) 
0

>  <FF_Energy>  (1968) 
28.96

>  <QM_Energy>  (1968) 
5.38

>  <source>  (1968) 
ACET_PRPA_27

>  <Index>  (1968) 
12450

$$$$
ACET-pdb5w3t-D-ASP-182:PRPA-pdb5w3t-D-LEU-185
     RDKit          3D

 18 16  0  0  0  0  0  0  0  0999 V2000
    0.0026    1.5150   -0.0115 C   0  0  0  0  0  0  0  0  0  0  0  0
   -0.5969    1.8317   -0.7387 H   0  0  0  0  0  0  0  0  0  0  0  0
    0.9314    1.8331   -0.1638 H   0  0  0  0  0  0  0  0  0  0  0  0
   -0.3505    1.9452    0.9257 H   0  0  0  0  0  0  0  0  0  0  0  0
    0.0000    0.0000    0.0000 C   0  0  0  0  0  0  0  0  0  0  0  0
   -1.0980   -0.5964   -0.0000 O   0  0  0  0  0  1  0  0  0  0  0  0
    1.0980   -0.5947   -0.0000 O   0  0  0  0  0  0  0  0  0  0  0  0
    3.0500    1.7428   -1.9168 C   0  0  0  0  0  0  0  0  0  0  0  0
    3.8668    1.7117   -2.4939 H   0  0  0  0  0  0  0  0  0  0  0  0
    2.2541    1.4630   -2.4545 H   0  0  0  0  0  0  0  0  0  0  0  0
    2.9134    2.6761   -1.5844 H   0  0  0  0  0  0  0  0  0  0  0  0
    3.2240    0.8023   -0.7365 C   0  0  0  0  0  0  0  0  0  0  0  0
    2.4063    0.8336   -0.1616 H   0  0  0  0  0  0  0  0  0  0  0  0
    4.0879    1.0915   -0.1382 H   0  0  0  0  0  0  0  0  0  0  0  0
    3.3698   -0.6350   -1.2227 C   0  0  0  0  0  0  0  0  0  0  0  0
    3.4399   -1.2482   -0.4346 H   0  0  0  0  0  0  0  0  0  0  0  0
    2.5702   -0.8849   -1.7693 H   0  0  0  0  0  0  0  0  0  0  0  0
    4.1946   -0.7158   -1.7826 H   0  0  0  0  0  0  0  0  0  0  0  0
  1  5  1  0
  5  6  1  0
  5  7  2  0
  1  2  1  0
  1  3  1  0
  1  4  1  0
  8 12  1  0
 12 15  1  0
  8  9  1  0
  8 10  1  0
  8 11  1  0
 12 13  1  0
 12 14  1  0
 15 16  1  0
 15 17  1  0
 15 18  1  0
M  CHG  1   6  -1
M  END
>  <PDB_ID>  (1969) 
pdb5w3t

>  <RESIDUE_NAME>  (1969) 
ASP   LEU

>  <FRAG_NAME>  (1969) 
ACET   PRPA

>  <FRAG_ATOM_NUM>  (1969) 
fragi: 7  fragj: 11

>  <atom.prop.CHAIN_ID>  (1969) 
A A A A A A A Z Z Z Z Z Z Z Z Z Z Z

>  <atom.prop.IS_HEAVY_ATOM>  (1969) 
1 0 0 0 1 1 1 1 0 0 0 1 0 0 1 0 0 0

>  <DIFUSE_FUNC_ATOM>  (1969) 
atom 6   atom 7   

>  <FINAL_SINGLE_POINT_ENERGY>  (1969) 
0

>  <NONCOV_INTER_ENERGY_QM>  (1969) 
0

>  <FF_Energy>  (1969) 
29.14

>  <QM_Energy>  (1969) 
4.51

>  <source>  (1969) 
ACET_PRPA_27

>  <Index>  (1969) 
12456

$$$$
ACET-pdb5w3t-D-ASP-224:PRPA-pdb5w3t-D-VAL-227
     RDKit          3D

 18 16  0  0  0  0  0  0  0  0999 V2000
   -0.0035    1.5130   -0.0279 C   0  0  0  0  0  0  0  0  0  0  0  0
    0.2216    1.8175   -0.9464 H   0  0  0  0  0  0  0  0  0  0  0  0
    0.6654    1.8481    0.6241 H   0  0  0  0  0  0  0  0  0  0  0  0
   -0.9736    1.9331    0.2378 H   0  0  0  0  0  0  0  0  0  0  0  0
    0.0000    0.0000    0.0000 C   0  0  0  0  0  0  0  0  0  0  0  0
   -1.0979   -0.5966   -0.0000 O   0  0  0  0  0  1  0  0  0  0  0  0
    1.0979   -0.5952    0.0000 O   0  0  0  0  0  0  0  0  0  0  0  0
    2.1241   -0.5138    4.1215 C   0  0  0  0  0  0  0  0  0  0  0  0
    2.4968   -1.3414    4.5831 H   0  0  0  0  0  0  0  0  0  0  0  0
    1.0874   -0.7174    3.8533 H   0  0  0  0  0  0  0  0  0  0  0  0
    2.2434    0.3282    4.8034 H   0  0  0  0  0  0  0  0  0  0  0  0
    2.9779   -0.2399    2.8704 C   0  0  0  0  0  0  0  0  0  0  0  0
    2.6041    0.5811    2.4216 H   0  0  0  0  0  0  0  0  0  0  0  0
    4.0237   -0.0296    3.0943 H   0  0  0  0  0  0  0  0  0  0  0  0
    2.8664   -1.3699    1.8521 C   0  0  0  0  0  0  0  0  0  0  0  0
    1.9802   -1.3126    1.3931 H   0  0  0  0  0  0  0  0  0  0  0  0
    3.6007   -1.2803    1.1800 H   0  0  0  0  0  0  0  0  0  0  0  0
    2.9460   -2.2467    2.3239 H   0  0  0  0  0  0  0  0  0  0  0  0
  1  5  1  0
  5  6  1  0
  5  7  2  0
  1  2  1  0
  1  3  1  0
  1  4  1  0
  8 12  1  0
 12 15  1  0
  8  9  1  0
  8 10  1  0
  8 11  1  0
 12 13  1  0
 12 14  1  0
 15 16  1  0
 15 17  1  0
 15 18  1  0
M  CHG  1   6  -1
M  END
>  <PDB_ID>  (1970) 
pdb5w3t

>  <RESIDUE_NAME>  (1970) 
ASP   VAL

>  <FRAG_NAME>  (1970) 
ACET   PRPA

>  <FRAG_ATOM_NUM>  (1970) 
fragi: 7  fragj: 11

>  <atom.prop.CHAIN_ID>  (1970) 
A A A A A A A Z Z Z Z Z Z Z Z Z Z Z

>  <atom.prop.IS_HEAVY_ATOM>  (1970) 
1 0 0 0 1 1 1 1 0 0 0 1 0 0 1 0 0 0

>  <DIFUSE_FUNC_ATOM>  (1970) 
atom 6   atom 7   

>  <FINAL_SINGLE_POINT_ENERGY>  (1970) 
0

>  <NONCOV_INTER_ENERGY_QM>  (1970) 
0

>  <FF_Energy>  (1970) 
29.29

>  <QM_Energy>  (1970) 
0.85

>  <source>  (1970) 
ACET_PRPA_27

>  <Index>  (1970) 
12713

$$$$
ACET-pdb5w3t-D-ASP-224:PRPA-pdb5w3t-D-VAL-227
     RDKit          3D

 18 16  0  0  0  0  0  0  0  0999 V2000
   -0.0035    1.5130   -0.0279 C   0  0  0  0  0  0  0  0  0  0  0  0
    0.2216    1.8175   -0.9464 H   0  0  0  0  0  0  0  0  0  0  0  0
    0.6654    1.8481    0.6241 H   0  0  0  0  0  0  0  0  0  0  0  0
   -0.9736    1.9331    0.2378 H   0  0  0  0  0  0  0  0  0  0  0  0
    0.0000    0.0000    0.0000 C   0  0  0  0  0  0  0  0  0  0  0  0
   -1.0979   -0.5966   -0.0000 O   0  0  0  0  0  1  0  0  0  0  0  0
    1.0979   -0.5952    0.0000 O   0  0  0  0  0  0  0  0  0  0  0  0
    4.4349    0.0530    3.1824 C   0  0  0  0  0  0  0  0  0  0  0  0
    4.4938    0.8143    3.8285 H   0  0  0  0  0  0  0  0  0  0  0  0
    4.8620   -0.7576    3.5852 H   0  0  0  0  0  0  0  0  0  0  0  0
    4.9163    0.2949    2.3390 H   0  0  0  0  0  0  0  0  0  0  0  0
    2.9779   -0.2399    2.8704 C   0  0  0  0  0  0  0  0  0  0  0  0
    2.6041    0.5811    2.4216 H   0  0  0  0  0  0  0  0  0  0  0  0
    2.3733   -0.4339    3.7562 H   0  0  0  0  0  0  0  0  0  0  0  0
    2.8664   -1.3699    1.8521 C   0  0  0  0  0  0  0  0  0  0  0  0
    1.9802   -1.3126    1.3931 H   0  0  0  0  0  0  0  0  0  0  0  0
    3.6007   -1.2803    1.1800 H   0  0  0  0  0  0  0  0  0  0  0  0
    2.9460   -2.2467    2.3239 H   0  0  0  0  0  0  0  0  0  0  0  0
  1  5  1  0
  5  6  1  0
  5  7  2  0
  1  2  1  0
  1  3  1  0
  1  4  1  0
  8 12  1  0
 12 15  1  0
  8  9  1  0
  8 10  1  0
  8 11  1  0
 12 13  1  0
 12 14  1  0
 15 16  1  0
 15 17  1  0
 15 18  1  0
M  CHG  1   6  -1
M  END
>  <PDB_ID>  (1971) 
pdb5w3t

>  <RESIDUE_NAME>  (1971) 
ASP   VAL

>  <FRAG_NAME>  (1971) 
ACET   PRPA

>  <FRAG_ATOM_NUM>  (1971) 
fragi: 7  fragj: 11

>  <atom.prop.CHAIN_ID>  (1971) 
A A A A A A A Z Z Z Z Z Z Z Z Z Z Z

>  <atom.prop.IS_HEAVY_ATOM>  (1971) 
1 0 0 0 1 1 1 1 0 0 0 1 0 0 1 0 0 0

>  <DIFUSE_FUNC_ATOM>  (1971) 
atom 6   atom 7   

>  <FINAL_SINGLE_POINT_ENERGY>  (1971) 
0

>  <NONCOV_INTER_ENERGY_QM>  (1971) 
0

>  <FF_Energy>  (1971) 
29.05

>  <QM_Energy>  (1971) 
1.42

>  <source>  (1971) 
ACET_PRPA_27

>  <Index>  (1971) 
12717

$$$$
ACET-pdb5x0b-A-GLU-120:PRPA-pdb5x0b-A-VAL-164
     RDKit          3D

 18 16  0  0  0  0  0  0  0  0999 V2000
    0.2192    1.5127    0.0146 C   0  0  0  0  0  0  0  0  0  0  0  0
    0.7274    1.7415   -0.8023 H   0  0  0  0  0  0  0  0  0  0  0  0
    0.7390    1.7234    0.8291 H   0  0  0  0  0  0  0  0  0  0  0  0
   -0.6960    2.1045    0.0265 H   0  0  0  0  0  0  0  0  0  0  0  0
    0.0000    0.0000    0.0000 C   0  0  0  0  0  0  0  0  0  0  0  0
   -1.0875   -0.5313    0.0000 O   0  0  0  0  0  1  0  0  0  0  0  0
    1.0875   -0.6151   -0.0000 O   0  0  0  0  0  0  0  0  0  0  0  0
    1.1460   -3.6371    1.7842 C   0  0  0  0  0  0  0  0  0  0  0  0
    1.9675   -3.0964    1.5916 H   0  0  0  0  0  0  0  0  0  0  0  0
    0.6407   -3.8350    0.8389 H   0  0  0  0  0  0  0  0  0  0  0  0
    1.4598   -4.5757    2.2410 H   0  0  0  0  0  0  0  0  0  0  0  0
    0.2279   -2.8663    2.7611 C   0  0  0  0  0  0  0  0  0  0  0  0
   -0.6433   -3.3523    2.8036 H   0  0  0  0  0  0  0  0  0  0  0  0
    0.6367   -2.8570    3.7715 H   0  0  0  0  0  0  0  0  0  0  0  0
    0.0168   -1.4254    2.2990 C   0  0  0  0  0  0  0  0  0  0  0  0
    0.8768   -1.0680    1.9394 H   0  0  0  0  0  0  0  0  0  0  0  0
   -0.6818   -1.4100    1.5849 H   0  0  0  0  0  0  0  0  0  0  0  0
   -0.2814   -0.8731    3.0762 H   0  0  0  0  0  0  0  0  0  0  0  0
  1  5  1  0
  5  6  1  0
  5  7  2  0
  1  2  1  0
  1  3  1  0
  1  4  1  0
  8 12  1  0
 12 15  1  0
  8  9  1  0
  8 10  1  0
  8 11  1  0
 12 13  1  0
 12 14  1  0
 15 16  1  0
 15 17  1  0
 15 18  1  0
M  CHG  1   6  -1
M  END
>  <PDB_ID>  (1972) 
pdb5x0b

>  <RESIDUE_NAME>  (1972) 
GLU   VAL

>  <FRAG_NAME>  (1972) 
ACET   PRPA

>  <FRAG_ATOM_NUM>  (1972) 
fragi: 7  fragj: 11

>  <atom.prop.CHAIN_ID>  (1972) 
A A A A A A A Z Z Z Z Z Z Z Z Z Z Z

>  <atom.prop.IS_HEAVY_ATOM>  (1972) 
1 0 0 0 1 1 1 1 0 0 0 1 0 0 1 0 0 0

>  <DIFUSE_FUNC_ATOM>  (1972) 
atom 6   atom 7   

>  <FINAL_SINGLE_POINT_ENERGY>  (1972) 
0

>  <NONCOV_INTER_ENERGY_QM>  (1972) 
0

>  <FF_Energy>  (1972) 
44.86

>  <QM_Energy>  (1972) 
7.98

>  <source>  (1972) 
ACET_PRPA_27

>  <Index>  (1972) 
13535

$$$$
ACET-pdb5x0b-A-GLU-120:PRPA-pdb5x0b-A-VAL-164
     RDKit          3D

 18 16  0  0  0  0  0  0  0  0999 V2000
    0.2192    1.5127    0.0146 C   0  0  0  0  0  0  0  0  0  0  0  0
    0.7274    1.7415   -0.8023 H   0  0  0  0  0  0  0  0  0  0  0  0
    0.7390    1.7234    0.8291 H   0  0  0  0  0  0  0  0  0  0  0  0
   -0.6960    2.1045    0.0265 H   0  0  0  0  0  0  0  0  0  0  0  0
    0.0000    0.0000    0.0000 C   0  0  0  0  0  0  0  0  0  0  0  0
   -1.0875   -0.5313    0.0000 O   0  0  0  0  0  1  0  0  0  0  0  0
    1.0875   -0.6151   -0.0000 O   0  0  0  0  0  0  0  0  0  0  0  0
    0.8001   -2.8534    4.1755 C   0  0  0  0  0  0  0  0  0  0  0  0
    1.7557   -3.1451    4.1503 H   0  0  0  0  0  0  0  0  0  0  0  0
    0.7440   -1.9280    4.5483 H   0  0  0  0  0  0  0  0  0  0  0  0
    0.2750   -3.4791    4.7522 H   0  0  0  0  0  0  0  0  0  0  0  0
    0.2279   -2.8663    2.7611 C   0  0  0  0  0  0  0  0  0  0  0  0
   -0.6433   -3.3523    2.8036 H   0  0  0  0  0  0  0  0  0  0  0  0
    0.8750   -3.4096    2.0725 H   0  0  0  0  0  0  0  0  0  0  0  0
    0.0168   -1.4254    2.2990 C   0  0  0  0  0  0  0  0  0  0  0  0
    0.8768   -1.0680    1.9394 H   0  0  0  0  0  0  0  0  0  0  0  0
   -0.6818   -1.4100    1.5849 H   0  0  0  0  0  0  0  0  0  0  0  0
   -0.2814   -0.8731    3.0762 H   0  0  0  0  0  0  0  0  0  0  0  0
  1  5  1  0
  5  6  1  0
  5  7  2  0
  1  2  1  0
  1  3  1  0
  1  4  1  0
  8 12  1  0
 12 15  1  0
  8  9  1  0
  8 10  1  0
  8 11  1  0
 12 13  1  0
 12 14  1  0
 15 16  1  0
 15 17  1  0
 15 18  1  0
M  CHG  1   6  -1
M  END
>  <PDB_ID>  (1973) 
pdb5x0b

>  <RESIDUE_NAME>  (1973) 
GLU   VAL

>  <FRAG_NAME>  (1973) 
ACET   PRPA

>  <FRAG_ATOM_NUM>  (1973) 
fragi: 7  fragj: 11

>  <atom.prop.CHAIN_ID>  (1973) 
A A A A A A A Z Z Z Z Z Z Z Z Z Z Z

>  <atom.prop.IS_HEAVY_ATOM>  (1973) 
1 0 0 0 1 1 1 1 0 0 0 1 0 0 1 0 0 0

>  <DIFUSE_FUNC_ATOM>  (1973) 
atom 6   atom 7   

>  <FINAL_SINGLE_POINT_ENERGY>  (1973) 
0

>  <NONCOV_INTER_ENERGY_QM>  (1973) 
0

>  <FF_Energy>  (1973) 
44.15

>  <QM_Energy>  (1973) 
8.93

>  <source>  (1973) 
ACET_PRPA_27

>  <Index>  (1973) 
13544

$$$$
ACET-pdb5wql-A-ASP-163:PRPA-pdb5wql-A-ARG-166
     RDKit          3D

 18 16  0  0  0  0  0  0  0  0999 V2000
    0.1046    1.5059   -0.0054 C   0  0  0  0  0  0  0  0  0  0  0  0
    0.4634    1.7982   -0.8955 H   0  0  0  0  0  0  0  0  0  0  0  0
    0.7469    1.7854    0.7122 H   0  0  0  0  0  0  0  0  0  0  0  0
   -0.8375    2.0269    0.1650 H   0  0  0  0  0  0  0  0  0  0  0  0
    0.0000    0.0000    0.0000 C   0  0  0  0  0  0  0  0  0  0  0  0
   -1.0509   -0.6287   -0.0000 O   0  0  0  0  0  1  0  0  0  0  0  0
    1.0509   -0.5593    0.0000 O   0  0  0  0  0  0  0  0  0  0  0  0
    0.9610    0.2870    4.4247 C   0  0  0  0  0  0  0  0  0  0  0  0
    0.4284    0.9484    3.9091 H   0  0  0  0  0  0  0  0  0  0  0  0
    1.4034    0.7249    5.1997 H   0  0  0  0  0  0  0  0  0  0  0  0
    0.2817   -0.4757    4.8053 H   0  0  0  0  0  0  0  0  0  0  0  0
    1.9995   -0.2864    3.5413 C   0  0  0  0  0  0  0  0  0  0  0  0
    2.8778   -0.3650    4.0536 H   0  0  0  0  0  0  0  0  0  0  0  0
    1.7351   -1.2350    3.2760 H   0  0  0  0  0  0  0  0  0  0  0  0
    2.2572    0.4819    2.3014 C   0  0  0  0  0  0  0  0  0  0  0  0
    1.9368   -0.0377    1.5355 H   0  0  0  0  0  0  0  0  0  0  0  0
    1.8245    1.3573    2.3774 H   0  0  0  0  0  0  0  0  0  0  0  0
    3.3401    0.5978    2.2540 H   0  0  0  0  0  0  0  0  0  0  0  0
  1  5  1  0
  5  6  1  0
  5  7  2  0
  1  2  1  0
  1  3  1  0
  1  4  1  0
  8 12  1  0
 12 15  1  0
  8  9  1  0
  8 10  1  0
  8 11  1  0
 12 13  1  0
 12 14  1  0
 15 16  1  0
 15 17  1  0
 15 18  1  0
M  CHG  1   6  -1
M  END
>  <PDB_ID>  (1974) 
pdb5wql

>  <RESIDUE_NAME>  (1974) 
ASP   ARG

>  <FRAG_NAME>  (1974) 
ACET   PRPA

>  <FRAG_ATOM_NUM>  (1974) 
fragi: 7  fragj: 11

>  <atom.prop.CHAIN_ID>  (1974) 
A A A A A A A Z Z Z Z Z Z Z Z Z Z Z

>  <atom.prop.IS_HEAVY_ATOM>  (1974) 
1 0 0 0 1 1 1 1 0 0 0 1 0 0 1 0 0 0

>  <DIFUSE_FUNC_ATOM>  (1974) 
atom 6   atom 7   

>  <FINAL_SINGLE_POINT_ENERGY>  (1974) 
0

>  <NONCOV_INTER_ENERGY_QM>  (1974) 
0

>  <FF_Energy>  (1974) 
22.82

>  <QM_Energy>  (1974) 
1.07

>  <source>  (1974) 
ACET_PRPA_27

>  <Index>  (1974) 
14189

$$$$
ACET-pdb5wlg-F-GLU-32:PRPA-pdb5wlg-F-ARG-48
     RDKit          3D

 18 16  0  0  0  0  0  0  0  0999 V2000
    0.0154    1.5079    0.1384 C   0  0  0  0  0  0  0  0  0  0  0  0
    0.8005    1.8466   -0.3893 H   0  0  0  0  0  0  0  0  0  0  0  0
    0.1672    1.7149    1.1098 H   0  0  0  0  0  0  0  0  0  0  0  0
   -0.8671    2.0590   -0.1868 H   0  0  0  0  0  0  0  0  0  0  0  0
    0.0000    0.0000    0.0000 C   0  0  0  0  0  0  0  0  0  0  0  0
   -1.1000   -0.5994    0.0000 O   0  0  0  0  0  1  0  0  0  0  0  0
    1.1000   -0.5927   -0.0000 O   0  0  0  0  0  0  0  0  0  0  0  0
    3.5100    2.1674   -1.2802 C   0  0  0  0  0  0  0  0  0  0  0  0
    3.3801    2.7557   -0.4988 H   0  0  0  0  0  0  0  0  0  0  0  0
    2.6628    2.0026   -1.7572 H   0  0  0  0  0  0  0  0  0  0  0  0
    4.1976    2.6606   -1.9672 H   0  0  0  0  0  0  0  0  0  0  0  0
    4.0519    0.8357   -0.7929 C   0  0  0  0  0  0  0  0  0  0  0  0
    5.0281    0.8108   -0.9239 H   0  0  0  0  0  0  0  0  0  0  0  0
    3.8030    0.7062    0.1514 H   0  0  0  0  0  0  0  0  0  0  0  0
    3.4226   -0.2524   -1.6134 C   0  0  0  0  0  0  0  0  0  0  0  0
    2.5834   -0.5579   -1.1444 H   0  0  0  0  0  0  0  0  0  0  0  0
    3.1598    0.1367   -2.5059 H   0  0  0  0  0  0  0  0  0  0  0  0
    4.0656   -1.1164   -1.7816 H   0  0  0  0  0  0  0  0  0  0  0  0
  1  5  1  0
  5  6  1  0
  5  7  2  0
  1  2  1  0
  1  3  1  0
  1  4  1  0
  8 12  1  0
 12 15  1  0
  8  9  1  0
  8 10  1  0
  8 11  1  0
 12 13  1  0
 12 14  1  0
 15 16  1  0
 15 17  1  0
 15 18  1  0
M  CHG  1   6  -1
M  END
>  <PDB_ID>  (1975) 
pdb5wlg

>  <RESIDUE_NAME>  (1975) 
GLU   ARG

>  <FRAG_NAME>  (1975) 
ACET   PRPA

>  <FRAG_ATOM_NUM>  (1975) 
fragi: 7  fragj: 11

>  <atom.prop.CHAIN_ID>  (1975) 
A A A A A A A Z Z Z Z Z Z Z Z Z Z Z

>  <atom.prop.IS_HEAVY_ATOM>  (1975) 
1 0 0 0 1 1 1 1 0 0 0 1 0 0 1 0 0 0

>  <DIFUSE_FUNC_ATOM>  (1975) 
atom 6   atom 7   

>  <FINAL_SINGLE_POINT_ENERGY>  (1975) 
0

>  <NONCOV_INTER_ENERGY_QM>  (1975) 
0

>  <FF_Energy>  (1975) 
16.03

>  <QM_Energy>  (1975) 
-2.21

>  <source>  (1975) 
ACET_PRPA_27

>  <Index>  (1975) 
15066

$$$$
ACET-pdb5wxv-B-GLU-17:PRPA-pdb5wxv-A-LYS-21
     RDKit          3D

 18 16  0  0  0  0  0  0  0  0999 V2000
    0.2244    1.5096    0.0149 C   0  0  0  0  0  0  0  0  0  0  0  0
    0.7303    1.7405   -0.8025 H   0  0  0  0  0  0  0  0  0  0  0  0
    0.7411    1.7224    0.8296 H   0  0  0  0  0  0  0  0  0  0  0  0
   -0.6895    2.1037    0.0264 H   0  0  0  0  0  0  0  0  0  0  0  0
    0.0000    0.0000    0.0000 C   0  0  0  0  0  0  0  0  0  0  0  0
   -1.0874   -0.5304    0.0000 O   0  0  0  0  0  1  0  0  0  0  0  0
    1.0874   -0.6196    0.0000 O   0  0  0  0  0  0  0  0  0  0  0  0
   -3.4413   -2.1015   -3.4110 C   0  0  0  0  0  0  0  0  0  0  0  0
   -2.7804   -2.0404   -4.1626 H   0  0  0  0  0  0  0  0  0  0  0  0
   -4.0808   -1.2190   -3.4288 H   0  0  0  0  0  0  0  0  0  0  0  0
   -4.0480   -2.9965   -3.5488 H   0  0  0  0  0  0  0  0  0  0  0  0
   -2.6354   -2.1867   -2.1137 C   0  0  0  0  0  0  0  0  0  0  0  0
   -2.6560   -3.1292   -1.7935 H   0  0  0  0  0  0  0  0  0  0  0  0
   -1.6985   -1.9117   -2.3087 H   0  0  0  0  0  0  0  0  0  0  0  0
   -3.1740   -1.2921   -1.0002 C   0  0  0  0  0  0  0  0  0  0  0  0
   -4.1675   -1.4440   -0.9098 H   0  0  0  0  0  0  0  0  0  0  0  0
   -2.7371   -1.5526   -0.1295 H   0  0  0  0  0  0  0  0  0  0  0  0
   -3.0046   -0.2279   -1.1645 H   0  0  0  0  0  0  0  0  0  0  0  0
  1  5  1  0
  5  6  1  0
  5  7  2  0
  1  2  1  0
  1  3  1  0
  1  4  1  0
  8 12  1  0
 12 15  1  0
  8  9  1  0
  8 10  1  0
  8 11  1  0
 12 13  1  0
 12 14  1  0
 15 16  1  0
 15 17  1  0
 15 18  1  0
M  CHG  1   6  -1
M  END
>  <PDB_ID>  (1976) 
pdb5wxv

>  <RESIDUE_NAME>  (1976) 
GLU   LYS

>  <FRAG_NAME>  (1976) 
ACET   PRPA

>  <FRAG_ATOM_NUM>  (1976) 
fragi: 7  fragj: 11

>  <atom.prop.CHAIN_ID>  (1976) 
A A A A A A A Z Z Z Z Z Z Z Z Z Z Z

>  <atom.prop.IS_HEAVY_ATOM>  (1976) 
1 0 0 0 1 1 1 1 0 0 0 1 0 0 1 0 0 0

>  <DIFUSE_FUNC_ATOM>  (1976) 
atom 6   atom 7   

>  <FINAL_SINGLE_POINT_ENERGY>  (1976) 
0

>  <NONCOV_INTER_ENERGY_QM>  (1976) 
0

>  <FF_Energy>  (1976) 
25.11

>  <QM_Energy>  (1976) 
5.86

>  <source>  (1976) 
ACET_PRPA_27

>  <Index>  (1976) 
17312

$$$$
ACET-pdb5wql-D-ASP-643:PRPA-pdb5wql-D-LYS-640
     RDKit          3D

 18 16  0  0  0  0  0  0  0  0999 V2000
   -0.0025    1.5159    0.0010 C   0  0  0  0  0  0  0  0  0  0  0  0
    0.4537    1.8356   -0.8220 H   0  0  0  0  0  0  0  0  0  0  0  0
    0.4755    1.8358    0.8109 H   0  0  0  0  0  0  0  0  0  0  0  0
   -1.0092    1.9338    0.0146 H   0  0  0  0  0  0  0  0  0  0  0  0
    0.0000    0.0000    0.0000 C   0  0  0  0  0  0  0  0  0  0  0  0
   -1.0980   -0.5973   -0.0000 O   0  0  0  0  0  1  0  0  0  0  0  0
    1.0980   -0.5952    0.0000 O   0  0  0  0  0  0  0  0  0  0  0  0
    1.5378    4.4887   -2.6064 C   0  0  0  0  0  0  0  0  0  0  0  0
    0.9003    4.1577   -3.3309 H   0  0  0  0  0  0  0  0  0  0  0  0
    2.5468    4.5183   -3.0178 H   0  0  0  0  0  0  0  0  0  0  0  0
    1.1760    5.4512   -2.2445 H   0  0  0  0  0  0  0  0  0  0  0  0
    1.4517    3.4479   -1.4858 C   0  0  0  0  0  0  0  0  0  0  0  0
    0.5313    3.4810   -1.1016 H   0  0  0  0  0  0  0  0  0  0  0  0
    1.6181    2.5476   -1.8854 H   0  0  0  0  0  0  0  0  0  0  0  0
    2.4490    3.6642   -0.3594 C   0  0  0  0  0  0  0  0  0  0  0  0
    2.6608    2.7841    0.0633 H   0  0  0  0  0  0  0  0  0  0  0  0
    3.2839    4.0664   -0.7343 H   0  0  0  0  0  0  0  0  0  0  0  0
    2.0466    4.3327    0.4017 H   0  0  0  0  0  0  0  0  0  0  0  0
  1  5  1  0
  5  6  1  0
  5  7  2  0
  1  2  1  0
  1  3  1  0
  1  4  1  0
  8 12  1  0
 12 15  1  0
  8  9  1  0
  8 10  1  0
  8 11  1  0
 12 13  1  0
 12 14  1  0
 15 16  1  0
 15 17  1  0
 15 18  1  0
M  CHG  1   6  -1
M  END
>  <PDB_ID>  (1977) 
pdb5wql

>  <RESIDUE_NAME>  (1977) 
ASP   LYS

>  <FRAG_NAME>  (1977) 
ACET   PRPA

>  <FRAG_ATOM_NUM>  (1977) 
fragi: 7  fragj: 11

>  <atom.prop.CHAIN_ID>  (1977) 
A A A A A A A Z Z Z Z Z Z Z Z Z Z Z

>  <atom.prop.IS_HEAVY_ATOM>  (1977) 
1 0 0 0 1 1 1 1 0 0 0 1 0 0 1 0 0 0

>  <DIFUSE_FUNC_ATOM>  (1977) 
atom 6   atom 7   

>  <FINAL_SINGLE_POINT_ENERGY>  (1977) 
0

>  <NONCOV_INTER_ENERGY_QM>  (1977) 
0

>  <FF_Energy>  (1977) 
34.86

>  <QM_Energy>  (1977) 
8.17

>  <source>  (1977) 
ACET_PRPA_27

>  <Index>  (1977) 
21517

$$$$
ACET-pdb5wql-D-ASP-643:PRPA-pdb5wql-D-LYS-640
     RDKit          3D

 18 16  0  0  0  0  0  0  0  0999 V2000
   -0.0025    1.5159    0.0010 C   0  0  0  0  0  0  0  0  0  0  0  0
    0.4537    1.8356   -0.8220 H   0  0  0  0  0  0  0  0  0  0  0  0
    0.4755    1.8358    0.8109 H   0  0  0  0  0  0  0  0  0  0  0  0
   -1.0092    1.9338    0.0146 H   0  0  0  0  0  0  0  0  0  0  0  0
    0.0000    0.0000    0.0000 C   0  0  0  0  0  0  0  0  0  0  0  0
   -1.0980   -0.5973   -0.0000 O   0  0  0  0  0  1  0  0  0  0  0  0
    1.0980   -0.5952    0.0000 O   0  0  0  0  0  0  0  0  0  0  0  0
    1.4517    3.4479   -1.4858 C   0  0  0  0  0  0  0  0  0  0  0  0
    0.5313    3.4810   -1.1016 H   0  0  0  0  0  0  0  0  0  0  0  0
    1.6181    2.5476   -1.8854 H   0  0  0  0  0  0  0  0  0  0  0  0
    1.5130    4.1886   -2.2832 H   0  0  0  0  0  0  0  0  0  0  0  0
    2.4490    3.6642   -0.3594 C   0  0  0  0  0  0  0  0  0  0  0  0
    2.6608    2.7841    0.0633 H   0  0  0  0  0  0  0  0  0  0  0  0
    3.2839    4.0664   -0.7343 H   0  0  0  0  0  0  0  0  0  0  0  0
    1.8874    4.5972    0.7028 C   0  0  0  0  0  0  0  0  0  0  0  0
    1.5859    5.4373    0.2668 H   0  0  0  0  0  0  0  0  0  0  0  0
    1.1256    4.1475    1.1561 H   0  0  0  0  0  0  0  0  0  0  0  0
    2.6408    4.8445    1.4506 H   0  0  0  0  0  0  0  0  0  0  0  0
  1  5  1  0
  5  6  1  0
  5  7  2  0
  1  2  1  0
  1  3  1  0
  1  4  1  0
  8 12  1  0
 12 15  1  0
  8  9  1  0
  8 10  1  0
  8 11  1  0
 12 13  1  0
 12 14  1  0
 15 16  1  0
 15 17  1  0
 15 18  1  0
M  CHG  1   6  -1
M  END
>  <PDB_ID>  (1978) 
pdb5wql

>  <RESIDUE_NAME>  (1978) 
ASP   LYS

>  <FRAG_NAME>  (1978) 
ACET   PRPA

>  <FRAG_ATOM_NUM>  (1978) 
fragi: 7  fragj: 11

>  <atom.prop.CHAIN_ID>  (1978) 
A A A A A A A Z Z Z Z Z Z Z Z Z Z Z

>  <atom.prop.IS_HEAVY_ATOM>  (1978) 
1 0 0 0 1 1 1 1 0 0 0 1 0 0 1 0 0 0

>  <DIFUSE_FUNC_ATOM>  (1978) 
atom 6   atom 7   

>  <FINAL_SINGLE_POINT_ENERGY>  (1978) 
0

>  <NONCOV_INTER_ENERGY_QM>  (1978) 
0

>  <FF_Energy>  (1978) 
38.3

>  <QM_Energy>  (1978) 
7.91

>  <source>  (1978) 
ACET_PRPA_27

>  <Index>  (1978) 
21550

$$$$
ACET-pdb5xaz-D-ASP-149:PRPA-pdb5xaz-D-ARG-130
     RDKit          3D

 18 16  0  0  0  0  0  0  0  0999 V2000
   -0.0037    1.5416    0.0348 C   0  0  0  0  0  0  0  0  0  0  0  0
   -0.9445    1.8488    0.0384 H   0  0  0  0  0  0  0  0  0  0  0  0
    0.4762    1.8703   -0.7651 H   0  0  0  0  0  0  0  0  0  0  0  0
    0.4903    1.9423    0.9201 H   0  0  0  0  0  0  0  0  0  0  0  0
    0.0000    0.0000    0.0000 C   0  0  0  0  0  0  0  0  0  0  0  0
   -1.1032   -0.6299    0.0000 O   0  0  0  0  0  1  0  0  0  0  0  0
    1.1032   -0.5758    0.0000 O   0  0  0  0  0  0  0  0  0  0  0  0
    5.0562    0.0259    1.6365 C   0  0  0  0  0  0  0  0  0  0  0  0
    4.6147    0.8960    1.4862 H   0  0  0  0  0  0  0  0  0  0  0  0
    5.7598   -0.1447    0.9658 H   0  0  0  0  0  0  0  0  0  0  0  0
    5.5389    0.0692    2.6129 H   0  0  0  0  0  0  0  0  0  0  0  0
    4.0029   -1.0808    1.5312 C   0  0  0  0  0  0  0  0  0  0  0  0
    4.3844   -1.9365    1.9324 H   0  0  0  0  0  0  0  0  0  0  0  0
    3.2006   -0.8253    2.1061 H   0  0  0  0  0  0  0  0  0  0  0  0
    3.4826   -1.4157    0.1366 C   0  0  0  0  0  0  0  0  0  0  0  0
    2.8247   -2.1715    0.2259 H   0  0  0  0  0  0  0  0  0  0  0  0
    2.9959   -0.6074   -0.2120 H   0  0  0  0  0  0  0  0  0  0  0  0
    4.2546   -1.7004   -0.5783 H   0  0  0  0  0  0  0  0  0  0  0  0
  1  5  1  0
  5  6  1  0
  5  7  2  0
  1  2  1  0
  1  3  1  0
  1  4  1  0
  8 12  1  0
 12 15  1  0
  8  9  1  0
  8 10  1  0
  8 11  1  0
 12 13  1  0
 12 14  1  0
 15 16  1  0
 15 17  1  0
 15 18  1  0
M  CHG  1   6  -1
M  END
>  <PDB_ID>  (1979) 
pdb5xaz

>  <RESIDUE_NAME>  (1979) 
ASP   ARG

>  <FRAG_NAME>  (1979) 
ACET   PRPA

>  <FRAG_ATOM_NUM>  (1979) 
fragi: 7  fragj: 11

>  <atom.prop.CHAIN_ID>  (1979) 
A A A A A A A Z Z Z Z Z Z Z Z Z Z Z

>  <atom.prop.IS_HEAVY_ATOM>  (1979) 
1 0 0 0 1 1 1 1 0 0 0 1 0 0 1 0 0 0

>  <DIFUSE_FUNC_ATOM>  (1979) 
atom 6   atom 7   

>  <FINAL_SINGLE_POINT_ENERGY>  (1979) 
0

>  <NONCOV_INTER_ENERGY_QM>  (1979) 
0

>  <FF_Energy>  (1979) 
21.43

>  <QM_Energy>  (1979) 
3.01

>  <source>  (1979) 
ACET_PRPA_27

>  <Index>  (1979) 
21594

$$$$
ACET-pdb5xu6-A-GLU-379:PRPA-pdb5xu6-A-GLN-86
     RDKit          3D

 18 16  0  0  0  0  0  0  0  0999 V2000
    0.1799    1.4898    0.0140 C   0  0  0  0  0  0  0  0  0  0  0  0
    0.6973    1.7420   -0.8030 H   0  0  0  0  0  0  0  0  0  0  0  0
    0.7087    1.7245    0.8297 H   0  0  0  0  0  0  0  0  0  0  0  0
   -0.7315    2.0875    0.0262 H   0  0  0  0  0  0  0  0  0  0  0  0
    0.0000    0.0000    0.0000 C   0  0  0  0  0  0  0  0  0  0  0  0
   -1.0894   -0.5539    0.0000 O   0  0  0  0  0  1  0  0  0  0  0  0
    1.0894   -0.6076    0.0000 O   0  0  0  0  0  0  0  0  0  0  0  0
   -1.7962   -3.5821    0.2435 C   0  0  0  0  0  0  0  0  0  0  0  0
   -1.4639   -3.4230    1.1875 H   0  0  0  0  0  0  0  0  0  0  0  0
   -2.0362   -4.6410    0.1480 H   0  0  0  0  0  0  0  0  0  0  0  0
   -2.6612   -2.9384    0.0836 H   0  0  0  0  0  0  0  0  0  0  0  0
   -0.6816   -3.2014   -0.7333 C   0  0  0  0  0  0  0  0  0  0  0  0
   -0.6845   -2.2047   -0.8491 H   0  0  0  0  0  0  0  0  0  0  0  0
    0.1985   -3.4801   -0.3389 H   0  0  0  0  0  0  0  0  0  0  0  0
   -0.8098   -3.8386   -2.1020 C   0  0  0  0  0  0  0  0  0  0  0  0
   -0.5296   -4.7980   -2.0391 H   0  0  0  0  0  0  0  0  0  0  0  0
   -1.7669   -3.7917   -2.3919 H   0  0  0  0  0  0  0  0  0  0  0  0
   -0.1949   -3.3475   -2.8562 H   0  0  0  0  0  0  0  0  0  0  0  0
  1  5  1  0
  5  6  1  0
  5  7  2  0
  1  2  1  0
  1  3  1  0
  1  4  1  0
  8 12  1  0
 12 15  1  0
  8  9  1  0
  8 10  1  0
  8 11  1  0
 12 13  1  0
 12 14  1  0
 15 16  1  0
 15 17  1  0
 15 18  1  0
M  CHG  1   6  -1
M  END
>  <PDB_ID>  (1980) 
pdb5xu6

>  <RESIDUE_NAME>  (1980) 
GLU   GLN

>  <FRAG_NAME>  (1980) 
ACET   PRPA

>  <FRAG_ATOM_NUM>  (1980) 
fragi: 7  fragj: 11

>  <atom.prop.CHAIN_ID>  (1980) 
A A A A A A A Z Z Z Z Z Z Z Z Z Z Z

>  <atom.prop.IS_HEAVY_ATOM>  (1980) 
1 0 0 0 1 1 1 1 0 0 0 1 0 0 1 0 0 0

>  <DIFUSE_FUNC_ATOM>  (1980) 
atom 6   atom 7   

>  <FINAL_SINGLE_POINT_ENERGY>  (1980) 
0

>  <NONCOV_INTER_ENERGY_QM>  (1980) 
0

>  <FF_Energy>  (1980) 
18.6

>  <QM_Energy>  (1980) 
-0.23

>  <source>  (1980) 
ACET_PRPA_27

>  <Index>  (1980) 
21948

$$$$
ACET-pdb5y5a-A-GLU-207:PRPA-pdb5y5a-A-LYS-203
     RDKit          3D

 18 16  0  0  0  0  0  0  0  0999 V2000
   -0.0060    1.5119   -0.0177 C   0  0  0  0  0  0  0  0  0  0  0  0
    0.7768    1.8057   -0.5307 H   0  0  0  0  0  0  0  0  0  0  0  0
    0.0162    1.8202    0.9140 H   0  0  0  0  0  0  0  0  0  0  0  0
   -0.9012    1.9116   -0.4940 H   0  0  0  0  0  0  0  0  0  0  0  0
    0.0000    0.0000    0.0000 C   0  0  0  0  0  0  0  0  0  0  0  0
   -1.0980   -0.5954    0.0000 O   0  0  0  0  0  1  0  0  0  0  0  0
    1.0980   -0.5913    0.0000 O   0  0  0  0  0  0  0  0  0  0  0  0
   -0.0725    0.1541    3.6960 C   0  0  0  0  0  0  0  0  0  0  0  0
   -0.6787    0.2255    2.8976 H   0  0  0  0  0  0  0  0  0  0  0  0
    0.7027    0.7800    3.5685 H   0  0  0  0  0  0  0  0  0  0  0  0
   -0.6249    0.4493    4.5880 H   0  0  0  0  0  0  0  0  0  0  0  0
    0.4511   -1.2632    3.7886 C   0  0  0  0  0  0  0  0  0  0  0  0
    1.2103   -1.2864    4.4306 H   0  0  0  0  0  0  0  0  0  0  0  0
   -0.2816   -1.8606    4.0970 H   0  0  0  0  0  0  0  0  0  0  0  0
    0.9416   -1.7544    2.4410 C   0  0  0  0  0  0  0  0  0  0  0  0
    0.4746   -1.2351    1.7168 H   0  0  0  0  0  0  0  0  0  0  0  0
    1.9300   -1.5807    2.3726 H   0  0  0  0  0  0  0  0  0  0  0  0
    0.7514   -2.8187    2.3023 H   0  0  0  0  0  0  0  0  0  0  0  0
  1  5  1  0
  5  6  1  0
  5  7  2  0
  1  2  1  0
  1  3  1  0
  1  4  1  0
  8 12  1  0
 12 15  1  0
  8  9  1  0
  8 10  1  0
  8 11  1  0
 12 13  1  0
 12 14  1  0
 15 16  1  0
 15 17  1  0
 15 18  1  0
M  CHG  1   6  -1
M  END
>  <PDB_ID>  (1981) 
pdb5y5a

>  <RESIDUE_NAME>  (1981) 
GLU   LYS

>  <FRAG_NAME>  (1981) 
ACET   PRPA

>  <FRAG_ATOM_NUM>  (1981) 
fragi: 7  fragj: 11

>  <atom.prop.CHAIN_ID>  (1981) 
A A A A A A A Z Z Z Z Z Z Z Z Z Z Z

>  <atom.prop.IS_HEAVY_ATOM>  (1981) 
1 0 0 0 1 1 1 1 0 0 0 1 0 0 1 0 0 0

>  <DIFUSE_FUNC_ATOM>  (1981) 
atom 6   atom 7   

>  <FINAL_SINGLE_POINT_ENERGY>  (1981) 
0

>  <NONCOV_INTER_ENERGY_QM>  (1981) 
0

>  <FF_Energy>  (1981) 
19.64

>  <QM_Energy>  (1981) 
1.68

>  <source>  (1981) 
ACET_PRPA_27

>  <Index>  (1981) 
23515

$$$$
ACET-pdb5ycd-A-ASP-3:PRPA-pdb5ycd-A-LYS-6
     RDKit          3D

 18 16  0  0  0  0  0  0  0  0999 V2000
    0.0612    1.5347   -0.0426 C   0  0  0  0  0  0  0  0  0  0  0  0
    0.2577    1.8190   -0.9794 H   0  0  0  0  0  0  0  0  0  0  0  0
    0.7934    1.8406    0.5625 H   0  0  0  0  0  0  0  0  0  0  0  0
   -0.8525    2.0419    0.2673 H   0  0  0  0  0  0  0  0  0  0  0  0
    0.0000    0.0000    0.0000 C   0  0  0  0  0  0  0  0  0  0  0  0
   -1.0872   -0.5917   -0.0000 O   0  0  0  0  0  1  0  0  0  0  0  0
    1.0872   -0.6107   -0.0000 O   0  0  0  0  0  0  0  0  0  0  0  0
   -3.2594   -2.1056   -1.1133 C   0  0  0  0  0  0  0  0  0  0  0  0
   -2.3944   -1.9959   -0.5956 H   0  0  0  0  0  0  0  0  0  0  0  0
   -3.2376   -3.0238   -1.5431 H   0  0  0  0  0  0  0  0  0  0  0  0
   -4.0851   -2.0839   -0.4021 H   0  0  0  0  0  0  0  0  0  0  0  0
   -3.2379   -1.0584   -2.2685 C   0  0  0  0  0  0  0  0  0  0  0  0
   -2.5346   -1.3544   -2.9439 H   0  0  0  0  0  0  0  0  0  0  0  0
   -4.1362   -1.1031   -2.7460 H   0  0  0  0  0  0  0  0  0  0  0  0
   -2.9605    0.3975   -1.8774 C   0  0  0  0  0  0  0  0  0  0  0  0
   -3.6133    0.6627   -1.1733 H   0  0  0  0  0  0  0  0  0  0  0  0
   -2.0318    0.4554   -1.5220 H   0  0  0  0  0  0  0  0  0  0  0  0
   -3.0594    1.0730   -2.7271 H   0  0  0  0  0  0  0  0  0  0  0  0
  1  5  1  0
  5  6  1  0
  5  7  2  0
  1  2  1  0
  1  3  1  0
  1  4  1  0
  8 12  1  0
 12 15  1  0
  8  9  1  0
  8 10  1  0
  8 11  1  0
 12 13  1  0
 12 14  1  0
 15 16  1  0
 15 17  1  0
 15 18  1  0
M  CHG  1   6  -1
M  END
>  <PDB_ID>  (1982) 
pdb5ycd

>  <RESIDUE_NAME>  (1982) 
ASP   LYS

>  <FRAG_NAME>  (1982) 
ACET   PRPA

>  <FRAG_ATOM_NUM>  (1982) 
fragi: 7  fragj: 11

>  <atom.prop.CHAIN_ID>  (1982) 
A A A A A A A Z Z Z Z Z Z Z Z Z Z Z

>  <atom.prop.IS_HEAVY_ATOM>  (1982) 
1 0 0 0 1 1 1 1 0 0 0 1 0 0 1 0 0 0

>  <DIFUSE_FUNC_ATOM>  (1982) 
atom 6   atom 7   

>  <FINAL_SINGLE_POINT_ENERGY>  (1982) 
0

>  <NONCOV_INTER_ENERGY_QM>  (1982) 
0

>  <FF_Energy>  (1982) 
14.57

>  <QM_Energy>  (1982) 
-0.57

>  <source>  (1982) 
ACET_PRPA_27

>  <Index>  (1982) 
24351

$$$$
ACET-pdb5yqg-A-GLU-185:PRPA-pdb5yqg-A-VAL-181
     RDKit          3D

 18 16  0  0  0  0  0  0  0  0999 V2000
    0.1748    1.4843    0.0155 C   0  0  0  0  0  0  0  0  0  0  0  0
    0.6954    1.7401   -0.8019 H   0  0  0  0  0  0  0  0  0  0  0  0
    0.7074    1.7213    0.8299 H   0  0  0  0  0  0  0  0  0  0  0  0
   -0.7352    2.0843    0.0276 H   0  0  0  0  0  0  0  0  0  0  0  0
    0.0000    0.0000    0.0000 C   0  0  0  0  0  0  0  0  0  0  0  0
   -1.0893   -0.5577   -0.0000 O   0  0  0  0  0  1  0  0  0  0  0  0
    1.0893   -0.6084    0.0000 O   0  0  0  0  0  0  0  0  0  0  0  0
    1.8813    1.0139    4.1060 C   0  0  0  0  0  0  0  0  0  0  0  0
    2.4602    1.3803    3.3735 H   0  0  0  0  0  0  0  0  0  0  0  0
    2.4058    1.1525    5.0514 H   0  0  0  0  0  0  0  0  0  0  0  0
    0.9461    1.5738    4.1118 H   0  0  0  0  0  0  0  0  0  0  0  0
    1.6408   -0.4821    3.8153 C   0  0  0  0  0  0  0  0  0  0  0  0
    1.1457   -0.8695    4.5865 H   0  0  0  0  0  0  0  0  0  0  0  0
    2.5828   -1.0087    3.6628 H   0  0  0  0  0  0  0  0  0  0  0  0
    0.7384   -0.6751    2.5754 C   0  0  0  0  0  0  0  0  0  0  0  0
    1.1806   -0.2577    1.7872 H   0  0  0  0  0  0  0  0  0  0  0  0
    0.6102   -1.6504    2.4187 H   0  0  0  0  0  0  0  0  0  0  0  0
   -0.1408   -0.2383    2.7451 H   0  0  0  0  0  0  0  0  0  0  0  0
  1  5  1  0
  5  6  1  0
  5  7  2  0
  1  2  1  0
  1  3  1  0
  1  4  1  0
  8 12  1  0
 12 15  1  0
  8  9  1  0
  8 10  1  0
  8 11  1  0
 12 13  1  0
 12 14  1  0
 15 16  1  0
 15 17  1  0
 15 18  1  0
M  CHG  1   6  -1
M  END
>  <PDB_ID>  (1983) 
pdb5yqg

>  <RESIDUE_NAME>  (1983) 
GLU   VAL

>  <FRAG_NAME>  (1983) 
ACET   PRPA

>  <FRAG_ATOM_NUM>  (1983) 
fragi: 7  fragj: 11

>  <atom.prop.CHAIN_ID>  (1983) 
A A A A A A A Z Z Z Z Z Z Z Z Z Z Z

>  <atom.prop.IS_HEAVY_ATOM>  (1983) 
1 0 0 0 1 1 1 1 0 0 0 1 0 0 1 0 0 0

>  <DIFUSE_FUNC_ATOM>  (1983) 
atom 6   atom 7   

>  <FINAL_SINGLE_POINT_ENERGY>  (1983) 
0

>  <NONCOV_INTER_ENERGY_QM>  (1983) 
0

>  <FF_Energy>  (1983) 
40.2

>  <QM_Energy>  (1983) 
6.69

>  <source>  (1983) 
ACET_PRPA_27

>  <Index>  (1983) 
29712

$$$$
ACET-pdb5z0y-A-GLU-20:PRPA-pdb5z0y-A-PRO-23
     RDKit          3D

 18 16  0  0  0  0  0  0  0  0999 V2000
    0.1781    1.4853    0.0117 C   0  0  0  0  0  0  0  0  0  0  0  0
    0.6968    1.7381   -0.8055 H   0  0  0  0  0  0  0  0  0  0  0  0
    0.7085    1.7223    0.8267 H   0  0  0  0  0  0  0  0  0  0  0  0
   -0.7322    2.0846    0.0231 H   0  0  0  0  0  0  0  0  0  0  0  0
    0.0000    0.0000    0.0000 C   0  0  0  0  0  0  0  0  0  0  0  0
   -1.0895   -0.5562   -0.0000 O   0  0  0  0  0  1  0  0  0  0  0  0
    1.0895   -0.6091   -0.0000 O   0  0  0  0  0  0  0  0  0  0  0  0
    3.4351   -1.2242    0.3271 C   0  0  0  0  0  0  0  0  0  0  0  0
    4.4732   -1.2847    0.3703 H   0  0  0  0  0  0  0  0  0  0  0  0
    3.0877   -0.4022    0.9529 H   0  0  0  0  0  0  0  0  0  0  0  0
    3.1145   -1.2624   -0.7140 H   0  0  0  0  0  0  0  0  0  0  0  0
    2.9494   -2.4758    1.0968 C   0  0  0  0  0  0  0  0  0  0  0  0
    2.5013   -3.1212    0.4605 H   0  0  0  0  0  0  0  0  0  0  0  0
    3.7361   -2.9528    1.5152 H   0  0  0  0  0  0  0  0  0  0  0  0
    1.9928   -2.0012    2.1404 C   0  0  0  0  0  0  0  0  0  0  0  0
    1.1032   -2.4911    2.0502 H   0  0  0  0  0  0  0  0  0  0  0  0
    2.3502   -2.2206    3.0693 H   0  0  0  0  0  0  0  0  0  0  0  0
    1.8548   -0.9263    2.0242 H   0  0  0  0  0  0  0  0  0  0  0  0
  1  5  1  0
  5  6  1  0
  5  7  2  0
  1  2  1  0
  1  3  1  0
  1  4  1  0
  8 12  1  0
 12 15  1  0
  8  9  1  0
  8 10  1  0
  8 11  1  0
 12 13  1  0
 12 14  1  0
 15 16  1  0
 15 17  1  0
 15 18  1  0
M  CHG  1   6  -1
M  END
>  <PDB_ID>  (1984) 
pdb5z0y

>  <RESIDUE_NAME>  (1984) 
GLU   PRO

>  <FRAG_NAME>  (1984) 
ACET   PRPA

>  <FRAG_ATOM_NUM>  (1984) 
fragi: 7  fragj: 11

>  <atom.prop.CHAIN_ID>  (1984) 
A A A A A A A Z Z Z Z Z Z Z Z Z Z Z

>  <atom.prop.IS_HEAVY_ATOM>  (1984) 
1 0 0 0 1 1 1 1 0 0 0 1 0 0 1 0 0 0

>  <DIFUSE_FUNC_ATOM>  (1984) 
atom 6   atom 7   

>  <FINAL_SINGLE_POINT_ENERGY>  (1984) 
0

>  <NONCOV_INTER_ENERGY_QM>  (1984) 
0

>  <FF_Energy>  (1984) 
25.03

>  <QM_Energy>  (1984) 
4.72

>  <source>  (1984) 
ACET_PRPA_27

>  <Index>  (1984) 
30145

$$$$
ACET-pdb5z1v-B-GLU-33:PRPA-pdb5z1v-B-PRO-30
     RDKit          3D

 18 16  0  0  0  0  0  0  0  0999 V2000
   -0.0111    1.5090   -0.0217 C   0  0  0  0  0  0  0  0  0  0  0  0
   -0.8000    1.8128    0.4842 H   0  0  0  0  0  0  0  0  0  0  0  0
   -0.0480    1.7971   -0.9640 H   0  0  0  0  0  0  0  0  0  0  0  0
    0.8726    1.9559    0.4337 H   0  0  0  0  0  0  0  0  0  0  0  0
    0.0000    0.0000    0.0000 C   0  0  0  0  0  0  0  0  0  0  0  0
   -1.0980   -0.5934    0.0000 O   0  0  0  0  0  1  0  0  0  0  0  0
    1.0980   -0.5965    0.0000 O   0  0  0  0  0  0  0  0  0  0  0  0
   -0.1192    3.5829   -3.2373 C   0  0  0  0  0  0  0  0  0  0  0  0
   -0.9112    3.2195   -2.7278 H   0  0  0  0  0  0  0  0  0  0  0  0
   -0.3189    3.5055   -4.2223 H   0  0  0  0  0  0  0  0  0  0  0  0
    0.0635    4.6225   -2.9654 H   0  0  0  0  0  0  0  0  0  0  0  0
    1.1266    2.8434   -2.8851 C   0  0  0  0  0  0  0  0  0  0  0  0
    0.9975    2.3173   -2.0203 H   0  0  0  0  0  0  0  0  0  0  0  0
    1.3498    2.1570   -3.6062 H   0  0  0  0  0  0  0  0  0  0  0  0
    2.2725    3.8291   -2.7299 C   0  0  0  0  0  0  0  0  0  0  0  0
    2.7454    3.6974   -1.8604 H   0  0  0  0  0  0  0  0  0  0  0  0
    2.9255    3.7439   -3.4821 H   0  0  0  0  0  0  0  0  0  0  0  0
    1.7778    4.7999   -2.7565 H   0  0  0  0  0  0  0  0  0  0  0  0
  1  5  1  0
  5  6  1  0
  5  7  2  0
  1  2  1  0
  1  3  1  0
  1  4  1  0
  8 12  1  0
 12 15  1  0
  8  9  1  0
  8 10  1  0
  8 11  1  0
 12 13  1  0
 12 14  1  0
 15 16  1  0
 15 17  1  0
 15 18  1  0
M  CHG  1   6  -1
M  END
>  <PDB_ID>  (1985) 
pdb5z1v

>  <RESIDUE_NAME>  (1985) 
GLU   PRO

>  <FRAG_NAME>  (1985) 
ACET   PRPA

>  <FRAG_ATOM_NUM>  (1985) 
fragi: 7  fragj: 11

>  <atom.prop.CHAIN_ID>  (1985) 
A A A A A A A Z Z Z Z Z Z Z Z Z Z Z

>  <atom.prop.IS_HEAVY_ATOM>  (1985) 
1 0 0 0 1 1 1 1 0 0 0 1 0 0 1 0 0 0

>  <DIFUSE_FUNC_ATOM>  (1985) 
atom 6   atom 7   

>  <FINAL_SINGLE_POINT_ENERGY>  (1985) 
0

>  <NONCOV_INTER_ENERGY_QM>  (1985) 
0

>  <FF_Energy>  (1985) 
18.19

>  <QM_Energy>  (1985) 
1.69

>  <source>  (1985) 
ACET_PRPA_27

>  <Index>  (1985) 
30153

$$$$
ACET-pdb5z8l-A-ASP-43:PRPA-pdb5z8l-A-LYS-46
     RDKit          3D

 18 16  0  0  0  0  0  0  0  0999 V2000
   -0.0187    1.5192    0.0103 C   0  0  0  0  0  0  0  0  0  0  0  0
    0.8707    1.8453    0.3035 H   0  0  0  0  0  0  0  0  0  0  0  0
   -0.7287    1.8247    0.6321 H   0  0  0  0  0  0  0  0  0  0  0  0
   -0.2262    1.9381   -0.9745 H   0  0  0  0  0  0  0  0  0  0  0  0
    0.0000    0.0000    0.0000 C   0  0  0  0  0  0  0  0  0  0  0  0
   -1.0975   -0.6039   -0.0000 O   0  0  0  0  0  1  0  0  0  0  0  0
    1.0975   -0.5884   -0.0000 O   0  0  0  0  0  0  0  0  0  0  0  0
    4.2455   -1.1135    0.8830 C   0  0  0  0  0  0  0  0  0  0  0  0
    4.8889   -1.8492    1.0933 H   0  0  0  0  0  0  0  0  0  0  0  0
    4.6293   -0.2394    1.1789 H   0  0  0  0  0  0  0  0  0  0  0  0
    4.0803   -1.0833   -0.1940 H   0  0  0  0  0  0  0  0  0  0  0  0
    2.9495   -1.3625    1.6347 C   0  0  0  0  0  0  0  0  0  0  0  0
    2.3185   -0.6177    1.4448 H   0  0  0  0  0  0  0  0  0  0  0  0
    2.5639   -2.2289    1.3363 H   0  0  0  0  0  0  0  0  0  0  0  0
    3.1844   -1.4282    3.1347 C   0  0  0  0  0  0  0  0  0  0  0  0
    3.8188   -2.1810    3.3320 H   0  0  0  0  0  0  0  0  0  0  0  0
    3.6017   -0.5657    3.4373 H   0  0  0  0  0  0  0  0  0  0  0  0
    2.2574   -1.5888    3.6851 H   0  0  0  0  0  0  0  0  0  0  0  0
  1  5  1  0
  5  6  1  0
  5  7  2  0
  1  2  1  0
  1  3  1  0
  1  4  1  0
  8 12  1  0
 12 15  1  0
  8  9  1  0
  8 10  1  0
  8 11  1  0
 12 13  1  0
 12 14  1  0
 15 16  1  0
 15 17  1  0
 15 18  1  0
M  CHG  1   6  -1
M  END
>  <PDB_ID>  (1986) 
pdb5z8l

>  <RESIDUE_NAME>  (1986) 
ASP   LYS

>  <FRAG_NAME>  (1986) 
ACET   PRPA

>  <FRAG_ATOM_NUM>  (1986) 
fragi: 7  fragj: 11

>  <atom.prop.CHAIN_ID>  (1986) 
A A A A A A A Z Z Z Z Z Z Z Z Z Z Z

>  <atom.prop.IS_HEAVY_ATOM>  (1986) 
1 0 0 0 1 1 1 1 0 0 0 1 0 0 1 0 0 0

>  <DIFUSE_FUNC_ATOM>  (1986) 
atom 6   atom 7   

>  <FINAL_SINGLE_POINT_ENERGY>  (1986) 
0

>  <NONCOV_INTER_ENERGY_QM>  (1986) 
0

>  <FF_Energy>  (1986) 
20.7

>  <QM_Energy>  (1986) 
2.92

>  <source>  (1986) 
ACET_PRPA_27

>  <Index>  (1986) 
31104

$$$$
ACET-pdb5zkn-A-GLU-105:PRPA-pdb5zkn-A-ARG-109
     RDKit          3D

 18 16  0  0  0  0  0  0  0  0999 V2000
    0.0278    1.5285    0.0004 C   0  0  0  0  0  0  0  0  0  0  0  0
    0.2109    1.8199   -0.9219 H   0  0  0  0  0  0  0  0  0  0  0  0
    0.7351    1.8096    0.6238 H   0  0  0  0  0  0  0  0  0  0  0  0
   -0.9105    1.9816    0.3207 H   0  0  0  0  0  0  0  0  0  0  0  0
    0.0000    0.0000    0.0000 C   0  0  0  0  0  0  0  0  0  0  0  0
   -1.0970   -0.6055    0.0000 O   0  0  0  0  0  1  0  0  0  0  0  0
    1.0970   -0.6110    0.0000 O   0  0  0  0  0  0  0  0  0  0  0  0
    4.1680   -1.2100    1.7845 C   0  0  0  0  0  0  0  0  0  0  0  0
    5.0946   -1.5559    1.9383 H   0  0  0  0  0  0  0  0  0  0  0  0
    3.5058   -1.8633    2.1535 H   0  0  0  0  0  0  0  0  0  0  0  0
    4.0617   -0.2739    2.3327 H   0  0  0  0  0  0  0  0  0  0  0  0
    3.9450   -1.1162    0.2806 C   0  0  0  0  0  0  0  0  0  0  0  0
    3.0184   -0.7779    0.1116 H   0  0  0  0  0  0  0  0  0  0  0  0
    4.6078   -0.4716   -0.1047 H   0  0  0  0  0  0  0  0  0  0  0  0
    4.1102   -2.4366   -0.3863 C   0  0  0  0  0  0  0  0  0  0  0  0
    5.0368   -2.7707   -0.2153 H   0  0  0  0  0  0  0  0  0  0  0  0
    3.4475   -3.0780    0.0021 H   0  0  0  0  0  0  0  0  0  0  0  0
    3.9512   -2.3737   -1.4628 H   0  0  0  0  0  0  0  0  0  0  0  0
  1  5  1  0
  5  6  1  0
  5  7  2  0
  1  2  1  0
  1  3  1  0
  1  4  1  0
  8 12  1  0
 12 15  1  0
  8  9  1  0
  8 10  1  0
  8 11  1  0
 12 13  1  0
 12 14  1  0
 15 16  1  0
 15 17  1  0
 15 18  1  0
M  CHG  1   6  -1
M  END
>  <PDB_ID>  (1987) 
pdb5zkn

>  <RESIDUE_NAME>  (1987) 
GLU   ARG

>  <FRAG_NAME>  (1987) 
ACET   PRPA

>  <FRAG_ATOM_NUM>  (1987) 
fragi: 7  fragj: 11

>  <atom.prop.CHAIN_ID>  (1987) 
A A A A A A A Z Z Z Z Z Z Z Z Z Z Z

>  <atom.prop.IS_HEAVY_ATOM>  (1987) 
1 0 0 0 1 1 1 1 0 0 0 1 0 0 1 0 0 0

>  <DIFUSE_FUNC_ATOM>  (1987) 
atom 6   atom 7   

>  <FINAL_SINGLE_POINT_ENERGY>  (1987) 
0

>  <NONCOV_INTER_ENERGY_QM>  (1987) 
0

>  <FF_Energy>  (1987) 
12.82

>  <QM_Energy>  (1987) 
-2.37

>  <source>  (1987) 
ACET_PRPA_27

>  <Index>  (1987) 
34584

$$$$
ACET-pdb5z1z-C-ASP-279:PRPA-pdb5z1z-C-ARG-282
     RDKit          3D

 18 16  0  0  0  0  0  0  0  0999 V2000
   -0.0006    1.5155   -0.0004 C   0  0  0  0  0  0  0  0  0  0  0  0
   -0.9404    1.8351    0.0382 H   0  0  0  0  0  0  0  0  0  0  0  0
    0.4435    1.8353   -0.8283 H   0  0  0  0  0  0  0  0  0  0  0  0
    0.5328    1.9352    0.8526 H   0  0  0  0  0  0  0  0  0  0  0  0
    0.0000    0.0000    0.0000 C   0  0  0  0  0  0  0  0  0  0  0  0
   -1.0979   -0.5968   -0.0000 O   0  0  0  0  0  1  0  0  0  0  0  0
    1.0979   -0.5966   -0.0000 O   0  0  0  0  0  0  0  0  0  0  0  0
   -0.3945    3.8889   -2.6312 C   0  0  0  0  0  0  0  0  0  0  0  0
   -0.4234    3.4849   -1.7113 H   0  0  0  0  0  0  0  0  0  0  0  0
   -1.2791    3.7288   -3.0793 H   0  0  0  0  0  0  0  0  0  0  0  0
   -0.2441    4.9641   -2.5337 H   0  0  0  0  0  0  0  0  0  0  0  0
    0.6638    3.1460   -3.4265 C   0  0  0  0  0  0  0  0  0  0  0  0
    0.4134    3.1400   -4.3880 H   0  0  0  0  0  0  0  0  0  0  0  0
    1.5455    3.5876   -3.3001 H   0  0  0  0  0  0  0  0  0  0  0  0
    0.7784    1.7109   -2.9537 C   0  0  0  0  0  0  0  0  0  0  0  0
    1.2214    1.7199   -2.0515 H   0  0  0  0  0  0  0  0  0  0  0  0
   -0.1541    1.3475   -2.8509 H   0  0  0  0  0  0  0  0  0  0  0  0
    1.3458    1.0749   -3.6330 H   0  0  0  0  0  0  0  0  0  0  0  0
  1  5  1  0
  5  6  1  0
  5  7  2  0
  1  2  1  0
  1  3  1  0
  1  4  1  0
  8 12  1  0
 12 15  1  0
  8  9  1  0
  8 10  1  0
  8 11  1  0
 12 13  1  0
 12 14  1  0
 15 16  1  0
 15 17  1  0
 15 18  1  0
M  CHG  1   6  -1
M  END
>  <PDB_ID>  (1988) 
pdb5z1z

>  <RESIDUE_NAME>  (1988) 
ASP   ARG

>  <FRAG_NAME>  (1988) 
ACET   PRPA

>  <FRAG_ATOM_NUM>  (1988) 
fragi: 7  fragj: 11

>  <atom.prop.CHAIN_ID>  (1988) 
A A A A A A A Z Z Z Z Z Z Z Z Z Z Z

>  <atom.prop.IS_HEAVY_ATOM>  (1988) 
1 0 0 0 1 1 1 1 0 0 0 1 0 0 1 0 0 0

>  <DIFUSE_FUNC_ATOM>  (1988) 
atom 6   atom 7   

>  <FINAL_SINGLE_POINT_ENERGY>  (1988) 
0

>  <NONCOV_INTER_ENERGY_QM>  (1988) 
0

>  <FF_Energy>  (1988) 
46.96

>  <QM_Energy>  (1988) 
6.52

>  <source>  (1988) 
ACET_PRPA_27

>  <Index>  (1988) 
35660

$$$$
ACET-pdb5ymr-A-ASP-790:PRPA-pdb5ymr-A-LYS-793
     RDKit          3D

 18 16  0  0  0  0  0  0  0  0999 V2000
    0.0082    1.5154    0.0011 C   0  0  0  0  0  0  0  0  0  0  0  0
    0.8387    1.8306   -0.4459 H   0  0  0  0  0  0  0  0  0  0  0  0
   -0.0220    1.8337    0.9414 H   0  0  0  0  0  0  0  0  0  0  0  0
   -0.8443    1.9403   -0.5289 H   0  0  0  0  0  0  0  0  0  0  0  0
    0.0000    0.0000    0.0000 C   0  0  0  0  0  0  0  0  0  0  0  0
   -1.0978   -0.6033   -0.0000 O   0  0  0  0  0  1  0  0  0  0  0  0
    1.0978   -0.5939   -0.0000 O   0  0  0  0  0  0  0  0  0  0  0  0
   -2.3675   -1.8624    3.1340 C   0  0  0  0  0  0  0  0  0  0  0  0
   -2.3335   -2.8500    3.3399 H   0  0  0  0  0  0  0  0  0  0  0  0
   -2.8962   -1.7163    2.1922 H   0  0  0  0  0  0  0  0  0  0  0  0
   -2.8726   -1.3521    3.9542 H   0  0  0  0  0  0  0  0  0  0  0  0
   -0.9260   -1.3812    3.0013 C   0  0  0  0  0  0  0  0  0  0  0  0
   -0.9404   -0.4049    2.7726 H   0  0  0  0  0  0  0  0  0  0  0  0
   -0.4727   -1.5005    3.8883 H   0  0  0  0  0  0  0  0  0  0  0  0
   -0.0987   -2.1024    1.9457 C   0  0  0  0  0  0  0  0  0  0  0  0
   -0.0693   -3.0797    2.1690 H   0  0  0  0  0  0  0  0  0  0  0  0
   -0.5367   -1.9841    1.0519 H   0  0  0  0  0  0  0  0  0  0  0  0
    0.9208   -1.7204    1.8945 H   0  0  0  0  0  0  0  0  0  0  0  0
  1  5  1  0
  5  6  1  0
  5  7  2  0
  1  2  1  0
  1  3  1  0
  1  4  1  0
  8 12  1  0
 12 15  1  0
  8  9  1  0
  8 10  1  0
  8 11  1  0
 12 13  1  0
 12 14  1  0
 15 16  1  0
 15 17  1  0
 15 18  1  0
M  CHG  1   6  -1
M  END
>  <PDB_ID>  (1989) 
pdb5ymr

>  <RESIDUE_NAME>  (1989) 
ASP   LYS

>  <FRAG_NAME>  (1989) 
ACET   PRPA

>  <FRAG_ATOM_NUM>  (1989) 
fragi: 7  fragj: 11

>  <atom.prop.CHAIN_ID>  (1989) 
A A A A A A A Z Z Z Z Z Z Z Z Z Z Z

>  <atom.prop.IS_HEAVY_ATOM>  (1989) 
1 0 0 0 1 1 1 1 0 0 0 1 0 0 1 0 0 0

>  <DIFUSE_FUNC_ATOM>  (1989) 
atom 6   atom 7   

>  <FINAL_SINGLE_POINT_ENERGY>  (1989) 
0

>  <NONCOV_INTER_ENERGY_QM>  (1989) 
0

>  <FF_Energy>  (1989) 
37.46

>  <QM_Energy>  (1989) 
5.08

>  <source>  (1989) 
ACET_PRPA_27

>  <Index>  (1989) 
35692

$$$$
ACET-pdb5ze6-A-GLU-289:PRPA-pdb5ze6-A-VAL-319
     RDKit          3D

 18 16  0  0  0  0  0  0  0  0999 V2000
   -0.0335    1.5090   -0.0194 C   0  0  0  0  0  0  0  0  0  0  0  0
   -0.4648    1.8085    0.8277 H   0  0  0  0  0  0  0  0  0  0  0  0
   -0.5889    1.7846   -0.8003 H   0  0  0  0  0  0  0  0  0  0  0  0
    0.9349    2.0029   -0.0992 H   0  0  0  0  0  0  0  0  0  0  0  0
    0.0000    0.0000    0.0000 C   0  0  0  0  0  0  0  0  0  0  0  0
   -1.1157   -0.5960   -0.0000 O   0  0  0  0  0  1  0  0  0  0  0  0
    1.1157   -0.5696   -0.0000 O   0  0  0  0  0  0  0  0  0  0  0  0
   -4.7889    3.8300    0.5520 C   0  0  0  0  0  0  0  0  0  0  0  0
   -5.0287    3.9911   -0.4145 H   0  0  0  0  0  0  0  0  0  0  0  0
   -5.2572    4.6052    1.1585 H   0  0  0  0  0  0  0  0  0  0  0  0
   -5.1527    2.8370    0.8159 H   0  0  0  0  0  0  0  0  0  0  0  0
   -3.2512    3.9668    0.6022 C   0  0  0  0  0  0  0  0  0  0  0  0
   -2.9616    3.7085    1.5164 H   0  0  0  0  0  0  0  0  0  0  0  0
   -2.9378    4.9627    0.2892 H   0  0  0  0  0  0  0  0  0  0  0  0
   -2.6287    2.9998   -0.3631 C   0  0  0  0  0  0  0  0  0  0  0  0
   -3.1191    2.1248   -0.3381 H   0  0  0  0  0  0  0  0  0  0  0  0
   -2.6695    3.3695   -1.2951 H   0  0  0  0  0  0  0  0  0  0  0  0
   -1.6685    2.8403   -0.1198 H   0  0  0  0  0  0  0  0  0  0  0  0
  1  5  1  0
  5  6  1  0
  5  7  2  0
  1  2  1  0
  1  3  1  0
  1  4  1  0
  8 12  1  0
 12 15  1  0
  8  9  1  0
  8 10  1  0
  8 11  1  0
 12 13  1  0
 12 14  1  0
 15 16  1  0
 15 17  1  0
 15 18  1  0
M  CHG  1   6  -1
M  END
>  <PDB_ID>  (1990) 
pdb5ze6

>  <RESIDUE_NAME>  (1990) 
GLU   VAL

>  <FRAG_NAME>  (1990) 
ACET   PRPA

>  <FRAG_ATOM_NUM>  (1990) 
fragi: 7  fragj: 11

>  <atom.prop.CHAIN_ID>  (1990) 
A A A A A A A Z Z Z Z Z Z Z Z Z Z Z

>  <atom.prop.IS_HEAVY_ATOM>  (1990) 
1 0 0 0 1 1 1 1 0 0 0 1 0 0 1 0 0 0

>  <DIFUSE_FUNC_ATOM>  (1990) 
atom 6   atom 7   

>  <FINAL_SINGLE_POINT_ENERGY>  (1990) 
0

>  <NONCOV_INTER_ENERGY_QM>  (1990) 
0

>  <FF_Energy>  (1990) 
22.31

>  <QM_Energy>  (1990) 
5.98

>  <source>  (1990) 
ACET_PRPA_27

>  <Index>  (1990) 
35802

$$$$
ACET-pdb5yzm-B-GLU-277:PRPA-pdb5yzm-B-LYS-273
     RDKit          3D

 18 16  0  0  0  0  0  0  0  0999 V2000
    0.0093    1.5157   -0.0052 C   0  0  0  0  0  0  0  0  0  0  0  0
    0.5909    1.8082   -0.7442 H   0  0  0  0  0  0  0  0  0  0  0  0
    0.3478    1.8155    0.8697 H   0  0  0  0  0  0  0  0  0  0  0  0
   -0.9774    1.9534   -0.1566 H   0  0  0  0  0  0  0  0  0  0  0  0
    0.0000    0.0000    0.0000 C   0  0  0  0  0  0  0  0  0  0  0  0
   -1.0997   -0.5956   -0.0000 O   0  0  0  0  0  1  0  0  0  0  0  0
    1.0997   -0.5940    0.0000 O   0  0  0  0  0  0  0  0  0  0  0  0
   -0.7608    1.2863   -3.9235 C   0  0  0  0  0  0  0  0  0  0  0  0
   -0.0864    1.9996   -3.7245 H   0  0  0  0  0  0  0  0  0  0  0  0
   -1.4351    1.2576   -3.1824 H   0  0  0  0  0  0  0  0  0  0  0  0
   -1.2800    1.5576   -4.8427 H   0  0  0  0  0  0  0  0  0  0  0  0
   -0.0392   -0.0526   -3.9639 C   0  0  0  0  0  0  0  0  0  0  0  0
   -0.7068   -0.7763   -4.1564 H   0  0  0  0  0  0  0  0  0  0  0  0
    0.6431   -0.0333   -4.6975 H   0  0  0  0  0  0  0  0  0  0  0  0
    0.6561   -0.3600   -2.6528 C   0  0  0  0  0  0  0  0  0  0  0  0
    1.3206    0.3649   -2.4631 H   0  0  0  0  0  0  0  0  0  0  0  0
   -0.0283   -0.3791   -1.9211 H   0  0  0  0  0  0  0  0  0  0  0  0
    1.1780   -1.3169   -2.6654 H   0  0  0  0  0  0  0  0  0  0  0  0
  1  5  1  0
  5  6  1  0
  5  7  2  0
  1  2  1  0
  1  3  1  0
  1  4  1  0
  8 12  1  0
 12 15  1  0
  8  9  1  0
  8 10  1  0
  8 11  1  0
 12 13  1  0
 12 14  1  0
 15 16  1  0
 15 17  1  0
 15 18  1  0
M  CHG  1   6  -1
M  END
>  <PDB_ID>  (1991) 
pdb5yzm

>  <RESIDUE_NAME>  (1991) 
GLU   LYS

>  <FRAG_NAME>  (1991) 
ACET   PRPA

>  <FRAG_ATOM_NUM>  (1991) 
fragi: 7  fragj: 11

>  <atom.prop.CHAIN_ID>  (1991) 
A A A A A A A Z Z Z Z Z Z Z Z Z Z Z

>  <atom.prop.IS_HEAVY_ATOM>  (1991) 
1 0 0 0 1 1 1 1 0 0 0 1 0 0 1 0 0 0

>  <DIFUSE_FUNC_ATOM>  (1991) 
atom 6   atom 7   

>  <FINAL_SINGLE_POINT_ENERGY>  (1991) 
0

>  <NONCOV_INTER_ENERGY_QM>  (1991) 
0

>  <FF_Energy>  (1991) 
35.06

>  <QM_Energy>  (1991) 
3.9

>  <source>  (1991) 
ACET_PRPA_27

>  <Index>  (1991) 
36020

$$$$
ACET-pdb5yzm-B-GLU-277:PRPA-pdb5yzm-B-LYS-273
     RDKit          3D

 18 16  0  0  0  0  0  0  0  0999 V2000
    0.0093    1.5157   -0.0052 C   0  0  0  0  0  0  0  0  0  0  0  0
    0.5909    1.8082   -0.7442 H   0  0  0  0  0  0  0  0  0  0  0  0
    0.3478    1.8155    0.8697 H   0  0  0  0  0  0  0  0  0  0  0  0
   -0.9774    1.9534   -0.1566 H   0  0  0  0  0  0  0  0  0  0  0  0
    0.0000    0.0000    0.0000 C   0  0  0  0  0  0  0  0  0  0  0  0
   -1.0997   -0.5956   -0.0000 O   0  0  0  0  0  1  0  0  0  0  0  0
    1.0997   -0.5940    0.0000 O   0  0  0  0  0  0  0  0  0  0  0  0
   -0.0392   -0.0526   -3.9639 C   0  0  0  0  0  0  0  0  0  0  0  0
   -0.7068   -0.7763   -4.1564 H   0  0  0  0  0  0  0  0  0  0  0  0
    0.6431   -0.0333   -4.6975 H   0  0  0  0  0  0  0  0  0  0  0  0
   -0.5562    0.9066   -3.9349 H   0  0  0  0  0  0  0  0  0  0  0  0
    0.6561   -0.3600   -2.6528 C   0  0  0  0  0  0  0  0  0  0  0  0
    1.3206    0.3649   -2.4631 H   0  0  0  0  0  0  0  0  0  0  0  0
   -0.0283   -0.3791   -1.9211 H   0  0  0  0  0  0  0  0  0  0  0  0
    1.3792   -1.6858   -2.6703 C   0  0  0  0  0  0  0  0  0  0  0  0
    0.7207   -2.4170   -2.8544 H   0  0  0  0  0  0  0  0  0  0  0  0
    2.0696   -1.6740   -3.3954 H   0  0  0  0  0  0  0  0  0  0  0  0
    1.8669   -1.8740   -1.7138 H   0  0  0  0  0  0  0  0  0  0  0  0
  1  5  1  0
  5  6  1  0
  5  7  2  0
  1  2  1  0
  1  3  1  0
  1  4  1  0
  8 12  1  0
 12 15  1  0
  8  9  1  0
  8 10  1  0
  8 11  1  0
 12 13  1  0
 12 14  1  0
 15 16  1  0
 15 17  1  0
 15 18  1  0
M  CHG  1   6  -1
M  END
>  <PDB_ID>  (1992) 
pdb5yzm

>  <RESIDUE_NAME>  (1992) 
GLU   LYS

>  <FRAG_NAME>  (1992) 
ACET   PRPA

>  <FRAG_ATOM_NUM>  (1992) 
fragi: 7  fragj: 11

>  <atom.prop.CHAIN_ID>  (1992) 
A A A A A A A Z Z Z Z Z Z Z Z Z Z Z

>  <atom.prop.IS_HEAVY_ATOM>  (1992) 
1 0 0 0 1 1 1 1 0 0 0 1 0 0 1 0 0 0

>  <DIFUSE_FUNC_ATOM>  (1992) 
atom 6   atom 7   

>  <FINAL_SINGLE_POINT_ENERGY>  (1992) 
0

>  <NONCOV_INTER_ENERGY_QM>  (1992) 
0

>  <FF_Energy>  (1992) 
40.7

>  <QM_Energy>  (1992) 
3.36

>  <source>  (1992) 
ACET_PRPA_27

>  <Index>  (1992) 
36022

$$$$
ACET-pdb5zm2-A-GLU-93:PRPA-pdb5zm2-A-ILE-43
     RDKit          3D

 18 16  0  0  0  0  0  0  0  0999 V2000
    0.1717    1.4829    0.0158 C   0  0  0  0  0  0  0  0  0  0  0  0
    0.6923    1.7407   -0.8009 H   0  0  0  0  0  0  0  0  0  0  0  0
    0.7033    1.7209    0.8313 H   0  0  0  0  0  0  0  0  0  0  0  0
   -0.7388    2.0820    0.0279 H   0  0  0  0  0  0  0  0  0  0  0  0
    0.0000    0.0000    0.0000 C   0  0  0  0  0  0  0  0  0  0  0  0
   -1.0894   -0.5596   -0.0000 O   0  0  0  0  0  1  0  0  0  0  0  0
    1.0894   -0.6070    0.0000 O   0  0  0  0  0  0  0  0  0  0  0  0
   -4.0972   -2.7258    1.1265 C   0  0  0  0  0  0  0  0  0  0  0  0
   -3.2068   -2.7724    1.5820 H   0  0  0  0  0  0  0  0  0  0  0  0
   -4.2562   -3.6962    0.6563 H   0  0  0  0  0  0  0  0  0  0  0  0
   -4.8377   -2.5671    1.9104 H   0  0  0  0  0  0  0  0  0  0  0  0
   -4.1261   -1.6368    0.0423 C   0  0  0  0  0  0  0  0  0  0  0  0
   -4.9682   -1.7305   -0.4651 H   0  0  0  0  0  0  0  0  0  0  0  0
   -4.0956   -0.6313    0.4620 H   0  0  0  0  0  0  0  0  0  0  0  0
   -2.9624   -1.8742   -0.9197 C   0  0  0  0  0  0  0  0  0  0  0  0
   -2.1403   -2.0464   -0.3749 H   0  0  0  0  0  0  0  0  0  0  0  0
   -3.1654   -2.7011   -1.4482 H   0  0  0  0  0  0  0  0  0  0  0  0
   -2.7819   -1.0443   -1.6029 H   0  0  0  0  0  0  0  0  0  0  0  0
  1  5  1  0
  5  6  1  0
  5  7  2  0
  1  2  1  0
  1  3  1  0
  1  4  1  0
  8 12  1  0
 12 15  1  0
  8  9  1  0
  8 10  1  0
  8 11  1  0
 12 13  1  0
 12 14  1  0
 15 16  1  0
 15 17  1  0
 15 18  1  0
M  CHG  1   6  -1
M  END
>  <PDB_ID>  (1993) 
pdb5zm2

>  <RESIDUE_NAME>  (1993) 
GLU   ILE

>  <FRAG_NAME>  (1993) 
ACET   PRPA

>  <FRAG_ATOM_NUM>  (1993) 
fragi: 7  fragj: 11

>  <atom.prop.CHAIN_ID>  (1993) 
A A A A A A A Z Z Z Z Z Z Z Z Z Z Z

>  <atom.prop.IS_HEAVY_ATOM>  (1993) 
1 0 0 0 1 1 1 1 0 0 0 1 0 0 1 0 0 0

>  <DIFUSE_FUNC_ATOM>  (1993) 
atom 6   atom 7   

>  <FINAL_SINGLE_POINT_ENERGY>  (1993) 
0

>  <NONCOV_INTER_ENERGY_QM>  (1993) 
0

>  <FF_Energy>  (1993) 
30.43

>  <QM_Energy>  (1993) 
5.76

>  <source>  (1993) 
ACET_PRPA_27

>  <Index>  (1993) 
36182

$$$$
ACET-pdb5zm2-A-GLU-93:PRPA-pdb5zm2-A-ILE-43
     RDKit          3D

 18 16  0  0  0  0  0  0  0  0999 V2000
    0.1717    1.4829    0.0158 C   0  0  0  0  0  0  0  0  0  0  0  0
    0.6923    1.7407   -0.8009 H   0  0  0  0  0  0  0  0  0  0  0  0
    0.7033    1.7209    0.8313 H   0  0  0  0  0  0  0  0  0  0  0  0
   -0.7388    2.0820    0.0279 H   0  0  0  0  0  0  0  0  0  0  0  0
    0.0000    0.0000    0.0000 C   0  0  0  0  0  0  0  0  0  0  0  0
   -1.0894   -0.5596   -0.0000 O   0  0  0  0  0  1  0  0  0  0  0  0
    1.0894   -0.6070    0.0000 O   0  0  0  0  0  0  0  0  0  0  0  0
   -4.1261   -1.6368    0.0423 C   0  0  0  0  0  0  0  0  0  0  0  0
   -4.9682   -1.7305   -0.4651 H   0  0  0  0  0  0  0  0  0  0  0  0
   -4.1056   -2.4091    0.8112 H   0  0  0  0  0  0  0  0  0  0  0  0
   -4.0956   -0.6313    0.4620 H   0  0  0  0  0  0  0  0  0  0  0  0
   -2.9624   -1.8742   -0.9197 C   0  0  0  0  0  0  0  0  0  0  0  0
   -2.1403   -2.0464   -0.3749 H   0  0  0  0  0  0  0  0  0  0  0  0
   -3.1654   -2.7011   -1.4482 H   0  0  0  0  0  0  0  0  0  0  0  0
   -2.7161   -0.7416   -1.8522 C   0  0  0  0  0  0  0  0  0  0  0  0
   -2.5023    0.0905   -1.3339 H   0  0  0  0  0  0  0  0  0  0  0  0
   -1.9445   -0.9551   -2.4558 H   0  0  0  0  0  0  0  0  0  0  0  0
   -3.5308   -0.5749   -2.4138 H   0  0  0  0  0  0  0  0  0  0  0  0
  1  5  1  0
  5  6  1  0
  5  7  2  0
  1  2  1  0
  1  3  1  0
  1  4  1  0
  8 12  1  0
 12 15  1  0
  8  9  1  0
  8 10  1  0
  8 11  1  0
 12 13  1  0
 12 14  1  0
 15 16  1  0
 15 17  1  0
 15 18  1  0
M  CHG  1   6  -1
M  END
>  <PDB_ID>  (1994) 
pdb5zm2

>  <RESIDUE_NAME>  (1994) 
GLU   ILE

>  <FRAG_NAME>  (1994) 
ACET   PRPA

>  <FRAG_ATOM_NUM>  (1994) 
fragi: 7  fragj: 11

>  <atom.prop.CHAIN_ID>  (1994) 
A A A A A A A Z Z Z Z Z Z Z Z Z Z Z

>  <atom.prop.IS_HEAVY_ATOM>  (1994) 
1 0 0 0 1 1 1 1 0 0 0 1 0 0 1 0 0 0

>  <DIFUSE_FUNC_ATOM>  (1994) 
atom 6   atom 7   

>  <FINAL_SINGLE_POINT_ENERGY>  (1994) 
0

>  <NONCOV_INTER_ENERGY_QM>  (1994) 
0

>  <FF_Energy>  (1994) 
48.32

>  <QM_Energy>  (1994) 
8.59

>  <source>  (1994) 
ACET_PRPA_27

>  <Index>  (1994) 
36189

$$$$
ACET-pdb5zm2-A-GLU-93:PRPA-pdb5zm2-A-ILE-43
     RDKit          3D

 18 16  0  0  0  0  0  0  0  0999 V2000
    0.1717    1.4829    0.0158 C   0  0  0  0  0  0  0  0  0  0  0  0
    0.6923    1.7407   -0.8009 H   0  0  0  0  0  0  0  0  0  0  0  0
    0.7033    1.7209    0.8313 H   0  0  0  0  0  0  0  0  0  0  0  0
   -0.7388    2.0820    0.0279 H   0  0  0  0  0  0  0  0  0  0  0  0
    0.0000    0.0000    0.0000 C   0  0  0  0  0  0  0  0  0  0  0  0
   -1.0894   -0.5596   -0.0000 O   0  0  0  0  0  1  0  0  0  0  0  0
    1.0894   -0.6070    0.0000 O   0  0  0  0  0  0  0  0  0  0  0  0
   -2.9624   -1.8742   -0.9197 C   0  0  0  0  0  0  0  0  0  0  0  0
   -2.1403   -2.0464   -0.3749 H   0  0  0  0  0  0  0  0  0  0  0  0
   -3.1654   -2.7011   -1.4482 H   0  0  0  0  0  0  0  0  0  0  0  0
   -2.7819   -1.0443   -1.6029 H   0  0  0  0  0  0  0  0  0  0  0  0
   -4.1261   -1.6368    0.0423 C   0  0  0  0  0  0  0  0  0  0  0  0
   -4.9682   -1.7305   -0.4651 H   0  0  0  0  0  0  0  0  0  0  0  0
   -4.1056   -2.4091    0.8112 H   0  0  0  0  0  0  0  0  0  0  0  0
   -4.0838   -0.2382    0.6261 C   0  0  0  0  0  0  0  0  0  0  0  0
   -4.1400    0.4354   -0.1099 H   0  0  0  0  0  0  0  0  0  0  0  0
   -4.8543   -0.1103    1.2496 H   0  0  0  0  0  0  0  0  0  0  0  0
   -3.2285   -0.1088    1.1273 H   0  0  0  0  0  0  0  0  0  0  0  0
  1  5  1  0
  5  6  1  0
  5  7  2  0
  1  2  1  0
  1  3  1  0
  1  4  1  0
  8 12  1  0
 12 15  1  0
  8  9  1  0
  8 10  1  0
  8 11  1  0
 12 13  1  0
 12 14  1  0
 15 16  1  0
 15 17  1  0
 15 18  1  0
M  CHG  1   6  -1
M  END
>  <PDB_ID>  (1995) 
pdb5zm2

>  <RESIDUE_NAME>  (1995) 
GLU   ILE

>  <FRAG_NAME>  (1995) 
ACET   PRPA

>  <FRAG_ATOM_NUM>  (1995) 
fragi: 7  fragj: 11

>  <atom.prop.CHAIN_ID>  (1995) 
A A A A A A A Z Z Z Z Z Z Z Z Z Z Z

>  <atom.prop.IS_HEAVY_ATOM>  (1995) 
1 0 0 0 1 1 1 1 0 0 0 1 0 0 1 0 0 0

>  <DIFUSE_FUNC_ATOM>  (1995) 
atom 6   atom 7   

>  <FINAL_SINGLE_POINT_ENERGY>  (1995) 
0

>  <NONCOV_INTER_ENERGY_QM>  (1995) 
0

>  <FF_Energy>  (1995) 
31.24

>  <QM_Energy>  (1995) 
6.09

>  <source>  (1995) 
ACET_PRPA_27

>  <Index>  (1995) 
36195

$$$$
ACET-pdb5zjm-A-GLU-120:PRPA-pdb5zjm-A-LYS-116
     RDKit          3D

 18 16  0  0  0  0  0  0  0  0999 V2000
    0.1747    1.4853    0.0147 C   0  0  0  0  0  0  0  0  0  0  0  0
    0.6937    1.7408   -0.8024 H   0  0  0  0  0  0  0  0  0  0  0  0
    0.7055    1.7226    0.8302 H   0  0  0  0  0  0  0  0  0  0  0  0
   -0.7355    2.0848    0.0271 H   0  0  0  0  0  0  0  0  0  0  0  0
    0.0000    0.0000    0.0000 C   0  0  0  0  0  0  0  0  0  0  0  0
   -1.0896   -0.5565   -0.0000 O   0  0  0  0  0  1  0  0  0  0  0  0
    1.0896   -0.6079   -0.0000 O   0  0  0  0  0  0  0  0  0  0  0  0
    2.2715   -0.7093    2.5171 C   0  0  0  0  0  0  0  0  0  0  0  0
    1.3605   -0.5075    2.1530 H   0  0  0  0  0  0  0  0  0  0  0  0
    2.9479   -0.1390    2.0486 H   0  0  0  0  0  0  0  0  0  0  0  0
    2.2872   -0.4785    3.5823 H   0  0  0  0  0  0  0  0  0  0  0  0
    2.5928   -2.1714    2.2540 C   0  0  0  0  0  0  0  0  0  0  0  0
    3.5027   -2.3693    2.6210 H   0  0  0  0  0  0  0  0  0  0  0  0
    1.9158   -2.7382    2.7232 H   0  0  0  0  0  0  0  0  0  0  0  0
    2.5771   -2.5151    0.7827 C   0  0  0  0  0  0  0  0  0  0  0  0
    1.6694   -2.3227    0.4107 H   0  0  0  0  0  0  0  0  0  0  0  0
    3.2564   -1.9544    0.3071 H   0  0  0  0  0  0  0  0  0  0  0  0
    2.8120   -3.5685    0.6306 H   0  0  0  0  0  0  0  0  0  0  0  0
  1  5  1  0
  5  6  1  0
  5  7  2  0
  1  2  1  0
  1  3  1  0
  1  4  1  0
  8 12  1  0
 12 15  1  0
  8  9  1  0
  8 10  1  0
  8 11  1  0
 12 13  1  0
 12 14  1  0
 15 16  1  0
 15 17  1  0
 15 18  1  0
M  CHG  1   6  -1
M  END
>  <PDB_ID>  (1996) 
pdb5zjm

>  <RESIDUE_NAME>  (1996) 
GLU   LYS

>  <FRAG_NAME>  (1996) 
ACET   PRPA

>  <FRAG_ATOM_NUM>  (1996) 
fragi: 7  fragj: 11

>  <atom.prop.CHAIN_ID>  (1996) 
A A A A A A A Z Z Z Z Z Z Z Z Z Z Z

>  <atom.prop.IS_HEAVY_ATOM>  (1996) 
1 0 0 0 1 1 1 1 0 0 0 1 0 0 1 0 0 0

>  <DIFUSE_FUNC_ATOM>  (1996) 
atom 6   atom 7   

>  <FINAL_SINGLE_POINT_ENERGY>  (1996) 
0

>  <NONCOV_INTER_ENERGY_QM>  (1996) 
0

>  <FF_Energy>  (1996) 
31.58

>  <QM_Energy>  (1996) 
4.23

>  <source>  (1996) 
ACET_PRPA_27

>  <Index>  (1996) 
36460

$$$$
ACET-pdb5zjm-A-GLU-253:PRPA-pdb5zjm-A-ILE-277
     RDKit          3D

 18 16  0  0  0  0  0  0  0  0999 V2000
    0.2237    1.5170    0.0142 C   0  0  0  0  0  0  0  0  0  0  0  0
    0.7323    1.7411   -0.8028 H   0  0  0  0  0  0  0  0  0  0  0  0
    0.7438    1.7228    0.8294 H   0  0  0  0  0  0  0  0  0  0  0  0
   -0.6913    2.1092    0.0262 H   0  0  0  0  0  0  0  0  0  0  0  0
    0.0000    0.0000    0.0000 C   0  0  0  0  0  0  0  0  0  0  0  0
   -1.0877   -0.5269    0.0000 O   0  0  0  0  0  1  0  0  0  0  0  0
    1.0877   -0.6149   -0.0000 O   0  0  0  0  0  0  0  0  0  0  0  0
    1.7765   -2.7305    0.8643 C   0  0  0  0  0  0  0  0  0  0  0  0
    1.9672   -3.6698    1.1342 H   0  0  0  0  0  0  0  0  0  0  0  0
    1.0632   -2.7562    0.0406 H   0  0  0  0  0  0  0  0  0  0  0  0
    2.7074   -2.2535    0.5576 H   0  0  0  0  0  0  0  0  0  0  0  0
    1.1879   -2.0007    2.0673 C   0  0  0  0  0  0  0  0  0  0  0  0
    1.2262   -1.0198    1.8929 H   0  0  0  0  0  0  0  0  0  0  0  0
    0.2320   -2.2734    2.1628 H   0  0  0  0  0  0  0  0  0  0  0  0
    1.9091   -2.3001    3.3590 C   0  0  0  0  0  0  0  0  0  0  0  0
    2.8659   -2.0238    3.2782 H   0  0  0  0  0  0  0  0  0  0  0  0
    1.4782   -1.7947    4.1059 H   0  0  0  0  0  0  0  0  0  0  0  0
    1.8600   -3.2805    3.5486 H   0  0  0  0  0  0  0  0  0  0  0  0
  1  5  1  0
  5  6  1  0
  5  7  2  0
  1  2  1  0
  1  3  1  0
  1  4  1  0
  8 12  1  0
 12 15  1  0
  8  9  1  0
  8 10  1  0
  8 11  1  0
 12 13  1  0
 12 14  1  0
 15 16  1  0
 15 17  1  0
 15 18  1  0
M  CHG  1   6  -1
M  END
>  <PDB_ID>  (1997) 
pdb5zjm

>  <RESIDUE_NAME>  (1997) 
GLU   ILE

>  <FRAG_NAME>  (1997) 
ACET   PRPA

>  <FRAG_ATOM_NUM>  (1997) 
fragi: 7  fragj: 11

>  <atom.prop.CHAIN_ID>  (1997) 
A A A A A A A Z Z Z Z Z Z Z Z Z Z Z

>  <atom.prop.IS_HEAVY_ATOM>  (1997) 
1 0 0 0 1 1 1 1 0 0 0 1 0 0 1 0 0 0

>  <DIFUSE_FUNC_ATOM>  (1997) 
atom 6   atom 7   

>  <FINAL_SINGLE_POINT_ENERGY>  (1997) 
0

>  <NONCOV_INTER_ENERGY_QM>  (1997) 
0

>  <FF_Energy>  (1997) 
44.37

>  <QM_Energy>  (1997) 
11.09

>  <source>  (1997) 
ACET_PRPA_27

>  <Index>  (1997) 
37417

$$$$
ACET-pdb5yq0-G-GLU-30:PRPA-pdb5yq0-F-ARG-24
     RDKit          3D

 18 16  0  0  0  0  0  0  0  0999 V2000
    0.0071    1.4878    0.1700 C   0  0  0  0  0  0  0  0  0  0  0  0
    0.4206    1.8835   -0.6310 H   0  0  0  0  0  0  0  0  0  0  0  0
    0.5140    1.6978    0.9881 H   0  0  0  0  0  0  0  0  0  0  0  0
   -0.9957    1.9020    0.2743 H   0  0  0  0  0  0  0  0  0  0  0  0
    0.0000    0.0000    0.0000 C   0  0  0  0  0  0  0  0  0  0  0  0
   -1.0975   -0.5933    0.0000 O   0  0  0  0  0  1  0  0  0  0  0  0
    1.0975   -0.5910   -0.0000 O   0  0  0  0  0  0  0  0  0  0  0  0
    2.3027   -4.3955   -1.2489 C   0  0  0  0  0  0  0  0  0  0  0  0
    1.9496   -4.2786   -0.3037 H   0  0  0  0  0  0  0  0  0  0  0  0
    2.7708   -5.3768   -1.3266 H   0  0  0  0  0  0  0  0  0  0  0  0
    1.4758   -4.2669   -1.9473 H   0  0  0  0  0  0  0  0  0  0  0  0
    3.3419   -3.2924   -1.4621 C   0  0  0  0  0  0  0  0  0  0  0  0
    4.2479   -3.6971   -1.3722 H   0  0  0  0  0  0  0  0  0  0  0  0
    3.2216   -2.9250   -2.3794 H   0  0  0  0  0  0  0  0  0  0  0  0
    3.2380   -2.1414   -0.4749 C   0  0  0  0  0  0  0  0  0  0  0  0
    2.5009   -1.5319   -0.7516 H   0  0  0  0  0  0  0  0  0  0  0  0
    3.0612   -2.5014    0.4372 H   0  0  0  0  0  0  0  0  0  0  0  0
    4.1624   -1.5649   -0.4395 H   0  0  0  0  0  0  0  0  0  0  0  0
  1  5  1  0
  5  6  1  0
  5  7  2  0
  1  2  1  0
  1  3  1  0
  1  4  1  0
  8 12  1  0
 12 15  1  0
  8  9  1  0
  8 10  1  0
  8 11  1  0
 12 13  1  0
 12 14  1  0
 15 16  1  0
 15 17  1  0
 15 18  1  0
M  CHG  1   6  -1
M  END
>  <PDB_ID>  (1998) 
pdb5yq0

>  <RESIDUE_NAME>  (1998) 
GLU   ARG

>  <FRAG_NAME>  (1998) 
ACET   PRPA

>  <FRAG_ATOM_NUM>  (1998) 
fragi: 7  fragj: 11

>  <atom.prop.CHAIN_ID>  (1998) 
A A A A A A A Z Z Z Z Z Z Z Z Z Z Z

>  <atom.prop.IS_HEAVY_ATOM>  (1998) 
1 0 0 0 1 1 1 1 0 0 0 1 0 0 1 0 0 0

>  <DIFUSE_FUNC_ATOM>  (1998) 
atom 6   atom 7   

>  <FINAL_SINGLE_POINT_ENERGY>  (1998) 
0

>  <NONCOV_INTER_ENERGY_QM>  (1998) 
0

>  <FF_Energy>  (1998) 
21.5

>  <QM_Energy>  (1998) 
1.42

>  <source>  (1998) 
ACET_PRPA_27

>  <Index>  (1998) 
37656

$$$$
ACET-pdb5yq0-G-GLU-30:PRPA-pdb5yq0-F-ARG-24
     RDKit          3D

 18 16  0  0  0  0  0  0  0  0999 V2000
    0.0071    1.4878    0.1700 C   0  0  0  0  0  0  0  0  0  0  0  0
    0.4206    1.8835   -0.6310 H   0  0  0  0  0  0  0  0  0  0  0  0
    0.5140    1.6978    0.9881 H   0  0  0  0  0  0  0  0  0  0  0  0
   -0.9957    1.9020    0.2743 H   0  0  0  0  0  0  0  0  0  0  0  0
    0.0000    0.0000    0.0000 C   0  0  0  0  0  0  0  0  0  0  0  0
   -1.0975   -0.5933    0.0000 O   0  0  0  0  0  1  0  0  0  0  0  0
    1.0975   -0.5910   -0.0000 O   0  0  0  0  0  0  0  0  0  0  0  0
    3.3419   -3.2924   -1.4621 C   0  0  0  0  0  0  0  0  0  0  0  0
    4.2479   -3.6971   -1.3722 H   0  0  0  0  0  0  0  0  0  0  0  0
    3.2216   -2.9250   -2.3794 H   0  0  0  0  0  0  0  0  0  0  0  0
    2.6017   -4.0781   -1.3102 H   0  0  0  0  0  0  0  0  0  0  0  0
    3.2380   -2.1414   -0.4749 C   0  0  0  0  0  0  0  0  0  0  0  0
    2.5009   -1.5319   -0.7516 H   0  0  0  0  0  0  0  0  0  0  0  0
    3.0612   -2.5014    0.4372 H   0  0  0  0  0  0  0  0  0  0  0  0
    4.5263   -1.3379   -0.4255 C   0  0  0  0  0  0  0  0  0  0  0  0
    4.5488   -0.8415    0.4384 H   0  0  0  0  0  0  0  0  0  0  0  0
    5.2909   -1.9767   -0.4708 H   0  0  0  0  0  0  0  0  0  0  0  0
    4.5987   -0.6293   -1.2505 H   0  0  0  0  0  0  0  0  0  0  0  0
  1  5  1  0
  5  6  1  0
  5  7  2  0
  1  2  1  0
  1  3  1  0
  1  4  1  0
  8 12  1  0
 12 15  1  0
  8  9  1  0
  8 10  1  0
  8 11  1  0
 12 13  1  0
 12 14  1  0
 15 16  1  0
 15 17  1  0
 15 18  1  0
M  CHG  1   6  -1
M  END
>  <PDB_ID>  (1999) 
pdb5yq0

>  <RESIDUE_NAME>  (1999) 
GLU   ARG

>  <FRAG_NAME>  (1999) 
ACET   PRPA

>  <FRAG_ATOM_NUM>  (1999) 
fragi: 7  fragj: 11

>  <atom.prop.CHAIN_ID>  (1999) 
A A A A A A A Z Z Z Z Z Z Z Z Z Z Z

>  <atom.prop.IS_HEAVY_ATOM>  (1999) 
1 0 0 0 1 1 1 1 0 0 0 1 0 0 1 0 0 0

>  <DIFUSE_FUNC_ATOM>  (1999) 
atom 6   atom 7   

>  <FINAL_SINGLE_POINT_ENERGY>  (1999) 
0

>  <NONCOV_INTER_ENERGY_QM>  (1999) 
0

>  <FF_Energy>  (1999) 
23.85

>  <QM_Energy>  (1999) 
1.22

>  <source>  (1999) 
ACET_PRPA_27

>  <Index>  (1999) 
37660

$$$$
ACET-pdb5ymr-C-GLU-141:PRPA-pdb5ymr-C-LYS-52
     RDKit          3D

 18 16  0  0  0  0  0  0  0  0999 V2000
   -0.0087    1.5104   -0.0344 C   0  0  0  0  0  0  0  0  0  0  0  0
    0.5160    1.8313    0.7368 H   0  0  0  0  0  0  0  0  0  0  0  0
   -0.9483    1.8062    0.0150 H   0  0  0  0  0  0  0  0  0  0  0  0
    0.4321    1.9261   -0.9405 H   0  0  0  0  0  0  0  0  0  0  0  0
    0.0000    0.0000    0.0000 C   0  0  0  0  0  0  0  0  0  0  0  0
   -1.1008   -0.5944   -0.0000 O   0  0  0  0  0  1  0  0  0  0  0  0
    1.1008   -0.5955   -0.0000 O   0  0  0  0  0  0  0  0  0  0  0  0
    2.7464   -1.7141   -3.4114 C   0  0  0  0  0  0  0  0  0  0  0  0
    3.7274   -1.8952   -3.3620 H   0  0  0  0  0  0  0  0  0  0  0  0
    2.5328   -0.8760   -2.9113 H   0  0  0  0  0  0  0  0  0  0  0  0
    2.4526   -1.5985   -4.4547 H   0  0  0  0  0  0  0  0  0  0  0  0
    2.0026   -2.8695   -2.7714 C   0  0  0  0  0  0  0  0  0  0  0  0
    1.0286   -2.7573   -2.9396 H   0  0  0  0  0  0  0  0  0  0  0  0
    2.3260   -3.7220   -3.1703 H   0  0  0  0  0  0  0  0  0  0  0  0
    2.2378   -2.9100   -1.2804 C   0  0  0  0  0  0  0  0  0  0  0  0
    3.2068   -2.6988   -1.0957 H   0  0  0  0  0  0  0  0  0  0  0  0
    1.6739   -2.1978   -0.8403 H   0  0  0  0  0  0  0  0  0  0  0  0
    1.9934   -3.8789   -0.8449 H   0  0  0  0  0  0  0  0  0  0  0  0
  1  5  1  0
  5  6  1  0
  5  7  2  0
  1  2  1  0
  1  3  1  0
  1  4  1  0
  8 12  1  0
 12 15  1  0
  8  9  1  0
  8 10  1  0
  8 11  1  0
 12 13  1  0
 12 14  1  0
 15 16  1  0
 15 17  1  0
 15 18  1  0
M  CHG  1   6  -1
M  END
>  <PDB_ID>  (2000) 
pdb5ymr

>  <RESIDUE_NAME>  (2000) 
GLU   LYS

>  <FRAG_NAME>  (2000) 
ACET   PRPA

>  <FRAG_ATOM_NUM>  (2000) 
fragi: 7  fragj: 11

>  <atom.prop.CHAIN_ID>  (2000) 
A A A A A A A Z Z Z Z Z Z Z Z Z Z Z

>  <atom.prop.IS_HEAVY_ATOM>  (2000) 
1 0 0 0 1 1 1 1 0 0 0 1 0 0 1 0 0 0

>  <DIFUSE_FUNC_ATOM>  (2000) 
atom 6   atom 7   

>  <FINAL_SINGLE_POINT_ENERGY>  (2000) 
0

>  <NONCOV_INTER_ENERGY_QM>  (2000) 
0

>  <FF_Energy>  (2000) 
13.55

>  <QM_Energy>  (2000) 
-2.19

>  <source>  (2000) 
ACET_PRPA_27

>  <Index>  (2000) 
39346

$$$$
ACET-pdb5ymr-C-GLU-197:PRPA-pdb5ymr-C-LYS-201
     RDKit          3D

 18 16  0  0  0  0  0  0  0  0999 V2000
   -0.0019    1.5148   -0.0086 C   0  0  0  0  0  0  0  0  0  0  0  0
    0.0201    1.8067   -0.9513 H   0  0  0  0  0  0  0  0  0  0  0  0
    0.8010    1.8156    0.4826 H   0  0  0  0  0  0  0  0  0  0  0  0
   -0.8790    1.9558    0.4649 H   0  0  0  0  0  0  0  0  0  0  0  0
    0.0000    0.0000    0.0000 C   0  0  0  0  0  0  0  0  0  0  0  0
   -1.1087   -0.5832    0.0000 O   0  0  0  0  0  1  0  0  0  0  0  0
    1.1087   -0.6019    0.0000 O   0  0  0  0  0  0  0  0  0  0  0  0
    3.0097    2.5591   -2.1774 C   0  0  0  0  0  0  0  0  0  0  0  0
    3.9055    2.3375   -1.7771 H   0  0  0  0  0  0  0  0  0  0  0  0
    2.3511    2.6995   -1.4309 H   0  0  0  0  0  0  0  0  0  0  0  0
    3.0951    3.4768   -2.7592 H   0  0  0  0  0  0  0  0  0  0  0  0
    2.5459    1.3720   -3.0155 C   0  0  0  0  0  0  0  0  0  0  0  0
    1.5967    1.5083   -3.2634 H   0  0  0  0  0  0  0  0  0  0  0  0
    3.1186    1.3056   -3.8203 H   0  0  0  0  0  0  0  0  0  0  0  0
    2.6656    0.0848   -2.2221 C   0  0  0  0  0  0  0  0  0  0  0  0
    3.5990    0.0101   -1.8627 H   0  0  0  0  0  0  0  0  0  0  0  0
    2.0222    0.1150   -1.4529 H   0  0  0  0  0  0  0  0  0  0  0  0
    2.4465   -0.7858   -2.8403 H   0  0  0  0  0  0  0  0  0  0  0  0
  1  5  1  0
  5  6  1  0
  5  7  2  0
  1  2  1  0
  1  3  1  0
  1  4  1  0
  8 12  1  0
 12 15  1  0
  8  9  1  0
  8 10  1  0
  8 11  1  0
 12 13  1  0
 12 14  1  0
 15 16  1  0
 15 17  1  0
 15 18  1  0
M  CHG  1   6  -1
M  END
>  <PDB_ID>  (2001) 
pdb5ymr

>  <RESIDUE_NAME>  (2001) 
GLU   LYS

>  <FRAG_NAME>  (2001) 
ACET   PRPA

>  <FRAG_ATOM_NUM>  (2001) 
fragi: 7  fragj: 11

>  <atom.prop.CHAIN_ID>  (2001) 
A A A A A A A Z Z Z Z Z Z Z Z Z Z Z

>  <atom.prop.IS_HEAVY_ATOM>  (2001) 
1 0 0 0 1 1 1 1 0 0 0 1 0 0 1 0 0 0

>  <DIFUSE_FUNC_ATOM>  (2001) 
atom 6   atom 7   

>  <FINAL_SINGLE_POINT_ENERGY>  (2001) 
0

>  <NONCOV_INTER_ENERGY_QM>  (2001) 
0

>  <FF_Energy>  (2001) 
18.63

>  <QM_Energy>  (2001) 
0.6

>  <source>  (2001) 
ACET_PRPA_27

>  <Index>  (2001) 
39519

$$$$
ACEH-pdb4y9w-A-GLH-125:PRPA-pdb4y9w-A-VAL-122
     RDKit          3D

 18 16  0  0  0  0  0  0  0  0999 V2000
    0.2409    1.4868    0.0234 C   0  0  0  0  0  0  0  0  0  0  0  0
    0.8359    1.7102   -0.7220 H   0  0  0  0  0  0  0  0  0  0  0  0
    0.6200    1.7193    0.8964 H   0  0  0  0  0  0  0  0  0  0  0  0
   -0.6832    2.0508   -0.1035 H   0  0  0  0  0  0  0  0  0  0  0  0
    0.0000    0.0000    0.0000 C   0  0  0  0  0  0  0  0  0  0  0  0
   -1.1159   -0.5145   -0.0000 O   0  0  0  0  0  0  0  0  0  0  0  0
    1.1159   -0.7160    0.0000 O   0  0  0  0  0  0  0  0  0  0  0  0
    3.1277    0.9567   -2.1064 C   0  0  0  0  0  0  0  0  0  0  0  0
    2.2298    1.2041   -2.4746 H   0  0  0  0  0  0  0  0  0  0  0  0
    3.8889    1.3620   -2.7731 H   0  0  0  0  0  0  0  0  0  0  0  0
    3.2196    1.4023   -1.1159 H   0  0  0  0  0  0  0  0  0  0  0  0
    3.1489   -0.5893   -1.9185 C   0  0  0  0  0  0  0  0  0  0  0  0
    2.4971   -0.7944   -1.2223 H   0  0  0  0  0  0  0  0  0  0  0  0
    4.1331   -0.9302   -1.5973 H   0  0  0  0  0  0  0  0  0  0  0  0
    2.6536   -1.1186   -3.2021 C   0  0  0  0  0  0  0  0  0  0  0  0
    3.4189   -1.3042   -3.8313 H   0  0  0  0  0  0  0  0  0  0  0  0
    2.1464   -1.9791   -3.0630 H   0  0  0  0  0  0  0  0  0  0  0  0
    2.0346   -0.4585   -3.6464 H   0  0  0  0  0  0  0  0  0  0  0  0
  1  5  1  0
  5  6  2  0
  5  7  1  0
  1  2  1  0
  1  3  1  0
  1  4  1  0
  8 12  1  0
 12 15  1  0
  8  9  1  0
  8 10  1  0
  8 11  1  0
 12 13  1  0
 12 14  1  0
 15 16  1  0
 15 17  1  0
 15 18  1  0
M  CHG  1   7  -1
V    7 [O&-]
M  END
>  <PDB_ID>  (2002) 
pdb4y9w

>  <RESIDUE_NAME>  (2002) 
GLU   VAL

>  <FRAG_NAME>  (2002) 
ACET   PRPA

>  <FRAG_ATOM_NUM>  (2002) 
fragi: 7 fragj: 11

>  <atom.prop.CHAIN_ID>  (2002) 
A A A A A A A Z Z Z Z Z Z Z Z Z Z Z

>  <atom.prop.IS_HEAVY_ATOM>  (2002) 
1 0 0 0 1 1 1 1 0 0 0 1 0 0 1 0 0 0

>  <DIFUSE_FUNC_ATOM>  (2002) 
n/a

>  <FINAL_SINGLE_POINT_ENERGY>  (2002) 
0

>  <NONCOV_INTER_ENERGY_QM>  (2002) 
0

>  <FF_Energy>  (2002) 
23.28

>  <QM_Energy>  (2002) 
-2.17

>  <source>  (2002) 
ACET_PRPA_28

>  <Index>  (2002) 
618

$$$$
ACEH-pdb4y9w-A-GLH-125:PRPA-pdb4y9w-A-VAL-122
     RDKit          3D

 18 16  0  0  0  0  0  0  0  0999 V2000
    0.2409    1.4868    0.0234 C   0  0  0  0  0  0  0  0  0  0  0  0
    0.8359    1.7102   -0.7220 H   0  0  0  0  0  0  0  0  0  0  0  0
    0.6200    1.7193    0.8964 H   0  0  0  0  0  0  0  0  0  0  0  0
   -0.6832    2.0508   -0.1035 H   0  0  0  0  0  0  0  0  0  0  0  0
    0.0000    0.0000    0.0000 C   0  0  0  0  0  0  0  0  0  0  0  0
   -1.1159   -0.5145   -0.0000 O   0  0  0  0  0  0  0  0  0  0  0  0
    1.1159   -0.7160    0.0000 O   0  0  0  0  0  0  0  0  0  0  0  0
    2.6536   -1.1186   -3.2021 C   0  0  0  0  0  0  0  0  0  0  0  0
    3.4189   -1.3042   -3.8313 H   0  0  0  0  0  0  0  0  0  0  0  0
    2.1464   -1.9791   -3.0630 H   0  0  0  0  0  0  0  0  0  0  0  0
    2.0346   -0.4585   -3.6464 H   0  0  0  0  0  0  0  0  0  0  0  0
    3.1489   -0.5893   -1.9185 C   0  0  0  0  0  0  0  0  0  0  0  0
    2.4971   -0.7944   -1.2223 H   0  0  0  0  0  0  0  0  0  0  0  0
    3.1340    0.4927   -2.0500 H   0  0  0  0  0  0  0  0  0  0  0  0
    4.5175   -1.0634   -1.4718 C   0  0  0  0  0  0  0  0  0  0  0  0
    5.1454   -0.2849   -1.4385 H   0  0  0  0  0  0  0  0  0  0  0  0
    4.4470   -1.4745   -0.5624 H   0  0  0  0  0  0  0  0  0  0  0  0
    4.8620   -1.7435   -2.1200 H   0  0  0  0  0  0  0  0  0  0  0  0
  1  5  1  0
  5  6  2  0
  5  7  1  0
  1  2  1  0
  1  3  1  0
  1  4  1  0
  8 12  1  0
 12 15  1  0
  8  9  1  0
  8 10  1  0
  8 11  1  0
 12 13  1  0
 12 14  1  0
 15 16  1  0
 15 17  1  0
 15 18  1  0
M  CHG  1   7  -1
V    7 [O&-]
M  END
>  <PDB_ID>  (2003) 
pdb4y9w

>  <RESIDUE_NAME>  (2003) 
GLU   VAL

>  <FRAG_NAME>  (2003) 
ACET   PRPA

>  <FRAG_ATOM_NUM>  (2003) 
fragi: 7 fragj: 11

>  <atom.prop.CHAIN_ID>  (2003) 
A A A A A A A Z Z Z Z Z Z Z Z Z Z Z

>  <atom.prop.IS_HEAVY_ATOM>  (2003) 
1 0 0 0 1 1 1 1 0 0 0 1 0 0 1 0 0 0

>  <DIFUSE_FUNC_ATOM>  (2003) 
n/a

>  <FINAL_SINGLE_POINT_ENERGY>  (2003) 
0

>  <NONCOV_INTER_ENERGY_QM>  (2003) 
0

>  <FF_Energy>  (2003) 
22.74

>  <QM_Energy>  (2003) 
-0.85

>  <source>  (2003) 
ACET_PRPA_28

>  <Index>  (2003) 
623

$$$$
ACEH-pdb155c-A-ASH-118:PRPA-pdb155c-A-VAL-41
     RDKit          3D

 18 16  0  0  0  0  0  0  0  0999 V2000
    0.1043    1.5011   -0.0722 C   0  0  0  0  0  0  0  0  0  0  0  0
   -0.1710    1.8904    0.7924 H   0  0  0  0  0  0  0  0  0  0  0  0
   -0.4555    1.8335   -0.8134 H   0  0  0  0  0  0  0  0  0  0  0  0
    1.1288    1.8196   -0.2649 H   0  0  0  0  0  0  0  0  0  0  0  0
    0.0000    0.0000    0.0000 C   0  0  0  0  0  0  0  0  0  0  0  0
   -1.0450   -0.6265    0.0000 O   0  0  0  0  0  0  0  0  0  0  0  0
    1.0450   -0.5912   -0.0000 O   0  0  0  0  0  0  0  0  0  0  0  0
   -4.2676   -0.0139   -0.9208 C   0  0  0  0  0  0  0  0  0  0  0  0
   -5.1890    0.3286   -0.9560 H   0  0  0  0  0  0  0  0  0  0  0  0
   -3.6337    0.6484   -1.5103 H   0  0  0  0  0  0  0  0  0  0  0  0
   -3.9063    0.0846    0.1028 H   0  0  0  0  0  0  0  0  0  0  0  0
   -4.1679   -1.4347   -1.4577 C   0  0  0  0  0  0  0  0  0  0  0  0
   -4.3386   -2.0766   -0.6946 H   0  0  0  0  0  0  0  0  0  0  0  0
   -4.8987   -1.6870   -2.2261 H   0  0  0  0  0  0  0  0  0  0  0  0
   -2.7628   -1.7898   -1.8648 C   0  0  0  0  0  0  0  0  0  0  0  0
   -2.1244   -1.5380   -1.1334 H   0  0  0  0  0  0  0  0  0  0  0  0
   -2.6984   -2.7758   -2.0338 H   0  0  0  0  0  0  0  0  0  0  0  0
   -2.5179   -1.2945   -2.7011 H   0  0  0  0  0  0  0  0  0  0  0  0
  1  5  1  0
  5  6  2  0
  5  7  1  0
  1  2  1  0
  1  3  1  0
  1  4  1  0
  8 12  1  0
 12 15  1  0
  8  9  1  0
  8 10  1  0
  8 11  1  0
 12 13  1  0
 12 14  1  0
 15 16  1  0
 15 17  1  0
 15 18  1  0
M  CHG  1   7  -1
V    7 [O&-]
M  END
>  <PDB_ID>  (2004) 
pdb155c

>  <RESIDUE_NAME>  (2004) 
ASP   VAL

>  <FRAG_NAME>  (2004) 
ACET   PRPA

>  <FRAG_ATOM_NUM>  (2004) 
fragi: 7 fragj: 11

>  <atom.prop.CHAIN_ID>  (2004) 
A A A A A A A Z Z Z Z Z Z Z Z Z Z Z

>  <atom.prop.IS_HEAVY_ATOM>  (2004) 
1 0 0 0 1 1 1 1 0 0 0 1 0 0 1 0 0 0

>  <DIFUSE_FUNC_ATOM>  (2004) 
n/a

>  <FINAL_SINGLE_POINT_ENERGY>  (2004) 
0

>  <NONCOV_INTER_ENERGY_QM>  (2004) 
0

>  <FF_Energy>  (2004) 
25.23

>  <QM_Energy>  (2004) 
-0.71

>  <source>  (2004) 
ACET_PRPA_28

>  <Index>  (2004) 
666

$$$$
ACEH-pdb155c-A-ASH-118:PRPA-pdb155c-A-VAL-42
     RDKit          3D

 18 16  0  0  0  0  0  0  0  0999 V2000
    0.1043    1.5011   -0.0722 C   0  0  0  0  0  0  0  0  0  0  0  0
   -0.1710    1.8904    0.7924 H   0  0  0  0  0  0  0  0  0  0  0  0
   -0.4555    1.8335   -0.8134 H   0  0  0  0  0  0  0  0  0  0  0  0
    1.1288    1.8196   -0.2649 H   0  0  0  0  0  0  0  0  0  0  0  0
    0.0000    0.0000    0.0000 C   0  0  0  0  0  0  0  0  0  0  0  0
   -1.0450   -0.6265    0.0000 O   0  0  0  0  0  0  0  0  0  0  0  0
    1.0450   -0.5912   -0.0000 O   0  0  0  0  0  0  0  0  0  0  0  0
   -2.4063   -0.8285    2.2900 C   0  0  0  0  0  0  0  0  0  0  0  0
   -3.0556   -1.3363    2.8907 H   0  0  0  0  0  0  0  0  0  0  0  0
   -2.8158   -0.8349    1.2798 H   0  0  0  0  0  0  0  0  0  0  0  0
   -2.2662    0.1643    2.7176 H   0  0  0  0  0  0  0  0  0  0  0  0
   -1.0631   -1.5468    2.3065 C   0  0  0  0  0  0  0  0  0  0  0  0
   -1.0281   -2.1747    1.5142 H   0  0  0  0  0  0  0  0  0  0  0  0
   -0.1935   -0.8968    2.2089 H   0  0  0  0  0  0  0  0  0  0  0  0
   -0.9430   -2.4949    3.4694 C   0  0  0  0  0  0  0  0  0  0  0  0
   -1.0512   -1.9915    4.3295 H   0  0  0  0  0  0  0  0  0  0  0  0
   -1.6542   -3.1982    3.4063 H   0  0  0  0  0  0  0  0  0  0  0  0
   -0.0422   -2.9343    3.4554 H   0  0  0  0  0  0  0  0  0  0  0  0
  1  5  1  0
  5  6  2  0
  5  7  1  0
  1  2  1  0
  1  3  1  0
  1  4  1  0
  8 12  1  0
 12 15  1  0
  8  9  1  0
  8 10  1  0
  8 11  1  0
 12 13  1  0
 12 14  1  0
 15 16  1  0
 15 17  1  0
 15 18  1  0
M  CHG  1   7  -1
V    7 [O&-]
M  END
>  <PDB_ID>  (2005) 
pdb155c

>  <RESIDUE_NAME>  (2005) 
ASP   VAL

>  <FRAG_NAME>  (2005) 
ACET   PRPA

>  <FRAG_ATOM_NUM>  (2005) 
fragi: 7 fragj: 11

>  <atom.prop.CHAIN_ID>  (2005) 
A A A A A A A Z Z Z Z Z Z Z Z Z Z Z

>  <atom.prop.IS_HEAVY_ATOM>  (2005) 
1 0 0 0 1 1 1 1 0 0 0 1 0 0 1 0 0 0

>  <DIFUSE_FUNC_ATOM>  (2005) 
n/a

>  <FINAL_SINGLE_POINT_ENERGY>  (2005) 
0

>  <NONCOV_INTER_ENERGY_QM>  (2005) 
0

>  <FF_Energy>  (2005) 
21.25

>  <QM_Energy>  (2005) 
4.7

>  <source>  (2005) 
ACET_PRPA_28

>  <Index>  (2005) 
669

$$$$
ACEH-pdb1a4y-D-GLH-401:PRPA-pdb1a4y-D-GLN-430
     RDKit          3D

 18 16  0  0  0  0  0  0  0  0999 V2000
    0.0070    1.5157   -0.0014 C   0  0  0  0  0  0  0  0  0  0  0  0
    0.5997    1.8100   -0.7327 H   0  0  0  0  0  0  0  0  0  0  0  0
    0.3384    1.8125    0.8790 H   0  0  0  0  0  0  0  0  0  0  0  0
   -0.9761    1.9579   -0.1626 H   0  0  0  0  0  0  0  0  0  0  0  0
    0.0000    0.0000    0.0000 C   0  0  0  0  0  0  0  0  0  0  0  0
   -1.1099   -0.5913    0.0000 O   0  0  0  0  0  0  0  0  0  0  0  0
    1.1099   -0.5907    0.0000 O   0  0  0  0  0  0  0  0  0  0  0  0
    1.5608    3.8784    3.2373 C   0  0  0  0  0  0  0  0  0  0  0  0
    2.2334    3.9225    3.9915 H   0  0  0  0  0  0  0  0  0  0  0  0
    0.6880    4.4646    3.5250 H   0  0  0  0  0  0  0  0  0  0  0  0
    2.0425    4.2753    2.3437 H   0  0  0  0  0  0  0  0  0  0  0  0
    1.1373    2.4456    2.9864 C   0  0  0  0  0  0  0  0  0  0  0  0
    0.6480    2.1087    3.7975 H   0  0  0  0  0  0  0  0  0  0  0  0
    0.5072    2.4302    2.2026 H   0  0  0  0  0  0  0  0  0  0  0  0
    2.2754    1.5247    2.7004 C   0  0  0  0  0  0  0  0  0  0  0  0
    2.3298    1.3614    1.7169 H   0  0  0  0  0  0  0  0  0  0  0  0
    3.1254    1.9400    3.0203 H   0  0  0  0  0  0  0  0  0  0  0  0
    2.1444    0.5672    3.2044 H   0  0  0  0  0  0  0  0  0  0  0  0
  1  5  1  0
  5  6  2  0
  5  7  1  0
  1  2  1  0
  1  3  1  0
  1  4  1  0
  8 12  1  0
 12 15  1  0
  8  9  1  0
  8 10  1  0
  8 11  1  0
 12 13  1  0
 12 14  1  0
 15 16  1  0
 15 17  1  0
 15 18  1  0
M  CHG  1   7  -1
V    7 [O&-]
M  END
>  <PDB_ID>  (2006) 
pdb1a4y

>  <RESIDUE_NAME>  (2006) 
GLU   GLN

>  <FRAG_NAME>  (2006) 
ACET   PRPA

>  <FRAG_ATOM_NUM>  (2006) 
fragi: 7 fragj: 11

>  <atom.prop.CHAIN_ID>  (2006) 
A A A A A A A Z Z Z Z Z Z Z Z Z Z Z

>  <atom.prop.IS_HEAVY_ATOM>  (2006) 
1 0 0 0 1 1 1 1 0 0 0 1 0 0 1 0 0 0

>  <DIFUSE_FUNC_ATOM>  (2006) 
n/a

>  <FINAL_SINGLE_POINT_ENERGY>  (2006) 
0

>  <NONCOV_INTER_ENERGY_QM>  (2006) 
0

>  <FF_Energy>  (2006) 
39.7

>  <QM_Energy>  (2006) 
2.55

>  <source>  (2006) 
ACET_PRPA_28

>  <Index>  (2006) 
1582

$$$$
ACEH-pdb2a9f-A-GLH-294:PRPA-pdb2a9f-A-VAL-265
     RDKit          3D

 18 16  0  0  0  0  0  0  0  0999 V2000
    0.0204    1.5348    0.0190 C   0  0  0  0  0  0  0  0  0  0  0  0
    0.8916    1.8210   -0.3388 H   0  0  0  0  0  0  0  0  0  0  0  0
   -0.1048    1.8181    0.9535 H   0  0  0  0  0  0  0  0  0  0  0  0
   -0.7609    1.9978   -0.5836 H   0  0  0  0  0  0  0  0  0  0  0  0
    0.0000    0.0000    0.0000 C   0  0  0  0  0  0  0  0  0  0  0  0
   -1.0959   -0.6154   -0.0000 O   0  0  0  0  0  0  0  0  0  0  0  0
    1.0959   -0.5977    0.0000 O   0  0  0  0  0  0  0  0  0  0  0  0
    3.9752    0.1210   -1.5860 C   0  0  0  0  0  0  0  0  0  0  0  0
    4.8071    0.7638   -1.5800 H   0  0  0  0  0  0  0  0  0  0  0  0
    4.0273   -0.4586   -2.5076 H   0  0  0  0  0  0  0  0  0  0  0  0
    3.9405   -0.3530   -0.6051 H   0  0  0  0  0  0  0  0  0  0  0  0
    2.7983    1.0880   -1.6834 C   0  0  0  0  0  0  0  0  0  0  0  0
    2.5113    1.3154   -0.7570 H   0  0  0  0  0  0  0  0  0  0  0  0
    3.1145    2.0173   -2.1574 H   0  0  0  0  0  0  0  0  0  0  0  0
    1.6938    0.4566   -2.5133 C   0  0  0  0  0  0  0  0  0  0  0  0
    1.7829   -0.5392   -2.4806 H   0  0  0  0  0  0  0  0  0  0  0  0
    0.8053    0.7259   -2.1421 H   0  0  0  0  0  0  0  0  0  0  0  0
    1.7707    0.7690   -3.4602 H   0  0  0  0  0  0  0  0  0  0  0  0
  1  5  1  0
  5  6  2  0
  5  7  1  0
  1  2  1  0
  1  3  1  0
  1  4  1  0
  8 12  1  0
 12 15  1  0
  8  9  1  0
  8 10  1  0
  8 11  1  0
 12 13  1  0
 12 14  1  0
 15 16  1  0
 15 17  1  0
 15 18  1  0
M  CHG  1   7  -1
V    7 [O&-]
M  END
>  <PDB_ID>  (2007) 
pdb2a9f

>  <RESIDUE_NAME>  (2007) 
GLU   VAL

>  <FRAG_NAME>  (2007) 
ACET   PRPA

>  <FRAG_ATOM_NUM>  (2007) 
fragi: 7 fragj: 11

>  <atom.prop.CHAIN_ID>  (2007) 
A A A A A A A Z Z Z Z Z Z Z Z Z Z Z

>  <atom.prop.IS_HEAVY_ATOM>  (2007) 
1 0 0 0 1 1 1 1 0 0 0 1 0 0 1 0 0 0

>  <DIFUSE_FUNC_ATOM>  (2007) 
n/a

>  <FINAL_SINGLE_POINT_ENERGY>  (2007) 
0

>  <NONCOV_INTER_ENERGY_QM>  (2007) 
0

>  <FF_Energy>  (2007) 
16.44

>  <QM_Energy>  (2007) 
0.34

>  <source>  (2007) 
ACET_PRPA_28

>  <Index>  (2007) 
1807

$$$$
ACEH-pdb5aa4-A-GLH-206:PRPA-pdb5aa4-A-6X4-1458
     RDKit          3D

 18 16  0  0  0  0  0  0  0  0999 V2000
    0.0374    1.5617   -0.0198 C   0  0  0  0  0  0  0  0  0  0  0  0
   -0.3419    1.8806    0.8141 H   0  0  0  0  0  0  0  0  0  0  0  0
   -0.5027    1.8646   -0.7664 H   0  0  0  0  0  0  0  0  0  0  0  0
    1.0450    1.9634   -0.1270 H   0  0  0  0  0  0  0  0  0  0  0  0
    0.0000    0.0000    0.0000 C   0  0  0  0  0  0  0  0  0  0  0  0
   -1.0801   -0.6233   -0.0000 O   0  0  0  0  0  0  0  0  0  0  0  0
    1.0801   -0.6339    0.0000 O   0  0  0  0  0  0  0  0  0  0  0  0
   -3.7847    1.5661    2.2503 C   0  0  0  0  0  0  0  0  0  0  0  0
   -4.6949    1.2250    2.1553 H   0  0  0  0  0  0  0  0  0  0  0  0
   -3.3485    1.2425    3.1954 H   0  0  0  0  0  0  0  0  0  0  0  0
   -3.7424    2.6247    1.9941 H   0  0  0  0  0  0  0  0  0  0  0  0
   -2.8847    0.9887    1.1711 C   0  0  0  0  0  0  0  0  0  0  0  0
   -1.9946    1.3471    1.3585 H   0  0  0  0  0  0  0  0  0  0  0  0
   -2.8413    0.0293    1.3568 H   0  0  0  0  0  0  0  0  0  0  0  0
   -3.0591    1.1030   -0.3870 C   0  0  0  0  0  0  0  0  0  0  0  0
   -3.5235    0.2797   -0.6384 H   0  0  0  0  0  0  0  0  0  0  0  0
   -2.1511    1.0178   -0.7380 H   0  0  0  0  0  0  0  0  0  0  0  0
   -3.5176    1.8724   -1.0083 H   0  0  0  0  0  0  0  0  0  0  0  0
  1  5  1  0
  5  6  2  0
  5  7  1  0
  1  2  1  0
  1  3  1  0
  1  4  1  0
  8 12  1  0
 12 15  1  0
  8  9  1  0
  8 10  1  0
  8 11  1  0
 12 13  1  0
 12 14  1  0
 15 16  1  0
 15 17  1  0
 15 18  1  0
M  CHG  1   7  -1
V    7 [O&-]
M  END
>  <PDB_ID>  (2008) 
pdb5aa4

>  <RESIDUE_NAME>  (2008) 
GLU   6X4

>  <FRAG_NAME>  (2008) 
ACET   PRPA

>  <FRAG_ATOM_NUM>  (2008) 
fragi: 7 fragj: 11

>  <atom.prop.CHAIN_ID>  (2008) 
A A A A A A A Z Z Z Z Z Z Z Z Z Z Z

>  <atom.prop.IS_HEAVY_ATOM>  (2008) 
1 0 0 0 1 1 1 1 0 0 0 1 0 0 1 0 0 0

>  <DIFUSE_FUNC_ATOM>  (2008) 
n/a

>  <FINAL_SINGLE_POINT_ENERGY>  (2008) 
0

>  <NONCOV_INTER_ENERGY_QM>  (2008) 
0

>  <FF_Energy>  (2008) 
16.54

>  <QM_Energy>  (2008) 
5.98

>  <source>  (2008) 
ACET_PRPA_28

>  <Index>  (2008) 
2432

$$$$
ACEH-pdb2a9f-B-GLH-294:PRPA-pdb2a9f-B-VAL-265
     RDKit          3D

 18 16  0  0  0  0  0  0  0  0999 V2000
   -0.0288    1.5302   -0.0349 C   0  0  0  0  0  0  0  0  0  0  0  0
   -0.6245    1.8272    0.6952 H   0  0  0  0  0  0  0  0  0  0  0  0
   -0.3818    1.7948   -0.9192 H   0  0  0  0  0  0  0  0  0  0  0  0
    0.9439    2.0024    0.1024 H   0  0  0  0  0  0  0  0  0  0  0  0
    0.0000    0.0000    0.0000 C   0  0  0  0  0  0  0  0  0  0  0  0
   -1.0930   -0.6079    0.0000 O   0  0  0  0  0  0  0  0  0  0  0  0
    1.0930   -0.5970   -0.0000 O   0  0  0  0  0  0  0  0  0  0  0  0
   -1.1854   -0.4038   -3.8211 C   0  0  0  0  0  0  0  0  0  0  0  0
   -0.7074   -0.6887   -4.6415 H   0  0  0  0  0  0  0  0  0  0  0  0
   -2.1239    0.0675   -4.1128 H   0  0  0  0  0  0  0  0  0  0  0  0
   -1.4464   -1.2977   -3.2547 H   0  0  0  0  0  0  0  0  0  0  0  0
   -0.2952    0.5414   -2.9614 C   0  0  0  0  0  0  0  0  0  0  0  0
   -0.6785    0.5673   -2.0513 H   0  0  0  0  0  0  0  0  0  0  0  0
    0.7048    0.1174   -2.8699 H   0  0  0  0  0  0  0  0  0  0  0  0
   -0.2363    1.9694   -3.5837 C   0  0  0  0  0  0  0  0  0  0  0  0
   -0.7024    1.9467   -4.4606 H   0  0  0  0  0  0  0  0  0  0  0  0
   -0.6897    2.5993   -2.9623 H   0  0  0  0  0  0  0  0  0  0  0  0
    0.7184    2.2186   -3.7008 H   0  0  0  0  0  0  0  0  0  0  0  0
  1  5  1  0
  5  6  2  0
  5  7  1  0
  1  2  1  0
  1  3  1  0
  1  4  1  0
  8 12  1  0
 12 15  1  0
  8  9  1  0
  8 10  1  0
  8 11  1  0
 12 13  1  0
 12 14  1  0
 15 16  1  0
 15 17  1  0
 15 18  1  0
M  CHG  1   7  -1
V    7 [O&-]
M  END
>  <PDB_ID>  (2009) 
pdb2a9f

>  <RESIDUE_NAME>  (2009) 
GLU   VAL

>  <FRAG_NAME>  (2009) 
ACET   PRPA

>  <FRAG_ATOM_NUM>  (2009) 
fragi: 7 fragj: 11

>  <atom.prop.CHAIN_ID>  (2009) 
A A A A A A A Z Z Z Z Z Z Z Z Z Z Z

>  <atom.prop.IS_HEAVY_ATOM>  (2009) 
1 0 0 0 1 1 1 1 0 0 0 1 0 0 1 0 0 0

>  <DIFUSE_FUNC_ATOM>  (2009) 
n/a

>  <FINAL_SINGLE_POINT_ENERGY>  (2009) 
0

>  <NONCOV_INTER_ENERGY_QM>  (2009) 
0

>  <FF_Energy>  (2009) 
17.66

>  <QM_Energy>  (2009) 
0.98

>  <source>  (2009) 
ACET_PRPA_28

>  <Index>  (2009) 
3050

$$$$
ACEH-pdb2a9f-B-GLH-294:PRPA-pdb2a9f-B-VAL-265
     RDKit          3D

 18 16  0  0  0  0  0  0  0  0999 V2000
   -0.0288    1.5302   -0.0349 C   0  0  0  0  0  0  0  0  0  0  0  0
   -0.6245    1.8272    0.6952 H   0  0  0  0  0  0  0  0  0  0  0  0
   -0.3818    1.7948   -0.9192 H   0  0  0  0  0  0  0  0  0  0  0  0
    0.9439    2.0024    0.1024 H   0  0  0  0  0  0  0  0  0  0  0  0
    0.0000    0.0000    0.0000 C   0  0  0  0  0  0  0  0  0  0  0  0
   -1.0930   -0.6079    0.0000 O   0  0  0  0  0  0  0  0  0  0  0  0
    1.0930   -0.5970   -0.0000 O   0  0  0  0  0  0  0  0  0  0  0  0
    1.1204   -0.0589   -2.8320 C   0  0  0  0  0  0  0  0  0  0  0  0
    1.4046   -0.4125   -3.7191 H   0  0  0  0  0  0  0  0  0  0  0  0
    1.7484    0.6548   -2.5327 H   0  0  0  0  0  0  0  0  0  0  0  0
    1.0991   -0.7972   -2.1621 H   0  0  0  0  0  0  0  0  0  0  0  0
   -0.2952    0.5414   -2.9614 C   0  0  0  0  0  0  0  0  0  0  0  0
   -0.6785    0.5673   -2.0513 H   0  0  0  0  0  0  0  0  0  0  0  0
   -0.9183   -0.1203   -3.5632 H   0  0  0  0  0  0  0  0  0  0  0  0
   -0.2363    1.9694   -3.5837 C   0  0  0  0  0  0  0  0  0  0  0  0
   -0.7024    1.9467   -4.4606 H   0  0  0  0  0  0  0  0  0  0  0  0
   -0.6897    2.5993   -2.9623 H   0  0  0  0  0  0  0  0  0  0  0  0
    0.7184    2.2186   -3.7008 H   0  0  0  0  0  0  0  0  0  0  0  0
  1  5  1  0
  5  6  2  0
  5  7  1  0
  1  2  1  0
  1  3  1  0
  1  4  1  0
  8 12  1  0
 12 15  1  0
  8  9  1  0
  8 10  1  0
  8 11  1  0
 12 13  1  0
 12 14  1  0
 15 16  1  0
 15 17  1  0
 15 18  1  0
M  CHG  1   7  -1
V    7 [O&-]
M  END
>  <PDB_ID>  (2010) 
pdb2a9f

>  <RESIDUE_NAME>  (2010) 
GLU   VAL

>  <FRAG_NAME>  (2010) 
ACET   PRPA

>  <FRAG_ATOM_NUM>  (2010) 
fragi: 7 fragj: 11

>  <atom.prop.CHAIN_ID>  (2010) 
A A A A A A A Z Z Z Z Z Z Z Z Z Z Z

>  <atom.prop.IS_HEAVY_ATOM>  (2010) 
1 0 0 0 1 1 1 1 0 0 0 1 0 0 1 0 0 0

>  <DIFUSE_FUNC_ATOM>  (2010) 
n/a

>  <FINAL_SINGLE_POINT_ENERGY>  (2010) 
0

>  <NONCOV_INTER_ENERGY_QM>  (2010) 
0

>  <FF_Energy>  (2010) 
23.34

>  <QM_Energy>  (2010) 
2.19

>  <source>  (2010) 
ACET_PRPA_28

>  <Index>  (2010) 
3201

$$$$
ACEH-pdb2a9f-B-GLH-294:PRPA-pdb2a9f-B-PRO-268
     RDKit          3D

 18 16  0  0  0  0  0  0  0  0999 V2000
   -0.0288    1.5302   -0.0349 C   0  0  0  0  0  0  0  0  0  0  0  0
   -0.6245    1.8272    0.6952 H   0  0  0  0  0  0  0  0  0  0  0  0
   -0.3818    1.7948   -0.9192 H   0  0  0  0  0  0  0  0  0  0  0  0
    0.9439    2.0024    0.1024 H   0  0  0  0  0  0  0  0  0  0  0  0
    0.0000    0.0000    0.0000 C   0  0  0  0  0  0  0  0  0  0  0  0
   -1.0930   -0.6079    0.0000 O   0  0  0  0  0  0  0  0  0  0  0  0
    1.0930   -0.5970   -0.0000 O   0  0  0  0  0  0  0  0  0  0  0  0
    5.0779   -1.7485   -1.0119 C   0  0  0  0  0  0  0  0  0  0  0  0
    5.7468   -1.0479   -0.7907 H   0  0  0  0  0  0  0  0  0  0  0  0
    5.4203   -2.3441   -1.7288 H   0  0  0  0  0  0  0  0  0  0  0  0
    4.8104   -2.3224   -0.1247 H   0  0  0  0  0  0  0  0  0  0  0  0
    3.7738   -1.1555   -1.3768 C   0  0  0  0  0  0  0  0  0  0  0  0
    3.5245   -0.4139   -0.7570 H   0  0  0  0  0  0  0  0  0  0  0  0
    3.7754   -0.8233   -2.3181 H   0  0  0  0  0  0  0  0  0  0  0  0
    2.7943   -2.3166   -1.2297 C   0  0  0  0  0  0  0  0  0  0  0  0
    1.8876   -1.9886   -0.9859 H   0  0  0  0  0  0  0  0  0  0  0  0
    2.7533   -2.8561   -2.0654 H   0  0  0  0  0  0  0  0  0  0  0  0
    3.2319   -2.8937   -0.4151 H   0  0  0  0  0  0  0  0  0  0  0  0
  1  5  1  0
  5  6  2  0
  5  7  1  0
  1  2  1  0
  1  3  1  0
  1  4  1  0
  8 12  1  0
 12 15  1  0
  8  9  1  0
  8 10  1  0
  8 11  1  0
 12 13  1  0
 12 14  1  0
 15 16  1  0
 15 17  1  0
 15 18  1  0
M  CHG  1   7  -1
V    7 [O&-]
M  END
>  <PDB_ID>  (2011) 
pdb2a9f

>  <RESIDUE_NAME>  (2011) 
GLU   PRO

>  <FRAG_NAME>  (2011) 
ACET   PRPA

>  <FRAG_ATOM_NUM>  (2011) 
fragi: 7 fragj: 11

>  <atom.prop.CHAIN_ID>  (2011) 
A A A A A A A Z Z Z Z Z Z Z Z Z Z Z

>  <atom.prop.IS_HEAVY_ATOM>  (2011) 
1 0 0 0 1 1 1 1 0 0 0 1 0 0 1 0 0 0

>  <DIFUSE_FUNC_ATOM>  (2011) 
n/a

>  <FINAL_SINGLE_POINT_ENERGY>  (2011) 
0

>  <NONCOV_INTER_ENERGY_QM>  (2011) 
0

>  <FF_Energy>  (2011) 
17.74

>  <QM_Energy>  (2011) 
-0.42

>  <source>  (2011) 
ACET_PRPA_28

>  <Index>  (2011) 
3497

$$$$
ACEH-pdb3acz-B-GLH-651:PRPA-pdb3acz-B-LEU-607
     RDKit          3D

 18 16  0  0  0  0  0  0  0  0999 V2000
   -0.0003    1.4976    0.0029 C   0  0  0  0  0  0  0  0  0  0  0  0
   -0.3255    1.7891   -0.8786 H   0  0  0  0  0  0  0  0  0  0  0  0
    0.9266    1.7865    0.1690 H   0  0  0  0  0  0  0  0  0  0  0  0
   -0.6543    1.8858    0.7837 H   0  0  0  0  0  0  0  0  0  0  0  0
    0.0000    0.0000    0.0000 C   0  0  0  0  0  0  0  0  0  0  0  0
   -1.0993   -0.5893    0.0000 O   0  0  0  0  0  0  0  0  0  0  0  0
    1.0993   -0.5857    0.0000 O   0  0  0  0  0  0  0  0  0  0  0  0
    3.1740   -1.6971    0.8389 C   0  0  0  0  0  0  0  0  0  0  0  0
    3.8327   -2.4649    0.7829 H   0  0  0  0  0  0  0  0  0  0  0  0
    2.9075   -1.4569   -0.1084 H   0  0  0  0  0  0  0  0  0  0  0  0
    2.2817   -2.0763    1.3372 H   0  0  0  0  0  0  0  0  0  0  0  0
    3.9262   -0.4991    1.4148 C   0  0  0  0  0  0  0  0  0  0  0  0
    4.0681   -0.6363    2.3916 H   0  0  0  0  0  0  0  0  0  0  0  0
    4.8959   -0.3929    0.9286 H   0  0  0  0  0  0  0  0  0  0  0  0
    3.1043    0.7874    1.2919 C   0  0  0  0  0  0  0  0  0  0  0  0
    2.2459    0.6795    1.7919 H   0  0  0  0  0  0  0  0  0  0  0  0
    3.6237    1.5487    1.6773 H   0  0  0  0  0  0  0  0  0  0  0  0
    2.9114    0.9648    0.3279 H   0  0  0  0  0  0  0  0  0  0  0  0
  1  5  1  0
  5  6  2  0
  5  7  1  0
  1  2  1  0
  1  3  1  0
  1  4  1  0
  8 12  1  0
 12 15  1  0
  8  9  1  0
  8 10  1  0
  8 11  1  0
 12 13  1  0
 12 14  1  0
 15 16  1  0
 15 17  1  0
 15 18  1  0
M  CHG  1   7  -1
V    7 [O&-]
M  END
>  <PDB_ID>  (2012) 
pdb3acz

>  <RESIDUE_NAME>  (2012) 
GLU   LEU

>  <FRAG_NAME>  (2012) 
ACET   PRPA

>  <FRAG_ATOM_NUM>  (2012) 
fragi: 7 fragj: 11

>  <atom.prop.CHAIN_ID>  (2012) 
A A A A A A A Z Z Z Z Z Z Z Z Z Z Z

>  <atom.prop.IS_HEAVY_ATOM>  (2012) 
1 0 0 0 1 1 1 1 0 0 0 1 0 0 1 0 0 0

>  <DIFUSE_FUNC_ATOM>  (2012) 
n/a

>  <FINAL_SINGLE_POINT_ENERGY>  (2012) 
0

>  <NONCOV_INTER_ENERGY_QM>  (2012) 
0

>  <FF_Energy>  (2012) 
22.59

>  <QM_Energy>  (2012) 
5.81

>  <source>  (2012) 
ACET_PRPA_28

>  <Index>  (2012) 
3657

$$$$
ACEH-pdb4ag5-C-GLH-472:PRPA-pdb4ag5-C-GLU-274
     RDKit          3D

 18 16  0  0  0  0  0  0  0  0999 V2000
   -0.1773    1.4855   -0.0147 C   0  0  0  0  0  0  0  0  0  0  0  0
   -0.6959    1.7388    0.8025 H   0  0  0  0  0  0  0  0  0  0  0  0
   -0.7075    1.7215   -0.8298 H   0  0  0  0  0  0  0  0  0  0  0  0
    0.7333    2.0845   -0.0270 H   0  0  0  0  0  0  0  0  0  0  0  0
    0.0000    0.0000    0.0000 C   0  0  0  0  0  0  0  0  0  0  0  0
   -1.0892   -0.6094    0.0000 O   0  0  0  0  0  0  0  0  0  0  0  0
    1.0892   -0.5564   -0.0000 O   0  0  0  0  0  0  0  0  0  0  0  0
   -1.2171   -3.3805   -2.7623 C   0  0  0  0  0  0  0  0  0  0  0  0
   -0.6910   -4.0643   -2.2168 H   0  0  0  0  0  0  0  0  0  0  0  0
   -0.5233   -2.7130   -3.2733 H   0  0  0  0  0  0  0  0  0  0  0  0
   -1.9012   -3.9104   -3.4251 H   0  0  0  0  0  0  0  0  0  0  0  0
   -1.9914   -2.6058   -1.6933 C   0  0  0  0  0  0  0  0  0  0  0  0
   -2.8858   -3.0507   -1.5919 H   0  0  0  0  0  0  0  0  0  0  0  0
   -1.4845   -2.6967   -0.8328 H   0  0  0  0  0  0  0  0  0  0  0  0
   -2.2469   -1.1240   -1.9120 C   0  0  0  0  0  0  0  0  0  0  0  0
   -1.3571   -0.6746   -2.0076 H   0  0  0  0  0  0  0  0  0  0  0  0
   -2.7577   -1.0266   -2.7675 H   0  0  0  0  0  0  0  0  0  0  0  0
   -2.8012   -0.6019   -1.1320 H   0  0  0  0  0  0  0  0  0  0  0  0
  1  5  1  0
  5  6  2  0
  5  7  1  0
  1  2  1  0
  1  3  1  0
  1  4  1  0
  8 12  1  0
 12 15  1  0
  8  9  1  0
  8 10  1  0
  8 11  1  0
 12 13  1  0
 12 14  1  0
 15 16  1  0
 15 17  1  0
 15 18  1  0
M  CHG  1   7  -1
V    7 [O&-]
M  END
>  <PDB_ID>  (2013) 
pdb4ag5

>  <RESIDUE_NAME>  (2013) 
GLU   GLU

>  <FRAG_NAME>  (2013) 
ACET   PRPA

>  <FRAG_ATOM_NUM>  (2013) 
fragi: 7 fragj: 11

>  <atom.prop.CHAIN_ID>  (2013) 
A A A A A A A Z Z Z Z Z Z Z Z Z Z Z

>  <atom.prop.IS_HEAVY_ATOM>  (2013) 
1 0 0 0 1 1 1 1 0 0 0 1 0 0 1 0 0 0

>  <DIFUSE_FUNC_ATOM>  (2013) 
n/a

>  <FINAL_SINGLE_POINT_ENERGY>  (2013) 
0

>  <NONCOV_INTER_ENERGY_QM>  (2013) 
0

>  <FF_Energy>  (2013) 
46.28

>  <QM_Energy>  (2013) 
11.2

>  <source>  (2013) 
ACET_PRPA_28

>  <Index>  (2013) 
3842

$$$$
ACEH-pdb3amh-B-GLH-67:PRPA-pdb3amh-B-GLU-227
     RDKit          3D

 18 16  0  0  0  0  0  0  0  0999 V2000
    0.0279    1.5535   -0.0364 C   0  0  0  0  0  0  0  0  0  0  0  0
   -0.8590    1.8657    0.2321 H   0  0  0  0  0  0  0  0  0  0  0  0
    0.2694    1.8177   -0.9463 H   0  0  0  0  0  0  0  0  0  0  0  0
    0.7570    1.9896    0.6465 H   0  0  0  0  0  0  0  0  0  0  0  0
    0.0000    0.0000    0.0000 C   0  0  0  0  0  0  0  0  0  0  0  0
   -1.1063   -0.6047    0.0000 O   0  0  0  0  0  0  0  0  0  0  0  0
    1.1063   -0.6183   -0.0000 O   0  0  0  0  0  0  0  0  0  0  0  0
    4.5003   -1.9389   -0.3791 C   0  0  0  0  0  0  0  0  0  0  0  0
    4.2483   -1.4131   -1.1902 H   0  0  0  0  0  0  0  0  0  0  0  0
    5.0798   -2.8141   -0.6729 H   0  0  0  0  0  0  0  0  0  0  0  0
    5.0975   -1.3162    0.2870 H   0  0  0  0  0  0  0  0  0  0  0  0
    3.2409   -2.3553    0.3563 C   0  0  0  0  0  0  0  0  0  0  0  0
    3.5084   -2.8362    1.1651 H   0  0  0  0  0  0  0  0  0  0  0  0
    2.7182   -1.5504    0.5422 H   0  0  0  0  0  0  0  0  0  0  0  0
    2.3831   -3.2832   -0.4714 C   0  0  0  0  0  0  0  0  0  0  0  0
    2.0448   -2.7924   -1.2527 H   0  0  0  0  0  0  0  0  0  0  0  0
    2.9144   -4.0698   -0.7256 H   0  0  0  0  0  0  0  0  0  0  0  0
    1.5121   -3.6538    0.0689 H   0  0  0  0  0  0  0  0  0  0  0  0
  1  5  1  0
  5  6  2  0
  5  7  1  0
  1  2  1  0
  1  3  1  0
  1  4  1  0
  8 12  1  0
 12 15  1  0
  8  9  1  0
  8 10  1  0
  8 11  1  0
 12 13  1  0
 12 14  1  0
 15 16  1  0
 15 17  1  0
 15 18  1  0
M  CHG  1   7  -1
V    7 [O&-]
M  END
>  <PDB_ID>  (2014) 
pdb3amh

>  <RESIDUE_NAME>  (2014) 
GLU   GLU

>  <FRAG_NAME>  (2014) 
ACET   PRPA

>  <FRAG_ATOM_NUM>  (2014) 
fragi: 7 fragj: 11

>  <atom.prop.CHAIN_ID>  (2014) 
A A A A A A A Z Z Z Z Z Z Z Z Z Z Z

>  <atom.prop.IS_HEAVY_ATOM>  (2014) 
1 0 0 0 1 1 1 1 0 0 0 1 0 0 1 0 0 0

>  <DIFUSE_FUNC_ATOM>  (2014) 
n/a

>  <FINAL_SINGLE_POINT_ENERGY>  (2014) 
0

>  <NONCOV_INTER_ENERGY_QM>  (2014) 
0

>  <FF_Energy>  (2014) 
14.3

>  <QM_Energy>  (2014) 
-2.5

>  <source>  (2014) 
ACET_PRPA_28

>  <Index>  (2014) 
4691

$$$$
ACEH-pdb3avx-A-GLH-128:PRPA-pdb3avx-A-VAL-83
     RDKit          3D

 18 16  0  0  0  0  0  0  0  0999 V2000
   -0.0090    1.5295    0.0036 C   0  0  0  0  0  0  0  0  0  0  0  0
   -0.1752    1.8182    0.9262 H   0  0  0  0  0  0  0  0  0  0  0  0
   -0.7149    1.8183   -0.6139 H   0  0  0  0  0  0  0  0  0  0  0  0
    0.9376    1.9573   -0.3266 H   0  0  0  0  0  0  0  0  0  0  0  0
    0.0000    0.0000    0.0000 C   0  0  0  0  0  0  0  0  0  0  0  0
   -1.0947   -0.5981    0.0000 O   0  0  0  0  0  0  0  0  0  0  0  0
    1.0947   -0.6067   -0.0000 O   0  0  0  0  0  0  0  0  0  0  0  0
    0.3062   -1.5626   -2.7335 C   0  0  0  0  0  0  0  0  0  0  0  0
    0.4915   -0.5851   -2.6587 H   0  0  0  0  0  0  0  0  0  0  0  0
   -0.3401   -1.7271   -3.4763 H   0  0  0  0  0  0  0  0  0  0  0  0
   -0.0745   -1.9001   -1.8747 H   0  0  0  0  0  0  0  0  0  0  0  0
    1.6151   -2.3034   -3.0309 C   0  0  0  0  0  0  0  0  0  0  0  0
    2.0868   -1.7910   -3.7393 H   0  0  0  0  0  0  0  0  0  0  0  0
    1.4197   -3.2989   -3.4293 H   0  0  0  0  0  0  0  0  0  0  0  0
    2.4807   -2.3728   -1.7985 C   0  0  0  0  0  0  0  0  0  0  0  0
    2.3539   -3.2586   -1.3472 H   0  0  0  0  0  0  0  0  0  0  0  0
    3.4432   -2.2677   -2.0563 H   0  0  0  0  0  0  0  0  0  0  0  0
    2.2252   -1.6393   -1.1652 H   0  0  0  0  0  0  0  0  0  0  0  0
  1  5  1  0
  5  6  2  0
  5  7  1  0
  1  2  1  0
  1  3  1  0
  1  4  1  0
  8 12  1  0
 12 15  1  0
  8  9  1  0
  8 10  1  0
  8 11  1  0
 12 13  1  0
 12 14  1  0
 15 16  1  0
 15 17  1  0
 15 18  1  0
M  CHG  1   7  -1
V    7 [O&-]
M  END
>  <PDB_ID>  (2015) 
pdb3avx

>  <RESIDUE_NAME>  (2015) 
GLU   VAL

>  <FRAG_NAME>  (2015) 
ACET   PRPA

>  <FRAG_ATOM_NUM>  (2015) 
fragi: 7 fragj: 11

>  <atom.prop.CHAIN_ID>  (2015) 
A A A A A A A Z Z Z Z Z Z Z Z Z Z Z

>  <atom.prop.IS_HEAVY_ATOM>  (2015) 
1 0 0 0 1 1 1 1 0 0 0 1 0 0 1 0 0 0

>  <DIFUSE_FUNC_ATOM>  (2015) 
n/a

>  <FINAL_SINGLE_POINT_ENERGY>  (2015) 
0

>  <NONCOV_INTER_ENERGY_QM>  (2015) 
0

>  <FF_Energy>  (2015) 
14.0

>  <QM_Energy>  (2015) 
-2.03

>  <source>  (2015) 
ACET_PRPA_28

>  <Index>  (2015) 
4837

$$$$
ACEH-pdb2b2c-B-GLH-96:PRPA-pdb2b2c-B-LEU-291
     RDKit          3D

 18 16  0  0  0  0  0  0  0  0999 V2000
    0.0157    1.5330    0.0151 C   0  0  0  0  0  0  0  0  0  0  0  0
    0.2065    1.8273   -0.9047 H   0  0  0  0  0  0  0  0  0  0  0  0
    0.7233    1.8062    0.6435 H   0  0  0  0  0  0  0  0  0  0  0  0
   -0.9293    1.9712    0.3360 H   0  0  0  0  0  0  0  0  0  0  0  0
    0.0000    0.0000    0.0000 C   0  0  0  0  0  0  0  0  0  0  0  0
   -1.0943   -0.6031   -0.0000 O   0  0  0  0  0  0  0  0  0  0  0  0
    1.0943   -0.6098   -0.0000 O   0  0  0  0  0  0  0  0  0  0  0  0
    2.3943   -2.6241   -1.0364 C   0  0  0  0  0  0  0  0  0  0  0  0
    2.3689   -1.7444   -0.5424 H   0  0  0  0  0  0  0  0  0  0  0  0
    3.4355   -2.9109   -1.1841 H   0  0  0  0  0  0  0  0  0  0  0  0
    1.8543   -3.3633   -0.4448 H   0  0  0  0  0  0  0  0  0  0  0  0
    1.7008   -2.4191   -2.3960 C   0  0  0  0  0  0  0  0  0  0  0  0
    1.8667   -3.2154   -2.9419 H   0  0  0  0  0  0  0  0  0  0  0  0
    0.7511   -2.2587   -2.2283 H   0  0  0  0  0  0  0  0  0  0  0  0
    2.2543   -1.2088   -3.1551 C   0  0  0  0  0  0  0  0  0  0  0  0
    3.2453   -1.3379   -3.2908 H   0  0  0  0  0  0  0  0  0  0  0  0
    1.7738   -1.0629   -4.1226 H   0  0  0  0  0  0  0  0  0  0  0  0
    2.2282   -0.2988   -2.5557 H   0  0  0  0  0  0  0  0  0  0  0  0
  1  5  1  0
  5  6  2  0
  5  7  1  0
  1  2  1  0
  1  3  1  0
  1  4  1  0
  8 12  1  0
 12 15  1  0
  8  9  1  0
  8 10  1  0
  8 11  1  0
 12 13  1  0
 12 14  1  0
 15 16  1  0
 15 17  1  0
 15 18  1  0
M  CHG  1   7  -1
V    7 [O&-]
M  END
>  <PDB_ID>  (2016) 
pdb2b2c

>  <RESIDUE_NAME>  (2016) 
GLU   LEU

>  <FRAG_NAME>  (2016) 
ACET   PRPA

>  <FRAG_ATOM_NUM>  (2016) 
fragi: 7 fragj: 11

>  <atom.prop.CHAIN_ID>  (2016) 
A A A A A A A Z Z Z Z Z Z Z Z Z Z Z

>  <atom.prop.IS_HEAVY_ATOM>  (2016) 
1 0 0 0 1 1 1 1 0 0 0 1 0 0 1 0 0 0

>  <DIFUSE_FUNC_ATOM>  (2016) 
n/a

>  <FINAL_SINGLE_POINT_ENERGY>  (2016) 
0

>  <NONCOV_INTER_ENERGY_QM>  (2016) 
0

>  <FF_Energy>  (2016) 
33.76

>  <QM_Energy>  (2016) 
0.7

>  <source>  (2016) 
ACET_PRPA_28

>  <Index>  (2016) 
5959

$$$$
ACEH-pdb1aye-A-ASH-65:PRPA-pdb1aye-A-ILE-194
     RDKit          3D

 18 16  0  0  0  0  0  0  0  0999 V2000
    0.0055    1.5207    0.0406 C   0  0  0  0  0  0  0  0  0  0  0  0
    0.4260    1.8186    0.8925 H   0  0  0  0  0  0  0  0  0  0  0  0
   -0.9316    1.8484   -0.0132 H   0  0  0  0  0  0  0  0  0  0  0  0
    0.5616    1.9777   -0.7780 H   0  0  0  0  0  0  0  0  0  0  0  0
    0.0000    0.0000    0.0000 C   0  0  0  0  0  0  0  0  0  0  0  0
   -1.0906   -0.6059   -0.0000 O   0  0  0  0  0  0  0  0  0  0  0  0
    1.0906   -0.5881   -0.0000 O   0  0  0  0  0  0  0  0  0  0  0  0
    0.3146   -3.2548   -2.6648 C   0  0  0  0  0  0  0  0  0  0  0  0
   -0.6687   -3.0761   -2.5966 H   0  0  0  0  0  0  0  0  0  0  0  0
    0.7279   -2.5193   -3.3550 H   0  0  0  0  0  0  0  0  0  0  0  0
    0.3782   -4.2690   -3.0590 H   0  0  0  0  0  0  0  0  0  0  0  0
    0.9246   -3.1426   -1.2984 C   0  0  0  0  0  0  0  0  0  0  0  0
    0.6789   -2.2253   -0.9305 H   0  0  0  0  0  0  0  0  0  0  0  0
    0.4465   -3.8144   -0.6997 H   0  0  0  0  0  0  0  0  0  0  0  0
    2.3296   -3.3442   -1.2432 C   0  0  0  0  0  0  0  0  0  0  0  0
    2.8307   -2.6699   -1.8134 H   0  0  0  0  0  0  0  0  0  0  0  0
    2.6864   -3.2567   -0.2962 H   0  0  0  0  0  0  0  0  0  0  0  0
    2.5916   -4.2667   -1.5758 H   0  0  0  0  0  0  0  0  0  0  0  0
  1  5  1  0
  5  6  2  0
  5  7  1  0
  1  2  1  0
  1  3  1  0
  1  4  1  0
  8 12  1  0
 12 15  1  0
  8  9  1  0
  8 10  1  0
  8 11  1  0
 12 13  1  0
 12 14  1  0
 15 16  1  0
 15 17  1  0
 15 18  1  0
M  CHG  1   7  -1
V    7 [O&-]
M  END
>  <PDB_ID>  (2017) 
pdb1aye

>  <RESIDUE_NAME>  (2017) 
ASP   ILE

>  <FRAG_NAME>  (2017) 
ACET   PRPA

>  <FRAG_ATOM_NUM>  (2017) 
fragi: 7 fragj: 11

>  <atom.prop.CHAIN_ID>  (2017) 
A A A A A A A Z Z Z Z Z Z Z Z Z Z Z

>  <atom.prop.IS_HEAVY_ATOM>  (2017) 
1 0 0 0 1 1 1 1 0 0 0 1 0 0 1 0 0 0

>  <DIFUSE_FUNC_ATOM>  (2017) 
n/a

>  <FINAL_SINGLE_POINT_ENERGY>  (2017) 
0

>  <NONCOV_INTER_ENERGY_QM>  (2017) 
0

>  <FF_Energy>  (2017) 
14.35

>  <QM_Energy>  (2017) 
-2.44

>  <source>  (2017) 
ACET_PRPA_28

>  <Index>  (2017) 
6017

$$$$
ACEH-pdb5b7g-A-GLH-219:PRPA-pdb5b7g-A-ARG-240
     RDKit          3D

 18 16  0  0  0  0  0  0  0  0999 V2000
   -0.0322    1.5211    0.0218 C   0  0  0  0  0  0  0  0  0  0  0  0
    0.2506    1.8075    0.9201 H   0  0  0  0  0  0  0  0  0  0  0  0
   -0.9552    1.7974   -0.1806 H   0  0  0  0  0  0  0  0  0  0  0  0
    0.6351    1.9737   -0.7116 H   0  0  0  0  0  0  0  0  0  0  0  0
    0.0000    0.0000    0.0000 C   0  0  0  0  0  0  0  0  0  0  0  0
   -1.0647   -0.6136   -0.0000 O   0  0  0  0  0  0  0  0  0  0  0  0
    1.0647   -0.6207    0.0000 O   0  0  0  0  0  0  0  0  0  0  0  0
   -3.9781   -2.4994   -3.2871 C   0  0  0  0  0  0  0  0  0  0  0  0
   -4.2193   -1.6815   -3.8409 H   0  0  0  0  0  0  0  0  0  0  0  0
   -4.8668   -2.8180   -2.7423 H   0  0  0  0  0  0  0  0  0  0  0  0
   -3.5866   -3.2714   -3.9494 H   0  0  0  0  0  0  0  0  0  0  0  0
   -2.8830   -2.0618   -2.3190 C   0  0  0  0  0  0  0  0  0  0  0  0
   -2.7677   -2.7684   -1.6398 H   0  0  0  0  0  0  0  0  0  0  0  0
   -2.0541   -1.9132   -2.8337 H   0  0  0  0  0  0  0  0  0  0  0  0
   -3.2463   -0.7750   -1.6150 C   0  0  0  0  0  0  0  0  0  0  0  0
   -4.2270   -0.7439   -1.4533 H   0  0  0  0  0  0  0  0  0  0  0  0
   -2.7523   -0.7107   -0.7541 H   0  0  0  0  0  0  0  0  0  0  0  0
   -2.9780    0.0908   -2.2205 H   0  0  0  0  0  0  0  0  0  0  0  0
  1  5  1  0
  5  6  2  0
  5  7  1  0
  1  2  1  0
  1  3  1  0
  1  4  1  0
  8 12  1  0
 12 15  1  0
  8  9  1  0
  8 10  1  0
  8 11  1  0
 12 13  1  0
 12 14  1  0
 15 16  1  0
 15 17  1  0
 15 18  1  0
M  CHG  1   7  -1
V    7 [O&-]
M  END
>  <PDB_ID>  (2018) 
pdb5b7g

>  <RESIDUE_NAME>  (2018) 
GLU   ARG

>  <FRAG_NAME>  (2018) 
ACET   PRPA

>  <FRAG_ATOM_NUM>  (2018) 
fragi: 7 fragj: 11

>  <atom.prop.CHAIN_ID>  (2018) 
A A A A A A A Z Z Z Z Z Z Z Z Z Z Z

>  <atom.prop.IS_HEAVY_ATOM>  (2018) 
1 0 0 0 1 1 1 1 0 0 0 1 0 0 1 0 0 0

>  <DIFUSE_FUNC_ATOM>  (2018) 
n/a

>  <FINAL_SINGLE_POINT_ENERGY>  (2018) 
0

>  <NONCOV_INTER_ENERGY_QM>  (2018) 
0

>  <FF_Energy>  (2018) 
20.64

>  <QM_Energy>  (2018) 
0.31

>  <source>  (2018) 
ACET_PRPA_28

>  <Index>  (2018) 
6085

$$$$
ACEH-pdb5b7g-A-GLH-219:PRPA-pdb5b7g-A-ARG-240
     RDKit          3D

 18 16  0  0  0  0  0  0  0  0999 V2000
   -0.0322    1.5211    0.0218 C   0  0  0  0  0  0  0  0  0  0  0  0
    0.2506    1.8075    0.9201 H   0  0  0  0  0  0  0  0  0  0  0  0
   -0.9552    1.7974   -0.1806 H   0  0  0  0  0  0  0  0  0  0  0  0
    0.6351    1.9737   -0.7116 H   0  0  0  0  0  0  0  0  0  0  0  0
    0.0000    0.0000    0.0000 C   0  0  0  0  0  0  0  0  0  0  0  0
   -1.0647   -0.6136   -0.0000 O   0  0  0  0  0  0  0  0  0  0  0  0
    1.0647   -0.6207    0.0000 O   0  0  0  0  0  0  0  0  0  0  0  0
   -2.8830   -2.0618   -2.3190 C   0  0  0  0  0  0  0  0  0  0  0  0
   -2.7677   -2.7684   -1.6398 H   0  0  0  0  0  0  0  0  0  0  0  0
   -2.0541   -1.9132   -2.8337 H   0  0  0  0  0  0  0  0  0  0  0  0
   -3.6653   -2.3744   -3.0107 H   0  0  0  0  0  0  0  0  0  0  0  0
   -3.2463   -0.7750   -1.6150 C   0  0  0  0  0  0  0  0  0  0  0  0
   -4.2270   -0.7439   -1.4533 H   0  0  0  0  0  0  0  0  0  0  0  0
   -2.7523   -0.7107   -0.7541 H   0  0  0  0  0  0  0  0  0  0  0  0
   -2.8709    0.4364   -2.4621 C   0  0  0  0  0  0  0  0  0  0  0  0
   -1.8808    0.4782   -2.5197 H   0  0  0  0  0  0  0  0  0  0  0  0
   -3.2684    0.3156   -3.3643 H   0  0  0  0  0  0  0  0  0  0  0  0
   -3.2460    1.3608   -2.0230 H   0  0  0  0  0  0  0  0  0  0  0  0
  1  5  1  0
  5  6  2  0
  5  7  1  0
  1  2  1  0
  1  3  1  0
  1  4  1  0
  8 12  1  0
 12 15  1  0
  8  9  1  0
  8 10  1  0
  8 11  1  0
 12 13  1  0
 12 14  1  0
 15 16  1  0
 15 17  1  0
 15 18  1  0
M  CHG  1   7  -1
V    7 [O&-]
M  END
>  <PDB_ID>  (2019) 
pdb5b7g

>  <RESIDUE_NAME>  (2019) 
GLU   ARG

>  <FRAG_NAME>  (2019) 
ACET   PRPA

>  <FRAG_ATOM_NUM>  (2019) 
fragi: 7 fragj: 11

>  <atom.prop.CHAIN_ID>  (2019) 
A A A A A A A Z Z Z Z Z Z Z Z Z Z Z

>  <atom.prop.IS_HEAVY_ATOM>  (2019) 
1 0 0 0 1 1 1 1 0 0 0 1 0 0 1 0 0 0

>  <DIFUSE_FUNC_ATOM>  (2019) 
n/a

>  <FINAL_SINGLE_POINT_ENERGY>  (2019) 
0

>  <NONCOV_INTER_ENERGY_QM>  (2019) 
0

>  <FF_Energy>  (2019) 
24.1

>  <QM_Energy>  (2019) 
-1.41

>  <source>  (2019) 
ACET_PRPA_28

>  <Index>  (2019) 
6134

$$$$
ACEH-pdb5b7g-B-GLH-219:PRPA-pdb5b7g-B-ARG-240
     RDKit          3D

 18 16  0  0  0  0  0  0  0  0999 V2000
   -0.0295    1.5232    0.0356 C   0  0  0  0  0  0  0  0  0  0  0  0
    0.3442    1.8041    0.9021 H   0  0  0  0  0  0  0  0  0  0  0  0
   -0.9685    1.8005   -0.0678 H   0  0  0  0  0  0  0  0  0  0  0  0
    0.5575    1.9847   -0.7585 H   0  0  0  0  0  0  0  0  0  0  0  0
    0.0000    0.0000    0.0000 C   0  0  0  0  0  0  0  0  0  0  0  0
   -1.0685   -0.6142   -0.0000 O   0  0  0  0  0  0  0  0  0  0  0  0
    1.0685   -0.6187   -0.0000 O   0  0  0  0  0  0  0  0  0  0  0  0
   -2.9547   -2.0115   -2.3106 C   0  0  0  0  0  0  0  0  0  0  0  0
   -2.8171   -2.7126   -1.6275 H   0  0  0  0  0  0  0  0  0  0  0  0
   -2.1372   -1.8683   -2.8482 H   0  0  0  0  0  0  0  0  0  0  0  0
   -3.7494   -2.3402   -2.9803 H   0  0  0  0  0  0  0  0  0  0  0  0
   -3.3001   -0.7201   -1.6096 C   0  0  0  0  0  0  0  0  0  0  0  0
   -4.2738   -0.6935   -1.4132 H   0  0  0  0  0  0  0  0  0  0  0  0
   -2.7745   -0.6426   -0.7693 H   0  0  0  0  0  0  0  0  0  0  0  0
   -2.9619    0.4681   -2.4883 C   0  0  0  0  0  0  0  0  0  0  0  0
   -1.9738    0.5242   -2.5683 H   0  0  0  0  0  0  0  0  0  0  0  0
   -3.3772    0.3228   -3.3799 H   0  0  0  0  0  0  0  0  0  0  0  0
   -3.3430    1.3946   -2.0588 H   0  0  0  0  0  0  0  0  0  0  0  0
  1  5  1  0
  5  6  2  0
  5  7  1  0
  1  2  1  0
  1  3  1  0
  1  4  1  0
  8 12  1  0
 12 15  1  0
  8  9  1  0
  8 10  1  0
  8 11  1  0
 12 13  1  0
 12 14  1  0
 15 16  1  0
 15 17  1  0
 15 18  1  0
M  CHG  1   7  -1
V    7 [O&-]
M  END
>  <PDB_ID>  (2020) 
pdb5b7g

>  <RESIDUE_NAME>  (2020) 
GLU   ARG

>  <FRAG_NAME>  (2020) 
ACET   PRPA

>  <FRAG_ATOM_NUM>  (2020) 
fragi: 7 fragj: 11

>  <atom.prop.CHAIN_ID>  (2020) 
A A A A A A A Z Z Z Z Z Z Z Z Z Z Z

>  <atom.prop.IS_HEAVY_ATOM>  (2020) 
1 0 0 0 1 1 1 1 0 0 0 1 0 0 1 0 0 0

>  <DIFUSE_FUNC_ATOM>  (2020) 
n/a

>  <FINAL_SINGLE_POINT_ENERGY>  (2020) 
0

>  <NONCOV_INTER_ENERGY_QM>  (2020) 
0

>  <FF_Energy>  (2020) 
20.53

>  <QM_Energy>  (2020) 
-1.94

>  <source>  (2020) 
ACET_PRPA_28

>  <Index>  (2020) 
6439

$$$$
ACEH-pdb2biw-C-GLH-456:PRPA-pdb2biw-C-LYS-449
     RDKit          3D

 18 16  0  0  0  0  0  0  0  0999 V2000
   -0.0256    1.5340    0.0121 C   0  0  0  0  0  0  0  0  0  0  0  0
    0.1297    1.8331   -0.9101 H   0  0  0  0  0  0  0  0  0  0  0  0
    0.6827    1.8301    0.6250 H   0  0  0  0  0  0  0  0  0  0  0  0
   -0.9762    1.9428    0.3545 H   0  0  0  0  0  0  0  0  0  0  0  0
    0.0000    0.0000    0.0000 C   0  0  0  0  0  0  0  0  0  0  0  0
   -1.1232   -0.6024    0.0000 O   0  0  0  0  0  0  0  0  0  0  0  0
    1.1232   -0.6045   -0.0000 O   0  0  0  0  0  0  0  0  0  0  0  0
   -1.3189   -4.9325   -0.6525 C   0  0  0  0  0  0  0  0  0  0  0  0
   -2.0173   -5.1265   -1.3489 H   0  0  0  0  0  0  0  0  0  0  0  0
   -1.8081   -4.5802    0.2557 H   0  0  0  0  0  0  0  0  0  0  0  0
   -0.7668   -5.8489   -0.4437 H   0  0  0  0  0  0  0  0  0  0  0  0
   -0.3516   -3.8662   -1.1875 C   0  0  0  0  0  0  0  0  0  0  0  0
    0.2667   -3.6059   -0.4421 H   0  0  0  0  0  0  0  0  0  0  0  0
    0.1863   -4.2790   -1.9274 H   0  0  0  0  0  0  0  0  0  0  0  0
   -1.0065   -2.5956   -1.7271 C   0  0  0  0  0  0  0  0  0  0  0  0
   -1.4291   -2.0873   -0.9549 H   0  0  0  0  0  0  0  0  0  0  0  0
   -0.2893   -1.9948   -2.1208 H   0  0  0  0  0  0  0  0  0  0  0  0
   -1.7737   -2.7387   -2.4881 H   0  0  0  0  0  0  0  0  0  0  0  0
  1  5  1  0
  5  6  2  0
  5  7  1  0
  1  2  1  0
  1  3  1  0
  1  4  1  0
  8 12  1  0
 12 15  1  0
  8  9  1  0
  8 10  1  0
  8 11  1  0
 12 13  1  0
 12 14  1  0
 15 16  1  0
 15 17  1  0
 15 18  1  0
M  CHG  1   7  -1
V    7 [O&-]
M  END
>  <PDB_ID>  (2021) 
pdb2biw

>  <RESIDUE_NAME>  (2021) 
GLU   LYS

>  <FRAG_NAME>  (2021) 
ACET   PRPA

>  <FRAG_ATOM_NUM>  (2021) 
fragi: 7 fragj: 11

>  <atom.prop.CHAIN_ID>  (2021) 
A A A A A A A Z Z Z Z Z Z Z Z Z Z Z

>  <atom.prop.IS_HEAVY_ATOM>  (2021) 
1 0 0 0 1 1 1 1 0 0 0 1 0 0 1 0 0 0

>  <DIFUSE_FUNC_ATOM>  (2021) 
n/a

>  <FINAL_SINGLE_POINT_ENERGY>  (2021) 
0

>  <NONCOV_INTER_ENERGY_QM>  (2021) 
0

>  <FF_Energy>  (2021) 
32.01

>  <QM_Energy>  (2021) 
2.19

>  <source>  (2021) 
ACET_PRPA_28

>  <Index>  (2021) 
6968

$$$$
ACEH-pdb5boe-B-GLH-291:PRPA-pdb5boe-B-VAL-316
     RDKit          3D

 18 16  0  0  0  0  0  0  0  0999 V2000
   -0.0486    1.5146   -0.0492 C   0  0  0  0  0  0  0  0  0  0  0  0
    0.7649    1.8231   -0.4934 H   0  0  0  0  0  0  0  0  0  0  0  0
   -0.1337    1.8381    0.8690 H   0  0  0  0  0  0  0  0  0  0  0  0
   -0.9077    1.8652   -0.6211 H   0  0  0  0  0  0  0  0  0  0  0  0
    0.0000    0.0000    0.0000 C   0  0  0  0  0  0  0  0  0  0  0  0
   -1.0955   -0.6054    0.0000 O   0  0  0  0  0  0  0  0  0  0  0  0
    1.0955   -0.5816   -0.0000 O   0  0  0  0  0  0  0  0  0  0  0  0
    0.7134    4.8267    2.5333 C   0  0  0  0  0  0  0  0  0  0  0  0
    1.1672    5.0206    3.4133 H   0  0  0  0  0  0  0  0  0  0  0  0
   -0.0060    5.6225    2.3402 H   0  0  0  0  0  0  0  0  0  0  0  0
    1.4801    4.7900    1.7594 H   0  0  0  0  0  0  0  0  0  0  0  0
    0.0291    3.4483    2.6058 C   0  0  0  0  0  0  0  0  0  0  0  0
   -0.2820    3.2150    1.6900 H   0  0  0  0  0  0  0  0  0  0  0  0
   -0.8291    3.4505    3.2778 H   0  0  0  0  0  0  0  0  0  0  0  0
    1.0293    2.3760    3.0223 C   0  0  0  0  0  0  0  0  0  0  0  0
    0.6949    1.9087    3.8400 H   0  0  0  0  0  0  0  0  0  0  0  0
    1.1360    1.7147    2.2805 H   0  0  0  0  0  0  0  0  0  0  0  0
    1.9121    2.8026    3.2193 H   0  0  0  0  0  0  0  0  0  0  0  0
  1  5  1  0
  5  6  2  0
  5  7  1  0
  1  2  1  0
  1  3  1  0
  1  4  1  0
  8 12  1  0
 12 15  1  0
  8  9  1  0
  8 10  1  0
  8 11  1  0
 12 13  1  0
 12 14  1  0
 15 16  1  0
 15 17  1  0
 15 18  1  0
M  CHG  1   7  -1
V    7 [O&-]
M  END
>  <PDB_ID>  (2022) 
pdb5boe

>  <RESIDUE_NAME>  (2022) 
GLU   VAL

>  <FRAG_NAME>  (2022) 
ACET   PRPA

>  <FRAG_ATOM_NUM>  (2022) 
fragi: 7 fragj: 11

>  <atom.prop.CHAIN_ID>  (2022) 
A A A A A A A Z Z Z Z Z Z Z Z Z Z Z

>  <atom.prop.IS_HEAVY_ATOM>  (2022) 
1 0 0 0 1 1 1 1 0 0 0 1 0 0 1 0 0 0

>  <DIFUSE_FUNC_ATOM>  (2022) 
n/a

>  <FINAL_SINGLE_POINT_ENERGY>  (2022) 
0

>  <NONCOV_INTER_ENERGY_QM>  (2022) 
0

>  <FF_Energy>  (2022) 
17.26

>  <QM_Energy>  (2022) 
2.05

>  <source>  (2022) 
ACET_PRPA_28

>  <Index>  (2022) 
7216

$$$$
ACEH-pdb5boe-B-GLH-291:PRPA-pdb5boe-B-VAL-316
     RDKit          3D

 18 16  0  0  0  0  0  0  0  0999 V2000
   -0.0486    1.5146   -0.0492 C   0  0  0  0  0  0  0  0  0  0  0  0
    0.7649    1.8231   -0.4934 H   0  0  0  0  0  0  0  0  0  0  0  0
   -0.1337    1.8381    0.8690 H   0  0  0  0  0  0  0  0  0  0  0  0
   -0.9077    1.8652   -0.6211 H   0  0  0  0  0  0  0  0  0  0  0  0
    0.0000    0.0000    0.0000 C   0  0  0  0  0  0  0  0  0  0  0  0
   -1.0955   -0.6054    0.0000 O   0  0  0  0  0  0  0  0  0  0  0  0
    1.0955   -0.5816   -0.0000 O   0  0  0  0  0  0  0  0  0  0  0  0
    1.0293    2.3760    3.0223 C   0  0  0  0  0  0  0  0  0  0  0  0
    0.6949    1.9087    3.8400 H   0  0  0  0  0  0  0  0  0  0  0  0
    1.1360    1.7147    2.2805 H   0  0  0  0  0  0  0  0  0  0  0  0
    1.9121    2.8026    3.2193 H   0  0  0  0  0  0  0  0  0  0  0  0
    0.0291    3.4483    2.6058 C   0  0  0  0  0  0  0  0  0  0  0  0
   -0.2820    3.2150    1.6900 H   0  0  0  0  0  0  0  0  0  0  0  0
    0.5132    4.4236    2.5545 H   0  0  0  0  0  0  0  0  0  0  0  0
   -1.1670    3.4512    3.5423 C   0  0  0  0  0  0  0  0  0  0  0  0
   -0.9238    3.9245    4.3892 H   0  0  0  0  0  0  0  0  0  0  0  0
   -1.9318    3.9225    3.1022 H   0  0  0  0  0  0  0  0  0  0  0  0
   -1.4284    2.5082    3.7483 H   0  0  0  0  0  0  0  0  0  0  0  0
  1  5  1  0
  5  6  2  0
  5  7  1  0
  1  2  1  0
  1  3  1  0
  1  4  1  0
  8 12  1  0
 12 15  1  0
  8  9  1  0
  8 10  1  0
  8 11  1  0
 12 13  1  0
 12 14  1  0
 15 16  1  0
 15 17  1  0
 15 18  1  0
M  CHG  1   7  -1
V    7 [O&-]
M  END
>  <PDB_ID>  (2023) 
pdb5boe

>  <RESIDUE_NAME>  (2023) 
GLU   VAL

>  <FRAG_NAME>  (2023) 
ACET   PRPA

>  <FRAG_ATOM_NUM>  (2023) 
fragi: 7 fragj: 11

>  <atom.prop.CHAIN_ID>  (2023) 
A A A A A A A Z Z Z Z Z Z Z Z Z Z Z

>  <atom.prop.IS_HEAVY_ATOM>  (2023) 
1 0 0 0 1 1 1 1 0 0 0 1 0 0 1 0 0 0

>  <DIFUSE_FUNC_ATOM>  (2023) 
n/a

>  <FINAL_SINGLE_POINT_ENERGY>  (2023) 
0

>  <NONCOV_INTER_ENERGY_QM>  (2023) 
0

>  <FF_Energy>  (2023) 
17.31

>  <QM_Energy>  (2023) 
2.05

>  <source>  (2023) 
ACET_PRPA_28

>  <Index>  (2023) 
7287

$$$$
ACEH-pdb1b35-B-GLH-162:PRPA-pdb1b35-C-ILE-269
     RDKit          3D

 18 16  0  0  0  0  0  0  0  0999 V2000
   -0.0116    1.5257    0.0157 C   0  0  0  0  0  0  0  0  0  0  0  0
    0.0349    1.8126    0.9543 H   0  0  0  0  0  0  0  0  0  0  0  0
   -0.8383    1.8193   -0.4251 H   0  0  0  0  0  0  0  0  0  0  0  0
    0.8323    1.9656   -0.5157 H   0  0  0  0  0  0  0  0  0  0  0  0
    0.0000    0.0000    0.0000 C   0  0  0  0  0  0  0  0  0  0  0  0
   -1.1022   -0.5977   -0.0000 O   0  0  0  0  0  0  0  0  0  0  0  0
    1.1022   -0.6083    0.0000 O   0  0  0  0  0  0  0  0  0  0  0  0
    0.5773   -3.1408    4.1644 C   0  0  0  0  0  0  0  0  0  0  0  0
    0.1864   -4.0245    3.9321 H   0  0  0  0  0  0  0  0  0  0  0  0
    1.3647   -3.3052    4.9000 H   0  0  0  0  0  0  0  0  0  0  0  0
   -0.1910   -2.4841    4.5726 H   0  0  0  0  0  0  0  0  0  0  0  0
    1.1642   -2.5325    2.8988 C   0  0  0  0  0  0  0  0  0  0  0  0
    1.4441   -1.5998    3.0948 H   0  0  0  0  0  0  0  0  0  0  0  0
    1.9588   -3.0681    2.6324 H   0  0  0  0  0  0  0  0  0  0  0  0
    0.1769   -2.5255    1.7628 C   0  0  0  0  0  0  0  0  0  0  0  0
   -0.6270   -1.9892    2.0205 H   0  0  0  0  0  0  0  0  0  0  0  0
    0.6003   -2.1189    0.9528 H   0  0  0  0  0  0  0  0  0  0  0  0
   -0.1021   -3.4634    1.5554 H   0  0  0  0  0  0  0  0  0  0  0  0
  1  5  1  0
  5  6  2  0
  5  7  1  0
  1  2  1  0
  1  3  1  0
  1  4  1  0
  8 12  1  0
 12 15  1  0
  8  9  1  0
  8 10  1  0
  8 11  1  0
 12 13  1  0
 12 14  1  0
 15 16  1  0
 15 17  1  0
 15 18  1  0
M  CHG  1   7  -1
V    7 [O&-]
M  END
>  <PDB_ID>  (2024) 
pdb1b35

>  <RESIDUE_NAME>  (2024) 
GLU   ILE

>  <FRAG_NAME>  (2024) 
ACET   PRPA

>  <FRAG_ATOM_NUM>  (2024) 
fragi: 7 fragj: 11

>  <atom.prop.CHAIN_ID>  (2024) 
A A A A A A A Z Z Z Z Z Z Z Z Z Z Z

>  <atom.prop.IS_HEAVY_ATOM>  (2024) 
1 0 0 0 1 1 1 1 0 0 0 1 0 0 1 0 0 0

>  <DIFUSE_FUNC_ATOM>  (2024) 
n/a

>  <FINAL_SINGLE_POINT_ENERGY>  (2024) 
0

>  <NONCOV_INTER_ENERGY_QM>  (2024) 
0

>  <FF_Energy>  (2024) 
23.17

>  <QM_Energy>  (2024) 
1.6

>  <source>  (2024) 
ACET_PRPA_28

>  <Index>  (2024) 
7935

$$$$
ACEH-pdb5b1h-B-GLH-67:PRPA-pdb5b1h-B-PRO-140
     RDKit          3D

 18 16  0  0  0  0  0  0  0  0999 V2000
   -0.0029    1.5205   -0.0027 C   0  0  0  0  0  0  0  0  0  0  0  0
    0.5394    1.8166   -0.7655 H   0  0  0  0  0  0  0  0  0  0  0  0
    0.3657    1.8176    0.8579 H   0  0  0  0  0  0  0  0  0  0  0  0
   -1.0038    1.9382   -0.1108 H   0  0  0  0  0  0  0  0  0  0  0  0
    0.0000    0.0000    0.0000 C   0  0  0  0  0  0  0  0  0  0  0  0
   -1.0985   -0.5975   -0.0000 O   0  0  0  0  0  0  0  0  0  0  0  0
    1.0985   -0.6023    0.0000 O   0  0  0  0  0  0  0  0  0  0  0  0
   -0.3280   -2.2474   -2.6587 C   0  0  0  0  0  0  0  0  0  0  0  0
    0.2535   -1.6532   -2.1034 H   0  0  0  0  0  0  0  0  0  0  0  0
    0.1829   -2.5604   -3.4587 H   0  0  0  0  0  0  0  0  0  0  0  0
   -0.6905   -3.0927   -2.0738 H   0  0  0  0  0  0  0  0  0  0  0  0
   -1.5801   -1.5348   -3.0692 C   0  0  0  0  0  0  0  0  0  0  0  0
   -1.3873   -0.5749   -3.2762 H   0  0  0  0  0  0  0  0  0  0  0  0
   -1.9867   -1.9724   -3.8717 H   0  0  0  0  0  0  0  0  0  0  0  0
   -2.4940   -1.6532   -1.8715 C   0  0  0  0  0  0  0  0  0  0  0  0
   -2.3412   -0.9104   -1.2231 H   0  0  0  0  0  0  0  0  0  0  0  0
   -3.4542   -1.6677   -2.1467 H   0  0  0  0  0  0  0  0  0  0  0  0
   -2.2042   -2.6096   -1.4363 H   0  0  0  0  0  0  0  0  0  0  0  0
  1  5  1  0
  5  6  2  0
  5  7  1  0
  1  2  1  0
  1  3  1  0
  1  4  1  0
  8 12  1  0
 12 15  1  0
  8  9  1  0
  8 10  1  0
  8 11  1  0
 12 13  1  0
 12 14  1  0
 15 16  1  0
 15 17  1  0
 15 18  1  0
M  CHG  1   7  -1
V    7 [O&-]
M  END
>  <PDB_ID>  (2025) 
pdb5b1h

>  <RESIDUE_NAME>  (2025) 
GLU   PRO

>  <FRAG_NAME>  (2025) 
ACET   PRPA

>  <FRAG_ATOM_NUM>  (2025) 
fragi: 7 fragj: 11

>  <atom.prop.CHAIN_ID>  (2025) 
A A A A A A A Z Z Z Z Z Z Z Z Z Z Z

>  <atom.prop.IS_HEAVY_ATOM>  (2025) 
1 0 0 0 1 1 1 1 0 0 0 1 0 0 1 0 0 0

>  <DIFUSE_FUNC_ATOM>  (2025) 
n/a

>  <FINAL_SINGLE_POINT_ENERGY>  (2025) 
0

>  <NONCOV_INTER_ENERGY_QM>  (2025) 
0

>  <FF_Energy>  (2025) 
39.77

>  <QM_Energy>  (2025) 
2.98

>  <source>  (2025) 
ACET_PRPA_28

>  <Index>  (2025) 
8951

$$$$
ACEH-pdb6c28-D-GLH-41:PRPA-pdb6c28-A-LEU-85
     RDKit          3D

 18 16  0  0  0  0  0  0  0  0999 V2000
    0.1786    1.4874    0.0144 C   0  0  0  0  0  0  0  0  0  0  0  0
    0.6964    1.7405   -0.8032 H   0  0  0  0  0  0  0  0  0  0  0  0
    0.7078    1.7232    0.8291 H   0  0  0  0  0  0  0  0  0  0  0  0
   -0.7319    2.0865    0.0262 H   0  0  0  0  0  0  0  0  0  0  0  0
    0.0000    0.0000    0.0000 C   0  0  0  0  0  0  0  0  0  0  0  0
   -1.0893   -0.5547    0.0000 O   0  0  0  0  0  0  0  0  0  0  0  0
    1.0893   -0.6083   -0.0000 O   0  0  0  0  0  0  0  0  0  0  0  0
   -1.3653   -1.1271   -3.4880 C   0  0  0  0  0  0  0  0  0  0  0  0
   -1.1848   -0.7145   -4.3986 H   0  0  0  0  0  0  0  0  0  0  0  0
   -1.6610   -0.3756   -2.8733 H   0  0  0  0  0  0  0  0  0  0  0  0
   -2.2040   -1.8148   -3.5976 H   0  0  0  0  0  0  0  0  0  0  0  0
   -0.0621   -1.6452   -2.9670 C   0  0  0  0  0  0  0  0  0  0  0  0
    0.3822   -2.1992   -3.6608 H   0  0  0  0  0  0  0  0  0  0  0  0
   -0.2403   -2.2224   -2.0596 H   0  0  0  0  0  0  0  0  0  0  0  0
    0.8101   -0.4549   -2.6433 C   0  0  0  0  0  0  0  0  0  0  0  0
    0.3632    0.1155   -1.9503 H   0  0  0  0  0  0  0  0  0  0  0  0
    1.6939   -0.7668   -2.2900 H   0  0  0  0  0  0  0  0  0  0  0  0
    0.9599    0.0917   -3.4696 H   0  0  0  0  0  0  0  0  0  0  0  0
  1  5  1  0
  5  6  2  0
  5  7  1  0
  1  2  1  0
  1  3  1  0
  1  4  1  0
  8 12  1  0
 12 15  1  0
  8  9  1  0
  8 10  1  0
  8 11  1  0
 12 13  1  0
 12 14  1  0
 15 16  1  0
 15 17  1  0
 15 18  1  0
M  CHG  1   7  -1
V    7 [O&-]
M  END
>  <PDB_ID>  (2026) 
pdb6c28

>  <RESIDUE_NAME>  (2026) 
GLU   LEU

>  <FRAG_NAME>  (2026) 
ACET   PRPA

>  <FRAG_ATOM_NUM>  (2026) 
fragi: 7 fragj: 11

>  <atom.prop.CHAIN_ID>  (2026) 
A A A A A A A Z Z Z Z Z Z Z Z Z Z Z

>  <atom.prop.IS_HEAVY_ATOM>  (2026) 
1 0 0 0 1 1 1 1 0 0 0 1 0 0 1 0 0 0

>  <DIFUSE_FUNC_ATOM>  (2026) 
n/a

>  <FINAL_SINGLE_POINT_ENERGY>  (2026) 
0

>  <NONCOV_INTER_ENERGY_QM>  (2026) 
0

>  <FF_Energy>  (2026) 
33.47

>  <QM_Energy>  (2026) 
3.6

>  <source>  (2026) 
ACET_PRPA_28

>  <Index>  (2026) 
9035

$$$$
ACEH-pdb1b7y-A-GLH-262:PRPA-pdb1b7y-A-PRO-288
     RDKit          3D

 18 16  0  0  0  0  0  0  0  0999 V2000
   -0.0427    1.5348    0.0094 C   0  0  0  0  0  0  0  0  0  0  0  0
   -0.9851    1.8039    0.1582 H   0  0  0  0  0  0  0  0  0  0  0  0
    0.2750    1.8446   -0.8783 H   0  0  0  0  0  0  0  0  0  0  0  0
    0.5657    2.0263    0.7686 H   0  0  0  0  0  0  0  0  0  0  0  0
    0.0000    0.0000    0.0000 C   0  0  0  0  0  0  0  0  0  0  0  0
   -1.0918   -0.5747    0.0000 O   0  0  0  0  0  0  0  0  0  0  0  0
    1.0918   -0.5930    0.0000 O   0  0  0  0  0  0  0  0  0  0  0  0
   -0.4893   -4.9502   -1.4877 C   0  0  0  0  0  0  0  0  0  0  0  0
    0.4347   -5.0020   -1.8783 H   0  0  0  0  0  0  0  0  0  0  0  0
   -1.1202   -5.4598   -2.0775 H   0  0  0  0  0  0  0  0  0  0  0  0
   -0.5031   -5.3451   -0.4719 H   0  0  0  0  0  0  0  0  0  0  0  0
   -0.9260   -3.5308   -1.3408 C   0  0  0  0  0  0  0  0  0  0  0  0
   -0.5373   -2.9611   -2.0761 H   0  0  0  0  0  0  0  0  0  0  0  0
   -1.9306   -3.4615   -1.3866 H   0  0  0  0  0  0  0  0  0  0  0  0
   -0.4241   -3.0656    0.0124 C   0  0  0  0  0  0  0  0  0  0  0  0
    0.4537   -2.5950   -0.0711 H   0  0  0  0  0  0  0  0  0  0  0  0
   -1.0868   -2.4598    0.4538 H   0  0  0  0  0  0  0  0  0  0  0  0
   -0.3135   -3.9935    0.5734 H   0  0  0  0  0  0  0  0  0  0  0  0
  1  5  1  0
  5  6  2  0
  5  7  1  0
  1  2  1  0
  1  3  1  0
  1  4  1  0
  8 12  1  0
 12 15  1  0
  8  9  1  0
  8 10  1  0
  8 11  1  0
 12 13  1  0
 12 14  1  0
 15 16  1  0
 15 17  1  0
 15 18  1  0
M  CHG  1   7  -1
V    7 [O&-]
M  END
>  <PDB_ID>  (2027) 
pdb1b7y

>  <RESIDUE_NAME>  (2027) 
GLU   PRO

>  <FRAG_NAME>  (2027) 
ACET   PRPA

>  <FRAG_ATOM_NUM>  (2027) 
fragi: 7 fragj: 11

>  <atom.prop.CHAIN_ID>  (2027) 
A A A A A A A Z Z Z Z Z Z Z Z Z Z Z

>  <atom.prop.IS_HEAVY_ATOM>  (2027) 
1 0 0 0 1 1 1 1 0 0 0 1 0 0 1 0 0 0

>  <DIFUSE_FUNC_ATOM>  (2027) 
n/a

>  <FINAL_SINGLE_POINT_ENERGY>  (2027) 
0

>  <NONCOV_INTER_ENERGY_QM>  (2027) 
0

>  <FF_Energy>  (2027) 
22.67

>  <QM_Energy>  (2027) 
4.52

>  <source>  (2027) 
ACET_PRPA_28

>  <Index>  (2027) 
9248

$$$$
ACEH-pdb1b7y-A-GLH-262:PRPA-pdb1b7y-B-GLU-457
     RDKit          3D

 18 16  0  0  0  0  0  0  0  0999 V2000
   -0.0427    1.5348    0.0094 C   0  0  0  0  0  0  0  0  0  0  0  0
   -0.9851    1.8039    0.1582 H   0  0  0  0  0  0  0  0  0  0  0  0
    0.2750    1.8446   -0.8783 H   0  0  0  0  0  0  0  0  0  0  0  0
    0.5657    2.0263    0.7686 H   0  0  0  0  0  0  0  0  0  0  0  0
    0.0000    0.0000    0.0000 C   0  0  0  0  0  0  0  0  0  0  0  0
   -1.0918   -0.5747    0.0000 O   0  0  0  0  0  0  0  0  0  0  0  0
    1.0918   -0.5930    0.0000 O   0  0  0  0  0  0  0  0  0  0  0  0
   -2.0393    1.7871   -3.2458 C   0  0  0  0  0  0  0  0  0  0  0  0
   -3.0036    2.0581   -3.1415 H   0  0  0  0  0  0  0  0  0  0  0  0
   -1.8803    1.3694   -4.2400 H   0  0  0  0  0  0  0  0  0  0  0  0
   -1.4018    2.6552   -3.0780 H   0  0  0  0  0  0  0  0  0  0  0  0
   -1.7617    0.7367   -2.1631 C   0  0  0  0  0  0  0  0  0  0  0  0
   -0.8598    0.3735   -2.3229 H   0  0  0  0  0  0  0  0  0  0  0  0
   -1.8292    1.1828   -1.2885 H   0  0  0  0  0  0  0  0  0  0  0  0
   -2.7363   -0.4375   -2.1574 C   0  0  0  0  0  0  0  0  0  0  0  0
   -2.5119   -1.0191   -1.3982 H   0  0  0  0  0  0  0  0  0  0  0  0
   -3.6494   -0.0806   -2.0978 H   0  0  0  0  0  0  0  0  0  0  0  0
   -2.6794   -1.0425   -3.0623 H   0  0  0  0  0  0  0  0  0  0  0  0
  1  5  1  0
  5  6  2  0
  5  7  1  0
  1  2  1  0
  1  3  1  0
  1  4  1  0
  8 12  1  0
 12 15  1  0
  8  9  1  0
  8 10  1  0
  8 11  1  0
 12 13  1  0
 12 14  1  0
 15 16  1  0
 15 17  1  0
 15 18  1  0
M  CHG  1   7  -1
V    7 [O&-]
M  END
>  <PDB_ID>  (2028) 
pdb1b7y

>  <RESIDUE_NAME>  (2028) 
GLU   GLU

>  <FRAG_NAME>  (2028) 
ACET   PRPA

>  <FRAG_ATOM_NUM>  (2028) 
fragi: 7 fragj: 11

>  <atom.prop.CHAIN_ID>  (2028) 
A A A A A A A Z Z Z Z Z Z Z Z Z Z Z

>  <atom.prop.IS_HEAVY_ATOM>  (2028) 
1 0 0 0 1 1 1 1 0 0 0 1 0 0 1 0 0 0

>  <DIFUSE_FUNC_ATOM>  (2028) 
n/a

>  <FINAL_SINGLE_POINT_ENERGY>  (2028) 
0

>  <NONCOV_INTER_ENERGY_QM>  (2028) 
0

>  <FF_Energy>  (2028) 
30.52

>  <QM_Energy>  (2028) 
5.43

>  <source>  (2028) 
ACET_PRPA_28

>  <Index>  (2028) 
9333

$$$$
ACEH-pdb4bh0-D-GLH-103:PRPA-pdb4bh0-C-LEU-313
     RDKit          3D

 18 16  0  0  0  0  0  0  0  0999 V2000
    0.1753    1.4858    0.0153 C   0  0  0  0  0  0  0  0  0  0  0  0
    0.6940    1.7407   -0.8015 H   0  0  0  0  0  0  0  0  0  0  0  0
    0.7059    1.7229    0.8307 H   0  0  0  0  0  0  0  0  0  0  0  0
   -0.7350    2.0854    0.0273 H   0  0  0  0  0  0  0  0  0  0  0  0
    0.0000    0.0000    0.0000 C   0  0  0  0  0  0  0  0  0  0  0  0
   -1.0896   -0.5571   -0.0000 O   0  0  0  0  0  0  0  0  0  0  0  0
    1.0896   -0.6081   -0.0000 O   0  0  0  0  0  0  0  0  0  0  0  0
    3.3660    0.6371    4.3650 C   0  0  0  0  0  0  0  0  0  0  0  0
    3.6514    0.0073    5.0910 H   0  0  0  0  0  0  0  0  0  0  0  0
    2.6839    1.2732    4.7281 H   0  0  0  0  0  0  0  0  0  0  0  0
    4.2390    1.2202    4.0719 H   0  0  0  0  0  0  0  0  0  0  0  0
    2.6791   -0.1981    3.2835 C   0  0  0  0  0  0  0  0  0  0  0  0
    3.3742   -0.6927    2.7647 H   0  0  0  0  0  0  0  0  0  0  0  0
    1.9895   -0.9106    3.7362 H   0  0  0  0  0  0  0  0  0  0  0  0
    1.9514    0.6887    2.2823 C   0  0  0  0  0  0  0  0  0  0  0  0
    2.6063    1.3035    1.8422 H   0  0  0  0  0  0  0  0  0  0  0  0
    1.5125    0.1182    1.5874 H   0  0  0  0  0  0  0  0  0  0  0  0
    1.2565    1.2286    2.7577 H   0  0  0  0  0  0  0  0  0  0  0  0
  1  5  1  0
  5  6  2  0
  5  7  1  0
  1  2  1  0
  1  3  1  0
  1  4  1  0
  8 12  1  0
 12 15  1  0
  8  9  1  0
  8 10  1  0
  8 11  1  0
 12 13  1  0
 12 14  1  0
 15 16  1  0
 15 17  1  0
 15 18  1  0
M  CHG  1   7  -1
V    7 [O&-]
M  END
>  <PDB_ID>  (2029) 
pdb4bh0

>  <RESIDUE_NAME>  (2029) 
GLU   LEU

>  <FRAG_NAME>  (2029) 
ACET   PRPA

>  <FRAG_ATOM_NUM>  (2029) 
fragi: 7 fragj: 11

>  <atom.prop.CHAIN_ID>  (2029) 
A A A A A A A Z Z Z Z Z Z Z Z Z Z Z

>  <atom.prop.IS_HEAVY_ATOM>  (2029) 
1 0 0 0 1 1 1 1 0 0 0 1 0 0 1 0 0 0

>  <DIFUSE_FUNC_ATOM>  (2029) 
n/a

>  <FINAL_SINGLE_POINT_ENERGY>  (2029) 
0

>  <NONCOV_INTER_ENERGY_QM>  (2029) 
0

>  <FF_Energy>  (2029) 
46.45

>  <QM_Energy>  (2029) 
5.93

>  <source>  (2029) 
ACET_PRPA_28

>  <Index>  (2029) 
9372

$$$$
ACEH-pdb4bh0-D-GLH-103:PRPA-pdb4bh0-C-LEU-313
     RDKit          3D

 18 16  0  0  0  0  0  0  0  0999 V2000
    0.1753    1.4858    0.0153 C   0  0  0  0  0  0  0  0  0  0  0  0
    0.6940    1.7407   -0.8015 H   0  0  0  0  0  0  0  0  0  0  0  0
    0.7059    1.7229    0.8307 H   0  0  0  0  0  0  0  0  0  0  0  0
   -0.7350    2.0854    0.0273 H   0  0  0  0  0  0  0  0  0  0  0  0
    0.0000    0.0000    0.0000 C   0  0  0  0  0  0  0  0  0  0  0  0
   -1.0896   -0.5571   -0.0000 O   0  0  0  0  0  0  0  0  0  0  0  0
    1.0896   -0.6081   -0.0000 O   0  0  0  0  0  0  0  0  0  0  0  0
    1.7160   -1.1930    3.9156 C   0  0  0  0  0  0  0  0  0  0  0  0
    1.0196   -0.6988    4.4373 H   0  0  0  0  0  0  0  0  0  0  0  0
    1.2743   -1.7327    3.1983 H   0  0  0  0  0  0  0  0  0  0  0  0
    2.2199   -1.8032    4.5276 H   0  0  0  0  0  0  0  0  0  0  0  0
    2.6791   -0.1981    3.2835 C   0  0  0  0  0  0  0  0  0  0  0  0
    3.3742   -0.6927    2.7647 H   0  0  0  0  0  0  0  0  0  0  0  0
    3.1686    0.3972    4.0544 H   0  0  0  0  0  0  0  0  0  0  0  0
    1.9514    0.6887    2.2823 C   0  0  0  0  0  0  0  0  0  0  0  0
    2.6063    1.3035    1.8422 H   0  0  0  0  0  0  0  0  0  0  0  0
    1.5125    0.1182    1.5874 H   0  0  0  0  0  0  0  0  0  0  0  0
    1.2565    1.2286    2.7577 H   0  0  0  0  0  0  0  0  0  0  0  0
  1  5  1  0
  5  6  2  0
  5  7  1  0
  1  2  1  0
  1  3  1  0
  1  4  1  0
  8 12  1  0
 12 15  1  0
  8  9  1  0
  8 10  1  0
  8 11  1  0
 12 13  1  0
 12 14  1  0
 15 16  1  0
 15 17  1  0
 15 18  1  0
M  CHG  1   7  -1
V    7 [O&-]
M  END
>  <PDB_ID>  (2030) 
pdb4bh0

>  <RESIDUE_NAME>  (2030) 
GLU   LEU

>  <FRAG_NAME>  (2030) 
ACET   PRPA

>  <FRAG_ATOM_NUM>  (2030) 
fragi: 7 fragj: 11

>  <atom.prop.CHAIN_ID>  (2030) 
A A A A A A A Z Z Z Z Z Z Z Z Z Z Z

>  <atom.prop.IS_HEAVY_ATOM>  (2030) 
1 0 0 0 1 1 1 1 0 0 0 1 0 0 1 0 0 0

>  <DIFUSE_FUNC_ATOM>  (2030) 
n/a

>  <FINAL_SINGLE_POINT_ENERGY>  (2030) 
0

>  <NONCOV_INTER_ENERGY_QM>  (2030) 
0

>  <FF_Energy>  (2030) 
46.69

>  <QM_Energy>  (2030) 
5.13

>  <source>  (2030) 
ACET_PRPA_28

>  <Index>  (2030) 
9410

$$$$
ACEH-pdb6c07-C-ASH-48:PRPA-pdb6c07-C-LYS-382
     RDKit          3D

 18 16  0  0  0  0  0  0  0  0999 V2000
    0.0115    1.5365   -0.0241 C   0  0  0  0  0  0  0  0  0  0  0  0
    0.5540    1.8190   -0.7767 H   0  0  0  0  0  0  0  0  0  0  0  0
    0.4080    1.8458    0.8057 H   0  0  0  0  0  0  0  0  0  0  0  0
   -0.9853    1.9664   -0.1235 H   0  0  0  0  0  0  0  0  0  0  0  0
    0.0000    0.0000    0.0000 C   0  0  0  0  0  0  0  0  0  0  0  0
   -1.0834   -0.5957   -0.0000 O   0  0  0  0  0  0  0  0  0  0  0  0
    1.0834   -0.6057   -0.0000 O   0  0  0  0  0  0  0  0  0  0  0  0
    2.8146   -2.4178   -2.4711 C   0  0  0  0  0  0  0  0  0  0  0  0
    2.6047   -2.1478   -3.3788 H   0  0  0  0  0  0  0  0  0  0  0  0
    1.8770   -2.6107   -1.9497 H   0  0  0  0  0  0  0  0  0  0  0  0
    3.4425   -3.3077   -2.5168 H   0  0  0  0  0  0  0  0  0  0  0  0
    3.5771   -1.2770   -1.7824 C   0  0  0  0  0  0  0  0  0  0  0  0
    3.7694   -1.5575   -0.8412 H   0  0  0  0  0  0  0  0  0  0  0  0
    4.4413   -1.1437   -2.2706 H   0  0  0  0  0  0  0  0  0  0  0  0
    2.8385    0.0522   -1.7444 C   0  0  0  0  0  0  0  0  0  0  0  0
    2.0707    0.0159   -2.3870 H   0  0  0  0  0  0  0  0  0  0  0  0
    2.4864    0.2031   -0.8186 H   0  0  0  0  0  0  0  0  0  0  0  0
    3.4884    0.8836   -2.0170 H   0  0  0  0  0  0  0  0  0  0  0  0
  1  5  1  0
  5  6  2  0
  5  7  1  0
  1  2  1  0
  1  3  1  0
  1  4  1  0
  8 12  1  0
 12 15  1  0
  8  9  1  0
  8 10  1  0
  8 11  1  0
 12 13  1  0
 12 14  1  0
 15 16  1  0
 15 17  1  0
 15 18  1  0
M  CHG  1   7  -1
V    7 [O&-]
M  END
>  <PDB_ID>  (2031) 
pdb6c07

>  <RESIDUE_NAME>  (2031) 
ASP   LYS

>  <FRAG_NAME>  (2031) 
ACET   PRPA

>  <FRAG_ATOM_NUM>  (2031) 
fragi: 7 fragj: 11

>  <atom.prop.CHAIN_ID>  (2031) 
A A A A A A A Z Z Z Z Z Z Z Z Z Z Z

>  <atom.prop.IS_HEAVY_ATOM>  (2031) 
1 0 0 0 1 1 1 1 0 0 0 1 0 0 1 0 0 0

>  <DIFUSE_FUNC_ATOM>  (2031) 
n/a

>  <FINAL_SINGLE_POINT_ENERGY>  (2031) 
0

>  <NONCOV_INTER_ENERGY_QM>  (2031) 
0

>  <FF_Energy>  (2031) 
31.91

>  <QM_Energy>  (2031) 
3.03

>  <source>  (2031) 
ACET_PRPA_28

>  <Index>  (2031) 
9462

$$$$
ACEH-pdb6c07-C-ASH-48:PRPA-pdb6c07-C-LYS-382
     RDKit          3D

 18 16  0  0  0  0  0  0  0  0999 V2000
    0.0115    1.5365   -0.0241 C   0  0  0  0  0  0  0  0  0  0  0  0
    0.5540    1.8190   -0.7767 H   0  0  0  0  0  0  0  0  0  0  0  0
    0.4080    1.8458    0.8057 H   0  0  0  0  0  0  0  0  0  0  0  0
   -0.9853    1.9664   -0.1235 H   0  0  0  0  0  0  0  0  0  0  0  0
    0.0000    0.0000    0.0000 C   0  0  0  0  0  0  0  0  0  0  0  0
   -1.0834   -0.5957   -0.0000 O   0  0  0  0  0  0  0  0  0  0  0  0
    1.0834   -0.6057   -0.0000 O   0  0  0  0  0  0  0  0  0  0  0  0
    3.5771   -1.2770   -1.7824 C   0  0  0  0  0  0  0  0  0  0  0  0
    3.7694   -1.5575   -0.8412 H   0  0  0  0  0  0  0  0  0  0  0  0
    4.4413   -1.1437   -2.2706 H   0  0  0  0  0  0  0  0  0  0  0  0
    3.0357   -2.0869   -2.2713 H   0  0  0  0  0  0  0  0  0  0  0  0
    2.8385    0.0522   -1.7444 C   0  0  0  0  0  0  0  0  0  0  0  0
    2.0707    0.0159   -2.3870 H   0  0  0  0  0  0  0  0  0  0  0  0
    2.4864    0.2031   -0.8186 H   0  0  0  0  0  0  0  0  0  0  0  0
    3.7424    1.2086   -2.1235 C   0  0  0  0  0  0  0  0  0  0  0  0
    4.2061    0.9864   -2.9826 H   0  0  0  0  0  0  0  0  0  0  0  0
    3.1814    2.0282   -2.2531 H   0  0  0  0  0  0  0  0  0  0  0  0
    4.4965    1.4193   -1.3652 H   0  0  0  0  0  0  0  0  0  0  0  0
  1  5  1  0
  5  6  2  0
  5  7  1  0
  1  2  1  0
  1  3  1  0
  1  4  1  0
  8 12  1  0
 12 15  1  0
  8  9  1  0
  8 10  1  0
  8 11  1  0
 12 13  1  0
 12 14  1  0
 15 16  1  0
 15 17  1  0
 15 18  1  0
M  CHG  1   7  -1
V    7 [O&-]
M  END
>  <PDB_ID>  (2032) 
pdb6c07

>  <RESIDUE_NAME>  (2032) 
ASP   LYS

>  <FRAG_NAME>  (2032) 
ACET   PRPA

>  <FRAG_ATOM_NUM>  (2032) 
fragi: 7 fragj: 11

>  <atom.prop.CHAIN_ID>  (2032) 
A A A A A A A Z Z Z Z Z Z Z Z Z Z Z

>  <atom.prop.IS_HEAVY_ATOM>  (2032) 
1 0 0 0 1 1 1 1 0 0 0 1 0 0 1 0 0 0

>  <DIFUSE_FUNC_ATOM>  (2032) 
n/a

>  <FINAL_SINGLE_POINT_ENERGY>  (2032) 
0

>  <NONCOV_INTER_ENERGY_QM>  (2032) 
0

>  <FF_Energy>  (2032) 
30.44

>  <QM_Energy>  (2032) 
4.25

>  <source>  (2032) 
ACET_PRPA_28

>  <Index>  (2032) 
9549

$$$$
ACEH-pdb6c07-C-ASH-48:PRPA-pdb6c07-C-LYS-382
     RDKit          3D

 18 16  0  0  0  0  0  0  0  0999 V2000
    0.0115    1.5365   -0.0241 C   0  0  0  0  0  0  0  0  0  0  0  0
    0.5540    1.8190   -0.7767 H   0  0  0  0  0  0  0  0  0  0  0  0
    0.4080    1.8458    0.8057 H   0  0  0  0  0  0  0  0  0  0  0  0
   -0.9853    1.9664   -0.1235 H   0  0  0  0  0  0  0  0  0  0  0  0
    0.0000    0.0000    0.0000 C   0  0  0  0  0  0  0  0  0  0  0  0
   -1.0834   -0.5957   -0.0000 O   0  0  0  0  0  0  0  0  0  0  0  0
    1.0834   -0.6057   -0.0000 O   0  0  0  0  0  0  0  0  0  0  0  0
    2.8385    0.0522   -1.7444 C   0  0  0  0  0  0  0  0  0  0  0  0
    2.0707    0.0159   -2.3870 H   0  0  0  0  0  0  0  0  0  0  0  0
    2.4864    0.2031   -0.8186 H   0  0  0  0  0  0  0  0  0  0  0  0
    3.3677   -0.9004   -1.7716 H   0  0  0  0  0  0  0  0  0  0  0  0
    3.7424    1.2086   -2.1235 C   0  0  0  0  0  0  0  0  0  0  0  0
    4.2061    0.9864   -2.9826 H   0  0  0  0  0  0  0  0  0  0  0  0
    3.1814    2.0282   -2.2531 H   0  0  0  0  0  0  0  0  0  0  0  0
    4.7888    1.5009   -1.0713 C   0  0  0  0  0  0  0  0  0  0  0  0
    4.3322    1.7292   -0.2108 H   0  0  0  0  0  0  0  0  0  0  0  0
    5.3573    0.6881   -0.9398 H   0  0  0  0  0  0  0  0  0  0  0  0
    5.4203    2.3354   -1.3761 H   0  0  0  0  0  0  0  0  0  0  0  0
  1  5  1  0
  5  6  2  0
  5  7  1  0
  1  2  1  0
  1  3  1  0
  1  4  1  0
  8 12  1  0
 12 15  1  0
  8  9  1  0
  8 10  1  0
  8 11  1  0
 12 13  1  0
 12 14  1  0
 15 16  1  0
 15 17  1  0
 15 18  1  0
M  CHG  1   7  -1
V    7 [O&-]
M  END
>  <PDB_ID>  (2033) 
pdb6c07

>  <RESIDUE_NAME>  (2033) 
ASP   LYS

>  <FRAG_NAME>  (2033) 
ACET   PRPA

>  <FRAG_ATOM_NUM>  (2033) 
fragi: 7 fragj: 11

>  <atom.prop.CHAIN_ID>  (2033) 
A A A A A A A Z Z Z Z Z Z Z Z Z Z Z

>  <atom.prop.IS_HEAVY_ATOM>  (2033) 
1 0 0 0 1 1 1 1 0 0 0 1 0 0 1 0 0 0

>  <DIFUSE_FUNC_ATOM>  (2033) 
n/a

>  <FINAL_SINGLE_POINT_ENERGY>  (2033) 
0

>  <NONCOV_INTER_ENERGY_QM>  (2033) 
0

>  <FF_Energy>  (2033) 
30.41

>  <QM_Energy>  (2033) 
5.4

>  <source>  (2033) 
ACET_PRPA_28

>  <Index>  (2033) 
9631

$$$$
ACEH-pdb5c16-D-GLH-467:PRPA-pdb5c16-D-ILE-463
     RDKit          3D

 18 16  0  0  0  0  0  0  0  0999 V2000
   -0.0262    1.5191   -0.0010 C   0  0  0  0  0  0  0  0  0  0  0  0
   -0.6634    1.8071    0.6945 H   0  0  0  0  0  0  0  0  0  0  0  0
   -0.3101    1.8130   -0.8995 H   0  0  0  0  0  0  0  0  0  0  0  0
    0.9375    1.9804    0.2152 H   0  0  0  0  0  0  0  0  0  0  0  0
    0.0000    0.0000    0.0000 C   0  0  0  0  0  0  0  0  0  0  0  0
   -1.0964   -0.5917   -0.0000 O   0  0  0  0  0  0  0  0  0  0  0  0
    1.0964   -0.5949   -0.0000 O   0  0  0  0  0  0  0  0  0  0  0  0
   -3.8024    0.9895   -2.4976 C   0  0  0  0  0  0  0  0  0  0  0  0
   -4.1116    1.8272   -2.0357 H   0  0  0  0  0  0  0  0  0  0  0  0
   -4.1211    1.0709   -3.5368 H   0  0  0  0  0  0  0  0  0  0  0  0
   -2.7154    0.9810   -2.4159 H   0  0  0  0  0  0  0  0  0  0  0  0
   -4.4098   -0.2433   -1.8405 C   0  0  0  0  0  0  0  0  0  0  0  0
   -4.3920   -0.9855   -2.4912 H   0  0  0  0  0  0  0  0  0  0  0  0
   -5.4522   -0.0266   -1.6067 H   0  0  0  0  0  0  0  0  0  0  0  0
   -3.6568   -0.5922   -0.5645 C   0  0  0  0  0  0  0  0  0  0  0  0
   -4.0729   -1.3946   -0.1401 H   0  0  0  0  0  0  0  0  0  0  0  0
   -2.7028   -0.7898   -0.7831 H   0  0  0  0  0  0  0  0  0  0  0  0
   -3.6990    0.1781    0.0691 H   0  0  0  0  0  0  0  0  0  0  0  0
  1  5  1  0
  5  6  2  0
  5  7  1  0
  1  2  1  0
  1  3  1  0
  1  4  1  0
  8 12  1  0
 12 15  1  0
  8  9  1  0
  8 10  1  0
  8 11  1  0
 12 13  1  0
 12 14  1  0
 15 16  1  0
 15 17  1  0
 15 18  1  0
M  CHG  1   7  -1
V    7 [O&-]
M  END
>  <PDB_ID>  (2034) 
pdb5c16

>  <RESIDUE_NAME>  (2034) 
GLU   ILE

>  <FRAG_NAME>  (2034) 
ACET   PRPA

>  <FRAG_ATOM_NUM>  (2034) 
fragi: 7 fragj: 11

>  <atom.prop.CHAIN_ID>  (2034) 
A A A A A A A Z Z Z Z Z Z Z Z Z Z Z

>  <atom.prop.IS_HEAVY_ATOM>  (2034) 
1 0 0 0 1 1 1 1 0 0 0 1 0 0 1 0 0 0

>  <DIFUSE_FUNC_ATOM>  (2034) 
n/a

>  <FINAL_SINGLE_POINT_ENERGY>  (2034) 
0

>  <NONCOV_INTER_ENERGY_QM>  (2034) 
0

>  <FF_Energy>  (2034) 
30.37

>  <QM_Energy>  (2034) 
3.23

>  <source>  (2034) 
ACET_PRPA_28

>  <Index>  (2034) 
11309

$$$$
ACEH-pdb5c16-D-GLH-467:PRPA-pdb5c16-D-ILE-463
     RDKit          3D

 18 16  0  0  0  0  0  0  0  0999 V2000
   -0.0262    1.5191   -0.0010 C   0  0  0  0  0  0  0  0  0  0  0  0
   -0.6634    1.8071    0.6945 H   0  0  0  0  0  0  0  0  0  0  0  0
   -0.3101    1.8130   -0.8995 H   0  0  0  0  0  0  0  0  0  0  0  0
    0.9375    1.9804    0.2152 H   0  0  0  0  0  0  0  0  0  0  0  0
    0.0000    0.0000    0.0000 C   0  0  0  0  0  0  0  0  0  0  0  0
   -1.0964   -0.5917   -0.0000 O   0  0  0  0  0  0  0  0  0  0  0  0
    1.0964   -0.5949   -0.0000 O   0  0  0  0  0  0  0  0  0  0  0  0
   -5.8709    0.0604   -1.5128 C   0  0  0  0  0  0  0  0  0  0  0  0
   -5.8973    0.6314   -0.6874 H   0  0  0  0  0  0  0  0  0  0  0  0
   -6.2558    0.5963   -2.2705 H   0  0  0  0  0  0  0  0  0  0  0  0
   -6.4956   -0.8186   -1.3543 H   0  0  0  0  0  0  0  0  0  0  0  0
   -4.4098   -0.2433   -1.8405 C   0  0  0  0  0  0  0  0  0  0  0  0
   -4.3920   -0.9855   -2.4912 H   0  0  0  0  0  0  0  0  0  0  0  0
   -3.9752    0.6388   -2.3106 H   0  0  0  0  0  0  0  0  0  0  0  0
   -3.6568   -0.5922   -0.5645 C   0  0  0  0  0  0  0  0  0  0  0  0
   -4.0729   -1.3946   -0.1401 H   0  0  0  0  0  0  0  0  0  0  0  0
   -2.7028   -0.7898   -0.7831 H   0  0  0  0  0  0  0  0  0  0  0  0
   -3.6990    0.1781    0.0691 H   0  0  0  0  0  0  0  0  0  0  0  0
  1  5  1  0
  5  6  2  0
  5  7  1  0
  1  2  1  0
  1  3  1  0
  1  4  1  0
  8 12  1  0
 12 15  1  0
  8  9  1  0
  8 10  1  0
  8 11  1  0
 12 13  1  0
 12 14  1  0
 15 16  1  0
 15 17  1  0
 15 18  1  0
M  CHG  1   7  -1
V    7 [O&-]
M  END
>  <PDB_ID>  (2035) 
pdb5c16

>  <RESIDUE_NAME>  (2035) 
GLU   ILE

>  <FRAG_NAME>  (2035) 
ACET   PRPA

>  <FRAG_ATOM_NUM>  (2035) 
fragi: 7 fragj: 11

>  <atom.prop.CHAIN_ID>  (2035) 
A A A A A A A Z Z Z Z Z Z Z Z Z Z Z

>  <atom.prop.IS_HEAVY_ATOM>  (2035) 
1 0 0 0 1 1 1 1 0 0 0 1 0 0 1 0 0 0

>  <DIFUSE_FUNC_ATOM>  (2035) 
n/a

>  <FINAL_SINGLE_POINT_ENERGY>  (2035) 
0

>  <NONCOV_INTER_ENERGY_QM>  (2035) 
0

>  <FF_Energy>  (2035) 
30.33

>  <QM_Energy>  (2035) 
4.12

>  <source>  (2035) 
ACET_PRPA_28

>  <Index>  (2035) 
11404

$$$$
ACEH-pdb2c1w-A-GLH-167:PRPA-pdb2c1w-A-GLN-172
     RDKit          3D

 18 16  0  0  0  0  0  0  0  0999 V2000
    0.0087    1.5113    0.0175 C   0  0  0  0  0  0  0  0  0  0  0  0
    0.4079    1.8142   -0.8263 H   0  0  0  0  0  0  0  0  0  0  0  0
    0.5269    1.7946    0.8014 H   0  0  0  0  0  0  0  0  0  0  0  0
   -0.9981    1.9217    0.0951 H   0  0  0  0  0  0  0  0  0  0  0  0
    0.0000    0.0000    0.0000 C   0  0  0  0  0  0  0  0  0  0  0  0
   -1.0911   -0.6152   -0.0000 O   0  0  0  0  0  0  0  0  0  0  0  0
    1.0911   -0.5892   -0.0000 O   0  0  0  0  0  0  0  0  0  0  0  0
    0.7337   -2.4996    1.9314 C   0  0  0  0  0  0  0  0  0  0  0  0
    0.7193   -1.4687    2.1100 H   0  0  0  0  0  0  0  0  0  0  0  0
    1.6909   -2.8735    2.2948 H   0  0  0  0  0  0  0  0  0  0  0  0
   -0.2014   -2.9019    2.3211 H   0  0  0  0  0  0  0  0  0  0  0  0
    0.4187   -3.0842    0.5533 C   0  0  0  0  0  0  0  0  0  0  0  0
   -0.5368   -3.3872    0.5440 H   0  0  0  0  0  0  0  0  0  0  0  0
    0.5416   -2.3656   -0.1356 H   0  0  0  0  0  0  0  0  0  0  0  0
    1.2936   -4.2652    0.1649 C   0  0  0  0  0  0  0  0  0  0  0  0
    2.0925   -4.2834    0.7653 H   0  0  0  0  0  0  0  0  0  0  0  0
    0.7675   -5.1067    0.2826 H   0  0  0  0  0  0  0  0  0  0  0  0
    1.6368   -4.2110   -0.8682 H   0  0  0  0  0  0  0  0  0  0  0  0
  1  5  1  0
  5  6  2  0
  5  7  1  0
  1  2  1  0
  1  3  1  0
  1  4  1  0
  8 12  1  0
 12 15  1  0
  8  9  1  0
  8 10  1  0
  8 11  1  0
 12 13  1  0
 12 14  1  0
 15 16  1  0
 15 17  1  0
 15 18  1  0
M  CHG  1   7  -1
V    7 [O&-]
M  END
>  <PDB_ID>  (2036) 
pdb2c1w

>  <RESIDUE_NAME>  (2036) 
GLU   GLN

>  <FRAG_NAME>  (2036) 
ACET   PRPA

>  <FRAG_ATOM_NUM>  (2036) 
fragi: 7 fragj: 11

>  <atom.prop.CHAIN_ID>  (2036) 
A A A A A A A Z Z Z Z Z Z Z Z Z Z Z

>  <atom.prop.IS_HEAVY_ATOM>  (2036) 
1 0 0 0 1 1 1 1 0 0 0 1 0 0 1 0 0 0

>  <DIFUSE_FUNC_ATOM>  (2036) 
n/a

>  <FINAL_SINGLE_POINT_ENERGY>  (2036) 
0

>  <NONCOV_INTER_ENERGY_QM>  (2036) 
0

>  <FF_Energy>  (2036) 
31.99

>  <QM_Energy>  (2036) 
4.59

>  <source>  (2036) 
ACET_PRPA_28

>  <Index>  (2036) 
11455

$$$$
ACEH-pdb6cw3-B-ASH-186:PRPA-pdb6cw3-B-LEU-182
     RDKit          3D

 18 16  0  0  0  0  0  0  0  0999 V2000
    0.0359    1.5160   -0.0181 C   0  0  0  0  0  0  0  0  0  0  0  0
    0.5297    1.8137   -0.8347 H   0  0  0  0  0  0  0  0  0  0  0  0
    0.5188    1.8335    0.7974 H   0  0  0  0  0  0  0  0  0  0  0  0
   -0.9477    1.9857   -0.0308 H   0  0  0  0  0  0  0  0  0  0  0  0
    0.0000    0.0000    0.0000 C   0  0  0  0  0  0  0  0  0  0  0  0
   -1.0951   -0.6003    0.0000 O   0  0  0  0  0  0  0  0  0  0  0  0
    1.0951   -0.5846    0.0000 O   0  0  0  0  0  0  0  0  0  0  0  0
   -0.4199   -2.2129   -2.8822 C   0  0  0  0  0  0  0  0  0  0  0  0
   -0.7031   -1.2986   -2.5891 H   0  0  0  0  0  0  0  0  0  0  0  0
   -0.0854   -2.1706   -3.8244 H   0  0  0  0  0  0  0  0  0  0  0  0
   -1.2040   -2.8327   -2.8365 H   0  0  0  0  0  0  0  0  0  0  0  0
    0.6850   -2.7205   -1.9715 C   0  0  0  0  0  0  0  0  0  0  0  0
    0.9537   -3.6311   -2.2560 H   0  0  0  0  0  0  0  0  0  0  0  0
    0.2966   -2.7571   -0.9536 H   0  0  0  0  0  0  0  0  0  0  0  0
    1.8897   -1.7966   -1.9860 C   0  0  0  0  0  0  0  0  0  0  0  0
    2.5907   -2.1484   -1.3633 H   0  0  0  0  0  0  0  0  0  0  0  0
    2.2642   -1.7465   -2.9133 H   0  0  0  0  0  0  0  0  0  0  0  0
    1.6146   -0.8804   -1.6905 H   0  0  0  0  0  0  0  0  0  0  0  0
  1  5  1  0
  5  6  2  0
  5  7  1  0
  1  2  1  0
  1  3  1  0
  1  4  1  0
  8 12  1  0
 12 15  1  0
  8  9  1  0
  8 10  1  0
  8 11  1  0
 12 13  1  0
 12 14  1  0
 15 16  1  0
 15 17  1  0
 15 18  1  0
M  CHG  1   7  -1
V    7 [O&-]
M  END
>  <PDB_ID>  (2037) 
pdb6cw3

>  <RESIDUE_NAME>  (2037) 
ASP   LEU

>  <FRAG_NAME>  (2037) 
ACET   PRPA

>  <FRAG_ATOM_NUM>  (2037) 
fragi: 7 fragj: 11

>  <atom.prop.CHAIN_ID>  (2037) 
A A A A A A A Z Z Z Z Z Z Z Z Z Z Z

>  <atom.prop.IS_HEAVY_ATOM>  (2037) 
1 0 0 0 1 1 1 1 0 0 0 1 0 0 1 0 0 0

>  <DIFUSE_FUNC_ATOM>  (2037) 
n/a

>  <FINAL_SINGLE_POINT_ENERGY>  (2037) 
0

>  <NONCOV_INTER_ENERGY_QM>  (2037) 
0

>  <FF_Energy>  (2037) 
42.63

>  <QM_Energy>  (2037) 
5.55

>  <source>  (2037) 
ACET_PRPA_28

>  <Index>  (2037) 
12565

$$$$
ACEH-pdb6cw3-F-GLH-313:PRPA-pdb6cw3-E-ILE-52
     RDKit          3D

 18 16  0  0  0  0  0  0  0  0999 V2000
    0.1750    1.4858    0.0150 C   0  0  0  0  0  0  0  0  0  0  0  0
    0.6937    1.7416   -0.8014 H   0  0  0  0  0  0  0  0  0  0  0  0
    0.7054    1.7227    0.8305 H   0  0  0  0  0  0  0  0  0  0  0  0
   -0.7360    2.0839    0.0275 H   0  0  0  0  0  0  0  0  0  0  0  0
    0.0000    0.0000    0.0000 C   0  0  0  0  0  0  0  0  0  0  0  0
   -1.0896   -0.5577   -0.0000 O   0  0  0  0  0  0  0  0  0  0  0  0
    1.0896   -0.6075    0.0000 O   0  0  0  0  0  0  0  0  0  0  0  0
    1.8008   -3.1632    1.4997 C   0  0  0  0  0  0  0  0  0  0  0  0
    1.1491   -3.8015    1.9097 H   0  0  0  0  0  0  0  0  0  0  0  0
    2.7935   -3.5687    1.6952 H   0  0  0  0  0  0  0  0  0  0  0  0
    1.6026   -3.1641    0.4279 H   0  0  0  0  0  0  0  0  0  0  0  0
    1.6389   -1.7423    2.0618 C   0  0  0  0  0  0  0  0  0  0  0  0
    2.2903   -1.1525    1.6009 H   0  0  0  0  0  0  0  0  0  0  0  0
    0.6183   -1.3886    1.9157 H   0  0  0  0  0  0  0  0  0  0  0  0
    1.9679   -1.7321    3.5579 C   0  0  0  0  0  0  0  0  0  0  0  0
    2.9283   -1.9774    3.6707 H   0  0  0  0  0  0  0  0  0  0  0  0
    1.8312   -0.8028    3.8999 H   0  0  0  0  0  0  0  0  0  0  0  0
    1.3547   -2.4153    4.1456 H   0  0  0  0  0  0  0  0  0  0  0  0
  1  5  1  0
  5  6  2  0
  5  7  1  0
  1  2  1  0
  1  3  1  0
  1  4  1  0
  8 12  1  0
 12 15  1  0
  8  9  1  0
  8 10  1  0
  8 11  1  0
 12 13  1  0
 12 14  1  0
 15 16  1  0
 15 17  1  0
 15 18  1  0
M  CHG  1   7  -1
V    7 [O&-]
M  END
>  <PDB_ID>  (2038) 
pdb6cw3

>  <RESIDUE_NAME>  (2038) 
GLU   ILE

>  <FRAG_NAME>  (2038) 
ACET   PRPA

>  <FRAG_ATOM_NUM>  (2038) 
fragi: 7 fragj: 11

>  <atom.prop.CHAIN_ID>  (2038) 
A A A A A A A Z Z Z Z Z Z Z Z Z Z Z

>  <atom.prop.IS_HEAVY_ATOM>  (2038) 
1 0 0 0 1 1 1 1 0 0 0 1 0 0 1 0 0 0

>  <DIFUSE_FUNC_ATOM>  (2038) 
n/a

>  <FINAL_SINGLE_POINT_ENERGY>  (2038) 
0

>  <NONCOV_INTER_ENERGY_QM>  (2038) 
0

>  <FF_Energy>  (2038) 
22.63

>  <QM_Energy>  (2038) 
5.58

>  <source>  (2038) 
ACET_PRPA_28

>  <Index>  (2038) 
12743

$$$$
ACEH-pdb6cw3-F-GLH-313:PRPA-pdb6cw3-E-ILE-52
     RDKit          3D

 18 16  0  0  0  0  0  0  0  0999 V2000
    0.1750    1.4858    0.0150 C   0  0  0  0  0  0  0  0  0  0  0  0
    0.6937    1.7416   -0.8014 H   0  0  0  0  0  0  0  0  0  0  0  0
    0.7054    1.7227    0.8305 H   0  0  0  0  0  0  0  0  0  0  0  0
   -0.7360    2.0839    0.0275 H   0  0  0  0  0  0  0  0  0  0  0  0
    0.0000    0.0000    0.0000 C   0  0  0  0  0  0  0  0  0  0  0  0
   -1.0896   -0.5577   -0.0000 O   0  0  0  0  0  0  0  0  0  0  0  0
    1.0896   -0.6075    0.0000 O   0  0  0  0  0  0  0  0  0  0  0  0
    1.6389   -1.7423    2.0618 C   0  0  0  0  0  0  0  0  0  0  0  0
    2.2903   -1.1525    1.6009 H   0  0  0  0  0  0  0  0  0  0  0  0
    1.7538   -2.7501    1.6631 H   0  0  0  0  0  0  0  0  0  0  0  0
    0.6183   -1.3886    1.9157 H   0  0  0  0  0  0  0  0  0  0  0  0
    1.9679   -1.7321    3.5579 C   0  0  0  0  0  0  0  0  0  0  0  0
    2.9283   -1.9774    3.6707 H   0  0  0  0  0  0  0  0  0  0  0  0
    1.8312   -0.8028    3.8999 H   0  0  0  0  0  0  0  0  0  0  0  0
    1.1167   -2.6803    4.3736 C   0  0  0  0  0  0  0  0  0  0  0  0
    1.2522   -3.6138    4.0455 H   0  0  0  0  0  0  0  0  0  0  0  0
    1.3835   -2.6209    5.3348 H   0  0  0  0  0  0  0  0  0  0  0  0
    0.1549   -2.4277    4.2781 H   0  0  0  0  0  0  0  0  0  0  0  0
  1  5  1  0
  5  6  2  0
  5  7  1  0
  1  2  1  0
  1  3  1  0
  1  4  1  0
  8 12  1  0
 12 15  1  0
  8  9  1  0
  8 10  1  0
  8 11  1  0
 12 13  1  0
 12 14  1  0
 15 16  1  0
 15 17  1  0
 15 18  1  0
M  CHG  1   7  -1
V    7 [O&-]
M  END
>  <PDB_ID>  (2039) 
pdb6cw3

>  <RESIDUE_NAME>  (2039) 
GLU   ILE

>  <FRAG_NAME>  (2039) 
ACET   PRPA

>  <FRAG_ATOM_NUM>  (2039) 
fragi: 7 fragj: 11

>  <atom.prop.CHAIN_ID>  (2039) 
A A A A A A A Z Z Z Z Z Z Z Z Z Z Z

>  <atom.prop.IS_HEAVY_ATOM>  (2039) 
1 0 0 0 1 1 1 1 0 0 0 1 0 0 1 0 0 0

>  <DIFUSE_FUNC_ATOM>  (2039) 
n/a

>  <FINAL_SINGLE_POINT_ENERGY>  (2039) 
0

>  <NONCOV_INTER_ENERGY_QM>  (2039) 
0

>  <FF_Energy>  (2039) 
23.96

>  <QM_Energy>  (2039) 
7.79

>  <source>  (2039) 
ACET_PRPA_28

>  <Index>  (2039) 
12828

$$$$
ACEH-pdb1c4p-B-ASH-285:PRPA-pdb1c4p-C-LEU-235
     RDKit          3D

 18 16  0  0  0  0  0  0  0  0999 V2000
    0.0165    1.5175   -0.0195 C   0  0  0  0  0  0  0  0  0  0  0  0
    0.1269    1.8194   -0.9714 H   0  0  0  0  0  0  0  0  0  0  0  0
    0.8079    1.8319    0.5126 H   0  0  0  0  0  0  0  0  0  0  0  0
   -0.8772    1.9919    0.3859 H   0  0  0  0  0  0  0  0  0  0  0  0
    0.0000    0.0000    0.0000 C   0  0  0  0  0  0  0  0  0  0  0  0
   -1.0962   -0.6036    0.0000 O   0  0  0  0  0  0  0  0  0  0  0  0
    1.0962   -0.5731    0.0000 O   0  0  0  0  0  0  0  0  0  0  0  0
    3.6994    0.1838    1.6383 C   0  0  0  0  0  0  0  0  0  0  0  0
    4.6209   -0.1172    1.8347 H   0  0  0  0  0  0  0  0  0  0  0  0
    3.6269    1.1689    1.6694 H   0  0  0  0  0  0  0  0  0  0  0  0
    3.4540   -0.1358    0.6255 H   0  0  0  0  0  0  0  0  0  0  0  0
    2.7859   -0.3844    2.7248 C   0  0  0  0  0  0  0  0  0  0  0  0
    2.6152   -1.3511    2.5317 H   0  0  0  0  0  0  0  0  0  0  0  0
    3.2468   -0.2865    3.7077 H   0  0  0  0  0  0  0  0  0  0  0  0
    1.4391    0.3303    2.6748 C   0  0  0  0  0  0  0  0  0  0  0  0
    1.0203    0.1892    1.7777 H   0  0  0  0  0  0  0  0  0  0  0  0
    0.8391   -0.0398    3.3844 H   0  0  0  0  0  0  0  0  0  0  0  0
    1.5759    1.3086    2.8299 H   0  0  0  0  0  0  0  0  0  0  0  0
  1  5  1  0
  5  6  2  0
  5  7  1  0
  1  2  1  0
  1  3  1  0
  1  4  1  0
  8 12  1  0
 12 15  1  0
  8  9  1  0
  8 10  1  0
  8 11  1  0
 12 13  1  0
 12 14  1  0
 15 16  1  0
 15 17  1  0
 15 18  1  0
M  CHG  1   7  -1
V    7 [O&-]
M  END
>  <PDB_ID>  (2040) 
pdb1c4p

>  <RESIDUE_NAME>  (2040) 
ASP   LEU

>  <FRAG_NAME>  (2040) 
ACET   PRPA

>  <FRAG_ATOM_NUM>  (2040) 
fragi: 7 fragj: 11

>  <atom.prop.CHAIN_ID>  (2040) 
A A A A A A A Z Z Z Z Z Z Z Z Z Z Z

>  <atom.prop.IS_HEAVY_ATOM>  (2040) 
1 0 0 0 1 1 1 1 0 0 0 1 0 0 1 0 0 0

>  <DIFUSE_FUNC_ATOM>  (2040) 
n/a

>  <FINAL_SINGLE_POINT_ENERGY>  (2040) 
0

>  <NONCOV_INTER_ENERGY_QM>  (2040) 
0

>  <FF_Energy>  (2040) 
27.92

>  <QM_Energy>  (2040) 
2.01

>  <source>  (2040) 
ACET_PRPA_28

>  <Index>  (2040) 
12918

$$$$
ACEH-pdb1c4p-B-ASH-285:PRPA-pdb1c4p-C-LEU-235
     RDKit          3D

 18 16  0  0  0  0  0  0  0  0999 V2000
    0.0165    1.5175   -0.0195 C   0  0  0  0  0  0  0  0  0  0  0  0
    0.1269    1.8194   -0.9714 H   0  0  0  0  0  0  0  0  0  0  0  0
    0.8079    1.8319    0.5126 H   0  0  0  0  0  0  0  0  0  0  0  0
   -0.8772    1.9919    0.3859 H   0  0  0  0  0  0  0  0  0  0  0  0
    0.0000    0.0000    0.0000 C   0  0  0  0  0  0  0  0  0  0  0  0
   -1.0962   -0.6036    0.0000 O   0  0  0  0  0  0  0  0  0  0  0  0
    1.0962   -0.5731    0.0000 O   0  0  0  0  0  0  0  0  0  0  0  0
    3.4282   -0.2480    4.0946 C   0  0  0  0  0  0  0  0  0  0  0  0
    3.5990    0.7181    4.2907 H   0  0  0  0  0  0  0  0  0  0  0  0
    2.8165   -0.6244    4.7910 H   0  0  0  0  0  0  0  0  0  0  0  0
    4.2953   -0.7475    4.1103 H   0  0  0  0  0  0  0  0  0  0  0  0
    2.7859   -0.3844    2.7248 C   0  0  0  0  0  0  0  0  0  0  0  0
    2.6152   -1.3511    2.5317 H   0  0  0  0  0  0  0  0  0  0  0  0
    3.4372    0.0207    1.9502 H   0  0  0  0  0  0  0  0  0  0  0  0
    1.4391    0.3303    2.6748 C   0  0  0  0  0  0  0  0  0  0  0  0
    1.0203    0.1892    1.7777 H   0  0  0  0  0  0  0  0  0  0  0  0
    0.8391   -0.0398    3.3844 H   0  0  0  0  0  0  0  0  0  0  0  0
    1.5759    1.3086    2.8299 H   0  0  0  0  0  0  0  0  0  0  0  0
  1  5  1  0
  5  6  2  0
  5  7  1  0
  1  2  1  0
  1  3  1  0
  1  4  1  0
  8 12  1  0
 12 15  1  0
  8  9  1  0
  8 10  1  0
  8 11  1  0
 12 13  1  0
 12 14  1  0
 15 16  1  0
 15 17  1  0
 15 18  1  0
M  CHG  1   7  -1
V    7 [O&-]
M  END
>  <PDB_ID>  (2041) 
pdb1c4p

>  <RESIDUE_NAME>  (2041) 
ASP   LEU

>  <FRAG_NAME>  (2041) 
ACET   PRPA

>  <FRAG_ATOM_NUM>  (2041) 
fragi: 7 fragj: 11

>  <atom.prop.CHAIN_ID>  (2041) 
A A A A A A A Z Z Z Z Z Z Z Z Z Z Z

>  <atom.prop.IS_HEAVY_ATOM>  (2041) 
1 0 0 0 1 1 1 1 0 0 0 1 0 0 1 0 0 0

>  <DIFUSE_FUNC_ATOM>  (2041) 
n/a

>  <FINAL_SINGLE_POINT_ENERGY>  (2041) 
0

>  <NONCOV_INTER_ENERGY_QM>  (2041) 
0

>  <FF_Energy>  (2041) 
26.8

>  <QM_Energy>  (2041) 
2.75

>  <source>  (2041) 
ACET_PRPA_28

>  <Index>  (2041) 
12975

$$$$
ACEH-pdb6cja-E-GLH-145:PRPA-pdb6cja-E-LEU-100
     RDKit          3D

 18 16  0  0  0  0  0  0  0  0999 V2000
    0.0198    1.5308    0.0016 C   0  0  0  0  0  0  0  0  0  0  0  0
    0.1026    1.8159   -0.9305 H   0  0  0  0  0  0  0  0  0  0  0  0
    0.7773    1.8060    0.5556 H   0  0  0  0  0  0  0  0  0  0  0  0
   -0.8992    1.9409    0.4203 H   0  0  0  0  0  0  0  0  0  0  0  0
    0.0000    0.0000    0.0000 C   0  0  0  0  0  0  0  0  0  0  0  0
   -1.0979   -0.6028    0.0000 O   0  0  0  0  0  0  0  0  0  0  0  0
    1.0979   -0.5885   -0.0000 O   0  0  0  0  0  0  0  0  0  0  0  0
    3.1482   -1.5445    0.9364 C   0  0  0  0  0  0  0  0  0  0  0  0
    3.8573   -2.2551    1.0430 H   0  0  0  0  0  0  0  0  0  0  0  0
    3.0221   -1.3746   -0.0496 H   0  0  0  0  0  0  0  0  0  0  0  0
    2.2139   -1.9525    1.3220 H   0  0  0  0  0  0  0  0  0  0  0  0
    3.7024   -0.2624    1.5469 C   0  0  0  0  0  0  0  0  0  0  0  0
    3.6955   -0.3386    2.5293 H   0  0  0  0  0  0  0  0  0  0  0  0
    4.7296   -0.1613    1.1965 H   0  0  0  0  0  0  0  0  0  0  0  0
    2.8603    0.9543    1.1331 C   0  0  0  0  0  0  0  0  0  0  0  0
    1.9224    0.8263    1.4493 H   0  0  0  0  0  0  0  0  0  0  0  0
    3.2472    1.7759    1.5477 H   0  0  0  0  0  0  0  0  0  0  0  0
    2.8732    1.0381    0.1384 H   0  0  0  0  0  0  0  0  0  0  0  0
  1  5  1  0
  5  6  2  0
  5  7  1  0
  1  2  1  0
  1  3  1  0
  1  4  1  0
  8 12  1  0
 12 15  1  0
  8  9  1  0
  8 10  1  0
  8 11  1  0
 12 13  1  0
 12 14  1  0
 15 16  1  0
 15 17  1  0
 15 18  1  0
M  CHG  1   7  -1
V    7 [O&-]
M  END
>  <PDB_ID>  (2042) 
pdb6cja

>  <RESIDUE_NAME>  (2042) 
GLU   LEU

>  <FRAG_NAME>  (2042) 
ACET   PRPA

>  <FRAG_ATOM_NUM>  (2042) 
fragi: 7 fragj: 11

>  <atom.prop.CHAIN_ID>  (2042) 
A A A A A A A Z Z Z Z Z Z Z Z Z Z Z

>  <atom.prop.IS_HEAVY_ATOM>  (2042) 
1 0 0 0 1 1 1 1 0 0 0 1 0 0 1 0 0 0

>  <DIFUSE_FUNC_ATOM>  (2042) 
n/a

>  <FINAL_SINGLE_POINT_ENERGY>  (2042) 
0

>  <NONCOV_INTER_ENERGY_QM>  (2042) 
0

>  <FF_Energy>  (2042) 
39.11

>  <QM_Energy>  (2042) 
11.86

>  <source>  (2042) 
ACET_PRPA_28

>  <Index>  (2042) 
13250

$$$$
ACEH-pdb3cb2-B-GLH-133:PRPA-pdb3cb2-B-ILE-5
     RDKit          3D

 18 16  0  0  0  0  0  0  0  0999 V2000
    0.1715    1.4865    0.0135 C   0  0  0  0  0  0  0  0  0  0  0  0
    0.6888    1.7424   -0.8038 H   0  0  0  0  0  0  0  0  0  0  0  0
    0.7012    1.7256    0.8285 H   0  0  0  0  0  0  0  0  0  0  0  0
   -0.7399    2.0841    0.0255 H   0  0  0  0  0  0  0  0  0  0  0  0
    0.0000    0.0000    0.0000 C   0  0  0  0  0  0  0  0  0  0  0  0
   -1.0898   -0.5580    0.0000 O   0  0  0  0  0  0  0  0  0  0  0  0
    1.0898   -0.6050    0.0000 O   0  0  0  0  0  0  0  0  0  0  0  0
    3.3399    0.2480    2.8163 C   0  0  0  0  0  0  0  0  0  0  0  0
    3.7140   -0.5491    2.3675 H   0  0  0  0  0  0  0  0  0  0  0  0
    3.7479    1.1294    2.3217 H   0  0  0  0  0  0  0  0  0  0  0  0
    3.5892    0.2310    3.8773 H   0  0  0  0  0  0  0  0  0  0  0  0
    1.8201    0.2306    2.6404 C   0  0  0  0  0  0  0  0  0  0  0  0
    1.4161    0.7607    3.3943 H   0  0  0  0  0  0  0  0  0  0  0  0
    1.6072    0.7147    1.7831 H   0  0  0  0  0  0  0  0  0  0  0  0
    1.2138   -1.1244    2.6035 C   0  0  0  0  0  0  0  0  0  0  0  0
    1.4055   -1.6121    3.4597 H   0  0  0  0  0  0  0  0  0  0  0  0
    0.2195   -1.0542    2.4862 H   0  0  0  0  0  0  0  0  0  0  0  0
    1.5940   -1.6518    1.8386 H   0  0  0  0  0  0  0  0  0  0  0  0
  1  5  1  0
  5  6  2  0
  5  7  1  0
  1  2  1  0
  1  3  1  0
  1  4  1  0
  8 12  1  0
 12 15  1  0
  8  9  1  0
  8 10  1  0
  8 11  1  0
 12 13  1  0
 12 14  1  0
 15 16  1  0
 15 17  1  0
 15 18  1  0
M  CHG  1   7  -1
V    7 [O&-]
M  END
>  <PDB_ID>  (2043) 
pdb3cb2

>  <RESIDUE_NAME>  (2043) 
GLU   ILE

>  <FRAG_NAME>  (2043) 
ACET   PRPA

>  <FRAG_ATOM_NUM>  (2043) 
fragi: 7 fragj: 11

>  <atom.prop.CHAIN_ID>  (2043) 
A A A A A A A Z Z Z Z Z Z Z Z Z Z Z

>  <atom.prop.IS_HEAVY_ATOM>  (2043) 
1 0 0 0 1 1 1 1 0 0 0 1 0 0 1 0 0 0

>  <DIFUSE_FUNC_ATOM>  (2043) 
n/a

>  <FINAL_SINGLE_POINT_ENERGY>  (2043) 
0

>  <NONCOV_INTER_ENERGY_QM>  (2043) 
0

>  <FF_Energy>  (2043) 
22.51

>  <QM_Energy>  (2043) 
2.19

>  <source>  (2043) 
ACET_PRPA_28

>  <Index>  (2043) 
13459

$$$$
ACEH-pdb5aa5-A-GLH-195:PRPA-pdb5aa5-A-LEU-222
     RDKit          3D

 18 16  0  0  0  0  0  0  0  0999 V2000
   -0.0164    1.5149   -0.0084 C   0  0  0  0  0  0  0  0  0  0  0  0
    0.4439    1.8092   -0.8200 H   0  0  0  0  0  0  0  0  0  0  0  0
    0.4223    1.8183    0.8124 H   0  0  0  0  0  0  0  0  0  0  0  0
   -1.0357    1.9008   -0.0245 H   0  0  0  0  0  0  0  0  0  0  0  0
    0.0000    0.0000    0.0000 C   0  0  0  0  0  0  0  0  0  0  0  0
   -1.1006   -0.5913   -0.0000 O   0  0  0  0  0  0  0  0  0  0  0  0
    1.1006   -0.5930    0.0000 O   0  0  0  0  0  0  0  0  0  0  0  0
   -3.3403   -4.3134   -2.5267 C   0  0  0  0  0  0  0  0  0  0  0  0
   -3.5210   -4.1828   -3.5045 H   0  0  0  0  0  0  0  0  0  0  0  0
   -4.2101   -4.3380   -2.0321 H   0  0  0  0  0  0  0  0  0  0  0  0
   -2.8639   -5.2864   -2.4065 H   0  0  0  0  0  0  0  0  0  0  0  0
   -2.5728   -3.0863   -2.0387 C   0  0  0  0  0  0  0  0  0  0  0  0
   -1.6534   -3.1056   -2.4165 H   0  0  0  0  0  0  0  0  0  0  0  0
   -3.0845   -2.1847   -2.3755 H   0  0  0  0  0  0  0  0  0  0  0  0
   -2.4081   -3.0850   -0.5120 C   0  0  0  0  0  0  0  0  0  0  0  0
   -1.9049   -3.9025   -0.2357 H   0  0  0  0  0  0  0  0  0  0  0  0
   -1.9029   -2.2691   -0.2373 H   0  0  0  0  0  0  0  0  0  0  0  0
   -3.3107   -3.0832   -0.0851 H   0  0  0  0  0  0  0  0  0  0  0  0
  1  5  1  0
  5  6  2  0
  5  7  1  0
  1  2  1  0
  1  3  1  0
  1  4  1  0
  8 12  1  0
 12 15  1  0
  8  9  1  0
  8 10  1  0
  8 11  1  0
 12 13  1  0
 12 14  1  0
 15 16  1  0
 15 17  1  0
 15 18  1  0
M  CHG  1   7  -1
V    7 [O&-]
M  END
>  <PDB_ID>  (2044) 
pdb5aa5

>  <RESIDUE_NAME>  (2044) 
GLU   LEU

>  <FRAG_NAME>  (2044) 
ACET   PRPA

>  <FRAG_ATOM_NUM>  (2044) 
fragi: 7 fragj: 11

>  <atom.prop.CHAIN_ID>  (2044) 
A A A A A A A Z Z Z Z Z Z Z Z Z Z Z

>  <atom.prop.IS_HEAVY_ATOM>  (2044) 
1 0 0 0 1 1 1 1 0 0 0 1 0 0 1 0 0 0

>  <DIFUSE_FUNC_ATOM>  (2044) 
n/a

>  <FINAL_SINGLE_POINT_ENERGY>  (2044) 
0

>  <NONCOV_INTER_ENERGY_QM>  (2044) 
0

>  <FF_Energy>  (2044) 
15.7

>  <QM_Energy>  (2044) 
-1.33

>  <source>  (2044) 
ACET_PRPA_28

>  <Index>  (2044) 
13728

$$$$
ACEH-pdb5aa5-A-GLH-195:PRPA-pdb5aa5-A-LEU-222
     RDKit          3D

 18 16  0  0  0  0  0  0  0  0999 V2000
   -0.0164    1.5149   -0.0084 C   0  0  0  0  0  0  0  0  0  0  0  0
    0.4439    1.8092   -0.8200 H   0  0  0  0  0  0  0  0  0  0  0  0
    0.4223    1.8183    0.8124 H   0  0  0  0  0  0  0  0  0  0  0  0
   -1.0357    1.9008   -0.0245 H   0  0  0  0  0  0  0  0  0  0  0  0
    0.0000    0.0000    0.0000 C   0  0  0  0  0  0  0  0  0  0  0  0
   -1.1006   -0.5913   -0.0000 O   0  0  0  0  0  0  0  0  0  0  0  0
    1.1006   -0.5930    0.0000 O   0  0  0  0  0  0  0  0  0  0  0  0
   -3.2875   -1.8272   -2.5091 C   0  0  0  0  0  0  0  0  0  0  0  0
   -4.2161   -1.8116   -2.1371 H   0  0  0  0  0  0  0  0  0  0  0  0
   -2.7882   -1.0207   -2.1909 H   0  0  0  0  0  0  0  0  0  0  0  0
   -3.3293   -1.8200   -3.5082 H   0  0  0  0  0  0  0  0  0  0  0  0
   -2.5728   -3.0863   -2.0387 C   0  0  0  0  0  0  0  0  0  0  0  0
   -1.6534   -3.1056   -2.4165 H   0  0  0  0  0  0  0  0  0  0  0  0
   -3.1205   -3.9620   -2.3870 H   0  0  0  0  0  0  0  0  0  0  0  0
   -2.4081   -3.0850   -0.5120 C   0  0  0  0  0  0  0  0  0  0  0  0
   -1.9049   -3.9025   -0.2357 H   0  0  0  0  0  0  0  0  0  0  0  0
   -1.9029   -2.2691   -0.2373 H   0  0  0  0  0  0  0  0  0  0  0  0
   -3.3107   -3.0832   -0.0851 H   0  0  0  0  0  0  0  0  0  0  0  0
  1  5  1  0
  5  6  2  0
  5  7  1  0
  1  2  1  0
  1  3  1  0
  1  4  1  0
  8 12  1  0
 12 15  1  0
  8  9  1  0
  8 10  1  0
  8 11  1  0
 12 13  1  0
 12 14  1  0
 15 16  1  0
 15 17  1  0
 15 18  1  0
M  CHG  1   7  -1
V    7 [O&-]
M  END
>  <PDB_ID>  (2045) 
pdb5aa5

>  <RESIDUE_NAME>  (2045) 
GLU   LEU

>  <FRAG_NAME>  (2045) 
ACET   PRPA

>  <FRAG_ATOM_NUM>  (2045) 
fragi: 7 fragj: 11

>  <atom.prop.CHAIN_ID>  (2045) 
A A A A A A A Z Z Z Z Z Z Z Z Z Z Z

>  <atom.prop.IS_HEAVY_ATOM>  (2045) 
1 0 0 0 1 1 1 1 0 0 0 1 0 0 1 0 0 0

>  <DIFUSE_FUNC_ATOM>  (2045) 
n/a

>  <FINAL_SINGLE_POINT_ENERGY>  (2045) 
0

>  <NONCOV_INTER_ENERGY_QM>  (2045) 
0

>  <FF_Energy>  (2045) 
16.06

>  <QM_Energy>  (2045) 
-2.47

>  <source>  (2045) 
ACET_PRPA_28

>  <Index>  (2045) 
13757

$$$$
ACEH-pdb6d1p-B-GLH-136:PRPA-pdb6d1p-B-LEU-22
     RDKit          3D

 18 16  0  0  0  0  0  0  0  0999 V2000
    0.0083    1.5355   -0.0106 C   0  0  0  0  0  0  0  0  0  0  0  0
    0.6661    1.8227   -0.6786 H   0  0  0  0  0  0  0  0  0  0  0  0
    0.2335    1.8351    0.8958 H   0  0  0  0  0  0  0  0  0  0  0  0
   -0.9543    1.9702   -0.2797 H   0  0  0  0  0  0  0  0  0  0  0  0
    0.0000    0.0000    0.0000 C   0  0  0  0  0  0  0  0  0  0  0  0
   -1.0903   -0.6144   -0.0000 O   0  0  0  0  0  0  0  0  0  0  0  0
    1.0903   -0.6035   -0.0000 O   0  0  0  0  0  0  0  0  0  0  0  0
   -4.0520   -1.6588   -0.2949 C   0  0  0  0  0  0  0  0  0  0  0  0
   -4.4450   -2.4322    0.1935 H   0  0  0  0  0  0  0  0  0  0  0  0
   -3.1651   -1.9034   -0.6722 H   0  0  0  0  0  0  0  0  0  0  0  0
   -4.7137   -1.4220   -1.1281 H   0  0  0  0  0  0  0  0  0  0  0  0
   -3.8295   -0.5410    0.7180 C   0  0  0  0  0  0  0  0  0  0  0  0
   -4.7031   -0.2842    1.1227 H   0  0  0  0  0  0  0  0  0  0  0  0
   -3.4018    0.3169    0.1991 H   0  0  0  0  0  0  0  0  0  0  0  0
   -2.8835   -1.0164    1.8253 C   0  0  0  0  0  0  0  0  0  0  0  0
   -2.0076   -1.2752    1.4212 H   0  0  0  0  0  0  0  0  0  0  0  0
   -2.7457   -0.2764    2.4815 H   0  0  0  0  0  0  0  0  0  0  0  0
   -3.2864   -1.8045    2.2860 H   0  0  0  0  0  0  0  0  0  0  0  0
  1  5  1  0
  5  6  2  0
  5  7  1  0
  1  2  1  0
  1  3  1  0
  1  4  1  0
  8 12  1  0
 12 15  1  0
  8  9  1  0
  8 10  1  0
  8 11  1  0
 12 13  1  0
 12 14  1  0
 15 16  1  0
 15 17  1  0
 15 18  1  0
M  CHG  1   7  -1
V    7 [O&-]
M  END
>  <PDB_ID>  (2046) 
pdb6d1p

>  <RESIDUE_NAME>  (2046) 
GLU   LEU

>  <FRAG_NAME>  (2046) 
ACET   PRPA

>  <FRAG_ATOM_NUM>  (2046) 
fragi: 7 fragj: 11

>  <atom.prop.CHAIN_ID>  (2046) 
A A A A A A A Z Z Z Z Z Z Z Z Z Z Z

>  <atom.prop.IS_HEAVY_ATOM>  (2046) 
1 0 0 0 1 1 1 1 0 0 0 1 0 0 1 0 0 0

>  <DIFUSE_FUNC_ATOM>  (2046) 
n/a

>  <FINAL_SINGLE_POINT_ENERGY>  (2046) 
0

>  <NONCOV_INTER_ENERGY_QM>  (2046) 
0

>  <FF_Energy>  (2046) 
31.91

>  <QM_Energy>  (2046) 
1.66

>  <source>  (2046) 
ACET_PRPA_28

>  <Index>  (2046) 
13794

$$$$
ACEH-pdb3c2u-C-ASH-436:PRPA-pdb3c2u-C-LEU-449
     RDKit          3D

 18 16  0  0  0  0  0  0  0  0999 V2000
    0.0980    1.5042    0.0198 C   0  0  0  0  0  0  0  0  0  0  0  0
    0.5302    1.8157   -0.8291 H   0  0  0  0  0  0  0  0  0  0  0  0
    0.6635    1.7851    0.7976 H   0  0  0  0  0  0  0  0  0  0  0  0
   -0.8556    2.0248    0.1071 H   0  0  0  0  0  0  0  0  0  0  0  0
    0.0000    0.0000    0.0000 C   0  0  0  0  0  0  0  0  0  0  0  0
   -1.1051   -0.5667   -0.0000 O   0  0  0  0  0  0  0  0  0  0  0  0
    1.1051   -0.6210    0.0000 O   0  0  0  0  0  0  0  0  0  0  0  0
   -5.1523   -1.5547   -0.6121 C   0  0  0  0  0  0  0  0  0  0  0  0
   -6.1677   -1.3369   -0.5472 H   0  0  0  0  0  0  0  0  0  0  0  0
   -4.7847   -1.2762    0.3199 H   0  0  0  0  0  0  0  0  0  0  0  0
   -5.0840   -2.6421   -0.6449 H   0  0  0  0  0  0  0  0  0  0  0  0
   -4.5591   -0.5801   -1.6283 C   0  0  0  0  0  0  0  0  0  0  0  0
   -4.9115   -0.7987   -2.5584 H   0  0  0  0  0  0  0  0  0  0  0  0
   -4.7481    0.4797   -1.4575 H   0  0  0  0  0  0  0  0  0  0  0  0
   -3.0946   -0.8024   -1.6824 C   0  0  0  0  0  0  0  0  0  0  0  0
   -2.8899   -1.7482   -1.9630 H   0  0  0  0  0  0  0  0  0  0  0  0
   -2.6648   -0.1758   -2.3440 H   0  0  0  0  0  0  0  0  0  0  0  0
   -2.6783   -0.6423   -0.7794 H   0  0  0  0  0  0  0  0  0  0  0  0
  1  5  1  0
  5  6  2  0
  5  7  1  0
  1  2  1  0
  1  3  1  0
  1  4  1  0
  8 12  1  0
 12 15  1  0
  8  9  1  0
  8 10  1  0
  8 11  1  0
 12 13  1  0
 12 14  1  0
 15 16  1  0
 15 17  1  0
 15 18  1  0
M  CHG  1   7  -1
V    7 [O&-]
M  END
>  <PDB_ID>  (2047) 
pdb3c2u

>  <RESIDUE_NAME>  (2047) 
ASP   LEU

>  <FRAG_NAME>  (2047) 
ACET   PRPA

>  <FRAG_ATOM_NUM>  (2047) 
fragi: 7 fragj: 11

>  <atom.prop.CHAIN_ID>  (2047) 
A A A A A A A Z Z Z Z Z Z Z Z Z Z Z

>  <atom.prop.IS_HEAVY_ATOM>  (2047) 
1 0 0 0 1 1 1 1 0 0 0 1 0 0 1 0 0 0

>  <DIFUSE_FUNC_ATOM>  (2047) 
n/a

>  <FINAL_SINGLE_POINT_ENERGY>  (2047) 
0

>  <NONCOV_INTER_ENERGY_QM>  (2047) 
0

>  <FF_Energy>  (2047) 
39.78

>  <QM_Energy>  (2047) 
4.69

>  <source>  (2047) 
ACET_PRPA_28

>  <Index>  (2047) 
14310

$$$$
ACEH-pdb3c2u-C-ASH-436:PRPA-pdb3c2u-C-LEU-449
     RDKit          3D

 18 16  0  0  0  0  0  0  0  0999 V2000
    0.0980    1.5042    0.0198 C   0  0  0  0  0  0  0  0  0  0  0  0
    0.5302    1.8157   -0.8291 H   0  0  0  0  0  0  0  0  0  0  0  0
    0.6635    1.7851    0.7976 H   0  0  0  0  0  0  0  0  0  0  0  0
   -0.8556    2.0248    0.1071 H   0  0  0  0  0  0  0  0  0  0  0  0
    0.0000    0.0000    0.0000 C   0  0  0  0  0  0  0  0  0  0  0  0
   -1.1051   -0.5667   -0.0000 O   0  0  0  0  0  0  0  0  0  0  0  0
    1.1051   -0.6210    0.0000 O   0  0  0  0  0  0  0  0  0  0  0  0
   -4.8357    0.9709   -1.3784 C   0  0  0  0  0  0  0  0  0  0  0  0
   -4.4509    1.2040   -0.4977 H   0  0  0  0  0  0  0  0  0  0  0  0
   -4.3956    1.4730   -2.1081 H   0  0  0  0  0  0  0  0  0  0  0  0
   -5.8152    1.1045   -1.3903 H   0  0  0  0  0  0  0  0  0  0  0  0
   -4.5591   -0.5801   -1.6283 C   0  0  0  0  0  0  0  0  0  0  0  0
   -4.9115   -0.7987   -2.5584 H   0  0  0  0  0  0  0  0  0  0  0  0
   -4.9823   -1.2754   -0.9033 H   0  0  0  0  0  0  0  0  0  0  0  0
   -3.0946   -0.8024   -1.6824 C   0  0  0  0  0  0  0  0  0  0  0  0
   -2.8899   -1.7482   -1.9630 H   0  0  0  0  0  0  0  0  0  0  0  0
   -2.6648   -0.1758   -2.3440 H   0  0  0  0  0  0  0  0  0  0  0  0
   -2.6783   -0.6423   -0.7794 H   0  0  0  0  0  0  0  0  0  0  0  0
  1  5  1  0
  5  6  2  0
  5  7  1  0
  1  2  1  0
  1  3  1  0
  1  4  1  0
  8 12  1  0
 12 15  1  0
  8  9  1  0
  8 10  1  0
  8 11  1  0
 12 13  1  0
 12 14  1  0
 15 16  1  0
 15 17  1  0
 15 18  1  0
M  CHG  1   7  -1
V    7 [O&-]
M  END
>  <PDB_ID>  (2048) 
pdb3c2u

>  <RESIDUE_NAME>  (2048) 
ASP   LEU

>  <FRAG_NAME>  (2048) 
ACET   PRPA

>  <FRAG_ATOM_NUM>  (2048) 
fragi: 7 fragj: 11

>  <atom.prop.CHAIN_ID>  (2048) 
A A A A A A A Z Z Z Z Z Z Z Z Z Z Z

>  <atom.prop.IS_HEAVY_ATOM>  (2048) 
1 0 0 0 1 1 1 1 0 0 0 1 0 0 1 0 0 0

>  <DIFUSE_FUNC_ATOM>  (2048) 
n/a

>  <FINAL_SINGLE_POINT_ENERGY>  (2048) 
0

>  <NONCOV_INTER_ENERGY_QM>  (2048) 
0

>  <FF_Energy>  (2048) 
39.41

>  <QM_Energy>  (2048) 
4.55

>  <source>  (2048) 
ACET_PRPA_28

>  <Index>  (2048) 
14323

$$$$
ACEH-pdb3clo-B-GLH-83:PRPA-pdb3clo-B-VAL-46
     RDKit          3D

 18 16  0  0  0  0  0  0  0  0999 V2000
    0.1731    1.4847    0.0160 C   0  0  0  0  0  0  0  0  0  0  0  0
    0.6927    1.7406   -0.8006 H   0  0  0  0  0  0  0  0  0  0  0  0
    0.7043    1.7213    0.8312 H   0  0  0  0  0  0  0  0  0  0  0  0
   -0.7378    2.0832    0.0287 H   0  0  0  0  0  0  0  0  0  0  0  0
    0.0000    0.0000    0.0000 C   0  0  0  0  0  0  0  0  0  0  0  0
   -1.0897   -0.5592    0.0000 O   0  0  0  0  0  0  0  0  0  0  0  0
    1.0897   -0.6080   -0.0000 O   0  0  0  0  0  0  0  0  0  0  0  0
    3.2392   -1.0965    1.7545 C   0  0  0  0  0  0  0  0  0  0  0  0
    3.0145   -1.5601    0.8951 H   0  0  0  0  0  0  0  0  0  0  0  0
    2.9772   -1.7606    2.5781 H   0  0  0  0  0  0  0  0  0  0  0  0
    4.3100   -0.8927    1.7493 H   0  0  0  0  0  0  0  0  0  0  0  0
    2.4854    0.2401    1.8186 C   0  0  0  0  0  0  0  0  0  0  0  0
    2.4988    0.6454    0.9131 H   0  0  0  0  0  0  0  0  0  0  0  0
    1.4378    0.0679    2.0660 H   0  0  0  0  0  0  0  0  0  0  0  0
    3.1266    1.1750    2.8234 C   0  0  0  0  0  0  0  0  0  0  0  0
    2.8450    2.1162    2.6310 H   0  0  0  0  0  0  0  0  0  0  0  0
    2.8346    0.9226    3.7479 H   0  0  0  0  0  0  0  0  0  0  0  0
    4.1226    1.1039    2.7571 H   0  0  0  0  0  0  0  0  0  0  0  0
  1  5  1  0
  5  6  2  0
  5  7  1  0
  1  2  1  0
  1  3  1  0
  1  4  1  0
  8 12  1  0
 12 15  1  0
  8  9  1  0
  8 10  1  0
  8 11  1  0
 12 13  1  0
 12 14  1  0
 15 16  1  0
 15 17  1  0
 15 18  1  0
M  CHG  1   7  -1
V    7 [O&-]
M  END
>  <PDB_ID>  (2049) 
pdb3clo

>  <RESIDUE_NAME>  (2049) 
GLU   VAL

>  <FRAG_NAME>  (2049) 
ACET   PRPA

>  <FRAG_ATOM_NUM>  (2049) 
fragi: 7 fragj: 11

>  <atom.prop.CHAIN_ID>  (2049) 
A A A A A A A Z Z Z Z Z Z Z Z Z Z Z

>  <atom.prop.IS_HEAVY_ATOM>  (2049) 
1 0 0 0 1 1 1 1 0 0 0 1 0 0 1 0 0 0

>  <DIFUSE_FUNC_ATOM>  (2049) 
n/a

>  <FINAL_SINGLE_POINT_ENERGY>  (2049) 
0

>  <NONCOV_INTER_ENERGY_QM>  (2049) 
0

>  <FF_Energy>  (2049) 
23.45

>  <QM_Energy>  (2049) 
6.01

>  <source>  (2049) 
ACET_PRPA_28

>  <Index>  (2049) 
15561

$$$$
ACEH-pdb4c91-B-GLH-782:PRPA-pdb4c91-A-LYS-374
     RDKit          3D

 18 16  0  0  0  0  0  0  0  0999 V2000
    0.1976    1.4799    0.0159 C   0  0  0  0  0  0  0  0  0  0  0  0
    0.7037    1.7371   -0.8012 H   0  0  0  0  0  0  0  0  0  0  0  0
    0.7159    1.7176    0.8307 H   0  0  0  0  0  0  0  0  0  0  0  0
   -0.7139    2.0775    0.0280 H   0  0  0  0  0  0  0  0  0  0  0  0
    0.0000    0.0000    0.0000 C   0  0  0  0  0  0  0  0  0  0  0  0
   -1.0879   -0.5545    0.0000 O   0  0  0  0  0  0  0  0  0  0  0  0
    1.0879   -0.6218   -0.0000 O   0  0  0  0  0  0  0  0  0  0  0  0
   -2.2651   -2.0296    1.7715 C   0  0  0  0  0  0  0  0  0  0  0  0
   -2.0037   -1.0693    1.6520 H   0  0  0  0  0  0  0  0  0  0  0  0
   -1.3803   -2.6267    1.9920 H   0  0  0  0  0  0  0  0  0  0  0  0
   -2.9701   -2.0814    2.6012 H   0  0  0  0  0  0  0  0  0  0  0  0
   -2.8512   -2.4235    0.3902 C   0  0  0  0  0  0  0  0  0  0  0  0
   -3.5646   -3.1061    0.5450 H   0  0  0  0  0  0  0  0  0  0  0  0
   -3.2547   -1.6036   -0.0139 H   0  0  0  0  0  0  0  0  0  0  0  0
   -1.8380   -3.0020   -0.6026 C   0  0  0  0  0  0  0  0  0  0  0  0
   -1.1218   -2.3208   -0.7600 H   0  0  0  0  0  0  0  0  0  0  0  0
   -1.4325   -3.8237   -0.2005 H   0  0  0  0  0  0  0  0  0  0  0  0
   -2.3093   -3.2577   -1.5516 H   0  0  0  0  0  0  0  0  0  0  0  0
  1  5  1  0
  5  6  2  0
  5  7  1  0
  1  2  1  0
  1  3  1  0
  1  4  1  0
  8 12  1  0
 12 15  1  0
  8  9  1  0
  8 10  1  0
  8 11  1  0
 12 13  1  0
 12 14  1  0
 15 16  1  0
 15 17  1  0
 15 18  1  0
M  CHG  1   7  -1
V    7 [O&-]
M  END
>  <PDB_ID>  (2050) 
pdb4c91

>  <RESIDUE_NAME>  (2050) 
GLU   LYS

>  <FRAG_NAME>  (2050) 
ACET   PRPA

>  <FRAG_ATOM_NUM>  (2050) 
fragi: 7 fragj: 11

>  <atom.prop.CHAIN_ID>  (2050) 
A A A A A A A Z Z Z Z Z Z Z Z Z Z Z

>  <atom.prop.IS_HEAVY_ATOM>  (2050) 
1 0 0 0 1 1 1 1 0 0 0 1 0 0 1 0 0 0

>  <DIFUSE_FUNC_ATOM>  (2050) 
n/a

>  <FINAL_SINGLE_POINT_ENERGY>  (2050) 
0

>  <NONCOV_INTER_ENERGY_QM>  (2050) 
0

>  <FF_Energy>  (2050) 
38.42

>  <QM_Energy>  (2050) 
4.8

>  <source>  (2050) 
ACET_PRPA_28

>  <Index>  (2050) 
15626

$$$$
ACEH-pdb6de6-B-GLH-691:PRPA-pdb6de6-A-GLU-686
     RDKit          3D

 18 16  0  0  0  0  0  0  0  0999 V2000
   -0.1746    1.4856   -0.0154 C   0  0  0  0  0  0  0  0  0  0  0  0
   -0.6933    1.7407    0.8010 H   0  0  0  0  0  0  0  0  0  0  0  0
   -0.7047    1.7223   -0.8308 H   0  0  0  0  0  0  0  0  0  0  0  0
    0.7367    2.0835   -0.0278 H   0  0  0  0  0  0  0  0  0  0  0  0
    0.0000    0.0000    0.0000 C   0  0  0  0  0  0  0  0  0  0  0  0
   -1.0893   -0.6081   -0.0000 O   0  0  0  0  0  0  0  0  0  0  0  0
    1.0893   -0.5580    0.0000 O   0  0  0  0  0  0  0  0  0  0  0  0
   -4.1010    0.5107   -1.8096 C   0  0  0  0  0  0  0  0  0  0  0  0
   -3.7656    0.8546   -0.9310 H   0  0  0  0  0  0  0  0  0  0  0  0
   -3.8425   -0.5425   -1.9205 H   0  0  0  0  0  0  0  0  0  0  0  0
   -5.1842    0.6234   -1.8545 H   0  0  0  0  0  0  0  0  0  0  0  0
   -3.4120    1.3519   -2.8942 C   0  0  0  0  0  0  0  0  0  0  0  0
   -3.5172    0.8866   -3.7450 H   0  0  0  0  0  0  0  0  0  0  0  0
   -3.8119    2.2410   -2.8832 H   0  0  0  0  0  0  0  0  0  0  0  0
   -1.9104    1.5158   -2.6389 C   0  0  0  0  0  0  0  0  0  0  0  0
   -1.7946    2.1860   -1.9237 H   0  0  0  0  0  0  0  0  0  0  0  0
   -1.5473    0.6369   -2.3734 H   0  0  0  0  0  0  0  0  0  0  0  0
   -1.3421    1.8572   -3.5041 H   0  0  0  0  0  0  0  0  0  0  0  0
  1  5  1  0
  5  6  2  0
  5  7  1  0
  1  2  1  0
  1  3  1  0
  1  4  1  0
  8 12  1  0
 12 15  1  0
  8  9  1  0
  8 10  1  0
  8 11  1  0
 12 13  1  0
 12 14  1  0
 15 16  1  0
 15 17  1  0
 15 18  1  0
M  CHG  1   7  -1
V    7 [O&-]
M  END
>  <PDB_ID>  (2051) 
pdb6de6

>  <RESIDUE_NAME>  (2051) 
GLU   GLU

>  <FRAG_NAME>  (2051) 
ACET   PRPA

>  <FRAG_ATOM_NUM>  (2051) 
fragi: 7 fragj: 11

>  <atom.prop.CHAIN_ID>  (2051) 
A A A A A A A Z Z Z Z Z Z Z Z Z Z Z

>  <atom.prop.IS_HEAVY_ATOM>  (2051) 
1 0 0 0 1 1 1 1 0 0 0 1 0 0 1 0 0 0

>  <DIFUSE_FUNC_ATOM>  (2051) 
n/a

>  <FINAL_SINGLE_POINT_ENERGY>  (2051) 
0

>  <NONCOV_INTER_ENERGY_QM>  (2051) 
0

>  <FF_Energy>  (2051) 
17.85

>  <QM_Energy>  (2051) 
2.42

>  <source>  (2051) 
ACET_PRPA_28

>  <Index>  (2051) 
15985

$$$$
ACEH-pdb4c91-B-ASH-397:PRPA-pdb4c91-A-VAL-795
     RDKit          3D

 18 16  0  0  0  0  0  0  0  0999 V2000
    0.0333    1.5224    0.0938 C   0  0  0  0  0  0  0  0  0  0  0  0
    0.5351    1.8699   -0.6926 H   0  0  0  0  0  0  0  0  0  0  0  0
    0.4998    1.7715    0.9362 H   0  0  0  0  0  0  0  0  0  0  0  0
   -0.9616    1.9678    0.0988 H   0  0  0  0  0  0  0  0  0  0  0  0
    0.0000    0.0000    0.0000 C   0  0  0  0  0  0  0  0  0  0  0  0
   -1.1069   -0.5952   -0.0000 O   0  0  0  0  0  0  0  0  0  0  0  0
    1.1069   -0.5861   -0.0000 O   0  0  0  0  0  0  0  0  0  0  0  0
    3.4823   -2.8526   -2.2612 C   0  0  0  0  0  0  0  0  0  0  0  0
    3.9842   -3.1640   -1.4330 H   0  0  0  0  0  0  0  0  0  0  0  0
    4.2120   -2.6830   -3.0529 H   0  0  0  0  0  0  0  0  0  0  0  0
    2.7406   -3.6135   -2.5043 H   0  0  0  0  0  0  0  0  0  0  0  0
    2.8152   -1.5704   -1.7766 C   0  0  0  0  0  0  0  0  0  0  0  0
    2.1983   -1.8046   -1.0340 H   0  0  0  0  0  0  0  0  0  0  0  0
    2.2534   -1.0673   -2.5636 H   0  0  0  0  0  0  0  0  0  0  0  0
    3.8654   -0.6349   -1.1979 C   0  0  0  0  0  0  0  0  0  0  0  0
    3.5789   -0.3323   -0.2889 H   0  0  0  0  0  0  0  0  0  0  0  0
    4.7398   -1.1154   -1.1284 H   0  0  0  0  0  0  0  0  0  0  0  0
    3.9703    0.1604   -1.7954 H   0  0  0  0  0  0  0  0  0  0  0  0
  1  5  1  0
  5  6  2  0
  5  7  1  0
  1  2  1  0
  1  3  1  0
  1  4  1  0
  8 12  1  0
 12 15  1  0
  8  9  1  0
  8 10  1  0
  8 11  1  0
 12 13  1  0
 12 14  1  0
 15 16  1  0
 15 17  1  0
 15 18  1  0
M  CHG  1   7  -1
V    7 [O&-]
M  END
>  <PDB_ID>  (2052) 
pdb4c91

>  <RESIDUE_NAME>  (2052) 
ASP   VAL

>  <FRAG_NAME>  (2052) 
ACET   PRPA

>  <FRAG_ATOM_NUM>  (2052) 
fragi: 7 fragj: 11

>  <atom.prop.CHAIN_ID>  (2052) 
A A A A A A A Z Z Z Z Z Z Z Z Z Z Z

>  <atom.prop.IS_HEAVY_ATOM>  (2052) 
1 0 0 0 1 1 1 1 0 0 0 1 0 0 1 0 0 0

>  <DIFUSE_FUNC_ATOM>  (2052) 
n/a

>  <FINAL_SINGLE_POINT_ENERGY>  (2052) 
0

>  <NONCOV_INTER_ENERGY_QM>  (2052) 
0

>  <FF_Energy>  (2052) 
15.66

>  <QM_Energy>  (2052) 
-0.46

>  <source>  (2052) 
ACET_PRPA_28

>  <Index>  (2052) 
16223

$$$$
ACEH-pdb4c91-B-ASH-397:PRPA-pdb4c91-A-VAL-795
     RDKit          3D

 18 16  0  0  0  0  0  0  0  0999 V2000
    0.0333    1.5224    0.0938 C   0  0  0  0  0  0  0  0  0  0  0  0
    0.5351    1.8699   -0.6926 H   0  0  0  0  0  0  0  0  0  0  0  0
    0.4998    1.7715    0.9362 H   0  0  0  0  0  0  0  0  0  0  0  0
   -0.9616    1.9678    0.0988 H   0  0  0  0  0  0  0  0  0  0  0  0
    0.0000    0.0000    0.0000 C   0  0  0  0  0  0  0  0  0  0  0  0
   -1.1069   -0.5952   -0.0000 O   0  0  0  0  0  0  0  0  0  0  0  0
    1.1069   -0.5861   -0.0000 O   0  0  0  0  0  0  0  0  0  0  0  0
    3.4823   -2.8526   -2.2612 C   0  0  0  0  0  0  0  0  0  0  0  0
    3.9842   -3.1640   -1.4330 H   0  0  0  0  0  0  0  0  0  0  0  0
    4.2120   -2.6830   -3.0529 H   0  0  0  0  0  0  0  0  0  0  0  0
    2.7406   -3.6135   -2.5043 H   0  0  0  0  0  0  0  0  0  0  0  0
    2.8152   -1.5704   -1.7766 C   0  0  0  0  0  0  0  0  0  0  0  0
    2.1983   -1.8046   -1.0340 H   0  0  0  0  0  0  0  0  0  0  0  0
    3.5679   -0.8999   -1.3618 H   0  0  0  0  0  0  0  0  0  0  0  0
    2.0351   -0.8717   -2.8695 C   0  0  0  0  0  0  0  0  0  0  0  0
    1.5196   -0.1083   -2.4763 H   0  0  0  0  0  0  0  0  0  0  0  0
    2.6684   -0.5237   -3.5625 H   0  0  0  0  0  0  0  0  0  0  0  0
    1.4005   -1.5199   -3.2938 H   0  0  0  0  0  0  0  0  0  0  0  0
  1  5  1  0
  5  6  2  0
  5  7  1  0
  1  2  1  0
  1  3  1  0
  1  4  1  0
  8 12  1  0
 12 15  1  0
  8  9  1  0
  8 10  1  0
  8 11  1  0
 12 13  1  0
 12 14  1  0
 15 16  1  0
 15 17  1  0
 15 18  1  0
M  CHG  1   7  -1
V    7 [O&-]
M  END
>  <PDB_ID>  (2053) 
pdb4c91

>  <RESIDUE_NAME>  (2053) 
ASP   VAL

>  <FRAG_NAME>  (2053) 
ACET   PRPA

>  <FRAG_ATOM_NUM>  (2053) 
fragi: 7 fragj: 11

>  <atom.prop.CHAIN_ID>  (2053) 
A A A A A A A Z Z Z Z Z Z Z Z Z Z Z

>  <atom.prop.IS_HEAVY_ATOM>  (2053) 
1 0 0 0 1 1 1 1 0 0 0 1 0 0 1 0 0 0

>  <DIFUSE_FUNC_ATOM>  (2053) 
n/a

>  <FINAL_SINGLE_POINT_ENERGY>  (2053) 
0

>  <NONCOV_INTER_ENERGY_QM>  (2053) 
0

>  <FF_Energy>  (2053) 
15.63

>  <QM_Energy>  (2053) 
-0.44

>  <source>  (2053) 
ACET_PRPA_28

>  <Index>  (2053) 
16274

$$$$
ACEH-pdb1d00-B-GLH-479:PRPA-pdb1d00-B-VAL-475
     RDKit          3D

 18 16  0  0  0  0  0  0  0  0999 V2000
    0.1701    1.4841    0.0157 C   0  0  0  0  0  0  0  0  0  0  0  0
    0.6897    1.7415   -0.8022 H   0  0  0  0  0  0  0  0  0  0  0  0
    0.7012    1.7238    0.8308 H   0  0  0  0  0  0  0  0  0  0  0  0
   -0.7405    2.0830    0.0280 H   0  0  0  0  0  0  0  0  0  0  0  0
    0.0000    0.0000    0.0000 C   0  0  0  0  0  0  0  0  0  0  0  0
   -1.0895   -0.5599   -0.0000 O   0  0  0  0  0  0  0  0  0  0  0  0
    1.0895   -0.6057    0.0000 O   0  0  0  0  0  0  0  0  0  0  0  0
   -1.0387   -1.9808    2.5092 C   0  0  0  0  0  0  0  0  0  0  0  0
   -0.2699   -1.5258    2.0539 H   0  0  0  0  0  0  0  0  0  0  0  0
   -0.6589   -2.4764    3.4027 H   0  0  0  0  0  0  0  0  0  0  0  0
   -1.7664   -1.2184    2.7873 H   0  0  0  0  0  0  0  0  0  0  0  0
   -1.7390   -2.9834    1.5632 C   0  0  0  0  0  0  0  0  0  0  0  0
   -2.6509   -2.6338    1.3828 H   0  0  0  0  0  0  0  0  0  0  0  0
   -1.7672   -3.9714    2.0227 H   0  0  0  0  0  0  0  0  0  0  0  0
   -1.0072   -3.0433    0.2437 C   0  0  0  0  0  0  0  0  0  0  0  0
   -1.5078   -2.5169   -0.4473 H   0  0  0  0  0  0  0  0  0  0  0  0
   -0.0885   -2.6570    0.3472 H   0  0  0  0  0  0  0  0  0  0  0  0
   -0.9311   -3.9946   -0.0600 H   0  0  0  0  0  0  0  0  0  0  0  0
  1  5  1  0
  5  6  2  0
  5  7  1  0
  1  2  1  0
  1  3  1  0
  1  4  1  0
  8 12  1  0
 12 15  1  0
  8  9  1  0
  8 10  1  0
  8 11  1  0
 12 13  1  0
 12 14  1  0
 15 16  1  0
 15 17  1  0
 15 18  1  0
M  CHG  1   7  -1
V    7 [O&-]
M  END
>  <PDB_ID>  (2054) 
pdb1d00

>  <RESIDUE_NAME>  (2054) 
GLU   VAL

>  <FRAG_NAME>  (2054) 
ACET   PRPA

>  <FRAG_ATOM_NUM>  (2054) 
fragi: 7 fragj: 11

>  <atom.prop.CHAIN_ID>  (2054) 
A A A A A A A Z Z Z Z Z Z Z Z Z Z Z

>  <atom.prop.IS_HEAVY_ATOM>  (2054) 
1 0 0 0 1 1 1 1 0 0 0 1 0 0 1 0 0 0

>  <DIFUSE_FUNC_ATOM>  (2054) 
n/a

>  <FINAL_SINGLE_POINT_ENERGY>  (2054) 
0

>  <NONCOV_INTER_ENERGY_QM>  (2054) 
0

>  <FF_Energy>  (2054) 
21.46

>  <QM_Energy>  (2054) 
2.37

>  <source>  (2054) 
ACET_PRPA_28

>  <Index>  (2054) 
17216

$$$$
ACEH-pdb1czy-C-GLH-479:PRPA-pdb1czy-C-VAL-475
     RDKit          3D

 18 16  0  0  0  0  0  0  0  0999 V2000
   -0.1722    1.4827   -0.0141 C   0  0  0  0  0  0  0  0  0  0  0  0
   -0.6926    1.7402    0.8030 H   0  0  0  0  0  0  0  0  0  0  0  0
   -0.7041    1.7221   -0.8295 H   0  0  0  0  0  0  0  0  0  0  0  0
    0.7373    2.0833   -0.0266 H   0  0  0  0  0  0  0  0  0  0  0  0
    0.0000    0.0000    0.0000 C   0  0  0  0  0  0  0  0  0  0  0  0
   -1.0894   -0.6076   -0.0000 O   0  0  0  0  0  0  0  0  0  0  0  0
    1.0894   -0.5589   -0.0000 O   0  0  0  0  0  0  0  0  0  0  0  0
   -0.2634    0.0321   -4.2448 C   0  0  0  0  0  0  0  0  0  0  0  0
   -0.9254    0.4955   -3.6402 H   0  0  0  0  0  0  0  0  0  0  0  0
   -0.7497   -0.1473   -5.2036 H   0  0  0  0  0  0  0  0  0  0  0  0
    0.6070    0.6799   -4.3493 H   0  0  0  0  0  0  0  0  0  0  0  0
    0.1798   -1.2905   -3.5895 C   0  0  0  0  0  0  0  0  0  0  0  0
    0.7555   -1.7722   -4.2399 H   0  0  0  0  0  0  0  0  0  0  0  0
   -0.7003   -1.8678   -3.3062 H   0  0  0  0  0  0  0  0  0  0  0  0
    1.0369   -1.0078   -2.3605 C   0  0  0  0  0  0  0  0  0  0  0  0
    0.6112   -1.4197   -1.5553 H   0  0  0  0  0  0  0  0  0  0  0  0
    1.9471   -1.3988   -2.4931 H   0  0  0  0  0  0  0  0  0  0  0  0
    1.1136   -0.0203   -2.2291 H   0  0  0  0  0  0  0  0  0  0  0  0
  1  5  1  0
  5  6  2  0
  5  7  1  0
  1  2  1  0
  1  3  1  0
  1  4  1  0
  8 12  1  0
 12 15  1  0
  8  9  1  0
  8 10  1  0
  8 11  1  0
 12 13  1  0
 12 14  1  0
 15 16  1  0
 15 17  1  0
 15 18  1  0
M  CHG  1   7  -1
V    7 [O&-]
M  END
>  <PDB_ID>  (2055) 
pdb1czy

>  <RESIDUE_NAME>  (2055) 
GLU   VAL

>  <FRAG_NAME>  (2055) 
ACET   PRPA

>  <FRAG_ATOM_NUM>  (2055) 
fragi: 7 fragj: 11

>  <atom.prop.CHAIN_ID>  (2055) 
A A A A A A A Z Z Z Z Z Z Z Z Z Z Z

>  <atom.prop.IS_HEAVY_ATOM>  (2055) 
1 0 0 0 1 1 1 1 0 0 0 1 0 0 1 0 0 0

>  <DIFUSE_FUNC_ATOM>  (2055) 
n/a

>  <FINAL_SINGLE_POINT_ENERGY>  (2055) 
0

>  <NONCOV_INTER_ENERGY_QM>  (2055) 
0

>  <FF_Energy>  (2055) 
48.65

>  <QM_Energy>  (2055) 
10.04

>  <source>  (2055) 
ACET_PRPA_28

>  <Index>  (2055) 
17238

$$$$
ACEH-pdb1czy-C-GLH-479:PRPA-pdb1czy-C-VAL-475
     RDKit          3D

 18 16  0  0  0  0  0  0  0  0999 V2000
   -0.1722    1.4827   -0.0141 C   0  0  0  0  0  0  0  0  0  0  0  0
   -0.6926    1.7402    0.8030 H   0  0  0  0  0  0  0  0  0  0  0  0
   -0.7041    1.7221   -0.8295 H   0  0  0  0  0  0  0  0  0  0  0  0
    0.7373    2.0833   -0.0266 H   0  0  0  0  0  0  0  0  0  0  0  0
    0.0000    0.0000    0.0000 C   0  0  0  0  0  0  0  0  0  0  0  0
   -1.0894   -0.6076   -0.0000 O   0  0  0  0  0  0  0  0  0  0  0  0
    1.0894   -0.5589   -0.0000 O   0  0  0  0  0  0  0  0  0  0  0  0
    1.0369   -1.0078   -2.3605 C   0  0  0  0  0  0  0  0  0  0  0  0
    0.6112   -1.4197   -1.5553 H   0  0  0  0  0  0  0  0  0  0  0  0
    1.9471   -1.3988   -2.4931 H   0  0  0  0  0  0  0  0  0  0  0  0
    1.1136   -0.0203   -2.2291 H   0  0  0  0  0  0  0  0  0  0  0  0
    0.1798   -1.2905   -3.5895 C   0  0  0  0  0  0  0  0  0  0  0  0
    0.7555   -1.7722   -4.2399 H   0  0  0  0  0  0  0  0  0  0  0  0
   -0.1336   -0.3550   -4.0530 H   0  0  0  0  0  0  0  0  0  0  0  0
   -1.0461   -2.0947   -3.1949 C   0  0  0  0  0  0  0  0  0  0  0  0
   -1.1967   -2.0073   -2.2101 H   0  0  0  0  0  0  0  0  0  0  0  0
   -1.8440   -1.7474   -3.6879 H   0  0  0  0  0  0  0  0  0  0  0  0
   -0.9014   -3.0565   -3.4276 H   0  0  0  0  0  0  0  0  0  0  0  0
  1  5  1  0
  5  6  2  0
  5  7  1  0
  1  2  1  0
  1  3  1  0
  1  4  1  0
  8 12  1  0
 12 15  1  0
  8  9  1  0
  8 10  1  0
  8 11  1  0
 12 13  1  0
 12 14  1  0
 15 16  1  0
 15 17  1  0
 15 18  1  0
M  CHG  1   7  -1
V    7 [O&-]
M  END
>  <PDB_ID>  (2056) 
pdb1czy

>  <RESIDUE_NAME>  (2056) 
GLU   VAL

>  <FRAG_NAME>  (2056) 
ACET   PRPA

>  <FRAG_ATOM_NUM>  (2056) 
fragi: 7 fragj: 11

>  <atom.prop.CHAIN_ID>  (2056) 
A A A A A A A Z Z Z Z Z Z Z Z Z Z Z

>  <atom.prop.IS_HEAVY_ATOM>  (2056) 
1 0 0 0 1 1 1 1 0 0 0 1 0 0 1 0 0 0

>  <DIFUSE_FUNC_ATOM>  (2056) 
n/a

>  <FINAL_SINGLE_POINT_ENERGY>  (2056) 
0

>  <NONCOV_INTER_ENERGY_QM>  (2056) 
0

>  <FF_Energy>  (2056) 
48.64

>  <QM_Energy>  (2056) 
9.47

>  <source>  (2056) 
ACET_PRPA_28

>  <Index>  (2056) 
17329

$$$$
ACEH-pdb1d00-D-GLH-479:PRPA-pdb1d00-D-VAL-475
     RDKit          3D

 18 16  0  0  0  0  0  0  0  0999 V2000
    0.1704    1.4859    0.0152 C   0  0  0  0  0  0  0  0  0  0  0  0
    0.6902    1.7432   -0.8024 H   0  0  0  0  0  0  0  0  0  0  0  0
    0.7017    1.7253    0.8298 H   0  0  0  0  0  0  0  0  0  0  0  0
   -0.7400    2.0853    0.0271 H   0  0  0  0  0  0  0  0  0  0  0  0
    0.0000    0.0000    0.0000 C   0  0  0  0  0  0  0  0  0  0  0  0
   -1.0895   -0.5581   -0.0000 O   0  0  0  0  0  0  0  0  0  0  0  0
    1.0895   -0.6058    0.0000 O   0  0  0  0  0  0  0  0  0  0  0  0
   -0.2218   -1.6515    2.7558 C   0  0  0  0  0  0  0  0  0  0  0  0
    0.4695   -1.2674    2.1337 H   0  0  0  0  0  0  0  0  0  0  0  0
    0.2954   -2.0673    3.6205 H   0  0  0  0  0  0  0  0  0  0  0  0
   -0.8948   -0.8448    3.0461 H   0  0  0  0  0  0  0  0  0  0  0  0
   -1.0201   -2.7575    2.0368 C   0  0  0  0  0  0  0  0  0  0  0  0
   -1.9438   -2.4162    1.8924 H   0  0  0  0  0  0  0  0  0  0  0  0
   -1.0117   -3.6605    2.6472 H   0  0  0  0  0  0  0  0  0  0  0  0
   -0.4272   -3.0392    0.6693 C   0  0  0  0  0  0  0  0  0  0  0  0
    0.4370   -3.5323    0.7719 H   0  0  0  0  0  0  0  0  0  0  0  0
   -1.0648   -3.5950    0.1340 H   0  0  0  0  0  0  0  0  0  0  0  0
   -0.2598   -2.1758    0.1915 H   0  0  0  0  0  0  0  0  0  0  0  0
  1  5  1  0
  5  6  2  0
  5  7  1  0
  1  2  1  0
  1  3  1  0
  1  4  1  0
  8 12  1  0
 12 15  1  0
  8  9  1  0
  8 10  1  0
  8 11  1  0
 12 13  1  0
 12 14  1  0
 15 16  1  0
 15 17  1  0
 15 18  1  0
M  CHG  1   7  -1
V    7 [O&-]
M  END
>  <PDB_ID>  (2057) 
pdb1d00

>  <RESIDUE_NAME>  (2057) 
GLU   VAL

>  <FRAG_NAME>  (2057) 
ACET   PRPA

>  <FRAG_ATOM_NUM>  (2057) 
fragi: 7 fragj: 11

>  <atom.prop.CHAIN_ID>  (2057) 
A A A A A A A Z Z Z Z Z Z Z Z Z Z Z

>  <atom.prop.IS_HEAVY_ATOM>  (2057) 
1 0 0 0 1 1 1 1 0 0 0 1 0 0 1 0 0 0

>  <DIFUSE_FUNC_ATOM>  (2057) 
n/a

>  <FINAL_SINGLE_POINT_ENERGY>  (2057) 
0

>  <NONCOV_INTER_ENERGY_QM>  (2057) 
0

>  <FF_Energy>  (2057) 
40.19

>  <QM_Energy>  (2057) 
3.24

>  <source>  (2057) 
ACET_PRPA_28

>  <Index>  (2057) 
17510

$$$$
ACEH-pdb1d01-B-GLH-479:PRPA-pdb1d01-B-VAL-475
     RDKit          3D

 18 16  0  0  0  0  0  0  0  0999 V2000
   -0.1749    1.4841   -0.0131 C   0  0  0  0  0  0  0  0  0  0  0  0
   -0.6939    1.7380    0.8045 H   0  0  0  0  0  0  0  0  0  0  0  0
   -0.7064    1.7215   -0.8285 H   0  0  0  0  0  0  0  0  0  0  0  0
    0.7357    2.0830   -0.0248 H   0  0  0  0  0  0  0  0  0  0  0  0
    0.0000    0.0000    0.0000 C   0  0  0  0  0  0  0  0  0  0  0  0
   -1.0892   -0.6092    0.0000 O   0  0  0  0  0  0  0  0  0  0  0  0
    1.0892   -0.5588   -0.0000 O   0  0  0  0  0  0  0  0  0  0  0  0
    0.8772   -0.9620   -3.4212 C   0  0  0  0  0  0  0  0  0  0  0  0
    0.1461   -0.6394   -2.8102 H   0  0  0  0  0  0  0  0  0  0  0  0
    0.4154   -1.3862   -4.3128 H   0  0  0  0  0  0  0  0  0  0  0  0
    1.5009   -0.1052   -3.6764 H   0  0  0  0  0  0  0  0  0  0  0  0
    1.7328   -2.0168   -2.6868 C   0  0  0  0  0  0  0  0  0  0  0  0
    2.4492   -1.5332   -2.1967 H   0  0  0  0  0  0  0  0  0  0  0  0
    2.1356   -2.7300   -3.4059 H   0  0  0  0  0  0  0  0  0  0  0  0
    0.8939   -2.7444   -1.6547 C   0  0  0  0  0  0  0  0  0  0  0  0
   -0.0577   -2.7829   -1.9608 H   0  0  0  0  0  0  0  0  0  0  0  0
    1.2401   -3.6760   -1.5348 H   0  0  0  0  0  0  0  0  0  0  0  0
    0.9401   -2.2590   -0.7800 H   0  0  0  0  0  0  0  0  0  0  0  0
  1  5  1  0
  5  6  2  0
  5  7  1  0
  1  2  1  0
  1  3  1  0
  1  4  1  0
  8 12  1  0
 12 15  1  0
  8  9  1  0
  8 10  1  0
  8 11  1  0
 12 13  1  0
 12 14  1  0
 15 16  1  0
 15 17  1  0
 15 18  1  0
M  CHG  1   7  -1
V    7 [O&-]
M  END
>  <PDB_ID>  (2058) 
pdb1d01

>  <RESIDUE_NAME>  (2058) 
GLU   VAL

>  <FRAG_NAME>  (2058) 
ACET   PRPA

>  <FRAG_ATOM_NUM>  (2058) 
fragi: 7 fragj: 11

>  <atom.prop.CHAIN_ID>  (2058) 
A A A A A A A Z Z Z Z Z Z Z Z Z Z Z

>  <atom.prop.IS_HEAVY_ATOM>  (2058) 
1 0 0 0 1 1 1 1 0 0 0 1 0 0 1 0 0 0

>  <DIFUSE_FUNC_ATOM>  (2058) 
n/a

>  <FINAL_SINGLE_POINT_ENERGY>  (2058) 
0

>  <NONCOV_INTER_ENERGY_QM>  (2058) 
0

>  <FF_Energy>  (2058) 
18.75

>  <QM_Energy>  (2058) 
-2.0

>  <source>  (2058) 
ACET_PRPA_28

>  <Index>  (2058) 
17531

$$$$
ACEH-pdb1d00-D-GLH-479:PRPA-pdb1d00-D-VAL-475
     RDKit          3D

 18 16  0  0  0  0  0  0  0  0999 V2000
    0.1704    1.4859    0.0152 C   0  0  0  0  0  0  0  0  0  0  0  0
    0.6902    1.7432   -0.8024 H   0  0  0  0  0  0  0  0  0  0  0  0
    0.7017    1.7253    0.8298 H   0  0  0  0  0  0  0  0  0  0  0  0
   -0.7400    2.0853    0.0271 H   0  0  0  0  0  0  0  0  0  0  0  0
    0.0000    0.0000    0.0000 C   0  0  0  0  0  0  0  0  0  0  0  0
   -1.0895   -0.5581   -0.0000 O   0  0  0  0  0  0  0  0  0  0  0  0
    1.0895   -0.6058    0.0000 O   0  0  0  0  0  0  0  0  0  0  0  0
   -0.4272   -3.0392    0.6693 C   0  0  0  0  0  0  0  0  0  0  0  0
    0.4370   -3.5323    0.7719 H   0  0  0  0  0  0  0  0  0  0  0  0
   -1.0648   -3.5950    0.1340 H   0  0  0  0  0  0  0  0  0  0  0  0
   -0.2598   -2.1758    0.1915 H   0  0  0  0  0  0  0  0  0  0  0  0
   -1.0201   -2.7575    2.0368 C   0  0  0  0  0  0  0  0  0  0  0  0
   -1.9438   -2.4162    1.8924 H   0  0  0  0  0  0  0  0  0  0  0  0
   -0.4558   -1.9756    2.5451 H   0  0  0  0  0  0  0  0  0  0  0  0
   -1.0085   -3.9962    2.8742 C   0  0  0  0  0  0  0  0  0  0  0  0
   -0.1804   -4.5325    2.6827 H   0  0  0  0  0  0  0  0  0  0  0  0
   -1.0211   -3.7520    3.8485 H   0  0  0  0  0  0  0  0  0  0  0  0
   -1.8149   -4.5574    2.6686 H   0  0  0  0  0  0  0  0  0  0  0  0
  1  5  1  0
  5  6  2  0
  5  7  1  0
  1  2  1  0
  1  3  1  0
  1  4  1  0
  8 12  1  0
 12 15  1  0
  8  9  1  0
  8 10  1  0
  8 11  1  0
 12 13  1  0
 12 14  1  0
 15 16  1  0
 15 17  1  0
 15 18  1  0
M  CHG  1   7  -1
V    7 [O&-]
M  END
>  <PDB_ID>  (2059) 
pdb1d00

>  <RESIDUE_NAME>  (2059) 
GLU   VAL

>  <FRAG_NAME>  (2059) 
ACET   PRPA

>  <FRAG_ATOM_NUM>  (2059) 
fragi: 7 fragj: 11

>  <atom.prop.CHAIN_ID>  (2059) 
A A A A A A A Z Z Z Z Z Z Z Z Z Z Z

>  <atom.prop.IS_HEAVY_ATOM>  (2059) 
1 0 0 0 1 1 1 1 0 0 0 1 0 0 1 0 0 0

>  <DIFUSE_FUNC_ATOM>  (2059) 
n/a

>  <FINAL_SINGLE_POINT_ENERGY>  (2059) 
0

>  <NONCOV_INTER_ENERGY_QM>  (2059) 
0

>  <FF_Energy>  (2059) 
36.38

>  <QM_Energy>  (2059) 
4.96

>  <source>  (2059) 
ACET_PRPA_28

>  <Index>  (2059) 
17593

$$$$
ACEH-pdb1d01-B-GLH-479:PRPA-pdb1d01-B-VAL-475
     RDKit          3D

 18 16  0  0  0  0  0  0  0  0999 V2000
   -0.1749    1.4841   -0.0131 C   0  0  0  0  0  0  0  0  0  0  0  0
   -0.6939    1.7380    0.8045 H   0  0  0  0  0  0  0  0  0  0  0  0
   -0.7064    1.7215   -0.8285 H   0  0  0  0  0  0  0  0  0  0  0  0
    0.7357    2.0830   -0.0248 H   0  0  0  0  0  0  0  0  0  0  0  0
    0.0000    0.0000    0.0000 C   0  0  0  0  0  0  0  0  0  0  0  0
   -1.0892   -0.6092    0.0000 O   0  0  0  0  0  0  0  0  0  0  0  0
    1.0892   -0.5588   -0.0000 O   0  0  0  0  0  0  0  0  0  0  0  0
    0.8939   -2.7444   -1.6547 C   0  0  0  0  0  0  0  0  0  0  0  0
   -0.0577   -2.7829   -1.9608 H   0  0  0  0  0  0  0  0  0  0  0  0
    1.2401   -3.6760   -1.5348 H   0  0  0  0  0  0  0  0  0  0  0  0
    0.9401   -2.2590   -0.7800 H   0  0  0  0  0  0  0  0  0  0  0  0
    1.7328   -2.0168   -2.6868 C   0  0  0  0  0  0  0  0  0  0  0  0
    2.4492   -1.5332   -2.1967 H   0  0  0  0  0  0  0  0  0  0  0  0
    1.1288   -1.2722   -3.2052 H   0  0  0  0  0  0  0  0  0  0  0  0
    2.2966   -3.0148   -3.6932 C   0  0  0  0  0  0  0  0  0  0  0  0
    2.2574   -2.6155   -4.6089 H   0  0  0  0  0  0  0  0  0  0  0  0
    3.2448   -3.2211   -3.4548 H   0  0  0  0  0  0  0  0  0  0  0  0
    1.7522   -3.8524   -3.6664 H   0  0  0  0  0  0  0  0  0  0  0  0
  1  5  1  0
  5  6  2  0
  5  7  1  0
  1  2  1  0
  1  3  1  0
  1  4  1  0
  8 12  1  0
 12 15  1  0
  8  9  1  0
  8 10  1  0
  8 11  1  0
 12 13  1  0
 12 14  1  0
 15 16  1  0
 15 17  1  0
 15 18  1  0
M  CHG  1   7  -1
V    7 [O&-]
M  END
>  <PDB_ID>  (2060) 
pdb1d01

>  <RESIDUE_NAME>  (2060) 
GLU   VAL

>  <FRAG_NAME>  (2060) 
ACET   PRPA

>  <FRAG_ATOM_NUM>  (2060) 
fragi: 7 fragj: 11

>  <atom.prop.CHAIN_ID>  (2060) 
A A A A A A A Z Z Z Z Z Z Z Z Z Z Z

>  <atom.prop.IS_HEAVY_ATOM>  (2060) 
1 0 0 0 1 1 1 1 0 0 0 1 0 0 1 0 0 0

>  <DIFUSE_FUNC_ATOM>  (2060) 
n/a

>  <FINAL_SINGLE_POINT_ENERGY>  (2060) 
0

>  <NONCOV_INTER_ENERGY_QM>  (2060) 
0

>  <FF_Energy>  (2060) 
17.96

>  <QM_Energy>  (2060) 
0.04

>  <source>  (2060) 
ACET_PRPA_28

>  <Index>  (2060) 
17629

$$$$
ACEH-pdb1d01-C-GLH-479:PRPA-pdb1d01-C-VAL-475
     RDKit          3D

 18 16  0  0  0  0  0  0  0  0999 V2000
   -0.1709    1.4835   -0.0125 C   0  0  0  0  0  0  0  0  0  0  0  0
   -0.6913    1.7402    0.8052 H   0  0  0  0  0  0  0  0  0  0  0  0
   -0.7029    1.7237   -0.8268 H   0  0  0  0  0  0  0  0  0  0  0  0
    0.7394    2.0829   -0.0235 H   0  0  0  0  0  0  0  0  0  0  0  0
    0.0000    0.0000    0.0000 C   0  0  0  0  0  0  0  0  0  0  0  0
   -1.0897   -0.6063   -0.0000 O   0  0  0  0  0  0  0  0  0  0  0  0
    1.0897   -0.5595    0.0000 O   0  0  0  0  0  0  0  0  0  0  0  0
    0.9522   -0.9653   -3.4323 C   0  0  0  0  0  0  0  0  0  0  0  0
    0.2282   -0.6426   -2.8156 H   0  0  0  0  0  0  0  0  0  0  0  0
    0.4833   -1.3708   -4.3288 H   0  0  0  0  0  0  0  0  0  0  0  0
    1.5801   -0.1115   -3.6868 H   0  0  0  0  0  0  0  0  0  0  0  0
    1.8085   -2.0326   -2.7201 C   0  0  0  0  0  0  0  0  0  0  0  0
    2.4845   -2.3582   -3.3709 H   0  0  0  0  0  0  0  0  0  0  0  0
    1.1691   -2.8347   -2.3514 H   0  0  0  0  0  0  0  0  0  0  0  0
    2.5647   -1.4077   -1.5626 C   0  0  0  0  0  0  0  0  0  0  0  0
    2.3483   -0.4325   -1.5076 H   0  0  0  0  0  0  0  0  0  0  0  0
    2.2999   -1.8549   -0.7073 H   0  0  0  0  0  0  0  0  0  0  0  0
    3.5491   -1.5201   -1.7038 H   0  0  0  0  0  0  0  0  0  0  0  0
  1  5  1  0
  5  6  2  0
  5  7  1  0
  1  2  1  0
  1  3  1  0
  1  4  1  0
  8 12  1  0
 12 15  1  0
  8  9  1  0
  8 10  1  0
  8 11  1  0
 12 13  1  0
 12 14  1  0
 15 16  1  0
 15 17  1  0
 15 18  1  0
M  CHG  1   7  -1
V    7 [O&-]
M  END
>  <PDB_ID>  (2061) 
pdb1d01

>  <RESIDUE_NAME>  (2061) 
GLU   VAL

>  <FRAG_NAME>  (2061) 
ACET   PRPA

>  <FRAG_ATOM_NUM>  (2061) 
fragi: 7 fragj: 11

>  <atom.prop.CHAIN_ID>  (2061) 
A A A A A A A Z Z Z Z Z Z Z Z Z Z Z

>  <atom.prop.IS_HEAVY_ATOM>  (2061) 
1 0 0 0 1 1 1 1 0 0 0 1 0 0 1 0 0 0

>  <DIFUSE_FUNC_ATOM>  (2061) 
n/a

>  <FINAL_SINGLE_POINT_ENERGY>  (2061) 
0

>  <NONCOV_INTER_ENERGY_QM>  (2061) 
0

>  <FF_Energy>  (2061) 
49.36

>  <QM_Energy>  (2061) 
11.67

>  <source>  (2061) 
ACET_PRPA_28

>  <Index>  (2061) 
17819

$$$$
ACEH-pdb1d01-C-GLH-479:PRPA-pdb1d01-C-VAL-475
     RDKit          3D

 18 16  0  0  0  0  0  0  0  0999 V2000
   -0.1709    1.4835   -0.0125 C   0  0  0  0  0  0  0  0  0  0  0  0
   -0.6913    1.7402    0.8052 H   0  0  0  0  0  0  0  0  0  0  0  0
   -0.7029    1.7237   -0.8268 H   0  0  0  0  0  0  0  0  0  0  0  0
    0.7394    2.0829   -0.0235 H   0  0  0  0  0  0  0  0  0  0  0  0
    0.0000    0.0000    0.0000 C   0  0  0  0  0  0  0  0  0  0  0  0
   -1.0897   -0.6063   -0.0000 O   0  0  0  0  0  0  0  0  0  0  0  0
    1.0897   -0.5595    0.0000 O   0  0  0  0  0  0  0  0  0  0  0  0
    2.5647   -1.4077   -1.5626 C   0  0  0  0  0  0  0  0  0  0  0  0
    2.3483   -0.4325   -1.5076 H   0  0  0  0  0  0  0  0  0  0  0  0
    2.2999   -1.8549   -0.7073 H   0  0  0  0  0  0  0  0  0  0  0  0
    3.5491   -1.5201   -1.7038 H   0  0  0  0  0  0  0  0  0  0  0  0
    1.8085   -2.0326   -2.7201 C   0  0  0  0  0  0  0  0  0  0  0  0
    2.4845   -2.3582   -3.3709 H   0  0  0  0  0  0  0  0  0  0  0  0
    1.2035   -1.2785   -3.2234 H   0  0  0  0  0  0  0  0  0  0  0  0
    0.9125   -3.1566   -2.2035 C   0  0  0  0  0  0  0  0  0  0  0  0
   -0.0398   -2.9362   -2.4087 H   0  0  0  0  0  0  0  0  0  0  0  0
    1.1671   -4.0116   -2.6539 H   0  0  0  0  0  0  0  0  0  0  0  0
    1.0344   -3.2446   -1.2157 H   0  0  0  0  0  0  0  0  0  0  0  0
  1  5  1  0
  5  6  2  0
  5  7  1  0
  1  2  1  0
  1  3  1  0
  1  4  1  0
  8 12  1  0
 12 15  1  0
  8  9  1  0
  8 10  1  0
  8 11  1  0
 12 13  1  0
 12 14  1  0
 15 16  1  0
 15 17  1  0
 15 18  1  0
M  CHG  1   7  -1
V    7 [O&-]
M  END
>  <PDB_ID>  (2062) 
pdb1d01

>  <RESIDUE_NAME>  (2062) 
GLU   VAL

>  <FRAG_NAME>  (2062) 
ACET   PRPA

>  <FRAG_ATOM_NUM>  (2062) 
fragi: 7 fragj: 11

>  <atom.prop.CHAIN_ID>  (2062) 
A A A A A A A Z Z Z Z Z Z Z Z Z Z Z

>  <atom.prop.IS_HEAVY_ATOM>  (2062) 
1 0 0 0 1 1 1 1 0 0 0 1 0 0 1 0 0 0

>  <DIFUSE_FUNC_ATOM>  (2062) 
n/a

>  <FINAL_SINGLE_POINT_ENERGY>  (2062) 
0

>  <NONCOV_INTER_ENERGY_QM>  (2062) 
0

>  <FF_Energy>  (2062) 
49.41

>  <QM_Energy>  (2062) 
12.14

>  <source>  (2062) 
ACET_PRPA_28

>  <Index>  (2062) 
17924

$$$$
ACEH-pdb5e57-B-GLH-50:PRPA-pdb5e57-B-ILE-47
     RDKit          3D

 18 16  0  0  0  0  0  0  0  0999 V2000
    0.1917    1.4942    0.0156 C   0  0  0  0  0  0  0  0  0  0  0  0
    0.7051    1.7427   -0.8021 H   0  0  0  0  0  0  0  0  0  0  0  0
    0.7164    1.7235    0.8309 H   0  0  0  0  0  0  0  0  0  0  0  0
   -0.7201    2.0913    0.0280 H   0  0  0  0  0  0  0  0  0  0  0  0
    0.0000    0.0000    0.0000 C   0  0  0  0  0  0  0  0  0  0  0  0
   -1.0892   -0.5474   -0.0000 O   0  0  0  0  0  0  0  0  0  0  0  0
    1.0892   -0.6112   -0.0000 O   0  0  0  0  0  0  0  0  0  0  0  0
    3.2919    1.0008   -0.5510 C   0  0  0  0  0  0  0  0  0  0  0  0
    2.3424    0.6735   -0.5300 H   0  0  0  0  0  0  0  0  0  0  0  0
    3.5385    1.1642   -1.6001 H   0  0  0  0  0  0  0  0  0  0  0  0
    3.3067    1.9325    0.0144 H   0  0  0  0  0  0  0  0  0  0  0  0
    4.2219   -0.0274    0.1399 C   0  0  0  0  0  0  0  0  0  0  0  0
    5.1522    0.3175    0.0843 H   0  0  0  0  0  0  0  0  0  0  0  0
    3.9268   -0.1768    1.1784 H   0  0  0  0  0  0  0  0  0  0  0  0
    4.1721   -1.3798   -0.5871 C   0  0  0  0  0  0  0  0  0  0  0  0
    3.2610   -1.7697   -0.4583 H   0  0  0  0  0  0  0  0  0  0  0  0
    4.3093   -1.2103   -1.5631 H   0  0  0  0  0  0  0  0  0  0  0  0
    4.9201   -2.0945   -0.2437 H   0  0  0  0  0  0  0  0  0  0  0  0
  1  5  1  0
  5  6  2  0
  5  7  1  0
  1  2  1  0
  1  3  1  0
  1  4  1  0
  8 12  1  0
 12 15  1  0
  8  9  1  0
  8 10  1  0
  8 11  1  0
 12 13  1  0
 12 14  1  0
 15 16  1  0
 15 17  1  0
 15 18  1  0
M  CHG  1   7  -1
V    7 [O&-]
M  END
>  <PDB_ID>  (2063) 
pdb5e57

>  <RESIDUE_NAME>  (2063) 
GLU   ILE

>  <FRAG_NAME>  (2063) 
ACET   PRPA

>  <FRAG_ATOM_NUM>  (2063) 
fragi: 7 fragj: 11

>  <atom.prop.CHAIN_ID>  (2063) 
A A A A A A A Z Z Z Z Z Z Z Z Z Z Z

>  <atom.prop.IS_HEAVY_ATOM>  (2063) 
1 0 0 0 1 1 1 1 0 0 0 1 0 0 1 0 0 0

>  <DIFUSE_FUNC_ATOM>  (2063) 
n/a

>  <FINAL_SINGLE_POINT_ENERGY>  (2063) 
0

>  <NONCOV_INTER_ENERGY_QM>  (2063) 
0

>  <FF_Energy>  (2063) 
22.81

>  <QM_Energy>  (2063) 
0.46

>  <source>  (2063) 
ACET_PRPA_28

>  <Index>  (2063) 
18687

$$$$
ACEH-pdb4cy8-A-GLH-89:PRPA-pdb4cy8-A-LEU-400
     RDKit          3D

 18 16  0  0  0  0  0  0  0  0999 V2000
    0.1614    1.4769    0.0153 C   0  0  0  0  0  0  0  0  0  0  0  0
    0.6844    1.7387   -0.8018 H   0  0  0  0  0  0  0  0  0  0  0  0
    0.6966    1.7210    0.8310 H   0  0  0  0  0  0  0  0  0  0  0  0
   -0.7479    2.0778    0.0278 H   0  0  0  0  0  0  0  0  0  0  0  0
    0.0000    0.0000    0.0000 C   0  0  0  0  0  0  0  0  0  0  0  0
   -1.0900   -0.5658   -0.0000 O   0  0  0  0  0  0  0  0  0  0  0  0
    1.0900   -0.6055    0.0000 O   0  0  0  0  0  0  0  0  0  0  0  0
   -0.0140   -1.3341    4.0770 C   0  0  0  0  0  0  0  0  0  0  0  0
   -0.6374   -2.0454    4.4049 H   0  0  0  0  0  0  0  0  0  0  0  0
   -0.3484   -0.4380    4.3684 H   0  0  0  0  0  0  0  0  0  0  0  0
    0.9667   -1.5010    4.5224 H   0  0  0  0  0  0  0  0  0  0  0  0
   -0.0958   -1.3546    2.5363 C   0  0  0  0  0  0  0  0  0  0  0  0
    0.1690   -0.4377    2.1997 H   0  0  0  0  0  0  0  0  0  0  0  0
   -1.1290   -1.4963    2.2193 H   0  0  0  0  0  0  0  0  0  0  0  0
    0.7716   -2.3976    1.9263 C   0  0  0  0  0  0  0  0  0  0  0  0
    0.5038   -3.3114    2.2516 H   0  0  0  0  0  0  0  0  0  0  0  0
    0.6914   -2.3799    0.9232 H   0  0  0  0  0  0  0  0  0  0  0  0
    1.7348   -2.2411    2.1716 H   0  0  0  0  0  0  0  0  0  0  0  0
  1  5  1  0
  5  6  2  0
  5  7  1  0
  1  2  1  0
  1  3  1  0
  1  4  1  0
  8 12  1  0
 12 15  1  0
  8  9  1  0
  8 10  1  0
  8 11  1  0
 12 13  1  0
 12 14  1  0
 15 16  1  0
 15 17  1  0
 15 18  1  0
M  CHG  1   7  -1
V    7 [O&-]
M  END
>  <PDB_ID>  (2064) 
pdb4cy8

>  <RESIDUE_NAME>  (2064) 
GLU   LEU

>  <FRAG_NAME>  (2064) 
ACET   PRPA

>  <FRAG_ATOM_NUM>  (2064) 
fragi: 7 fragj: 11

>  <atom.prop.CHAIN_ID>  (2064) 
A A A A A A A Z Z Z Z Z Z Z Z Z Z Z

>  <atom.prop.IS_HEAVY_ATOM>  (2064) 
1 0 0 0 1 1 1 1 0 0 0 1 0 0 1 0 0 0

>  <DIFUSE_FUNC_ATOM>  (2064) 
n/a

>  <FINAL_SINGLE_POINT_ENERGY>  (2064) 
0

>  <NONCOV_INTER_ENERGY_QM>  (2064) 
0

>  <FF_Energy>  (2064) 
24.35

>  <QM_Energy>  (2064) 
2.83

>  <source>  (2064) 
ACET_PRPA_28

>  <Index>  (2064) 
19007

$$$$
ACEH-pdb2dzn-D-ASH-376:PRPA-pdb2dzn-D-GLH-348
     RDKit          3D

 18 16  0  0  0  0  0  0  0  0999 V2000
    0.0323    1.5185   -0.0078 C   0  0  0  0  0  0  0  0  0  0  0  0
   -0.5488    1.8491    0.7207 H   0  0  0  0  0  0  0  0  0  0  0  0
   -0.2809    1.8359   -0.8898 H   0  0  0  0  0  0  0  0  0  0  0  0
    1.0423    1.8936    0.1574 H   0  0  0  0  0  0  0  0  0  0  0  0
    0.0000    0.0000    0.0000 C   0  0  0  0  0  0  0  0  0  0  0  0
   -1.0952   -0.5916   -0.0000 O   0  0  0  0  0  0  0  0  0  0  0  0
    1.0952   -0.6055    0.0000 O   0  0  0  0  0  0  0  0  0  0  0  0
    0.0727    1.1333   -3.3530 C   0  0  0  0  0  0  0  0  0  0  0  0
    0.9326    0.8922   -2.8959 H   0  0  0  0  0  0  0  0  0  0  0  0
   -0.1404    2.1850   -3.1615 H   0  0  0  0  0  0  0  0  0  0  0  0
    0.1494    0.9399   -4.4229 H   0  0  0  0  0  0  0  0  0  0  0  0
   -1.0447    0.2653   -2.7782 C   0  0  0  0  0  0  0  0  0  0  0  0
   -1.0989    0.4520   -1.8118 H   0  0  0  0  0  0  0  0  0  0  0  0
   -1.8785    0.5059   -3.2448 H   0  0  0  0  0  0  0  0  0  0  0  0
   -0.8256   -1.2164   -2.9522 C   0  0  0  0  0  0  0  0  0  0  0  0
   -0.7348   -1.4079   -3.9121 H   0  0  0  0  0  0  0  0  0  0  0  0
   -0.0258   -1.4771   -2.4431 H   0  0  0  0  0  0  0  0  0  0  0  0
   -1.6625   -1.8046   -2.5757 H   0  0  0  0  0  0  0  0  0  0  0  0
  1  5  1  0
  5  6  2  0
  5  7  1  0
  1  2  1  0
  1  3  1  0
  1  4  1  0
  8 12  1  0
 12 15  1  0
  8  9  1  0
  8 10  1  0
  8 11  1  0
 12 13  1  0
 12 14  1  0
 15 16  1  0
 15 17  1  0
 15 18  1  0
M  CHG  1   7  -1
V    7 [O&-]
M  END
>  <PDB_ID>  (2065) 
pdb2dzn

>  <RESIDUE_NAME>  (2065) 
ASP   GLU

>  <FRAG_NAME>  (2065) 
ACET   PRPA

>  <FRAG_ATOM_NUM>  (2065) 
fragi: 7 fragj: 11

>  <atom.prop.CHAIN_ID>  (2065) 
A A A A A A A Z Z Z Z Z Z Z Z Z Z Z

>  <atom.prop.IS_HEAVY_ATOM>  (2065) 
1 0 0 0 1 1 1 1 0 0 0 1 0 0 1 0 0 0

>  <DIFUSE_FUNC_ATOM>  (2065) 
n/a

>  <FINAL_SINGLE_POINT_ENERGY>  (2065) 
0

>  <NONCOV_INTER_ENERGY_QM>  (2065) 
0

>  <FF_Energy>  (2065) 
20.91

>  <QM_Energy>  (2065) 
-0.12

>  <source>  (2065) 
ACET_PRPA_28

>  <Index>  (2065) 
19535

$$$$
ACEH-pdb2e2e-A-GLH-81:PRPA-pdb2e2e-A-LEU-46
     RDKit          3D

 18 16  0  0  0  0  0  0  0  0999 V2000
   -0.0169    1.4981   -0.0200 C   0  0  0  0  0  0  0  0  0  0  0  0
    0.0912    1.8072    0.9093 H   0  0  0  0  0  0  0  0  0  0  0  0
   -0.8813    1.7785   -0.4016 H   0  0  0  0  0  0  0  0  0  0  0  0
    0.7917    1.9049   -0.6273 H   0  0  0  0  0  0  0  0  0  0  0  0
    0.0000    0.0000    0.0000 C   0  0  0  0  0  0  0  0  0  0  0  0
   -1.1145   -0.5816    0.0000 O   0  0  0  0  0  0  0  0  0  0  0  0
    1.1145   -0.5790   -0.0000 O   0  0  0  0  0  0  0  0  0  0  0  0
   -2.0140   -3.0698    2.7590 C   0  0  0  0  0  0  0  0  0  0  0  0
   -1.0696   -3.4161    2.6800 H   0  0  0  0  0  0  0  0  0  0  0  0
   -2.6552   -3.8711    3.1262 H   0  0  0  0  0  0  0  0  0  0  0  0
   -2.0043   -2.2198    3.4414 H   0  0  0  0  0  0  0  0  0  0  0  0
   -2.3894   -2.6755    1.3223 C   0  0  0  0  0  0  0  0  0  0  0  0
   -3.3854   -2.7153    1.2440 H   0  0  0  0  0  0  0  0  0  0  0  0
   -2.0787   -1.7389    1.1710 H   0  0  0  0  0  0  0  0  0  0  0  0
   -1.8136   -3.5343    0.1750 C   0  0  0  0  0  0  0  0  0  0  0  0
   -2.0846   -4.4919    0.3221 H   0  0  0  0  0  0  0  0  0  0  0  0
   -2.1577   -3.2148   -0.8086 H   0  0  0  0  0  0  0  0  0  0  0  0
   -0.7247   -3.5745    0.2003 H   0  0  0  0  0  0  0  0  0  0  0  0
  1  5  1  0
  5  6  2  0
  5  7  1  0
  1  2  1  0
  1  3  1  0
  1  4  1  0
  8 12  1  0
 12 15  1  0
  8  9  1  0
  8 10  1  0
  8 11  1  0
 12 13  1  0
 12 14  1  0
 15 16  1  0
 15 17  1  0
 15 18  1  0
M  CHG  1   7  -1
V    7 [O&-]
M  END
>  <PDB_ID>  (2066) 
pdb2e2e

>  <RESIDUE_NAME>  (2066) 
GLU   LEU

>  <FRAG_NAME>  (2066) 
ACET   PRPA

>  <FRAG_ATOM_NUM>  (2066) 
fragi: 7 fragj: 11

>  <atom.prop.CHAIN_ID>  (2066) 
A A A A A A A Z Z Z Z Z Z Z Z Z Z Z

>  <atom.prop.IS_HEAVY_ATOM>  (2066) 
1 0 0 0 1 1 1 1 0 0 0 1 0 0 1 0 0 0

>  <DIFUSE_FUNC_ATOM>  (2066) 
n/a

>  <FINAL_SINGLE_POINT_ENERGY>  (2066) 
0

>  <NONCOV_INTER_ENERGY_QM>  (2066) 
0

>  <FF_Energy>  (2066) 
16.87

>  <QM_Energy>  (2066) 
-1.0

>  <source>  (2066) 
ACET_PRPA_28

>  <Index>  (2066) 
19736

$$$$
ACEH-pdb2e2e-A-GLH-81:PRPA-pdb2e2e-A-LEU-46
     RDKit          3D

 18 16  0  0  0  0  0  0  0  0999 V2000
   -0.0169    1.4981   -0.0200 C   0  0  0  0  0  0  0  0  0  0  0  0
    0.0912    1.8072    0.9093 H   0  0  0  0  0  0  0  0  0  0  0  0
   -0.8813    1.7785   -0.4016 H   0  0  0  0  0  0  0  0  0  0  0  0
    0.7917    1.9049   -0.6273 H   0  0  0  0  0  0  0  0  0  0  0  0
    0.0000    0.0000    0.0000 C   0  0  0  0  0  0  0  0  0  0  0  0
   -1.1145   -0.5816    0.0000 O   0  0  0  0  0  0  0  0  0  0  0  0
    1.1145   -0.5790   -0.0000 O   0  0  0  0  0  0  0  0  0  0  0  0
   -2.3894   -2.6755    1.3223 C   0  0  0  0  0  0  0  0  0  0  0  0
   -3.3854   -2.7153    1.2440 H   0  0  0  0  0  0  0  0  0  0  0  0
   -2.0787   -1.7389    1.1710 H   0  0  0  0  0  0  0  0  0  0  0  0
   -2.1231   -2.9552    2.3416 H   0  0  0  0  0  0  0  0  0  0  0  0
   -1.8136   -3.5343    0.1750 C   0  0  0  0  0  0  0  0  0  0  0  0
   -2.0846   -4.4919    0.3221 H   0  0  0  0  0  0  0  0  0  0  0  0
   -0.7247   -3.5745    0.2003 H   0  0  0  0  0  0  0  0  0  0  0  0
   -2.2998   -3.0831   -1.2144 C   0  0  0  0  0  0  0  0  0  0  0  0
   -2.0189   -2.1386   -1.3665 H   0  0  0  0  0  0  0  0  0  0  0  0
   -1.8947   -3.6740   -1.9084 H   0  0  0  0  0  0  0  0  0  0  0  0
   -3.2945   -3.1508   -1.2487 H   0  0  0  0  0  0  0  0  0  0  0  0
  1  5  1  0
  5  6  2  0
  5  7  1  0
  1  2  1  0
  1  3  1  0
  1  4  1  0
  8 12  1  0
 12 15  1  0
  8  9  1  0
  8 10  1  0
  8 11  1  0
 12 13  1  0
 12 14  1  0
 15 16  1  0
 15 17  1  0
 15 18  1  0
M  CHG  1   7  -1
V    7 [O&-]
M  END
>  <PDB_ID>  (2067) 
pdb2e2e

>  <RESIDUE_NAME>  (2067) 
GLU   LEU

>  <FRAG_NAME>  (2067) 
ACET   PRPA

>  <FRAG_ATOM_NUM>  (2067) 
fragi: 7 fragj: 11

>  <atom.prop.CHAIN_ID>  (2067) 
A A A A A A A Z Z Z Z Z Z Z Z Z Z Z

>  <atom.prop.IS_HEAVY_ATOM>  (2067) 
1 0 0 0 1 1 1 1 0 0 0 1 0 0 1 0 0 0

>  <DIFUSE_FUNC_ATOM>  (2067) 
n/a

>  <FINAL_SINGLE_POINT_ENERGY>  (2067) 
0

>  <NONCOV_INTER_ENERGY_QM>  (2067) 
0

>  <FF_Energy>  (2067) 
17.15

>  <QM_Energy>  (2067) 
-1.45

>  <source>  (2067) 
ACET_PRPA_28

>  <Index>  (2067) 
19776

$$$$
ACEH-pdb2e2e-A-GLH-81:PRPA-pdb2e2e-A-LEU-46
     RDKit          3D

 18 16  0  0  0  0  0  0  0  0999 V2000
   -0.0169    1.4981   -0.0200 C   0  0  0  0  0  0  0  0  0  0  0  0
    0.0912    1.8072    0.9093 H   0  0  0  0  0  0  0  0  0  0  0  0
   -0.8813    1.7785   -0.4016 H   0  0  0  0  0  0  0  0  0  0  0  0
    0.7917    1.9049   -0.6273 H   0  0  0  0  0  0  0  0  0  0  0  0
    0.0000    0.0000    0.0000 C   0  0  0  0  0  0  0  0  0  0  0  0
   -1.1145   -0.5816    0.0000 O   0  0  0  0  0  0  0  0  0  0  0  0
    1.1145   -0.5790   -0.0000 O   0  0  0  0  0  0  0  0  0  0  0  0
   -2.3894   -2.6755    1.3223 C   0  0  0  0  0  0  0  0  0  0  0  0
   -3.3854   -2.7153    1.2440 H   0  0  0  0  0  0  0  0  0  0  0  0
   -2.0787   -1.7389    1.1710 H   0  0  0  0  0  0  0  0  0  0  0  0
   -2.1231   -2.9552    2.3416 H   0  0  0  0  0  0  0  0  0  0  0  0
   -1.8136   -3.5343    0.1750 C   0  0  0  0  0  0  0  0  0  0  0  0
   -2.0846   -4.4919    0.3221 H   0  0  0  0  0  0  0  0  0  0  0  0
   -2.1577   -3.2148   -0.8086 H   0  0  0  0  0  0  0  0  0  0  0  0
   -0.2852   -3.5907    0.2105 C   0  0  0  0  0  0  0  0  0  0  0  0
    0.0113   -3.9890    1.0783 H   0  0  0  0  0  0  0  0  0  0  0  0
    0.0421   -4.1546   -0.5467 H   0  0  0  0  0  0  0  0  0  0  0  0
    0.0825   -2.6652    0.1230 H   0  0  0  0  0  0  0  0  0  0  0  0
  1  5  1  0
  5  6  2  0
  5  7  1  0
  1  2  1  0
  1  3  1  0
  1  4  1  0
  8 12  1  0
 12 15  1  0
  8  9  1  0
  8 10  1  0
  8 11  1  0
 12 13  1  0
 12 14  1  0
 15 16  1  0
 15 17  1  0
 15 18  1  0
M  CHG  1   7  -1
V    7 [O&-]
M  END
>  <PDB_ID>  (2068) 
pdb2e2e

>  <RESIDUE_NAME>  (2068) 
GLU   LEU

>  <FRAG_NAME>  (2068) 
ACET   PRPA

>  <FRAG_ATOM_NUM>  (2068) 
fragi: 7 fragj: 11

>  <atom.prop.CHAIN_ID>  (2068) 
A A A A A A A Z Z Z Z Z Z Z Z Z Z Z

>  <atom.prop.IS_HEAVY_ATOM>  (2068) 
1 0 0 0 1 1 1 1 0 0 0 1 0 0 1 0 0 0

>  <DIFUSE_FUNC_ATOM>  (2068) 
n/a

>  <FINAL_SINGLE_POINT_ENERGY>  (2068) 
0

>  <NONCOV_INTER_ENERGY_QM>  (2068) 
0

>  <FF_Energy>  (2068) 
16.95

>  <QM_Energy>  (2068) 
-1.71

>  <source>  (2068) 
ACET_PRPA_28

>  <Index>  (2068) 
19815

$$$$
ACEH-pdb5efv-C-GLH-387:PRPA-pdb5efv-C-VAL-163
     RDKit          3D

 18 16  0  0  0  0  0  0  0  0999 V2000
    0.1960    1.4891    0.0133 C   0  0  0  0  0  0  0  0  0  0  0  0
    0.7113    1.7335   -0.8040 H   0  0  0  0  0  0  0  0  0  0  0  0
    0.7232    1.7161    0.8285 H   0  0  0  0  0  0  0  0  0  0  0  0
   -0.7160    2.0861    0.0255 H   0  0  0  0  0  0  0  0  0  0  0  0
    0.0000    0.0000    0.0000 C   0  0  0  0  0  0  0  0  0  0  0  0
   -1.0879   -0.5507    0.0000 O   0  0  0  0  0  0  0  0  0  0  0  0
    1.0879   -0.6161   -0.0000 O   0  0  0  0  0  0  0  0  0  0  0  0
    3.3769   -1.1362   -2.9476 C   0  0  0  0  0  0  0  0  0  0  0  0
    2.5323   -1.2943   -3.4521 H   0  0  0  0  0  0  0  0  0  0  0  0
    4.2010   -1.5812   -3.5053 H   0  0  0  0  0  0  0  0  0  0  0  0
    3.5378   -0.0595   -2.8947 H   0  0  0  0  0  0  0  0  0  0  0  0
    3.1088   -1.7984   -1.5511 C   0  0  0  0  0  0  0  0  0  0  0  0
    2.3091   -1.3507   -1.1635 H   0  0  0  0  0  0  0  0  0  0  0  0
    3.9444   -1.6657   -0.8640 H   0  0  0  0  0  0  0  0  0  0  0  0
    2.7719   -3.2850   -1.6911 C   0  0  0  0  0  0  0  0  0  0  0  0
    3.4485   -3.8253   -1.1932 H   0  0  0  0  0  0  0  0  0  0  0  0
    1.8631   -3.4538   -1.3134 H   0  0  0  0  0  0  0  0  0  0  0  0
    2.7863   -3.5366   -2.6577 H   0  0  0  0  0  0  0  0  0  0  0  0
  1  5  1  0
  5  6  2  0
  5  7  1  0
  1  2  1  0
  1  3  1  0
  1  4  1  0
  8 12  1  0
 12 15  1  0
  8  9  1  0
  8 10  1  0
  8 11  1  0
 12 13  1  0
 12 14  1  0
 15 16  1  0
 15 17  1  0
 15 18  1  0
M  CHG  1   7  -1
V    7 [O&-]
M  END
>  <PDB_ID>  (2069) 
pdb5efv

>  <RESIDUE_NAME>  (2069) 
GLU   VAL

>  <FRAG_NAME>  (2069) 
ACET   PRPA

>  <FRAG_ATOM_NUM>  (2069) 
fragi: 7 fragj: 11

>  <atom.prop.CHAIN_ID>  (2069) 
A A A A A A A Z Z Z Z Z Z Z Z Z Z Z

>  <atom.prop.IS_HEAVY_ATOM>  (2069) 
1 0 0 0 1 1 1 1 0 0 0 1 0 0 1 0 0 0

>  <DIFUSE_FUNC_ATOM>  (2069) 
n/a

>  <FINAL_SINGLE_POINT_ENERGY>  (2069) 
0

>  <NONCOV_INTER_ENERGY_QM>  (2069) 
0

>  <FF_Energy>  (2069) 
23.74

>  <QM_Energy>  (2069) 
-1.83

>  <source>  (2069) 
ACET_PRPA_28

>  <Index>  (2069) 
20269

$$$$
ACEH-pdb5efv-C-GLH-387:PRPA-pdb5efv-C-VAL-163
     RDKit          3D

 18 16  0  0  0  0  0  0  0  0999 V2000
    0.1960    1.4891    0.0133 C   0  0  0  0  0  0  0  0  0  0  0  0
    0.7113    1.7335   -0.8040 H   0  0  0  0  0  0  0  0  0  0  0  0
    0.7232    1.7161    0.8285 H   0  0  0  0  0  0  0  0  0  0  0  0
   -0.7160    2.0861    0.0255 H   0  0  0  0  0  0  0  0  0  0  0  0
    0.0000    0.0000    0.0000 C   0  0  0  0  0  0  0  0  0  0  0  0
   -1.0879   -0.5507    0.0000 O   0  0  0  0  0  0  0  0  0  0  0  0
    1.0879   -0.6161   -0.0000 O   0  0  0  0  0  0  0  0  0  0  0  0
    2.7719   -3.2850   -1.6911 C   0  0  0  0  0  0  0  0  0  0  0  0
    3.4485   -3.8253   -1.1932 H   0  0  0  0  0  0  0  0  0  0  0  0
    1.8631   -3.4538   -1.3134 H   0  0  0  0  0  0  0  0  0  0  0  0
    2.7863   -3.5366   -2.6577 H   0  0  0  0  0  0  0  0  0  0  0  0
    3.1088   -1.7984   -1.5511 C   0  0  0  0  0  0  0  0  0  0  0  0
    2.3091   -1.3507   -1.1635 H   0  0  0  0  0  0  0  0  0  0  0  0
    3.2951   -1.3383   -2.5215 H   0  0  0  0  0  0  0  0  0  0  0  0
    4.2796   -1.6124   -0.5884 C   0  0  0  0  0  0  0  0  0  0  0  0
    3.9621   -1.1229    0.2226 H   0  0  0  0  0  0  0  0  0  0  0  0
    4.6323   -2.5089   -0.3257 H   0  0  0  0  0  0  0  0  0  0  0  0
    4.9962   -1.0858   -1.0430 H   0  0  0  0  0  0  0  0  0  0  0  0
  1  5  1  0
  5  6  2  0
  5  7  1  0
  1  2  1  0
  1  3  1  0
  1  4  1  0
  8 12  1  0
 12 15  1  0
  8  9  1  0
  8 10  1  0
  8 11  1  0
 12 13  1  0
 12 14  1  0
 15 16  1  0
 15 17  1  0
 15 18  1  0
M  CHG  1   7  -1
V    7 [O&-]
M  END
>  <PDB_ID>  (2070) 
pdb5efv

>  <RESIDUE_NAME>  (2070) 
GLU   VAL

>  <FRAG_NAME>  (2070) 
ACET   PRPA

>  <FRAG_ATOM_NUM>  (2070) 
fragi: 7 fragj: 11

>  <atom.prop.CHAIN_ID>  (2070) 
A A A A A A A Z Z Z Z Z Z Z Z Z Z Z

>  <atom.prop.IS_HEAVY_ATOM>  (2070) 
1 0 0 0 1 1 1 1 0 0 0 1 0 0 1 0 0 0

>  <DIFUSE_FUNC_ATOM>  (2070) 
n/a

>  <FINAL_SINGLE_POINT_ENERGY>  (2070) 
0

>  <NONCOV_INTER_ENERGY_QM>  (2070) 
0

>  <FF_Energy>  (2070) 
23.99

>  <QM_Energy>  (2070) 
-2.41

>  <source>  (2070) 
ACET_PRPA_28

>  <Index>  (2070) 
20400

$$$$
ACEH-pdb6ey0-C-GLH-171:PRPA-pdb6ey0-C-ARG-141
     RDKit          3D

 18 16  0  0  0  0  0  0  0  0999 V2000
   -0.0177    1.5124    0.0088 C   0  0  0  0  0  0  0  0  0  0  0  0
   -0.2298    1.7967    0.9364 H   0  0  0  0  0  0  0  0  0  0  0  0
   -0.7352    1.7988   -0.6153 H   0  0  0  0  0  0  0  0  0  0  0  0
    0.9206    1.9763   -0.2950 H   0  0  0  0  0  0  0  0  0  0  0  0
    0.0000    0.0000    0.0000 C   0  0  0  0  0  0  0  0  0  0  0  0
   -1.0985   -0.5943   -0.0000 O   0  0  0  0  0  0  0  0  0  0  0  0
    1.0985   -0.5978   -0.0000 O   0  0  0  0  0  0  0  0  0  0  0  0
   -3.8849    2.0826   -0.9129 C   0  0  0  0  0  0  0  0  0  0  0  0
   -3.0165    2.5715   -1.0066 H   0  0  0  0  0  0  0  0  0  0  0  0
   -4.7027    2.7692   -1.1315 H   0  0  0  0  0  0  0  0  0  0  0  0
   -3.8954    1.2561   -1.6235 H   0  0  0  0  0  0  0  0  0  0  0  0
   -4.0203    1.5588    0.5236 C   0  0  0  0  0  0  0  0  0  0  0  0
   -4.3671    2.3100    1.0920 H   0  0  0  0  0  0  0  0  0  0  0  0
   -4.6974    0.8184    0.5172 H   0  0  0  0  0  0  0  0  0  0  0  0
   -2.7526    1.0344    1.1548 C   0  0  0  0  0  0  0  0  0  0  0  0
   -2.0340    0.9532    0.4482 H   0  0  0  0  0  0  0  0  0  0  0  0
   -2.4278    1.6912    1.8506 H   0  0  0  0  0  0  0  0  0  0  0  0
   -2.8583    0.0628    1.6372 H   0  0  0  0  0  0  0  0  0  0  0  0
  1  5  1  0
  5  6  2  0
  5  7  1  0
  1  2  1  0
  1  3  1  0
  1  4  1  0
  8 12  1  0
 12 15  1  0
  8  9  1  0
  8 10  1  0
  8 11  1  0
 12 13  1  0
 12 14  1  0
 15 16  1  0
 15 17  1  0
 15 18  1  0
M  CHG  1   7  -1
V    7 [O&-]
M  END
>  <PDB_ID>  (2071) 
pdb6ey0

>  <RESIDUE_NAME>  (2071) 
GLU   ARG

>  <FRAG_NAME>  (2071) 
ACET   PRPA

>  <FRAG_ATOM_NUM>  (2071) 
fragi: 7 fragj: 11

>  <atom.prop.CHAIN_ID>  (2071) 
A A A A A A A Z Z Z Z Z Z Z Z Z Z Z

>  <atom.prop.IS_HEAVY_ATOM>  (2071) 
1 0 0 0 1 1 1 1 0 0 0 1 0 0 1 0 0 0

>  <DIFUSE_FUNC_ATOM>  (2071) 
n/a

>  <FINAL_SINGLE_POINT_ENERGY>  (2071) 
0

>  <NONCOV_INTER_ENERGY_QM>  (2071) 
0

>  <FF_Energy>  (2071) 
39.73

>  <QM_Energy>  (2071) 
10.54

>  <source>  (2071) 
ACET_PRPA_28

>  <Index>  (2071) 
21172

$$$$
ACEH-pdb5f75-B-GLH-294:PRPA-pdb5f75-B-LEU-398
     RDKit          3D

 18 16  0  0  0  0  0  0  0  0999 V2000
   -0.1838    1.4876   -0.0125 C   0  0  0  0  0  0  0  0  0  0  0  0
   -0.7014    1.7378    0.8048 H   0  0  0  0  0  0  0  0  0  0  0  0
   -0.7135    1.7212   -0.8280 H   0  0  0  0  0  0  0  0  0  0  0  0
    0.7267    2.0868   -0.0243 H   0  0  0  0  0  0  0  0  0  0  0  0
    0.0000    0.0000    0.0000 C   0  0  0  0  0  0  0  0  0  0  0  0
   -1.0891   -0.6108   -0.0000 O   0  0  0  0  0  0  0  0  0  0  0  0
    1.0891   -0.5537   -0.0000 O   0  0  0  0  0  0  0  0  0  0  0  0
   -3.8288   -1.2937    1.9026 C   0  0  0  0  0  0  0  0  0  0  0  0
   -3.8884   -1.2439    0.9191 H   0  0  0  0  0  0  0  0  0  0  0  0
   -4.4893   -0.7080    2.3399 H   0  0  0  0  0  0  0  0  0  0  0  0
   -4.0412   -2.3205    2.2002 H   0  0  0  0  0  0  0  0  0  0  0  0
   -2.4353   -0.8050    2.3067 C   0  0  0  0  0  0  0  0  0  0  0  0
   -1.7486   -1.3707    1.8722 H   0  0  0  0  0  0  0  0  0  0  0  0
   -2.3448   -0.8624    3.3915 H   0  0  0  0  0  0  0  0  0  0  0  0
   -2.2551    0.6545    1.8323 C   0  0  0  0  0  0  0  0  0  0  0  0
   -2.9528    1.2215    2.2618 H   0  0  0  0  0  0  0  0  0  0  0  0
   -1.3481    0.9707    2.0970 H   0  0  0  0  0  0  0  0  0  0  0  0
   -2.3526    0.6862    0.8413 H   0  0  0  0  0  0  0  0  0  0  0  0
  1  5  1  0
  5  6  2  0
  5  7  1  0
  1  2  1  0
  1  3  1  0
  1  4  1  0
  8 12  1  0
 12 15  1  0
  8  9  1  0
  8 10  1  0
  8 11  1  0
 12 13  1  0
 12 14  1  0
 15 16  1  0
 15 17  1  0
 15 18  1  0
M  CHG  1   7  -1
V    7 [O&-]
M  END
>  <PDB_ID>  (2072) 
pdb5f75

>  <RESIDUE_NAME>  (2072) 
GLU   LEU

>  <FRAG_NAME>  (2072) 
ACET   PRPA

>  <FRAG_ATOM_NUM>  (2072) 
fragi: 7 fragj: 11

>  <atom.prop.CHAIN_ID>  (2072) 
A A A A A A A Z Z Z Z Z Z Z Z Z Z Z

>  <atom.prop.IS_HEAVY_ATOM>  (2072) 
1 0 0 0 1 1 1 1 0 0 0 1 0 0 1 0 0 0

>  <DIFUSE_FUNC_ATOM>  (2072) 
n/a

>  <FINAL_SINGLE_POINT_ENERGY>  (2072) 
0

>  <NONCOV_INTER_ENERGY_QM>  (2072) 
0

>  <FF_Energy>  (2072) 
49.55

>  <QM_Energy>  (2072) 
10.76

>  <source>  (2072) 
ACET_PRPA_28

>  <Index>  (2072) 
22260

$$$$
ACEH-pdb5f75-B-GLH-294:PRPA-pdb5f75-B-LEU-398
     RDKit          3D

 18 16  0  0  0  0  0  0  0  0999 V2000
   -0.1838    1.4876   -0.0125 C   0  0  0  0  0  0  0  0  0  0  0  0
   -0.7014    1.7378    0.8048 H   0  0  0  0  0  0  0  0  0  0  0  0
   -0.7135    1.7212   -0.8280 H   0  0  0  0  0  0  0  0  0  0  0  0
    0.7267    2.0868   -0.0243 H   0  0  0  0  0  0  0  0  0  0  0  0
    0.0000    0.0000    0.0000 C   0  0  0  0  0  0  0  0  0  0  0  0
   -1.0891   -0.6108   -0.0000 O   0  0  0  0  0  0  0  0  0  0  0  0
    1.0891   -0.5537   -0.0000 O   0  0  0  0  0  0  0  0  0  0  0  0
   -2.2551    0.6545    1.8323 C   0  0  0  0  0  0  0  0  0  0  0  0
   -2.9528    1.2215    2.2618 H   0  0  0  0  0  0  0  0  0  0  0  0
   -1.3481    0.9707    2.0970 H   0  0  0  0  0  0  0  0  0  0  0  0
   -2.3526    0.6862    0.8413 H   0  0  0  0  0  0  0  0  0  0  0  0
   -2.4353   -0.8050    2.3067 C   0  0  0  0  0  0  0  0  0  0  0  0
   -1.7486   -1.3707    1.8722 H   0  0  0  0  0  0  0  0  0  0  0  0
   -3.4274   -1.1529    2.0191 H   0  0  0  0  0  0  0  0  0  0  0  0
   -2.3094   -0.8848    3.8152 C   0  0  0  0  0  0  0  0  0  0  0  0
   -2.4361   -1.8322    4.1154 H   0  0  0  0  0  0  0  0  0  0  0  0
   -1.4018   -0.5681    4.0959 H   0  0  0  0  0  0  0  0  0  0  0  0
   -3.0075   -0.3079    4.2430 H   0  0  0  0  0  0  0  0  0  0  0  0
  1  5  1  0
  5  6  2  0
  5  7  1  0
  1  2  1  0
  1  3  1  0
  1  4  1  0
  8 12  1  0
 12 15  1  0
  8  9  1  0
  8 10  1  0
  8 11  1  0
 12 13  1  0
 12 14  1  0
 15 16  1  0
 15 17  1  0
 15 18  1  0
M  CHG  1   7  -1
V    7 [O&-]
M  END
>  <PDB_ID>  (2073) 
pdb5f75

>  <RESIDUE_NAME>  (2073) 
GLU   LEU

>  <FRAG_NAME>  (2073) 
ACET   PRPA

>  <FRAG_ATOM_NUM>  (2073) 
fragi: 7 fragj: 11

>  <atom.prop.CHAIN_ID>  (2073) 
A A A A A A A Z Z Z Z Z Z Z Z Z Z Z

>  <atom.prop.IS_HEAVY_ATOM>  (2073) 
1 0 0 0 1 1 1 1 0 0 0 1 0 0 1 0 0 0

>  <DIFUSE_FUNC_ATOM>  (2073) 
n/a

>  <FINAL_SINGLE_POINT_ENERGY>  (2073) 
0

>  <NONCOV_INTER_ENERGY_QM>  (2073) 
0

>  <FF_Energy>  (2073) 
48.82

>  <QM_Energy>  (2073) 
12.07

>  <source>  (2073) 
ACET_PRPA_28

>  <Index>  (2073) 
22406

$$$$
ACEH-pdb1dug-A-ASH-233:PRPA-pdb1dug-A-LYS-8
     RDKit          3D

 18 16  0  0  0  0  0  0  0  0999 V2000
   -0.0094    1.5158    0.0053 C   0  0  0  0  0  0  0  0  0  0  0  0
    0.9252    1.8417   -0.0748 H   0  0  0  0  0  0  0  0  0  0  0  0
   -0.4176    1.8306    0.8532 H   0  0  0  0  0  0  0  0  0  0  0  0
   -0.5842    1.9339   -0.8210 H   0  0  0  0  0  0  0  0  0  0  0  0
    0.0000    0.0000    0.0000 C   0  0  0  0  0  0  0  0  0  0  0  0
   -1.0950   -0.5988   -0.0000 O   0  0  0  0  0  0  0  0  0  0  0  0
    1.0950   -0.5962   -0.0000 O   0  0  0  0  0  0  0  0  0  0  0  0
    4.3914   -0.6134    0.6109 C   0  0  0  0  0  0  0  0  0  0  0  0
    4.6126   -1.3511   -0.0247 H   0  0  0  0  0  0  0  0  0  0  0  0
    3.5202   -0.8018    1.0577 H   0  0  0  0  0  0  0  0  0  0  0  0
    5.1752   -0.5419    1.3649 H   0  0  0  0  0  0  0  0  0  0  0  0
    4.2682    0.6896   -0.1749 C   0  0  0  0  0  0  0  0  0  0  0  0
    4.0087    1.4164    0.4526 H   0  0  0  0  0  0  0  0  0  0  0  0
    5.1457    0.8919   -0.5967 H   0  0  0  0  0  0  0  0  0  0  0  0
    3.2165    0.5850   -1.2630 C   0  0  0  0  0  0  0  0  0  0  0  0
    3.4932   -0.1282   -1.9162 H   0  0  0  0  0  0  0  0  0  0  0  0
    2.3418    0.3123   -0.8462 H   0  0  0  0  0  0  0  0  0  0  0  0
    3.0798    1.5251   -1.7974 H   0  0  0  0  0  0  0  0  0  0  0  0
  1  5  1  0
  5  6  2  0
  5  7  1  0
  1  2  1  0
  1  3  1  0
  1  4  1  0
  8 12  1  0
 12 15  1  0
  8  9  1  0
  8 10  1  0
  8 11  1  0
 12 13  1  0
 12 14  1  0
 15 16  1  0
 15 17  1  0
 15 18  1  0
M  CHG  1   7  -1
V    7 [O&-]
M  END
>  <PDB_ID>  (2074) 
pdb1dug

>  <RESIDUE_NAME>  (2074) 
ASP   LYS

>  <FRAG_NAME>  (2074) 
ACET   PRPA

>  <FRAG_ATOM_NUM>  (2074) 
fragi: 7 fragj: 11

>  <atom.prop.CHAIN_ID>  (2074) 
A A A A A A A Z Z Z Z Z Z Z Z Z Z Z

>  <atom.prop.IS_HEAVY_ATOM>  (2074) 
1 0 0 0 1 1 1 1 0 0 0 1 0 0 1 0 0 0

>  <DIFUSE_FUNC_ATOM>  (2074) 
n/a

>  <FINAL_SINGLE_POINT_ENERGY>  (2074) 
0

>  <NONCOV_INTER_ENERGY_QM>  (2074) 
0

>  <FF_Energy>  (2074) 
38.16

>  <QM_Energy>  (2074) 
0.93

>  <source>  (2074) 
ACET_PRPA_28

>  <Index>  (2074) 
22878

$$$$
ACEH-pdb1dr0-B-GLH-270:PRPA-pdb1dr0-B-LEU-69
     RDKit          3D

 18 16  0  0  0  0  0  0  0  0999 V2000
    0.0029    1.4916   -0.0194 C   0  0  0  0  0  0  0  0  0  0  0  0
    0.6566    1.8043    0.6385 H   0  0  0  0  0  0  0  0  0  0  0  0
   -0.9064    1.8006    0.1686 H   0  0  0  0  0  0  0  0  0  0  0  0
    0.2979    1.8652   -0.9999 H   0  0  0  0  0  0  0  0  0  0  0  0
    0.0000    0.0000    0.0000 C   0  0  0  0  0  0  0  0  0  0  0  0
   -1.1262   -0.5698    0.0000 O   0  0  0  0  0  0  0  0  0  0  0  0
    1.1262   -0.5817    0.0000 O   0  0  0  0  0  0  0  0  0  0  0  0
    0.0994   -0.0603   -4.2527 C   0  0  0  0  0  0  0  0  0  0  0  0
    0.8926   -0.4077   -4.8142 H   0  0  0  0  0  0  0  0  0  0  0  0
    0.5364    0.4704   -3.4839 H   0  0  0  0  0  0  0  0  0  0  0  0
   -0.4402    0.6571   -4.8711 H   0  0  0  0  0  0  0  0  0  0  0  0
   -0.5450   -1.2957   -3.6107 C   0  0  0  0  0  0  0  0  0  0  0  0
   -1.4400   -1.0466   -3.2592 H   0  0  0  0  0  0  0  0  0  0  0  0
   -0.6512   -2.0765   -4.3638 H   0  0  0  0  0  0  0  0  0  0  0  0
    0.3640   -1.8136   -2.4733 C   0  0  0  0  0  0  0  0  0  0  0  0
    0.4693   -1.0946   -1.7911 H   0  0  0  0  0  0  0  0  0  0  0  0
   -0.0598   -2.6155   -2.0607 H   0  0  0  0  0  0  0  0  0  0  0  0
    1.2523   -2.0552   -2.8548 H   0  0  0  0  0  0  0  0  0  0  0  0
  1  5  1  0
  5  6  2  0
  5  7  1  0
  1  2  1  0
  1  3  1  0
  1  4  1  0
  8 12  1  0
 12 15  1  0
  8  9  1  0
  8 10  1  0
  8 11  1  0
 12 13  1  0
 12 14  1  0
 15 16  1  0
 15 17  1  0
 15 18  1  0
M  CHG  1   7  -1
V    7 [O&-]
M  END
>  <PDB_ID>  (2075) 
pdb1dr0

>  <RESIDUE_NAME>  (2075) 
GLU   LEU

>  <FRAG_NAME>  (2075) 
ACET   PRPA

>  <FRAG_ATOM_NUM>  (2075) 
fragi: 7 fragj: 11

>  <atom.prop.CHAIN_ID>  (2075) 
A A A A A A A Z Z Z Z Z Z Z Z Z Z Z

>  <atom.prop.IS_HEAVY_ATOM>  (2075) 
1 0 0 0 1 1 1 1 0 0 0 1 0 0 1 0 0 0

>  <DIFUSE_FUNC_ATOM>  (2075) 
n/a

>  <FINAL_SINGLE_POINT_ENERGY>  (2075) 
0

>  <NONCOV_INTER_ENERGY_QM>  (2075) 
0

>  <FF_Energy>  (2075) 
16.69

>  <QM_Energy>  (2075) 
-0.08

>  <source>  (2075) 
ACET_PRPA_28

>  <Index>  (2075) 
23184

$$$$
ACEH-pdb1dtd-C-ASH-420:PRPA-pdb1dtd-C-ILE-550
     RDKit          3D

 18 16  0  0  0  0  0  0  0  0999 V2000
    0.0724    1.5063    0.0172 C   0  0  0  0  0  0  0  0  0  0  0  0
    0.4551    1.7965    0.9141 H   0  0  0  0  0  0  0  0  0  0  0  0
   -0.8753    1.8719   -0.0296 H   0  0  0  0  0  0  0  0  0  0  0  0
    0.6550    1.9931   -0.7649 H   0  0  0  0  0  0  0  0  0  0  0  0
    0.0000    0.0000    0.0000 C   0  0  0  0  0  0  0  0  0  0  0  0
   -1.0789   -0.6120   -0.0000 O   0  0  0  0  0  0  0  0  0  0  0  0
    1.0789   -0.6117   -0.0000 O   0  0  0  0  0  0  0  0  0  0  0  0
    1.1957   -3.2054   -2.1680 C   0  0  0  0  0  0  0  0  0  0  0  0
    0.2511   -2.9746   -1.9736 H   0  0  0  0  0  0  0  0  0  0  0  0
    1.5418   -2.4969   -2.9205 H   0  0  0  0  0  0  0  0  0  0  0  0
    1.2636   -4.2236   -2.5510 H   0  0  0  0  0  0  0  0  0  0  0  0
    2.0136   -3.0397   -0.9557 C   0  0  0  0  0  0  0  0  0  0  0  0
    2.9513   -3.6863   -1.1893 H   0  0  0  0  0  0  0  0  0  0  0  0
    2.6415   -2.0936   -1.2004 H   0  0  0  0  0  0  0  0  0  0  0  0
    1.9621   -3.0371    0.4910 C   0  0  0  0  0  0  0  0  0  0  0  0
    1.6386   -3.9265    0.8456 H   0  0  0  0  0  0  0  0  0  0  0  0
    2.8745   -2.8598    0.8874 H   0  0  0  0  0  0  0  0  0  0  0  0
    1.3343   -2.3223    0.8317 H   0  0  0  0  0  0  0  0  0  0  0  0
  1  5  1  0
  5  6  2  0
  5  7  1  0
  1  2  1  0
  1  3  1  0
  1  4  1  0
  8 12  1  0
 12 15  1  0
  8  9  1  0
  8 10  1  0
  8 11  1  0
 12 13  1  0
 12 14  1  0
 15 16  1  0
 15 17  1  0
 15 18  1  0
M  CHG  1   7  -1
V    7 [O&-]
M  END
>  <PDB_ID>  (2076) 
pdb1dtd

>  <RESIDUE_NAME>  (2076) 
ASP   ILE

>  <FRAG_NAME>  (2076) 
ACET   PRPA

>  <FRAG_ATOM_NUM>  (2076) 
fragi: 7 fragj: 11

>  <atom.prop.CHAIN_ID>  (2076) 
A A A A A A A Z Z Z Z Z Z Z Z Z Z Z

>  <atom.prop.IS_HEAVY_ATOM>  (2076) 
1 0 0 0 1 1 1 1 0 0 0 1 0 0 1 0 0 0

>  <DIFUSE_FUNC_ATOM>  (2076) 
n/a

>  <FINAL_SINGLE_POINT_ENERGY>  (2076) 
0

>  <NONCOV_INTER_ENERGY_QM>  (2076) 
0

>  <FF_Energy>  (2076) 
20.94

>  <QM_Energy>  (2076) 
0.81

>  <source>  (2076) 
ACET_PRPA_28

>  <Index>  (2076) 
23424

$$$$
ACEH-pdb1dqr-B-ASH-303:PRPA-pdb1dqr-B-ARG-103
     RDKit          3D

 18 16  0  0  0  0  0  0  0  0999 V2000
    0.0201    1.5149    0.0204 C   0  0  0  0  0  0  0  0  0  0  0  0
    0.6533    1.8387   -0.6751 H   0  0  0  0  0  0  0  0  0  0  0  0
    0.3095    1.8220    0.9202 H   0  0  0  0  0  0  0  0  0  0  0  0
   -0.9530    1.9610   -0.1848 H   0  0  0  0  0  0  0  0  0  0  0  0
    0.0000    0.0000    0.0000 C   0  0  0  0  0  0  0  0  0  0  0  0
   -1.0971   -0.5980   -0.0000 O   0  0  0  0  0  0  0  0  0  0  0  0
    1.0971   -0.6004   -0.0000 O   0  0  0  0  0  0  0  0  0  0  0  0
    4.2603   -3.1029   -2.5912 C   0  0  0  0  0  0  0  0  0  0  0  0
    4.1392   -2.6525   -3.4555 H   0  0  0  0  0  0  0  0  0  0  0  0
    4.0228   -4.0549   -2.6284 H   0  0  0  0  0  0  0  0  0  0  0  0
    5.3105   -3.0234   -2.3103 H   0  0  0  0  0  0  0  0  0  0  0  0
    3.3712   -2.4242   -1.5644 C   0  0  0  0  0  0  0  0  0  0  0  0
    3.6465   -2.7303   -0.6333 H   0  0  0  0  0  0  0  0  0  0  0  0
    3.5322   -1.4196   -1.5996 H   0  0  0  0  0  0  0  0  0  0  0  0
    1.8815   -2.6588   -1.7070 C   0  0  0  0  0  0  0  0  0  0  0  0
    1.4054   -2.0100   -1.1107 H   0  0  0  0  0  0  0  0  0  0  0  0
    1.6288   -2.4783   -2.6598 H   0  0  0  0  0  0  0  0  0  0  0  0
    1.5820   -3.6731   -1.4433 H   0  0  0  0  0  0  0  0  0  0  0  0
  1  5  1  0
  5  6  2  0
  5  7  1  0
  1  2  1  0
  1  3  1  0
  1  4  1  0
  8 12  1  0
 12 15  1  0
  8  9  1  0
  8 10  1  0
  8 11  1  0
 12 13  1  0
 12 14  1  0
 15 16  1  0
 15 17  1  0
 15 18  1  0
M  CHG  1   7  -1
V    7 [O&-]
M  END
>  <PDB_ID>  (2077) 
pdb1dqr

>  <RESIDUE_NAME>  (2077) 
ASP   ARG

>  <FRAG_NAME>  (2077) 
ACET   PRPA

>  <FRAG_ATOM_NUM>  (2077) 
fragi: 7 fragj: 11

>  <atom.prop.CHAIN_ID>  (2077) 
A A A A A A A Z Z Z Z Z Z Z Z Z Z Z

>  <atom.prop.IS_HEAVY_ATOM>  (2077) 
1 0 0 0 1 1 1 1 0 0 0 1 0 0 1 0 0 0

>  <DIFUSE_FUNC_ATOM>  (2077) 
n/a

>  <FINAL_SINGLE_POINT_ENERGY>  (2077) 
0

>  <NONCOV_INTER_ENERGY_QM>  (2077) 
0

>  <FF_Energy>  (2077) 
23.48

>  <QM_Energy>  (2077) 
-0.94

>  <source>  (2077) 
ACET_PRPA_28

>  <Index>  (2077) 
23717

$$$$
ACEH-pdb4e5k-C-GLH-243:PRPA-pdb4e5k-C-GLU-264
     RDKit          3D

 18 16  0  0  0  0  0  0  0  0999 V2000
   -0.0248    1.5231    0.0144 C   0  0  0  0  0  0  0  0  0  0  0  0
    0.0077    1.8055    0.9624 H   0  0  0  0  0  0  0  0  0  0  0  0
   -0.8738    1.8037   -0.4114 H   0  0  0  0  0  0  0  0  0  0  0  0
    0.8038    1.9920   -0.5165 H   0  0  0  0  0  0  0  0  0  0  0  0
    0.0000    0.0000    0.0000 C   0  0  0  0  0  0  0  0  0  0  0  0
   -1.0952   -0.5840    0.0000 O   0  0  0  0  0  0  0  0  0  0  0  0
    1.0952   -0.6160   -0.0000 O   0  0  0  0  0  0  0  0  0  0  0  0
   -0.7694   -1.6185    3.8033 C   0  0  0  0  0  0  0  0  0  0  0  0
   -1.1347   -1.1551    4.6419 H   0  0  0  0  0  0  0  0  0  0  0  0
    0.3153   -1.5137    3.7784 H   0  0  0  0  0  0  0  0  0  0  0  0
   -1.1415   -2.6427    3.7796 H   0  0  0  0  0  0  0  0  0  0  0  0
   -1.4019   -0.8298    2.6401 C   0  0  0  0  0  0  0  0  0  0  0  0
   -0.9101   -1.0687    1.8198 H   0  0  0  0  0  0  0  0  0  0  0  0
   -2.3507   -1.0899    2.5873 H   0  0  0  0  0  0  0  0  0  0  0  0
   -1.3448    0.6862    2.7894 C   0  0  0  0  0  0  0  0  0  0  0  0
   -1.7134    0.9262    3.6670 H   0  0  0  0  0  0  0  0  0  0  0  0
   -0.4136    0.9761    2.6811 H   0  0  0  0  0  0  0  0  0  0  0  0
   -1.9347    1.2111    2.0381 H   0  0  0  0  0  0  0  0  0  0  0  0
  1  5  1  0
  5  6  2  0
  5  7  1  0
  1  2  1  0
  1  3  1  0
  1  4  1  0
  8 12  1  0
 12 15  1  0
  8  9  1  0
  8 10  1  0
  8 11  1  0
 12 13  1  0
 12 14  1  0
 15 16  1  0
 15 17  1  0
 15 18  1  0
M  CHG  1   7  -1
V    7 [O&-]
M  END
>  <PDB_ID>  (2078) 
pdb4e5k

>  <RESIDUE_NAME>  (2078) 
GLU   GLU

>  <FRAG_NAME>  (2078) 
ACET   PRPA

>  <FRAG_ATOM_NUM>  (2078) 
fragi: 7 fragj: 11

>  <atom.prop.CHAIN_ID>  (2078) 
A A A A A A A Z Z Z Z Z Z Z Z Z Z Z

>  <atom.prop.IS_HEAVY_ATOM>  (2078) 
1 0 0 0 1 1 1 1 0 0 0 1 0 0 1 0 0 0

>  <DIFUSE_FUNC_ATOM>  (2078) 
n/a

>  <FINAL_SINGLE_POINT_ENERGY>  (2078) 
0

>  <NONCOV_INTER_ENERGY_QM>  (2078) 
0

>  <FF_Energy>  (2078) 
26.86

>  <QM_Energy>  (2078) 
3.45

>  <source>  (2078) 
ACET_PRPA_28

>  <Index>  (2078) 
23952

$$$$
ACEH-pdb4e5k-C-GLH-243:PRPA-pdb4e5k-C-PRO-274
     RDKit          3D

 18 16  0  0  0  0  0  0  0  0999 V2000
   -0.0248    1.5231    0.0144 C   0  0  0  0  0  0  0  0  0  0  0  0
    0.0077    1.8055    0.9624 H   0  0  0  0  0  0  0  0  0  0  0  0
   -0.8738    1.8037   -0.4114 H   0  0  0  0  0  0  0  0  0  0  0  0
    0.8038    1.9920   -0.5165 H   0  0  0  0  0  0  0  0  0  0  0  0
    0.0000    0.0000    0.0000 C   0  0  0  0  0  0  0  0  0  0  0  0
   -1.0952   -0.5840    0.0000 O   0  0  0  0  0  0  0  0  0  0  0  0
    1.0952   -0.6160   -0.0000 O   0  0  0  0  0  0  0  0  0  0  0  0
   -4.1909   -4.4078   -0.7444 C   0  0  0  0  0  0  0  0  0  0  0  0
   -4.8251   -4.5611   -1.5117 H   0  0  0  0  0  0  0  0  0  0  0  0
   -4.6879   -3.8791    0.0690 H   0  0  0  0  0  0  0  0  0  0  0  0
   -3.7693   -5.3518   -0.3993 H   0  0  0  0  0  0  0  0  0  0  0  0
   -3.0639   -3.4468   -1.1570 C   0  0  0  0  0  0  0  0  0  0  0  0
   -2.1761   -3.7758   -0.8169 H   0  0  0  0  0  0  0  0  0  0  0  0
   -3.0142   -3.3672   -2.1574 H   0  0  0  0  0  0  0  0  0  0  0  0
   -3.4125   -2.1194   -0.5342 C   0  0  0  0  0  0  0  0  0  0  0  0
   -2.5769   -1.5931   -0.3564 H   0  0  0  0  0  0  0  0  0  0  0  0
   -4.0025   -1.5954   -1.1530 H   0  0  0  0  0  0  0  0  0  0  0  0
   -3.9293   -2.3731    0.3913 H   0  0  0  0  0  0  0  0  0  0  0  0
  1  5  1  0
  5  6  2  0
  5  7  1  0
  1  2  1  0
  1  3  1  0
  1  4  1  0
  8 12  1  0
 12 15  1  0
  8  9  1  0
  8 10  1  0
  8 11  1  0
 12 13  1  0
 12 14  1  0
 15 16  1  0
 15 17  1  0
 15 18  1  0
M  CHG  1   7  -1
V    7 [O&-]
M  END
>  <PDB_ID>  (2079) 
pdb4e5k

>  <RESIDUE_NAME>  (2079) 
GLU   PRO

>  <FRAG_NAME>  (2079) 
ACET   PRPA

>  <FRAG_ATOM_NUM>  (2079) 
fragi: 7 fragj: 11

>  <atom.prop.CHAIN_ID>  (2079) 
A A A A A A A Z Z Z Z Z Z Z Z Z Z Z

>  <atom.prop.IS_HEAVY_ATOM>  (2079) 
1 0 0 0 1 1 1 1 0 0 0 1 0 0 1 0 0 0

>  <DIFUSE_FUNC_ATOM>  (2079) 
n/a

>  <FINAL_SINGLE_POINT_ENERGY>  (2079) 
0

>  <NONCOV_INTER_ENERGY_QM>  (2079) 
0

>  <FF_Energy>  (2079) 
21.89

>  <QM_Energy>  (2079) 
-0.85

>  <source>  (2079) 
ACET_PRPA_28

>  <Index>  (2079) 
24002

$$$$
ACEH-pdb5fig-C-GLH-44:PRPA-pdb5fig-A-PRO-61
     RDKit          3D

 18 16  0  0  0  0  0  0  0  0999 V2000
    0.0459    1.5317    0.0144 C   0  0  0  0  0  0  0  0  0  0  0  0
   -0.1148    1.8360   -0.9144 H   0  0  0  0  0  0  0  0  0  0  0  0
    0.9516    1.7922    0.3200 H   0  0  0  0  0  0  0  0  0  0  0  0
   -0.6871    2.0109    0.6634 H   0  0  0  0  0  0  0  0  0  0  0  0
    0.0000    0.0000    0.0000 C   0  0  0  0  0  0  0  0  0  0  0  0
   -1.1046   -0.6151   -0.0000 O   0  0  0  0  0  0  0  0  0  0  0  0
    1.1046   -0.6294    0.0000 O   0  0  0  0  0  0  0  0  0  0  0  0
   -1.4311   -3.9001   -1.6458 C   0  0  0  0  0  0  0  0  0  0  0  0
   -1.2911   -4.6533   -2.3142 H   0  0  0  0  0  0  0  0  0  0  0  0
   -1.0226   -2.9680   -2.0362 H   0  0  0  0  0  0  0  0  0  0  0  0
   -2.4815   -3.8365   -1.3619 H   0  0  0  0  0  0  0  0  0  0  0  0
   -0.5371   -4.2118   -0.4412 C   0  0  0  0  0  0  0  0  0  0  0  0
   -1.0922   -4.5462    0.3330 H   0  0  0  0  0  0  0  0  0  0  0  0
    0.1332   -4.9281   -0.6752 H   0  0  0  0  0  0  0  0  0  0  0  0
    0.1444   -2.9337   -0.0956 C   0  0  0  0  0  0  0  0  0  0  0  0
   -0.4039   -2.4007    0.5550 H   0  0  0  0  0  0  0  0  0  0  0  0
    1.0468   -3.1076    0.3087 H   0  0  0  0  0  0  0  0  0  0  0  0
    0.2464   -2.3964   -1.0385 H   0  0  0  0  0  0  0  0  0  0  0  0
  1  5  1  0
  5  6  2  0
  5  7  1  0
  1  2  1  0
  1  3  1  0
  1  4  1  0
  8 12  1  0
 12 15  1  0
  8  9  1  0
  8 10  1  0
  8 11  1  0
 12 13  1  0
 12 14  1  0
 15 16  1  0
 15 17  1  0
 15 18  1  0
M  CHG  1   7  -1
V    7 [O&-]
M  END
>  <PDB_ID>  (2080) 
pdb5fig

>  <RESIDUE_NAME>  (2080) 
GLU   PRO

>  <FRAG_NAME>  (2080) 
ACET   PRPA

>  <FRAG_ATOM_NUM>  (2080) 
fragi: 7 fragj: 11

>  <atom.prop.CHAIN_ID>  (2080) 
A A A A A A A Z Z Z Z Z Z Z Z Z Z Z

>  <atom.prop.IS_HEAVY_ATOM>  (2080) 
1 0 0 0 1 1 1 1 0 0 0 1 0 0 1 0 0 0

>  <DIFUSE_FUNC_ATOM>  (2080) 
n/a

>  <FINAL_SINGLE_POINT_ENERGY>  (2080) 
0

>  <NONCOV_INTER_ENERGY_QM>  (2080) 
0

>  <FF_Energy>  (2080) 
27.58

>  <QM_Energy>  (2080) 
9.84

>  <source>  (2080) 
ACET_PRPA_28

>  <Index>  (2080) 
25139

$$$$
ACEH-pdb1dof-A-GLH-315:PRPA-pdb1dof-A-VAL-311
     RDKit          3D

 18 16  0  0  0  0  0  0  0  0999 V2000
    0.0679    1.5027    0.0309 C   0  0  0  0  0  0  0  0  0  0  0  0
    0.1471    1.8142   -0.9527 H   0  0  0  0  0  0  0  0  0  0  0  0
    0.9840    1.7468    0.4477 H   0  0  0  0  0  0  0  0  0  0  0  0
   -0.6782    2.1390    0.5069 H   0  0  0  0  0  0  0  0  0  0  0  0
    0.0000    0.0000    0.0000 C   0  0  0  0  0  0  0  0  0  0  0  0
   -1.1227   -0.5336    0.0000 O   0  0  0  0  0  0  0  0  0  0  0  0
    1.1227   -0.7145   -0.0000 O   0  0  0  0  0  0  0  0  0  0  0  0
    1.0155   -1.8476    2.1737 C   0  0  0  0  0  0  0  0  0  0  0  0
    0.5448   -2.5440    2.7171 H   0  0  0  0  0  0  0  0  0  0  0  0
    0.7080   -0.9399    2.4635 H   0  0  0  0  0  0  0  0  0  0  0  0
    0.7923   -1.9783    1.2061 H   0  0  0  0  0  0  0  0  0  0  0  0
    2.5115   -1.9674    2.3737 C   0  0  0  0  0  0  0  0  0  0  0  0
    2.6878   -1.9354    3.3435 H   0  0  0  0  0  0  0  0  0  0  0  0
    2.9905   -1.0930    1.9329 H   0  0  0  0  0  0  0  0  0  0  0  0
    3.0309   -3.2737    1.7278 C   0  0  0  0  0  0  0  0  0  0  0  0
    2.4456   -3.5007    0.9550 H   0  0  0  0  0  0  0  0  0  0  0  0
    3.9674   -3.1257    1.4213 H   0  0  0  0  0  0  0  0  0  0  0  0
    3.0001   -3.9987    2.4092 H   0  0  0  0  0  0  0  0  0  0  0  0
  1  5  1  0
  5  6  2  0
  5  7  1  0
  1  2  1  0
  1  3  1  0
  1  4  1  0
  8 12  1  0
 12 15  1  0
  8  9  1  0
  8 10  1  0
  8 11  1  0
 12 13  1  0
 12 14  1  0
 15 16  1  0
 15 17  1  0
 15 18  1  0
M  CHG  1   7  -1
V    7 [O&-]
M  END
>  <PDB_ID>  (2081) 
pdb1dof

>  <RESIDUE_NAME>  (2081) 
GLU   VAL

>  <FRAG_NAME>  (2081) 
ACET   PRPA

>  <FRAG_ATOM_NUM>  (2081) 
fragi: 7 fragj: 11

>  <atom.prop.CHAIN_ID>  (2081) 
A A A A A A A Z Z Z Z Z Z Z Z Z Z Z

>  <atom.prop.IS_HEAVY_ATOM>  (2081) 
1 0 0 0 1 1 1 1 0 0 0 1 0 0 1 0 0 0

>  <DIFUSE_FUNC_ATOM>  (2081) 
n/a

>  <FINAL_SINGLE_POINT_ENERGY>  (2081) 
0

>  <NONCOV_INTER_ENERGY_QM>  (2081) 
0

>  <FF_Energy>  (2081) 
46.92

>  <QM_Energy>  (2081) 
6.77

>  <source>  (2081) 
ACET_PRPA_28

>  <Index>  (2081) 
25630

$$$$
ACEH-pdb1e9l-A-GLH-297:PRPA-pdb1e9l-A-LEU-300
     RDKit          3D

 18 16  0  0  0  0  0  0  0  0999 V2000
    0.0692    1.5301    0.0053 C   0  0  0  0  0  0  0  0  0  0  0  0
   -0.2307    1.8416    0.8681 H   0  0  0  0  0  0  0  0  0  0  0  0
   -0.4340    1.8563   -0.7510 H   0  0  0  0  0  0  0  0  0  0  0  0
    1.1017    1.8560   -0.1206 H   0  0  0  0  0  0  0  0  0  0  0  0
    0.0000    0.0000    0.0000 C   0  0  0  0  0  0  0  0  0  0  0  0
   -1.1112   -0.5999    0.0000 O   0  0  0  0  0  0  0  0  0  0  0  0
    1.1112   -0.5916   -0.0000 O   0  0  0  0  0  0  0  0  0  0  0  0
   -1.4940   -0.7932    3.7549 C   0  0  0  0  0  0  0  0  0  0  0  0
   -2.2551   -1.4010    4.0785 H   0  0  0  0  0  0  0  0  0  0  0  0
   -1.9063    0.2039    3.6002 H   0  0  0  0  0  0  0  0  0  0  0  0
   -0.6730   -0.8673    4.4680 H   0  0  0  0  0  0  0  0  0  0  0  0
   -1.0261   -1.3228    2.4068 C   0  0  0  0  0  0  0  0  0  0  0  0
   -1.8508   -1.2637    1.7601 H   0  0  0  0  0  0  0  0  0  0  0  0
   -0.3805   -0.5987    2.0089 H   0  0  0  0  0  0  0  0  0  0  0  0
   -0.3687   -2.6707    2.1172 C   0  0  0  0  0  0  0  0  0  0  0  0
   -0.5985   -3.3046    2.8453 H   0  0  0  0  0  0  0  0  0  0  0  0
   -0.7519   -3.0431    1.1672 H   0  0  0  0  0  0  0  0  0  0  0  0
    0.7160   -2.5721    2.0743 H   0  0  0  0  0  0  0  0  0  0  0  0
  1  5  1  0
  5  6  2  0
  5  7  1  0
  1  2  1  0
  1  3  1  0
  1  4  1  0
  8 12  1  0
 12 15  1  0
  8  9  1  0
  8 10  1  0
  8 11  1  0
 12 13  1  0
 12 14  1  0
 15 16  1  0
 15 17  1  0
 15 18  1  0
M  CHG  1   7  -1
V    7 [O&-]
M  END
>  <PDB_ID>  (2082) 
pdb1e9l

>  <RESIDUE_NAME>  (2082) 
GLU   LEU

>  <FRAG_NAME>  (2082) 
ACET   PRPA

>  <FRAG_ATOM_NUM>  (2082) 
fragi: 7 fragj: 11

>  <atom.prop.CHAIN_ID>  (2082) 
A A A A A A A Z Z Z Z Z Z Z Z Z Z Z

>  <atom.prop.IS_HEAVY_ATOM>  (2082) 
1 0 0 0 1 1 1 1 0 0 0 1 0 0 1 0 0 0

>  <DIFUSE_FUNC_ATOM>  (2082) 
n/a

>  <FINAL_SINGLE_POINT_ENERGY>  (2082) 
0

>  <NONCOV_INTER_ENERGY_QM>  (2082) 
0

>  <FF_Energy>  (2082) 
28.16

>  <QM_Energy>  (2082) 
6.2

>  <source>  (2082) 
ACET_PRPA_28

>  <Index>  (2082) 
25827

$$$$
ACEH-pdb1e9l-A-GLH-297:PRPA-pdb1e9l-A-LEU-300
     RDKit          3D

 18 16  0  0  0  0  0  0  0  0999 V2000
    0.0692    1.5301    0.0053 C   0  0  0  0  0  0  0  0  0  0  0  0
   -0.2307    1.8416    0.8681 H   0  0  0  0  0  0  0  0  0  0  0  0
   -0.4340    1.8563   -0.7510 H   0  0  0  0  0  0  0  0  0  0  0  0
    1.1017    1.8560   -0.1206 H   0  0  0  0  0  0  0  0  0  0  0  0
    0.0000    0.0000    0.0000 C   0  0  0  0  0  0  0  0  0  0  0  0
   -1.1112   -0.5999    0.0000 O   0  0  0  0  0  0  0  0  0  0  0  0
    1.1112   -0.5916   -0.0000 O   0  0  0  0  0  0  0  0  0  0  0  0
   -1.0261   -1.3228    2.4068 C   0  0  0  0  0  0  0  0  0  0  0  0
   -1.8508   -1.2637    1.7601 H   0  0  0  0  0  0  0  0  0  0  0  0
   -0.3805   -0.5987    2.0089 H   0  0  0  0  0  0  0  0  0  0  0  0
   -1.3611   -0.9435    3.3722 H   0  0  0  0  0  0  0  0  0  0  0  0
   -0.3687   -2.6707    2.1172 C   0  0  0  0  0  0  0  0  0  0  0  0
   -0.5985   -3.3046    2.8453 H   0  0  0  0  0  0  0  0  0  0  0  0
    0.7160   -2.5721    2.0743 H   0  0  0  0  0  0  0  0  0  0  0  0
   -0.8992   -3.1863    0.8020 C   0  0  0  0  0  0  0  0  0  0  0  0
   -0.6818   -2.5382    0.0692 H   0  0  0  0  0  0  0  0  0  0  0  0
   -0.4811   -4.0725    0.5897 H   0  0  0  0  0  0  0  0  0  0  0  0
   -1.8942   -3.2976    0.8556 H   0  0  0  0  0  0  0  0  0  0  0  0
  1  5  1  0
  5  6  2  0
  5  7  1  0
  1  2  1  0
  1  3  1  0
  1  4  1  0
  8 12  1  0
 12 15  1  0
  8  9  1  0
  8 10  1  0
  8 11  1  0
 12 13  1  0
 12 14  1  0
 15 16  1  0
 15 17  1  0
 15 18  1  0
M  CHG  1   7  -1
V    7 [O&-]
M  END
>  <PDB_ID>  (2083) 
pdb1e9l

>  <RESIDUE_NAME>  (2083) 
GLU   LEU

>  <FRAG_NAME>  (2083) 
ACET   PRPA

>  <FRAG_ATOM_NUM>  (2083) 
fragi: 7 fragj: 11

>  <atom.prop.CHAIN_ID>  (2083) 
A A A A A A A Z Z Z Z Z Z Z Z Z Z Z

>  <atom.prop.IS_HEAVY_ATOM>  (2083) 
1 0 0 0 1 1 1 1 0 0 0 1 0 0 1 0 0 0

>  <DIFUSE_FUNC_ATOM>  (2083) 
n/a

>  <FINAL_SINGLE_POINT_ENERGY>  (2083) 
0

>  <NONCOV_INTER_ENERGY_QM>  (2083) 
0

>  <FF_Energy>  (2083) 
41.58

>  <QM_Energy>  (2083) 
9.04

>  <source>  (2083) 
ACET_PRPA_28

>  <Index>  (2083) 
25880

$$$$
ACEH-pdb2e5w-B-GLH-64:PRPA-pdb2e5w-B-LEU-258
     RDKit          3D

 18 16  0  0  0  0  0  0  0  0999 V2000
   -0.0043    1.5122    0.0173 C   0  0  0  0  0  0  0  0  0  0  0  0
   -0.2310    1.8022    0.9286 H   0  0  0  0  0  0  0  0  0  0  0  0
   -0.6630    1.8184   -0.6454 H   0  0  0  0  0  0  0  0  0  0  0  0
    0.9632    1.9415   -0.2431 H   0  0  0  0  0  0  0  0  0  0  0  0
    0.0000    0.0000    0.0000 C   0  0  0  0  0  0  0  0  0  0  0  0
   -1.0985   -0.5990   -0.0000 O   0  0  0  0  0  0  0  0  0  0  0  0
    1.0985   -0.5927    0.0000 O   0  0  0  0  0  0  0  0  0  0  0  0
   -2.1880   -1.4470   -2.3278 C   0  0  0  0  0  0  0  0  0  0  0  0
   -2.7481   -2.1067   -1.8373 H   0  0  0  0  0  0  0  0  0  0  0  0
   -1.3857   -1.2066   -1.7934 H   0  0  0  0  0  0  0  0  0  0  0  0
   -1.8459   -1.9191   -3.2488 H   0  0  0  0  0  0  0  0  0  0  0  0
   -3.0250   -0.1742   -2.4990 C   0  0  0  0  0  0  0  0  0  0  0  0
   -3.9004   -0.4127   -2.9072 H   0  0  0  0  0  0  0  0  0  0  0  0
   -2.5042    0.5191   -3.1595 H   0  0  0  0  0  0  0  0  0  0  0  0
   -3.2655    0.4790   -1.1335 C   0  0  0  0  0  0  0  0  0  0  0  0
   -2.3871    0.7129   -0.7214 H   0  0  0  0  0  0  0  0  0  0  0  0
   -3.8105    1.3066   -1.2560 H   0  0  0  0  0  0  0  0  0  0  0  0
   -3.7542   -0.1620   -0.5437 H   0  0  0  0  0  0  0  0  0  0  0  0
  1  5  1  0
  5  6  2  0
  5  7  1  0
  1  2  1  0
  1  3  1  0
  1  4  1  0
  8 12  1  0
 12 15  1  0
  8  9  1  0
  8 10  1  0
  8 11  1  0
 12 13  1  0
 12 14  1  0
 15 16  1  0
 15 17  1  0
 15 18  1  0
M  CHG  1   7  -1
V    7 [O&-]
M  END
>  <PDB_ID>  (2084) 
pdb2e5w

>  <RESIDUE_NAME>  (2084) 
GLU   LEU

>  <FRAG_NAME>  (2084) 
ACET   PRPA

>  <FRAG_ATOM_NUM>  (2084) 
fragi: 7 fragj: 11

>  <atom.prop.CHAIN_ID>  (2084) 
A A A A A A A Z Z Z Z Z Z Z Z Z Z Z

>  <atom.prop.IS_HEAVY_ATOM>  (2084) 
1 0 0 0 1 1 1 1 0 0 0 1 0 0 1 0 0 0

>  <DIFUSE_FUNC_ATOM>  (2084) 
n/a

>  <FINAL_SINGLE_POINT_ENERGY>  (2084) 
0

>  <NONCOV_INTER_ENERGY_QM>  (2084) 
0

>  <FF_Energy>  (2084) 
29.32

>  <QM_Energy>  (2084) 
5.47

>  <source>  (2084) 
ACET_PRPA_28

>  <Index>  (2084) 
25927

$$$$
ACEH-pdb1e9l-A-GLH-297:PRPA-pdb1e9l-A-LEU-300
     RDKit          3D

 18 16  0  0  0  0  0  0  0  0999 V2000
    0.0692    1.5301    0.0053 C   0  0  0  0  0  0  0  0  0  0  0  0
   -0.2307    1.8416    0.8681 H   0  0  0  0  0  0  0  0  0  0  0  0
   -0.4340    1.8563   -0.7510 H   0  0  0  0  0  0  0  0  0  0  0  0
    1.1017    1.8560   -0.1206 H   0  0  0  0  0  0  0  0  0  0  0  0
    0.0000    0.0000    0.0000 C   0  0  0  0  0  0  0  0  0  0  0  0
   -1.1112   -0.5999    0.0000 O   0  0  0  0  0  0  0  0  0  0  0  0
    1.1112   -0.5916   -0.0000 O   0  0  0  0  0  0  0  0  0  0  0  0
   -1.0261   -1.3228    2.4068 C   0  0  0  0  0  0  0  0  0  0  0  0
   -1.8508   -1.2637    1.7601 H   0  0  0  0  0  0  0  0  0  0  0  0
   -0.3805   -0.5987    2.0089 H   0  0  0  0  0  0  0  0  0  0  0  0
   -1.3611   -0.9435    3.3722 H   0  0  0  0  0  0  0  0  0  0  0  0
   -0.3687   -2.6707    2.1172 C   0  0  0  0  0  0  0  0  0  0  0  0
   -0.5985   -3.3046    2.8453 H   0  0  0  0  0  0  0  0  0  0  0  0
   -0.7519   -3.0431    1.1672 H   0  0  0  0  0  0  0  0  0  0  0  0
    1.1507   -2.5326    2.0572 C   0  0  0  0  0  0  0  0  0  0  0  0
    1.4877   -2.1908    2.9340 H   0  0  0  0  0  0  0  0  0  0  0  0
    1.5584   -3.4262    1.8670 H   0  0  0  0  0  0  0  0  0  0  0  0
    1.3974   -1.8906    1.3314 H   0  0  0  0  0  0  0  0  0  0  0  0
  1  5  1  0
  5  6  2  0
  5  7  1  0
  1  2  1  0
  1  3  1  0
  1  4  1  0
  8 12  1  0
 12 15  1  0
  8  9  1  0
  8 10  1  0
  8 11  1  0
 12 13  1  0
 12 14  1  0
 15 16  1  0
 15 17  1  0
 15 18  1  0
M  CHG  1   7  -1
V    7 [O&-]
M  END
>  <PDB_ID>  (2085) 
pdb1e9l

>  <RESIDUE_NAME>  (2085) 
GLU   LEU

>  <FRAG_NAME>  (2085) 
ACET   PRPA

>  <FRAG_ATOM_NUM>  (2085) 
fragi: 7 fragj: 11

>  <atom.prop.CHAIN_ID>  (2085) 
A A A A A A A Z Z Z Z Z Z Z Z Z Z Z

>  <atom.prop.IS_HEAVY_ATOM>  (2085) 
1 0 0 0 1 1 1 1 0 0 0 1 0 0 1 0 0 0

>  <DIFUSE_FUNC_ATOM>  (2085) 
n/a

>  <FINAL_SINGLE_POINT_ENERGY>  (2085) 
0

>  <NONCOV_INTER_ENERGY_QM>  (2085) 
0

>  <FF_Energy>  (2085) 
45.08

>  <QM_Energy>  (2085) 
8.41

>  <source>  (2085) 
ACET_PRPA_28

>  <Index>  (2085) 
25937

$$$$
ACEH-pdb2e5w-B-GLH-64:PRPA-pdb2e5w-B-LEU-258
     RDKit          3D

 18 16  0  0  0  0  0  0  0  0999 V2000
   -0.0043    1.5122    0.0173 C   0  0  0  0  0  0  0  0  0  0  0  0
   -0.2310    1.8022    0.9286 H   0  0  0  0  0  0  0  0  0  0  0  0
   -0.6630    1.8184   -0.6454 H   0  0  0  0  0  0  0  0  0  0  0  0
    0.9632    1.9415   -0.2431 H   0  0  0  0  0  0  0  0  0  0  0  0
    0.0000    0.0000    0.0000 C   0  0  0  0  0  0  0  0  0  0  0  0
   -1.0985   -0.5990   -0.0000 O   0  0  0  0  0  0  0  0  0  0  0  0
    1.0985   -0.5927    0.0000 O   0  0  0  0  0  0  0  0  0  0  0  0
   -2.1880   -1.4470   -2.3278 C   0  0  0  0  0  0  0  0  0  0  0  0
   -2.7481   -2.1067   -1.8373 H   0  0  0  0  0  0  0  0  0  0  0  0
   -1.3857   -1.2066   -1.7934 H   0  0  0  0  0  0  0  0  0  0  0  0
   -1.8459   -1.9191   -3.2488 H   0  0  0  0  0  0  0  0  0  0  0  0
   -3.0250   -0.1742   -2.4990 C   0  0  0  0  0  0  0  0  0  0  0  0
   -3.9004   -0.4127   -2.9072 H   0  0  0  0  0  0  0  0  0  0  0  0
   -3.1960    0.2904   -1.5279 H   0  0  0  0  0  0  0  0  0  0  0  0
   -2.2919    0.8017   -3.4288 C   0  0  0  0  0  0  0  0  0  0  0  0
   -2.1562    0.3681   -4.3184 H   0  0  0  0  0  0  0  0  0  0  0  0
   -2.8416    1.6282   -3.5361 H   0  0  0  0  0  0  0  0  0  0  0  0
   -1.4072    1.0350   -3.0280 H   0  0  0  0  0  0  0  0  0  0  0  0
  1  5  1  0
  5  6  2  0
  5  7  1  0
  1  2  1  0
  1  3  1  0
  1  4  1  0
  8 12  1  0
 12 15  1  0
  8  9  1  0
  8 10  1  0
  8 11  1  0
 12 13  1  0
 12 14  1  0
 15 16  1  0
 15 17  1  0
 15 18  1  0
M  CHG  1   7  -1
V    7 [O&-]
M  END
>  <PDB_ID>  (2086) 
pdb2e5w

>  <RESIDUE_NAME>  (2086) 
GLU   LEU

>  <FRAG_NAME>  (2086) 
ACET   PRPA

>  <FRAG_ATOM_NUM>  (2086) 
fragi: 7 fragj: 11

>  <atom.prop.CHAIN_ID>  (2086) 
A A A A A A A Z Z Z Z Z Z Z Z Z Z Z

>  <atom.prop.IS_HEAVY_ATOM>  (2086) 
1 0 0 0 1 1 1 1 0 0 0 1 0 0 1 0 0 0

>  <DIFUSE_FUNC_ATOM>  (2086) 
n/a

>  <FINAL_SINGLE_POINT_ENERGY>  (2086) 
0

>  <NONCOV_INTER_ENERGY_QM>  (2086) 
0

>  <FF_Energy>  (2086) 
14.99

>  <QM_Energy>  (2086) 
-0.25

>  <source>  (2086) 
ACET_PRPA_28

>  <Index>  (2086) 
25994

$$$$
ACEH-pdb1e9l-A-GLH-297:PRPA-pdb1e9l-A-LEU-300
     RDKit          3D

 18 16  0  0  0  0  0  0  0  0999 V2000
    0.0692    1.5301    0.0053 C   0  0  0  0  0  0  0  0  0  0  0  0
   -0.2307    1.8416    0.8681 H   0  0  0  0  0  0  0  0  0  0  0  0
   -0.4340    1.8563   -0.7510 H   0  0  0  0  0  0  0  0  0  0  0  0
    1.1017    1.8560   -0.1206 H   0  0  0  0  0  0  0  0  0  0  0  0
    0.0000    0.0000    0.0000 C   0  0  0  0  0  0  0  0  0  0  0  0
   -1.1112   -0.5999    0.0000 O   0  0  0  0  0  0  0  0  0  0  0  0
    1.1112   -0.5916   -0.0000 O   0  0  0  0  0  0  0  0  0  0  0  0
   -0.8992   -3.1863    0.8020 C   0  0  0  0  0  0  0  0  0  0  0  0
   -0.6818   -2.5382    0.0692 H   0  0  0  0  0  0  0  0  0  0  0  0
   -0.4811   -4.0725    0.5897 H   0  0  0  0  0  0  0  0  0  0  0  0
   -1.8942   -3.2976    0.8556 H   0  0  0  0  0  0  0  0  0  0  0  0
   -0.3687   -2.6707    2.1172 C   0  0  0  0  0  0  0  0  0  0  0  0
   -0.5985   -3.3046    2.8453 H   0  0  0  0  0  0  0  0  0  0  0  0
   -0.8378   -1.7088    2.3239 H   0  0  0  0  0  0  0  0  0  0  0  0
    1.1507   -2.5326    2.0572 C   0  0  0  0  0  0  0  0  0  0  0  0
    1.4877   -2.1908    2.9340 H   0  0  0  0  0  0  0  0  0  0  0  0
    1.5584   -3.4262    1.8670 H   0  0  0  0  0  0  0  0  0  0  0  0
    1.3974   -1.8906    1.3314 H   0  0  0  0  0  0  0  0  0  0  0  0
  1  5  1  0
  5  6  2  0
  5  7  1  0
  1  2  1  0
  1  3  1  0
  1  4  1  0
  8 12  1  0
 12 15  1  0
  8  9  1  0
  8 10  1  0
  8 11  1  0
 12 13  1  0
 12 14  1  0
 15 16  1  0
 15 17  1  0
 15 18  1  0
M  CHG  1   7  -1
V    7 [O&-]
M  END
>  <PDB_ID>  (2087) 
pdb1e9l

>  <RESIDUE_NAME>  (2087) 
GLU   LEU

>  <FRAG_NAME>  (2087) 
ACET   PRPA

>  <FRAG_ATOM_NUM>  (2087) 
fragi: 7 fragj: 11

>  <atom.prop.CHAIN_ID>  (2087) 
A A A A A A A Z Z Z Z Z Z Z Z Z Z Z

>  <atom.prop.IS_HEAVY_ATOM>  (2087) 
1 0 0 0 1 1 1 1 0 0 0 1 0 0 1 0 0 0

>  <DIFUSE_FUNC_ATOM>  (2087) 
n/a

>  <FINAL_SINGLE_POINT_ENERGY>  (2087) 
0

>  <NONCOV_INTER_ENERGY_QM>  (2087) 
0

>  <FF_Energy>  (2087) 
28.49

>  <QM_Energy>  (2087) 
2.15

>  <source>  (2087) 
ACET_PRPA_28

>  <Index>  (2087) 
25995

$$$$
ACEH-pdb3e1e-E-GLH-37:PRPA-pdb3e1e-E-ARG-101
     RDKit          3D

 18 16  0  0  0  0  0  0  0  0999 V2000
   -0.0051    1.5237   -0.0309 C   0  0  0  0  0  0  0  0  0  0  0  0
   -0.8421    1.8267    0.3922 H   0  0  0  0  0  0  0  0  0  0  0  0
    0.0494    1.8008   -0.9748 H   0  0  0  0  0  0  0  0  0  0  0  0
    0.8281    1.9788    0.5047 H   0  0  0  0  0  0  0  0  0  0  0  0
    0.0000    0.0000    0.0000 C   0  0  0  0  0  0  0  0  0  0  0  0
   -1.1054   -0.5992   -0.0000 O   0  0  0  0  0  0  0  0  0  0  0  0
    1.1054   -0.5911   -0.0000 O   0  0  0  0  0  0  0  0  0  0  0  0
    1.1761    1.6427   -3.9865 C   0  0  0  0  0  0  0  0  0  0  0  0
    1.0152    1.4722   -4.9485 H   0  0  0  0  0  0  0  0  0  0  0  0
    2.0873    1.3612   -3.7228 H   0  0  0  0  0  0  0  0  0  0  0  0
    1.0868    2.7148   -3.8114 H   0  0  0  0  0  0  0  0  0  0  0  0
    0.1763    0.8349   -3.1843 C   0  0  0  0  0  0  0  0  0  0  0  0
    0.4341    0.8516   -2.2109 H   0  0  0  0  0  0  0  0  0  0  0  0
   -0.7392    1.2452   -3.2773 H   0  0  0  0  0  0  0  0  0  0  0  0
    0.0730   -0.6277   -3.6115 C   0  0  0  0  0  0  0  0  0  0  0  0
   -0.0574   -0.6545   -4.5866 H   0  0  0  0  0  0  0  0  0  0  0  0
    0.9010   -1.0858   -3.3369 H   0  0  0  0  0  0  0  0  0  0  0  0
   -0.7811   -1.0901   -3.1168 H   0  0  0  0  0  0  0  0  0  0  0  0
  1  5  1  0
  5  6  2  0
  5  7  1  0
  1  2  1  0
  1  3  1  0
  1  4  1  0
  8 12  1  0
 12 15  1  0
  8  9  1  0
  8 10  1  0
  8 11  1  0
 12 13  1  0
 12 14  1  0
 15 16  1  0
 15 17  1  0
 15 18  1  0
M  CHG  1   7  -1
V    7 [O&-]
M  END
>  <PDB_ID>  (2088) 
pdb3e1e

>  <RESIDUE_NAME>  (2088) 
GLU   ARG

>  <FRAG_NAME>  (2088) 
ACET   PRPA

>  <FRAG_ATOM_NUM>  (2088) 
fragi: 7 fragj: 11

>  <atom.prop.CHAIN_ID>  (2088) 
A A A A A A A Z Z Z Z Z Z Z Z Z Z Z

>  <atom.prop.IS_HEAVY_ATOM>  (2088) 
1 0 0 0 1 1 1 1 0 0 0 1 0 0 1 0 0 0

>  <DIFUSE_FUNC_ATOM>  (2088) 
n/a

>  <FINAL_SINGLE_POINT_ENERGY>  (2088) 
0

>  <NONCOV_INTER_ENERGY_QM>  (2088) 
0

>  <FF_Energy>  (2088) 
18.22

>  <QM_Energy>  (2088) 
0.49

>  <source>  (2088) 
ACET_PRPA_28

>  <Index>  (2088) 
26300

$$$$
ACEH-pdb3e49-B-ASH-174:PRPA-pdb3e49-B-ILE-206
     RDKit          3D

 18 16  0  0  0  0  0  0  0  0999 V2000
   -0.0232    1.4929   -0.0251 C   0  0  0  0  0  0  0  0  0  0  0  0
   -0.6398    1.8276    0.6774 H   0  0  0  0  0  0  0  0  0  0  0  0
   -0.3114    1.8057   -0.9214 H   0  0  0  0  0  0  0  0  0  0  0  0
    0.9597    1.9214    0.1713 H   0  0  0  0  0  0  0  0  0  0  0  0
    0.0000    0.0000    0.0000 C   0  0  0  0  0  0  0  0  0  0  0  0
   -1.1115   -0.5711   -0.0000 O   0  0  0  0  0  0  0  0  0  0  0  0
    1.1115   -0.6260   -0.0000 O   0  0  0  0  0  0  0  0  0  0  0  0
    1.2210   -2.2427    3.0365 C   0  0  0  0  0  0  0  0  0  0  0  0
    0.6615   -2.8694    2.5041 H   0  0  0  0  0  0  0  0  0  0  0  0
    0.5427   -1.4750    3.4089 H   0  0  0  0  0  0  0  0  0  0  0  0
    1.6106   -2.8135    3.8794 H   0  0  0  0  0  0  0  0  0  0  0  0
    2.3565   -1.6169    2.2066 C   0  0  0  0  0  0  0  0  0  0  0  0
    1.9539   -0.9435    1.5931 H   0  0  0  0  0  0  0  0  0  0  0  0
    3.0555   -1.0852    2.8522 H   0  0  0  0  0  0  0  0  0  0  0  0
    3.0580   -2.6768    1.3516 C   0  0  0  0  0  0  0  0  0  0  0  0
    3.6366   -3.2237    1.9347 H   0  0  0  0  0  0  0  0  0  0  0  0
    2.3693   -3.2394    0.9201 H   0  0  0  0  0  0  0  0  0  0  0  0
    3.6708   -2.2204    0.5742 H   0  0  0  0  0  0  0  0  0  0  0  0
  1  5  1  0
  5  6  2  0
  5  7  1  0
  1  2  1  0
  1  3  1  0
  1  4  1  0
  8 12  1  0
 12 15  1  0
  8  9  1  0
  8 10  1  0
  8 11  1  0
 12 13  1  0
 12 14  1  0
 15 16  1  0
 15 17  1  0
 15 18  1  0
M  CHG  1   7  -1
V    7 [O&-]
M  END
>  <PDB_ID>  (2089) 
pdb3e49

>  <RESIDUE_NAME>  (2089) 
ASP   ILE

>  <FRAG_NAME>  (2089) 
ACET   PRPA

>  <FRAG_ATOM_NUM>  (2089) 
fragi: 7 fragj: 11

>  <atom.prop.CHAIN_ID>  (2089) 
A A A A A A A Z Z Z Z Z Z Z Z Z Z Z

>  <atom.prop.IS_HEAVY_ATOM>  (2089) 
1 0 0 0 1 1 1 1 0 0 0 1 0 0 1 0 0 0

>  <DIFUSE_FUNC_ATOM>  (2089) 
n/a

>  <FINAL_SINGLE_POINT_ENERGY>  (2089) 
0

>  <NONCOV_INTER_ENERGY_QM>  (2089) 
0

>  <FF_Energy>  (2089) 
28.07

>  <QM_Energy>  (2089) 
-0.86

>  <source>  (2089) 
ACET_PRPA_28

>  <Index>  (2089) 
27061

$$$$
ACEH-pdb2f59-E-GLH-97:PRPA-pdb2f59-D-ARG-100
     RDKit          3D

 18 16  0  0  0  0  0  0  0  0999 V2000
    0.0088    1.5182    0.0319 C   0  0  0  0  0  0  0  0  0  0  0  0
   -0.9123    1.8193   -0.0862 H   0  0  0  0  0  0  0  0  0  0  0  0
    0.6108    1.8229   -0.6745 H   0  0  0  0  0  0  0  0  0  0  0  0
    0.3768    1.8848    0.9902 H   0  0  0  0  0  0  0  0  0  0  0  0
    0.0000    0.0000    0.0000 C   0  0  0  0  0  0  0  0  0  0  0  0
   -1.1035   -0.6014   -0.0000 O   0  0  0  0  0  0  0  0  0  0  0  0
    1.1035   -0.5894    0.0000 O   0  0  0  0  0  0  0  0  0  0  0  0
    1.5539   -0.9791   -2.7947 C   0  0  0  0  0  0  0  0  0  0  0  0
    1.4990   -0.6907   -1.8366 H   0  0  0  0  0  0  0  0  0  0  0  0
    1.3998   -0.1127   -3.4380 H   0  0  0  0  0  0  0  0  0  0  0  0
    2.5451   -1.3949   -2.9760 H   0  0  0  0  0  0  0  0  0  0  0  0
    0.4932   -2.0359   -3.0793 C   0  0  0  0  0  0  0  0  0  0  0  0
   -0.3921   -1.6718   -2.7864 H   0  0  0  0  0  0  0  0  0  0  0  0
    0.4734   -2.1958   -4.0675 H   0  0  0  0  0  0  0  0  0  0  0  0
    0.7165   -3.3515   -2.3906 C   0  0  0  0  0  0  0  0  0  0  0  0
    1.6232   -3.6949   -2.5984 H   0  0  0  0  0  0  0  0  0  0  0  0
    0.5948   -3.2476   -1.4123 H   0  0  0  0  0  0  0  0  0  0  0  0
   -0.0113   -4.0813   -2.7454 H   0  0  0  0  0  0  0  0  0  0  0  0
  1  5  1  0
  5  6  2  0
  5  7  1  0
  1  2  1  0
  1  3  1  0
  1  4  1  0
  8 12  1  0
 12 15  1  0
  8  9  1  0
  8 10  1  0
  8 11  1  0
 12 13  1  0
 12 14  1  0
 15 16  1  0
 15 17  1  0
 15 18  1  0
M  CHG  1   7  -1
V    7 [O&-]
M  END
>  <PDB_ID>  (2090) 
pdb2f59

>  <RESIDUE_NAME>  (2090) 
GLU   ARG

>  <FRAG_NAME>  (2090) 
ACET   PRPA

>  <FRAG_ATOM_NUM>  (2090) 
fragi: 7 fragj: 11

>  <atom.prop.CHAIN_ID>  (2090) 
A A A A A A A Z Z Z Z Z Z Z Z Z Z Z

>  <atom.prop.IS_HEAVY_ATOM>  (2090) 
1 0 0 0 1 1 1 1 0 0 0 1 0 0 1 0 0 0

>  <DIFUSE_FUNC_ATOM>  (2090) 
n/a

>  <FINAL_SINGLE_POINT_ENERGY>  (2090) 
0

>  <NONCOV_INTER_ENERGY_QM>  (2090) 
0

>  <FF_Energy>  (2090) 
16.91

>  <QM_Energy>  (2090) 
-2.64

>  <source>  (2090) 
ACET_PRPA_28

>  <Index>  (2090) 
28551

$$$$
ACEH-pdb4f06-A-GLH-72:PRPA-pdb4f06-A-LEU-99
     RDKit          3D

 18 16  0  0  0  0  0  0  0  0999 V2000
   -0.0107    1.5318    0.0287 C   0  0  0  0  0  0  0  0  0  0  0  0
   -0.5379    1.7881    0.8298 H   0  0  0  0  0  0  0  0  0  0  0  0
   -0.4737    1.8185   -0.8011 H   0  0  0  0  0  0  0  0  0  0  0  0
    0.9822    1.9788    0.0770 H   0  0  0  0  0  0  0  0  0  0  0  0
    0.0000    0.0000    0.0000 C   0  0  0  0  0  0  0  0  0  0  0  0
   -1.0977   -0.5098   -0.0000 O   0  0  0  0  0  0  0  0  0  0  0  0
    1.0977   -0.6549    0.0000 O   0  0  0  0  0  0  0  0  0  0  0  0
   -1.4647   -3.1546    0.6972 C   0  0  0  0  0  0  0  0  0  0  0  0
   -1.2696   -2.1791    0.8383 H   0  0  0  0  0  0  0  0  0  0  0  0
   -1.6769   -3.3024   -0.3617 H   0  0  0  0  0  0  0  0  0  0  0  0
   -0.5974   -3.7399    1.0028 H   0  0  0  0  0  0  0  0  0  0  0  0
   -2.6961   -3.3534    1.6180 C   0  0  0  0  0  0  0  0  0  0  0  0
   -3.0657   -4.2604    1.4295 H   0  0  0  0  0  0  0  0  0  0  0  0
   -2.3750   -3.3042    2.5592 H   0  0  0  0  0  0  0  0  0  0  0  0
   -3.8473   -2.3461    1.4682 C   0  0  0  0  0  0  0  0  0  0  0  0
   -4.5871   -2.6043    2.0811 H   0  0  0  0  0  0  0  0  0  0  0  0
   -3.5045   -1.3437    1.7248 H   0  0  0  0  0  0  0  0  0  0  0  0
   -4.3566   -2.3808    0.5052 H   0  0  0  0  0  0  0  0  0  0  0  0
  1  5  1  0
  5  6  2  0
  5  7  1  0
  1  2  1  0
  1  3  1  0
  1  4  1  0
  8 12  1  0
 12 15  1  0
  8  9  1  0
  8 10  1  0
  8 11  1  0
 12 13  1  0
 12 14  1  0
 15 16  1  0
 15 17  1  0
 15 18  1  0
M  CHG  1   7  -1
V    7 [O&-]
M  END
>  <PDB_ID>  (2091) 
pdb4f06

>  <RESIDUE_NAME>  (2091) 
GLU   LEU

>  <FRAG_NAME>  (2091) 
ACET   PRPA

>  <FRAG_ATOM_NUM>  (2091) 
fragi: 7 fragj: 11

>  <atom.prop.CHAIN_ID>  (2091) 
A A A A A A A Z Z Z Z Z Z Z Z Z Z Z

>  <atom.prop.IS_HEAVY_ATOM>  (2091) 
1 0 0 0 1 1 1 1 0 0 0 1 0 0 1 0 0 0

>  <DIFUSE_FUNC_ATOM>  (2091) 
n/a

>  <FINAL_SINGLE_POINT_ENERGY>  (2091) 
0

>  <NONCOV_INTER_ENERGY_QM>  (2091) 
0

>  <FF_Energy>  (2091) 
17.79

>  <QM_Energy>  (2091) 
2.03

>  <source>  (2091) 
ACET_PRPA_28

>  <Index>  (2091) 
28715

$$$$
ACEH-pdb2f6q-B-GLH-250:PRPA-pdb2f6q-B-ILE-219
     RDKit          3D

 18 16  0  0  0  0  0  0  0  0999 V2000
   -0.2341    1.5100   -0.0144 C   0  0  0  0  0  0  0  0  0  0  0  0
   -0.7356    1.7395    0.8029 H   0  0  0  0  0  0  0  0  0  0  0  0
   -0.7476    1.7207   -0.8297 H   0  0  0  0  0  0  0  0  0  0  0  0
    0.6804    2.1028   -0.0265 H   0  0  0  0  0  0  0  0  0  0  0  0
    0.0000    0.0000    0.0000 C   0  0  0  0  0  0  0  0  0  0  0  0
   -1.0870   -0.6243    0.0000 O   0  0  0  0  0  0  0  0  0  0  0  0
    1.0870   -0.5279   -0.0000 O   0  0  0  0  0  0  0  0  0  0  0  0
   -3.4651   -0.8967   -1.8636 C   0  0  0  0  0  0  0  0  0  0  0  0
   -3.2353    0.0540   -1.6596 H   0  0  0  0  0  0  0  0  0  0  0  0
   -3.9592   -1.2870   -0.9739 H   0  0  0  0  0  0  0  0  0  0  0  0
   -4.1736   -0.8807   -2.6918 H   0  0  0  0  0  0  0  0  0  0  0  0
   -2.1837   -1.7127   -2.2357 C   0  0  0  0  0  0  0  0  0  0  0  0
   -1.5538   -1.6445   -1.4623 H   0  0  0  0  0  0  0  0  0  0  0  0
   -2.4307   -2.7583   -2.4198 H   0  0  0  0  0  0  0  0  0  0  0  0
   -1.4801   -1.1647   -3.4794 C   0  0  0  0  0  0  0  0  0  0  0  0
   -0.7879   -1.8316   -3.7670 H   0  0  0  0  0  0  0  0  0  0  0  0
   -2.1612   -1.0905   -4.2135 H   0  0  0  0  0  0  0  0  0  0  0  0
   -1.0041   -0.1937   -3.3427 H   0  0  0  0  0  0  0  0  0  0  0  0
  1  5  1  0
  5  6  2  0
  5  7  1  0
  1  2  1  0
  1  3  1  0
  1  4  1  0
  8 12  1  0
 12 15  1  0
  8  9  1  0
  8 10  1  0
  8 11  1  0
 12 13  1  0
 12 14  1  0
 15 16  1  0
 15 17  1  0
 15 18  1  0
M  CHG  1   7  -1
V    7 [O&-]
M  END
>  <PDB_ID>  (2092) 
pdb2f6q

>  <RESIDUE_NAME>  (2092) 
GLU   ILE

>  <FRAG_NAME>  (2092) 
ACET   PRPA

>  <FRAG_ATOM_NUM>  (2092) 
fragi: 7 fragj: 11

>  <atom.prop.CHAIN_ID>  (2092) 
A A A A A A A Z Z Z Z Z Z Z Z Z Z Z

>  <atom.prop.IS_HEAVY_ATOM>  (2092) 
1 0 0 0 1 1 1 1 0 0 0 1 0 0 1 0 0 0

>  <DIFUSE_FUNC_ATOM>  (2092) 
n/a

>  <FINAL_SINGLE_POINT_ENERGY>  (2092) 
0

>  <NONCOV_INTER_ENERGY_QM>  (2092) 
0

>  <FF_Energy>  (2092) 
25.97

>  <QM_Energy>  (2092) 
-1.2

>  <source>  (2092) 
ACET_PRPA_28

>  <Index>  (2092) 
28776

$$$$
ACEH-pdb2f6q-B-GLH-250:PRPA-pdb2f6q-B-ILE-219
     RDKit          3D

 18 16  0  0  0  0  0  0  0  0999 V2000
   -0.2341    1.5100   -0.0144 C   0  0  0  0  0  0  0  0  0  0  0  0
   -0.7356    1.7395    0.8029 H   0  0  0  0  0  0  0  0  0  0  0  0
   -0.7476    1.7207   -0.8297 H   0  0  0  0  0  0  0  0  0  0  0  0
    0.6804    2.1028   -0.0265 H   0  0  0  0  0  0  0  0  0  0  0  0
    0.0000    0.0000    0.0000 C   0  0  0  0  0  0  0  0  0  0  0  0
   -1.0870   -0.6243    0.0000 O   0  0  0  0  0  0  0  0  0  0  0  0
    1.0870   -0.5279   -0.0000 O   0  0  0  0  0  0  0  0  0  0  0  0
   -3.4651   -0.8967   -1.8636 C   0  0  0  0  0  0  0  0  0  0  0  0
   -3.2353    0.0540   -1.6596 H   0  0  0  0  0  0  0  0  0  0  0  0
   -3.9592   -1.2870   -0.9739 H   0  0  0  0  0  0  0  0  0  0  0  0
   -4.1736   -0.8807   -2.6918 H   0  0  0  0  0  0  0  0  0  0  0  0
   -2.1837   -1.7127   -2.2357 C   0  0  0  0  0  0  0  0  0  0  0  0
   -1.5538   -1.6445   -1.4623 H   0  0  0  0  0  0  0  0  0  0  0  0
   -1.6826   -1.3225   -3.1215 H   0  0  0  0  0  0  0  0  0  0  0  0
   -2.5202   -3.1369   -2.4864 C   0  0  0  0  0  0  0  0  0  0  0  0
   -1.6869   -3.6691   -2.6660 H   0  0  0  0  0  0  0  0  0  0  0  0
   -2.9857   -3.5343   -1.6892 H   0  0  0  0  0  0  0  0  0  0  0  0
   -3.1275   -3.2202   -3.2831 H   0  0  0  0  0  0  0  0  0  0  0  0
  1  5  1  0
  5  6  2  0
  5  7  1  0
  1  2  1  0
  1  3  1  0
  1  4  1  0
  8 12  1  0
 12 15  1  0
  8  9  1  0
  8 10  1  0
  8 11  1  0
 12 13  1  0
 12 14  1  0
 15 16  1  0
 15 17  1  0
 15 18  1  0
M  CHG  1   7  -1
V    7 [O&-]
M  END
>  <PDB_ID>  (2093) 
pdb2f6q

>  <RESIDUE_NAME>  (2093) 
GLU   ILE

>  <FRAG_NAME>  (2093) 
ACET   PRPA

>  <FRAG_ATOM_NUM>  (2093) 
fragi: 7 fragj: 11

>  <atom.prop.CHAIN_ID>  (2093) 
A A A A A A A Z Z Z Z Z Z Z Z Z Z Z

>  <atom.prop.IS_HEAVY_ATOM>  (2093) 
1 0 0 0 1 1 1 1 0 0 0 1 0 0 1 0 0 0

>  <DIFUSE_FUNC_ATOM>  (2093) 
n/a

>  <FINAL_SINGLE_POINT_ENERGY>  (2093) 
0

>  <NONCOV_INTER_ENERGY_QM>  (2093) 
0

>  <FF_Energy>  (2093) 
25.71

>  <QM_Energy>  (2093) 
-0.46

>  <source>  (2093) 
ACET_PRPA_28

>  <Index>  (2093) 
28818

$$$$
ACEH-pdb2f6q-B-GLH-250:PRPA-pdb2f6q-B-ILE-219
     RDKit          3D

 18 16  0  0  0  0  0  0  0  0999 V2000
   -0.2341    1.5100   -0.0144 C   0  0  0  0  0  0  0  0  0  0  0  0
   -0.7356    1.7395    0.8029 H   0  0  0  0  0  0  0  0  0  0  0  0
   -0.7476    1.7207   -0.8297 H   0  0  0  0  0  0  0  0  0  0  0  0
    0.6804    2.1028   -0.0265 H   0  0  0  0  0  0  0  0  0  0  0  0
    0.0000    0.0000    0.0000 C   0  0  0  0  0  0  0  0  0  0  0  0
   -1.0870   -0.6243    0.0000 O   0  0  0  0  0  0  0  0  0  0  0  0
    1.0870   -0.5279   -0.0000 O   0  0  0  0  0  0  0  0  0  0  0  0
   -2.1837   -1.7127   -2.2357 C   0  0  0  0  0  0  0  0  0  0  0  0
   -1.5538   -1.6445   -1.4623 H   0  0  0  0  0  0  0  0  0  0  0  0
   -3.0768   -1.1440   -1.9763 H   0  0  0  0  0  0  0  0  0  0  0  0
   -2.4307   -2.7583   -2.4198 H   0  0  0  0  0  0  0  0  0  0  0  0
   -1.4801   -1.1647   -3.4794 C   0  0  0  0  0  0  0  0  0  0  0  0
   -0.7879   -1.8316   -3.7670 H   0  0  0  0  0  0  0  0  0  0  0  0
   -2.1612   -1.0905   -4.2135 H   0  0  0  0  0  0  0  0  0  0  0  0
   -0.8225    0.1767   -3.2907 C   0  0  0  0  0  0  0  0  0  0  0  0
   -0.1288    0.1118   -2.5729 H   0  0  0  0  0  0  0  0  0  0  0  0
   -0.3881    0.4604   -4.1458 H   0  0  0  0  0  0  0  0  0  0  0  0
   -1.5104    0.8530   -3.0276 H   0  0  0  0  0  0  0  0  0  0  0  0
  1  5  1  0
  5  6  2  0
  5  7  1  0
  1  2  1  0
  1  3  1  0
  1  4  1  0
  8 12  1  0
 12 15  1  0
  8  9  1  0
  8 10  1  0
  8 11  1  0
 12 13  1  0
 12 14  1  0
 15 16  1  0
 15 17  1  0
 15 18  1  0
M  CHG  1   7  -1
V    7 [O&-]
M  END
>  <PDB_ID>  (2094) 
pdb2f6q

>  <RESIDUE_NAME>  (2094) 
GLU   ILE

>  <FRAG_NAME>  (2094) 
ACET   PRPA

>  <FRAG_ATOM_NUM>  (2094) 
fragi: 7 fragj: 11

>  <atom.prop.CHAIN_ID>  (2094) 
A A A A A A A Z Z Z Z Z Z Z Z Z Z Z

>  <atom.prop.IS_HEAVY_ATOM>  (2094) 
1 0 0 0 1 1 1 1 0 0 0 1 0 0 1 0 0 0

>  <DIFUSE_FUNC_ATOM>  (2094) 
n/a

>  <FINAL_SINGLE_POINT_ENERGY>  (2094) 
0

>  <NONCOV_INTER_ENERGY_QM>  (2094) 
0

>  <FF_Energy>  (2094) 
22.71

>  <QM_Energy>  (2094) 
-0.2

>  <source>  (2094) 
ACET_PRPA_28

>  <Index>  (2094) 
28868

$$$$
ACEH-pdb2f6q-B-GLH-250:PRPA-pdb2f6q-B-ILE-219
     RDKit          3D

 18 16  0  0  0  0  0  0  0  0999 V2000
   -0.2341    1.5100   -0.0144 C   0  0  0  0  0  0  0  0  0  0  0  0
   -0.7356    1.7395    0.8029 H   0  0  0  0  0  0  0  0  0  0  0  0
   -0.7476    1.7207   -0.8297 H   0  0  0  0  0  0  0  0  0  0  0  0
    0.6804    2.1028   -0.0265 H   0  0  0  0  0  0  0  0  0  0  0  0
    0.0000    0.0000    0.0000 C   0  0  0  0  0  0  0  0  0  0  0  0
   -1.0870   -0.6243    0.0000 O   0  0  0  0  0  0  0  0  0  0  0  0
    1.0870   -0.5279   -0.0000 O   0  0  0  0  0  0  0  0  0  0  0  0
   -1.4801   -1.1647   -3.4794 C   0  0  0  0  0  0  0  0  0  0  0  0
   -0.7879   -1.8316   -3.7670 H   0  0  0  0  0  0  0  0  0  0  0  0
   -2.1612   -1.0905   -4.2135 H   0  0  0  0  0  0  0  0  0  0  0  0
   -1.0041   -0.1937   -3.3427 H   0  0  0  0  0  0  0  0  0  0  0  0
   -2.1837   -1.7127   -2.2357 C   0  0  0  0  0  0  0  0  0  0  0  0
   -1.5538   -1.6445   -1.4623 H   0  0  0  0  0  0  0  0  0  0  0  0
   -3.0768   -1.1440   -1.9763 H   0  0  0  0  0  0  0  0  0  0  0  0
   -2.5202   -3.1369   -2.4864 C   0  0  0  0  0  0  0  0  0  0  0  0
   -1.6869   -3.6691   -2.6660 H   0  0  0  0  0  0  0  0  0  0  0  0
   -2.9857   -3.5343   -1.6892 H   0  0  0  0  0  0  0  0  0  0  0  0
   -3.1275   -3.2202   -3.2831 H   0  0  0  0  0  0  0  0  0  0  0  0
  1  5  1  0
  5  6  2  0
  5  7  1  0
  1  2  1  0
  1  3  1  0
  1  4  1  0
  8 12  1  0
 12 15  1  0
  8  9  1  0
  8 10  1  0
  8 11  1  0
 12 13  1  0
 12 14  1  0
 15 16  1  0
 15 17  1  0
 15 18  1  0
M  CHG  1   7  -1
V    7 [O&-]
M  END
>  <PDB_ID>  (2095) 
pdb2f6q

>  <RESIDUE_NAME>  (2095) 
GLU   ILE

>  <FRAG_NAME>  (2095) 
ACET   PRPA

>  <FRAG_ATOM_NUM>  (2095) 
fragi: 7 fragj: 11

>  <atom.prop.CHAIN_ID>  (2095) 
A A A A A A A Z Z Z Z Z Z Z Z Z Z Z

>  <atom.prop.IS_HEAVY_ATOM>  (2095) 
1 0 0 0 1 1 1 1 0 0 0 1 0 0 1 0 0 0

>  <DIFUSE_FUNC_ATOM>  (2095) 
n/a

>  <FINAL_SINGLE_POINT_ENERGY>  (2095) 
0

>  <NONCOV_INTER_ENERGY_QM>  (2095) 
0

>  <FF_Energy>  (2095) 
24.41

>  <QM_Energy>  (2095) 
0.53

>  <source>  (2095) 
ACET_PRPA_28

>  <Index>  (2095) 
28920

$$$$
ACEH-pdb2ep5-D-GLH-342:PRPA-pdb2ep5-D-PRO-278
     RDKit          3D

 18 16  0  0  0  0  0  0  0  0999 V2000
   -0.0060    1.5277   -0.0051 C   0  0  0  0  0  0  0  0  0  0  0  0
   -0.4495    1.8253    0.8181 H   0  0  0  0  0  0  0  0  0  0  0  0
   -0.4794    1.8189   -0.8134 H   0  0  0  0  0  0  0  0  0  0  0  0
    0.9951    1.9584   -0.0243 H   0  0  0  0  0  0  0  0  0  0  0  0
    0.0000    0.0000    0.0000 C   0  0  0  0  0  0  0  0  0  0  0  0
   -1.0922   -0.6050    0.0000 O   0  0  0  0  0  0  0  0  0  0  0  0
    1.0922   -0.6037    0.0000 O   0  0  0  0  0  0  0  0  0  0  0  0
   -1.3184   -2.6334    2.9357 C   0  0  0  0  0  0  0  0  0  0  0  0
   -1.9910   -2.8115    2.2184 H   0  0  0  0  0  0  0  0  0  0  0  0
   -1.7221   -2.8262    3.8284 H   0  0  0  0  0  0  0  0  0  0  0  0
   -0.4190   -3.2291    2.7797 H   0  0  0  0  0  0  0  0  0  0  0  0
   -0.8341   -1.2032    2.8670 C   0  0  0  0  0  0  0  0  0  0  0  0
   -0.7466   -0.9172    1.9187 H   0  0  0  0  0  0  0  0  0  0  0  0
   -1.4637   -0.6053    3.3522 H   0  0  0  0  0  0  0  0  0  0  0  0
    0.4969   -1.2666    3.5466 C   0  0  0  0  0  0  0  0  0  0  0  0
    1.0830   -0.5077    3.2813 H   0  0  0  0  0  0  0  0  0  0  0  0
    0.4046   -1.2984    4.5385 H   0  0  0  0  0  0  0  0  0  0  0  0
    0.8944   -2.2084    3.1682 H   0  0  0  0  0  0  0  0  0  0  0  0
  1  5  1  0
  5  6  2  0
  5  7  1  0
  1  2  1  0
  1  3  1  0
  1  4  1  0
  8 12  1  0
 12 15  1  0
  8  9  1  0
  8 10  1  0
  8 11  1  0
 12 13  1  0
 12 14  1  0
 15 16  1  0
 15 17  1  0
 15 18  1  0
M  CHG  1   7  -1
V    7 [O&-]
M  END
>  <PDB_ID>  (2096) 
pdb2ep5

>  <RESIDUE_NAME>  (2096) 
GLU   PRO

>  <FRAG_NAME>  (2096) 
ACET   PRPA

>  <FRAG_ATOM_NUM>  (2096) 
fragi: 7 fragj: 11

>  <atom.prop.CHAIN_ID>  (2096) 
A A A A A A A Z Z Z Z Z Z Z Z Z Z Z

>  <atom.prop.IS_HEAVY_ATOM>  (2096) 
1 0 0 0 1 1 1 1 0 0 0 1 0 0 1 0 0 0

>  <DIFUSE_FUNC_ATOM>  (2096) 
n/a

>  <FINAL_SINGLE_POINT_ENERGY>  (2096) 
0

>  <NONCOV_INTER_ENERGY_QM>  (2096) 
0

>  <FF_Energy>  (2096) 
13.73

>  <QM_Energy>  (2096) 
-2.19

>  <source>  (2096) 
ACET_PRPA_28

>  <Index>  (2096) 
29887

$$$$
ACEH-pdb4ene-A-GLH-414:PRPA-pdb4ene-A-LEU-194
     RDKit          3D

 18 16  0  0  0  0  0  0  0  0999 V2000
    0.0112    1.5246   -0.0048 C   0  0  0  0  0  0  0  0  0  0  0  0
   -0.9183    1.8287    0.0786 H   0  0  0  0  0  0  0  0  0  0  0  0
    0.4261    1.8140   -0.8465 H   0  0  0  0  0  0  0  0  0  0  0  0
    0.5826    1.9500    0.8203 H   0  0  0  0  0  0  0  0  0  0  0  0
    0.0000    0.0000    0.0000 C   0  0  0  0  0  0  0  0  0  0  0  0
   -1.1022   -0.6134   -0.0000 O   0  0  0  0  0  0  0  0  0  0  0  0
    1.1022   -0.5801    0.0000 O   0  0  0  0  0  0  0  0  0  0  0  0
   -1.6396   -1.8731   -2.1316 C   0  0  0  0  0  0  0  0  0  0  0  0
   -1.1090   -1.1633   -1.6758 H   0  0  0  0  0  0  0  0  0  0  0  0
   -1.5200   -1.8105   -3.1177 H   0  0  0  0  0  0  0  0  0  0  0  0
   -1.2534   -2.8397   -1.8080 H   0  0  0  0  0  0  0  0  0  0  0  0
   -3.1095   -1.6070   -1.8309 C   0  0  0  0  0  0  0  0  0  0  0  0
   -3.2411   -1.5851   -0.8431 H   0  0  0  0  0  0  0  0  0  0  0  0
   -3.7244   -2.4208   -2.2150 H   0  0  0  0  0  0  0  0  0  0  0  0
   -3.5144   -0.2742   -2.4264 C   0  0  0  0  0  0  0  0  0  0  0  0
   -3.3771   -0.2911   -3.4183 H   0  0  0  0  0  0  0  0  0  0  0  0
   -4.4804   -0.0965   -2.2303 H   0  0  0  0  0  0  0  0  0  0  0  0
   -2.9566    0.4571   -2.0292 H   0  0  0  0  0  0  0  0  0  0  0  0
  1  5  1  0
  5  6  2  0
  5  7  1  0
  1  2  1  0
  1  3  1  0
  1  4  1  0
  8 12  1  0
 12 15  1  0
  8  9  1  0
  8 10  1  0
  8 11  1  0
 12 13  1  0
 12 14  1  0
 15 16  1  0
 15 17  1  0
 15 18  1  0
M  CHG  1   7  -1
V    7 [O&-]
M  END
>  <PDB_ID>  (2097) 
pdb4ene

>  <RESIDUE_NAME>  (2097) 
GLU   LEU

>  <FRAG_NAME>  (2097) 
ACET   PRPA

>  <FRAG_ATOM_NUM>  (2097) 
fragi: 7 fragj: 11

>  <atom.prop.CHAIN_ID>  (2097) 
A A A A A A A Z Z Z Z Z Z Z Z Z Z Z

>  <atom.prop.IS_HEAVY_ATOM>  (2097) 
1 0 0 0 1 1 1 1 0 0 0 1 0 0 1 0 0 0

>  <DIFUSE_FUNC_ATOM>  (2097) 
n/a

>  <FINAL_SINGLE_POINT_ENERGY>  (2097) 
0

>  <NONCOV_INTER_ENERGY_QM>  (2097) 
0

>  <FF_Energy>  (2097) 
46.18

>  <QM_Energy>  (2097) 
4.38

>  <source>  (2097) 
ACET_PRPA_28

>  <Index>  (2097) 
30942

$$$$
ACEH-pdb4ene-A-GLH-414:PRPA-pdb4ene-A-LEU-194
     RDKit          3D

 18 16  0  0  0  0  0  0  0  0999 V2000
    0.0112    1.5246   -0.0048 C   0  0  0  0  0  0  0  0  0  0  0  0
   -0.9183    1.8287    0.0786 H   0  0  0  0  0  0  0  0  0  0  0  0
    0.4261    1.8140   -0.8465 H   0  0  0  0  0  0  0  0  0  0  0  0
    0.5826    1.9500    0.8203 H   0  0  0  0  0  0  0  0  0  0  0  0
    0.0000    0.0000    0.0000 C   0  0  0  0  0  0  0  0  0  0  0  0
   -1.1022   -0.6134   -0.0000 O   0  0  0  0  0  0  0  0  0  0  0  0
    1.1022   -0.5801    0.0000 O   0  0  0  0  0  0  0  0  0  0  0  0
   -1.6396   -1.8731   -2.1316 C   0  0  0  0  0  0  0  0  0  0  0  0
   -1.1090   -1.1633   -1.6758 H   0  0  0  0  0  0  0  0  0  0  0  0
   -1.5200   -1.8105   -3.1177 H   0  0  0  0  0  0  0  0  0  0  0  0
   -1.2534   -2.8397   -1.8080 H   0  0  0  0  0  0  0  0  0  0  0  0
   -3.1095   -1.6070   -1.8309 C   0  0  0  0  0  0  0  0  0  0  0  0
   -3.2411   -1.5851   -0.8431 H   0  0  0  0  0  0  0  0  0  0  0  0
   -3.4008   -0.6481   -2.2594 H   0  0  0  0  0  0  0  0  0  0  0  0
   -3.9645   -2.7387   -2.3651 C   0  0  0  0  0  0  0  0  0  0  0  0
   -3.6932   -3.6004   -1.9324 H   0  0  0  0  0  0  0  0  0  0  0  0
   -4.9294   -2.5571   -2.1638 H   0  0  0  0  0  0  0  0  0  0  0  0
   -3.8431   -2.8145   -3.3563 H   0  0  0  0  0  0  0  0  0  0  0  0
  1  5  1  0
  5  6  2  0
  5  7  1  0
  1  2  1  0
  1  3  1  0
  1  4  1  0
  8 12  1  0
 12 15  1  0
  8  9  1  0
  8 10  1  0
  8 11  1  0
 12 13  1  0
 12 14  1  0
 15 16  1  0
 15 17  1  0
 15 18  1  0
M  CHG  1   7  -1
V    7 [O&-]
M  END
>  <PDB_ID>  (2098) 
pdb4ene

>  <RESIDUE_NAME>  (2098) 
GLU   LEU

>  <FRAG_NAME>  (2098) 
ACET   PRPA

>  <FRAG_ATOM_NUM>  (2098) 
fragi: 7 fragj: 11

>  <atom.prop.CHAIN_ID>  (2098) 
A A A A A A A Z Z Z Z Z Z Z Z Z Z Z

>  <atom.prop.IS_HEAVY_ATOM>  (2098) 
1 0 0 0 1 1 1 1 0 0 0 1 0 0 1 0 0 0

>  <DIFUSE_FUNC_ATOM>  (2098) 
n/a

>  <FINAL_SINGLE_POINT_ENERGY>  (2098) 
0

>  <NONCOV_INTER_ENERGY_QM>  (2098) 
0

>  <FF_Energy>  (2098) 
45.64

>  <QM_Energy>  (2098) 
5.51

>  <source>  (2098) 
ACET_PRPA_28

>  <Index>  (2098) 
31019

$$$$
ACEH-pdb3e6r-D-GLH-94:PRPA-pdb3e6r-D-ILE-134
     RDKit          3D

 18 16  0  0  0  0  0  0  0  0999 V2000
    0.0514    1.5272    0.0275 C   0  0  0  0  0  0  0  0  0  0  0  0
    0.7030    1.8066   -0.6620 H   0  0  0  0  0  0  0  0  0  0  0  0
    0.3514    1.7894    0.9324 H   0  0  0  0  0  0  0  0  0  0  0  0
   -0.9045    2.0085   -0.1791 H   0  0  0  0  0  0  0  0  0  0  0  0
    0.0000    0.0000    0.0000 C   0  0  0  0  0  0  0  0  0  0  0  0
   -1.0978   -0.6245    0.0000 O   0  0  0  0  0  0  0  0  0  0  0  0
    1.0978   -0.5831   -0.0000 O   0  0  0  0  0  0  0  0  0  0  0  0
    1.8323    5.1976    3.2842 C   0  0  0  0  0  0  0  0  0  0  0  0
    0.8474    5.2599    3.1872 H   0  0  0  0  0  0  0  0  0  0  0  0
    2.0952    5.5738    4.2728 H   0  0  0  0  0  0  0  0  0  0  0  0
    2.3313    5.7905    2.5176 H   0  0  0  0  0  0  0  0  0  0  0  0
    2.2326    3.7291    3.1664 C   0  0  0  0  0  0  0  0  0  0  0  0
    3.2253    3.6935    3.0314 H   0  0  0  0  0  0  0  0  0  0  0  0
    2.0231    3.2887    4.0436 H   0  0  0  0  0  0  0  0  0  0  0  0
    1.5486    3.0245    2.0779 C   0  0  0  0  0  0  0  0  0  0  0  0
    1.7553    3.4551    1.1913 H   0  0  0  0  0  0  0  0  0  0  0  0
    1.8427    2.0620    2.0384 H   0  0  0  0  0  0  0  0  0  0  0  0
    0.5508    3.0450    2.2138 H   0  0  0  0  0  0  0  0  0  0  0  0
  1  5  1  0
  5  6  2  0
  5  7  1  0
  1  2  1  0
  1  3  1  0
  1  4  1  0
  8 12  1  0
 12 15  1  0
  8  9  1  0
  8 10  1  0
  8 11  1  0
 12 13  1  0
 12 14  1  0
 15 16  1  0
 15 17  1  0
 15 18  1  0
M  CHG  1   7  -1
V    7 [O&-]
M  END
>  <PDB_ID>  (2099) 
pdb3e6r

>  <RESIDUE_NAME>  (2099) 
GLU   ILE

>  <FRAG_NAME>  (2099) 
ACET   PRPA

>  <FRAG_ATOM_NUM>  (2099) 
fragi: 7 fragj: 11

>  <atom.prop.CHAIN_ID>  (2099) 
A A A A A A A Z Z Z Z Z Z Z Z Z Z Z

>  <atom.prop.IS_HEAVY_ATOM>  (2099) 
1 0 0 0 1 1 1 1 0 0 0 1 0 0 1 0 0 0

>  <DIFUSE_FUNC_ATOM>  (2099) 
n/a

>  <FINAL_SINGLE_POINT_ENERGY>  (2099) 
0

>  <NONCOV_INTER_ENERGY_QM>  (2099) 
0

>  <FF_Energy>  (2099) 
20.09

>  <QM_Energy>  (2099) 
4.71

>  <source>  (2099) 
ACET_PRPA_28

>  <Index>  (2099) 
31047

$$$$
ACEH-pdb6hrv-A-ASH-299:PRPA-pdb6hrv-A-ILE-344
     RDKit          3D

 18 16  0  0  0  0  0  0  0  0999 V2000
   -0.0314    1.5208   -0.0345 C   0  0  0  0  0  0  0  0  0  0  0  0
    0.8911    1.8538   -0.1981 H   0  0  0  0  0  0  0  0  0  0  0  0
   -0.3687    1.8519    0.8399 H   0  0  0  0  0  0  0  0  0  0  0  0
   -0.6773    1.9168   -0.8183 H   0  0  0  0  0  0  0  0  0  0  0  0
    0.0000    0.0000    0.0000 C   0  0  0  0  0  0  0  0  0  0  0  0
   -1.0975   -0.5985    0.0000 O   0  0  0  0  0  0  0  0  0  0  0  0
    1.0975   -0.6095    0.0000 O   0  0  0  0  0  0  0  0  0  0  0  0
    2.6761   -2.8712   -1.3352 C   0  0  0  0  0  0  0  0  0  0  0  0
    2.4111   -2.6373   -0.4120 H   0  0  0  0  0  0  0  0  0  0  0  0
    1.9057   -3.5270   -1.7407 H   0  0  0  0  0  0  0  0  0  0  0  0
    3.6594   -3.3385   -1.2812 H   0  0  0  0  0  0  0  0  0  0  0  0
    2.7477   -1.5740   -2.1605 C   0  0  0  0  0  0  0  0  0  0  0  0
    3.2538   -1.7579   -2.9958 H   0  0  0  0  0  0  0  0  0  0  0  0
    1.8204   -1.2985   -2.3911 H   0  0  0  0  0  0  0  0  0  0  0  0
    3.4262   -0.4167   -1.4191 C   0  0  0  0  0  0  0  0  0  0  0  0
    4.3576   -0.6837   -1.1909 H   0  0  0  0  0  0  0  0  0  0  0  0
    3.4358    0.3833   -2.0118 H   0  0  0  0  0  0  0  0  0  0  0  0
    2.9119   -0.2212   -0.5889 H   0  0  0  0  0  0  0  0  0  0  0  0
  1  5  1  0
  5  6  2  0
  5  7  1  0
  1  2  1  0
  1  3  1  0
  1  4  1  0
  8 12  1  0
 12 15  1  0
  8  9  1  0
  8 10  1  0
  8 11  1  0
 12 13  1  0
 12 14  1  0
 15 16  1  0
 15 17  1  0
 15 18  1  0
M  CHG  1   7  -1
V    7 [O&-]
M  END
>  <PDB_ID>  (2100) 
pdb6hrv

>  <RESIDUE_NAME>  (2100) 
ASP   ILE

>  <FRAG_NAME>  (2100) 
ACET   PRPA

>  <FRAG_ATOM_NUM>  (2100) 
fragi: 7 fragj: 11

>  <atom.prop.CHAIN_ID>  (2100) 
A A A A A A A Z Z Z Z Z Z Z Z Z Z Z

>  <atom.prop.IS_HEAVY_ATOM>  (2100) 
1 0 0 0 1 1 1 1 0 0 0 1 0 0 1 0 0 0

>  <DIFUSE_FUNC_ATOM>  (2100) 
n/a

>  <FINAL_SINGLE_POINT_ENERGY>  (2100) 
0

>  <NONCOV_INTER_ENERGY_QM>  (2100) 
0

>  <FF_Energy>  (2100) 
14.68

>  <QM_Energy>  (2100) 
-1.45

>  <source>  (2100) 
ACET_PRPA_28

>  <Index>  (2100) 
31677

$$$$
ACEH-pdb5h16-C-GLH-98:PRPA-pdb5h16-B-VAL-94
     RDKit          3D

 18 16  0  0  0  0  0  0  0  0999 V2000
    0.0801    1.4815    0.0051 C   0  0  0  0  0  0  0  0  0  0  0  0
    1.0271    1.7396   -0.1297 H   0  0  0  0  0  0  0  0  0  0  0  0
   -0.2537    1.8047    0.8810 H   0  0  0  0  0  0  0  0  0  0  0  0
   -0.5135    1.9523   -0.7787 H   0  0  0  0  0  0  0  0  0  0  0  0
    0.0000    0.0000    0.0000 C   0  0  0  0  0  0  0  0  0  0  0  0
   -1.1237   -0.5991    0.0000 O   0  0  0  0  0  0  0  0  0  0  0  0
    1.1237   -0.5135   -0.0000 O   0  0  0  0  0  0  0  0  0  0  0  0
    0.6098   -4.0500    0.2817 C   0  0  0  0  0  0  0  0  0  0  0  0
    1.3151   -4.7828    0.1761 H   0  0  0  0  0  0  0  0  0  0  0  0
    0.6621   -3.4101   -0.5992 H   0  0  0  0  0  0  0  0  0  0  0  0
   -0.3556   -4.5324    0.4350 H   0  0  0  0  0  0  0  0  0  0  0  0
    1.1458   -3.4275    1.5855 C   0  0  0  0  0  0  0  0  0  0  0  0
    1.0164   -4.0908    2.3099 H   0  0  0  0  0  0  0  0  0  0  0  0
    2.2184   -3.2607    1.4869 H   0  0  0  0  0  0  0  0  0  0  0  0
    0.3912   -2.2181    2.0540 C   0  0  0  0  0  0  0  0  0  0  0  0
    0.7108   -1.4049    1.5604 H   0  0  0  0  0  0  0  0  0  0  0  0
   -0.5896   -2.3409    1.8827 H   0  0  0  0  0  0  0  0  0  0  0  0
    0.5384   -2.0843    3.0371 H   0  0  0  0  0  0  0  0  0  0  0  0
  1  5  1  0
  5  6  2  0
  5  7  1  0
  1  2  1  0
  1  3  1  0
  1  4  1  0
  8 12  1  0
 12 15  1  0
  8  9  1  0
  8 10  1  0
  8 11  1  0
 12 13  1  0
 12 14  1  0
 15 16  1  0
 15 17  1  0
 15 18  1  0
M  CHG  1   7  -1
V    7 [O&-]
M  END
>  <PDB_ID>  (2101) 
pdb5h16

>  <RESIDUE_NAME>  (2101) 
GLU   VAL

>  <FRAG_NAME>  (2101) 
ACET   PRPA

>  <FRAG_ATOM_NUM>  (2101) 
fragi: 7 fragj: 11

>  <atom.prop.CHAIN_ID>  (2101) 
A A A A A A A Z Z Z Z Z Z Z Z Z Z Z

>  <atom.prop.IS_HEAVY_ATOM>  (2101) 
1 0 0 0 1 1 1 1 0 0 0 1 0 0 1 0 0 0

>  <DIFUSE_FUNC_ATOM>  (2101) 
n/a

>  <FINAL_SINGLE_POINT_ENERGY>  (2101) 
0

>  <NONCOV_INTER_ENERGY_QM>  (2101) 
0

>  <FF_Energy>  (2101) 
28.97

>  <QM_Energy>  (2101) 
2.32

>  <source>  (2101) 
ACET_PRPA_28

>  <Index>  (2101) 
31898

$$$$
ACEH-pdb5gp0-A-GLH-62:PRPA-pdb5gp0-A-VAL-18
     RDKit          3D

 18 16  0  0  0  0  0  0  0  0999 V2000
   -0.1740    1.4844   -0.0155 C   0  0  0  0  0  0  0  0  0  0  0  0
   -0.6934    1.7403    0.8010 H   0  0  0  0  0  0  0  0  0  0  0  0
   -0.7056    1.7210   -0.8316 H   0  0  0  0  0  0  0  0  0  0  0  0
    0.7364    2.0835   -0.0283 H   0  0  0  0  0  0  0  0  0  0  0  0
    0.0000    0.0000    0.0000 C   0  0  0  0  0  0  0  0  0  0  0  0
   -1.0894   -0.6081   -0.0000 O   0  0  0  0  0  0  0  0  0  0  0  0
    1.0894   -0.5580    0.0000 O   0  0  0  0  0  0  0  0  0  0  0  0
   -0.3771   -4.2400   -0.7183 C   0  0  0  0  0  0  0  0  0  0  0  0
   -0.8545   -5.0808   -0.9385 H   0  0  0  0  0  0  0  0  0  0  0  0
    0.6214   -4.4922   -0.3612 H   0  0  0  0  0  0  0  0  0  0  0  0
   -0.2435   -3.6737   -1.6399 H   0  0  0  0  0  0  0  0  0  0  0  0
   -1.1803   -3.4407    0.3278 C   0  0  0  0  0  0  0  0  0  0  0  0
   -0.6301   -2.6572    0.6009 H   0  0  0  0  0  0  0  0  0  0  0  0
   -1.4152   -4.0748    1.1828 H   0  0  0  0  0  0  0  0  0  0  0  0
   -2.4724   -2.8830   -0.2805 C   0  0  0  0  0  0  0  0  0  0  0  0
   -2.8212   -3.5281   -0.9575 H   0  0  0  0  0  0  0  0  0  0  0  0
   -3.1475   -2.7555    0.4428 H   0  0  0  0  0  0  0  0  0  0  0  0
   -2.2783   -2.0077   -0.7182 H   0  0  0  0  0  0  0  0  0  0  0  0
  1  5  1  0
  5  6  2  0
  5  7  1  0
  1  2  1  0
  1  3  1  0
  1  4  1  0
  8 12  1  0
 12 15  1  0
  8  9  1  0
  8 10  1  0
  8 11  1  0
 12 13  1  0
 12 14  1  0
 15 16  1  0
 15 17  1  0
 15 18  1  0
M  CHG  1   7  -1
V    7 [O&-]
M  END
>  <PDB_ID>  (2102) 
pdb5gp0

>  <RESIDUE_NAME>  (2102) 
GLU   VAL

>  <FRAG_NAME>  (2102) 
ACET   PRPA

>  <FRAG_ATOM_NUM>  (2102) 
fragi: 7 fragj: 11

>  <atom.prop.CHAIN_ID>  (2102) 
A A A A A A A Z Z Z Z Z Z Z Z Z Z Z

>  <atom.prop.IS_HEAVY_ATOM>  (2102) 
1 0 0 0 1 1 1 1 0 0 0 1 0 0 1 0 0 0

>  <DIFUSE_FUNC_ATOM>  (2102) 
n/a

>  <FINAL_SINGLE_POINT_ENERGY>  (2102) 
0

>  <NONCOV_INTER_ENERGY_QM>  (2102) 
0

>  <FF_Energy>  (2102) 
15.52

>  <QM_Energy>  (2102) 
-1.22

>  <source>  (2102) 
ACET_PRPA_28

>  <Index>  (2102) 
32284

$$$$
ACEH-pdb5fau-C-GLH-376:PRPA-pdb5fau-C-LYS-373
     RDKit          3D

 18 16  0  0  0  0  0  0  0  0999 V2000
    0.0130    1.5176   -0.0139 C   0  0  0  0  0  0  0  0  0  0  0  0
    0.5317    1.8076   -0.7813 H   0  0  0  0  0  0  0  0  0  0  0  0
    0.4340    1.8215    0.8055 H   0  0  0  0  0  0  0  0  0  0  0  0
   -0.9869    1.9465   -0.0800 H   0  0  0  0  0  0  0  0  0  0  0  0
    0.0000    0.0000    0.0000 C   0  0  0  0  0  0  0  0  0  0  0  0
   -1.1032   -0.6085    0.0000 O   0  0  0  0  0  0  0  0  0  0  0  0
    1.1032   -0.5876   -0.0000 O   0  0  0  0  0  0  0  0  0  0  0  0
    1.4738   -0.6128    3.8472 C   0  0  0  0  0  0  0  0  0  0  0  0
    1.9166   -0.3928    4.6822 H   0  0  0  0  0  0  0  0  0  0  0  0
    0.5245   -0.7369    4.0045 H   0  0  0  0  0  0  0  0  0  0  0  0
    1.6053    0.2187    3.1548 H   0  0  0  0  0  0  0  0  0  0  0  0
    2.0380   -1.9432    3.3630 C   0  0  0  0  0  0  0  0  0  0  0  0
    3.0017   -1.8635    3.2775 H   0  0  0  0  0  0  0  0  0  0  0  0
    1.8207   -2.6317    4.0119 H   0  0  0  0  0  0  0  0  0  0  0  0
    1.4806   -2.3813    2.0080 C   0  0  0  0  0  0  0  0  0  0  0  0
    1.5757   -1.6531    1.3733 H   0  0  0  0  0  0  0  0  0  0  0  0
    1.9657   -3.1615    1.6998 H   0  0  0  0  0  0  0  0  0  0  0  0
    0.4239   -2.6404    2.0740 H   0  0  0  0  0  0  0  0  0  0  0  0
  1  5  1  0
  5  6  2  0
  5  7  1  0
  1  2  1  0
  1  3  1  0
  1  4  1  0
  8 12  1  0
 12 15  1  0
  8  9  1  0
  8 10  1  0
  8 11  1  0
 12 13  1  0
 12 14  1  0
 15 16  1  0
 15 17  1  0
 15 18  1  0
M  CHG  1   7  -1
V    7 [O&-]
M  END
>  <PDB_ID>  (2103) 
pdb5fau

>  <RESIDUE_NAME>  (2103) 
GLU   LYS

>  <FRAG_NAME>  (2103) 
ACET   PRPA

>  <FRAG_ATOM_NUM>  (2103) 
fragi: 7 fragj: 11

>  <atom.prop.CHAIN_ID>  (2103) 
A A A A A A A Z Z Z Z Z Z Z Z Z Z Z

>  <atom.prop.IS_HEAVY_ATOM>  (2103) 
1 0 0 0 1 1 1 1 0 0 0 1 0 0 1 0 0 0

>  <DIFUSE_FUNC_ATOM>  (2103) 
n/a

>  <FINAL_SINGLE_POINT_ENERGY>  (2103) 
0

>  <NONCOV_INTER_ENERGY_QM>  (2103) 
0

>  <FF_Energy>  (2103) 
28.07

>  <QM_Energy>  (2103) 
1.94

>  <source>  (2103) 
ACET_PRPA_28

>  <Index>  (2103) 
33189

$$$$
ACEH-pdb5fau-C-GLH-376:PRPA-pdb5fau-C-LYS-373
     RDKit          3D

 18 16  0  0  0  0  0  0  0  0999 V2000
    0.0130    1.5176   -0.0139 C   0  0  0  0  0  0  0  0  0  0  0  0
    0.5317    1.8076   -0.7813 H   0  0  0  0  0  0  0  0  0  0  0  0
    0.4340    1.8215    0.8055 H   0  0  0  0  0  0  0  0  0  0  0  0
   -0.9869    1.9465   -0.0800 H   0  0  0  0  0  0  0  0  0  0  0  0
    0.0000    0.0000    0.0000 C   0  0  0  0  0  0  0  0  0  0  0  0
   -1.1032   -0.6085    0.0000 O   0  0  0  0  0  0  0  0  0  0  0  0
    1.1032   -0.5876   -0.0000 O   0  0  0  0  0  0  0  0  0  0  0  0
    2.0380   -1.9432    3.3630 C   0  0  0  0  0  0  0  0  0  0  0  0
    3.0017   -1.8635    3.2775 H   0  0  0  0  0  0  0  0  0  0  0  0
    1.8207   -2.6317    4.0119 H   0  0  0  0  0  0  0  0  0  0  0  0
    1.6345   -0.9917    3.7093 H   0  0  0  0  0  0  0  0  0  0  0  0
    1.4806   -2.3813    2.0080 C   0  0  0  0  0  0  0  0  0  0  0  0
    1.5757   -1.6531    1.3733 H   0  0  0  0  0  0  0  0  0  0  0  0
    1.9657   -3.1615    1.6998 H   0  0  0  0  0  0  0  0  0  0  0  0
   -0.0129   -2.7475    2.1012 C   0  0  0  0  0  0  0  0  0  0  0  0
   -0.1192   -3.5164    2.6818 H   0  0  0  0  0  0  0  0  0  0  0  0
   -0.5080   -1.9899    2.4504 H   0  0  0  0  0  0  0  0  0  0  0  0
   -0.4187   -2.9997    1.1215 H   0  0  0  0  0  0  0  0  0  0  0  0
  1  5  1  0
  5  6  2  0
  5  7  1  0
  1  2  1  0
  1  3  1  0
  1  4  1  0
  8 12  1  0
 12 15  1  0
  8  9  1  0
  8 10  1  0
  8 11  1  0
 12 13  1  0
 12 14  1  0
 15 16  1  0
 15 17  1  0
 15 18  1  0
M  CHG  1   7  -1
V    7 [O&-]
M  END
>  <PDB_ID>  (2104) 
pdb5fau

>  <RESIDUE_NAME>  (2104) 
GLU   LYS

>  <FRAG_NAME>  (2104) 
ACET   PRPA

>  <FRAG_ATOM_NUM>  (2104) 
fragi: 7 fragj: 11

>  <atom.prop.CHAIN_ID>  (2104) 
A A A A A A A Z Z Z Z Z Z Z Z Z Z Z

>  <atom.prop.IS_HEAVY_ATOM>  (2104) 
1 0 0 0 1 1 1 1 0 0 0 1 0 0 1 0 0 0

>  <DIFUSE_FUNC_ATOM>  (2104) 
n/a

>  <FINAL_SINGLE_POINT_ENERGY>  (2104) 
0

>  <NONCOV_INTER_ENERGY_QM>  (2104) 
0

>  <FF_Energy>  (2104) 
33.06

>  <QM_Energy>  (2104) 
1.15

>  <source>  (2104) 
ACET_PRPA_28

>  <Index>  (2104) 
33233

$$$$
ACEH-pdb1fgu-B-ASH-416:PRPA-pdb1fgu-A-ARG-412
     RDKit          3D

 18 16  0  0  0  0  0  0  0  0999 V2000
   -0.0009    1.4654   -0.0072 C   0  0  0  0  0  0  0  0  0  0  0  0
   -0.1036    1.7942   -0.9457 H   0  0  0  0  0  0  0  0  0  0  0  0
    0.8605    1.8024    0.3711 H   0  0  0  0  0  0  0  0  0  0  0  0
   -0.8169    1.8763    0.5872 H   0  0  0  0  0  0  0  0  0  0  0  0
    0.0000    0.0000    0.0000 C   0  0  0  0  0  0  0  0  0  0  0  0
   -1.1254   -0.5469    0.0000 O   0  0  0  0  0  0  0  0  0  0  0  0
    1.1254   -0.5919   -0.0000 O   0  0  0  0  0  0  0  0  0  0  0  0
    2.2132    1.3146   -4.8038 C   0  0  0  0  0  0  0  0  0  0  0  0
    2.9929    1.8771   -4.5209 H   0  0  0  0  0  0  0  0  0  0  0  0
    1.6499    1.8374   -5.4471 H   0  0  0  0  0  0  0  0  0  0  0  0
    2.5897    0.4263   -5.3109 H   0  0  0  0  0  0  0  0  0  0  0  0
    1.3961    1.0119   -3.6075 C   0  0  0  0  0  0  0  0  0  0  0  0
    0.4382    1.1764   -3.8010 H   0  0  0  0  0  0  0  0  0  0  0  0
    1.5460    0.0747   -3.3240 H   0  0  0  0  0  0  0  0  0  0  0  0
    1.8327    1.9146   -2.5312 C   0  0  0  0  0  0  0  0  0  0  0  0
    1.7156    2.8517   -2.8219 H   0  0  0  0  0  0  0  0  0  0  0  0
    1.3116    1.7233   -1.7126 H   0  0  0  0  0  0  0  0  0  0  0  0
    2.8889    1.7280   -2.3368 H   0  0  0  0  0  0  0  0  0  0  0  0
  1  5  1  0
  5  6  2  0
  5  7  1  0
  1  2  1  0
  1  3  1  0
  1  4  1  0
  8 12  1  0
 12 15  1  0
  8  9  1  0
  8 10  1  0
  8 11  1  0
 12 13  1  0
 12 14  1  0
 15 16  1  0
 15 17  1  0
 15 18  1  0
M  CHG  1   7  -1
V    7 [O&-]
M  END
>  <PDB_ID>  (2105) 
pdb1fgu

>  <RESIDUE_NAME>  (2105) 
ASP   ARG

>  <FRAG_NAME>  (2105) 
ACET   PRPA

>  <FRAG_ATOM_NUM>  (2105) 
fragi: 7 fragj: 11

>  <atom.prop.CHAIN_ID>  (2105) 
A A A A A A A Z Z Z Z Z Z Z Z Z Z Z

>  <atom.prop.IS_HEAVY_ATOM>  (2105) 
1 0 0 0 1 1 1 1 0 0 0 1 0 0 1 0 0 0

>  <DIFUSE_FUNC_ATOM>  (2105) 
n/a

>  <FINAL_SINGLE_POINT_ENERGY>  (2105) 
0

>  <NONCOV_INTER_ENERGY_QM>  (2105) 
0

>  <FF_Energy>  (2105) 
18.67

>  <QM_Energy>  (2105) 
2.44

>  <source>  (2105) 
ACET_PRPA_28

>  <Index>  (2105) 
34198

$$$$
ACEH-pdb1fi8-C-ASH-84:PRPA-pdb1fi8-A-VAL-213
     RDKit          3D

 18 16  0  0  0  0  0  0  0  0999 V2000
   -0.0066    1.5279   -0.0347 C   0  0  0  0  0  0  0  0  0  0  0  0
   -0.9106    1.8459    0.2236 H   0  0  0  0  0  0  0  0  0  0  0  0
    0.2192    1.8235   -0.9539 H   0  0  0  0  0  0  0  0  0  0  0  0
    0.7162    1.9698    0.6512 H   0  0  0  0  0  0  0  0  0  0  0  0
    0.0000    0.0000    0.0000 C   0  0  0  0  0  0  0  0  0  0  0  0
   -1.1067   -0.6102    0.0000 O   0  0  0  0  0  0  0  0  0  0  0  0
    1.1067   -0.5975    0.0000 O   0  0  0  0  0  0  0  0  0  0  0  0
   -4.0405   -3.2021    1.0360 C   0  0  0  0  0  0  0  0  0  0  0  0
   -3.8068   -3.7543    0.2309 H   0  0  0  0  0  0  0  0  0  0  0  0
   -4.7915   -3.7423    1.6126 H   0  0  0  0  0  0  0  0  0  0  0  0
   -3.1348   -3.0703    1.6279 H   0  0  0  0  0  0  0  0  0  0  0  0
   -4.5507   -1.8250    0.6404 C   0  0  0  0  0  0  0  0  0  0  0  0
   -4.6906   -1.2936    1.4674 H   0  0  0  0  0  0  0  0  0  0  0  0
   -5.4776   -1.9281    0.0762 H   0  0  0  0  0  0  0  0  0  0  0  0
   -3.4818   -1.0923   -0.1729 C   0  0  0  0  0  0  0  0  0  0  0  0
   -2.8638   -0.6142    0.4489 H   0  0  0  0  0  0  0  0  0  0  0  0
   -2.9672   -1.7553   -0.7138 H   0  0  0  0  0  0  0  0  0  0  0  0
   -3.9229   -0.4338   -0.7800 H   0  0  0  0  0  0  0  0  0  0  0  0
  1  5  1  0
  5  6  2  0
  5  7  1  0
  1  2  1  0
  1  3  1  0
  1  4  1  0
  8 12  1  0
 12 15  1  0
  8  9  1  0
  8 10  1  0
  8 11  1  0
 12 13  1  0
 12 14  1  0
 15 16  1  0
 15 17  1  0
 15 18  1  0
M  CHG  1   7  -1
V    7 [O&-]
M  END
>  <PDB_ID>  (2106) 
pdb1fi8

>  <RESIDUE_NAME>  (2106) 
ASP   VAL

>  <FRAG_NAME>  (2106) 
ACET   PRPA

>  <FRAG_ATOM_NUM>  (2106) 
fragi: 7 fragj: 11

>  <atom.prop.CHAIN_ID>  (2106) 
A A A A A A A Z Z Z Z Z Z Z Z Z Z Z

>  <atom.prop.IS_HEAVY_ATOM>  (2106) 
1 0 0 0 1 1 1 1 0 0 0 1 0 0 1 0 0 0

>  <DIFUSE_FUNC_ATOM>  (2106) 
n/a

>  <FINAL_SINGLE_POINT_ENERGY>  (2106) 
0

>  <NONCOV_INTER_ENERGY_QM>  (2106) 
0

>  <FF_Energy>  (2106) 
38.69

>  <QM_Energy>  (2106) 
7.92

>  <source>  (2106) 
ACET_PRPA_28

>  <Index>  (2106) 
34968

$$$$
ACEH-pdb2fw2-D-GLH-232:PRPA-pdb2fw2-E-LEU-216
     RDKit          3D

 18 16  0  0  0  0  0  0  0  0999 V2000
   -0.0078    1.5199   -0.0024 C   0  0  0  0  0  0  0  0  0  0  0  0
   -0.5139    1.8165    0.7883 H   0  0  0  0  0  0  0  0  0  0  0  0
   -0.4271    1.8138   -0.8425 H   0  0  0  0  0  0  0  0  0  0  0  0
    0.9898    1.9556    0.0512 H   0  0  0  0  0  0  0  0  0  0  0  0
    0.0000    0.0000    0.0000 C   0  0  0  0  0  0  0  0  0  0  0  0
   -1.1069   -0.5965   -0.0000 O   0  0  0  0  0  0  0  0  0  0  0  0
    1.1069   -0.6050   -0.0000 O   0  0  0  0  0  0  0  0  0  0  0  0
    0.3362   -3.9708    0.0217 C   0  0  0  0  0  0  0  0  0  0  0  0
   -0.5858   -4.1021   -0.3171 H   0  0  0  0  0  0  0  0  0  0  0  0
    0.3537   -3.3115    0.7600 H   0  0  0  0  0  0  0  0  0  0  0  0
    0.6825   -4.9251    0.4187 H   0  0  0  0  0  0  0  0  0  0  0  0
    1.1738   -3.4055   -1.1236 C   0  0  0  0  0  0  0  0  0  0  0  0
    1.4397   -4.1526   -1.7322 H   0  0  0  0  0  0  0  0  0  0  0  0
    2.1144   -2.9835   -0.7697 H   0  0  0  0  0  0  0  0  0  0  0  0
    0.3741   -2.3769   -1.9051 C   0  0  0  0  0  0  0  0  0  0  0  0
    0.1062   -1.6282   -1.2980 H   0  0  0  0  0  0  0  0  0  0  0  0
    0.9333   -2.0140   -2.6524 H   0  0  0  0  0  0  0  0  0  0  0  0
   -0.4463   -2.8073   -2.2836 H   0  0  0  0  0  0  0  0  0  0  0  0
  1  5  1  0
  5  6  2  0
  5  7  1  0
  1  2  1  0
  1  3  1  0
  1  4  1  0
  8 12  1  0
 12 15  1  0
  8  9  1  0
  8 10  1  0
  8 11  1  0
 12 13  1  0
 12 14  1  0
 15 16  1  0
 15 17  1  0
 15 18  1  0
M  CHG  1   7  -1
V    7 [O&-]
M  END
>  <PDB_ID>  (2107) 
pdb2fw2

>  <RESIDUE_NAME>  (2107) 
GLU   LEU

>  <FRAG_NAME>  (2107) 
ACET   PRPA

>  <FRAG_ATOM_NUM>  (2107) 
fragi: 7 fragj: 11

>  <atom.prop.CHAIN_ID>  (2107) 
A A A A A A A Z Z Z Z Z Z Z Z Z Z Z

>  <atom.prop.IS_HEAVY_ATOM>  (2107) 
1 0 0 0 1 1 1 1 0 0 0 1 0 0 1 0 0 0

>  <DIFUSE_FUNC_ATOM>  (2107) 
n/a

>  <FINAL_SINGLE_POINT_ENERGY>  (2107) 
0

>  <NONCOV_INTER_ENERGY_QM>  (2107) 
0

>  <FF_Energy>  (2107) 
31.73

>  <QM_Energy>  (2107) 
2.06

>  <source>  (2107) 
ACET_PRPA_28

>  <Index>  (2107) 
35432

$$$$
ACEH-pdb2fw2-D-GLH-232:PRPA-pdb2fw2-E-LEU-216
     RDKit          3D

 18 16  0  0  0  0  0  0  0  0999 V2000
   -0.0078    1.5199   -0.0024 C   0  0  0  0  0  0  0  0  0  0  0  0
   -0.5139    1.8165    0.7883 H   0  0  0  0  0  0  0  0  0  0  0  0
   -0.4271    1.8138   -0.8425 H   0  0  0  0  0  0  0  0  0  0  0  0
    0.9898    1.9556    0.0512 H   0  0  0  0  0  0  0  0  0  0  0  0
    0.0000    0.0000    0.0000 C   0  0  0  0  0  0  0  0  0  0  0  0
   -1.1069   -0.5965   -0.0000 O   0  0  0  0  0  0  0  0  0  0  0  0
    1.1069   -0.6050   -0.0000 O   0  0  0  0  0  0  0  0  0  0  0  0
    0.3741   -2.3769   -1.9051 C   0  0  0  0  0  0  0  0  0  0  0  0
    0.1062   -1.6282   -1.2980 H   0  0  0  0  0  0  0  0  0  0  0  0
    0.9333   -2.0140   -2.6524 H   0  0  0  0  0  0  0  0  0  0  0  0
   -0.4463   -2.8073   -2.2836 H   0  0  0  0  0  0  0  0  0  0  0  0
    1.1738   -3.4055   -1.1236 C   0  0  0  0  0  0  0  0  0  0  0  0
    1.4397   -4.1526   -1.7322 H   0  0  0  0  0  0  0  0  0  0  0  0
    0.5760   -3.8089   -0.3063 H   0  0  0  0  0  0  0  0  0  0  0  0
    2.4915   -2.8142   -0.6278 C   0  0  0  0  0  0  0  0  0  0  0  0
    3.0242   -3.5267   -0.1715 H   0  0  0  0  0  0  0  0  0  0  0  0
    3.0084   -2.4566   -1.4057 H   0  0  0  0  0  0  0  0  0  0  0  0
    2.3019   -2.0739    0.0172 H   0  0  0  0  0  0  0  0  0  0  0  0
  1  5  1  0
  5  6  2  0
  5  7  1  0
  1  2  1  0
  1  3  1  0
  1  4  1  0
  8 12  1  0
 12 15  1  0
  8  9  1  0
  8 10  1  0
  8 11  1  0
 12 13  1  0
 12 14  1  0
 15 16  1  0
 15 17  1  0
 15 18  1  0
M  CHG  1   7  -1
V    7 [O&-]
M  END
>  <PDB_ID>  (2108) 
pdb2fw2

>  <RESIDUE_NAME>  (2108) 
GLU   LEU

>  <FRAG_NAME>  (2108) 
ACET   PRPA

>  <FRAG_ATOM_NUM>  (2108) 
fragi: 7 fragj: 11

>  <atom.prop.CHAIN_ID>  (2108) 
A A A A A A A Z Z Z Z Z Z Z Z Z Z Z

>  <atom.prop.IS_HEAVY_ATOM>  (2108) 
1 0 0 0 1 1 1 1 0 0 0 1 0 0 1 0 0 0

>  <DIFUSE_FUNC_ATOM>  (2108) 
n/a

>  <FINAL_SINGLE_POINT_ENERGY>  (2108) 
0

>  <NONCOV_INTER_ENERGY_QM>  (2108) 
0

>  <FF_Energy>  (2108) 
49.13

>  <QM_Energy>  (2108) 
6.62

>  <source>  (2108) 
ACET_PRPA_28

>  <Index>  (2108) 
35556

$$$$
ACEH-pdb2fw2-F-GLH-232:PRPA-pdb2fw2-F-PRO-144
     RDKit          3D

 18 16  0  0  0  0  0  0  0  0999 V2000
    0.0151    1.5269   -0.0017 C   0  0  0  0  0  0  0  0  0  0  0  0
    0.6308    1.8146   -0.7120 H   0  0  0  0  0  0  0  0  0  0  0  0
    0.3106    1.8181    0.8890 H   0  0  0  0  0  0  0  0  0  0  0  0
   -0.9636    1.9641   -0.1994 H   0  0  0  0  0  0  0  0  0  0  0  0
    0.0000    0.0000    0.0000 C   0  0  0  0  0  0  0  0  0  0  0  0
   -1.0968   -0.6265   -0.0000 O   0  0  0  0  0  0  0  0  0  0  0  0
    1.0968   -0.5801    0.0000 O   0  0  0  0  0  0  0  0  0  0  0  0
    3.6042   -0.1747   -1.0331 C   0  0  0  0  0  0  0  0  0  0  0  0
    4.1593   -0.9386   -1.4652 H   0  0  0  0  0  0  0  0  0  0  0  0
    4.2018    0.7368   -1.0267 H   0  0  0  0  0  0  0  0  0  0  0  0
    2.6060   -0.1496   -1.4704 H   0  0  0  0  0  0  0  0  0  0  0  0
    3.5070   -0.5689    0.4437 C   0  0  0  0  0  0  0  0  0  0  0  0
    2.6438   -0.2546    0.8456 H   0  0  0  0  0  0  0  0  0  0  0  0
    3.5776   -1.5618    0.5588 H   0  0  0  0  0  0  0  0  0  0  0  0
    4.6862    0.1225    1.1341 C   0  0  0  0  0  0  0  0  0  0  0  0
    4.4363    0.3708    2.0713 H   0  0  0  0  0  0  0  0  0  0  0  0
    5.4776   -0.4911    1.1540 H   0  0  0  0  0  0  0  0  0  0  0  0
    4.9069    1.0143    0.5474 H   0  0  0  0  0  0  0  0  0  0  0  0
  1  5  1  0
  5  6  2  0
  5  7  1  0
  1  2  1  0
  1  3  1  0
  1  4  1  0
  8 12  1  0
 12 15  1  0
  8  9  1  0
  8 10  1  0
  8 11  1  0
 12 13  1  0
 12 14  1  0
 15 16  1  0
 15 17  1  0
 15 18  1  0
M  CHG  1   7  -1
V    7 [O&-]
M  END
>  <PDB_ID>  (2109) 
pdb2fw2

>  <RESIDUE_NAME>  (2109) 
GLU   PRO

>  <FRAG_NAME>  (2109) 
ACET   PRPA

>  <FRAG_ATOM_NUM>  (2109) 
fragi: 7 fragj: 11

>  <atom.prop.CHAIN_ID>  (2109) 
A A A A A A A Z Z Z Z Z Z Z Z Z Z Z

>  <atom.prop.IS_HEAVY_ATOM>  (2109) 
1 0 0 0 1 1 1 1 0 0 0 1 0 0 1 0 0 0

>  <DIFUSE_FUNC_ATOM>  (2109) 
n/a

>  <FINAL_SINGLE_POINT_ENERGY>  (2109) 
0

>  <NONCOV_INTER_ENERGY_QM>  (2109) 
0

>  <FF_Energy>  (2109) 
47.75

>  <QM_Energy>  (2109) 
7.23

>  <source>  (2109) 
ACET_PRPA_28

>  <Index>  (2109) 
36072

$$$$
ACEH-pdb2fw2-F-GLH-232:PRPA-pdb2fw2-F-PRO-144
     RDKit          3D

 18 16  0  0  0  0  0  0  0  0999 V2000
    0.0151    1.5269   -0.0017 C   0  0  0  0  0  0  0  0  0  0  0  0
    0.6308    1.8146   -0.7120 H   0  0  0  0  0  0  0  0  0  0  0  0
    0.3106    1.8181    0.8890 H   0  0  0  0  0  0  0  0  0  0  0  0
   -0.9636    1.9641   -0.1994 H   0  0  0  0  0  0  0  0  0  0  0  0
    0.0000    0.0000    0.0000 C   0  0  0  0  0  0  0  0  0  0  0  0
   -1.0968   -0.6265   -0.0000 O   0  0  0  0  0  0  0  0  0  0  0  0
    1.0968   -0.5801    0.0000 O   0  0  0  0  0  0  0  0  0  0  0  0
    3.5070   -0.5689    0.4437 C   0  0  0  0  0  0  0  0  0  0  0  0
    2.6438   -0.2546    0.8456 H   0  0  0  0  0  0  0  0  0  0  0  0
    3.5776   -1.5618    0.5588 H   0  0  0  0  0  0  0  0  0  0  0  0
    3.5762   -0.2883   -0.6072 H   0  0  0  0  0  0  0  0  0  0  0  0
    4.6862    0.1225    1.1341 C   0  0  0  0  0  0  0  0  0  0  0  0
    4.4363    0.3708    2.0713 H   0  0  0  0  0  0  0  0  0  0  0  0
    5.4776   -0.4911    1.1540 H   0  0  0  0  0  0  0  0  0  0  0  0
    4.9970    1.3782    0.3080 C   0  0  0  0  0  0  0  0  0  0  0  0
    4.5604    2.1821    0.7090 H   0  0  0  0  0  0  0  0  0  0  0  0
    5.9832    1.5268    0.2476 H   0  0  0  0  0  0  0  0  0  0  0  0
    4.5774    1.1593   -0.6739 H   0  0  0  0  0  0  0  0  0  0  0  0
  1  5  1  0
  5  6  2  0
  5  7  1  0
  1  2  1  0
  1  3  1  0
  1  4  1  0
  8 12  1  0
 12 15  1  0
  8  9  1  0
  8 10  1  0
  8 11  1  0
 12 13  1  0
 12 14  1  0
 15 16  1  0
 15 17  1  0
 15 18  1  0
M  CHG  1   7  -1
V    7 [O&-]
M  END
>  <PDB_ID>  (2110) 
pdb2fw2

>  <RESIDUE_NAME>  (2110) 
GLU   PRO

>  <FRAG_NAME>  (2110) 
ACET   PRPA

>  <FRAG_ATOM_NUM>  (2110) 
fragi: 7 fragj: 11

>  <atom.prop.CHAIN_ID>  (2110) 
A A A A A A A Z Z Z Z Z Z Z Z Z Z Z

>  <atom.prop.IS_HEAVY_ATOM>  (2110) 
1 0 0 0 1 1 1 1 0 0 0 1 0 0 1 0 0 0

>  <DIFUSE_FUNC_ATOM>  (2110) 
n/a

>  <FINAL_SINGLE_POINT_ENERGY>  (2110) 
0

>  <NONCOV_INTER_ENERGY_QM>  (2110) 
0

>  <FF_Energy>  (2110) 
39.8

>  <QM_Energy>  (2110) 
8.86

>  <source>  (2110) 
ACET_PRPA_28

>  <Index>  (2110) 
36180

$$$$
ACEH-pdb3fal-A-GLH-352:PRPA-pdb3fal-A-ARG-348
     RDKit          3D

 18 16  0  0  0  0  0  0  0  0999 V2000
   -0.0028    1.5324   -0.0065 C   0  0  0  0  0  0  0  0  0  0  0  0
    0.1792    1.8218   -0.9255 H   0  0  0  0  0  0  0  0  0  0  0  0
    0.6856    1.8289    0.6261 H   0  0  0  0  0  0  0  0  0  0  0  0
   -0.9584    1.9563    0.3024 H   0  0  0  0  0  0  0  0  0  0  0  0
    0.0000    0.0000    0.0000 C   0  0  0  0  0  0  0  0  0  0  0  0
   -1.0979   -0.6032    0.0000 O   0  0  0  0  0  0  0  0  0  0  0  0
    1.0979   -0.6063    0.0000 O   0  0  0  0  0  0  0  0  0  0  0  0
    1.3062   -0.1139    3.7828 C   0  0  0  0  0  0  0  0  0  0  0  0
    1.7190    0.2409    2.9420 H   0  0  0  0  0  0  0  0  0  0  0  0
    2.0472   -0.0808    4.5815 H   0  0  0  0  0  0  0  0  0  0  0  0
    0.4555    0.5144    4.0471 H   0  0  0  0  0  0  0  0  0  0  0  0
    0.8109   -1.5448    3.5620 C   0  0  0  0  0  0  0  0  0  0  0  0
    1.0993   -2.1017    4.3552 H   0  0  0  0  0  0  0  0  0  0  0  0
   -0.1997   -1.5276    3.5505 H   0  0  0  0  0  0  0  0  0  0  0  0
    1.2720   -2.2728    2.2970 C   0  0  0  0  0  0  0  0  0  0  0  0
    1.2306   -1.6652    1.5313 H   0  0  0  0  0  0  0  0  0  0  0  0
    2.1628   -2.6518    2.4402 H   0  0  0  0  0  0  0  0  0  0  0  0
    0.5797   -3.0949    2.1156 H   0  0  0  0  0  0  0  0  0  0  0  0
  1  5  1  0
  5  6  2  0
  5  7  1  0
  1  2  1  0
  1  3  1  0
  1  4  1  0
  8 12  1  0
 12 15  1  0
  8  9  1  0
  8 10  1  0
  8 11  1  0
 12 13  1  0
 12 14  1  0
 15 16  1  0
 15 17  1  0
 15 18  1  0
M  CHG  1   7  -1
V    7 [O&-]
M  END
>  <PDB_ID>  (2111) 
pdb3fal

>  <RESIDUE_NAME>  (2111) 
GLU   ARG

>  <FRAG_NAME>  (2111) 
ACET   PRPA

>  <FRAG_ATOM_NUM>  (2111) 
fragi: 7 fragj: 11

>  <atom.prop.CHAIN_ID>  (2111) 
A A A A A A A Z Z Z Z Z Z Z Z Z Z Z

>  <atom.prop.IS_HEAVY_ATOM>  (2111) 
1 0 0 0 1 1 1 1 0 0 0 1 0 0 1 0 0 0

>  <DIFUSE_FUNC_ATOM>  (2111) 
n/a

>  <FINAL_SINGLE_POINT_ENERGY>  (2111) 
0

>  <NONCOV_INTER_ENERGY_QM>  (2111) 
0

>  <FF_Energy>  (2111) 
17.68

>  <QM_Energy>  (2111) 
-1.81

>  <source>  (2111) 
ACET_PRPA_28

>  <Index>  (2111) 
36979

$$$$
ACEH-pdb1fxi-A-GLH-31:PRPA-pdb1fxi-A-ILE-16
     RDKit          3D

 18 16  0  0  0  0  0  0  0  0999 V2000
    0.3323    1.4597    0.1284 C   0  0  0  0  0  0  0  0  0  0  0  0
   -0.4596    1.9468    0.3437 H   0  0  0  0  0  0  0  0  0  0  0  0
    0.8280    1.7401   -0.6384 H   0  0  0  0  0  0  0  0  0  0  0  0
    0.9998    1.5573    0.9846 H   0  0  0  0  0  0  0  0  0  0  0  0
    0.0000    0.0000    0.0000 C   0  0  0  0  0  0  0  0  0  0  0  0
   -1.0713   -0.5571    0.0000 O   0  0  0  0  0  0  0  0  0  0  0  0
    1.0713   -0.6752   -0.0000 O   0  0  0  0  0  0  0  0  0  0  0  0
    0.7047    3.2935   -4.5768 C   0  0  0  0  0  0  0  0  0  0  0  0
    1.1711    2.4630   -4.3627 H   0  0  0  0  0  0  0  0  0  0  0  0
    1.4702    4.0107   -4.8729 H   0  0  0  0  0  0  0  0  0  0  0  0
    0.1719    3.1158   -5.5109 H   0  0  0  0  0  0  0  0  0  0  0  0
   -0.0400    3.9573   -3.3756 C   0  0  0  0  0  0  0  0  0  0  0  0
   -0.7891    4.4655   -3.7287 H   0  0  0  0  0  0  0  0  0  0  0  0
    0.6644    4.6645   -2.9378 H   0  0  0  0  0  0  0  0  0  0  0  0
   -0.5002    3.0719   -2.2077 C   0  0  0  0  0  0  0  0  0  0  0  0
   -0.9331    3.6433   -1.5162 H   0  0  0  0  0  0  0  0  0  0  0  0
   -1.1517    2.3977   -2.5461 H   0  0  0  0  0  0  0  0  0  0  0  0
    0.2914    2.6101   -1.8171 H   0  0  0  0  0  0  0  0  0  0  0  0
  1  5  1  0
  5  6  2  0
  5  7  1  0
  1  2  1  0
  1  3  1  0
  1  4  1  0
  8 12  1  0
 12 15  1  0
  8  9  1  0
  8 10  1  0
  8 11  1  0
 12 13  1  0
 12 14  1  0
 15 16  1  0
 15 17  1  0
 15 18  1  0
M  CHG  1   7  -1
V    7 [O&-]
M  END
>  <PDB_ID>  (2112) 
pdb1fxi

>  <RESIDUE_NAME>  (2112) 
GLU   ILE

>  <FRAG_NAME>  (2112) 
ACET   PRPA

>  <FRAG_ATOM_NUM>  (2112) 
fragi: 7 fragj: 11

>  <atom.prop.CHAIN_ID>  (2112) 
A A A A A A A Z Z Z Z Z Z Z Z Z Z Z

>  <atom.prop.IS_HEAVY_ATOM>  (2112) 
1 0 0 0 1 1 1 1 0 0 0 1 0 0 1 0 0 0

>  <DIFUSE_FUNC_ATOM>  (2112) 
n/a

>  <FINAL_SINGLE_POINT_ENERGY>  (2112) 
0

>  <NONCOV_INTER_ENERGY_QM>  (2112) 
0

>  <FF_Energy>  (2112) 
22.7

>  <QM_Energy>  (2112) 
5.27

>  <source>  (2112) 
ACET_PRPA_28

>  <Index>  (2112) 
37422

$$$$
ACEH-pdb1fxi-A-GLH-31:PRPA-pdb1fxi-A-ILE-16
     RDKit          3D

 18 16  0  0  0  0  0  0  0  0999 V2000
    0.3323    1.4597    0.1284 C   0  0  0  0  0  0  0  0  0  0  0  0
   -0.4596    1.9468    0.3437 H   0  0  0  0  0  0  0  0  0  0  0  0
    0.8280    1.7401   -0.6384 H   0  0  0  0  0  0  0  0  0  0  0  0
    0.9998    1.5573    0.9846 H   0  0  0  0  0  0  0  0  0  0  0  0
    0.0000    0.0000    0.0000 C   0  0  0  0  0  0  0  0  0  0  0  0
   -1.0713   -0.5571    0.0000 O   0  0  0  0  0  0  0  0  0  0  0  0
    1.0713   -0.6752   -0.0000 O   0  0  0  0  0  0  0  0  0  0  0  0
    0.9690    4.9703   -2.7485 C   0  0  0  0  0  0  0  0  0  0  0  0
    1.4277    5.4430   -3.4598 H   0  0  0  0  0  0  0  0  0  0  0  0
    0.4881    5.5557   -2.1413 H   0  0  0  0  0  0  0  0  0  0  0  0
    1.7139    4.4261   -2.1678 H   0  0  0  0  0  0  0  0  0  0  0  0
   -0.0400    3.9573   -3.3756 C   0  0  0  0  0  0  0  0  0  0  0  0
   -0.7891    4.4655   -3.7287 H   0  0  0  0  0  0  0  0  0  0  0  0
    0.4798    3.4939   -4.2141 H   0  0  0  0  0  0  0  0  0  0  0  0
   -0.5002    3.0719   -2.2077 C   0  0  0  0  0  0  0  0  0  0  0  0
   -0.9331    3.6433   -1.5162 H   0  0  0  0  0  0  0  0  0  0  0  0
   -1.1517    2.3977   -2.5461 H   0  0  0  0  0  0  0  0  0  0  0  0
    0.2914    2.6101   -1.8171 H   0  0  0  0  0  0  0  0  0  0  0  0
  1  5  1  0
  5  6  2  0
  5  7  1  0
  1  2  1  0
  1  3  1  0
  1  4  1  0
  8 12  1  0
 12 15  1  0
  8  9  1  0
  8 10  1  0
  8 11  1  0
 12 13  1  0
 12 14  1  0
 15 16  1  0
 15 17  1  0
 15 18  1  0
M  CHG  1   7  -1
V    7 [O&-]
M  END
>  <PDB_ID>  (2113) 
pdb1fxi

>  <RESIDUE_NAME>  (2113) 
GLU   ILE

>  <FRAG_NAME>  (2113) 
ACET   PRPA

>  <FRAG_ATOM_NUM>  (2113) 
fragi: 7 fragj: 11

>  <atom.prop.CHAIN_ID>  (2113) 
A A A A A A A Z Z Z Z Z Z Z Z Z Z Z

>  <atom.prop.IS_HEAVY_ATOM>  (2113) 
1 0 0 0 1 1 1 1 0 0 0 1 0 0 1 0 0 0

>  <DIFUSE_FUNC_ATOM>  (2113) 
n/a

>  <FINAL_SINGLE_POINT_ENERGY>  (2113) 
0

>  <NONCOV_INTER_ENERGY_QM>  (2113) 
0

>  <FF_Energy>  (2113) 
22.31

>  <QM_Energy>  (2113) 
5.34

>  <source>  (2113) 
ACET_PRPA_28

>  <Index>  (2113) 
37471

$$$$
ACEH-pdb2go7-D-GLH-143:PRPA-pdb2go7-D-VAL-137
     RDKit          3D

 18 16  0  0  0  0  0  0  0  0999 V2000
    0.2655    1.5067    0.0135 C   0  0  0  0  0  0  0  0  0  0  0  0
    0.7735    1.7153   -0.8039 H   0  0  0  0  0  0  0  0  0  0  0  0
    0.7850    1.6982    0.8281 H   0  0  0  0  0  0  0  0  0  0  0  0
   -0.6474    2.1020    0.0251 H   0  0  0  0  0  0  0  0  0  0  0  0
    0.0000    0.0000    0.0000 C   0  0  0  0  0  0  0  0  0  0  0  0
   -1.0852   -0.5217    0.0000 O   0  0  0  0  0  0  0  0  0  0  0  0
    1.0852   -0.6412   -0.0000 O   0  0  0  0  0  0  0  0  0  0  0  0
    4.2803   -2.0242   -0.8957 C   0  0  0  0  0  0  0  0  0  0  0  0
    4.4874   -1.5337   -0.0597 H   0  0  0  0  0  0  0  0  0  0  0  0
    4.1477   -2.9896   -0.7170 H   0  0  0  0  0  0  0  0  0  0  0  0
    4.9879   -1.8828   -1.5746 H   0  0  0  0  0  0  0  0  0  0  0  0
    2.9281   -1.4476   -1.4759 C   0  0  0  0  0  0  0  0  0  0  0  0
    2.6302   -0.7551   -0.8365 H   0  0  0  0  0  0  0  0  0  0  0  0
    2.1584   -2.2184   -1.5152 H   0  0  0  0  0  0  0  0  0  0  0  0
    3.1644   -0.8653   -2.8853 C   0  0  0  0  0  0  0  0  0  0  0  0
    3.1556   -1.6120   -3.5445 H   0  0  0  0  0  0  0  0  0  0  0  0
    2.4356   -0.2167   -3.0895 H   0  0  0  0  0  0  0  0  0  0  0  0
    4.0481   -0.4056   -2.8966 H   0  0  0  0  0  0  0  0  0  0  0  0
  1  5  1  0
  5  6  2  0
  5  7  1  0
  1  2  1  0
  1  3  1  0
  1  4  1  0
  8 12  1  0
 12 15  1  0
  8  9  1  0
  8 10  1  0
  8 11  1  0
 12 13  1  0
 12 14  1  0
 15 16  1  0
 15 17  1  0
 15 18  1  0
M  CHG  1   7  -1
V    7 [O&-]
M  END
>  <PDB_ID>  (2114) 
pdb2go7

>  <RESIDUE_NAME>  (2114) 
GLU   VAL

>  <FRAG_NAME>  (2114) 
ACET   PRPA

>  <FRAG_ATOM_NUM>  (2114) 
fragi: 7 fragj: 11

>  <atom.prop.CHAIN_ID>  (2114) 
A A A A A A A Z Z Z Z Z Z Z Z Z Z Z

>  <atom.prop.IS_HEAVY_ATOM>  (2114) 
1 0 0 0 1 1 1 1 0 0 0 1 0 0 1 0 0 0

>  <DIFUSE_FUNC_ATOM>  (2114) 
n/a

>  <FINAL_SINGLE_POINT_ENERGY>  (2114) 
0

>  <NONCOV_INTER_ENERGY_QM>  (2114) 
0

>  <FF_Energy>  (2114) 
47.71

>  <QM_Energy>  (2114) 
6.34

>  <source>  (2114) 
ACET_PRPA_28

>  <Index>  (2114) 
37599

$$$$
ACEH-pdb1fxi-A-GLH-59:PRPA-pdb1fxi-A-ILE-74
     RDKit          3D

 18 16  0  0  0  0  0  0  0  0999 V2000
    0.2683    1.4484    0.0417 C   0  0  0  0  0  0  0  0  0  0  0  0
   -0.6206    1.9313   -0.0024 H   0  0  0  0  0  0  0  0  0  0  0  0
    0.7868    1.6929   -0.7936 H   0  0  0  0  0  0  0  0  0  0  0  0
    0.8144    1.8529    0.8939 H   0  0  0  0  0  0  0  0  0  0  0  0
    0.0000    0.0000    0.0000 C   0  0  0  0  0  0  0  0  0  0  0  0
   -0.9967   -0.6607   -0.0000 O   0  0  0  0  0  0  0  0  0  0  0  0
    0.9967   -0.7481   -0.0000 O   0  0  0  0  0  0  0  0  0  0  0  0
    2.0179   -2.8936   -1.0425 C   0  0  0  0  0  0  0  0  0  0  0  0
    1.5380   -1.9873   -1.0871 H   0  0  0  0  0  0  0  0  0  0  0  0
    1.4240   -3.5784   -1.6480 H   0  0  0  0  0  0  0  0  0  0  0  0
    3.0456   -2.6984   -1.3489 H   0  0  0  0  0  0  0  0  0  0  0  0
    2.4168   -3.3762    0.3949 C   0  0  0  0  0  0  0  0  0  0  0  0
    3.3121   -3.8854    0.2944 H   0  0  0  0  0  0  0  0  0  0  0  0
    2.6865   -2.5198    1.0129 H   0  0  0  0  0  0  0  0  0  0  0  0
    1.4693   -4.2600    1.2081 C   0  0  0  0  0  0  0  0  0  0  0  0
    1.0368   -3.7456    1.8875 H   0  0  0  0  0  0  0  0  0  0  0  0
    0.8936   -4.7505    0.6210 H   0  0  0  0  0  0  0  0  0  0  0  0
    2.1103   -4.9865    1.7075 H   0  0  0  0  0  0  0  0  0  0  0  0
  1  5  1  0
  5  6  2  0
  5  7  1  0
  1  2  1  0
  1  3  1  0
  1  4  1  0
  8 12  1  0
 12 15  1  0
  8  9  1  0
  8 10  1  0
  8 11  1  0
 12 13  1  0
 12 14  1  0
 15 16  1  0
 15 17  1  0
 15 18  1  0
M  CHG  1   7  -1
V    7 [O&-]
M  END
>  <PDB_ID>  (2115) 
pdb1fxi

>  <RESIDUE_NAME>  (2115) 
GLU   ILE

>  <FRAG_NAME>  (2115) 
ACET   PRPA

>  <FRAG_ATOM_NUM>  (2115) 
fragi: 7 fragj: 11

>  <atom.prop.CHAIN_ID>  (2115) 
A A A A A A A Z Z Z Z Z Z Z Z Z Z Z

>  <atom.prop.IS_HEAVY_ATOM>  (2115) 
1 0 0 0 1 1 1 1 0 0 0 1 0 0 1 0 0 0

>  <DIFUSE_FUNC_ATOM>  (2115) 
n/a

>  <FINAL_SINGLE_POINT_ENERGY>  (2115) 
0

>  <NONCOV_INTER_ENERGY_QM>  (2115) 
0

>  <FF_Energy>  (2115) 
49.22

>  <QM_Energy>  (2115) 
2.63

>  <source>  (2115) 
ACET_PRPA_28

>  <Index>  (2115) 
37836

$$$$
ACEH-pdb1fxi-C-GLH-59:PRPA-pdb1fxi-C-ILE-69
     RDKit          3D

 18 16  0  0  0  0  0  0  0  0999 V2000
    0.3894    1.4619   -0.1641 C   0  0  0  0  0  0  0  0  0  0  0  0
    1.2770    1.5583    0.1419 H   0  0  0  0  0  0  0  0  0  0  0  0
   -0.2961    1.9859    0.2183 H   0  0  0  0  0  0  0  0  0  0  0  0
    0.3725    1.5884   -1.2466 H   0  0  0  0  0  0  0  0  0  0  0  0
    0.0000    0.0000    0.0000 C   0  0  0  0  0  0  0  0  0  0  0  0
   -1.1065   -0.4605    0.0000 O   0  0  0  0  0  0  0  0  0  0  0  0
    1.1065   -0.6020    0.0000 O   0  0  0  0  0  0  0  0  0  0  0  0
   -4.3326   -0.4041   -1.6650 C   0  0  0  0  0  0  0  0  0  0  0  0
   -3.4854   -0.9186   -1.8305 H   0  0  0  0  0  0  0  0  0  0  0  0
   -4.7897   -0.8126   -0.7637 H   0  0  0  0  0  0  0  0  0  0  0  0
   -4.9231   -0.5893   -2.5623 H   0  0  0  0  0  0  0  0  0  0  0  0
   -3.9647    1.0955   -1.5628 C   0  0  0  0  0  0  0  0  0  0  0  0
   -4.0848    1.5105   -2.4437 H   0  0  0  0  0  0  0  0  0  0  0  0
   -4.5413    1.5131   -0.8860 H   0  0  0  0  0  0  0  0  0  0  0  0
   -2.4923    1.2742   -1.1268 C   0  0  0  0  0  0  0  0  0  0  0  0
   -1.9084    0.8390   -1.8030 H   0  0  0  0  0  0  0  0  0  0  0  0
   -2.2958    2.2470   -1.0729 H   0  0  0  0  0  0  0  0  0  0  0  0
   -2.3728    0.8455   -0.2379 H   0  0  0  0  0  0  0  0  0  0  0  0
  1  5  1  0
  5  6  2  0
  5  7  1  0
  1  2  1  0
  1  3  1  0
  1  4  1  0
  8 12  1  0
 12 15  1  0
  8  9  1  0
  8 10  1  0
  8 11  1  0
 12 13  1  0
 12 14  1  0
 15 16  1  0
 15 17  1  0
 15 18  1  0
M  CHG  1   7  -1
V    7 [O&-]
M  END
>  <PDB_ID>  (2116) 
pdb1fxi

>  <RESIDUE_NAME>  (2116) 
GLU   ILE

>  <FRAG_NAME>  (2116) 
ACET   PRPA

>  <FRAG_ATOM_NUM>  (2116) 
fragi: 7 fragj: 11

>  <atom.prop.CHAIN_ID>  (2116) 
A A A A A A A Z Z Z Z Z Z Z Z Z Z Z

>  <atom.prop.IS_HEAVY_ATOM>  (2116) 
1 0 0 0 1 1 1 1 0 0 0 1 0 0 1 0 0 0

>  <DIFUSE_FUNC_ATOM>  (2116) 
n/a

>  <FINAL_SINGLE_POINT_ENERGY>  (2116) 
0

>  <NONCOV_INTER_ENERGY_QM>  (2116) 
0

>  <FF_Energy>  (2116) 
35.9

>  <QM_Energy>  (2116) 
9.46

>  <source>  (2116) 
ACET_PRPA_28

>  <Index>  (2116) 
38255

$$$$
ACEH-pdb2gl5-B-GLH-41:PRPA-pdb2gl5-B-LEU-27
     RDKit          3D

 18 16  0  0  0  0  0  0  0  0999 V2000
   -0.0512    1.5253    0.0027 C   0  0  0  0  0  0  0  0  0  0  0  0
   -0.6976    1.7921    0.7084 H   0  0  0  0  0  0  0  0  0  0  0  0
   -0.3797    1.8048   -0.8924 H   0  0  0  0  0  0  0  0  0  0  0  0
    0.8993    2.0225    0.1963 H   0  0  0  0  0  0  0  0  0  0  0  0
    0.0000    0.0000    0.0000 C   0  0  0  0  0  0  0  0  0  0  0  0
   -1.0991   -0.6022    0.0000 O   0  0  0  0  0  0  0  0  0  0  0  0
    1.0991   -0.6012   -0.0000 O   0  0  0  0  0  0  0  0  0  0  0  0
   -0.6668    2.5823   -4.8822 C   0  0  0  0  0  0  0  0  0  0  0  0
   -1.1148    2.7385   -5.7600 H   0  0  0  0  0  0  0  0  0  0  0  0
    0.3173    2.5020   -5.0112 H   0  0  0  0  0  0  0  0  0  0  0  0
   -0.8480    3.4581   -4.2590 H   0  0  0  0  0  0  0  0  0  0  0  0
   -1.1705    1.2306   -4.3466 C   0  0  0  0  0  0  0  0  0  0  0  0
   -2.1725    1.2778   -4.2463 H   0  0  0  0  0  0  0  0  0  0  0  0
   -0.9139    0.3949   -4.9977 H   0  0  0  0  0  0  0  0  0  0  0  0
   -0.6622    0.9665   -2.9400 C   0  0  0  0  0  0  0  0  0  0  0  0
   -0.9827    1.6891   -2.3256 H   0  0  0  0  0  0  0  0  0  0  0  0
   -1.0056    0.0828   -2.6194 H   0  0  0  0  0  0  0  0  0  0  0  0
    0.3391    0.9525   -2.9410 H   0  0  0  0  0  0  0  0  0  0  0  0
  1  5  1  0
  5  6  2  0
  5  7  1  0
  1  2  1  0
  1  3  1  0
  1  4  1  0
  8 12  1  0
 12 15  1  0
  8  9  1  0
  8 10  1  0
  8 11  1  0
 12 13  1  0
 12 14  1  0
 15 16  1  0
 15 17  1  0
 15 18  1  0
M  CHG  1   7  -1
V    7 [O&-]
M  END
>  <PDB_ID>  (2117) 
pdb2gl5

>  <RESIDUE_NAME>  (2117) 
GLU   LEU

>  <FRAG_NAME>  (2117) 
ACET   PRPA

>  <FRAG_ATOM_NUM>  (2117) 
fragi: 7 fragj: 11

>  <atom.prop.CHAIN_ID>  (2117) 
A A A A A A A Z Z Z Z Z Z Z Z Z Z Z

>  <atom.prop.IS_HEAVY_ATOM>  (2117) 
1 0 0 0 1 1 1 1 0 0 0 1 0 0 1 0 0 0

>  <DIFUSE_FUNC_ATOM>  (2117) 
n/a

>  <FINAL_SINGLE_POINT_ENERGY>  (2117) 
0

>  <NONCOV_INTER_ENERGY_QM>  (2117) 
0

>  <FF_Energy>  (2117) 
22.19

>  <QM_Energy>  (2117) 
3.44

>  <source>  (2117) 
ACET_PRPA_28

>  <Index>  (2117) 
38720

$$$$
ACEH-pdb2gl5-B-GLH-41:PRPA-pdb2gl5-B-LEU-27
     RDKit          3D

 18 16  0  0  0  0  0  0  0  0999 V2000
   -0.0512    1.5253    0.0027 C   0  0  0  0  0  0  0  0  0  0  0  0
   -0.6976    1.7921    0.7084 H   0  0  0  0  0  0  0  0  0  0  0  0
   -0.3797    1.8048   -0.8924 H   0  0  0  0  0  0  0  0  0  0  0  0
    0.8993    2.0225    0.1963 H   0  0  0  0  0  0  0  0  0  0  0  0
    0.0000    0.0000    0.0000 C   0  0  0  0  0  0  0  0  0  0  0  0
   -1.0991   -0.6022    0.0000 O   0  0  0  0  0  0  0  0  0  0  0  0
    1.0991   -0.6012   -0.0000 O   0  0  0  0  0  0  0  0  0  0  0  0
   -0.8110    0.0599   -5.2586 C   0  0  0  0  0  0  0  0  0  0  0  0
    0.1828    0.0022   -5.3476 H   0  0  0  0  0  0  0  0  0  0  0  0
   -1.1617   -0.7888   -4.8637 H   0  0  0  0  0  0  0  0  0  0  0  0
   -1.2198    0.2031   -6.1592 H   0  0  0  0  0  0  0  0  0  0  0  0
   -1.1705    1.2306   -4.3466 C   0  0  0  0  0  0  0  0  0  0  0  0
   -2.1725    1.2778   -4.2463 H   0  0  0  0  0  0  0  0  0  0  0  0
   -0.8137    2.1881   -4.7260 H   0  0  0  0  0  0  0  0  0  0  0  0
   -0.6622    0.9665   -2.9400 C   0  0  0  0  0  0  0  0  0  0  0  0
   -0.9827    1.6891   -2.3256 H   0  0  0  0  0  0  0  0  0  0  0  0
   -1.0056    0.0828   -2.6194 H   0  0  0  0  0  0  0  0  0  0  0  0
    0.3391    0.9525   -2.9410 H   0  0  0  0  0  0  0  0  0  0  0  0
  1  5  1  0
  5  6  2  0
  5  7  1  0
  1  2  1  0
  1  3  1  0
  1  4  1  0
  8 12  1  0
 12 15  1  0
  8  9  1  0
  8 10  1  0
  8 11  1  0
 12 13  1  0
 12 14  1  0
 15 16  1  0
 15 17  1  0
 15 18  1  0
M  CHG  1   7  -1
V    7 [O&-]
M  END
>  <PDB_ID>  (2118) 
pdb2gl5

>  <RESIDUE_NAME>  (2118) 
GLU   LEU

>  <FRAG_NAME>  (2118) 
ACET   PRPA

>  <FRAG_ATOM_NUM>  (2118) 
fragi: 7 fragj: 11

>  <atom.prop.CHAIN_ID>  (2118) 
A A A A A A A Z Z Z Z Z Z Z Z Z Z Z

>  <atom.prop.IS_HEAVY_ATOM>  (2118) 
1 0 0 0 1 1 1 1 0 0 0 1 0 0 1 0 0 0

>  <DIFUSE_FUNC_ATOM>  (2118) 
n/a

>  <FINAL_SINGLE_POINT_ENERGY>  (2118) 
0

>  <NONCOV_INTER_ENERGY_QM>  (2118) 
0

>  <FF_Energy>  (2118) 
22.33

>  <QM_Energy>  (2118) 
3.33

>  <source>  (2118) 
ACET_PRPA_28

>  <Index>  (2118) 
38804

$$$$
ACEH-pdb6jh7-B-GLH-152:PRPA-pdb6jh7-B-ILE-220
     RDKit          3D

 18 16  0  0  0  0  0  0  0  0999 V2000
   -0.1765    1.4851   -0.0151 C   0  0  0  0  0  0  0  0  0  0  0  0
   -0.6953    1.7404    0.8012 H   0  0  0  0  0  0  0  0  0  0  0  0
   -0.7059    1.7222   -0.8309 H   0  0  0  0  0  0  0  0  0  0  0  0
    0.7339    2.0843   -0.0271 H   0  0  0  0  0  0  0  0  0  0  0  0
    0.0000    0.0000    0.0000 C   0  0  0  0  0  0  0  0  0  0  0  0
   -1.0893   -0.6087    0.0000 O   0  0  0  0  0  0  0  0  0  0  0  0
    1.0893   -0.5571   -0.0000 O   0  0  0  0  0  0  0  0  0  0  0  0
    3.4031   -2.1565    3.4873 C   0  0  0  0  0  0  0  0  0  0  0  0
    3.9967   -1.8063    2.7573 H   0  0  0  0  0  0  0  0  0  0  0  0
    3.1492   -3.1802    3.2121 H   0  0  0  0  0  0  0  0  0  0  0  0
    3.9937   -2.1386    4.4032 H   0  0  0  0  0  0  0  0  0  0  0  0
    2.1298   -1.2980    3.6584 C   0  0  0  0  0  0  0  0  0  0  0  0
    1.4982   -1.7997    4.2331 H   0  0  0  0  0  0  0  0  0  0  0  0
    2.3603   -0.3408    4.1259 H   0  0  0  0  0  0  0  0  0  0  0  0
    1.4637   -1.0833    2.2926 C   0  0  0  0  0  0  0  0  0  0  0  0
    2.0411   -0.4676    1.7552 H   0  0  0  0  0  0  0  0  0  0  0  0
    1.4254   -1.9672    1.8241 H   0  0  0  0  0  0  0  0  0  0  0  0
    0.4564   -0.6703    2.3445 H   0  0  0  0  0  0  0  0  0  0  0  0
  1  5  1  0
  5  6  2  0
  5  7  1  0
  1  2  1  0
  1  3  1  0
  1  4  1  0
  8 12  1  0
 12 15  1  0
  8  9  1  0
  8 10  1  0
  8 11  1  0
 12 13  1  0
 12 14  1  0
 15 16  1  0
 15 17  1  0
 15 18  1  0
M  CHG  1   7  -1
V    7 [O&-]
M  END
>  <PDB_ID>  (2119) 
pdb6jh7

>  <RESIDUE_NAME>  (2119) 
GLU   ILE

>  <FRAG_NAME>  (2119) 
ACET   PRPA

>  <FRAG_ATOM_NUM>  (2119) 
fragi: 7 fragj: 11

>  <atom.prop.CHAIN_ID>  (2119) 
A A A A A A A Z Z Z Z Z Z Z Z Z Z Z

>  <atom.prop.IS_HEAVY_ATOM>  (2119) 
1 0 0 0 1 1 1 1 0 0 0 1 0 0 1 0 0 0

>  <DIFUSE_FUNC_ATOM>  (2119) 
n/a

>  <FINAL_SINGLE_POINT_ENERGY>  (2119) 
0

>  <NONCOV_INTER_ENERGY_QM>  (2119) 
0

>  <FF_Energy>  (2119) 
29.67

>  <QM_Energy>  (2119) 
7.66

>  <source>  (2119) 
ACET_PRPA_28

>  <Index>  (2119) 
39396

$$$$
ACEH-pdb5ilb-B-GLH-475:PRPA-pdb5ilb-B-LYS-472
     RDKit          3D

 18 16  0  0  0  0  0  0  0  0999 V2000
    0.1726    1.4836    0.0158 C   0  0  0  0  0  0  0  0  0  0  0  0
    0.6918    1.7411   -0.8024 H   0  0  0  0  0  0  0  0  0  0  0  0
    0.7041    1.7220    0.8306 H   0  0  0  0  0  0  0  0  0  0  0  0
   -0.7377    2.0830    0.0281 H   0  0  0  0  0  0  0  0  0  0  0  0
    0.0000    0.0000    0.0000 C   0  0  0  0  0  0  0  0  0  0  0  0
   -1.0893   -0.5585    0.0000 O   0  0  0  0  0  0  0  0  0  0  0  0
    1.0893   -0.6071    0.0000 O   0  0  0  0  0  0  0  0  0  0  0  0
    2.0307    0.1849    2.3209 C   0  0  0  0  0  0  0  0  0  0  0  0
    1.2645   -0.1573    1.7626 H   0  0  0  0  0  0  0  0  0  0  0  0
    2.8929    0.3429    1.6731 H   0  0  0  0  0  0  0  0  0  0  0  0
    1.7253    1.1140    2.8022 H   0  0  0  0  0  0  0  0  0  0  0  0
    2.3446   -0.8524    3.4032 C   0  0  0  0  0  0  0  0  0  0  0  0
    3.2458   -0.6381    3.7878 H   0  0  0  0  0  0  0  0  0  0  0  0
    1.6540   -0.7661    4.1262 H   0  0  0  0  0  0  0  0  0  0  0  0
    2.3617   -2.3003    2.9323 C   0  0  0  0  0  0  0  0  0  0  0  0
    2.7210   -2.3334    1.9983 H   0  0  0  0  0  0  0  0  0  0  0  0
    2.9578   -2.8312    3.5352 H   0  0  0  0  0  0  0  0  0  0  0  0
    1.3637   -2.7382    2.9441 H   0  0  0  0  0  0  0  0  0  0  0  0
  1  5  1  0
  5  6  2  0
  5  7  1  0
  1  2  1  0
  1  3  1  0
  1  4  1  0
  8 12  1  0
 12 15  1  0
  8  9  1  0
  8 10  1  0
  8 11  1  0
 12 13  1  0
 12 14  1  0
 15 16  1  0
 15 17  1  0
 15 18  1  0
M  CHG  1   7  -1
V    7 [O&-]
M  END
>  <PDB_ID>  (2120) 
pdb5ilb

>  <RESIDUE_NAME>  (2120) 
GLU   LYS

>  <FRAG_NAME>  (2120) 
ACET   PRPA

>  <FRAG_ATOM_NUM>  (2120) 
fragi: 7 fragj: 11

>  <atom.prop.CHAIN_ID>  (2120) 
A A A A A A A Z Z Z Z Z Z Z Z Z Z Z

>  <atom.prop.IS_HEAVY_ATOM>  (2120) 
1 0 0 0 1 1 1 1 0 0 0 1 0 0 1 0 0 0

>  <DIFUSE_FUNC_ATOM>  (2120) 
n/a

>  <FINAL_SINGLE_POINT_ENERGY>  (2120) 
0

>  <NONCOV_INTER_ENERGY_QM>  (2120) 
0

>  <FF_Energy>  (2120) 
35.45

>  <QM_Energy>  (2120) 
6.17

>  <source>  (2120) 
ACET_PRPA_28

>  <Index>  (2120) 
39678

$$$$
ACEH-pdb1g5c-E-GLH-147:PRPA-pdb1g5c-A-GLU-130
     RDKit          3D

 18 16  0  0  0  0  0  0  0  0999 V2000
   -0.0125    1.5366    0.0170 C   0  0  0  0  0  0  0  0  0  0  0  0
    0.1845    1.8141    0.9359 H   0  0  0  0  0  0  0  0  0  0  0  0
   -0.9025    1.8191   -0.2814 H   0  0  0  0  0  0  0  0  0  0  0  0
    0.7361    1.9666   -0.6484 H   0  0  0  0  0  0  0  0  0  0  0  0
    0.0000    0.0000    0.0000 C   0  0  0  0  0  0  0  0  0  0  0  0
   -1.0954   -0.5914   -0.0000 O   0  0  0  0  0  0  0  0  0  0  0  0
    1.0954   -0.6130    0.0000 O   0  0  0  0  0  0  0  0  0  0  0  0
   -3.5658   -2.8248    1.4201 C   0  0  0  0  0  0  0  0  0  0  0  0
   -3.9163   -2.6036    2.3380 H   0  0  0  0  0  0  0  0  0  0  0  0
   -2.4760   -2.8048    1.4264 H   0  0  0  0  0  0  0  0  0  0  0  0
   -3.9341   -3.8061    1.1207 H   0  0  0  0  0  0  0  0  0  0  0  0
   -4.1225   -1.7393    0.4917 C   0  0  0  0  0  0  0  0  0  0  0  0
   -5.0848   -1.9261    0.3612 H   0  0  0  0  0  0  0  0  0  0  0  0
   -3.9820   -0.8681    0.9366 H   0  0  0  0  0  0  0  0  0  0  0  0
   -3.4753   -1.6717   -0.8733 C   0  0  0  0  0  0  0  0  0  0  0  0
   -2.5035   -1.6080   -0.7582 H   0  0  0  0  0  0  0  0  0  0  0  0
   -3.7425   -2.4616   -1.3898 H   0  0  0  0  0  0  0  0  0  0  0  0
   -3.7914   -0.7954   -1.4391 H   0  0  0  0  0  0  0  0  0  0  0  0
  1  5  1  0
  5  6  2  0
  5  7  1  0
  1  2  1  0
  1  3  1  0
  1  4  1  0
  8 12  1  0
 12 15  1  0
  8  9  1  0
  8 10  1  0
  8 11  1  0
 12 13  1  0
 12 14  1  0
 15 16  1  0
 15 17  1  0
 15 18  1  0
M  CHG  1   7  -1
V    7 [O&-]
M  END
>  <PDB_ID>  (2121) 
pdb1g5c

>  <RESIDUE_NAME>  (2121) 
GLU   GLU

>  <FRAG_NAME>  (2121) 
ACET   PRPA

>  <FRAG_ATOM_NUM>  (2121) 
fragi: 7 fragj: 11

>  <atom.prop.CHAIN_ID>  (2121) 
A A A A A A A Z Z Z Z Z Z Z Z Z Z Z

>  <atom.prop.IS_HEAVY_ATOM>  (2121) 
1 0 0 0 1 1 1 1 0 0 0 1 0 0 1 0 0 0

>  <DIFUSE_FUNC_ATOM>  (2121) 
n/a

>  <FINAL_SINGLE_POINT_ENERGY>  (2121) 
0

>  <NONCOV_INTER_ENERGY_QM>  (2121) 
0

>  <FF_Energy>  (2121) 
15.87

>  <QM_Energy>  (2121) 
-1.71

>  <source>  (2121) 
ACET_PRPA_28

>  <Index>  (2121) 
40143

$$$$
ACEH-pdb5iwx-A-ASH-39:PRPA-pdb5iwx-A-ILE-21
     RDKit          3D

 18 16  0  0  0  0  0  0  0  0999 V2000
   -0.0551    1.5003   -0.1185 C   0  0  0  0  0  0  0  0  0  0  0  0
   -0.9121    1.8252    0.2781 H   0  0  0  0  0  0  0  0  0  0  0  0
   -0.0162    1.7502   -1.0843 H   0  0  0  0  0  0  0  0  0  0  0  0
    0.7619    2.0108    0.3915 H   0  0  0  0  0  0  0  0  0  0  0  0
    0.0000    0.0000    0.0000 C   0  0  0  0  0  0  0  0  0  0  0  0
   -1.1029   -0.5847    0.0000 O   0  0  0  0  0  0  0  0  0  0  0  0
    1.1029   -0.6212   -0.0000 O   0  0  0  0  0  0  0  0  0  0  0  0
    1.5907   -2.5965    1.8124 C   0  0  0  0  0  0  0  0  0  0  0  0
    1.7210   -1.7268    1.3347 H   0  0  0  0  0  0  0  0  0  0  0  0
    0.7933   -2.4375    2.5382 H   0  0  0  0  0  0  0  0  0  0  0  0
    1.2489   -3.3159    1.0683 H   0  0  0  0  0  0  0  0  0  0  0  0
    2.9036   -3.0507    2.4805 C   0  0  0  0  0  0  0  0  0  0  0  0
    2.7001   -3.8267    3.0542 H   0  0  0  0  0  0  0  0  0  0  0  0
    3.6611   -3.2723    1.7287 H   0  0  0  0  0  0  0  0  0  0  0  0
    3.4033   -1.9161    3.3668 C   0  0  0  0  0  0  0  0  0  0  0  0
    3.3978   -1.0662    2.8249 H   0  0  0  0  0  0  0  0  0  0  0  0
    2.7417   -1.7926    4.1187 H   0  0  0  0  0  0  0  0  0  0  0  0
    4.3960   -2.0554    3.7949 H   0  0  0  0  0  0  0  0  0  0  0  0
  1  5  1  0
  5  6  2  0
  5  7  1  0
  1  2  1  0
  1  3  1  0
  1  4  1  0
  8 12  1  0
 12 15  1  0
  8  9  1  0
  8 10  1  0
  8 11  1  0
 12 13  1  0
 12 14  1  0
 15 16  1  0
 15 17  1  0
 15 18  1  0
M  CHG  1   7  -1
V    7 [O&-]
M  END
>  <PDB_ID>  (2122) 
pdb5iwx

>  <RESIDUE_NAME>  (2122) 
ASP   ILE

>  <FRAG_NAME>  (2122) 
ACET   PRPA

>  <FRAG_ATOM_NUM>  (2122) 
fragi: 7 fragj: 11

>  <atom.prop.CHAIN_ID>  (2122) 
A A A A A A A Z Z Z Z Z Z Z Z Z Z Z

>  <atom.prop.IS_HEAVY_ATOM>  (2122) 
1 0 0 0 1 1 1 1 0 0 0 1 0 0 1 0 0 0

>  <DIFUSE_FUNC_ATOM>  (2122) 
n/a

>  <FINAL_SINGLE_POINT_ENERGY>  (2122) 
0

>  <NONCOV_INTER_ENERGY_QM>  (2122) 
0

>  <FF_Energy>  (2122) 
21.46

>  <QM_Energy>  (2122) 
1.01

>  <source>  (2122) 
ACET_PRPA_28

>  <Index>  (2122) 
41582

$$$$
ACEH-pdb5iwx-A-ASH-39:PRPA-pdb5iwx-A-ILE-21
     RDKit          3D

 18 16  0  0  0  0  0  0  0  0999 V2000
   -0.0551    1.5003   -0.1185 C   0  0  0  0  0  0  0  0  0  0  0  0
   -0.9121    1.8252    0.2781 H   0  0  0  0  0  0  0  0  0  0  0  0
   -0.0162    1.7502   -1.0843 H   0  0  0  0  0  0  0  0  0  0  0  0
    0.7619    2.0108    0.3915 H   0  0  0  0  0  0  0  0  0  0  0  0
    0.0000    0.0000    0.0000 C   0  0  0  0  0  0  0  0  0  0  0  0
   -1.1029   -0.5847    0.0000 O   0  0  0  0  0  0  0  0  0  0  0  0
    1.1029   -0.6212   -0.0000 O   0  0  0  0  0  0  0  0  0  0  0  0
    1.5907   -2.5965    1.8124 C   0  0  0  0  0  0  0  0  0  0  0  0
    1.7210   -1.7268    1.3347 H   0  0  0  0  0  0  0  0  0  0  0  0
    0.7933   -2.4375    2.5382 H   0  0  0  0  0  0  0  0  0  0  0  0
    1.2489   -3.3159    1.0683 H   0  0  0  0  0  0  0  0  0  0  0  0
    2.9036   -3.0507    2.4805 C   0  0  0  0  0  0  0  0  0  0  0  0
    2.7001   -3.8267    3.0542 H   0  0  0  0  0  0  0  0  0  0  0  0
    3.2610   -2.2391    3.1144 H   0  0  0  0  0  0  0  0  0  0  0  0
    3.9759   -3.3645    1.4161 C   0  0  0  0  0  0  0  0  0  0  0  0
    4.8168   -3.6363    1.8747 H   0  0  0  0  0  0  0  0  0  0  0  0
    3.6491   -4.1056    0.8374 H   0  0  0  0  0  0  0  0  0  0  0  0
    4.1347   -2.5496    0.8680 H   0  0  0  0  0  0  0  0  0  0  0  0
  1  5  1  0
  5  6  2  0
  5  7  1  0
  1  2  1  0
  1  3  1  0
  1  4  1  0
  8 12  1  0
 12 15  1  0
  8  9  1  0
  8 10  1  0
  8 11  1  0
 12 13  1  0
 12 14  1  0
 15 16  1  0
 15 17  1  0
 15 18  1  0
M  CHG  1   7  -1
V    7 [O&-]
M  END
>  <PDB_ID>  (2123) 
pdb5iwx

>  <RESIDUE_NAME>  (2123) 
ASP   ILE

>  <FRAG_NAME>  (2123) 
ACET   PRPA

>  <FRAG_ATOM_NUM>  (2123) 
fragi: 7 fragj: 11

>  <atom.prop.CHAIN_ID>  (2123) 
A A A A A A A Z Z Z Z Z Z Z Z Z Z Z

>  <atom.prop.IS_HEAVY_ATOM>  (2123) 
1 0 0 0 1 1 1 1 0 0 0 1 0 0 1 0 0 0

>  <DIFUSE_FUNC_ATOM>  (2123) 
n/a

>  <FINAL_SINGLE_POINT_ENERGY>  (2123) 
0

>  <NONCOV_INTER_ENERGY_QM>  (2123) 
0

>  <FF_Energy>  (2123) 
21.54

>  <QM_Energy>  (2123) 
1.51

>  <source>  (2123) 
ACET_PRPA_28

>  <Index>  (2123) 
41639

$$$$
ACEH-pdb2hjl-A-ASH-114:PRPA-pdb2hjl-A-LEU-156
     RDKit          3D

 18 16  0  0  0  0  0  0  0  0999 V2000
    0.0209    1.5155   -0.0284 C   0  0  0  0  0  0  0  0  0  0  0  0
    0.1859    1.8521    0.8889 H   0  0  0  0  0  0  0  0  0  0  0  0
   -0.8482    1.8434   -0.3729 H   0  0  0  0  0  0  0  0  0  0  0  0
    0.8067    1.9068   -0.6747 H   0  0  0  0  0  0  0  0  0  0  0  0
    0.0000    0.0000    0.0000 C   0  0  0  0  0  0  0  0  0  0  0  0
   -1.1020   -0.5883    0.0000 O   0  0  0  0  0  0  0  0  0  0  0  0
    1.1020   -0.6013   -0.0000 O   0  0  0  0  0  0  0  0  0  0  0  0
   -3.6988    1.4323    3.7898 C   0  0  0  0  0  0  0  0  0  0  0  0
   -4.6236    1.4036    3.3837 H   0  0  0  0  0  0  0  0  0  0  0  0
   -3.2679    2.3038    3.5192 H   0  0  0  0  0  0  0  0  0  0  0  0
   -3.8167    1.4455    4.8733 H   0  0  0  0  0  0  0  0  0  0  0  0
   -2.8924    0.3135    3.1512 C   0  0  0  0  0  0  0  0  0  0  0  0
   -1.9785    0.2878    3.5796 H   0  0  0  0  0  0  0  0  0  0  0  0
   -3.3766   -0.6567    3.2626 H   0  0  0  0  0  0  0  0  0  0  0  0
   -2.8316    0.6659    1.7101 C   0  0  0  0  0  0  0  0  0  0  0  0
   -2.3832    1.5588    1.5830 H   0  0  0  0  0  0  0  0  0  0  0  0
   -2.3096   -0.0269    1.1988 H   0  0  0  0  0  0  0  0  0  0  0  0
   -3.7582    0.7179    1.3199 H   0  0  0  0  0  0  0  0  0  0  0  0
  1  5  1  0
  5  6  2  0
  5  7  1  0
  1  2  1  0
  1  3  1  0
  1  4  1  0
  8 12  1  0
 12 15  1  0
  8  9  1  0
  8 10  1  0
  8 11  1  0
 12 13  1  0
 12 14  1  0
 15 16  1  0
 15 17  1  0
 15 18  1  0
M  CHG  1   7  -1
V    7 [O&-]
M  END
>  <PDB_ID>  (2124) 
pdb2hjl

>  <RESIDUE_NAME>  (2124) 
ASP   LEU

>  <FRAG_NAME>  (2124) 
ACET   PRPA

>  <FRAG_ATOM_NUM>  (2124) 
fragi: 7 fragj: 11

>  <atom.prop.CHAIN_ID>  (2124) 
A A A A A A A Z Z Z Z Z Z Z Z Z Z Z

>  <atom.prop.IS_HEAVY_ATOM>  (2124) 
1 0 0 0 1 1 1 1 0 0 0 1 0 0 1 0 0 0

>  <DIFUSE_FUNC_ATOM>  (2124) 
n/a

>  <FINAL_SINGLE_POINT_ENERGY>  (2124) 
0

>  <NONCOV_INTER_ENERGY_QM>  (2124) 
0

>  <FF_Energy>  (2124) 
29.68

>  <QM_Energy>  (2124) 
2.44

>  <source>  (2124) 
ACET_PRPA_28

>  <Index>  (2124) 
41734

$$$$
ACEH-pdb3g3o-A-ASH-284:PRPA-pdb3g3o-A-LEU-290
     RDKit          3D

 18 16  0  0  0  0  0  0  0  0999 V2000
   -0.0058    1.5502    0.0405 C   0  0  0  0  0  0  0  0  0  0  0  0
   -0.7912    1.8385    0.5660 H   0  0  0  0  0  0  0  0  0  0  0  0
   -0.0527    1.8802   -0.8892 H   0  0  0  0  0  0  0  0  0  0  0  0
    0.8919    1.9550    0.5077 H   0  0  0  0  0  0  0  0  0  0  0  0
    0.0000    0.0000    0.0000 C   0  0  0  0  0  0  0  0  0  0  0  0
   -1.0797   -0.6009   -0.0000 O   0  0  0  0  0  0  0  0  0  0  0  0
    1.0797   -0.6157   -0.0000 O   0  0  0  0  0  0  0  0  0  0  0  0
    1.2046   -3.5013    0.8989 C   0  0  0  0  0  0  0  0  0  0  0  0
    1.8316   -4.2174    1.2021 H   0  0  0  0  0  0  0  0  0  0  0  0
    1.4917   -3.1922   -0.1061 H   0  0  0  0  0  0  0  0  0  0  0  0
    0.1943   -3.9090    0.8668 H   0  0  0  0  0  0  0  0  0  0  0  0
    1.2935   -2.3195    1.9083 C   0  0  0  0  0  0  0  0  0  0  0  0
    0.7867   -1.5541    1.5127 H   0  0  0  0  0  0  0  0  0  0  0  0
    0.8479   -2.6163    2.7515 H   0  0  0  0  0  0  0  0  0  0  0  0
    2.6932   -1.8005    2.2824 C   0  0  0  0  0  0  0  0  0  0  0  0
    3.0667   -1.2814    1.5262 H   0  0  0  0  0  0  0  0  0  0  0  0
    2.6233   -1.1451    3.1505 H   0  0  0  0  0  0  0  0  0  0  0  0
    3.4182   -2.5843    2.5015 H   0  0  0  0  0  0  0  0  0  0  0  0
  1  5  1  0
  5  6  2  0
  5  7  1  0
  1  2  1  0
  1  3  1  0
  1  4  1  0
  8 12  1  0
 12 15  1  0
  8  9  1  0
  8 10  1  0
  8 11  1  0
 12 13  1  0
 12 14  1  0
 15 16  1  0
 15 17  1  0
 15 18  1  0
M  CHG  1   7  -1
V    7 [O&-]
M  END
>  <PDB_ID>  (2125) 
pdb3g3o

>  <RESIDUE_NAME>  (2125) 
ASP   LEU

>  <FRAG_NAME>  (2125) 
ACET   PRPA

>  <FRAG_ATOM_NUM>  (2125) 
fragi: 7 fragj: 11

>  <atom.prop.CHAIN_ID>  (2125) 
A A A A A A A Z Z Z Z Z Z Z Z Z Z Z

>  <atom.prop.IS_HEAVY_ATOM>  (2125) 
1 0 0 0 1 1 1 1 0 0 0 1 0 0 1 0 0 0

>  <DIFUSE_FUNC_ATOM>  (2125) 
n/a

>  <FINAL_SINGLE_POINT_ENERGY>  (2125) 
0

>  <NONCOV_INTER_ENERGY_QM>  (2125) 
0

>  <FF_Energy>  (2125) 
41.13

>  <QM_Energy>  (2125) 
2.17

>  <source>  (2125) 
ACET_PRPA_28

>  <Index>  (2125) 
42664

$$$$
ACEH-pdb3g3o-A-ASH-284:PRPA-pdb3g3o-A-LEU-290
     RDKit          3D

 18 16  0  0  0  0  0  0  0  0999 V2000
   -0.0058    1.5502    0.0405 C   0  0  0  0  0  0  0  0  0  0  0  0
   -0.7912    1.8385    0.5660 H   0  0  0  0  0  0  0  0  0  0  0  0
   -0.0527    1.8802   -0.8892 H   0  0  0  0  0  0  0  0  0  0  0  0
    0.8919    1.9550    0.5077 H   0  0  0  0  0  0  0  0  0  0  0  0
    0.0000    0.0000    0.0000 C   0  0  0  0  0  0  0  0  0  0  0  0
   -1.0797   -0.6009   -0.0000 O   0  0  0  0  0  0  0  0  0  0  0  0
    1.0797   -0.6157   -0.0000 O   0  0  0  0  0  0  0  0  0  0  0  0
    1.2935   -2.3195    1.9083 C   0  0  0  0  0  0  0  0  0  0  0  0
    0.7867   -1.5541    1.5127 H   0  0  0  0  0  0  0  0  0  0  0  0
    0.8479   -2.6163    2.7515 H   0  0  0  0  0  0  0  0  0  0  0  0
    1.2313   -3.1470    1.2015 H   0  0  0  0  0  0  0  0  0  0  0  0
    2.6932   -1.8005    2.2824 C   0  0  0  0  0  0  0  0  0  0  0  0
    3.0667   -1.2814    1.5262 H   0  0  0  0  0  0  0  0  0  0  0  0
    3.4182   -2.5843    2.5015 H   0  0  0  0  0  0  0  0  0  0  0  0
    2.5929   -0.8592    3.5290 C   0  0  0  0  0  0  0  0  0  0  0  0
    2.2130   -1.3804    4.2849 H   0  0  0  0  0  0  0  0  0  0  0  0
    3.5053   -0.5367    3.7520 H   0  0  0  0  0  0  0  0  0  0  0  0
    2.0002   -0.0963    3.2984 H   0  0  0  0  0  0  0  0  0  0  0  0
  1  5  1  0
  5  6  2  0
  5  7  1  0
  1  2  1  0
  1  3  1  0
  1  4  1  0
  8 12  1  0
 12 15  1  0
  8  9  1  0
  8 10  1  0
  8 11  1  0
 12 13  1  0
 12 14  1  0
 15 16  1  0
 15 17  1  0
 15 18  1  0
M  CHG  1   7  -1
V    7 [O&-]
M  END
>  <PDB_ID>  (2126) 
pdb3g3o

>  <RESIDUE_NAME>  (2126) 
ASP   LEU

>  <FRAG_NAME>  (2126) 
ACET   PRPA

>  <FRAG_ATOM_NUM>  (2126) 
fragi: 7 fragj: 11

>  <atom.prop.CHAIN_ID>  (2126) 
A A A A A A A Z Z Z Z Z Z Z Z Z Z Z

>  <atom.prop.IS_HEAVY_ATOM>  (2126) 
1 0 0 0 1 1 1 1 0 0 0 1 0 0 1 0 0 0

>  <DIFUSE_FUNC_ATOM>  (2126) 
n/a

>  <FINAL_SINGLE_POINT_ENERGY>  (2126) 
0

>  <NONCOV_INTER_ENERGY_QM>  (2126) 
0

>  <FF_Energy>  (2126) 
35.74

>  <QM_Energy>  (2126) 
3.3

>  <source>  (2126) 
ACET_PRPA_28

>  <Index>  (2126) 
42715

$$$$
ACEH-pdb3g3o-A-ASH-284:PRPA-pdb3g3o-A-LEU-290
     RDKit          3D

 18 16  0  0  0  0  0  0  0  0999 V2000
   -0.0058    1.5502    0.0405 C   0  0  0  0  0  0  0  0  0  0  0  0
   -0.7912    1.8385    0.5660 H   0  0  0  0  0  0  0  0  0  0  0  0
   -0.0527    1.8802   -0.8892 H   0  0  0  0  0  0  0  0  0  0  0  0
    0.8919    1.9550    0.5077 H   0  0  0  0  0  0  0  0  0  0  0  0
    0.0000    0.0000    0.0000 C   0  0  0  0  0  0  0  0  0  0  0  0
   -1.0797   -0.6009   -0.0000 O   0  0  0  0  0  0  0  0  0  0  0  0
    1.0797   -0.6157   -0.0000 O   0  0  0  0  0  0  0  0  0  0  0  0
    1.2935   -2.3195    1.9083 C   0  0  0  0  0  0  0  0  0  0  0  0
    0.7867   -1.5541    1.5127 H   0  0  0  0  0  0  0  0  0  0  0  0
    0.8479   -2.6163    2.7515 H   0  0  0  0  0  0  0  0  0  0  0  0
    1.2313   -3.1470    1.2015 H   0  0  0  0  0  0  0  0  0  0  0  0
    2.6932   -1.8005    2.2824 C   0  0  0  0  0  0  0  0  0  0  0  0
    3.0667   -1.2814    1.5262 H   0  0  0  0  0  0  0  0  0  0  0  0
    2.6233   -1.1451    3.1505 H   0  0  0  0  0  0  0  0  0  0  0  0
    3.7170   -2.9074    2.5919 C   0  0  0  0  0  0  0  0  0  0  0  0
    3.8219   -3.4884    1.7873 H   0  0  0  0  0  0  0  0  0  0  0  0
    4.5919   -2.4867    2.8227 H   0  0  0  0  0  0  0  0  0  0  0  0
    3.3873   -3.4508    3.3616 H   0  0  0  0  0  0  0  0  0  0  0  0
  1  5  1  0
  5  6  2  0
  5  7  1  0
  1  2  1  0
  1  3  1  0
  1  4  1  0
  8 12  1  0
 12 15  1  0
  8  9  1  0
  8 10  1  0
  8 11  1  0
 12 13  1  0
 12 14  1  0
 15 16  1  0
 15 17  1  0
 15 18  1  0
M  CHG  1   7  -1
V    7 [O&-]
M  END
>  <PDB_ID>  (2127) 
pdb3g3o

>  <RESIDUE_NAME>  (2127) 
ASP   LEU

>  <FRAG_NAME>  (2127) 
ACET   PRPA

>  <FRAG_ATOM_NUM>  (2127) 
fragi: 7 fragj: 11

>  <atom.prop.CHAIN_ID>  (2127) 
A A A A A A A Z Z Z Z Z Z Z Z Z Z Z

>  <atom.prop.IS_HEAVY_ATOM>  (2127) 
1 0 0 0 1 1 1 1 0 0 0 1 0 0 1 0 0 0

>  <DIFUSE_FUNC_ATOM>  (2127) 
n/a

>  <FINAL_SINGLE_POINT_ENERGY>  (2127) 
0

>  <NONCOV_INTER_ENERGY_QM>  (2127) 
0

>  <FF_Energy>  (2127) 
35.52

>  <QM_Energy>  (2127) 
3.92

>  <source>  (2127) 
ACET_PRPA_28

>  <Index>  (2127) 
42765

$$$$
ACEH-pdb2hro-A-GLH-212:PRPA-pdb2hro-A-ILE-209
     RDKit          3D

 18 16  0  0  0  0  0  0  0  0999 V2000
    0.1680    1.4840    0.0157 C   0  0  0  0  0  0  0  0  0  0  0  0
    0.6882    1.7424   -0.8008 H   0  0  0  0  0  0  0  0  0  0  0  0
    0.6992    1.7238    0.8310 H   0  0  0  0  0  0  0  0  0  0  0  0
   -0.7427    2.0830    0.0278 H   0  0  0  0  0  0  0  0  0  0  0  0
    0.0000    0.0000    0.0000 C   0  0  0  0  0  0  0  0  0  0  0  0
   -1.0899   -0.5602   -0.0000 O   0  0  0  0  0  0  0  0  0  0  0  0
    1.0899   -0.6044   -0.0000 O   0  0  0  0  0  0  0  0  0  0  0  0
    3.1557    0.8098    1.6148 C   0  0  0  0  0  0  0  0  0  0  0  0
    2.9045    1.2495    0.7481 H   0  0  0  0  0  0  0  0  0  0  0  0
    4.2154    1.0140    1.7676 H   0  0  0  0  0  0  0  0  0  0  0  0
    2.5555    1.2856    2.3904 H   0  0  0  0  0  0  0  0  0  0  0  0
    2.9085   -0.6957    1.6098 C   0  0  0  0  0  0  0  0  0  0  0  0
    2.9257   -1.0087    0.6559 H   0  0  0  0  0  0  0  0  0  0  0  0
    1.9379   -0.9516    2.0346 H   0  0  0  0  0  0  0  0  0  0  0  0
    4.0258   -1.4152    2.3449 C   0  0  0  0  0  0  0  0  0  0  0  0
    3.8944   -2.4028    2.2711 H   0  0  0  0  0  0  0  0  0  0  0  0
    4.9061   -1.1677    1.9413 H   0  0  0  0  0  0  0  0  0  0  0  0
    4.0180   -1.1518    3.3087 H   0  0  0  0  0  0  0  0  0  0  0  0
  1  5  1  0
  5  6  2  0
  5  7  1  0
  1  2  1  0
  1  3  1  0
  1  4  1  0
  8 12  1  0
 12 15  1  0
  8  9  1  0
  8 10  1  0
  8 11  1  0
 12 13  1  0
 12 14  1  0
 15 16  1  0
 15 17  1  0
 15 18  1  0
M  CHG  1   7  -1
V    7 [O&-]
M  END
>  <PDB_ID>  (2128) 
pdb2hro

>  <RESIDUE_NAME>  (2128) 
GLU   ILE

>  <FRAG_NAME>  (2128) 
ACET   PRPA

>  <FRAG_ATOM_NUM>  (2128) 
fragi: 7 fragj: 11

>  <atom.prop.CHAIN_ID>  (2128) 
A A A A A A A Z Z Z Z Z Z Z Z Z Z Z

>  <atom.prop.IS_HEAVY_ATOM>  (2128) 
1 0 0 0 1 1 1 1 0 0 0 1 0 0 1 0 0 0

>  <DIFUSE_FUNC_ATOM>  (2128) 
n/a

>  <FINAL_SINGLE_POINT_ENERGY>  (2128) 
0

>  <NONCOV_INTER_ENERGY_QM>  (2128) 
0

>  <FF_Energy>  (2128) 
22.37

>  <QM_Energy>  (2128) 
5.5

>  <source>  (2128) 
ACET_PRPA_28

>  <Index>  (2128) 
43015

$$$$
ACEH-pdb1gw0-A-ASH-403:PRPA-pdb1gw0-A-PRO-400
     RDKit          3D

 18 16  0  0  0  0  0  0  0  0999 V2000
   -0.0095    1.5097   -0.0139 C   0  0  0  0  0  0  0  0  0  0  0  0
    0.9133    1.8405    0.1408 H   0  0  0  0  0  0  0  0  0  0  0  0
   -0.6220    1.8367    0.6952 H   0  0  0  0  0  0  0  0  0  0  0  0
   -0.3539    1.9142   -0.9657 H   0  0  0  0  0  0  0  0  0  0  0  0
    0.0000    0.0000    0.0000 C   0  0  0  0  0  0  0  0  0  0  0  0
   -1.0980   -0.6000   -0.0000 O   0  0  0  0  0  0  0  0  0  0  0  0
    1.0980   -0.5875   -0.0000 O   0  0  0  0  0  0  0  0  0  0  0  0
    5.1042    0.4682   -0.9707 C   0  0  0  0  0  0  0  0  0  0  0  0
    6.0905    0.5150   -1.1500 H   0  0  0  0  0  0  0  0  0  0  0  0
    4.9077    0.3731    0.0972 H   0  0  0  0  0  0  0  0  0  0  0  0
    4.5966    1.3439   -1.3752 H   0  0  0  0  0  0  0  0  0  0  0  0
    4.5883   -0.8574   -1.5476 C   0  0  0  0  0  0  0  0  0  0  0  0
    4.0997   -0.7043   -2.4081 H   0  0  0  0  0  0  0  0  0  0  0  0
    5.3434   -1.4953   -1.7042 H   0  0  0  0  0  0  0  0  0  0  0  0
    3.6507   -1.3914   -0.4921 C   0  0  0  0  0  0  0  0  0  0  0  0
    2.7422   -0.9878   -0.6045 H   0  0  0  0  0  0  0  0  0  0  0  0
    3.5836   -2.3873   -0.5659 H   0  0  0  0  0  0  0  0  0  0  0  0
    4.1065   -1.0910    0.4512 H   0  0  0  0  0  0  0  0  0  0  0  0
  1  5  1  0
  5  6  2  0
  5  7  1  0
  1  2  1  0
  1  3  1  0
  1  4  1  0
  8 12  1  0
 12 15  1  0
  8  9  1  0
  8 10  1  0
  8 11  1  0
 12 13  1  0
 12 14  1  0
 15 16  1  0
 15 17  1  0
 15 18  1  0
M  CHG  1   7  -1
V    7 [O&-]
M  END
>  <PDB_ID>  (2129) 
pdb1gw0

>  <RESIDUE_NAME>  (2129) 
ASP   PRO

>  <FRAG_NAME>  (2129) 
ACET   PRPA

>  <FRAG_ATOM_NUM>  (2129) 
fragi: 7 fragj: 11

>  <atom.prop.CHAIN_ID>  (2129) 
A A A A A A A Z Z Z Z Z Z Z Z Z Z Z

>  <atom.prop.IS_HEAVY_ATOM>  (2129) 
1 0 0 0 1 1 1 1 0 0 0 1 0 0 1 0 0 0

>  <DIFUSE_FUNC_ATOM>  (2129) 
n/a

>  <FINAL_SINGLE_POINT_ENERGY>  (2129) 
0

>  <NONCOV_INTER_ENERGY_QM>  (2129) 
0

>  <FF_Energy>  (2129) 
28.6

>  <QM_Energy>  (2129) 
1.32

>  <source>  (2129) 
ACET_PRPA_28

>  <Index>  (2129) 
43050

$$$$
ACEH-pdb1gw0-A-ASH-403:PRPA-pdb1gw0-A-PRO-400
     RDKit          3D

 18 16  0  0  0  0  0  0  0  0999 V2000
   -0.0095    1.5097   -0.0139 C   0  0  0  0  0  0  0  0  0  0  0  0
    0.9133    1.8405    0.1408 H   0  0  0  0  0  0  0  0  0  0  0  0
   -0.6220    1.8367    0.6952 H   0  0  0  0  0  0  0  0  0  0  0  0
   -0.3539    1.9142   -0.9657 H   0  0  0  0  0  0  0  0  0  0  0  0
    0.0000    0.0000    0.0000 C   0  0  0  0  0  0  0  0  0  0  0  0
   -1.0980   -0.6000   -0.0000 O   0  0  0  0  0  0  0  0  0  0  0  0
    1.0980   -0.5875   -0.0000 O   0  0  0  0  0  0  0  0  0  0  0  0
    4.5883   -0.8574   -1.5476 C   0  0  0  0  0  0  0  0  0  0  0  0
    4.0997   -0.7043   -2.4081 H   0  0  0  0  0  0  0  0  0  0  0  0
    5.3434   -1.4953   -1.7042 H   0  0  0  0  0  0  0  0  0  0  0  0
    4.9546    0.0839   -1.1379 H   0  0  0  0  0  0  0  0  0  0  0  0
    3.6507   -1.3914   -0.4921 C   0  0  0  0  0  0  0  0  0  0  0  0
    2.7422   -0.9878   -0.6045 H   0  0  0  0  0  0  0  0  0  0  0  0
    3.5836   -2.3873   -0.5659 H   0  0  0  0  0  0  0  0  0  0  0  0
    4.2750   -0.9799    0.8000 C   0  0  0  0  0  0  0  0  0  0  0  0
    3.5993   -0.8952    1.5284 H   0  0  0  0  0  0  0  0  0  0  0  0
    4.9987   -1.6073    1.0801 H   0  0  0  0  0  0  0  0  0  0  0  0
    4.6926   -0.0039    0.5530 H   0  0  0  0  0  0  0  0  0  0  0  0
  1  5  1  0
  5  6  2  0
  5  7  1  0
  1  2  1  0
  1  3  1  0
  1  4  1  0
  8 12  1  0
 12 15  1  0
  8  9  1  0
  8 10  1  0
  8 11  1  0
 12 13  1  0
 12 14  1  0
 15 16  1  0
 15 17  1  0
 15 18  1  0
M  CHG  1   7  -1
V    7 [O&-]
M  END
>  <PDB_ID>  (2130) 
pdb1gw0

>  <RESIDUE_NAME>  (2130) 
ASP   PRO

>  <FRAG_NAME>  (2130) 
ACET   PRPA

>  <FRAG_ATOM_NUM>  (2130) 
fragi: 7 fragj: 11

>  <atom.prop.CHAIN_ID>  (2130) 
A A A A A A A Z Z Z Z Z Z Z Z Z Z Z

>  <atom.prop.IS_HEAVY_ATOM>  (2130) 
1 0 0 0 1 1 1 1 0 0 0 1 0 0 1 0 0 0

>  <DIFUSE_FUNC_ATOM>  (2130) 
n/a

>  <FINAL_SINGLE_POINT_ENERGY>  (2130) 
0

>  <NONCOV_INTER_ENERGY_QM>  (2130) 
0

>  <FF_Energy>  (2130) 
33.16

>  <QM_Energy>  (2130) 
-0.07

>  <source>  (2130) 
ACET_PRPA_28

>  <Index>  (2130) 
43105

$$$$
ACEH-pdb3g74-D-GLH-86:PRPA-pdb3g74-D-GLU-14
     RDKit          3D

 18 16  0  0  0  0  0  0  0  0999 V2000
   -0.0139    1.5114    0.0198 C   0  0  0  0  0  0  0  0  0  0  0  0
    0.2191    1.8001    0.9328 H   0  0  0  0  0  0  0  0  0  0  0  0
   -0.9194    1.8046   -0.2376 H   0  0  0  0  0  0  0  0  0  0  0  0
    0.7012    1.9561   -0.6723 H   0  0  0  0  0  0  0  0  0  0  0  0
    0.0000    0.0000    0.0000 C   0  0  0  0  0  0  0  0  0  0  0  0
   -1.1169   -0.5892   -0.0000 O   0  0  0  0  0  0  0  0  0  0  0  0
    1.1169   -0.5795    0.0000 O   0  0  0  0  0  0  0  0  0  0  0  0
    1.5548   -3.2551   -1.8723 C   0  0  0  0  0  0  0  0  0  0  0  0
    1.5238   -2.2566   -1.9410 H   0  0  0  0  0  0  0  0  0  0  0  0
    0.5412   -3.6516   -1.8127 H   0  0  0  0  0  0  0  0  0  0  0  0
    2.0541   -3.6684   -2.7486 H   0  0  0  0  0  0  0  0  0  0  0  0
    2.3360   -3.6704   -0.6446 C   0  0  0  0  0  0  0  0  0  0  0  0
    2.4260   -4.6543   -0.6604 H   0  0  0  0  0  0  0  0  0  0  0  0
    3.2175   -3.2267   -0.6807 H   0  0  0  0  0  0  0  0  0  0  0  0
    1.6858   -3.2918    0.6602 C   0  0  0  0  0  0  0  0  0  0  0  0
    1.4363   -2.3433    0.6198 H   0  0  0  0  0  0  0  0  0  0  0  0
    0.9118   -3.8779    0.8049 H   0  0  0  0  0  0  0  0  0  0  0  0
    2.3645   -3.4226    1.5029 H   0  0  0  0  0  0  0  0  0  0  0  0
  1  5  1  0
  5  6  2  0
  5  7  1  0
  1  2  1  0
  1  3  1  0
  1  4  1  0
  8 12  1  0
 12 15  1  0
  8  9  1  0
  8 10  1  0
  8 11  1  0
 12 13  1  0
 12 14  1  0
 15 16  1  0
 15 17  1  0
 15 18  1  0
M  CHG  1   7  -1
V    7 [O&-]
M  END
>  <PDB_ID>  (2131) 
pdb3g74

>  <RESIDUE_NAME>  (2131) 
GLU   GLU

>  <FRAG_NAME>  (2131) 
ACET   PRPA

>  <FRAG_ATOM_NUM>  (2131) 
fragi: 7 fragj: 11

>  <atom.prop.CHAIN_ID>  (2131) 
A A A A A A A Z Z Z Z Z Z Z Z Z Z Z

>  <atom.prop.IS_HEAVY_ATOM>  (2131) 
1 0 0 0 1 1 1 1 0 0 0 1 0 0 1 0 0 0

>  <DIFUSE_FUNC_ATOM>  (2131) 
n/a

>  <FINAL_SINGLE_POINT_ENERGY>  (2131) 
0

>  <NONCOV_INTER_ENERGY_QM>  (2131) 
0

>  <FF_Energy>  (2131) 
15.13

>  <QM_Energy>  (2131) 
-2.17

>  <source>  (2131) 
ACET_PRPA_28

>  <Index>  (2131) 
43184

$$$$
ACEH-pdb6mcp-C-GLH-211:PRPA-pdb6mcp-C-GLH-215
     RDKit          3D

 18 16  0  0  0  0  0  0  0  0999 V2000
   -0.1849    1.4872   -0.0165 C   0  0  0  0  0  0  0  0  0  0  0  0
   -0.7024    1.7389    0.8010 H   0  0  0  0  0  0  0  0  0  0  0  0
   -0.7145    1.7196   -0.8321 H   0  0  0  0  0  0  0  0  0  0  0  0
    0.7256    2.0863   -0.0292 H   0  0  0  0  0  0  0  0  0  0  0  0
    0.0000    0.0000    0.0000 C   0  0  0  0  0  0  0  0  0  0  0  0
   -1.0891   -0.6115   -0.0000 O   0  0  0  0  0  0  0  0  0  0  0  0
    1.0891   -0.5536    0.0000 O   0  0  0  0  0  0  0  0  0  0  0  0
   -2.4702   -0.3511   -2.9080 C   0  0  0  0  0  0  0  0  0  0  0  0
   -2.5886   -0.5934   -3.8872 H   0  0  0  0  0  0  0  0  0  0  0  0
   -3.4173    0.0056   -2.5033 H   0  0  0  0  0  0  0  0  0  0  0  0
   -2.0777   -1.2142   -2.3705 H   0  0  0  0  0  0  0  0  0  0  0  0
   -1.4567    0.7966   -2.8847 C   0  0  0  0  0  0  0  0  0  0  0  0
   -1.6060    1.3420   -3.7003 H   0  0  0  0  0  0  0  0  0  0  0  0
   -1.6305    1.3321   -2.0677 H   0  0  0  0  0  0  0  0  0  0  0  0
    0.0059    0.3921   -2.8654 C   0  0  0  0  0  0  0  0  0  0  0  0
    0.5243    1.1252   -2.4559 H   0  0  0  0  0  0  0  0  0  0  0  0
    0.0908   -0.4446   -2.3484 H   0  0  0  0  0  0  0  0  0  0  0  0
    0.4239    0.2086   -3.8551 H   0  0  0  0  0  0  0  0  0  0  0  0
  1  5  1  0
  5  6  2  0
  5  7  1  0
  1  2  1  0
  1  3  1  0
  1  4  1  0
  8 12  1  0
 12 15  1  0
  8  9  1  0
  8 10  1  0
  8 11  1  0
 12 13  1  0
 12 14  1  0
 15 16  1  0
 15 17  1  0
 15 18  1  0
M  CHG  1   7  -1
V    7 [O&-]
M  END
>  <PDB_ID>  (2132) 
pdb6mcp

>  <RESIDUE_NAME>  (2132) 
GLU   GLU

>  <FRAG_NAME>  (2132) 
ACET   PRPA

>  <FRAG_ATOM_NUM>  (2132) 
fragi: 7 fragj: 11

>  <atom.prop.CHAIN_ID>  (2132) 
A A A A A A A Z Z Z Z Z Z Z Z Z Z Z

>  <atom.prop.IS_HEAVY_ATOM>  (2132) 
1 0 0 0 1 1 1 1 0 0 0 1 0 0 1 0 0 0

>  <DIFUSE_FUNC_ATOM>  (2132) 
n/a

>  <FINAL_SINGLE_POINT_ENERGY>  (2132) 
0

>  <NONCOV_INTER_ENERGY_QM>  (2132) 
0

>  <FF_Energy>  (2132) 
26.68

>  <QM_Energy>  (2132) 
0.96

>  <source>  (2132) 
ACET_PRPA_28

>  <Index>  (2132) 
43192

$$$$
ACEH-pdb3g4d-B-ASH-531:PRPA-pdb3g4d-B-GLU-455
     RDKit          3D

 18 16  0  0  0  0  0  0  0  0999 V2000
   -0.0037    1.5205   -0.0150 C   0  0  0  0  0  0  0  0  0  0  0  0
   -0.4249    1.8459    0.8225 H   0  0  0  0  0  0  0  0  0  0  0  0
   -0.5140    1.8307   -0.8070 H   0  0  0  0  0  0  0  0  0  0  0  0
    0.9997    1.9419   -0.0735 H   0  0  0  0  0  0  0  0  0  0  0  0
    0.0000    0.0000    0.0000 C   0  0  0  0  0  0  0  0  0  0  0  0
   -1.0951   -0.5968   -0.0000 O   0  0  0  0  0  0  0  0  0  0  0  0
    1.0951   -0.6027   -0.0000 O   0  0  0  0  0  0  0  0  0  0  0  0
   -1.6709   -1.8744    3.3784 C   0  0  0  0  0  0  0  0  0  0  0  0
   -1.8214   -0.9125    3.1210 H   0  0  0  0  0  0  0  0  0  0  0  0
   -0.6348   -2.1491    3.1811 H   0  0  0  0  0  0  0  0  0  0  0  0
   -1.9138   -2.0117    4.4322 H   0  0  0  0  0  0  0  0  0  0  0  0
   -2.6412   -2.6635    2.4955 C   0  0  0  0  0  0  0  0  0  0  0  0
   -2.1614   -3.4418    2.1429 H   0  0  0  0  0  0  0  0  0  0  0  0
   -3.4155   -2.9081    3.0422 H   0  0  0  0  0  0  0  0  0  0  0  0
   -3.1545   -1.8596    1.3023 C   0  0  0  0  0  0  0  0  0  0  0  0
   -3.9014   -1.2966    1.6106 H   0  0  0  0  0  0  0  0  0  0  0  0
   -2.4090   -1.3218    0.9503 H   0  0  0  0  0  0  0  0  0  0  0  0
   -3.5254   -2.4806    0.4869 H   0  0  0  0  0  0  0  0  0  0  0  0
  1  5  1  0
  5  6  2  0
  5  7  1  0
  1  2  1  0
  1  3  1  0
  1  4  1  0
  8 12  1  0
 12 15  1  0
  8  9  1  0
  8 10  1  0
  8 11  1  0
 12 13  1  0
 12 14  1  0
 15 16  1  0
 15 17  1  0
 15 18  1  0
M  CHG  1   7  -1
V    7 [O&-]
M  END
>  <PDB_ID>  (2133) 
pdb3g4d

>  <RESIDUE_NAME>  (2133) 
ASP   GLU

>  <FRAG_NAME>  (2133) 
ACET   PRPA

>  <FRAG_ATOM_NUM>  (2133) 
fragi: 7 fragj: 11

>  <atom.prop.CHAIN_ID>  (2133) 
A A A A A A A Z Z Z Z Z Z Z Z Z Z Z

>  <atom.prop.IS_HEAVY_ATOM>  (2133) 
1 0 0 0 1 1 1 1 0 0 0 1 0 0 1 0 0 0

>  <DIFUSE_FUNC_ATOM>  (2133) 
n/a

>  <FINAL_SINGLE_POINT_ENERGY>  (2133) 
0

>  <NONCOV_INTER_ENERGY_QM>  (2133) 
0

>  <FF_Energy>  (2133) 
32.65

>  <QM_Energy>  (2133) 
0.07

>  <source>  (2133) 
ACET_PRPA_28

>  <Index>  (2133) 
43204

$$$$
ACEH-pdb1h4r-A-GLH-194:PRPA-pdb1h4r-B-GLU-136
     RDKit          3D

 18 16  0  0  0  0  0  0  0  0999 V2000
    0.1283    1.5008   -0.0010 C   0  0  0  0  0  0  0  0  0  0  0  0
    0.5452    1.7670   -0.8773 H   0  0  0  0  0  0  0  0  0  0  0  0
    0.7610    1.7500    0.7405 H   0  0  0  0  0  0  0  0  0  0  0  0
   -0.7783    2.0926    0.1248 H   0  0  0  0  0  0  0  0  0  0  0  0
    0.0000    0.0000    0.0000 C   0  0  0  0  0  0  0  0  0  0  0  0
   -1.1160   -0.5796    0.0000 O   0  0  0  0  0  0  0  0  0  0  0  0
    1.1160   -0.5818   -0.0000 O   0  0  0  0  0  0  0  0  0  0  0  0
    0.5730   -3.7732    0.9114 C   0  0  0  0  0  0  0  0  0  0  0  0
    1.1931   -4.4657    1.2796 H   0  0  0  0  0  0  0  0  0  0  0  0
    0.8844   -3.4793   -0.0910 H   0  0  0  0  0  0  0  0  0  0  0  0
   -0.4344   -4.1875    0.8727 H   0  0  0  0  0  0  0  0  0  0  0  0
    0.6384   -2.5851    1.8419 C   0  0  0  0  0  0  0  0  0  0  0  0
    0.1836   -1.8255    1.4078 H   0  0  0  0  0  0  0  0  0  0  0  0
    0.2061   -2.8321    2.6927 H   0  0  0  0  0  0  0  0  0  0  0  0
    2.0576   -2.1273    2.1753 C   0  0  0  0  0  0  0  0  0  0  0  0
    2.4878   -1.8363    1.3445 H   0  0  0  0  0  0  0  0  0  0  0  0
    2.0012   -1.4139    2.8440 H   0  0  0  0  0  0  0  0  0  0  0  0
    2.6628   -2.9290    2.5985 H   0  0  0  0  0  0  0  0  0  0  0  0
  1  5  1  0
  5  6  2  0
  5  7  1  0
  1  2  1  0
  1  3  1  0
  1  4  1  0
  8 12  1  0
 12 15  1  0
  8  9  1  0
  8 10  1  0
  8 11  1  0
 12 13  1  0
 12 14  1  0
 15 16  1  0
 15 17  1  0
 15 18  1  0
M  CHG  1   7  -1
V    7 [O&-]
M  END
>  <PDB_ID>  (2134) 
pdb1h4r

>  <RESIDUE_NAME>  (2134) 
GLU   GLU

>  <FRAG_NAME>  (2134) 
ACET   PRPA

>  <FRAG_ATOM_NUM>  (2134) 
fragi: 7 fragj: 11

>  <atom.prop.CHAIN_ID>  (2134) 
A A A A A A A Z Z Z Z Z Z Z Z Z Z Z

>  <atom.prop.IS_HEAVY_ATOM>  (2134) 
1 0 0 0 1 1 1 1 0 0 0 1 0 0 1 0 0 0

>  <DIFUSE_FUNC_ATOM>  (2134) 
n/a

>  <FINAL_SINGLE_POINT_ENERGY>  (2134) 
0

>  <NONCOV_INTER_ENERGY_QM>  (2134) 
0

>  <FF_Energy>  (2134) 
13.95

>  <QM_Energy>  (2134) 
-2.19

>  <source>  (2134) 
ACET_PRPA_28

>  <Index>  (2134) 
43826

$$$$
ACEH-pdb6mw4-A-GLH-372:PRPA-pdb6mw4-A-ILE-360
     RDKit          3D

 18 16  0  0  0  0  0  0  0  0999 V2000
    0.1783    1.4872    0.0177 C   0  0  0  0  0  0  0  0  0  0  0  0
    0.6962    1.7418   -0.7993 H   0  0  0  0  0  0  0  0  0  0  0  0
    0.7079    1.7212    0.8333 H   0  0  0  0  0  0  0  0  0  0  0  0
   -0.7328    2.0854    0.0305 H   0  0  0  0  0  0  0  0  0  0  0  0
    0.0000    0.0000    0.0000 C   0  0  0  0  0  0  0  0  0  0  0  0
   -1.0894   -0.5561   -0.0000 O   0  0  0  0  0  0  0  0  0  0  0  0
    1.0894   -0.6086    0.0000 O   0  0  0  0  0  0  0  0  0  0  0  0
    1.9024   -0.2025    4.2216 C   0  0  0  0  0  0  0  0  0  0  0  0
    1.3139   -0.8716    4.6596 H   0  0  0  0  0  0  0  0  0  0  0  0
    1.5762    0.7749    4.5773 H   0  0  0  0  0  0  0  0  0  0  0  0
    2.9089   -0.3694    4.6051 H   0  0  0  0  0  0  0  0  0  0  0  0
    1.8817   -0.2579    2.6757 C   0  0  0  0  0  0  0  0  0  0  0  0
    2.5783    0.3669    2.3413 H   0  0  0  0  0  0  0  0  0  0  0  0
    0.9153    0.0714    2.2940 H   0  0  0  0  0  0  0  0  0  0  0  0
    2.2146   -1.6529    2.1520 C   0  0  0  0  0  0  0  0  0  0  0  0
    2.2490   -1.6335    1.1547 H   0  0  0  0  0  0  0  0  0  0  0  0
    3.1016   -1.9380    2.5103 H   0  0  0  0  0  0  0  0  0  0  0  0
    1.5123   -2.2954    2.4495 H   0  0  0  0  0  0  0  0  0  0  0  0
  1  5  1  0
  5  6  2  0
  5  7  1  0
  1  2  1  0
  1  3  1  0
  1  4  1  0
  8 12  1  0
 12 15  1  0
  8  9  1  0
  8 10  1  0
  8 11  1  0
 12 13  1  0
 12 14  1  0
 15 16  1  0
 15 17  1  0
 15 18  1  0
M  CHG  1   7  -1
V    7 [O&-]
M  END
>  <PDB_ID>  (2135) 
pdb6mw4

>  <RESIDUE_NAME>  (2135) 
GLU   ILE

>  <FRAG_NAME>  (2135) 
ACET   PRPA

>  <FRAG_ATOM_NUM>  (2135) 
fragi: 7 fragj: 11

>  <atom.prop.CHAIN_ID>  (2135) 
A A A A A A A Z Z Z Z Z Z Z Z Z Z Z

>  <atom.prop.IS_HEAVY_ATOM>  (2135) 
1 0 0 0 1 1 1 1 0 0 0 1 0 0 1 0 0 0

>  <DIFUSE_FUNC_ATOM>  (2135) 
n/a

>  <FINAL_SINGLE_POINT_ENERGY>  (2135) 
0

>  <NONCOV_INTER_ENERGY_QM>  (2135) 
0

>  <FF_Energy>  (2135) 
18.76

>  <QM_Energy>  (2135) 
1.35

>  <source>  (2135) 
ACET_PRPA_28

>  <Index>  (2135) 
44531

$$$$
ACEH-pdb3gaz-A-GLH-336:PRPA-pdb3gaz-A-GLN-38
     RDKit          3D

 18 16  0  0  0  0  0  0  0  0999 V2000
    0.1694    1.4836    0.0150 C   0  0  0  0  0  0  0  0  0  0  0  0
    0.6893    1.7415   -0.8018 H   0  0  0  0  0  0  0  0  0  0  0  0
    0.7000    1.7234    0.8305 H   0  0  0  0  0  0  0  0  0  0  0  0
   -0.7410    2.0828    0.0268 H   0  0  0  0  0  0  0  0  0  0  0  0
    0.0000    0.0000    0.0000 C   0  0  0  0  0  0  0  0  0  0  0  0
   -1.0894   -0.5597    0.0000 O   0  0  0  0  0  0  0  0  0  0  0  0
    1.0894   -0.6056   -0.0000 O   0  0  0  0  0  0  0  0  0  0  0  0
    1.8901   -3.8829   -0.4925 C   0  0  0  0  0  0  0  0  0  0  0  0
    1.8646   -3.8493   -1.4622 H   0  0  0  0  0  0  0  0  0  0  0  0
    2.5955   -4.6569   -0.1902 H   0  0  0  0  0  0  0  0  0  0  0  0
    2.4113   -2.9934   -0.1388 H   0  0  0  0  0  0  0  0  0  0  0  0
    0.5586   -4.0491    0.2299 C   0  0  0  0  0  0  0  0  0  0  0  0
    0.1744   -4.9448   -0.0018 H   0  0  0  0  0  0  0  0  0  0  0  0
    0.7204   -4.0065    1.2185 H   0  0  0  0  0  0  0  0  0  0  0  0
   -0.4662   -2.9896   -0.1269 C   0  0  0  0  0  0  0  0  0  0  0  0
   -0.1937   -2.1250    0.2918 H   0  0  0  0  0  0  0  0  0  0  0  0
   -0.4926   -2.8894   -1.1201 H   0  0  0  0  0  0  0  0  0  0  0  0
   -1.4653   -3.2474    0.2245 H   0  0  0  0  0  0  0  0  0  0  0  0
  1  5  1  0
  5  6  2  0
  5  7  1  0
  1  2  1  0
  1  3  1  0
  1  4  1  0
  8 12  1  0
 12 15  1  0
  8  9  1  0
  8 10  1  0
  8 11  1  0
 12 13  1  0
 12 14  1  0
 15 16  1  0
 15 17  1  0
 15 18  1  0
M  CHG  1   7  -1
V    7 [O&-]
M  END
>  <PDB_ID>  (2136) 
pdb3gaz

>  <RESIDUE_NAME>  (2136) 
GLU   GLN

>  <FRAG_NAME>  (2136) 
ACET   PRPA

>  <FRAG_ATOM_NUM>  (2136) 
fragi: 7 fragj: 11

>  <atom.prop.CHAIN_ID>  (2136) 
A A A A A A A Z Z Z Z Z Z Z Z Z Z Z

>  <atom.prop.IS_HEAVY_ATOM>  (2136) 
1 0 0 0 1 1 1 1 0 0 0 1 0 0 1 0 0 0

>  <DIFUSE_FUNC_ATOM>  (2136) 
n/a

>  <FINAL_SINGLE_POINT_ENERGY>  (2136) 
0

>  <NONCOV_INTER_ENERGY_QM>  (2136) 
0

>  <FF_Energy>  (2136) 
47.21

>  <QM_Energy>  (2136) 
10.04

>  <source>  (2136) 
ACET_PRPA_28

>  <Index>  (2136) 
44947

$$$$
ACEH-pdb1gu6-A-GLH-344:PRPA-pdb1gu6-A-LYS-340
     RDKit          3D

 18 16  0  0  0  0  0  0  0  0999 V2000
   -0.0049    1.5185    0.0233 C   0  0  0  0  0  0  0  0  0  0  0  0
    0.1488    1.7977    0.9564 H   0  0  0  0  0  0  0  0  0  0  0  0
   -0.8872    1.8135   -0.3055 H   0  0  0  0  0  0  0  0  0  0  0  0
    0.7674    1.9632   -0.6041 H   0  0  0  0  0  0  0  0  0  0  0  0
    0.0000    0.0000    0.0000 C   0  0  0  0  0  0  0  0  0  0  0  0
   -1.0845   -0.5905   -0.0000 O   0  0  0  0  0  0  0  0  0  0  0  0
    1.0845   -0.6084    0.0000 O   0  0  0  0  0  0  0  0  0  0  0  0
   -4.1417   -0.6955   -3.2019 C   0  0  0  0  0  0  0  0  0  0  0  0
   -5.0606   -0.9282   -3.5489 H   0  0  0  0  0  0  0  0  0  0  0  0
   -3.4737   -1.2848   -3.6787 H   0  0  0  0  0  0  0  0  0  0  0  0
   -3.9349    0.3321   -3.5008 H   0  0  0  0  0  0  0  0  0  0  0  0
   -4.0799   -0.9382   -1.7720 C   0  0  0  0  0  0  0  0  0  0  0  0
   -3.9665   -0.0712   -1.2800 H   0  0  0  0  0  0  0  0  0  0  0  0
   -4.9232   -1.3824   -1.4610 H   0  0  0  0  0  0  0  0  0  0  0  0
   -2.9394   -1.8076   -1.4957 C   0  0  0  0  0  0  0  0  0  0  0  0
   -2.2282   -1.6686   -2.1903 H   0  0  0  0  0  0  0  0  0  0  0  0
   -2.5569   -1.5952   -0.5924 H   0  0  0  0  0  0  0  0  0  0  0  0
   -3.2309   -2.8579   -1.5067 H   0  0  0  0  0  0  0  0  0  0  0  0
  1  5  1  0
  5  6  2  0
  5  7  1  0
  1  2  1  0
  1  3  1  0
  1  4  1  0
  8 12  1  0
 12 15  1  0
  8  9  1  0
  8 10  1  0
  8 11  1  0
 12 13  1  0
 12 14  1  0
 15 16  1  0
 15 17  1  0
 15 18  1  0
M  CHG  1   7  -1
V    7 [O&-]
M  END
>  <PDB_ID>  (2137) 
pdb1gu6

>  <RESIDUE_NAME>  (2137) 
GLU   LYS

>  <FRAG_NAME>  (2137) 
ACET   PRPA

>  <FRAG_ATOM_NUM>  (2137) 
fragi: 7 fragj: 11

>  <atom.prop.CHAIN_ID>  (2137) 
A A A A A A A Z Z Z Z Z Z Z Z Z Z Z

>  <atom.prop.IS_HEAVY_ATOM>  (2137) 
1 0 0 0 1 1 1 1 0 0 0 1 0 0 1 0 0 0

>  <DIFUSE_FUNC_ATOM>  (2137) 
n/a

>  <FINAL_SINGLE_POINT_ENERGY>  (2137) 
0

>  <NONCOV_INTER_ENERGY_QM>  (2137) 
0

>  <FF_Energy>  (2137) 
18.41

>  <QM_Energy>  (2137) 
1.14

>  <source>  (2137) 
ACET_PRPA_29

>  <Index>  (2137) 
246

$$$$
ACEH-pdb4hhh-U-GLH-13:PRPA-pdb4hhh-C-GLU-234
     RDKit          3D

 18 16  0  0  0  0  0  0  0  0999 V2000
   -0.0051    1.5315   -0.0241 C   0  0  0  0  0  0  0  0  0  0  0  0
   -0.9166    1.8234    0.1630 H   0  0  0  0  0  0  0  0  0  0  0  0
    0.3235    1.8104   -0.8993 H   0  0  0  0  0  0  0  0  0  0  0  0
    0.6525    1.9448    0.7407 H   0  0  0  0  0  0  0  0  0  0  0  0
    0.0000    0.0000    0.0000 C   0  0  0  0  0  0  0  0  0  0  0  0
   -1.0916   -0.6059    0.0000 O   0  0  0  0  0  0  0  0  0  0  0  0
    1.0916   -0.6009    0.0000 O   0  0  0  0  0  0  0  0  0  0  0  0
   -4.8534   -0.9063    0.0268 C   0  0  0  0  0  0  0  0  0  0  0  0
   -4.4687    0.0126   -0.1375 H   0  0  0  0  0  0  0  0  0  0  0  0
   -5.6780   -0.8217    0.7346 H   0  0  0  0  0  0  0  0  0  0  0  0
   -5.1708   -1.3491   -0.9173 H   0  0  0  0  0  0  0  0  0  0  0  0
   -3.6864   -1.6879    0.6062 C   0  0  0  0  0  0  0  0  0  0  0  0
   -4.0402   -2.5097    0.9983 H   0  0  0  0  0  0  0  0  0  0  0  0
   -3.0433   -1.8464   -0.1119 H   0  0  0  0  0  0  0  0  0  0  0  0
   -2.9860   -0.9167    1.6961 C   0  0  0  0  0  0  0  0  0  0  0  0
   -2.5197   -0.1549    1.2884 H   0  0  0  0  0  0  0  0  0  0  0  0
   -3.6532   -0.6373    2.3609 H   0  0  0  0  0  0  0  0  0  0  0  0
   -2.2409   -1.5226    2.2116 H   0  0  0  0  0  0  0  0  0  0  0  0
  1  5  1  0
  5  6  2  0
  5  7  1  0
  1  2  1  0
  1  3  1  0
  1  4  1  0
  8 12  1  0
 12 15  1  0
  8  9  1  0
  8 10  1  0
  8 11  1  0
 12 13  1  0
 12 14  1  0
 15 16  1  0
 15 17  1  0
 15 18  1  0
M  CHG  1   7  -1
V    7 [O&-]
M  END
>  <PDB_ID>  (2138) 
pdb4hhh

>  <RESIDUE_NAME>  (2138) 
GLU   GLU

>  <FRAG_NAME>  (2138) 
ACET   PRPA

>  <FRAG_ATOM_NUM>  (2138) 
fragi: 7 fragj: 11

>  <atom.prop.CHAIN_ID>  (2138) 
A A A A A A A Z Z Z Z Z Z Z Z Z Z Z

>  <atom.prop.IS_HEAVY_ATOM>  (2138) 
1 0 0 0 1 1 1 1 0 0 0 1 0 0 1 0 0 0

>  <DIFUSE_FUNC_ATOM>  (2138) 
n/a

>  <FINAL_SINGLE_POINT_ENERGY>  (2138) 
0

>  <NONCOV_INTER_ENERGY_QM>  (2138) 
0

>  <FF_Energy>  (2138) 
17.36

>  <QM_Energy>  (2138) 
0.71

>  <source>  (2138) 
ACET_PRPA_29

>  <Index>  (2138) 
679

$$$$
ACEH-pdb5j6b-A-GLH-90:PRPA-pdb5j6b-A-ILE-184
     RDKit          3D

 18 16  0  0  0  0  0  0  0  0999 V2000
   -0.0174    1.5265   -0.0168 C   0  0  0  0  0  0  0  0  0  0  0  0
    0.7330    1.8226   -0.5667 H   0  0  0  0  0  0  0  0  0  0  0  0
    0.0380    1.8303    0.9097 H   0  0  0  0  0  0  0  0  0  0  0  0
   -0.9382    1.9133   -0.4533 H   0  0  0  0  0  0  0  0  0  0  0  0
    0.0000    0.0000    0.0000 C   0  0  0  0  0  0  0  0  0  0  0  0
   -1.0989   -0.6027   -0.0000 O   0  0  0  0  0  0  0  0  0  0  0  0
    1.0989   -0.5997   -0.0000 O   0  0  0  0  0  0  0  0  0  0  0  0
   -1.2681   -3.6920    0.7911 C   0  0  0  0  0  0  0  0  0  0  0  0
   -0.6356   -4.3434    1.2201 H   0  0  0  0  0  0  0  0  0  0  0  0
   -0.8339   -3.4366   -0.1754 H   0  0  0  0  0  0  0  0  0  0  0  0
   -2.2170   -4.2134    0.6645 H   0  0  0  0  0  0  0  0  0  0  0  0
   -1.4446   -2.4337    1.6575 C   0  0  0  0  0  0  0  0  0  0  0  0
   -2.0455   -1.8068    1.1701 H   0  0  0  0  0  0  0  0  0  0  0  0
   -0.4889   -1.9332    1.8135 H   0  0  0  0  0  0  0  0  0  0  0  0
   -2.0740   -2.8142    2.9959 C   0  0  0  0  0  0  0  0  0  0  0  0
   -2.2239   -1.9895    3.5378 H   0  0  0  0  0  0  0  0  0  0  0  0
   -2.9467   -3.2707    2.8336 H   0  0  0  0  0  0  0  0  0  0  0  0
   -1.4616   -3.4303    3.4868 H   0  0  0  0  0  0  0  0  0  0  0  0
  1  5  1  0
  5  6  2  0
  5  7  1  0
  1  2  1  0
  1  3  1  0
  1  4  1  0
  8 12  1  0
 12 15  1  0
  8  9  1  0
  8 10  1  0
  8 11  1  0
 12 13  1  0
 12 14  1  0
 15 16  1  0
 15 17  1  0
 15 18  1  0
M  CHG  1   7  -1
V    7 [O&-]
M  END
>  <PDB_ID>  (2139) 
pdb5j6b

>  <RESIDUE_NAME>  (2139) 
GLU   ILE

>  <FRAG_NAME>  (2139) 
ACET   PRPA

>  <FRAG_ATOM_NUM>  (2139) 
fragi: 7 fragj: 11

>  <atom.prop.CHAIN_ID>  (2139) 
A A A A A A A Z Z Z Z Z Z Z Z Z Z Z

>  <atom.prop.IS_HEAVY_ATOM>  (2139) 
1 0 0 0 1 1 1 1 0 0 0 1 0 0 1 0 0 0

>  <DIFUSE_FUNC_ATOM>  (2139) 
n/a

>  <FINAL_SINGLE_POINT_ENERGY>  (2139) 
0

>  <NONCOV_INTER_ENERGY_QM>  (2139) 
0

>  <FF_Energy>  (2139) 
21.68

>  <QM_Energy>  (2139) 
3.83

>  <source>  (2139) 
ACET_PRPA_29

>  <Index>  (2139) 
710

$$$$
ACEH-pdb6nbm-B-GLH-292:PRPA-pdb6nbm-B-LEU-342
     RDKit          3D

 18 16  0  0  0  0  0  0  0  0999 V2000
    0.0053    1.5172   -0.0296 C   0  0  0  0  0  0  0  0  0  0  0  0
    0.8463    1.8025   -0.4432 H   0  0  0  0  0  0  0  0  0  0  0  0
   -0.0895    1.8322    0.8946 H   0  0  0  0  0  0  0  0  0  0  0  0
   -0.8205    1.9183   -0.6172 H   0  0  0  0  0  0  0  0  0  0  0  0
    0.0000    0.0000    0.0000 C   0  0  0  0  0  0  0  0  0  0  0  0
   -1.1090   -0.5974   -0.0000 O   0  0  0  0  0  0  0  0  0  0  0  0
    1.1090   -0.5811   -0.0000 O   0  0  0  0  0  0  0  0  0  0  0  0
    3.6328   -1.5205    0.6585 C   0  0  0  0  0  0  0  0  0  0  0  0
    3.0913   -0.6958    0.6743 H   0  0  0  0  0  0  0  0  0  0  0  0
    4.1411   -1.6102   -0.1809 H   0  0  0  0  0  0  0  0  0  0  0  0
    4.3467   -1.4697    1.4807 H   0  0  0  0  0  0  0  0  0  0  0  0
    2.6692   -2.7074    0.7462 C   0  0  0  0  0  0  0  0  0  0  0  0
    3.1931   -3.5445    0.8997 H   0  0  0  0  0  0  0  0  0  0  0  0
    1.9627   -2.5750    1.5656 H   0  0  0  0  0  0  0  0  0  0  0  0
    1.9301   -2.9724   -0.5847 C   0  0  0  0  0  0  0  0  0  0  0  0
    2.6023   -3.1698   -1.2937 H   0  0  0  0  0  0  0  0  0  0  0  0
    1.3205   -3.7522   -0.4654 H   0  0  0  0  0  0  0  0  0  0  0  0
    1.4036   -2.1618   -0.8283 H   0  0  0  0  0  0  0  0  0  0  0  0
  1  5  1  0
  5  6  2  0
  5  7  1  0
  1  2  1  0
  1  3  1  0
  1  4  1  0
  8 12  1  0
 12 15  1  0
  8  9  1  0
  8 10  1  0
  8 11  1  0
 12 13  1  0
 12 14  1  0
 15 16  1  0
 15 17  1  0
 15 18  1  0
M  CHG  1   7  -1
V    7 [O&-]
M  END
>  <PDB_ID>  (2140) 
pdb6nbm

>  <RESIDUE_NAME>  (2140) 
GLU   LEU

>  <FRAG_NAME>  (2140) 
ACET   PRPA

>  <FRAG_ATOM_NUM>  (2140) 
fragi: 7 fragj: 11

>  <atom.prop.CHAIN_ID>  (2140) 
A A A A A A A Z Z Z Z Z Z Z Z Z Z Z

>  <atom.prop.IS_HEAVY_ATOM>  (2140) 
1 0 0 0 1 1 1 1 0 0 0 1 0 0 1 0 0 0

>  <DIFUSE_FUNC_ATOM>  (2140) 
n/a

>  <FINAL_SINGLE_POINT_ENERGY>  (2140) 
0

>  <NONCOV_INTER_ENERGY_QM>  (2140) 
0

>  <FF_Energy>  (2140) 
40.14

>  <QM_Energy>  (2140) 
4.18

>  <source>  (2140) 
ACET_PRPA_29

>  <Index>  (2140) 
1028

$$$$
ACEH-pdb6nbm-B-GLH-292:PRPA-pdb6nbm-B-LEU-342
     RDKit          3D

 18 16  0  0  0  0  0  0  0  0999 V2000
    0.0053    1.5172   -0.0296 C   0  0  0  0  0  0  0  0  0  0  0  0
    0.8463    1.8025   -0.4432 H   0  0  0  0  0  0  0  0  0  0  0  0
   -0.0895    1.8322    0.8946 H   0  0  0  0  0  0  0  0  0  0  0  0
   -0.8205    1.9183   -0.6172 H   0  0  0  0  0  0  0  0  0  0  0  0
    0.0000    0.0000    0.0000 C   0  0  0  0  0  0  0  0  0  0  0  0
   -1.1090   -0.5974   -0.0000 O   0  0  0  0  0  0  0  0  0  0  0  0
    1.1090   -0.5811   -0.0000 O   0  0  0  0  0  0  0  0  0  0  0  0
    1.6744   -2.5209    1.9001 C   0  0  0  0  0  0  0  0  0  0  0  0
    1.1473   -1.6874    1.7475 H   0  0  0  0  0  0  0  0  0  0  0  0
    1.0601   -3.3076    1.9340 H   0  0  0  0  0  0  0  0  0  0  0  0
    2.1785   -2.4493    2.7585 H   0  0  0  0  0  0  0  0  0  0  0  0
    2.6692   -2.7074    0.7462 C   0  0  0  0  0  0  0  0  0  0  0  0
    3.1931   -3.5445    0.8997 H   0  0  0  0  0  0  0  0  0  0  0  0
    3.3551   -1.8626    0.6838 H   0  0  0  0  0  0  0  0  0  0  0  0
    1.9301   -2.9724   -0.5847 C   0  0  0  0  0  0  0  0  0  0  0  0
    2.6023   -3.1698   -1.2937 H   0  0  0  0  0  0  0  0  0  0  0  0
    1.3205   -3.7522   -0.4654 H   0  0  0  0  0  0  0  0  0  0  0  0
    1.4036   -2.1618   -0.8283 H   0  0  0  0  0  0  0  0  0  0  0  0
  1  5  1  0
  5  6  2  0
  5  7  1  0
  1  2  1  0
  1  3  1  0
  1  4  1  0
  8 12  1  0
 12 15  1  0
  8  9  1  0
  8 10  1  0
  8 11  1  0
 12 13  1  0
 12 14  1  0
 15 16  1  0
 15 17  1  0
 15 18  1  0
M  CHG  1   7  -1
V    7 [O&-]
M  END
>  <PDB_ID>  (2141) 
pdb6nbm

>  <RESIDUE_NAME>  (2141) 
GLU   LEU

>  <FRAG_NAME>  (2141) 
ACET   PRPA

>  <FRAG_ATOM_NUM>  (2141) 
fragi: 7 fragj: 11

>  <atom.prop.CHAIN_ID>  (2141) 
A A A A A A A Z Z Z Z Z Z Z Z Z Z Z

>  <atom.prop.IS_HEAVY_ATOM>  (2141) 
1 0 0 0 1 1 1 1 0 0 0 1 0 0 1 0 0 0

>  <DIFUSE_FUNC_ATOM>  (2141) 
n/a

>  <FINAL_SINGLE_POINT_ENERGY>  (2141) 
0

>  <NONCOV_INTER_ENERGY_QM>  (2141) 
0

>  <FF_Energy>  (2141) 
41.05

>  <QM_Energy>  (2141) 
5.03

>  <source>  (2141) 
ACET_PRPA_29

>  <Index>  (2141) 
1068

$$$$
ACEH-pdb2ie8-A-ASH-291:PRPA-pdb2ie8-A-VAL-264
     RDKit          3D

 18 16  0  0  0  0  0  0  0  0999 V2000
   -0.0004    1.5335   -0.0315 C   0  0  0  0  0  0  0  0  0  0  0  0
    0.1189    1.8283   -0.9706 H   0  0  0  0  0  0  0  0  0  0  0  0
    0.7429    1.8603    0.5369 H   0  0  0  0  0  0  0  0  0  0  0  0
   -0.9280    1.9661    0.3432 H   0  0  0  0  0  0  0  0  0  0  0  0
    0.0000    0.0000    0.0000 C   0  0  0  0  0  0  0  0  0  0  0  0
   -1.1000   -0.5954   -0.0000 O   0  0  0  0  0  0  0  0  0  0  0  0
    1.1000   -0.6069    0.0000 O   0  0  0  0  0  0  0  0  0  0  0  0
    2.1851    4.5100    3.7078 C   0  0  0  0  0  0  0  0  0  0  0  0
    2.7450    4.8273    4.4333 H   0  0  0  0  0  0  0  0  0  0  0  0
    1.2137    4.2257    4.1122 H   0  0  0  0  0  0  0  0  0  0  0  0
    1.9083    5.3689    3.0964 H   0  0  0  0  0  0  0  0  0  0  0  0
    2.7818    3.3888    2.8510 C   0  0  0  0  0  0  0  0  0  0  0  0
    3.6508    3.7083    2.4886 H   0  0  0  0  0  0  0  0  0  0  0  0
    2.9993    2.5186    3.4704 H   0  0  0  0  0  0  0  0  0  0  0  0
    1.8093    3.0082    1.7791 C   0  0  0  0  0  0  0  0  0  0  0  0
    2.2867    2.5257    1.0391 H   0  0  0  0  0  0  0  0  0  0  0  0
    1.1000    2.4057    2.1574 H   0  0  0  0  0  0  0  0  0  0  0  0
    1.3729    3.8311    1.4042 H   0  0  0  0  0  0  0  0  0  0  0  0
  1  5  1  0
  5  6  2  0
  5  7  1  0
  1  2  1  0
  1  3  1  0
  1  4  1  0
  8 12  1  0
 12 15  1  0
  8  9  1  0
  8 10  1  0
  8 11  1  0
 12 13  1  0
 12 14  1  0
 15 16  1  0
 15 17  1  0
 15 18  1  0
M  CHG  1   7  -1
V    7 [O&-]
M  END
>  <PDB_ID>  (2142) 
pdb2ie8

>  <RESIDUE_NAME>  (2142) 
ASP   VAL

>  <FRAG_NAME>  (2142) 
ACET   PRPA

>  <FRAG_ATOM_NUM>  (2142) 
fragi: 7 fragj: 11

>  <atom.prop.CHAIN_ID>  (2142) 
A A A A A A A Z Z Z Z Z Z Z Z Z Z Z

>  <atom.prop.IS_HEAVY_ATOM>  (2142) 
1 0 0 0 1 1 1 1 0 0 0 1 0 0 1 0 0 0

>  <DIFUSE_FUNC_ATOM>  (2142) 
n/a

>  <FINAL_SINGLE_POINT_ENERGY>  (2142) 
0

>  <NONCOV_INTER_ENERGY_QM>  (2142) 
0

>  <FF_Energy>  (2142) 
30.9

>  <QM_Energy>  (2142) 
6.45

>  <source>  (2142) 
ACET_PRPA_29

>  <Index>  (2142) 
1528

$$$$
ACEH-pdb2ie8-A-ASH-291:PRPA-pdb2ie8-A-VAL-264
     RDKit          3D

 18 16  0  0  0  0  0  0  0  0999 V2000
   -0.0004    1.5335   -0.0315 C   0  0  0  0  0  0  0  0  0  0  0  0
    0.1189    1.8283   -0.9706 H   0  0  0  0  0  0  0  0  0  0  0  0
    0.7429    1.8603    0.5369 H   0  0  0  0  0  0  0  0  0  0  0  0
   -0.9280    1.9661    0.3432 H   0  0  0  0  0  0  0  0  0  0  0  0
    0.0000    0.0000    0.0000 C   0  0  0  0  0  0  0  0  0  0  0  0
   -1.1000   -0.5954   -0.0000 O   0  0  0  0  0  0  0  0  0  0  0  0
    1.1000   -0.6069    0.0000 O   0  0  0  0  0  0  0  0  0  0  0  0
    3.0863    2.1711    3.7177 C   0  0  0  0  0  0  0  0  0  0  0  0
    3.8648    1.6760    3.3339 H   0  0  0  0  0  0  0  0  0  0  0  0
    3.3049    2.4700    4.6456 H   0  0  0  0  0  0  0  0  0  0  0  0
    2.2871    1.5709    3.7405 H   0  0  0  0  0  0  0  0  0  0  0  0
    2.7818    3.3888    2.8510 C   0  0  0  0  0  0  0  0  0  0  0  0
    3.6508    3.7083    2.4886 H   0  0  0  0  0  0  0  0  0  0  0  0
    2.3573    4.1865    3.4606 H   0  0  0  0  0  0  0  0  0  0  0  0
    1.8093    3.0082    1.7791 C   0  0  0  0  0  0  0  0  0  0  0  0
    2.2867    2.5257    1.0391 H   0  0  0  0  0  0  0  0  0  0  0  0
    1.1000    2.4057    2.1574 H   0  0  0  0  0  0  0  0  0  0  0  0
    1.3729    3.8311    1.4042 H   0  0  0  0  0  0  0  0  0  0  0  0
  1  5  1  0
  5  6  2  0
  5  7  1  0
  1  2  1  0
  1  3  1  0
  1  4  1  0
  8 12  1  0
 12 15  1  0
  8  9  1  0
  8 10  1  0
  8 11  1  0
 12 13  1  0
 12 14  1  0
 15 16  1  0
 15 17  1  0
 15 18  1  0
M  CHG  1   7  -1
V    7 [O&-]
M  END
>  <PDB_ID>  (2143) 
pdb2ie8

>  <RESIDUE_NAME>  (2143) 
ASP   VAL

>  <FRAG_NAME>  (2143) 
ACET   PRPA

>  <FRAG_ATOM_NUM>  (2143) 
fragi: 7 fragj: 11

>  <atom.prop.CHAIN_ID>  (2143) 
A A A A A A A Z Z Z Z Z Z Z Z Z Z Z

>  <atom.prop.IS_HEAVY_ATOM>  (2143) 
1 0 0 0 1 1 1 1 0 0 0 1 0 0 1 0 0 0

>  <DIFUSE_FUNC_ATOM>  (2143) 
n/a

>  <FINAL_SINGLE_POINT_ENERGY>  (2143) 
0

>  <NONCOV_INTER_ENERGY_QM>  (2143) 
0

>  <FF_Energy>  (2143) 
30.98

>  <QM_Energy>  (2143) 
6.28

>  <source>  (2143) 
ACET_PRPA_29

>  <Index>  (2143) 
1618

$$$$
ACEH-pdb1hnn-B-GLH-719:PRPA-pdb1hnn-B-VAL-769
     RDKit          3D

 18 16  0  0  0  0  0  0  0  0999 V2000
    0.0073    1.5313    0.0024 C   0  0  0  0  0  0  0  0  0  0  0  0
   -0.8951    1.8285   -0.2511 H   0  0  0  0  0  0  0  0  0  0  0  0
    0.6901    1.8205   -0.6425 H   0  0  0  0  0  0  0  0  0  0  0  0
    0.2486    1.9603    0.9749 H   0  0  0  0  0  0  0  0  0  0  0  0
    0.0000    0.0000    0.0000 C   0  0  0  0  0  0  0  0  0  0  0  0
   -1.1022   -0.6036    0.0000 O   0  0  0  0  0  0  0  0  0  0  0  0
    1.1022   -0.5942    0.0000 O   0  0  0  0  0  0  0  0  0  0  0  0
    3.6908    0.8991    2.5978 C   0  0  0  0  0  0  0  0  0  0  0  0
    2.9391    1.5488    2.7418 H   0  0  0  0  0  0  0  0  0  0  0  0
    4.0270    0.9968    1.5656 H   0  0  0  0  0  0  0  0  0  0  0  0
    4.5010    1.1574    3.2798 H   0  0  0  0  0  0  0  0  0  0  0  0
    3.2579   -0.5431    2.9498 C   0  0  0  0  0  0  0  0  0  0  0  0
    3.3305   -0.6385    3.9381 H   0  0  0  0  0  0  0  0  0  0  0  0
    3.8994   -1.2591    2.4363 H   0  0  0  0  0  0  0  0  0  0  0  0
    1.8260   -0.7600    2.5739 C   0  0  0  0  0  0  0  0  0  0  0  0
    1.4408   -1.5222    3.1017 H   0  0  0  0  0  0  0  0  0  0  0  0
    1.2891    0.0671    2.7623 H   0  0  0  0  0  0  0  0  0  0  0  0
    1.7532   -0.9757    1.5961 H   0  0  0  0  0  0  0  0  0  0  0  0
  1  5  1  0
  5  6  2  0
  5  7  1  0
  1  2  1  0
  1  3  1  0
  1  4  1  0
  8 12  1  0
 12 15  1  0
  8  9  1  0
  8 10  1  0
  8 11  1  0
 12 13  1  0
 12 14  1  0
 15 16  1  0
 15 17  1  0
 15 18  1  0
M  CHG  1   7  -1
V    7 [O&-]
M  END
>  <PDB_ID>  (2144) 
pdb1hnn

>  <RESIDUE_NAME>  (2144) 
GLU   VAL

>  <FRAG_NAME>  (2144) 
ACET   PRPA

>  <FRAG_ATOM_NUM>  (2144) 
fragi: 7 fragj: 11

>  <atom.prop.CHAIN_ID>  (2144) 
A A A A A A A Z Z Z Z Z Z Z Z Z Z Z

>  <atom.prop.IS_HEAVY_ATOM>  (2144) 
1 0 0 0 1 1 1 1 0 0 0 1 0 0 1 0 0 0

>  <DIFUSE_FUNC_ATOM>  (2144) 
n/a

>  <FINAL_SINGLE_POINT_ENERGY>  (2144) 
0

>  <NONCOV_INTER_ENERGY_QM>  (2144) 
0

>  <FF_Energy>  (2144) 
36.95

>  <QM_Energy>  (2144) 
2.78

>  <source>  (2144) 
ACET_PRPA_29

>  <Index>  (2144) 
2047

$$$$
ACEH-pdb1hxs-3-GLH-45:PRPA-pdb1hxs-3-VAL-40
     RDKit          3D

 18 16  0  0  0  0  0  0  0  0999 V2000
    0.0023    1.5144   -0.0221 C   0  0  0  0  0  0  0  0  0  0  0  0
    0.4171    1.8212    0.8085 H   0  0  0  0  0  0  0  0  0  0  0  0
   -0.9231    1.8092   -0.1236 H   0  0  0  0  0  0  0  0  0  0  0  0
    0.5848    1.8922   -0.8623 H   0  0  0  0  0  0  0  0  0  0  0  0
    0.0000    0.0000    0.0000 C   0  0  0  0  0  0  0  0  0  0  0  0
   -1.0744   -0.5840   -0.0000 O   0  0  0  0  0  0  0  0  0  0  0  0
    1.0744   -0.5972    0.0000 O   0  0  0  0  0  0  0  0  0  0  0  0
    0.1691   -2.9849    1.8607 C   0  0  0  0  0  0  0  0  0  0  0  0
    0.3816   -2.7785    0.9032 H   0  0  0  0  0  0  0  0  0  0  0  0
   -0.1952   -4.0108    1.9159 H   0  0  0  0  0  0  0  0  0  0  0  0
    1.0884   -2.8846    2.4376 H   0  0  0  0  0  0  0  0  0  0  0  0
   -0.8650   -1.9925    2.4407 C   0  0  0  0  0  0  0  0  0  0  0  0
   -0.9388   -2.1707    3.4162 H   0  0  0  0  0  0  0  0  0  0  0  0
   -0.5144   -0.9665    2.3286 H   0  0  0  0  0  0  0  0  0  0  0  0
   -2.1858   -2.1732    1.7297 C   0  0  0  0  0  0  0  0  0  0  0  0
   -2.1166   -1.8151    0.7968 H   0  0  0  0  0  0  0  0  0  0  0  0
   -2.4184   -3.1470    1.6953 H   0  0  0  0  0  0  0  0  0  0  0  0
   -2.9031   -1.6776    2.2233 H   0  0  0  0  0  0  0  0  0  0  0  0
  1  5  1  0
  5  6  2  0
  5  7  1  0
  1  2  1  0
  1  3  1  0
  1  4  1  0
  8 12  1  0
 12 15  1  0
  8  9  1  0
  8 10  1  0
  8 11  1  0
 12 13  1  0
 12 14  1  0
 15 16  1  0
 15 17  1  0
 15 18  1  0
M  CHG  1   7  -1
V    7 [O&-]
M  END
>  <PDB_ID>  (2145) 
pdb1hxs

>  <RESIDUE_NAME>  (2145) 
GLU   VAL

>  <FRAG_NAME>  (2145) 
ACET   PRPA

>  <FRAG_ATOM_NUM>  (2145) 
fragi: 7 fragj: 11

>  <atom.prop.CHAIN_ID>  (2145) 
A A A A A A A Z Z Z Z Z Z Z Z Z Z Z

>  <atom.prop.IS_HEAVY_ATOM>  (2145) 
1 0 0 0 1 1 1 1 0 0 0 1 0 0 1 0 0 0

>  <DIFUSE_FUNC_ATOM>  (2145) 
n/a

>  <FINAL_SINGLE_POINT_ENERGY>  (2145) 
0

>  <NONCOV_INTER_ENERGY_QM>  (2145) 
0

>  <FF_Energy>  (2145) 
36.28

>  <QM_Energy>  (2145) 
1.71

>  <source>  (2145) 
ACET_PRPA_29

>  <Index>  (2145) 
2157

$$$$
ACEH-pdb1hnn-B-GLH-719:PRPA-pdb1hnn-B-VAL-769
     RDKit          3D

 18 16  0  0  0  0  0  0  0  0999 V2000
    0.0073    1.5313    0.0024 C   0  0  0  0  0  0  0  0  0  0  0  0
   -0.8951    1.8285   -0.2511 H   0  0  0  0  0  0  0  0  0  0  0  0
    0.6901    1.8205   -0.6425 H   0  0  0  0  0  0  0  0  0  0  0  0
    0.2486    1.9603    0.9749 H   0  0  0  0  0  0  0  0  0  0  0  0
    0.0000    0.0000    0.0000 C   0  0  0  0  0  0  0  0  0  0  0  0
   -1.1022   -0.6036    0.0000 O   0  0  0  0  0  0  0  0  0  0  0  0
    1.1022   -0.5942    0.0000 O   0  0  0  0  0  0  0  0  0  0  0  0
    1.8260   -0.7600    2.5739 C   0  0  0  0  0  0  0  0  0  0  0  0
    1.4408   -1.5222    3.1017 H   0  0  0  0  0  0  0  0  0  0  0  0
    1.2891    0.0671    2.7623 H   0  0  0  0  0  0  0  0  0  0  0  0
    1.7532   -0.9757    1.5961 H   0  0  0  0  0  0  0  0  0  0  0  0
    3.2579   -0.5431    2.9498 C   0  0  0  0  0  0  0  0  0  0  0  0
    3.3305   -0.6385    3.9381 H   0  0  0  0  0  0  0  0  0  0  0  0
    3.5631    0.4736    2.7017 H   0  0  0  0  0  0  0  0  0  0  0  0
    4.1556   -1.5450    2.2312 C   0  0  0  0  0  0  0  0  0  0  0  0
    3.6657   -1.9193    1.4445 H   0  0  0  0  0  0  0  0  0  0  0  0
    4.9853   -1.0803    1.9234 H   0  0  0  0  0  0  0  0  0  0  0  0
    4.3955   -2.2826    2.8615 H   0  0  0  0  0  0  0  0  0  0  0  0
  1  5  1  0
  5  6  2  0
  5  7  1  0
  1  2  1  0
  1  3  1  0
  1  4  1  0
  8 12  1  0
 12 15  1  0
  8  9  1  0
  8 10  1  0
  8 11  1  0
 12 13  1  0
 12 14  1  0
 15 16  1  0
 15 17  1  0
 15 18  1  0
M  CHG  1   7  -1
V    7 [O&-]
M  END
>  <PDB_ID>  (2146) 
pdb1hnn

>  <RESIDUE_NAME>  (2146) 
GLU   VAL

>  <FRAG_NAME>  (2146) 
ACET   PRPA

>  <FRAG_ATOM_NUM>  (2146) 
fragi: 7 fragj: 11

>  <atom.prop.CHAIN_ID>  (2146) 
A A A A A A A Z Z Z Z Z Z Z Z Z Z Z

>  <atom.prop.IS_HEAVY_ATOM>  (2146) 
1 0 0 0 1 1 1 1 0 0 0 1 0 0 1 0 0 0

>  <DIFUSE_FUNC_ATOM>  (2146) 
n/a

>  <FINAL_SINGLE_POINT_ENERGY>  (2146) 
0

>  <NONCOV_INTER_ENERGY_QM>  (2146) 
0

>  <FF_Energy>  (2146) 
36.8

>  <QM_Energy>  (2146) 
2.72

>  <source>  (2146) 
ACET_PRPA_29

>  <Index>  (2146) 
2193

$$$$
ACEH-pdb1gu6-E-GLH-344:PRPA-pdb1gu6-E-LYS-340
     RDKit          3D

 18 16  0  0  0  0  0  0  0  0999 V2000
   -0.0173    1.5091    0.0198 C   0  0  0  0  0  0  0  0  0  0  0  0
    0.1665    1.7970    0.9437 H   0  0  0  0  0  0  0  0  0  0  0  0
   -0.9077    1.8002   -0.2860 H   0  0  0  0  0  0  0  0  0  0  0  0
    0.7346    1.9494   -0.6351 H   0  0  0  0  0  0  0  0  0  0  0  0
    0.0000    0.0000    0.0000 C   0  0  0  0  0  0  0  0  0  0  0  0
   -1.0869   -0.5949   -0.0000 O   0  0  0  0  0  0  0  0  0  0  0  0
    1.0869   -0.6096   -0.0000 O   0  0  0  0  0  0  0  0  0  0  0  0
   -4.1521   -0.8103   -3.1052 C   0  0  0  0  0  0  0  0  0  0  0  0
   -5.0706   -1.0813   -3.4253 H   0  0  0  0  0  0  0  0  0  0  0  0
   -3.4748   -1.3827   -3.5889 H   0  0  0  0  0  0  0  0  0  0  0  0
   -3.9880    0.2228   -3.4114 H   0  0  0  0  0  0  0  0  0  0  0  0
   -4.0476   -1.0270   -1.6813 C   0  0  0  0  0  0  0  0  0  0  0  0
   -3.8964   -0.1522   -1.2093 H   0  0  0  0  0  0  0  0  0  0  0  0
   -4.8949   -1.4383   -1.3314 H   0  0  0  0  0  0  0  0  0  0  0  0
   -2.9312   -1.9178   -1.4241 C   0  0  0  0  0  0  0  0  0  0  0  0
   -2.2279   -1.7964   -2.1345 H   0  0  0  0  0  0  0  0  0  0  0  0
   -2.5209   -1.7024   -0.5304 H   0  0  0  0  0  0  0  0  0  0  0  0
   -3.2514   -2.9597   -1.4216 H   0  0  0  0  0  0  0  0  0  0  0  0
  1  5  1  0
  5  6  2  0
  5  7  1  0
  1  2  1  0
  1  3  1  0
  1  4  1  0
  8 12  1  0
 12 15  1  0
  8  9  1  0
  8 10  1  0
  8 11  1  0
 12 13  1  0
 12 14  1  0
 15 16  1  0
 15 17  1  0
 15 18  1  0
M  CHG  1   7  -1
V    7 [O&-]
M  END
>  <PDB_ID>  (2147) 
pdb1gu6

>  <RESIDUE_NAME>  (2147) 
GLU   LYS

>  <FRAG_NAME>  (2147) 
ACET   PRPA

>  <FRAG_ATOM_NUM>  (2147) 
fragi: 7 fragj: 11

>  <atom.prop.CHAIN_ID>  (2147) 
A A A A A A A Z Z Z Z Z Z Z Z Z Z Z

>  <atom.prop.IS_HEAVY_ATOM>  (2147) 
1 0 0 0 1 1 1 1 0 0 0 1 0 0 1 0 0 0

>  <DIFUSE_FUNC_ATOM>  (2147) 
n/a

>  <FINAL_SINGLE_POINT_ENERGY>  (2147) 
0

>  <NONCOV_INTER_ENERGY_QM>  (2147) 
0

>  <FF_Energy>  (2147) 
17.38

>  <QM_Energy>  (2147) 
0.67

>  <source>  (2147) 
ACET_PRPA_29

>  <Index>  (2147) 
2283

$$$$
ACEH-pdb3ghz-A-ASH-38:PRPA-pdb3ghz-A-ILE-20
     RDKit          3D

 18 16  0  0  0  0  0  0  0  0999 V2000
    0.0325    1.4975   -0.0440 C   0  0  0  0  0  0  0  0  0  0  0  0
    0.8761    1.7939   -0.4856 H   0  0  0  0  0  0  0  0  0  0  0  0
   -0.0057    1.8532    0.8865 H   0  0  0  0  0  0  0  0  0  0  0  0
   -0.8013    1.9272   -0.5992 H   0  0  0  0  0  0  0  0  0  0  0  0
    0.0000    0.0000    0.0000 C   0  0  0  0  0  0  0  0  0  0  0  0
   -1.0976   -0.5657   -0.0000 O   0  0  0  0  0  0  0  0  0  0  0  0
    1.0976   -0.5911    0.0000 O   0  0  0  0  0  0  0  0  0  0  0  0
   -1.8118   -2.6431   -1.5167 C   0  0  0  0  0  0  0  0  0  0  0  0
   -1.8693   -1.7142   -1.1470 H   0  0  0  0  0  0  0  0  0  0  0  0
   -1.0382   -2.6277   -2.2845 H   0  0  0  0  0  0  0  0  0  0  0  0
   -1.4881   -3.2858   -0.6981 H   0  0  0  0  0  0  0  0  0  0  0  0
   -3.1355   -3.2454   -2.0536 C   0  0  0  0  0  0  0  0  0  0  0  0
   -2.9699   -4.2031   -2.2707 H   0  0  0  0  0  0  0  0  0  0  0  0
   -3.8821   -3.2756   -1.2600 H   0  0  0  0  0  0  0  0  0  0  0  0
   -3.5964   -2.5405   -3.3489 C   0  0  0  0  0  0  0  0  0  0  0  0
   -2.8118   -2.4885   -3.9742 H   0  0  0  0  0  0  0  0  0  0  0  0
   -4.2956   -3.1172   -3.7844 H   0  0  0  0  0  0  0  0  0  0  0  0
   -4.0086   -1.5385   -3.2295 H   0  0  0  0  0  0  0  0  0  0  0  0
  1  5  1  0
  5  6  2  0
  5  7  1  0
  1  2  1  0
  1  3  1  0
  1  4  1  0
  8 12  1  0
 12 15  1  0
  8  9  1  0
  8 10  1  0
  8 11  1  0
 12 13  1  0
 12 14  1  0
 15 16  1  0
 15 17  1  0
 15 18  1  0
M  CHG  1   7  -1
V    7 [O&-]
M  END
>  <PDB_ID>  (2148) 
pdb3ghz

>  <RESIDUE_NAME>  (2148) 
ASP   ILE

>  <FRAG_NAME>  (2148) 
ACET   PRPA

>  <FRAG_ATOM_NUM>  (2148) 
fragi: 7 fragj: 11

>  <atom.prop.CHAIN_ID>  (2148) 
A A A A A A A Z Z Z Z Z Z Z Z Z Z Z

>  <atom.prop.IS_HEAVY_ATOM>  (2148) 
1 0 0 0 1 1 1 1 0 0 0 1 0 0 1 0 0 0

>  <DIFUSE_FUNC_ATOM>  (2148) 
n/a

>  <FINAL_SINGLE_POINT_ENERGY>  (2148) 
0

>  <NONCOV_INTER_ENERGY_QM>  (2148) 
0

>  <FF_Energy>  (2148) 
29.79

>  <QM_Energy>  (2148) 
2.6

>  <source>  (2148) 
ACET_PRPA_29

>  <Index>  (2148) 
2340

$$$$
ACEH-pdb3ghz-A-ASH-38:PRPA-pdb3ghz-A-ILE-20
     RDKit          3D

 18 16  0  0  0  0  0  0  0  0999 V2000
    0.0325    1.4975   -0.0440 C   0  0  0  0  0  0  0  0  0  0  0  0
    0.8761    1.7939   -0.4856 H   0  0  0  0  0  0  0  0  0  0  0  0
   -0.0057    1.8532    0.8865 H   0  0  0  0  0  0  0  0  0  0  0  0
   -0.8013    1.9272   -0.5992 H   0  0  0  0  0  0  0  0  0  0  0  0
    0.0000    0.0000    0.0000 C   0  0  0  0  0  0  0  0  0  0  0  0
   -1.0976   -0.5657   -0.0000 O   0  0  0  0  0  0  0  0  0  0  0  0
    1.0976   -0.5911    0.0000 O   0  0  0  0  0  0  0  0  0  0  0  0
   -1.8118   -2.6431   -1.5167 C   0  0  0  0  0  0  0  0  0  0  0  0
   -1.8693   -1.7142   -1.1470 H   0  0  0  0  0  0  0  0  0  0  0  0
   -1.0382   -2.6277   -2.2845 H   0  0  0  0  0  0  0  0  0  0  0  0
   -1.4881   -3.2858   -0.6981 H   0  0  0  0  0  0  0  0  0  0  0  0
   -3.1355   -3.2454   -2.0536 C   0  0  0  0  0  0  0  0  0  0  0  0
   -2.9699   -4.2031   -2.2707 H   0  0  0  0  0  0  0  0  0  0  0  0
   -3.4607   -2.7481   -2.9674 H   0  0  0  0  0  0  0  0  0  0  0  0
   -4.2081   -3.2887   -0.9135 C   0  0  0  0  0  0  0  0  0  0  0  0
   -5.0020   -3.7777   -1.2514 H   0  0  0  0  0  0  0  0  0  0  0  0
   -3.8149   -3.7583   -0.1336 H   0  0  0  0  0  0  0  0  0  0  0  0
   -4.4477   -2.3566   -0.6749 H   0  0  0  0  0  0  0  0  0  0  0  0
  1  5  1  0
  5  6  2  0
  5  7  1  0
  1  2  1  0
  1  3  1  0
  1  4  1  0
  8 12  1  0
 12 15  1  0
  8  9  1  0
  8 10  1  0
  8 11  1  0
 12 13  1  0
 12 14  1  0
 15 16  1  0
 15 17  1  0
 15 18  1  0
M  CHG  1   7  -1
V    7 [O&-]
M  END
>  <PDB_ID>  (2149) 
pdb3ghz

>  <RESIDUE_NAME>  (2149) 
ASP   ILE

>  <FRAG_NAME>  (2149) 
ACET   PRPA

>  <FRAG_ATOM_NUM>  (2149) 
fragi: 7 fragj: 11

>  <atom.prop.CHAIN_ID>  (2149) 
A A A A A A A Z Z Z Z Z Z Z Z Z Z Z

>  <atom.prop.IS_HEAVY_ATOM>  (2149) 
1 0 0 0 1 1 1 1 0 0 0 1 0 0 1 0 0 0

>  <DIFUSE_FUNC_ATOM>  (2149) 
n/a

>  <FINAL_SINGLE_POINT_ENERGY>  (2149) 
0

>  <NONCOV_INTER_ENERGY_QM>  (2149) 
0

>  <FF_Energy>  (2149) 
29.76

>  <QM_Energy>  (2149) 
2.35

>  <source>  (2149) 
ACET_PRPA_29

>  <Index>  (2149) 
2394

$$$$
ACEH-pdb4icu-D-GLH-506:PRPA-pdb4icu-A-LYS-449
     RDKit          3D

 18 16  0  0  0  0  0  0  0  0999 V2000
    0.0181    1.5193    0.0055 C   0  0  0  0  0  0  0  0  0  0  0  0
    0.9007    1.8066   -0.3221 H   0  0  0  0  0  0  0  0  0  0  0  0
   -0.1458    1.8140    0.9312 H   0  0  0  0  0  0  0  0  0  0  0  0
   -0.7438    1.9629   -0.6353 H   0  0  0  0  0  0  0  0  0  0  0  0
    0.0000    0.0000    0.0000 C   0  0  0  0  0  0  0  0  0  0  0  0
   -1.0978   -0.6020   -0.0000 O   0  0  0  0  0  0  0  0  0  0  0  0
    1.0978   -0.5963   -0.0000 O   0  0  0  0  0  0  0  0  0  0  0  0
   -2.9168   -0.2805    4.3338 C   0  0  0  0  0  0  0  0  0  0  0  0
   -3.3765   -1.1804    4.3514 H   0  0  0  0  0  0  0  0  0  0  0  0
   -3.5275    0.3701    3.8607 H   0  0  0  0  0  0  0  0  0  0  0  0
   -2.7880    0.0565    5.3624 H   0  0  0  0  0  0  0  0  0  0  0  0
   -1.6303   -0.3929    3.5836 C   0  0  0  0  0  0  0  0  0  0  0  0
   -1.1970    0.5003    3.5278 H   0  0  0  0  0  0  0  0  0  0  0  0
   -1.0302   -1.0402    4.0416 H   0  0  0  0  0  0  0  0  0  0  0  0
   -1.8740   -0.8917    2.1683 C   0  0  0  0  0  0  0  0  0  0  0  0
   -2.6736   -1.4927    2.1695 H   0  0  0  0  0  0  0  0  0  0  0  0
   -2.0505   -0.1071    1.5733 H   0  0  0  0  0  0  0  0  0  0  0  0
   -1.0103   -1.4411    1.7936 H   0  0  0  0  0  0  0  0  0  0  0  0
  1  5  1  0
  5  6  2  0
  5  7  1  0
  1  2  1  0
  1  3  1  0
  1  4  1  0
  8 12  1  0
 12 15  1  0
  8  9  1  0
  8 10  1  0
  8 11  1  0
 12 13  1  0
 12 14  1  0
 15 16  1  0
 15 17  1  0
 15 18  1  0
M  CHG  1   7  -1
V    7 [O&-]
M  END
>  <PDB_ID>  (2150) 
pdb4icu

>  <RESIDUE_NAME>  (2150) 
GLU   LYS

>  <FRAG_NAME>  (2150) 
ACET   PRPA

>  <FRAG_ATOM_NUM>  (2150) 
fragi: 7 fragj: 11

>  <atom.prop.CHAIN_ID>  (2150) 
A A A A A A A Z Z Z Z Z Z Z Z Z Z Z

>  <atom.prop.IS_HEAVY_ATOM>  (2150) 
1 0 0 0 1 1 1 1 0 0 0 1 0 0 1 0 0 0

>  <DIFUSE_FUNC_ATOM>  (2150) 
n/a

>  <FINAL_SINGLE_POINT_ENERGY>  (2150) 
0

>  <NONCOV_INTER_ENERGY_QM>  (2150) 
0

>  <FF_Energy>  (2150) 
48.35

>  <QM_Energy>  (2150) 
14.85

>  <source>  (2150) 
ACET_PRPA_29

>  <Index>  (2150) 
2922

$$$$
ACEH-pdb1gu6-G-GLH-344:PRPA-pdb1gu6-G-LYS-340
     RDKit          3D

 18 16  0  0  0  0  0  0  0  0999 V2000
   -0.0211    1.5152    0.0210 C   0  0  0  0  0  0  0  0  0  0  0  0
    0.1474    1.8037    0.9440 H   0  0  0  0  0  0  0  0  0  0  0  0
   -0.8988    1.8056   -0.3094 H   0  0  0  0  0  0  0  0  0  0  0  0
    0.7467    1.9520   -0.6175 H   0  0  0  0  0  0  0  0  0  0  0  0
    0.0000    0.0000    0.0000 C   0  0  0  0  0  0  0  0  0  0  0  0
   -1.0752   -0.5830    0.0000 O   0  0  0  0  0  0  0  0  0  0  0  0
    1.0752   -0.6361   -0.0000 O   0  0  0  0  0  0  0  0  0  0  0  0
   -4.1275   -0.8102   -3.0502 C   0  0  0  0  0  0  0  0  0  0  0  0
   -5.0471   -1.0646   -3.3598 H   0  0  0  0  0  0  0  0  0  0  0  0
   -3.4546   -1.3847   -3.5265 H   0  0  0  0  0  0  0  0  0  0  0  0
   -3.9544    0.2170   -3.3711 H   0  0  0  0  0  0  0  0  0  0  0  0
   -4.0152   -0.9940   -1.6156 C   0  0  0  0  0  0  0  0  0  0  0  0
   -3.8396   -0.1205   -1.1668 H   0  0  0  0  0  0  0  0  0  0  0  0
   -4.8476   -1.4029   -1.2515 H   0  0  0  0  0  0  0  0  0  0  0  0
   -2.8822   -1.9001   -1.3756 C   0  0  0  0  0  0  0  0  0  0  0  0
   -2.2023   -1.7867   -2.1076 H   0  0  0  0  0  0  0  0  0  0  0  0
   -2.4492   -1.6707   -0.4981 H   0  0  0  0  0  0  0  0  0  0  0  0
   -3.1987   -2.9427   -1.3493 H   0  0  0  0  0  0  0  0  0  0  0  0
  1  5  1  0
  5  6  2  0
  5  7  1  0
  1  2  1  0
  1  3  1  0
  1  4  1  0
  8 12  1  0
 12 15  1  0
  8  9  1  0
  8 10  1  0
  8 11  1  0
 12 13  1  0
 12 14  1  0
 15 16  1  0
 15 17  1  0
 15 18  1  0
M  CHG  1   7  -1
V    7 [O&-]
M  END
>  <PDB_ID>  (2151) 
pdb1gu6

>  <RESIDUE_NAME>  (2151) 
GLU   LYS

>  <FRAG_NAME>  (2151) 
ACET   PRPA

>  <FRAG_ATOM_NUM>  (2151) 
fragi: 7 fragj: 11

>  <atom.prop.CHAIN_ID>  (2151) 
A A A A A A A Z Z Z Z Z Z Z Z Z Z Z

>  <atom.prop.IS_HEAVY_ATOM>  (2151) 
1 0 0 0 1 1 1 1 0 0 0 1 0 0 1 0 0 0

>  <DIFUSE_FUNC_ATOM>  (2151) 
n/a

>  <FINAL_SINGLE_POINT_ENERGY>  (2151) 
0

>  <NONCOV_INTER_ENERGY_QM>  (2151) 
0

>  <FF_Energy>  (2151) 
26.76

>  <QM_Energy>  (2151) 
2.11

>  <source>  (2151) 
ACET_PRPA_29

>  <Index>  (2151) 
3054

$$$$
ACEH-pdb1gu6-G-GLH-344:PRPA-pdb1gu6-G-LYS-340
     RDKit          3D

 18 16  0  0  0  0  0  0  0  0999 V2000
   -0.0211    1.5152    0.0210 C   0  0  0  0  0  0  0  0  0  0  0  0
    0.1474    1.8037    0.9440 H   0  0  0  0  0  0  0  0  0  0  0  0
   -0.8988    1.8056   -0.3094 H   0  0  0  0  0  0  0  0  0  0  0  0
    0.7467    1.9520   -0.6175 H   0  0  0  0  0  0  0  0  0  0  0  0
    0.0000    0.0000    0.0000 C   0  0  0  0  0  0  0  0  0  0  0  0
   -1.0752   -0.5830    0.0000 O   0  0  0  0  0  0  0  0  0  0  0  0
    1.0752   -0.6361   -0.0000 O   0  0  0  0  0  0  0  0  0  0  0  0
   -4.0152   -0.9940   -1.6156 C   0  0  0  0  0  0  0  0  0  0  0  0
   -3.8396   -0.1205   -1.1668 H   0  0  0  0  0  0  0  0  0  0  0  0
   -4.8476   -1.4029   -1.2515 H   0  0  0  0  0  0  0  0  0  0  0  0
   -4.0995   -0.8558   -2.6935 H   0  0  0  0  0  0  0  0  0  0  0  0
   -2.8822   -1.9001   -1.3756 C   0  0  0  0  0  0  0  0  0  0  0  0
   -2.2023   -1.7867   -2.1076 H   0  0  0  0  0  0  0  0  0  0  0  0
   -2.4492   -1.6707   -0.4981 H   0  0  0  0  0  0  0  0  0  0  0  0
   -3.3115   -3.3147   -1.3398 C   0  0  0  0  0  0  0  0  0  0  0  0
   -3.9830   -3.4540   -0.6316 H   0  0  0  0  0  0  0  0  0  0  0  0
   -3.6481   -3.5962   -2.2228 H   0  0  0  0  0  0  0  0  0  0  0  0
   -2.4262   -3.9039   -1.1007 H   0  0  0  0  0  0  0  0  0  0  0  0
  1  5  1  0
  5  6  2  0
  5  7  1  0
  1  2  1  0
  1  3  1  0
  1  4  1  0
  8 12  1  0
 12 15  1  0
  8  9  1  0
  8 10  1  0
  8 11  1  0
 12 13  1  0
 12 14  1  0
 15 16  1  0
 15 17  1  0
 15 18  1  0
M  CHG  1   7  -1
V    7 [O&-]
M  END
>  <PDB_ID>  (2152) 
pdb1gu6

>  <RESIDUE_NAME>  (2152) 
GLU   LYS

>  <FRAG_NAME>  (2152) 
ACET   PRPA

>  <FRAG_ATOM_NUM>  (2152) 
fragi: 7 fragj: 11

>  <atom.prop.CHAIN_ID>  (2152) 
A A A A A A A Z Z Z Z Z Z Z Z Z Z Z

>  <atom.prop.IS_HEAVY_ATOM>  (2152) 
1 0 0 0 1 1 1 1 0 0 0 1 0 0 1 0 0 0

>  <DIFUSE_FUNC_ATOM>  (2152) 
n/a

>  <FINAL_SINGLE_POINT_ENERGY>  (2152) 
0

>  <NONCOV_INTER_ENERGY_QM>  (2152) 
0

>  <FF_Energy>  (2152) 
29.24

>  <QM_Energy>  (2152) 
1.98

>  <source>  (2152) 
ACET_PRPA_29

>  <Index>  (2152) 
3099

$$$$
ACEH-pdb3gg9-B-GLH-122:PRPA-pdb3gg9-C-VAL-166
     RDKit          3D

 18 16  0  0  0  0  0  0  0  0999 V2000
   -0.0044    1.5123    0.0000 C   0  0  0  0  0  0  0  0  0  0  0  0
   -0.4549    1.8145    0.8223 H   0  0  0  0  0  0  0  0  0  0  0  0
   -0.4787    1.8127   -0.8102 H   0  0  0  0  0  0  0  0  0  0  0  0
    0.9930    1.9516   -0.0137 H   0  0  0  0  0  0  0  0  0  0  0  0
    0.0000    0.0000    0.0000 C   0  0  0  0  0  0  0  0  0  0  0  0
   -1.0918   -0.6097   -0.0000 O   0  0  0  0  0  0  0  0  0  0  0  0
    1.0918   -0.5941    0.0000 O   0  0  0  0  0  0  0  0  0  0  0  0
    1.6397   -3.2056   -2.0980 C   0  0  0  0  0  0  0  0  0  0  0  0
    1.8097   -2.2387   -1.9281 H   0  0  0  0  0  0  0  0  0  0  0  0
    2.2201   -3.5149   -2.9672 H   0  0  0  0  0  0  0  0  0  0  0  0
    1.9932   -3.7590   -1.2280 H   0  0  0  0  0  0  0  0  0  0  0  0
    0.0995   -3.4243   -2.3327 C   0  0  0  0  0  0  0  0  0  0  0  0
   -0.1191   -3.0325   -3.2214 H   0  0  0  0  0  0  0  0  0  0  0  0
   -0.1568   -4.4828   -2.3774 H   0  0  0  0  0  0  0  0  0  0  0  0
   -0.7383   -2.6956   -1.2788 C   0  0  0  0  0  0  0  0  0  0  0  0
   -0.6377   -1.7108   -1.4066 H   0  0  0  0  0  0  0  0  0  0  0  0
   -1.6959   -2.9561   -1.3872 H   0  0  0  0  0  0  0  0  0  0  0  0
   -0.4160   -2.9545   -0.3702 H   0  0  0  0  0  0  0  0  0  0  0  0
  1  5  1  0
  5  6  2  0
  5  7  1  0
  1  2  1  0
  1  3  1  0
  1  4  1  0
  8 12  1  0
 12 15  1  0
  8  9  1  0
  8 10  1  0
  8 11  1  0
 12 13  1  0
 12 14  1  0
 15 16  1  0
 15 17  1  0
 15 18  1  0
M  CHG  1   7  -1
V    7 [O&-]
M  END
>  <PDB_ID>  (2153) 
pdb3gg9

>  <RESIDUE_NAME>  (2153) 
GLU   VAL

>  <FRAG_NAME>  (2153) 
ACET   PRPA

>  <FRAG_ATOM_NUM>  (2153) 
fragi: 7 fragj: 11

>  <atom.prop.CHAIN_ID>  (2153) 
A A A A A A A Z Z Z Z Z Z Z Z Z Z Z

>  <atom.prop.IS_HEAVY_ATOM>  (2153) 
1 0 0 0 1 1 1 1 0 0 0 1 0 0 1 0 0 0

>  <DIFUSE_FUNC_ATOM>  (2153) 
n/a

>  <FINAL_SINGLE_POINT_ENERGY>  (2153) 
0

>  <NONCOV_INTER_ENERGY_QM>  (2153) 
0

>  <FF_Energy>  (2153) 
35.65

>  <QM_Energy>  (2153) 
6.75

>  <source>  (2153) 
ACET_PRPA_29

>  <Index>  (2153) 
3183

$$$$
ACEH-pdb3gg9-B-GLH-122:PRPA-pdb3gg9-C-VAL-166
     RDKit          3D

 18 16  0  0  0  0  0  0  0  0999 V2000
   -0.0044    1.5123    0.0000 C   0  0  0  0  0  0  0  0  0  0  0  0
   -0.4549    1.8145    0.8223 H   0  0  0  0  0  0  0  0  0  0  0  0
   -0.4787    1.8127   -0.8102 H   0  0  0  0  0  0  0  0  0  0  0  0
    0.9930    1.9516   -0.0137 H   0  0  0  0  0  0  0  0  0  0  0  0
    0.0000    0.0000    0.0000 C   0  0  0  0  0  0  0  0  0  0  0  0
   -1.0918   -0.6097   -0.0000 O   0  0  0  0  0  0  0  0  0  0  0  0
    1.0918   -0.5941    0.0000 O   0  0  0  0  0  0  0  0  0  0  0  0
   -0.2619   -4.9165   -2.3957 C   0  0  0  0  0  0  0  0  0  0  0  0
    0.0734   -5.3689   -1.5718 H   0  0  0  0  0  0  0  0  0  0  0  0
   -1.2530   -5.0100   -2.4531 H   0  0  0  0  0  0  0  0  0  0  0  0
    0.1636   -5.3222   -3.2019 H   0  0  0  0  0  0  0  0  0  0  0  0
    0.0995   -3.4243   -2.3327 C   0  0  0  0  0  0  0  0  0  0  0  0
   -0.1191   -3.0325   -3.2214 H   0  0  0  0  0  0  0  0  0  0  0  0
    1.1666   -3.2727   -2.1701 H   0  0  0  0  0  0  0  0  0  0  0  0
   -0.7383   -2.6956   -1.2788 C   0  0  0  0  0  0  0  0  0  0  0  0
   -0.6377   -1.7108   -1.4066 H   0  0  0  0  0  0  0  0  0  0  0  0
   -1.6959   -2.9561   -1.3872 H   0  0  0  0  0  0  0  0  0  0  0  0
   -0.4160   -2.9545   -0.3702 H   0  0  0  0  0  0  0  0  0  0  0  0
  1  5  1  0
  5  6  2  0
  5  7  1  0
  1  2  1  0
  1  3  1  0
  1  4  1  0
  8 12  1  0
 12 15  1  0
  8  9  1  0
  8 10  1  0
  8 11  1  0
 12 13  1  0
 12 14  1  0
 15 16  1  0
 15 17  1  0
 15 18  1  0
M  CHG  1   7  -1
V    7 [O&-]
M  END
>  <PDB_ID>  (2154) 
pdb3gg9

>  <RESIDUE_NAME>  (2154) 
GLU   VAL

>  <FRAG_NAME>  (2154) 
ACET   PRPA

>  <FRAG_ATOM_NUM>  (2154) 
fragi: 7 fragj: 11

>  <atom.prop.CHAIN_ID>  (2154) 
A A A A A A A Z Z Z Z Z Z Z Z Z Z Z

>  <atom.prop.IS_HEAVY_ATOM>  (2154) 
1 0 0 0 1 1 1 1 0 0 0 1 0 0 1 0 0 0

>  <DIFUSE_FUNC_ATOM>  (2154) 
n/a

>  <FINAL_SINGLE_POINT_ENERGY>  (2154) 
0

>  <NONCOV_INTER_ENERGY_QM>  (2154) 
0

>  <FF_Energy>  (2154) 
35.08

>  <QM_Energy>  (2154) 
8.17

>  <source>  (2154) 
ACET_PRPA_29

>  <Index>  (2154) 
3251

$$$$
ACEH-pdb3ghz-C-ASH-38:PRPA-pdb3ghz-C-ILE-20
     RDKit          3D

 18 16  0  0  0  0  0  0  0  0999 V2000
    0.0619    1.5077    0.0539 C   0  0  0  0  0  0  0  0  0  0  0  0
    0.9178    1.8113   -0.3605 H   0  0  0  0  0  0  0  0  0  0  0  0
    0.0262    1.8003    1.0070 H   0  0  0  0  0  0  0  0  0  0  0  0
   -0.7545    2.0001   -0.4743 H   0  0  0  0  0  0  0  0  0  0  0  0
    0.0000    0.0000    0.0000 C   0  0  0  0  0  0  0  0  0  0  0  0
   -1.1277   -0.5994   -0.0000 O   0  0  0  0  0  0  0  0  0  0  0  0
    1.1277   -0.5840    0.0000 O   0  0  0  0  0  0  0  0  0  0  0  0
   -1.7099   -2.5607   -1.8231 C   0  0  0  0  0  0  0  0  0  0  0  0
   -1.7666   -1.6590   -1.3992 H   0  0  0  0  0  0  0  0  0  0  0  0
   -0.9649   -2.4781   -2.6144 H   0  0  0  0  0  0  0  0  0  0  0  0
   -1.3534   -3.2443   -1.0526 H   0  0  0  0  0  0  0  0  0  0  0  0
   -3.0188   -3.1515   -2.3492 C   0  0  0  0  0  0  0  0  0  0  0  0
   -2.8295   -4.0603   -2.7111 H   0  0  0  0  0  0  0  0  0  0  0  0
   -3.7415   -3.2481   -1.5389 H   0  0  0  0  0  0  0  0  0  0  0  0
   -3.5848   -2.3003   -3.4976 C   0  0  0  0  0  0  0  0  0  0  0  0
   -2.8835   -2.1942   -4.2032 H   0  0  0  0  0  0  0  0  0  0  0  0
   -4.3662   -2.7793   -3.9006 H   0  0  0  0  0  0  0  0  0  0  0  0
   -3.9260   -1.3017   -3.2247 H   0  0  0  0  0  0  0  0  0  0  0  0
  1  5  1  0
  5  6  2  0
  5  7  1  0
  1  2  1  0
  1  3  1  0
  1  4  1  0
  8 12  1  0
 12 15  1  0
  8  9  1  0
  8 10  1  0
  8 11  1  0
 12 13  1  0
 12 14  1  0
 15 16  1  0
 15 17  1  0
 15 18  1  0
M  CHG  1   7  -1
V    7 [O&-]
M  END
>  <PDB_ID>  (2155) 
pdb3ghz

>  <RESIDUE_NAME>  (2155) 
ASP   ILE

>  <FRAG_NAME>  (2155) 
ACET   PRPA

>  <FRAG_ATOM_NUM>  (2155) 
fragi: 7 fragj: 11

>  <atom.prop.CHAIN_ID>  (2155) 
A A A A A A A Z Z Z Z Z Z Z Z Z Z Z

>  <atom.prop.IS_HEAVY_ATOM>  (2155) 
1 0 0 0 1 1 1 1 0 0 0 1 0 0 1 0 0 0

>  <DIFUSE_FUNC_ATOM>  (2155) 
n/a

>  <FINAL_SINGLE_POINT_ENERGY>  (2155) 
0

>  <NONCOV_INTER_ENERGY_QM>  (2155) 
0

>  <FF_Energy>  (2155) 
18.1

>  <QM_Energy>  (2155) 
1.08

>  <source>  (2155) 
ACET_PRPA_29

>  <Index>  (2155) 
3368

$$$$
ACEH-pdb3ghz-C-ASH-38:PRPA-pdb3ghz-C-ILE-20
     RDKit          3D

 18 16  0  0  0  0  0  0  0  0999 V2000
    0.0619    1.5077    0.0539 C   0  0  0  0  0  0  0  0  0  0  0  0
    0.9178    1.8113   -0.3605 H   0  0  0  0  0  0  0  0  0  0  0  0
    0.0262    1.8003    1.0070 H   0  0  0  0  0  0  0  0  0  0  0  0
   -0.7545    2.0001   -0.4743 H   0  0  0  0  0  0  0  0  0  0  0  0
    0.0000    0.0000    0.0000 C   0  0  0  0  0  0  0  0  0  0  0  0
   -1.1277   -0.5994   -0.0000 O   0  0  0  0  0  0  0  0  0  0  0  0
    1.1277   -0.5840    0.0000 O   0  0  0  0  0  0  0  0  0  0  0  0
   -1.7099   -2.5607   -1.8231 C   0  0  0  0  0  0  0  0  0  0  0  0
   -1.7666   -1.6590   -1.3992 H   0  0  0  0  0  0  0  0  0  0  0  0
   -0.9649   -2.4781   -2.6144 H   0  0  0  0  0  0  0  0  0  0  0  0
   -1.3534   -3.2443   -1.0526 H   0  0  0  0  0  0  0  0  0  0  0  0
   -3.0188   -3.1515   -2.3492 C   0  0  0  0  0  0  0  0  0  0  0  0
   -2.8295   -4.0603   -2.7111 H   0  0  0  0  0  0  0  0  0  0  0  0
   -3.4201   -2.5481   -3.1634 H   0  0  0  0  0  0  0  0  0  0  0  0
   -4.0133   -3.2844   -1.2342 C   0  0  0  0  0  0  0  0  0  0  0  0
   -4.8500   -3.7240   -1.5690 H   0  0  0  0  0  0  0  0  0  0  0  0
   -3.6298   -3.8413   -0.4945 H   0  0  0  0  0  0  0  0  0  0  0  0
   -4.2465   -2.3793   -0.8707 H   0  0  0  0  0  0  0  0  0  0  0  0
  1  5  1  0
  5  6  2  0
  5  7  1  0
  1  2  1  0
  1  3  1  0
  1  4  1  0
  8 12  1  0
 12 15  1  0
  8  9  1  0
  8 10  1  0
  8 11  1  0
 12 13  1  0
 12 14  1  0
 15 16  1  0
 15 17  1  0
 15 18  1  0
M  CHG  1   7  -1
V    7 [O&-]
M  END
>  <PDB_ID>  (2156) 
pdb3ghz

>  <RESIDUE_NAME>  (2156) 
ASP   ILE

>  <FRAG_NAME>  (2156) 
ACET   PRPA

>  <FRAG_ATOM_NUM>  (2156) 
fragi: 7 fragj: 11

>  <atom.prop.CHAIN_ID>  (2156) 
A A A A A A A Z Z Z Z Z Z Z Z Z Z Z

>  <atom.prop.IS_HEAVY_ATOM>  (2156) 
1 0 0 0 1 1 1 1 0 0 0 1 0 0 1 0 0 0

>  <DIFUSE_FUNC_ATOM>  (2156) 
n/a

>  <FINAL_SINGLE_POINT_ENERGY>  (2156) 
0

>  <NONCOV_INTER_ENERGY_QM>  (2156) 
0

>  <FF_Energy>  (2156) 
18.14

>  <QM_Energy>  (2156) 
0.85

>  <source>  (2156) 
ACET_PRPA_29

>  <Index>  (2156) 
3426

$$$$
ACEH-pdb5lm8-A-GLH-574:PRPA-pdb5lm8-A-ILE-577
     RDKit          3D

 18 16  0  0  0  0  0  0  0  0999 V2000
    0.0356    1.5163   -0.0051 C   0  0  0  0  0  0  0  0  0  0  0  0
    0.3820    1.8075    0.8623 H   0  0  0  0  0  0  0  0  0  0  0  0
   -0.8737    1.8327   -0.1813 H   0  0  0  0  0  0  0  0  0  0  0  0
    0.6933    1.8991   -0.7854 H   0  0  0  0  0  0  0  0  0  0  0  0
    0.0000    0.0000    0.0000 C   0  0  0  0  0  0  0  0  0  0  0  0
   -1.0975   -0.5643   -0.0000 O   0  0  0  0  0  0  0  0  0  0  0  0
    1.0975   -0.6275    0.0000 O   0  0  0  0  0  0  0  0  0  0  0  0
   -3.3857   -2.9565    1.6839 C   0  0  0  0  0  0  0  0  0  0  0  0
   -3.7614   -2.5283    2.4964 H   0  0  0  0  0  0  0  0  0  0  0  0
   -3.9134   -2.5591    0.8169 H   0  0  0  0  0  0  0  0  0  0  0  0
   -3.4409   -4.0449    1.7076 H   0  0  0  0  0  0  0  0  0  0  0  0
   -1.9265   -2.5898    1.5825 C   0  0  0  0  0  0  0  0  0  0  0  0
   -1.3777   -3.4265    1.6733 H   0  0  0  0  0  0  0  0  0  0  0  0
   -1.7564   -2.2119    0.6663 H   0  0  0  0  0  0  0  0  0  0  0  0
   -1.4695   -1.5947    2.6045 C   0  0  0  0  0  0  0  0  0  0  0  0
   -1.6130   -1.9640    3.5243 H   0  0  0  0  0  0  0  0  0  0  0  0
   -0.4949   -1.4002    2.4765 H   0  0  0  0  0  0  0  0  0  0  0  0
   -1.9900   -0.7447    2.5069 H   0  0  0  0  0  0  0  0  0  0  0  0
  1  5  1  0
  5  6  2  0
  5  7  1  0
  1  2  1  0
  1  3  1  0
  1  4  1  0
  8 12  1  0
 12 15  1  0
  8  9  1  0
  8 10  1  0
  8 11  1  0
 12 13  1  0
 12 14  1  0
 15 16  1  0
 15 17  1  0
 15 18  1  0
M  CHG  1   7  -1
V    7 [O&-]
M  END
>  <PDB_ID>  (2157) 
pdb5lm8

>  <RESIDUE_NAME>  (2157) 
GLU   ILE

>  <FRAG_NAME>  (2157) 
ACET   PRPA

>  <FRAG_ATOM_NUM>  (2157) 
fragi: 7 fragj: 11

>  <atom.prop.CHAIN_ID>  (2157) 
A A A A A A A Z Z Z Z Z Z Z Z Z Z Z

>  <atom.prop.IS_HEAVY_ATOM>  (2157) 
1 0 0 0 1 1 1 1 0 0 0 1 0 0 1 0 0 0

>  <DIFUSE_FUNC_ATOM>  (2157) 
n/a

>  <FINAL_SINGLE_POINT_ENERGY>  (2157) 
0

>  <NONCOV_INTER_ENERGY_QM>  (2157) 
0

>  <FF_Energy>  (2157) 
20.32

>  <QM_Energy>  (2157) 
-0.25

>  <source>  (2157) 
ACET_PRPA_29

>  <Index>  (2157) 
3633

$$$$
ACEH-pdb4igi-A-GLH-1139:PRPA-pdb4igi-A-PRO-1103
     RDKit          3D

 18 16  0  0  0  0  0  0  0  0999 V2000
   -0.0630    1.5582   -0.0142 C   0  0  0  0  0  0  0  0  0  0  0  0
   -0.5771    1.8380    0.7599 H   0  0  0  0  0  0  0  0  0  0  0  0
   -0.5225    1.8259   -0.8250 H   0  0  0  0  0  0  0  0  0  0  0  0
    0.9071    2.0544    0.0159 H   0  0  0  0  0  0  0  0  0  0  0  0
    0.0000    0.0000    0.0000 C   0  0  0  0  0  0  0  0  0  0  0  0
   -1.0869   -0.6151    0.0000 O   0  0  0  0  0  0  0  0  0  0  0  0
    1.0869   -0.6211   -0.0000 O   0  0  0  0  0  0  0  0  0  0  0  0
   -3.9972    0.4808    1.2675 C   0  0  0  0  0  0  0  0  0  0  0  0
   -4.1822    0.7290    2.1867 H   0  0  0  0  0  0  0  0  0  0  0  0
   -3.7264   -0.4491    1.2084 H   0  0  0  0  0  0  0  0  0  0  0  0
   -4.8829    0.6476    0.6545 H   0  0  0  0  0  0  0  0  0  0  0  0
   -2.9945    1.3444    0.6942 C   0  0  0  0  0  0  0  0  0  0  0  0
   -3.0596    2.2227    1.1004 H   0  0  0  0  0  0  0  0  0  0  0  0
   -2.1166    0.9656    0.8547 H   0  0  0  0  0  0  0  0  0  0  0  0
   -3.2588    1.4356   -0.7813 C   0  0  0  0  0  0  0  0  0  0  0  0
   -3.1463    2.3480   -1.0911 H   0  0  0  0  0  0  0  0  0  0  0  0
   -2.6863    0.8209   -1.2674 H   0  0  0  0  0  0  0  0  0  0  0  0
   -4.3021    1.1314   -0.8646 H   0  0  0  0  0  0  0  0  0  0  0  0
  1  5  1  0
  5  6  2  0
  5  7  1  0
  1  2  1  0
  1  3  1  0
  1  4  1  0
  8 12  1  0
 12 15  1  0
  8  9  1  0
  8 10  1  0
  8 11  1  0
 12 13  1  0
 12 14  1  0
 15 16  1  0
 15 17  1  0
 15 18  1  0
M  CHG  1   7  -1
V    7 [O&-]
M  END
>  <PDB_ID>  (2158) 
pdb4igi

>  <RESIDUE_NAME>  (2158) 
GLU   PRO

>  <FRAG_NAME>  (2158) 
ACET   PRPA

>  <FRAG_ATOM_NUM>  (2158) 
fragi: 7 fragj: 11

>  <atom.prop.CHAIN_ID>  (2158) 
A A A A A A A Z Z Z Z Z Z Z Z Z Z Z

>  <atom.prop.IS_HEAVY_ATOM>  (2158) 
1 0 0 0 1 1 1 1 0 0 0 1 0 0 1 0 0 0

>  <DIFUSE_FUNC_ATOM>  (2158) 
n/a

>  <FINAL_SINGLE_POINT_ENERGY>  (2158) 
0

>  <NONCOV_INTER_ENERGY_QM>  (2158) 
0

>  <FF_Energy>  (2158) 
18.8

>  <QM_Energy>  (2158) 
0.24

>  <source>  (2158) 
ACET_PRPA_29

>  <Index>  (2158) 
4054

$$$$
ACEH-pdb3gg9-A-GLH-122:PRPA-pdb3gg9-D-LEU-167
     RDKit          3D

 18 16  0  0  0  0  0  0  0  0999 V2000
    0.0116    1.5048   -0.0263 C   0  0  0  0  0  0  0  0  0  0  0  0
    0.4396    1.7936   -0.8652 H   0  0  0  0  0  0  0  0  0  0  0  0
    0.5063    1.8200    0.7662 H   0  0  0  0  0  0  0  0  0  0  0  0
   -0.9834    1.9487    0.0061 H   0  0  0  0  0  0  0  0  0  0  0  0
    0.0000    0.0000    0.0000 C   0  0  0  0  0  0  0  0  0  0  0  0
   -1.0939   -0.5807    0.0000 O   0  0  0  0  0  0  0  0  0  0  0  0
    1.0939   -0.6177    0.0000 O   0  0  0  0  0  0  0  0  0  0  0  0
    0.9017   -3.9202    0.1318 C   0  0  0  0  0  0  0  0  0  0  0  0
    0.6217   -4.8007   -0.2485 H   0  0  0  0  0  0  0  0  0  0  0  0
    0.0323   -3.4236    0.5625 H   0  0  0  0  0  0  0  0  0  0  0  0
    1.6261   -4.1047    0.9250 H   0  0  0  0  0  0  0  0  0  0  0  0
    1.5140   -3.0247   -0.9504 C   0  0  0  0  0  0  0  0  0  0  0  0
    1.7398   -2.1500   -0.5368 H   0  0  0  0  0  0  0  0  0  0  0  0
    2.3305   -3.4704   -1.2959 H   0  0  0  0  0  0  0  0  0  0  0  0
    0.6097   -2.7267   -2.1708 C   0  0  0  0  0  0  0  0  0  0  0  0
   -0.1893   -2.2431   -1.8556 H   0  0  0  0  0  0  0  0  0  0  0  0
    1.1887   -2.1031   -2.8521 H   0  0  0  0  0  0  0  0  0  0  0  0
    0.3255   -3.6588   -2.6592 H   0  0  0  0  0  0  0  0  0  0  0  0
  1  5  1  0
  5  6  2  0
  5  7  1  0
  1  2  1  0
  1  3  1  0
  1  4  1  0
  8 12  1  0
 12 15  1  0
  8  9  1  0
  8 10  1  0
  8 11  1  0
 12 13  1  0
 12 14  1  0
 15 16  1  0
 15 17  1  0
 15 18  1  0
M  CHG  1   7  -1
V    7 [O&-]
M  END
>  <PDB_ID>  (2159) 
pdb3gg9

>  <RESIDUE_NAME>  (2159) 
GLU   LEU

>  <FRAG_NAME>  (2159) 
ACET   PRPA

>  <FRAG_ATOM_NUM>  (2159) 
fragi: 7 fragj: 11

>  <atom.prop.CHAIN_ID>  (2159) 
A A A A A A A Z Z Z Z Z Z Z Z Z Z Z

>  <atom.prop.IS_HEAVY_ATOM>  (2159) 
1 0 0 0 1 1 1 1 0 0 0 1 0 0 1 0 0 0

>  <DIFUSE_FUNC_ATOM>  (2159) 
n/a

>  <FINAL_SINGLE_POINT_ENERGY>  (2159) 
0

>  <NONCOV_INTER_ENERGY_QM>  (2159) 
0

>  <FF_Energy>  (2159) 
49.83

>  <QM_Energy>  (2159) 
0.18

>  <source>  (2159) 
ACET_PRPA_29

>  <Index>  (2159) 
4101

$$$$
ACEH-pdb3gg9-A-GLH-122:PRPA-pdb3gg9-D-LEU-167
     RDKit          3D

 18 16  0  0  0  0  0  0  0  0999 V2000
    0.0116    1.5048   -0.0263 C   0  0  0  0  0  0  0  0  0  0  0  0
    0.4396    1.7936   -0.8652 H   0  0  0  0  0  0  0  0  0  0  0  0
    0.5063    1.8200    0.7662 H   0  0  0  0  0  0  0  0  0  0  0  0
   -0.9834    1.9487    0.0061 H   0  0  0  0  0  0  0  0  0  0  0  0
    0.0000    0.0000    0.0000 C   0  0  0  0  0  0  0  0  0  0  0  0
   -1.0939   -0.5807    0.0000 O   0  0  0  0  0  0  0  0  0  0  0  0
    1.0939   -0.6177    0.0000 O   0  0  0  0  0  0  0  0  0  0  0  0
    1.5140   -3.0247   -0.9504 C   0  0  0  0  0  0  0  0  0  0  0  0
    1.7398   -2.1500   -0.5368 H   0  0  0  0  0  0  0  0  0  0  0  0
    2.3305   -3.4704   -1.2959 H   0  0  0  0  0  0  0  0  0  0  0  0
    1.0785   -3.6617   -0.1806 H   0  0  0  0  0  0  0  0  0  0  0  0
    0.6097   -2.7267   -2.1708 C   0  0  0  0  0  0  0  0  0  0  0  0
   -0.1893   -2.2431   -1.8556 H   0  0  0  0  0  0  0  0  0  0  0  0
    0.3255   -3.6588   -2.6592 H   0  0  0  0  0  0  0  0  0  0  0  0
    1.4075   -1.8673   -3.1097 C   0  0  0  0  0  0  0  0  0  0  0  0
    2.2375   -2.3519   -3.3985 H   0  0  0  0  0  0  0  0  0  0  0  0
    0.8607   -1.6461   -3.9219 H   0  0  0  0  0  0  0  0  0  0  0  0
    1.6727   -1.0134   -2.6535 H   0  0  0  0  0  0  0  0  0  0  0  0
  1  5  1  0
  5  6  2  0
  5  7  1  0
  1  2  1  0
  1  3  1  0
  1  4  1  0
  8 12  1  0
 12 15  1  0
  8  9  1  0
  8 10  1  0
  8 11  1  0
 12 13  1  0
 12 14  1  0
 15 16  1  0
 15 17  1  0
 15 18  1  0
M  CHG  1   7  -1
V    7 [O&-]
M  END
>  <PDB_ID>  (2160) 
pdb3gg9

>  <RESIDUE_NAME>  (2160) 
GLU   LEU

>  <FRAG_NAME>  (2160) 
ACET   PRPA

>  <FRAG_ATOM_NUM>  (2160) 
fragi: 7 fragj: 11

>  <atom.prop.CHAIN_ID>  (2160) 
A A A A A A A Z Z Z Z Z Z Z Z Z Z Z

>  <atom.prop.IS_HEAVY_ATOM>  (2160) 
1 0 0 0 1 1 1 1 0 0 0 1 0 0 1 0 0 0

>  <DIFUSE_FUNC_ATOM>  (2160) 
n/a

>  <FINAL_SINGLE_POINT_ENERGY>  (2160) 
0

>  <NONCOV_INTER_ENERGY_QM>  (2160) 
0

>  <FF_Energy>  (2160) 
43.63

>  <QM_Energy>  (2160) 
0.94

>  <source>  (2160) 
ACET_PRPA_29

>  <Index>  (2160) 
4168

$$$$
ACEH-pdb6o4n-B-GLH-283:PRPA-pdb6o4n-B-LEU-333
     RDKit          3D

 18 16  0  0  0  0  0  0  0  0999 V2000
    0.0068    1.5243   -0.0028 C   0  0  0  0  0  0  0  0  0  0  0  0
    0.8045    1.8149   -0.4937 H   0  0  0  0  0  0  0  0  0  0  0  0
    0.0100    1.8210    0.9326 H   0  0  0  0  0  0  0  0  0  0  0  0
   -0.8698    1.9467   -0.4941 H   0  0  0  0  0  0  0  0  0  0  0  0
    0.0000    0.0000    0.0000 C   0  0  0  0  0  0  0  0  0  0  0  0
   -1.1017   -0.5960    0.0000 O   0  0  0  0  0  0  0  0  0  0  0  0
    1.1017   -0.5978   -0.0000 O   0  0  0  0  0  0  0  0  0  0  0  0
    3.7390   -1.5171    1.1034 C   0  0  0  0  0  0  0  0  0  0  0  0
    3.2091   -0.6747    1.0461 H   0  0  0  0  0  0  0  0  0  0  0  0
    4.3131   -1.6157    0.2951 H   0  0  0  0  0  0  0  0  0  0  0  0
    4.3934   -1.4426    1.9719 H   0  0  0  0  0  0  0  0  0  0  0  0
    2.7341   -2.6853    1.0921 C   0  0  0  0  0  0  0  0  0  0  0  0
    3.2125   -3.5253    1.3549 H   0  0  0  0  0  0  0  0  0  0  0  0
    1.9093   -2.5116    1.7833 H   0  0  0  0  0  0  0  0  0  0  0  0
    2.1999   -2.9383   -0.3207 C   0  0  0  0  0  0  0  0  0  0  0  0
    2.9622   -3.1642   -0.9253 H   0  0  0  0  0  0  0  0  0  0  0  0
    1.5523   -3.6990   -0.2975 H   0  0  0  0  0  0  0  0  0  0  0  0
    1.7402   -2.1151   -0.6522 H   0  0  0  0  0  0  0  0  0  0  0  0
  1  5  1  0
  5  6  2  0
  5  7  1  0
  1  2  1  0
  1  3  1  0
  1  4  1  0
  8 12  1  0
 12 15  1  0
  8  9  1  0
  8 10  1  0
  8 11  1  0
 12 13  1  0
 12 14  1  0
 15 16  1  0
 15 17  1  0
 15 18  1  0
M  CHG  1   7  -1
V    7 [O&-]
M  END
>  <PDB_ID>  (2161) 
pdb6o4n

>  <RESIDUE_NAME>  (2161) 
GLU   LEU

>  <FRAG_NAME>  (2161) 
ACET   PRPA

>  <FRAG_ATOM_NUM>  (2161) 
fragi: 7 fragj: 11

>  <atom.prop.CHAIN_ID>  (2161) 
A A A A A A A Z Z Z Z Z Z Z Z Z Z Z

>  <atom.prop.IS_HEAVY_ATOM>  (2161) 
1 0 0 0 1 1 1 1 0 0 0 1 0 0 1 0 0 0

>  <DIFUSE_FUNC_ATOM>  (2161) 
n/a

>  <FINAL_SINGLE_POINT_ENERGY>  (2161) 
0

>  <NONCOV_INTER_ENERGY_QM>  (2161) 
0

>  <FF_Energy>  (2161) 
41.06

>  <QM_Energy>  (2161) 
2.39

>  <source>  (2161) 
ACET_PRPA_29

>  <Index>  (2161) 
4648

$$$$
ACEH-pdb6o4n-B-GLH-283:PRPA-pdb6o4n-B-LEU-333
     RDKit          3D

 18 16  0  0  0  0  0  0  0  0999 V2000
    0.0068    1.5243   -0.0028 C   0  0  0  0  0  0  0  0  0  0  0  0
    0.8045    1.8149   -0.4937 H   0  0  0  0  0  0  0  0  0  0  0  0
    0.0100    1.8210    0.9326 H   0  0  0  0  0  0  0  0  0  0  0  0
   -0.8698    1.9467   -0.4941 H   0  0  0  0  0  0  0  0  0  0  0  0
    0.0000    0.0000    0.0000 C   0  0  0  0  0  0  0  0  0  0  0  0
   -1.1017   -0.5960    0.0000 O   0  0  0  0  0  0  0  0  0  0  0  0
    1.1017   -0.5978   -0.0000 O   0  0  0  0  0  0  0  0  0  0  0  0
    1.5737   -2.4410    2.0645 C   0  0  0  0  0  0  0  0  0  0  0  0
    1.0934   -1.6063    1.8002 H   0  0  0  0  0  0  0  0  0  0  0  0
    0.9463   -3.2168    2.0284 H   0  0  0  0  0  0  0  0  0  0  0  0
    1.9360   -2.3424    2.9897 H   0  0  0  0  0  0  0  0  0  0  0  0
    2.7341   -2.6853    1.0921 C   0  0  0  0  0  0  0  0  0  0  0  0
    3.2125   -3.5253    1.3549 H   0  0  0  0  0  0  0  0  0  0  0  0
    3.4448   -1.8590    1.1001 H   0  0  0  0  0  0  0  0  0  0  0  0
    2.1999   -2.9383   -0.3207 C   0  0  0  0  0  0  0  0  0  0  0  0
    2.9622   -3.1642   -0.9253 H   0  0  0  0  0  0  0  0  0  0  0  0
    1.5523   -3.6990   -0.2975 H   0  0  0  0  0  0  0  0  0  0  0  0
    1.7402   -2.1151   -0.6522 H   0  0  0  0  0  0  0  0  0  0  0  0
  1  5  1  0
  5  6  2  0
  5  7  1  0
  1  2  1  0
  1  3  1  0
  1  4  1  0
  8 12  1  0
 12 15  1  0
  8  9  1  0
  8 10  1  0
  8 11  1  0
 12 13  1  0
 12 14  1  0
 15 16  1  0
 15 17  1  0
 15 18  1  0
M  CHG  1   7  -1
V    7 [O&-]
M  END
>  <PDB_ID>  (2162) 
pdb6o4n

>  <RESIDUE_NAME>  (2162) 
GLU   LEU

>  <FRAG_NAME>  (2162) 
ACET   PRPA

>  <FRAG_ATOM_NUM>  (2162) 
fragi: 7 fragj: 11

>  <atom.prop.CHAIN_ID>  (2162) 
A A A A A A A Z Z Z Z Z Z Z Z Z Z Z

>  <atom.prop.IS_HEAVY_ATOM>  (2162) 
1 0 0 0 1 1 1 1 0 0 0 1 0 0 1 0 0 0

>  <DIFUSE_FUNC_ATOM>  (2162) 
n/a

>  <FINAL_SINGLE_POINT_ENERGY>  (2162) 
0

>  <NONCOV_INTER_ENERGY_QM>  (2162) 
0

>  <FF_Energy>  (2162) 
46.51

>  <QM_Energy>  (2162) 
4.53

>  <source>  (2162) 
ACET_PRPA_29

>  <Index>  (2162) 
4702

$$$$
ACEH-pdb2hty-A-GLH-165:PRPA-pdb2hty-A-PRO-162
     RDKit          3D

 18 16  0  0  0  0  0  0  0  0999 V2000
   -0.0004    1.5185    0.0150 C   0  0  0  0  0  0  0  0  0  0  0  0
    0.1214    1.8074    0.9471 H   0  0  0  0  0  0  0  0  0  0  0  0
   -0.8599    1.8195   -0.3570 H   0  0  0  0  0  0  0  0  0  0  0  0
    0.8009    1.9531   -0.5826 H   0  0  0  0  0  0  0  0  0  0  0  0
    0.0000    0.0000    0.0000 C   0  0  0  0  0  0  0  0  0  0  0  0
   -1.1024   -0.5937   -0.0000 O   0  0  0  0  0  0  0  0  0  0  0  0
    1.1024   -0.5999   -0.0000 O   0  0  0  0  0  0  0  0  0  0  0  0
   -0.1832   -1.0373   -4.5462 C   0  0  0  0  0  0  0  0  0  0  0  0
   -0.5473   -1.5355   -5.3498 H   0  0  0  0  0  0  0  0  0  0  0  0
    0.8760   -1.2538   -4.4074 H   0  0  0  0  0  0  0  0  0  0  0  0
   -0.3821    0.0305   -4.6371 H   0  0  0  0  0  0  0  0  0  0  0  0
   -0.8467   -1.6888   -3.3269 C   0  0  0  0  0  0  0  0  0  0  0  0
   -1.5215   -1.0736   -2.9177 H   0  0  0  0  0  0  0  0  0  0  0  0
   -1.2920   -2.5474   -3.5795 H   0  0  0  0  0  0  0  0  0  0  0  0
    0.2916   -1.9423   -2.3668 C   0  0  0  0  0  0  0  0  0  0  0  0
    0.4592   -1.1258   -1.8120 H   0  0  0  0  0  0  0  0  0  0  0  0
    0.0658   -2.7106   -1.7654 H   0  0  0  0  0  0  0  0  0  0  0  0
    1.1425   -2.1722   -3.0080 H   0  0  0  0  0  0  0  0  0  0  0  0
  1  5  1  0
  5  6  2  0
  5  7  1  0
  1  2  1  0
  1  3  1  0
  1  4  1  0
  8 12  1  0
 12 15  1  0
  8  9  1  0
  8 10  1  0
  8 11  1  0
 12 13  1  0
 12 14  1  0
 15 16  1  0
 15 17  1  0
 15 18  1  0
M  CHG  1   7  -1
V    7 [O&-]
M  END
>  <PDB_ID>  (2163) 
pdb2hty

>  <RESIDUE_NAME>  (2163) 
GLU   PRO

>  <FRAG_NAME>  (2163) 
ACET   PRPA

>  <FRAG_ATOM_NUM>  (2163) 
fragi: 7 fragj: 11

>  <atom.prop.CHAIN_ID>  (2163) 
A A A A A A A Z Z Z Z Z Z Z Z Z Z Z

>  <atom.prop.IS_HEAVY_ATOM>  (2163) 
1 0 0 0 1 1 1 1 0 0 0 1 0 0 1 0 0 0

>  <DIFUSE_FUNC_ATOM>  (2163) 
n/a

>  <FINAL_SINGLE_POINT_ENERGY>  (2163) 
0

>  <NONCOV_INTER_ENERGY_QM>  (2163) 
0

>  <FF_Energy>  (2163) 
15.5

>  <QM_Energy>  (2163) 
0.34

>  <source>  (2163) 
ACET_PRPA_29

>  <Index>  (2163) 
5830

$$$$
ACEH-pdb2hty-A-GLH-165:PRPA-pdb2hty-A-PRO-162
     RDKit          3D

 18 16  0  0  0  0  0  0  0  0999 V2000
   -0.0004    1.5185    0.0150 C   0  0  0  0  0  0  0  0  0  0  0  0
    0.1214    1.8074    0.9471 H   0  0  0  0  0  0  0  0  0  0  0  0
   -0.8599    1.8195   -0.3570 H   0  0  0  0  0  0  0  0  0  0  0  0
    0.8009    1.9531   -0.5826 H   0  0  0  0  0  0  0  0  0  0  0  0
    0.0000    0.0000    0.0000 C   0  0  0  0  0  0  0  0  0  0  0  0
   -1.1024   -0.5937   -0.0000 O   0  0  0  0  0  0  0  0  0  0  0  0
    1.1024   -0.5999   -0.0000 O   0  0  0  0  0  0  0  0  0  0  0  0
   -0.8467   -1.6888   -3.3269 C   0  0  0  0  0  0  0  0  0  0  0  0
   -1.5215   -1.0736   -2.9177 H   0  0  0  0  0  0  0  0  0  0  0  0
   -1.2920   -2.5474   -3.5795 H   0  0  0  0  0  0  0  0  0  0  0  0
   -0.3751   -1.2257   -4.1937 H   0  0  0  0  0  0  0  0  0  0  0  0
    0.2916   -1.9423   -2.3668 C   0  0  0  0  0  0  0  0  0  0  0  0
    0.4592   -1.1258   -1.8120 H   0  0  0  0  0  0  0  0  0  0  0  0
    0.0658   -2.7106   -1.7654 H   0  0  0  0  0  0  0  0  0  0  0  0
    1.4545   -2.2564   -3.2432 C   0  0  0  0  0  0  0  0  0  0  0  0
    2.3216   -2.0662   -2.7922 H   0  0  0  0  0  0  0  0  0  0  0  0
    1.4349   -3.2004   -3.5633 H   0  0  0  0  0  0  0  0  0  0  0  0
    1.2948   -1.5671   -4.0723 H   0  0  0  0  0  0  0  0  0  0  0  0
  1  5  1  0
  5  6  2  0
  5  7  1  0
  1  2  1  0
  1  3  1  0
  1  4  1  0
  8 12  1  0
 12 15  1  0
  8  9  1  0
  8 10  1  0
  8 11  1  0
 12 13  1  0
 12 14  1  0
 15 16  1  0
 15 17  1  0
 15 18  1  0
M  CHG  1   7  -1
V    7 [O&-]
M  END
>  <PDB_ID>  (2164) 
pdb2hty

>  <RESIDUE_NAME>  (2164) 
GLU   PRO

>  <FRAG_NAME>  (2164) 
ACET   PRPA

>  <FRAG_ATOM_NUM>  (2164) 
fragi: 7 fragj: 11

>  <atom.prop.CHAIN_ID>  (2164) 
A A A A A A A Z Z Z Z Z Z Z Z Z Z Z

>  <atom.prop.IS_HEAVY_ATOM>  (2164) 
1 0 0 0 1 1 1 1 0 0 0 1 0 0 1 0 0 0

>  <DIFUSE_FUNC_ATOM>  (2164) 
n/a

>  <FINAL_SINGLE_POINT_ENERGY>  (2164) 
0

>  <NONCOV_INTER_ENERGY_QM>  (2164) 
0

>  <FF_Energy>  (2164) 
16.9

>  <QM_Energy>  (2164) 
-0.34

>  <source>  (2164) 
ACET_PRPA_29

>  <Index>  (2164) 
5871

$$$$
ACEH-pdb5mp7-B-ASH-230:PRPA-pdb5mp7-B-ARG-181
     RDKit          3D

 18 16  0  0  0  0  0  0  0  0999 V2000
   -0.0197    1.5688    0.0961 C   0  0  0  0  0  0  0  0  0  0  0  0
    0.5554    1.9177   -0.6288 H   0  0  0  0  0  0  0  0  0  0  0  0
    0.3333    1.8160    0.9851 H   0  0  0  0  0  0  0  0  0  0  0  0
   -1.0180    1.9919   -0.0150 H   0  0  0  0  0  0  0  0  0  0  0  0
    0.0000    0.0000    0.0000 C   0  0  0  0  0  0  0  0  0  0  0  0
   -1.0896   -0.6238   -0.0000 O   0  0  0  0  0  0  0  0  0  0  0  0
    1.0896   -0.6387    0.0000 O   0  0  0  0  0  0  0  0  0  0  0  0
   -4.3938   -1.6020   -2.7118 C   0  0  0  0  0  0  0  0  0  0  0  0
   -3.5510   -1.8702   -3.0585 H   0  0  0  0  0  0  0  0  0  0  0  0
   -4.6302   -0.6832   -2.7596 H   0  0  0  0  0  0  0  0  0  0  0  0
   -5.1796   -2.2010   -3.1720 H   0  0  0  0  0  0  0  0  0  0  0  0
   -4.4538   -2.0298   -1.2282 C   0  0  0  0  0  0  0  0  0  0  0  0
   -5.4303   -1.9982   -0.9296 H   0  0  0  0  0  0  0  0  0  0  0  0
   -4.1716   -3.0104   -1.1702 H   0  0  0  0  0  0  0  0  0  0  0  0
   -3.6317   -1.2427   -0.2454 C   0  0  0  0  0  0  0  0  0  0  0  0
   -2.7571   -1.0178   -0.6665 H   0  0  0  0  0  0  0  0  0  0  0  0
   -4.1243   -0.4082   -0.0128 H   0  0  0  0  0  0  0  0  0  0  0  0
   -3.4434   -1.8028    0.6706 H   0  0  0  0  0  0  0  0  0  0  0  0
  1  5  1  0
  5  6  2  0
  5  7  1  0
  1  2  1  0
  1  3  1  0
  1  4  1  0
  8 12  1  0
 12 15  1  0
  8  9  1  0
  8 10  1  0
  8 11  1  0
 12 13  1  0
 12 14  1  0
 15 16  1  0
 15 17  1  0
 15 18  1  0
M  CHG  1   7  -1
V    7 [O&-]
M  END
>  <PDB_ID>  (2165) 
pdb5mp7

>  <RESIDUE_NAME>  (2165) 
ASP   ARG

>  <FRAG_NAME>  (2165) 
ACET   PRPA

>  <FRAG_ATOM_NUM>  (2165) 
fragi: 7 fragj: 11

>  <atom.prop.CHAIN_ID>  (2165) 
A A A A A A A Z Z Z Z Z Z Z Z Z Z Z

>  <atom.prop.IS_HEAVY_ATOM>  (2165) 
1 0 0 0 1 1 1 1 0 0 0 1 0 0 1 0 0 0

>  <DIFUSE_FUNC_ATOM>  (2165) 
n/a

>  <FINAL_SINGLE_POINT_ENERGY>  (2165) 
0

>  <NONCOV_INTER_ENERGY_QM>  (2165) 
0

>  <FF_Energy>  (2165) 
24.52

>  <QM_Energy>  (2165) 
3.22

>  <source>  (2165) 
ACET_PRPA_29

>  <Index>  (2165) 
5984

$$$$
ACEH-pdb3h5q-A-GLH-255:PRPA-pdb3h5q-A-GLU-252
     RDKit          3D

 18 16  0  0  0  0  0  0  0  0999 V2000
   -0.0096    1.5199   -0.1306 C   0  0  0  0  0  0  0  0  0  0  0  0
    0.9025    1.8295   -0.0224 H   0  0  0  0  0  0  0  0  0  0  0  0
   -0.6352    1.8658    0.5250 H   0  0  0  0  0  0  0  0  0  0  0  0
   -0.3565    1.8002   -1.1252 H   0  0  0  0  0  0  0  0  0  0  0  0
    0.0000    0.0000    0.0000 C   0  0  0  0  0  0  0  0  0  0  0  0
   -1.0801   -0.5898    0.0000 O   0  0  0  0  0  0  0  0  0  0  0  0
    1.0801   -0.6167    0.0000 O   0  0  0  0  0  0  0  0  0  0  0  0
    2.2122    2.0162    1.9676 C   0  0  0  0  0  0  0  0  0  0  0  0
    1.7956    1.4222    1.2481 H   0  0  0  0  0  0  0  0  0  0  0  0
    3.2539    2.2072    1.7097 H   0  0  0  0  0  0  0  0  0  0  0  0
    1.6136    2.9192    2.0876 H   0  0  0  0  0  0  0  0  0  0  0  0
    2.0812    1.0789    3.1863 C   0  0  0  0  0  0  0  0  0  0  0  0
    2.6270    1.4345    3.8968 H   0  0  0  0  0  0  0  0  0  0  0  0
    1.1443    0.9771    3.3875 H   0  0  0  0  0  0  0  0  0  0  0  0
    2.6343   -0.3267    2.8387 C   0  0  0  0  0  0  0  0  0  0  0  0
    2.2375   -0.6056    1.9813 H   0  0  0  0  0  0  0  0  0  0  0  0
    3.6156   -0.2635    2.7865 H   0  0  0  0  0  0  0  0  0  0  0  0
    2.4010   -1.1026    3.5678 H   0  0  0  0  0  0  0  0  0  0  0  0
  1  5  1  0
  5  6  2  0
  5  7  1  0
  1  2  1  0
  1  3  1  0
  1  4  1  0
  8 12  1  0
 12 15  1  0
  8  9  1  0
  8 10  1  0
  8 11  1  0
 12 13  1  0
 12 14  1  0
 15 16  1  0
 15 17  1  0
 15 18  1  0
M  CHG  1   7  -1
V    7 [O&-]
M  END
>  <PDB_ID>  (2166) 
pdb3h5q

>  <RESIDUE_NAME>  (2166) 
GLU   GLU

>  <FRAG_NAME>  (2166) 
ACET   PRPA

>  <FRAG_ATOM_NUM>  (2166) 
fragi: 7 fragj: 11

>  <atom.prop.CHAIN_ID>  (2166) 
A A A A A A A Z Z Z Z Z Z Z Z Z Z Z

>  <atom.prop.IS_HEAVY_ATOM>  (2166) 
1 0 0 0 1 1 1 1 0 0 0 1 0 0 1 0 0 0

>  <DIFUSE_FUNC_ATOM>  (2166) 
n/a

>  <FINAL_SINGLE_POINT_ENERGY>  (2166) 
0

>  <NONCOV_INTER_ENERGY_QM>  (2166) 
0

>  <FF_Energy>  (2166) 
17.76

>  <QM_Energy>  (2166) 
0.59

>  <source>  (2166) 
ACET_PRPA_29

>  <Index>  (2166) 
6105

$$$$
ACEH-pdb2iy8-A-GLH-145:PRPA-pdb2iy8-A-LEU-149
     RDKit          3D

 18 16  0  0  0  0  0  0  0  0999 V2000
    0.0194    1.5270    0.0164 C   0  0  0  0  0  0  0  0  0  0  0  0
    0.8337    1.8183   -0.4566 H   0  0  0  0  0  0  0  0  0  0  0  0
    0.0255    1.8129    0.9615 H   0  0  0  0  0  0  0  0  0  0  0  0
   -0.8377    1.9918   -0.4708 H   0  0  0  0  0  0  0  0  0  0  0  0
    0.0000    0.0000    0.0000 C   0  0  0  0  0  0  0  0  0  0  0  0
   -1.1038   -0.5944   -0.0000 O   0  0  0  0  0  0  0  0  0  0  0  0
    1.1038   -0.6008    0.0000 O   0  0  0  0  0  0  0  0  0  0  0  0
   -4.2546   -2.2923    1.9240 C   0  0  0  0  0  0  0  0  0  0  0  0
   -3.5781   -1.7697    2.4489 H   0  0  0  0  0  0  0  0  0  0  0  0
   -4.1881   -3.2605    2.1737 H   0  0  0  0  0  0  0  0  0  0  0  0
   -5.2448   -1.9404    2.2136 H   0  0  0  0  0  0  0  0  0  0  0  0
   -3.8720   -2.1762    0.4528 C   0  0  0  0  0  0  0  0  0  0  0  0
   -3.9794   -1.2302    0.1612 H   0  0  0  0  0  0  0  0  0  0  0  0
   -4.5377   -2.7972   -0.1467 H   0  0  0  0  0  0  0  0  0  0  0  0
   -2.4231   -2.6012    0.2689 C   0  0  0  0  0  0  0  0  0  0  0  0
   -2.3117   -3.5499    0.5673 H   0  0  0  0  0  0  0  0  0  0  0  0
   -2.1713   -2.5250   -0.6968 H   0  0  0  0  0  0  0  0  0  0  0  0
   -1.8287   -2.0091    0.8142 H   0  0  0  0  0  0  0  0  0  0  0  0
  1  5  1  0
  5  6  2  0
  5  7  1  0
  1  2  1  0
  1  3  1  0
  1  4  1  0
  8 12  1  0
 12 15  1  0
  8  9  1  0
  8 10  1  0
  8 11  1  0
 12 13  1  0
 12 14  1  0
 15 16  1  0
 15 17  1  0
 15 18  1  0
M  CHG  1   7  -1
V    7 [O&-]
M  END
>  <PDB_ID>  (2167) 
pdb2iy8

>  <RESIDUE_NAME>  (2167) 
GLU   LEU

>  <FRAG_NAME>  (2167) 
ACET   PRPA

>  <FRAG_ATOM_NUM>  (2167) 
fragi: 7 fragj: 11

>  <atom.prop.CHAIN_ID>  (2167) 
A A A A A A A Z Z Z Z Z Z Z Z Z Z Z

>  <atom.prop.IS_HEAVY_ATOM>  (2167) 
1 0 0 0 1 1 1 1 0 0 0 1 0 0 1 0 0 0

>  <DIFUSE_FUNC_ATOM>  (2167) 
n/a

>  <FINAL_SINGLE_POINT_ENERGY>  (2167) 
0

>  <NONCOV_INTER_ENERGY_QM>  (2167) 
0

>  <FF_Energy>  (2167) 
45.33

>  <QM_Energy>  (2167) 
8.04

>  <source>  (2167) 
ACET_PRPA_29

>  <Index>  (2167) 
6534

$$$$
ACEH-pdb2iy8-A-GLH-145:PRPA-pdb2iy8-A-LEU-149
     RDKit          3D

 18 16  0  0  0  0  0  0  0  0999 V2000
    0.0194    1.5270    0.0164 C   0  0  0  0  0  0  0  0  0  0  0  0
    0.8337    1.8183   -0.4566 H   0  0  0  0  0  0  0  0  0  0  0  0
    0.0255    1.8129    0.9615 H   0  0  0  0  0  0  0  0  0  0  0  0
   -0.8377    1.9918   -0.4708 H   0  0  0  0  0  0  0  0  0  0  0  0
    0.0000    0.0000    0.0000 C   0  0  0  0  0  0  0  0  0  0  0  0
   -1.1038   -0.5944   -0.0000 O   0  0  0  0  0  0  0  0  0  0  0  0
    1.1038   -0.6008    0.0000 O   0  0  0  0  0  0  0  0  0  0  0  0
   -2.4231   -2.6012    0.2689 C   0  0  0  0  0  0  0  0  0  0  0  0
   -2.3117   -3.5499    0.5673 H   0  0  0  0  0  0  0  0  0  0  0  0
   -2.1713   -2.5250   -0.6968 H   0  0  0  0  0  0  0  0  0  0  0  0
   -1.8287   -2.0091    0.8142 H   0  0  0  0  0  0  0  0  0  0  0  0
   -3.8720   -2.1762    0.4528 C   0  0  0  0  0  0  0  0  0  0  0  0
   -3.9794   -1.2302    0.1612 H   0  0  0  0  0  0  0  0  0  0  0  0
   -4.1455   -2.2592    1.5046 H   0  0  0  0  0  0  0  0  0  0  0  0
   -4.8023   -3.0441   -0.3850 C   0  0  0  0  0  0  0  0  0  0  0  0
   -5.7461   -2.7375   -0.2614 H   0  0  0  0  0  0  0  0  0  0  0  0
   -4.5505   -2.9679   -1.3508 H   0  0  0  0  0  0  0  0  0  0  0  0
   -4.7217   -3.9979   -0.0941 H   0  0  0  0  0  0  0  0  0  0  0  0
  1  5  1  0
  5  6  2  0
  5  7  1  0
  1  2  1  0
  1  3  1  0
  1  4  1  0
  8 12  1  0
 12 15  1  0
  8  9  1  0
  8 10  1  0
  8 11  1  0
 12 13  1  0
 12 14  1  0
 15 16  1  0
 15 17  1  0
 15 18  1  0
M  CHG  1   7  -1
V    7 [O&-]
M  END
>  <PDB_ID>  (2168) 
pdb2iy8

>  <RESIDUE_NAME>  (2168) 
GLU   LEU

>  <FRAG_NAME>  (2168) 
ACET   PRPA

>  <FRAG_ATOM_NUM>  (2168) 
fragi: 7 fragj: 11

>  <atom.prop.CHAIN_ID>  (2168) 
A A A A A A A Z Z Z Z Z Z Z Z Z Z Z

>  <atom.prop.IS_HEAVY_ATOM>  (2168) 
1 0 0 0 1 1 1 1 0 0 0 1 0 0 1 0 0 0

>  <DIFUSE_FUNC_ATOM>  (2168) 
n/a

>  <FINAL_SINGLE_POINT_ENERGY>  (2168) 
0

>  <NONCOV_INTER_ENERGY_QM>  (2168) 
0

>  <FF_Energy>  (2168) 
45.09

>  <QM_Energy>  (2168) 
8.89

>  <source>  (2168) 
ACET_PRPA_29

>  <Index>  (2168) 
6582

$$$$
ACEH-pdb4i6v-C-GLH-361:PRPA-pdb4i6v-B-PRO-349
     RDKit          3D

 18 16  0  0  0  0  0  0  0  0999 V2000
    0.0074    1.5286    0.0178 C   0  0  0  0  0  0  0  0  0  0  0  0
   -0.6583    1.8102    0.6786 H   0  0  0  0  0  0  0  0  0  0  0  0
   -0.2059    1.8261   -0.8903 H   0  0  0  0  0  0  0  0  0  0  0  0
    0.9834    1.9199    0.3047 H   0  0  0  0  0  0  0  0  0  0  0  0
    0.0000    0.0000    0.0000 C   0  0  0  0  0  0  0  0  0  0  0  0
   -1.1039   -0.5942    0.0000 O   0  0  0  0  0  0  0  0  0  0  0  0
    1.1039   -0.6029   -0.0000 O   0  0  0  0  0  0  0  0  0  0  0  0
   -0.1065   -3.6420   -1.2574 C   0  0  0  0  0  0  0  0  0  0  0  0
    0.3112   -3.1842   -0.4733 H   0  0  0  0  0  0  0  0  0  0  0  0
    0.3304   -4.5294   -1.3981 H   0  0  0  0  0  0  0  0  0  0  0  0
   -1.1796   -3.7604   -1.1070 H   0  0  0  0  0  0  0  0  0  0  0  0
   -0.0150   -2.7975   -2.4840 C   0  0  0  0  0  0  0  0  0  0  0  0
    0.8663   -2.3223   -2.5227 H   0  0  0  0  0  0  0  0  0  0  0  0
   -0.1231   -3.3563   -3.3085 H   0  0  0  0  0  0  0  0  0  0  0  0
   -1.1509   -1.8086   -2.3567 C   0  0  0  0  0  0  0  0  0  0  0  0
   -0.8673   -0.9927   -1.8565 H   0  0  0  0  0  0  0  0  0  0  0  0
   -1.5071   -1.5466   -3.2528 H   0  0  0  0  0  0  0  0  0  0  0  0
   -1.8996   -2.3650   -1.7929 H   0  0  0  0  0  0  0  0  0  0  0  0
  1  5  1  0
  5  6  2  0
  5  7  1  0
  1  2  1  0
  1  3  1  0
  1  4  1  0
  8 12  1  0
 12 15  1  0
  8  9  1  0
  8 10  1  0
  8 11  1  0
 12 13  1  0
 12 14  1  0
 15 16  1  0
 15 17  1  0
 15 18  1  0
M  CHG  1   7  -1
V    7 [O&-]
M  END
>  <PDB_ID>  (2169) 
pdb4i6v

>  <RESIDUE_NAME>  (2169) 
GLU   PRO

>  <FRAG_NAME>  (2169) 
ACET   PRPA

>  <FRAG_ATOM_NUM>  (2169) 
fragi: 7 fragj: 11

>  <atom.prop.CHAIN_ID>  (2169) 
A A A A A A A Z Z Z Z Z Z Z Z Z Z Z

>  <atom.prop.IS_HEAVY_ATOM>  (2169) 
1 0 0 0 1 1 1 1 0 0 0 1 0 0 1 0 0 0

>  <DIFUSE_FUNC_ATOM>  (2169) 
n/a

>  <FINAL_SINGLE_POINT_ENERGY>  (2169) 
0

>  <NONCOV_INTER_ENERGY_QM>  (2169) 
0

>  <FF_Energy>  (2169) 
20.21

>  <QM_Energy>  (2169) 
1.55

>  <source>  (2169) 
ACET_PRPA_29

>  <Index>  (2169) 
6588

$$$$
ACEH-pdb2hty-C-GLH-165:PRPA-pdb2hty-C-PRO-162
     RDKit          3D

 18 16  0  0  0  0  0  0  0  0999 V2000
    0.0112    1.5226   -0.0245 C   0  0  0  0  0  0  0  0  0  0  0  0
    0.0550    1.8036   -0.9684 H   0  0  0  0  0  0  0  0  0  0  0  0
    0.8020    1.8215    0.4838 H   0  0  0  0  0  0  0  0  0  0  0  0
   -0.8723    1.9776    0.4233 H   0  0  0  0  0  0  0  0  0  0  0  0
    0.0000    0.0000    0.0000 C   0  0  0  0  0  0  0  0  0  0  0  0
   -1.0973   -0.5961   -0.0000 O   0  0  0  0  0  0  0  0  0  0  0  0
    1.0973   -0.6054    0.0000 O   0  0  0  0  0  0  0  0  0  0  0  0
    0.8119    0.0493    4.5547 C   0  0  0  0  0  0  0  0  0  0  0  0
    1.3432   -0.2271    5.3654 H   0  0  0  0  0  0  0  0  0  0  0  0
   -0.2324   -0.2455    4.6581 H   0  0  0  0  0  0  0  0  0  0  0  0
    0.9124    1.1204    4.3795 H   0  0  0  0  0  0  0  0  0  0  0  0
    1.3051   -0.8086    3.3883 C   0  0  0  0  0  0  0  0  0  0  0  0
    1.9417   -0.3040    2.8150 H   0  0  0  0  0  0  0  0  0  0  0  0
    1.7217   -1.6506    3.7117 H   0  0  0  0  0  0  0  0  0  0  0  0
    0.0272   -1.1093    2.6213 C   0  0  0  0  0  0  0  0  0  0  0  0
   -0.2138   -0.3264    2.0506 H   0  0  0  0  0  0  0  0  0  0  0  0
    0.1624   -1.9152    2.0482 H   0  0  0  0  0  0  0  0  0  0  0  0
   -0.7128   -1.2856    3.4021 H   0  0  0  0  0  0  0  0  0  0  0  0
  1  5  1  0
  5  6  2  0
  5  7  1  0
  1  2  1  0
  1  3  1  0
  1  4  1  0
  8 12  1  0
 12 15  1  0
  8  9  1  0
  8 10  1  0
  8 11  1  0
 12 13  1  0
 12 14  1  0
 15 16  1  0
 15 17  1  0
 15 18  1  0
M  CHG  1   7  -1
V    7 [O&-]
M  END
>  <PDB_ID>  (2170) 
pdb2hty

>  <RESIDUE_NAME>  (2170) 
GLU   PRO

>  <FRAG_NAME>  (2170) 
ACET   PRPA

>  <FRAG_ATOM_NUM>  (2170) 
fragi: 7 fragj: 11

>  <atom.prop.CHAIN_ID>  (2170) 
A A A A A A A Z Z Z Z Z Z Z Z Z Z Z

>  <atom.prop.IS_HEAVY_ATOM>  (2170) 
1 0 0 0 1 1 1 1 0 0 0 1 0 0 1 0 0 0

>  <DIFUSE_FUNC_ATOM>  (2170) 
n/a

>  <FINAL_SINGLE_POINT_ENERGY>  (2170) 
0

>  <NONCOV_INTER_ENERGY_QM>  (2170) 
0

>  <FF_Energy>  (2170) 
17.95

>  <QM_Energy>  (2170) 
1.17

>  <source>  (2170) 
ACET_PRPA_29

>  <Index>  (2170) 
6614

$$$$
ACEH-pdb6oyf-A-GLH-2298:PRPA-pdb6oyf-A-LEU-2286
     RDKit          3D

 18 16  0  0  0  0  0  0  0  0999 V2000
   -0.1738    1.4847   -0.0167 C   0  0  0  0  0  0  0  0  0  0  0  0
   -0.6938    1.7408    0.8000 H   0  0  0  0  0  0  0  0  0  0  0  0
   -0.7045    1.7217   -0.8326 H   0  0  0  0  0  0  0  0  0  0  0  0
    0.7367    2.0838   -0.0288 H   0  0  0  0  0  0  0  0  0  0  0  0
    0.0000    0.0000    0.0000 C   0  0  0  0  0  0  0  0  0  0  0  0
   -1.0894   -0.6077   -0.0000 O   0  0  0  0  0  0  0  0  0  0  0  0
    1.0894   -0.5584   -0.0000 O   0  0  0  0  0  0  0  0  0  0  0  0
    0.4269   -1.9797   -2.5777 C   0  0  0  0  0  0  0  0  0  0  0  0
    0.8635   -1.1037   -2.3354 H   0  0  0  0  0  0  0  0  0  0  0  0
    0.6769   -2.2168   -3.6118 H   0  0  0  0  0  0  0  0  0  0  0  0
    0.7925   -2.7470   -1.8953 H   0  0  0  0  0  0  0  0  0  0  0  0
   -1.0831   -1.8004   -2.4251 C   0  0  0  0  0  0  0  0  0  0  0  0
   -1.5323   -2.4271   -3.0654 H   0  0  0  0  0  0  0  0  0  0  0  0
   -1.3285   -2.0540   -1.4884 H   0  0  0  0  0  0  0  0  0  0  0  0
   -1.6586   -0.4053   -2.6813 C   0  0  0  0  0  0  0  0  0  0  0  0
   -1.3995    0.1969   -1.9207 H   0  0  0  0  0  0  0  0  0  0  0  0
   -1.2872    0.0133   -3.6167 H   0  0  0  0  0  0  0  0  0  0  0  0
   -2.7480   -0.4401   -2.6862 H   0  0  0  0  0  0  0  0  0  0  0  0
  1  5  1  0
  5  6  2  0
  5  7  1  0
  1  2  1  0
  1  3  1  0
  1  4  1  0
  8 12  1  0
 12 15  1  0
  8  9  1  0
  8 10  1  0
  8 11  1  0
 12 13  1  0
 12 14  1  0
 15 16  1  0
 15 17  1  0
 15 18  1  0
M  CHG  1   7  -1
V    7 [O&-]
M  END
>  <PDB_ID>  (2171) 
pdb6oyf

>  <RESIDUE_NAME>  (2171) 
GLU   LEU

>  <FRAG_NAME>  (2171) 
ACET   PRPA

>  <FRAG_ATOM_NUM>  (2171) 
fragi: 7 fragj: 11

>  <atom.prop.CHAIN_ID>  (2171) 
A A A A A A A Z Z Z Z Z Z Z Z Z Z Z

>  <atom.prop.IS_HEAVY_ATOM>  (2171) 
1 0 0 0 1 1 1 1 0 0 0 1 0 0 1 0 0 0

>  <DIFUSE_FUNC_ATOM>  (2171) 
n/a

>  <FINAL_SINGLE_POINT_ENERGY>  (2171) 
0

>  <NONCOV_INTER_ENERGY_QM>  (2171) 
0

>  <FF_Energy>  (2171) 
19.52

>  <QM_Energy>  (2171) 
1.11

>  <source>  (2171) 
ACET_PRPA_29

>  <Index>  (2171) 
6628

$$$$
ACEH-pdb2hty-C-GLH-165:PRPA-pdb2hty-C-PRO-162
     RDKit          3D

 18 16  0  0  0  0  0  0  0  0999 V2000
    0.0112    1.5226   -0.0245 C   0  0  0  0  0  0  0  0  0  0  0  0
    0.0550    1.8036   -0.9684 H   0  0  0  0  0  0  0  0  0  0  0  0
    0.8020    1.8215    0.4838 H   0  0  0  0  0  0  0  0  0  0  0  0
   -0.8723    1.9776    0.4233 H   0  0  0  0  0  0  0  0  0  0  0  0
    0.0000    0.0000    0.0000 C   0  0  0  0  0  0  0  0  0  0  0  0
   -1.0973   -0.5961   -0.0000 O   0  0  0  0  0  0  0  0  0  0  0  0
    1.0973   -0.6054    0.0000 O   0  0  0  0  0  0  0  0  0  0  0  0
    1.3051   -0.8086    3.3883 C   0  0  0  0  0  0  0  0  0  0  0  0
    1.9417   -0.3040    2.8150 H   0  0  0  0  0  0  0  0  0  0  0  0
    1.7217   -1.6506    3.7117 H   0  0  0  0  0  0  0  0  0  0  0  0
    0.9536   -0.1973    4.2194 H   0  0  0  0  0  0  0  0  0  0  0  0
    0.0272   -1.1093    2.6213 C   0  0  0  0  0  0  0  0  0  0  0  0
   -0.2138   -0.3264    2.0506 H   0  0  0  0  0  0  0  0  0  0  0  0
    0.1624   -1.9152    2.0482 H   0  0  0  0  0  0  0  0  0  0  0  0
   -0.9821   -1.3498    3.6863 C   0  0  0  0  0  0  0  0  0  0  0  0
   -1.9100   -1.1808    3.3664 H   0  0  0  0  0  0  0  0  0  0  0  0
   -0.9132   -2.2692    4.0658 H   0  0  0  0  0  0  0  0  0  0  0  0
   -0.6969   -0.6083    4.4326 H   0  0  0  0  0  0  0  0  0  0  0  0
  1  5  1  0
  5  6  2  0
  5  7  1  0
  1  2  1  0
  1  3  1  0
  1  4  1  0
  8 12  1  0
 12 15  1  0
  8  9  1  0
  8 10  1  0
  8 11  1  0
 12 13  1  0
 12 14  1  0
 15 16  1  0
 15 17  1  0
 15 18  1  0
M  CHG  1   7  -1
V    7 [O&-]
M  END
>  <PDB_ID>  (2172) 
pdb2hty

>  <RESIDUE_NAME>  (2172) 
GLU   PRO

>  <FRAG_NAME>  (2172) 
ACET   PRPA

>  <FRAG_ATOM_NUM>  (2172) 
fragi: 7 fragj: 11

>  <atom.prop.CHAIN_ID>  (2172) 
A A A A A A A Z Z Z Z Z Z Z Z Z Z Z

>  <atom.prop.IS_HEAVY_ATOM>  (2172) 
1 0 0 0 1 1 1 1 0 0 0 1 0 0 1 0 0 0

>  <DIFUSE_FUNC_ATOM>  (2172) 
n/a

>  <FINAL_SINGLE_POINT_ENERGY>  (2172) 
0

>  <NONCOV_INTER_ENERGY_QM>  (2172) 
0

>  <FF_Energy>  (2172) 
18.53

>  <QM_Energy>  (2172) 
0.39

>  <source>  (2172) 
ACET_PRPA_29

>  <Index>  (2172) 
6667

$$$$
ACEH-pdb6oyf-A-GLH-2298:PRPA-pdb6oyf-A-LEU-2286
     RDKit          3D

 18 16  0  0  0  0  0  0  0  0999 V2000
   -0.1738    1.4847   -0.0167 C   0  0  0  0  0  0  0  0  0  0  0  0
   -0.6938    1.7408    0.8000 H   0  0  0  0  0  0  0  0  0  0  0  0
   -0.7045    1.7217   -0.8326 H   0  0  0  0  0  0  0  0  0  0  0  0
    0.7367    2.0838   -0.0288 H   0  0  0  0  0  0  0  0  0  0  0  0
    0.0000    0.0000    0.0000 C   0  0  0  0  0  0  0  0  0  0  0  0
   -1.0894   -0.6077   -0.0000 O   0  0  0  0  0  0  0  0  0  0  0  0
    1.0894   -0.5584   -0.0000 O   0  0  0  0  0  0  0  0  0  0  0  0
   -1.0831   -1.8004   -2.4251 C   0  0  0  0  0  0  0  0  0  0  0  0
   -1.5323   -2.4271   -3.0654 H   0  0  0  0  0  0  0  0  0  0  0  0
   -1.3285   -2.0540   -1.4884 H   0  0  0  0  0  0  0  0  0  0  0  0
   -0.0061   -1.9282   -2.5339 H   0  0  0  0  0  0  0  0  0  0  0  0
   -1.6586   -0.4053   -2.6813 C   0  0  0  0  0  0  0  0  0  0  0  0
   -1.3995    0.1969   -1.9207 H   0  0  0  0  0  0  0  0  0  0  0  0
   -2.7480   -0.4401   -2.6862 H   0  0  0  0  0  0  0  0  0  0  0  0
   -1.1405    0.1786   -3.9861 C   0  0  0  0  0  0  0  0  0  0  0  0
   -1.4031   -0.4159   -4.7463 H   0  0  0  0  0  0  0  0  0  0  0  0
   -1.5331    1.0884   -4.1250 H   0  0  0  0  0  0  0  0  0  0  0  0
   -0.1433    0.2498   -3.9486 H   0  0  0  0  0  0  0  0  0  0  0  0
  1  5  1  0
  5  6  2  0
  5  7  1  0
  1  2  1  0
  1  3  1  0
  1  4  1  0
  8 12  1  0
 12 15  1  0
  8  9  1  0
  8 10  1  0
  8 11  1  0
 12 13  1  0
 12 14  1  0
 15 16  1  0
 15 17  1  0
 15 18  1  0
M  CHG  1   7  -1
V    7 [O&-]
M  END
>  <PDB_ID>  (2173) 
pdb6oyf

>  <RESIDUE_NAME>  (2173) 
GLU   LEU

>  <FRAG_NAME>  (2173) 
ACET   PRPA

>  <FRAG_ATOM_NUM>  (2173) 
fragi: 7 fragj: 11

>  <atom.prop.CHAIN_ID>  (2173) 
A A A A A A A Z Z Z Z Z Z Z Z Z Z Z

>  <atom.prop.IS_HEAVY_ATOM>  (2173) 
1 0 0 0 1 1 1 1 0 0 0 1 0 0 1 0 0 0

>  <DIFUSE_FUNC_ATOM>  (2173) 
n/a

>  <FINAL_SINGLE_POINT_ENERGY>  (2173) 
0

>  <NONCOV_INTER_ENERGY_QM>  (2173) 
0

>  <FF_Energy>  (2173) 
17.2

>  <QM_Energy>  (2173) 
1.78

>  <source>  (2173) 
ACET_PRPA_29

>  <Index>  (2173) 
6695

$$$$
ACEH-pdb6oyf-A-GLH-2298:PRPA-pdb6oyf-A-LEU-2286
     RDKit          3D

 18 16  0  0  0  0  0  0  0  0999 V2000
   -0.1738    1.4847   -0.0167 C   0  0  0  0  0  0  0  0  0  0  0  0
   -0.6938    1.7408    0.8000 H   0  0  0  0  0  0  0  0  0  0  0  0
   -0.7045    1.7217   -0.8326 H   0  0  0  0  0  0  0  0  0  0  0  0
    0.7367    2.0838   -0.0288 H   0  0  0  0  0  0  0  0  0  0  0  0
    0.0000    0.0000    0.0000 C   0  0  0  0  0  0  0  0  0  0  0  0
   -1.0894   -0.6077   -0.0000 O   0  0  0  0  0  0  0  0  0  0  0  0
    1.0894   -0.5584   -0.0000 O   0  0  0  0  0  0  0  0  0  0  0  0
   -1.0831   -1.8004   -2.4251 C   0  0  0  0  0  0  0  0  0  0  0  0
   -1.5323   -2.4271   -3.0654 H   0  0  0  0  0  0  0  0  0  0  0  0
   -1.3285   -2.0540   -1.4884 H   0  0  0  0  0  0  0  0  0  0  0  0
   -0.0061   -1.9282   -2.5339 H   0  0  0  0  0  0  0  0  0  0  0  0
   -1.6586   -0.4053   -2.6813 C   0  0  0  0  0  0  0  0  0  0  0  0
   -1.3995    0.1969   -1.9207 H   0  0  0  0  0  0  0  0  0  0  0  0
   -1.2872    0.0133   -3.6167 H   0  0  0  0  0  0  0  0  0  0  0  0
   -3.1772   -0.4538   -2.6882 C   0  0  0  0  0  0  0  0  0  0  0  0
   -3.5068   -0.7838   -1.8023 H   0  0  0  0  0  0  0  0  0  0  0  0
   -3.5419    0.4639   -2.8566 H   0  0  0  0  0  0  0  0  0  0  0  0
   -3.4904   -1.0723   -3.4099 H   0  0  0  0  0  0  0  0  0  0  0  0
  1  5  1  0
  5  6  2  0
  5  7  1  0
  1  2  1  0
  1  3  1  0
  1  4  1  0
  8 12  1  0
 12 15  1  0
  8  9  1  0
  8 10  1  0
  8 11  1  0
 12 13  1  0
 12 14  1  0
 15 16  1  0
 15 17  1  0
 15 18  1  0
M  CHG  1   7  -1
V    7 [O&-]
M  END
>  <PDB_ID>  (2174) 
pdb6oyf

>  <RESIDUE_NAME>  (2174) 
GLU   LEU

>  <FRAG_NAME>  (2174) 
ACET   PRPA

>  <FRAG_ATOM_NUM>  (2174) 
fragi: 7 fragj: 11

>  <atom.prop.CHAIN_ID>  (2174) 
A A A A A A A Z Z Z Z Z Z Z Z Z Z Z

>  <atom.prop.IS_HEAVY_ATOM>  (2174) 
1 0 0 0 1 1 1 1 0 0 0 1 0 0 1 0 0 0

>  <DIFUSE_FUNC_ATOM>  (2174) 
n/a

>  <FINAL_SINGLE_POINT_ENERGY>  (2174) 
0

>  <NONCOV_INTER_ENERGY_QM>  (2174) 
0

>  <FF_Energy>  (2174) 
17.89

>  <QM_Energy>  (2174) 
0.75

>  <source>  (2174) 
ACET_PRPA_29

>  <Index>  (2174) 
6768

$$$$
ACEH-pdb6p2i-A-GLH-295:PRPA-pdb6p2i-A-ILE-291
     RDKit          3D

 18 16  0  0  0  0  0  0  0  0999 V2000
   -0.1759    1.4831   -0.0149 C   0  0  0  0  0  0  0  0  0  0  0  0
    0.7349    1.9000   -0.0074 H   0  0  0  0  0  0  0  0  0  0  0  0
   -0.6628    1.7424    0.8201 H   0  0  0  0  0  0  0  0  0  0  0  0
   -0.7222    1.9025   -0.8597 H   0  0  0  0  0  0  0  0  0  0  0  0
    0.0000    0.0000    0.0000 C   0  0  0  0  0  0  0  0  0  0  0  0
   -1.0894   -0.6099    0.0000 O   0  0  0  0  0  0  0  0  0  0  0  0
    1.0894   -0.5577   -0.0000 O   0  0  0  0  0  0  0  0  0  0  0  0
    3.9874   -0.8909   -1.5756 C   0  0  0  0  0  0  0  0  0  0  0  0
    3.3894   -1.6944   -1.5383 H   0  0  0  0  0  0  0  0  0  0  0  0
    4.8055   -1.1484   -2.2483 H   0  0  0  0  0  0  0  0  0  0  0  0
    3.3950   -0.0795   -1.9983 H   0  0  0  0  0  0  0  0  0  0  0  0
    4.5315   -0.5458   -0.1774 C   0  0  0  0  0  0  0  0  0  0  0  0
    5.2534    0.1250   -0.2869 H   0  0  0  0  0  0  0  0  0  0  0  0
    4.9621   -1.4376    0.2780 H   0  0  0  0  0  0  0  0  0  0  0  0
    3.4458    0.0510    0.7171 C   0  0  0  0  0  0  0  0  0  0  0  0
    3.8438    0.2991    1.5984 H   0  0  0  0  0  0  0  0  0  0  0  0
    3.0677    0.8640    0.2800 H   0  0  0  0  0  0  0  0  0  0  0  0
    2.7236   -0.6229    0.8541 H   0  0  0  0  0  0  0  0  0  0  0  0
  1  5  1  0
  5  6  2  0
  5  7  1  0
  1  2  1  0
  1  3  1  0
  1  4  1  0
  8 12  1  0
 12 15  1  0
  8  9  1  0
  8 10  1  0
  8 11  1  0
 12 13  1  0
 12 14  1  0
 15 16  1  0
 15 17  1  0
 15 18  1  0
M  CHG  1   7  -1
V    7 [O&-]
M  END
>  <PDB_ID>  (2175) 
pdb6p2i

>  <RESIDUE_NAME>  (2175) 
GLU   ILE

>  <FRAG_NAME>  (2175) 
ACET   PRPA

>  <FRAG_ATOM_NUM>  (2175) 
fragi: 7 fragj: 11

>  <atom.prop.CHAIN_ID>  (2175) 
A A A A A A A Z Z Z Z Z Z Z Z Z Z Z

>  <atom.prop.IS_HEAVY_ATOM>  (2175) 
1 0 0 0 1 1 1 1 0 0 0 1 0 0 1 0 0 0

>  <DIFUSE_FUNC_ATOM>  (2175) 
n/a

>  <FINAL_SINGLE_POINT_ENERGY>  (2175) 
0

>  <NONCOV_INTER_ENERGY_QM>  (2175) 
0

>  <FF_Energy>  (2175) 
27.61

>  <QM_Energy>  (2175) 
5.48

>  <source>  (2175) 
ACET_PRPA_29

>  <Index>  (2175) 
7044

$$$$
ACEH-pdb6p2i-A-GLH-295:PRPA-pdb6p2i-A-ILE-291
     RDKit          3D

 18 16  0  0  0  0  0  0  0  0999 V2000
   -0.1759    1.4831   -0.0149 C   0  0  0  0  0  0  0  0  0  0  0  0
    0.7349    1.9000   -0.0074 H   0  0  0  0  0  0  0  0  0  0  0  0
   -0.6628    1.7424    0.8201 H   0  0  0  0  0  0  0  0  0  0  0  0
   -0.7222    1.9025   -0.8597 H   0  0  0  0  0  0  0  0  0  0  0  0
    0.0000    0.0000    0.0000 C   0  0  0  0  0  0  0  0  0  0  0  0
   -1.0894   -0.6099    0.0000 O   0  0  0  0  0  0  0  0  0  0  0  0
    1.0894   -0.5577   -0.0000 O   0  0  0  0  0  0  0  0  0  0  0  0
    5.1348   -1.7953    0.4606 C   0  0  0  0  0  0  0  0  0  0  0  0
    4.3906   -2.3653    0.8105 H   0  0  0  0  0  0  0  0  0  0  0  0
    5.6195   -2.3088   -0.2495 H   0  0  0  0  0  0  0  0  0  0  0  0
    5.8308   -1.5908    1.2741 H   0  0  0  0  0  0  0  0  0  0  0  0
    4.5315   -0.5458   -0.1774 C   0  0  0  0  0  0  0  0  0  0  0  0
    5.2534    0.1250   -0.2869 H   0  0  0  0  0  0  0  0  0  0  0  0
    4.1462   -0.7902   -1.1674 H   0  0  0  0  0  0  0  0  0  0  0  0
    3.4458    0.0510    0.7171 C   0  0  0  0  0  0  0  0  0  0  0  0
    3.8438    0.2991    1.5984 H   0  0  0  0  0  0  0  0  0  0  0  0
    3.0677    0.8640    0.2800 H   0  0  0  0  0  0  0  0  0  0  0  0
    2.7236   -0.6229    0.8541 H   0  0  0  0  0  0  0  0  0  0  0  0
  1  5  1  0
  5  6  2  0
  5  7  1  0
  1  2  1  0
  1  3  1  0
  1  4  1  0
  8 12  1  0
 12 15  1  0
  8  9  1  0
  8 10  1  0
  8 11  1  0
 12 13  1  0
 12 14  1  0
 15 16  1  0
 15 17  1  0
 15 18  1  0
M  CHG  1   7  -1
V    7 [O&-]
M  END
>  <PDB_ID>  (2176) 
pdb6p2i

>  <RESIDUE_NAME>  (2176) 
GLU   ILE

>  <FRAG_NAME>  (2176) 
ACET   PRPA

>  <FRAG_ATOM_NUM>  (2176) 
fragi: 7 fragj: 11

>  <atom.prop.CHAIN_ID>  (2176) 
A A A A A A A Z Z Z Z Z Z Z Z Z Z Z

>  <atom.prop.IS_HEAVY_ATOM>  (2176) 
1 0 0 0 1 1 1 1 0 0 0 1 0 0 1 0 0 0

>  <DIFUSE_FUNC_ATOM>  (2176) 
n/a

>  <FINAL_SINGLE_POINT_ENERGY>  (2176) 
0

>  <NONCOV_INTER_ENERGY_QM>  (2176) 
0

>  <FF_Energy>  (2176) 
27.09

>  <QM_Energy>  (2176) 
5.81

>  <source>  (2176) 
ACET_PRPA_29

>  <Index>  (2176) 
7134

$$$$
ACEH-pdb4igl-A-ASH-408:PRPA-pdb4igl-A-PRO-415
     RDKit          3D

 18 16  0  0  0  0  0  0  0  0999 V2000
   -0.0076    1.5245    0.0081 C   0  0  0  0  0  0  0  0  0  0  0  0
   -0.3316    1.8350    0.8934 H   0  0  0  0  0  0  0  0  0  0  0  0
   -0.6087    1.8431   -0.7145 H   0  0  0  0  0  0  0  0  0  0  0  0
    0.9798    1.9549   -0.1591 H   0  0  0  0  0  0  0  0  0  0  0  0
    0.0000    0.0000    0.0000 C   0  0  0  0  0  0  0  0  0  0  0  0
   -1.0986   -0.6010   -0.0000 O   0  0  0  0  0  0  0  0  0  0  0  0
    1.0986   -0.5997   -0.0000 O   0  0  0  0  0  0  0  0  0  0  0  0
    3.2364   -1.7330    0.0561 C   0  0  0  0  0  0  0  0  0  0  0  0
    4.2334   -1.6520    0.1381 H   0  0  0  0  0  0  0  0  0  0  0  0
    2.8075   -1.2934    0.8492 H   0  0  0  0  0  0  0  0  0  0  0  0
    2.8914   -1.2710   -0.8689 H   0  0  0  0  0  0  0  0  0  0  0  0
    2.8203   -3.1521   -0.0640 C   0  0  0  0  0  0  0  0  0  0  0  0
    3.5087   -3.6839   -0.5731 H   0  0  0  0  0  0  0  0  0  0  0  0
    2.7106   -3.5694    0.8461 H   0  0  0  0  0  0  0  0  0  0  0  0
    1.5122   -3.1303   -0.8007 C   0  0  0  0  0  0  0  0  0  0  0  0
    1.4021   -3.9409   -1.3773 H   0  0  0  0  0  0  0  0  0  0  0  0
    0.7368   -3.0653   -0.1706 H   0  0  0  0  0  0  0  0  0  0  0  0
    1.5837   -2.2317   -1.4133 H   0  0  0  0  0  0  0  0  0  0  0  0
  1  5  1  0
  5  6  2  0
  5  7  1  0
  1  2  1  0
  1  3  1  0
  1  4  1  0
  8 12  1  0
 12 15  1  0
  8  9  1  0
  8 10  1  0
  8 11  1  0
 12 13  1  0
 12 14  1  0
 15 16  1  0
 15 17  1  0
 15 18  1  0
M  CHG  1   7  -1
V    7 [O&-]
M  END
>  <PDB_ID>  (2177) 
pdb4igl

>  <RESIDUE_NAME>  (2177) 
ASP   PRO

>  <FRAG_NAME>  (2177) 
ACET   PRPA

>  <FRAG_ATOM_NUM>  (2177) 
fragi: 7 fragj: 11

>  <atom.prop.CHAIN_ID>  (2177) 
A A A A A A A Z Z Z Z Z Z Z Z Z Z Z

>  <atom.prop.IS_HEAVY_ATOM>  (2177) 
1 0 0 0 1 1 1 1 0 0 0 1 0 0 1 0 0 0

>  <DIFUSE_FUNC_ATOM>  (2177) 
n/a

>  <FINAL_SINGLE_POINT_ENERGY>  (2177) 
0

>  <NONCOV_INTER_ENERGY_QM>  (2177) 
0

>  <FF_Energy>  (2177) 
30.86

>  <QM_Energy>  (2177) 
8.75

>  <source>  (2177) 
ACET_PRPA_29

>  <Index>  (2177) 
7198

$$$$
ACEH-pdb6p5s-A-GLH-380:PRPA-pdb6p5s-A-LYS-316
     RDKit          3D

 18 16  0  0  0  0  0  0  0  0999 V2000
   -0.1857    1.4862   -0.0153 C   0  0  0  0  0  0  0  0  0  0  0  0
   -0.7044    1.7369    0.8020 H   0  0  0  0  0  0  0  0  0  0  0  0
   -0.7162    1.7185   -0.8307 H   0  0  0  0  0  0  0  0  0  0  0  0
    0.7247    2.0854   -0.0274 H   0  0  0  0  0  0  0  0  0  0  0  0
    0.0000    0.0000    0.0000 C   0  0  0  0  0  0  0  0  0  0  0  0
   -1.0891   -0.6123    0.0000 O   0  0  0  0  0  0  0  0  0  0  0  0
    1.0891   -0.5537   -0.0000 O   0  0  0  0  0  0  0  0  0  0  0  0
   -0.3211   -1.3332   -2.3931 C   0  0  0  0  0  0  0  0  0  0  0  0
   -0.5989   -2.0979   -1.7911 H   0  0  0  0  0  0  0  0  0  0  0  0
   -0.3556   -0.4837   -1.8450 H   0  0  0  0  0  0  0  0  0  0  0  0
    0.7078   -1.4996   -2.7120 H   0  0  0  0  0  0  0  0  0  0  0  0
   -1.2892   -1.2256   -3.5306 C   0  0  0  0  0  0  0  0  0  0  0  0
   -0.9127   -0.5905   -4.2244 H   0  0  0  0  0  0  0  0  0  0  0  0
   -1.3846   -2.1330   -3.9697 H   0  0  0  0  0  0  0  0  0  0  0  0
   -2.6657   -0.7417   -3.1469 C   0  0  0  0  0  0  0  0  0  0  0  0
   -3.3142   -0.9866   -3.8769 H   0  0  0  0  0  0  0  0  0  0  0  0
   -2.9523   -1.2051   -2.3006 H   0  0  0  0  0  0  0  0  0  0  0  0
   -2.6912    0.3368   -2.9914 H   0  0  0  0  0  0  0  0  0  0  0  0
  1  5  1  0
  5  6  2  0
  5  7  1  0
  1  2  1  0
  1  3  1  0
  1  4  1  0
  8 12  1  0
 12 15  1  0
  8  9  1  0
  8 10  1  0
  8 11  1  0
 12 13  1  0
 12 14  1  0
 15 16  1  0
 15 17  1  0
 15 18  1  0
M  CHG  1   7  -1
V    7 [O&-]
M  END
>  <PDB_ID>  (2178) 
pdb6p5s

>  <RESIDUE_NAME>  (2178) 
GLU   LYS

>  <FRAG_NAME>  (2178) 
ACET   PRPA

>  <FRAG_ATOM_NUM>  (2178) 
fragi: 7 fragj: 11

>  <atom.prop.CHAIN_ID>  (2178) 
A A A A A A A Z Z Z Z Z Z Z Z Z Z Z

>  <atom.prop.IS_HEAVY_ATOM>  (2178) 
1 0 0 0 1 1 1 1 0 0 0 1 0 0 1 0 0 0

>  <DIFUSE_FUNC_ATOM>  (2178) 
n/a

>  <FINAL_SINGLE_POINT_ENERGY>  (2178) 
0

>  <NONCOV_INTER_ENERGY_QM>  (2178) 
0

>  <FF_Energy>  (2178) 
46.5

>  <QM_Energy>  (2178) 
8.62

>  <source>  (2178) 
ACET_PRPA_29

>  <Index>  (2178) 
7199

$$$$
ACEH-pdb5mz2-C-GLH-428:PRPA-pdb5mz2-C-ARG-424
     RDKit          3D

 18 16  0  0  0  0  0  0  0  0999 V2000
   -0.0052    1.5178    0.0135 C   0  0  0  0  0  0  0  0  0  0  0  0
   -0.5122    1.8103    0.8056 H   0  0  0  0  0  0  0  0  0  0  0  0
   -0.4240    1.8247   -0.8243 H   0  0  0  0  0  0  0  0  0  0  0  0
    0.9887    1.9615    0.0715 H   0  0  0  0  0  0  0  0  0  0  0  0
    0.0000    0.0000    0.0000 C   0  0  0  0  0  0  0  0  0  0  0  0
   -1.1013   -0.6033   -0.0000 O   0  0  0  0  0  0  0  0  0  0  0  0
    1.1013   -0.5883    0.0000 O   0  0  0  0  0  0  0  0  0  0  0  0
   -3.8321    1.7976   -2.4340 C   0  0  0  0  0  0  0  0  0  0  0  0
   -4.0714    2.2562   -1.5656 H   0  0  0  0  0  0  0  0  0  0  0  0
   -4.4760    2.1855   -3.2233 H   0  0  0  0  0  0  0  0  0  0  0  0
   -2.7778    1.9793   -2.6428 H   0  0  0  0  0  0  0  0  0  0  0  0
   -4.0800    0.3058   -2.2293 C   0  0  0  0  0  0  0  0  0  0  0  0
   -5.0361    0.1767   -2.0234 H   0  0  0  0  0  0  0  0  0  0  0  0
   -3.8179   -0.1674   -3.0544 H   0  0  0  0  0  0  0  0  0  0  0  0
   -3.2643   -0.2362   -1.0851 C   0  0  0  0  0  0  0  0  0  0  0  0
   -2.4245   -0.6497   -1.4368 H   0  0  0  0  0  0  0  0  0  0  0  0
   -3.0321    0.5067   -0.4571 H   0  0  0  0  0  0  0  0  0  0  0  0
   -3.8100   -0.9958   -0.5253 H   0  0  0  0  0  0  0  0  0  0  0  0
  1  5  1  0
  5  6  2  0
  5  7  1  0
  1  2  1  0
  1  3  1  0
  1  4  1  0
  8 12  1  0
 12 15  1  0
  8  9  1  0
  8 10  1  0
  8 11  1  0
 12 13  1  0
 12 14  1  0
 15 16  1  0
 15 17  1  0
 15 18  1  0
M  CHG  1   7  -1
V    7 [O&-]
M  END
>  <PDB_ID>  (2179) 
pdb5mz2

>  <RESIDUE_NAME>  (2179) 
GLU   ARG

>  <FRAG_NAME>  (2179) 
ACET   PRPA

>  <FRAG_ATOM_NUM>  (2179) 
fragi: 7 fragj: 11

>  <atom.prop.CHAIN_ID>  (2179) 
A A A A A A A Z Z Z Z Z Z Z Z Z Z Z

>  <atom.prop.IS_HEAVY_ATOM>  (2179) 
1 0 0 0 1 1 1 1 0 0 0 1 0 0 1 0 0 0

>  <DIFUSE_FUNC_ATOM>  (2179) 
n/a

>  <FINAL_SINGLE_POINT_ENERGY>  (2179) 
0

>  <NONCOV_INTER_ENERGY_QM>  (2179) 
0

>  <FF_Energy>  (2179) 
22.6

>  <QM_Energy>  (2179) 
7.28

>  <source>  (2179) 
ACET_PRPA_29

>  <Index>  (2179) 
8500

$$$$
ACEH-pdb3gxa-B-GLH-185:PRPA-pdb3gxa-B-LYS-168
     RDKit          3D

 18 16  0  0  0  0  0  0  0  0999 V2000
    0.0028    1.5227    0.0102 C   0  0  0  0  0  0  0  0  0  0  0  0
    0.2192    1.8081    0.9240 H   0  0  0  0  0  0  0  0  0  0  0  0
   -0.8901    1.8173   -0.2736 H   0  0  0  0  0  0  0  0  0  0  0  0
    0.7441    1.9396   -0.6715 H   0  0  0  0  0  0  0  0  0  0  0  0
    0.0000    0.0000    0.0000 C   0  0  0  0  0  0  0  0  0  0  0  0
   -1.0904   -0.6024    0.0000 O   0  0  0  0  0  0  0  0  0  0  0  0
    1.0904   -0.6023   -0.0000 O   0  0  0  0  0  0  0  0  0  0  0  0
   -3.2403    2.4293   -0.0829 C   0  0  0  0  0  0  0  0  0  0  0  0
   -3.7098    1.7593   -0.6608 H   0  0  0  0  0  0  0  0  0  0  0  0
   -2.2837    2.5008   -0.3739 H   0  0  0  0  0  0  0  0  0  0  0  0
   -3.7132    3.3993   -0.2365 H   0  0  0  0  0  0  0  0  0  0  0  0
   -3.2679    1.9263    1.3483 C   0  0  0  0  0  0  0  0  0  0  0  0
   -2.6953    1.1055    1.4170 H   0  0  0  0  0  0  0  0  0  0  0  0
   -2.8955    2.6350    1.9523 H   0  0  0  0  0  0  0  0  0  0  0  0
   -4.6732    1.5843    1.8013 C   0  0  0  0  0  0  0  0  0  0  0  0
   -5.2219    2.4063    1.8049 H   0  0  0  0  0  0  0  0  0  0  0  0
   -5.0528    0.9001    1.1968 H   0  0  0  0  0  0  0  0  0  0  0  0
   -4.6480    1.1787    2.8128 H   0  0  0  0  0  0  0  0  0  0  0  0
  1  5  1  0
  5  6  2  0
  5  7  1  0
  1  2  1  0
  1  3  1  0
  1  4  1  0
  8 12  1  0
 12 15  1  0
  8  9  1  0
  8 10  1  0
  8 11  1  0
 12 13  1  0
 12 14  1  0
 15 16  1  0
 15 17  1  0
 15 18  1  0
M  CHG  1   7  -1
V    7 [O&-]
M  END
>  <PDB_ID>  (2180) 
pdb3gxa

>  <RESIDUE_NAME>  (2180) 
GLU   LYS

>  <FRAG_NAME>  (2180) 
ACET   PRPA

>  <FRAG_ATOM_NUM>  (2180) 
fragi: 7 fragj: 11

>  <atom.prop.CHAIN_ID>  (2180) 
A A A A A A A Z Z Z Z Z Z Z Z Z Z Z

>  <atom.prop.IS_HEAVY_ATOM>  (2180) 
1 0 0 0 1 1 1 1 0 0 0 1 0 0 1 0 0 0

>  <DIFUSE_FUNC_ATOM>  (2180) 
n/a

>  <FINAL_SINGLE_POINT_ENERGY>  (2180) 
0

>  <NONCOV_INTER_ENERGY_QM>  (2180) 
0

>  <FF_Energy>  (2180) 
17.1

>  <QM_Energy>  (2180) 
0.22

>  <source>  (2180) 
ACET_PRPA_29

>  <Index>  (2180) 
8617

$$$$
ACEH-pdb1j49-A-GLH-109:PRPA-pdb1j49-B-GLU-143
     RDKit          3D

 18 16  0  0  0  0  0  0  0  0999 V2000
    0.1131    1.5094    0.0426 C   0  0  0  0  0  0  0  0  0  0  0  0
    0.6228    1.7875   -0.7596 H   0  0  0  0  0  0  0  0  0  0  0  0
    0.6010    1.7435    0.8719 H   0  0  0  0  0  0  0  0  0  0  0  0
   -0.8471    2.0253    0.0428 H   0  0  0  0  0  0  0  0  0  0  0  0
    0.0000    0.0000    0.0000 C   0  0  0  0  0  0  0  0  0  0  0  0
   -1.1018   -0.5606    0.0000 O   0  0  0  0  0  0  0  0  0  0  0  0
    1.1018   -0.6551   -0.0000 O   0  0  0  0  0  0  0  0  0  0  0  0
   -0.1714   -3.3970    1.0580 C   0  0  0  0  0  0  0  0  0  0  0  0
    0.1159   -2.4457    1.2466 H   0  0  0  0  0  0  0  0  0  0  0  0
    0.6039   -4.0831    1.3990 H   0  0  0  0  0  0  0  0  0  0  0  0
   -1.1251   -3.5979    1.5460 H   0  0  0  0  0  0  0  0  0  0  0  0
   -0.3565   -3.5048   -0.4765 C   0  0  0  0  0  0  0  0  0  0  0  0
   -0.5947   -4.4175   -0.6754 H   0  0  0  0  0  0  0  0  0  0  0  0
   -0.9995   -2.8369   -0.7384 H   0  0  0  0  0  0  0  0  0  0  0  0
    0.9624   -3.1949   -1.1691 C   0  0  0  0  0  0  0  0  0  0  0  0
    1.2990   -2.3345   -0.8316 H   0  0  0  0  0  0  0  0  0  0  0  0
    1.5899   -3.9329   -0.9966 H   0  0  0  0  0  0  0  0  0  0  0  0
    0.8730   -3.0995   -2.2513 H   0  0  0  0  0  0  0  0  0  0  0  0
  1  5  1  0
  5  6  2  0
  5  7  1  0
  1  2  1  0
  1  3  1  0
  1  4  1  0
  8 12  1  0
 12 15  1  0
  8  9  1  0
  8 10  1  0
  8 11  1  0
 12 13  1  0
 12 14  1  0
 15 16  1  0
 15 17  1  0
 15 18  1  0
M  CHG  1   7  -1
V    7 [O&-]
M  END
>  <PDB_ID>  (2181) 
pdb1j49

>  <RESIDUE_NAME>  (2181) 
GLU   GLU

>  <FRAG_NAME>  (2181) 
ACET   PRPA

>  <FRAG_ATOM_NUM>  (2181) 
fragi: 7 fragj: 11

>  <atom.prop.CHAIN_ID>  (2181) 
A A A A A A A Z Z Z Z Z Z Z Z Z Z Z

>  <atom.prop.IS_HEAVY_ATOM>  (2181) 
1 0 0 0 1 1 1 1 0 0 0 1 0 0 1 0 0 0

>  <DIFUSE_FUNC_ATOM>  (2181) 
n/a

>  <FINAL_SINGLE_POINT_ENERGY>  (2181) 
0

>  <NONCOV_INTER_ENERGY_QM>  (2181) 
0

>  <FF_Energy>  (2181) 
18.99

>  <QM_Energy>  (2181) 
-3.09

>  <source>  (2181) 
ACET_PRPA_29

>  <Index>  (2181) 
9134

$$$$
ACEH-pdb1j4s-A-GLH-20:PRPA-pdb1j4s-A-PRO-54
     RDKit          3D

 18 16  0  0  0  0  0  0  0  0999 V2000
    0.0461    1.4365    0.1688 C   0  0  0  0  0  0  0  0  0  0  0  0
   -0.8654    1.7824    0.1174 H   0  0  0  0  0  0  0  0  0  0  0  0
    0.6404    1.8071   -0.5114 H   0  0  0  0  0  0  0  0  0  0  0  0
    0.4562    1.6257    1.1607 H   0  0  0  0  0  0  0  0  0  0  0  0
    0.0000    0.0000    0.0000 C   0  0  0  0  0  0  0  0  0  0  0  0
   -1.0904   -0.5694   -0.0000 O   0  0  0  0  0  0  0  0  0  0  0  0
    1.0904   -0.6027    0.0000 O   0  0  0  0  0  0  0  0  0  0  0  0
   -3.8154    3.4156   -1.4310 C   0  0  0  0  0  0  0  0  0  0  0  0
   -2.9570    3.2293   -1.8879 H   0  0  0  0  0  0  0  0  0  0  0  0
   -4.2556    4.2155   -1.8135 H   0  0  0  0  0  0  0  0  0  0  0  0
   -4.4750    2.5483   -1.4555 H   0  0  0  0  0  0  0  0  0  0  0  0
   -3.5845    3.6052    0.0675 C   0  0  0  0  0  0  0  0  0  0  0  0
   -2.8388    4.2020    0.2152 H   0  0  0  0  0  0  0  0  0  0  0  0
   -4.4102    3.8596    0.4996 H   0  0  0  0  0  0  0  0  0  0  0  0
   -3.2202    2.1745    0.3580 C   0  0  0  0  0  0  0  0  0  0  0  0
   -2.3763    1.9178   -0.0871 H   0  0  0  0  0  0  0  0  0  0  0  0
   -3.1803    2.0001    1.3312 H   0  0  0  0  0  0  0  0  0  0  0  0
   -4.0712    1.6663   -0.0955 H   0  0  0  0  0  0  0  0  0  0  0  0
  1  5  1  0
  5  6  2  0
  5  7  1  0
  1  2  1  0
  1  3  1  0
  1  4  1  0
  8 12  1  0
 12 15  1  0
  8  9  1  0
  8 10  1  0
  8 11  1  0
 12 13  1  0
 12 14  1  0
 15 16  1  0
 15 17  1  0
 15 18  1  0
M  CHG  1   7  -1
V    7 [O&-]
M  END
>  <PDB_ID>  (2182) 
pdb1j4s

>  <RESIDUE_NAME>  (2182) 
GLU   PRO

>  <FRAG_NAME>  (2182) 
ACET   PRPA

>  <FRAG_ATOM_NUM>  (2182) 
fragi: 7 fragj: 11

>  <atom.prop.CHAIN_ID>  (2182) 
A A A A A A A Z Z Z Z Z Z Z Z Z Z Z

>  <atom.prop.IS_HEAVY_ATOM>  (2182) 
1 0 0 0 1 1 1 1 0 0 0 1 0 0 1 0 0 0

>  <DIFUSE_FUNC_ATOM>  (2182) 
n/a

>  <FINAL_SINGLE_POINT_ENERGY>  (2182) 
0

>  <NONCOV_INTER_ENERGY_QM>  (2182) 
0

>  <FF_Energy>  (2182) 
20.89

>  <QM_Energy>  (2182) 
2.52

>  <source>  (2182) 
ACET_PRPA_29

>  <Index>  (2182) 
9271

$$$$
ACEH-pdb1j7n-B-ASH-693:PRPA-pdb1j7n-B-LEU-707
     RDKit          3D

 18 16  0  0  0  0  0  0  0  0999 V2000
   -0.0219    1.5225    0.0083 C   0  0  0  0  0  0  0  0  0  0  0  0
   -0.4485    1.8304    0.8516 H   0  0  0  0  0  0  0  0  0  0  0  0
   -0.5415    1.8390   -0.7775 H   0  0  0  0  0  0  0  0  0  0  0  0
    0.9715    1.9678   -0.0456 H   0  0  0  0  0  0  0  0  0  0  0  0
    0.0000    0.0000    0.0000 C   0  0  0  0  0  0  0  0  0  0  0  0
   -1.0941   -0.5971    0.0000 O   0  0  0  0  0  0  0  0  0  0  0  0
    1.0941   -0.6016   -0.0000 O   0  0  0  0  0  0  0  0  0  0  0  0
    1.8310   -2.8769   -2.2874 C   0  0  0  0  0  0  0  0  0  0  0  0
    2.2101   -2.0310   -2.6563 H   0  0  0  0  0  0  0  0  0  0  0  0
    1.8181   -3.6358   -3.0696 H   0  0  0  0  0  0  0  0  0  0  0  0
    2.4839   -3.2243   -1.4868 H   0  0  0  0  0  0  0  0  0  0  0  0
    0.3995   -2.6911   -1.7801 C   0  0  0  0  0  0  0  0  0  0  0  0
    0.1586   -3.4755   -1.2454 H   0  0  0  0  0  0  0  0  0  0  0  0
    0.3592   -1.8551   -1.2749 H   0  0  0  0  0  0  0  0  0  0  0  0
   -0.6150   -2.5874   -2.9295 C   0  0  0  0  0  0  0  0  0  0  0  0
   -0.3970   -3.2868   -3.6127 H   0  0  0  0  0  0  0  0  0  0  0  0
   -1.6331   -2.7332   -2.5684 H   0  0  0  0  0  0  0  0  0  0  0  0
   -0.5049   -1.6202   -3.4198 H   0  0  0  0  0  0  0  0  0  0  0  0
  1  5  1  0
  5  6  2  0
  5  7  1  0
  1  2  1  0
  1  3  1  0
  1  4  1  0
  8 12  1  0
 12 15  1  0
  8  9  1  0
  8 10  1  0
  8 11  1  0
 12 13  1  0
 12 14  1  0
 15 16  1  0
 15 17  1  0
 15 18  1  0
M  CHG  1   7  -1
V    7 [O&-]
M  END
>  <PDB_ID>  (2183) 
pdb1j7n

>  <RESIDUE_NAME>  (2183) 
ASP   LEU

>  <FRAG_NAME>  (2183) 
ACET   PRPA

>  <FRAG_ATOM_NUM>  (2183) 
fragi: 7 fragj: 11

>  <atom.prop.CHAIN_ID>  (2183) 
A A A A A A A Z Z Z Z Z Z Z Z Z Z Z

>  <atom.prop.IS_HEAVY_ATOM>  (2183) 
1 0 0 0 1 1 1 1 0 0 0 1 0 0 1 0 0 0

>  <DIFUSE_FUNC_ATOM>  (2183) 
n/a

>  <FINAL_SINGLE_POINT_ENERGY>  (2183) 
0

>  <NONCOV_INTER_ENERGY_QM>  (2183) 
0

>  <FF_Energy>  (2183) 
18.86

>  <QM_Energy>  (2183) 
-0.85

>  <source>  (2183) 
ACET_PRPA_29

>  <Index>  (2183) 
9954

$$$$
ACEH-pdb1j7n-B-ASH-693:PRPA-pdb1j7n-B-LEU-707
     RDKit          3D

 18 16  0  0  0  0  0  0  0  0999 V2000
   -0.0219    1.5225    0.0083 C   0  0  0  0  0  0  0  0  0  0  0  0
   -0.4485    1.8304    0.8516 H   0  0  0  0  0  0  0  0  0  0  0  0
   -0.5415    1.8390   -0.7775 H   0  0  0  0  0  0  0  0  0  0  0  0
    0.9715    1.9678   -0.0456 H   0  0  0  0  0  0  0  0  0  0  0  0
    0.0000    0.0000    0.0000 C   0  0  0  0  0  0  0  0  0  0  0  0
   -1.0941   -0.5971    0.0000 O   0  0  0  0  0  0  0  0  0  0  0  0
    1.0941   -0.6016   -0.0000 O   0  0  0  0  0  0  0  0  0  0  0  0
    0.3995   -2.6911   -1.7801 C   0  0  0  0  0  0  0  0  0  0  0  0
    0.1586   -3.4755   -1.2454 H   0  0  0  0  0  0  0  0  0  0  0  0
    0.3592   -1.8551   -1.2749 H   0  0  0  0  0  0  0  0  0  0  0  0
    1.4193   -2.8234   -2.1415 H   0  0  0  0  0  0  0  0  0  0  0  0
   -0.6150   -2.5874   -2.9295 C   0  0  0  0  0  0  0  0  0  0  0  0
   -0.3970   -3.2868   -3.6127 H   0  0  0  0  0  0  0  0  0  0  0  0
   -0.5049   -1.6202   -3.4198 H   0  0  0  0  0  0  0  0  0  0  0  0
   -2.0311   -2.7901   -2.4272 C   0  0  0  0  0  0  0  0  0  0  0  0
   -2.2500   -2.0907   -1.7444 H   0  0  0  0  0  0  0  0  0  0  0  0
   -2.6741   -2.7187   -3.1917 H   0  0  0  0  0  0  0  0  0  0  0  0
   -2.1145   -3.6967   -2.0096 H   0  0  0  0  0  0  0  0  0  0  0  0
  1  5  1  0
  5  6  2  0
  5  7  1  0
  1  2  1  0
  1  3  1  0
  1  4  1  0
  8 12  1  0
 12 15  1  0
  8  9  1  0
  8 10  1  0
  8 11  1  0
 12 13  1  0
 12 14  1  0
 15 16  1  0
 15 17  1  0
 15 18  1  0
M  CHG  1   7  -1
V    7 [O&-]
M  END
>  <PDB_ID>  (2184) 
pdb1j7n

>  <RESIDUE_NAME>  (2184) 
ASP   LEU

>  <FRAG_NAME>  (2184) 
ACET   PRPA

>  <FRAG_ATOM_NUM>  (2184) 
fragi: 7 fragj: 11

>  <atom.prop.CHAIN_ID>  (2184) 
A A A A A A A Z Z Z Z Z Z Z Z Z Z Z

>  <atom.prop.IS_HEAVY_ATOM>  (2184) 
1 0 0 0 1 1 1 1 0 0 0 1 0 0 1 0 0 0

>  <DIFUSE_FUNC_ATOM>  (2184) 
n/a

>  <FINAL_SINGLE_POINT_ENERGY>  (2184) 
0

>  <NONCOV_INTER_ENERGY_QM>  (2184) 
0

>  <FF_Energy>  (2184) 
16.48

>  <QM_Energy>  (2184) 
-0.51

>  <source>  (2184) 
ACET_PRPA_29

>  <Index>  (2184) 
10006

$$$$
ACEH-pdb1j7n-B-ASH-693:PRPA-pdb1j7n-B-LEU-707
     RDKit          3D

 18 16  0  0  0  0  0  0  0  0999 V2000
   -0.0219    1.5225    0.0083 C   0  0  0  0  0  0  0  0  0  0  0  0
   -0.4485    1.8304    0.8516 H   0  0  0  0  0  0  0  0  0  0  0  0
   -0.5415    1.8390   -0.7775 H   0  0  0  0  0  0  0  0  0  0  0  0
    0.9715    1.9678   -0.0456 H   0  0  0  0  0  0  0  0  0  0  0  0
    0.0000    0.0000    0.0000 C   0  0  0  0  0  0  0  0  0  0  0  0
   -1.0941   -0.5971    0.0000 O   0  0  0  0  0  0  0  0  0  0  0  0
    1.0941   -0.6016   -0.0000 O   0  0  0  0  0  0  0  0  0  0  0  0
    0.3995   -2.6911   -1.7801 C   0  0  0  0  0  0  0  0  0  0  0  0
    0.1586   -3.4755   -1.2454 H   0  0  0  0  0  0  0  0  0  0  0  0
    0.3592   -1.8551   -1.2749 H   0  0  0  0  0  0  0  0  0  0  0  0
    1.4193   -2.8234   -2.1415 H   0  0  0  0  0  0  0  0  0  0  0  0
   -0.6150   -2.5874   -2.9295 C   0  0  0  0  0  0  0  0  0  0  0  0
   -0.3970   -3.2868   -3.6127 H   0  0  0  0  0  0  0  0  0  0  0  0
   -1.6331   -2.7332   -2.5684 H   0  0  0  0  0  0  0  0  0  0  0  0
   -0.4615   -1.2397   -3.6128 C   0  0  0  0  0  0  0  0  0  0  0  0
    0.4673   -1.1517   -3.9774 H   0  0  0  0  0  0  0  0  0  0  0  0
   -1.1204   -1.1668   -4.3635 H   0  0  0  0  0  0  0  0  0  0  0  0
   -0.6291   -0.5065   -2.9519 H   0  0  0  0  0  0  0  0  0  0  0  0
  1  5  1  0
  5  6  2  0
  5  7  1  0
  1  2  1  0
  1  3  1  0
  1  4  1  0
  8 12  1  0
 12 15  1  0
  8  9  1  0
  8 10  1  0
  8 11  1  0
 12 13  1  0
 12 14  1  0
 15 16  1  0
 15 17  1  0
 15 18  1  0
M  CHG  1   7  -1
V    7 [O&-]
M  END
>  <PDB_ID>  (2185) 
pdb1j7n

>  <RESIDUE_NAME>  (2185) 
ASP   LEU

>  <FRAG_NAME>  (2185) 
ACET   PRPA

>  <FRAG_ATOM_NUM>  (2185) 
fragi: 7 fragj: 11

>  <atom.prop.CHAIN_ID>  (2185) 
A A A A A A A Z Z Z Z Z Z Z Z Z Z Z

>  <atom.prop.IS_HEAVY_ATOM>  (2185) 
1 0 0 0 1 1 1 1 0 0 0 1 0 0 1 0 0 0

>  <DIFUSE_FUNC_ATOM>  (2185) 
n/a

>  <FINAL_SINGLE_POINT_ENERGY>  (2185) 
0

>  <NONCOV_INTER_ENERGY_QM>  (2185) 
0

>  <FF_Energy>  (2185) 
16.34

>  <QM_Energy>  (2185) 
-0.47

>  <source>  (2185) 
ACET_PRPA_29

>  <Index>  (2185) 
10061

$$$$
ACEH-pdb2jhe-A-GLH-169:PRPA-pdb2jhe-A-VAL-164
     RDKit          3D

 18 16  0  0  0  0  0  0  0  0999 V2000
   -0.1518    1.4885   -0.0143 C   0  0  0  0  0  0  0  0  0  0  0  0
   -0.6703    1.7530    0.8022 H   0  0  0  0  0  0  0  0  0  0  0  0
   -0.6821    1.7350   -0.8296 H   0  0  0  0  0  0  0  0  0  0  0  0
    0.7602    2.0853   -0.0265 H   0  0  0  0  0  0  0  0  0  0  0  0
    0.0000    0.0000    0.0000 C   0  0  0  0  0  0  0  0  0  0  0  0
   -1.0900   -0.5951   -0.0000 O   0  0  0  0  0  0  0  0  0  0  0  0
    1.0900   -0.5619   -0.0000 O   0  0  0  0  0  0  0  0  0  0  0  0
    3.0386   -3.1071    1.5950 C   0  0  0  0  0  0  0  0  0  0  0  0
    3.1779   -3.9262    2.1635 H   0  0  0  0  0  0  0  0  0  0  0  0
    3.8981   -2.4511    1.7321 H   0  0  0  0  0  0  0  0  0  0  0  0
    2.9509   -3.4279    0.5569 H   0  0  0  0  0  0  0  0  0  0  0  0
    1.7044   -2.4144    2.0436 C   0  0  0  0  0  0  0  0  0  0  0  0
    1.6205   -1.5832    1.5045 H   0  0  0  0  0  0  0  0  0  0  0  0
    1.7222   -2.1816    3.1083 H   0  0  0  0  0  0  0  0  0  0  0  0
    0.5292   -3.2912    1.7335 C   0  0  0  0  0  0  0  0  0  0  0  0
   -0.2463   -2.7329    1.4249 H   0  0  0  0  0  0  0  0  0  0  0  0
    0.7670   -3.9443    1.0097 H   0  0  0  0  0  0  0  0  0  0  0  0
    0.2538   -3.8027    2.5525 H   0  0  0  0  0  0  0  0  0  0  0  0
  1  5  1  0
  5  6  2  0
  5  7  1  0
  1  2  1  0
  1  3  1  0
  1  4  1  0
  8 12  1  0
 12 15  1  0
  8  9  1  0
  8 10  1  0
  8 11  1  0
 12 13  1  0
 12 14  1  0
 15 16  1  0
 15 17  1  0
 15 18  1  0
M  CHG  1   7  -1
V    7 [O&-]
M  END
>  <PDB_ID>  (2186) 
pdb2jhe

>  <RESIDUE_NAME>  (2186) 
GLU   VAL

>  <FRAG_NAME>  (2186) 
ACET   PRPA

>  <FRAG_ATOM_NUM>  (2186) 
fragi: 7 fragj: 11

>  <atom.prop.CHAIN_ID>  (2186) 
A A A A A A A Z Z Z Z Z Z Z Z Z Z Z

>  <atom.prop.IS_HEAVY_ATOM>  (2186) 
1 0 0 0 1 1 1 1 0 0 0 1 0 0 1 0 0 0

>  <DIFUSE_FUNC_ATOM>  (2186) 
n/a

>  <FINAL_SINGLE_POINT_ENERGY>  (2186) 
0

>  <NONCOV_INTER_ENERGY_QM>  (2186) 
0

>  <FF_Energy>  (2186) 
17.29

>  <QM_Energy>  (2186) 
-2.91

>  <source>  (2186) 
ACET_PRPA_29

>  <Index>  (2186) 
10192

$$$$
ACEH-pdb4ix8-B-GLH-371:PRPA-pdb4ix8-B-PRO-196
     RDKit          3D

 18 16  0  0  0  0  0  0  0  0999 V2000
   -0.1800    1.4876   -0.0154 C   0  0  0  0  0  0  0  0  0  0  0  0
   -0.6979    1.7413    0.8016 H   0  0  0  0  0  0  0  0  0  0  0  0
   -0.7093    1.7222   -0.8307 H   0  0  0  0  0  0  0  0  0  0  0  0
    0.7306    2.0866   -0.0276 H   0  0  0  0  0  0  0  0  0  0  0  0
    0.0000    0.0000    0.0000 C   0  0  0  0  0  0  0  0  0  0  0  0
   -1.0894   -0.6098   -0.0000 O   0  0  0  0  0  0  0  0  0  0  0  0
    1.0894   -0.5547    0.0000 O   0  0  0  0  0  0  0  0  0  0  0  0
   -2.8498   -2.0701    0.1744 C   0  0  0  0  0  0  0  0  0  0  0  0
   -3.0377   -1.2493    0.6570 H   0  0  0  0  0  0  0  0  0  0  0  0
   -2.6775   -1.8828   -0.7623 H   0  0  0  0  0  0  0  0  0  0  0  0
   -1.9813   -2.5605    0.6140 H   0  0  0  0  0  0  0  0  0  0  0  0
   -3.9600   -3.0121    0.3132 C   0  0  0  0  0  0  0  0  0  0  0  0
   -4.4110   -2.8564    1.1578 H   0  0  0  0  0  0  0  0  0  0  0  0
   -4.5773   -2.8938   -0.4259 H   0  0  0  0  0  0  0  0  0  0  0  0
   -3.3755   -4.3714    0.2842 C   0  0  0  0  0  0  0  0  0  0  0  0
   -3.8917   -4.9735    0.8418 H   0  0  0  0  0  0  0  0  0  0  0  0
   -3.3160   -4.6935   -0.6290 H   0  0  0  0  0  0  0  0  0  0  0  0
   -2.3790   -4.2272    0.7015 H   0  0  0  0  0  0  0  0  0  0  0  0
  1  5  1  0
  5  6  2  0
  5  7  1  0
  1  2  1  0
  1  3  1  0
  1  4  1  0
  8 12  1  0
 12 15  1  0
  8  9  1  0
  8 10  1  0
  8 11  1  0
 12 13  1  0
 12 14  1  0
 15 16  1  0
 15 17  1  0
 15 18  1  0
M  CHG  1   7  -1
V    7 [O&-]
M  END
>  <PDB_ID>  (2187) 
pdb4ix8

>  <RESIDUE_NAME>  (2187) 
GLU   PRO

>  <FRAG_NAME>  (2187) 
ACET   PRPA

>  <FRAG_ATOM_NUM>  (2187) 
fragi: 7 fragj: 11

>  <atom.prop.CHAIN_ID>  (2187) 
A A A A A A A Z Z Z Z Z Z Z Z Z Z Z

>  <atom.prop.IS_HEAVY_ATOM>  (2187) 
1 0 0 0 1 1 1 1 0 0 0 1 0 0 1 0 0 0

>  <DIFUSE_FUNC_ATOM>  (2187) 
n/a

>  <FINAL_SINGLE_POINT_ENERGY>  (2187) 
0

>  <NONCOV_INTER_ENERGY_QM>  (2187) 
0

>  <FF_Energy>  (2187) 
36.03

>  <QM_Energy>  (2187) 
9.89

>  <source>  (2187) 
ACET_PRPA_29

>  <Index>  (2187) 
10224

$$$$
ACEH-pdb5nhs-B-ASH-240:PRPA-pdb5nhs-B-VAL-219
     RDKit          3D

 18 16  0  0  0  0  0  0  0  0999 V2000
   -0.0779    1.5415    0.0280 C   0  0  0  0  0  0  0  0  0  0  0  0
   -0.5304    1.8123    0.8705 H   0  0  0  0  0  0  0  0  0  0  0  0
   -0.6041    1.8390   -0.7598 H   0  0  0  0  0  0  0  0  0  0  0  0
    0.8960    2.0296   -0.0078 H   0  0  0  0  0  0  0  0  0  0  0  0
    0.0000    0.0000    0.0000 C   0  0  0  0  0  0  0  0  0  0  0  0
   -1.1335   -0.5517    0.0000 O   0  0  0  0  0  0  0  0  0  0  0  0
    1.1335   -0.6588    0.0000 O   0  0  0  0  0  0  0  0  0  0  0  0
    5.0017   -0.6686    0.8356 C   0  0  0  0  0  0  0  0  0  0  0  0
    5.7546   -1.2894    1.0563 H   0  0  0  0  0  0  0  0  0  0  0  0
    5.0325    0.1800    1.5189 H   0  0  0  0  0  0  0  0  0  0  0  0
    5.1576   -0.3093   -0.1815 H   0  0  0  0  0  0  0  0  0  0  0  0
    3.6949   -1.3981    0.9346 C   0  0  0  0  0  0  0  0  0  0  0  0
    2.9865   -0.8536    0.4907 H   0  0  0  0  0  0  0  0  0  0  0  0
    3.4947   -1.6660    1.9720 H   0  0  0  0  0  0  0  0  0  0  0  0
    3.7610   -2.7209    0.1617 C   0  0  0  0  0  0  0  0  0  0  0  0
    4.3030   -2.5906   -0.6654 H   0  0  0  0  0  0  0  0  0  0  0  0
    4.1863   -3.4164    0.7376 H   0  0  0  0  0  0  0  0  0  0  0  0
    2.8361   -3.0044   -0.0825 H   0  0  0  0  0  0  0  0  0  0  0  0
  1  5  1  0
  5  6  2  0
  5  7  1  0
  1  2  1  0
  1  3  1  0
  1  4  1  0
  8 12  1  0
 12 15  1  0
  8  9  1  0
  8 10  1  0
  8 11  1  0
 12 13  1  0
 12 14  1  0
 15 16  1  0
 15 17  1  0
 15 18  1  0
M  CHG  1   7  -1
V    7 [O&-]
M  END
>  <PDB_ID>  (2188) 
pdb5nhs

>  <RESIDUE_NAME>  (2188) 
ASP   VAL

>  <FRAG_NAME>  (2188) 
ACET   PRPA

>  <FRAG_ATOM_NUM>  (2188) 
fragi: 7 fragj: 11

>  <atom.prop.CHAIN_ID>  (2188) 
A A A A A A A Z Z Z Z Z Z Z Z Z Z Z

>  <atom.prop.IS_HEAVY_ATOM>  (2188) 
1 0 0 0 1 1 1 1 0 0 0 1 0 0 1 0 0 0

>  <DIFUSE_FUNC_ATOM>  (2188) 
n/a

>  <FINAL_SINGLE_POINT_ENERGY>  (2188) 
0

>  <NONCOV_INTER_ENERGY_QM>  (2188) 
0

>  <FF_Energy>  (2188) 
13.62

>  <QM_Energy>  (2188) 
-1.94

>  <source>  (2188) 
ACET_PRPA_29

>  <Index>  (2188) 
10226

$$$$
ACEH-pdb5nhs-B-ASH-240:PRPA-pdb5nhs-B-VAL-219
     RDKit          3D

 18 16  0  0  0  0  0  0  0  0999 V2000
   -0.0779    1.5415    0.0280 C   0  0  0  0  0  0  0  0  0  0  0  0
   -0.5304    1.8123    0.8705 H   0  0  0  0  0  0  0  0  0  0  0  0
   -0.6041    1.8390   -0.7598 H   0  0  0  0  0  0  0  0  0  0  0  0
    0.8960    2.0296   -0.0078 H   0  0  0  0  0  0  0  0  0  0  0  0
    0.0000    0.0000    0.0000 C   0  0  0  0  0  0  0  0  0  0  0  0
   -1.1335   -0.5517    0.0000 O   0  0  0  0  0  0  0  0  0  0  0  0
    1.1335   -0.6588    0.0000 O   0  0  0  0  0  0  0  0  0  0  0  0
    5.0017   -0.6686    0.8356 C   0  0  0  0  0  0  0  0  0  0  0  0
    5.7546   -1.2894    1.0563 H   0  0  0  0  0  0  0  0  0  0  0  0
    5.0325    0.1800    1.5189 H   0  0  0  0  0  0  0  0  0  0  0  0
    5.1576   -0.3093   -0.1815 H   0  0  0  0  0  0  0  0  0  0  0  0
    3.6949   -1.3981    0.9346 C   0  0  0  0  0  0  0  0  0  0  0  0
    2.9865   -0.8536    0.4907 H   0  0  0  0  0  0  0  0  0  0  0  0
    3.7419   -2.3383    0.3853 H   0  0  0  0  0  0  0  0  0  0  0  0
    3.4180   -1.7686    2.3694 C   0  0  0  0  0  0  0  0  0  0  0  0
    3.8288   -2.6600    2.5730 H   0  0  0  0  0  0  0  0  0  0  0  0
    3.8105   -1.0767    2.9786 H   0  0  0  0  0  0  0  0  0  0  0  0
    2.4285   -1.8188    2.5201 H   0  0  0  0  0  0  0  0  0  0  0  0
  1  5  1  0
  5  6  2  0
  5  7  1  0
  1  2  1  0
  1  3  1  0
  1  4  1  0
  8 12  1  0
 12 15  1  0
  8  9  1  0
  8 10  1  0
  8 11  1  0
 12 13  1  0
 12 14  1  0
 15 16  1  0
 15 17  1  0
 15 18  1  0
M  CHG  1   7  -1
V    7 [O&-]
M  END
>  <PDB_ID>  (2189) 
pdb5nhs

>  <RESIDUE_NAME>  (2189) 
ASP   VAL

>  <FRAG_NAME>  (2189) 
ACET   PRPA

>  <FRAG_ATOM_NUM>  (2189) 
fragi: 7 fragj: 11

>  <atom.prop.CHAIN_ID>  (2189) 
A A A A A A A Z Z Z Z Z Z Z Z Z Z Z

>  <atom.prop.IS_HEAVY_ATOM>  (2189) 
1 0 0 0 1 1 1 1 0 0 0 1 0 0 1 0 0 0

>  <DIFUSE_FUNC_ATOM>  (2189) 
n/a

>  <FINAL_SINGLE_POINT_ENERGY>  (2189) 
0

>  <NONCOV_INTER_ENERGY_QM>  (2189) 
0

>  <FF_Energy>  (2189) 
13.37

>  <QM_Energy>  (2189) 
-1.79

>  <source>  (2189) 
ACET_PRPA_29

>  <Index>  (2189) 
10279

$$$$
ACEH-pdb5nhs-B-ASH-240:PRPA-pdb5nhs-B-VAL-219
     RDKit          3D

 18 16  0  0  0  0  0  0  0  0999 V2000
   -0.0779    1.5415    0.0280 C   0  0  0  0  0  0  0  0  0  0  0  0
   -0.5304    1.8123    0.8705 H   0  0  0  0  0  0  0  0  0  0  0  0
   -0.6041    1.8390   -0.7598 H   0  0  0  0  0  0  0  0  0  0  0  0
    0.8960    2.0296   -0.0078 H   0  0  0  0  0  0  0  0  0  0  0  0
    0.0000    0.0000    0.0000 C   0  0  0  0  0  0  0  0  0  0  0  0
   -1.1335   -0.5517    0.0000 O   0  0  0  0  0  0  0  0  0  0  0  0
    1.1335   -0.6588    0.0000 O   0  0  0  0  0  0  0  0  0  0  0  0
    3.7610   -2.7209    0.1617 C   0  0  0  0  0  0  0  0  0  0  0  0
    4.3030   -2.5906   -0.6654 H   0  0  0  0  0  0  0  0  0  0  0  0
    4.1863   -3.4164    0.7376 H   0  0  0  0  0  0  0  0  0  0  0  0
    2.8361   -3.0044   -0.0825 H   0  0  0  0  0  0  0  0  0  0  0  0
    3.6949   -1.3981    0.9346 C   0  0  0  0  0  0  0  0  0  0  0  0
    2.9865   -0.8536    0.4907 H   0  0  0  0  0  0  0  0  0  0  0  0
    4.6446   -0.8679    0.8626 H   0  0  0  0  0  0  0  0  0  0  0  0
    3.4180   -1.7686    2.3694 C   0  0  0  0  0  0  0  0  0  0  0  0
    3.8288   -2.6600    2.5730 H   0  0  0  0  0  0  0  0  0  0  0  0
    3.8105   -1.0767    2.9786 H   0  0  0  0  0  0  0  0  0  0  0  0
    2.4285   -1.8188    2.5201 H   0  0  0  0  0  0  0  0  0  0  0  0
  1  5  1  0
  5  6  2  0
  5  7  1  0
  1  2  1  0
  1  3  1  0
  1  4  1  0
  8 12  1  0
 12 15  1  0
  8  9  1  0
  8 10  1  0
  8 11  1  0
 12 13  1  0
 12 14  1  0
 15 16  1  0
 15 17  1  0
 15 18  1  0
M  CHG  1   7  -1
V    7 [O&-]
M  END
>  <PDB_ID>  (2190) 
pdb5nhs

>  <RESIDUE_NAME>  (2190) 
ASP   VAL

>  <FRAG_NAME>  (2190) 
ACET   PRPA

>  <FRAG_ATOM_NUM>  (2190) 
fragi: 7 fragj: 11

>  <atom.prop.CHAIN_ID>  (2190) 
A A A A A A A Z Z Z Z Z Z Z Z Z Z Z

>  <atom.prop.IS_HEAVY_ATOM>  (2190) 
1 0 0 0 1 1 1 1 0 0 0 1 0 0 1 0 0 0

>  <DIFUSE_FUNC_ATOM>  (2190) 
n/a

>  <FINAL_SINGLE_POINT_ENERGY>  (2190) 
0

>  <NONCOV_INTER_ENERGY_QM>  (2190) 
0

>  <FF_Energy>  (2190) 
13.96

>  <QM_Energy>  (2190) 
-3.26

>  <source>  (2190) 
ACET_PRPA_29

>  <Index>  (2190) 
10335

$$$$
ACEH-pdb2nx4-A-GLH-38:PRPA-pdb2nx4-A-LEU-21
     RDKit          3D

 18 16  0  0  0  0  0  0  0  0999 V2000
   -0.0062    1.5060    0.0199 C   0  0  0  0  0  0  0  0  0  0  0  0
   -0.4581    1.8185   -0.7908 H   0  0  0  0  0  0  0  0  0  0  0  0
    0.9225    1.8122    0.0789 H   0  0  0  0  0  0  0  0  0  0  0  0
   -0.5476    1.9003    0.8799 H   0  0  0  0  0  0  0  0  0  0  0  0
    0.0000    0.0000    0.0000 C   0  0  0  0  0  0  0  0  0  0  0  0
   -1.1009   -0.5968   -0.0000 O   0  0  0  0  0  0  0  0  0  0  0  0
    1.1009   -0.5954    0.0000 O   0  0  0  0  0  0  0  0  0  0  0  0
   -0.8645   -3.1071    0.7325 C   0  0  0  0  0  0  0  0  0  0  0  0
   -0.2384   -2.3598    0.4430 H   0  0  0  0  0  0  0  0  0  0  0  0
   -1.7715   -2.9094    0.3202 H   0  0  0  0  0  0  0  0  0  0  0  0
   -0.4963   -4.0373    0.2998 H   0  0  0  0  0  0  0  0  0  0  0  0
   -1.0364   -2.9660    2.2535 C   0  0  0  0  0  0  0  0  0  0  0  0
   -0.2575   -3.3868    2.7038 H   0  0  0  0  0  0  0  0  0  0  0  0
   -1.9262   -3.4862    2.6081 H   0  0  0  0  0  0  0  0  0  0  0  0
   -1.1039   -1.4932    2.6147 C   0  0  0  0  0  0  0  0  0  0  0  0
   -1.8819   -1.0678    2.1495 H   0  0  0  0  0  0  0  0  0  0  0  0
   -1.2154   -1.3944    3.6043 H   0  0  0  0  0  0  0  0  0  0  0  0
   -0.2586   -1.0379    2.3305 H   0  0  0  0  0  0  0  0  0  0  0  0
  1  5  1  0
  5  6  2  0
  5  7  1  0
  1  2  1  0
  1  3  1  0
  1  4  1  0
  8 12  1  0
 12 15  1  0
  8  9  1  0
  8 10  1  0
  8 11  1  0
 12 13  1  0
 12 14  1  0
 15 16  1  0
 15 17  1  0
 15 18  1  0
M  CHG  1   7  -1
V    7 [O&-]
M  END
>  <PDB_ID>  (2191) 
pdb2nx4

>  <RESIDUE_NAME>  (2191) 
GLU   LEU

>  <FRAG_NAME>  (2191) 
ACET   PRPA

>  <FRAG_ATOM_NUM>  (2191) 
fragi: 7 fragj: 11

>  <atom.prop.CHAIN_ID>  (2191) 
A A A A A A A Z Z Z Z Z Z Z Z Z Z Z

>  <atom.prop.IS_HEAVY_ATOM>  (2191) 
1 0 0 0 1 1 1 1 0 0 0 1 0 0 1 0 0 0

>  <DIFUSE_FUNC_ATOM>  (2191) 
n/a

>  <FINAL_SINGLE_POINT_ENERGY>  (2191) 
0

>  <NONCOV_INTER_ENERGY_QM>  (2191) 
0

>  <FF_Energy>  (2191) 
19.26

>  <QM_Energy>  (2191) 
3.29

>  <source>  (2191) 
ACET_PRPA_29

>  <Index>  (2191) 
10347

$$$$
ACEH-pdb3haz-A-GLH-59:PRPA-pdb3haz-A-VAL-468
     RDKit          3D

 18 16  0  0  0  0  0  0  0  0999 V2000
    0.1750    1.4848    0.0160 C   0  0  0  0  0  0  0  0  0  0  0  0
    0.6944    1.7407   -0.8010 H   0  0  0  0  0  0  0  0  0  0  0  0
    0.7051    1.7217    0.8317 H   0  0  0  0  0  0  0  0  0  0  0  0
   -0.7355    2.0840    0.0284 H   0  0  0  0  0  0  0  0  0  0  0  0
    0.0000    0.0000    0.0000 C   0  0  0  0  0  0  0  0  0  0  0  0
   -1.0894   -0.5578    0.0000 O   0  0  0  0  0  0  0  0  0  0  0  0
    1.0894   -0.6082   -0.0000 O   0  0  0  0  0  0  0  0  0  0  0  0
   -1.3882   -3.5872    0.1057 C   0  0  0  0  0  0  0  0  0  0  0  0
   -1.4199   -4.0558    0.9990 H   0  0  0  0  0  0  0  0  0  0  0  0
   -1.5407   -4.3324   -0.6749 H   0  0  0  0  0  0  0  0  0  0  0  0
   -2.1736   -2.8315    0.0952 H   0  0  0  0  0  0  0  0  0  0  0  0
   -0.0012   -2.9153    0.0090 C   0  0  0  0  0  0  0  0  0  0  0  0
    0.0949   -2.3101    0.7912 H   0  0  0  0  0  0  0  0  0  0  0  0
    0.0887   -2.3481   -0.9175 H   0  0  0  0  0  0  0  0  0  0  0  0
    1.0983   -3.9611    0.1142 C   0  0  0  0  0  0  0  0  0  0  0  0
    1.1710   -4.2754    1.0606 H   0  0  0  0  0  0  0  0  0  0  0  0
    0.8800   -4.7371   -0.4782 H   0  0  0  0  0  0  0  0  0  0  0  0
    1.9694   -3.5602   -0.1703 H   0  0  0  0  0  0  0  0  0  0  0  0
  1  5  1  0
  5  6  2  0
  5  7  1  0
  1  2  1  0
  1  3  1  0
  1  4  1  0
  8 12  1  0
 12 15  1  0
  8  9  1  0
  8 10  1  0
  8 11  1  0
 12 13  1  0
 12 14  1  0
 15 16  1  0
 15 17  1  0
 15 18  1  0
M  CHG  1   7  -1
V    7 [O&-]
M  END
>  <PDB_ID>  (2192) 
pdb3haz

>  <RESIDUE_NAME>  (2192) 
GLU   VAL

>  <FRAG_NAME>  (2192) 
ACET   PRPA

>  <FRAG_ATOM_NUM>  (2192) 
fragi: 7 fragj: 11

>  <atom.prop.CHAIN_ID>  (2192) 
A A A A A A A Z Z Z Z Z Z Z Z Z Z Z

>  <atom.prop.IS_HEAVY_ATOM>  (2192) 
1 0 0 0 1 1 1 1 0 0 0 1 0 0 1 0 0 0

>  <DIFUSE_FUNC_ATOM>  (2192) 
n/a

>  <FINAL_SINGLE_POINT_ENERGY>  (2192) 
0

>  <NONCOV_INTER_ENERGY_QM>  (2192) 
0

>  <FF_Energy>  (2192) 
23.26

>  <QM_Energy>  (2192) 
7.8

>  <source>  (2192) 
ACET_PRPA_29

>  <Index>  (2192) 
10614

$$$$
ACEH-pdb3hi7-B-GLH-354:PRPA-pdb3hi7-B-VAL-374
     RDKit          3D

 18 16  0  0  0  0  0  0  0  0999 V2000
    0.0016    1.5261    0.0046 C   0  0  0  0  0  0  0  0  0  0  0  0
    0.8942    1.8207    0.2860 H   0  0  0  0  0  0  0  0  0  0  0  0
   -0.7030    1.8209    0.6224 H   0  0  0  0  0  0  0  0  0  0  0  0
   -0.2042    1.9575   -0.9750 H   0  0  0  0  0  0  0  0  0  0  0  0
    0.0000    0.0000    0.0000 C   0  0  0  0  0  0  0  0  0  0  0  0
   -1.1133   -0.5910    0.0000 O   0  0  0  0  0  0  0  0  0  0  0  0
    1.1133   -0.6041   -0.0000 O   0  0  0  0  0  0  0  0  0  0  0  0
   -1.3659   -3.7835   -0.3050 C   0  0  0  0  0  0  0  0  0  0  0  0
   -2.0162   -4.1806   -0.9480 H   0  0  0  0  0  0  0  0  0  0  0  0
   -1.9131   -3.1408    0.3847 H   0  0  0  0  0  0  0  0  0  0  0  0
   -0.9124   -4.5996    0.2576 H   0  0  0  0  0  0  0  0  0  0  0  0
   -0.3713   -3.0061   -1.2017 C   0  0  0  0  0  0  0  0  0  0  0  0
    0.2364   -2.4859   -0.6116 H   0  0  0  0  0  0  0  0  0  0  0  0
    0.2673   -3.6828   -1.7693 H   0  0  0  0  0  0  0  0  0  0  0  0
   -1.1476   -2.0642   -2.1539 C   0  0  0  0  0  0  0  0  0  0  0  0
   -2.0805   -2.4006   -2.2414 H   0  0  0  0  0  0  0  0  0  0  0  0
   -1.1448   -1.1474   -1.7652 H   0  0  0  0  0  0  0  0  0  0  0  0
   -0.6939   -2.0661   -3.0401 H   0  0  0  0  0  0  0  0  0  0  0  0
  1  5  1  0
  5  6  2  0
  5  7  1  0
  1  2  1  0
  1  3  1  0
  1  4  1  0
  8 12  1  0
 12 15  1  0
  8  9  1  0
  8 10  1  0
  8 11  1  0
 12 13  1  0
 12 14  1  0
 15 16  1  0
 15 17  1  0
 15 18  1  0
M  CHG  1   7  -1
V    7 [O&-]
M  END
>  <PDB_ID>  (2193) 
pdb3hi7

>  <RESIDUE_NAME>  (2193) 
GLU   VAL

>  <FRAG_NAME>  (2193) 
ACET   PRPA

>  <FRAG_ATOM_NUM>  (2193) 
fragi: 7 fragj: 11

>  <atom.prop.CHAIN_ID>  (2193) 
A A A A A A A Z Z Z Z Z Z Z Z Z Z Z

>  <atom.prop.IS_HEAVY_ATOM>  (2193) 
1 0 0 0 1 1 1 1 0 0 0 1 0 0 1 0 0 0

>  <DIFUSE_FUNC_ATOM>  (2193) 
n/a

>  <FINAL_SINGLE_POINT_ENERGY>  (2193) 
0

>  <NONCOV_INTER_ENERGY_QM>  (2193) 
0

>  <FF_Energy>  (2193) 
33.11

>  <QM_Energy>  (2193) 
2.54

>  <source>  (2193) 
ACET_PRPA_29

>  <Index>  (2193) 
10758

$$$$
ACEH-pdb3hi7-B-GLH-354:PRPA-pdb3hi7-B-VAL-374
     RDKit          3D

 18 16  0  0  0  0  0  0  0  0999 V2000
    0.0016    1.5261    0.0046 C   0  0  0  0  0  0  0  0  0  0  0  0
    0.8942    1.8207    0.2860 H   0  0  0  0  0  0  0  0  0  0  0  0
   -0.7030    1.8209    0.6224 H   0  0  0  0  0  0  0  0  0  0  0  0
   -0.2042    1.9575   -0.9750 H   0  0  0  0  0  0  0  0  0  0  0  0
    0.0000    0.0000    0.0000 C   0  0  0  0  0  0  0  0  0  0  0  0
   -1.1133   -0.5910    0.0000 O   0  0  0  0  0  0  0  0  0  0  0  0
    1.1133   -0.6041   -0.0000 O   0  0  0  0  0  0  0  0  0  0  0  0
    0.5453   -3.9773   -2.0164 C   0  0  0  0  0  0  0  0  0  0  0  0
   -0.0118   -4.7305   -2.3448 H   0  0  0  0  0  0  0  0  0  0  0  0
    0.9352   -3.4739   -2.7783 H   0  0  0  0  0  0  0  0  0  0  0  0
    1.2623   -4.3101   -1.4144 H   0  0  0  0  0  0  0  0  0  0  0  0
   -0.3713   -3.0061   -1.2017 C   0  0  0  0  0  0  0  0  0  0  0  0
    0.2364   -2.4859   -0.6116 H   0  0  0  0  0  0  0  0  0  0  0  0
   -1.0714   -3.5533   -0.5705 H   0  0  0  0  0  0  0  0  0  0  0  0
   -1.1476   -2.0642   -2.1539 C   0  0  0  0  0  0  0  0  0  0  0  0
   -2.0805   -2.4006   -2.2414 H   0  0  0  0  0  0  0  0  0  0  0  0
   -1.1448   -1.1474   -1.7652 H   0  0  0  0  0  0  0  0  0  0  0  0
   -0.6939   -2.0661   -3.0401 H   0  0  0  0  0  0  0  0  0  0  0  0
  1  5  1  0
  5  6  2  0
  5  7  1  0
  1  2  1  0
  1  3  1  0
  1  4  1  0
  8 12  1  0
 12 15  1  0
  8  9  1  0
  8 10  1  0
  8 11  1  0
 12 13  1  0
 12 14  1  0
 15 16  1  0
 15 17  1  0
 15 18  1  0
M  CHG  1   7  -1
V    7 [O&-]
M  END
>  <PDB_ID>  (2194) 
pdb3hi7

>  <RESIDUE_NAME>  (2194) 
GLU   VAL

>  <FRAG_NAME>  (2194) 
ACET   PRPA

>  <FRAG_ATOM_NUM>  (2194) 
fragi: 7 fragj: 11

>  <atom.prop.CHAIN_ID>  (2194) 
A A A A A A A Z Z Z Z Z Z Z Z Z Z Z

>  <atom.prop.IS_HEAVY_ATOM>  (2194) 
1 0 0 0 1 1 1 1 0 0 0 1 0 0 1 0 0 0

>  <DIFUSE_FUNC_ATOM>  (2194) 
n/a

>  <FINAL_SINGLE_POINT_ENERGY>  (2194) 
0

>  <NONCOV_INTER_ENERGY_QM>  (2194) 
0

>  <FF_Energy>  (2194) 
31.77

>  <QM_Energy>  (2194) 
3.43

>  <source>  (2194) 
ACET_PRPA_29

>  <Index>  (2194) 
10837

$$$$
ACEH-pdb1j31-C-ASH-196:PRPA-pdb1j31-C-LEU-172
     RDKit          3D

 18 16  0  0  0  0  0  0  0  0999 V2000
    0.0150    1.5085   -0.0216 C   0  0  0  0  0  0  0  0  0  0  0  0
    0.2226    1.8207   -0.9442 H   0  0  0  0  0  0  0  0  0  0  0  0
    0.7044    1.8389    0.6157 H   0  0  0  0  0  0  0  0  0  0  0  0
   -0.9363    1.9560    0.2665 H   0  0  0  0  0  0  0  0  0  0  0  0
    0.0000    0.0000    0.0000 C   0  0  0  0  0  0  0  0  0  0  0  0
   -1.0912   -0.5569    0.0000 O   0  0  0  0  0  0  0  0  0  0  0  0
    1.0912   -0.6553    0.0000 O   0  0  0  0  0  0  0  0  0  0  0  0
    0.6927   -3.4970   -0.8333 C   0  0  0  0  0  0  0  0  0  0  0  0
    1.2954   -2.8645   -0.3641 H   0  0  0  0  0  0  0  0  0  0  0  0
    1.2100   -4.1699   -1.3428 H   0  0  0  0  0  0  0  0  0  0  0  0
    0.1139   -4.0263   -0.0764 H   0  0  0  0  0  0  0  0  0  0  0  0
   -0.1322   -2.6876   -1.8402 C   0  0  0  0  0  0  0  0  0  0  0  0
   -0.7995   -2.1400   -1.3544 H   0  0  0  0  0  0  0  0  0  0  0  0
   -0.6488   -3.3712   -2.5140 H   0  0  0  0  0  0  0  0  0  0  0  0
    0.8072   -1.7469   -2.6310 C   0  0  0  0  0  0  0  0  0  0  0  0
    1.4835   -2.2983   -3.1124 H   0  0  0  0  0  0  0  0  0  0  0  0
    0.2648   -1.2239   -3.2832 H   0  0  0  0  0  0  0  0  0  0  0  0
    1.2598   -1.1320   -1.9911 H   0  0  0  0  0  0  0  0  0  0  0  0
  1  5  1  0
  5  6  2  0
  5  7  1  0
  1  2  1  0
  1  3  1  0
  1  4  1  0
  8 12  1  0
 12 15  1  0
  8  9  1  0
  8 10  1  0
  8 11  1  0
 12 13  1  0
 12 14  1  0
 15 16  1  0
 15 17  1  0
 15 18  1  0
M  CHG  1   7  -1
V    7 [O&-]
M  END
>  <PDB_ID>  (2195) 
pdb1j31

>  <RESIDUE_NAME>  (2195) 
ASP   LEU

>  <FRAG_NAME>  (2195) 
ACET   PRPA

>  <FRAG_ATOM_NUM>  (2195) 
fragi: 7 fragj: 11

>  <atom.prop.CHAIN_ID>  (2195) 
A A A A A A A Z Z Z Z Z Z Z Z Z Z Z

>  <atom.prop.IS_HEAVY_ATOM>  (2195) 
1 0 0 0 1 1 1 1 0 0 0 1 0 0 1 0 0 0

>  <DIFUSE_FUNC_ATOM>  (2195) 
n/a

>  <FINAL_SINGLE_POINT_ENERGY>  (2195) 
0

>  <NONCOV_INTER_ENERGY_QM>  (2195) 
0

>  <FF_Energy>  (2195) 
15.0

>  <QM_Energy>  (2195) 
-2.41

>  <source>  (2195) 
ACET_PRPA_29

>  <Index>  (2195) 
10882

$$$$
ACEH-pdb3haz-B-GLH-59:PRPA-pdb3haz-B-VAL-468
     RDKit          3D

 18 16  0  0  0  0  0  0  0  0999 V2000
    0.1718    1.4846    0.0150 C   0  0  0  0  0  0  0  0  0  0  0  0
    0.6906    1.7415   -0.8027 H   0  0  0  0  0  0  0  0  0  0  0  0
    0.7024    1.7233    0.8296 H   0  0  0  0  0  0  0  0  0  0  0  0
   -0.7392    2.0831    0.0270 H   0  0  0  0  0  0  0  0  0  0  0  0
    0.0000    0.0000    0.0000 C   0  0  0  0  0  0  0  0  0  0  0  0
   -1.0897   -0.5591   -0.0000 O   0  0  0  0  0  0  0  0  0  0  0  0
    1.0897   -0.6063   -0.0000 O   0  0  0  0  0  0  0  0  0  0  0  0
   -1.4616   -3.4221   -0.3146 C   0  0  0  0  0  0  0  0  0  0  0  0
   -1.4003   -3.9775    0.5259 H   0  0  0  0  0  0  0  0  0  0  0  0
   -1.7462   -4.0803   -1.1354 H   0  0  0  0  0  0  0  0  0  0  0  0
   -2.2040   -2.6419   -0.1465 H   0  0  0  0  0  0  0  0  0  0  0  0
   -0.0606   -2.7976   -0.5186 C   0  0  0  0  0  0  0  0  0  0  0  0
    0.2003   -2.3625    0.3352 H   0  0  0  0  0  0  0  0  0  0  0  0
   -0.0784   -2.0619   -1.3227 H   0  0  0  0  0  0  0  0  0  0  0  0
    0.9637   -3.8885   -0.7970 C   0  0  0  0  0  0  0  0  0  0  0  0
    0.7667   -4.6850   -0.2257 H   0  0  0  0  0  0  0  0  0  0  0  0
    0.9181   -4.1513   -1.7608 H   0  0  0  0  0  0  0  0  0  0  0  0
    1.8800   -3.5469   -0.5885 H   0  0  0  0  0  0  0  0  0  0  0  0
  1  5  1  0
  5  6  2  0
  5  7  1  0
  1  2  1  0
  1  3  1  0
  1  4  1  0
  8 12  1  0
 12 15  1  0
  8  9  1  0
  8 10  1  0
  8 11  1  0
 12 13  1  0
 12 14  1  0
 15 16  1  0
 15 17  1  0
 15 18  1  0
M  CHG  1   7  -1
V    7 [O&-]
M  END
>  <PDB_ID>  (2196) 
pdb3haz

>  <RESIDUE_NAME>  (2196) 
GLU   VAL

>  <FRAG_NAME>  (2196) 
ACET   PRPA

>  <FRAG_ATOM_NUM>  (2196) 
fragi: 7 fragj: 11

>  <atom.prop.CHAIN_ID>  (2196) 
A A A A A A A Z Z Z Z Z Z Z Z Z Z Z

>  <atom.prop.IS_HEAVY_ATOM>  (2196) 
1 0 0 0 1 1 1 1 0 0 0 1 0 0 1 0 0 0

>  <DIFUSE_FUNC_ATOM>  (2196) 
n/a

>  <FINAL_SINGLE_POINT_ENERGY>  (2196) 
0

>  <NONCOV_INTER_ENERGY_QM>  (2196) 
0

>  <FF_Energy>  (2196) 
33.86

>  <QM_Energy>  (2196) 
10.63

>  <source>  (2196) 
ACET_PRPA_29

>  <Index>  (2196) 
11357

$$$$
ACEH-pdb4lk5-C-GLH-239:PRPA-pdb4lk5-C-LEU-236
     RDKit          3D

 18 16  0  0  0  0  0  0  0  0999 V2000
   -0.0661    1.5491    0.0253 C   0  0  0  0  0  0  0  0  0  0  0  0
   -0.5176    1.8033    0.8758 H   0  0  0  0  0  0  0  0  0  0  0  0
   -0.6267    1.8245   -0.7524 H   0  0  0  0  0  0  0  0  0  0  0  0
    0.8777    2.0918   -0.0300 H   0  0  0  0  0  0  0  0  0  0  0  0
    0.0000    0.0000    0.0000 C   0  0  0  0  0  0  0  0  0  0  0  0
   -1.1164   -0.6056    0.0000 O   0  0  0  0  0  0  0  0  0  0  0  0
    1.1164   -0.6148    0.0000 O   0  0  0  0  0  0  0  0  0  0  0  0
   -2.3349    0.7292    1.9439 C   0  0  0  0  0  0  0  0  0  0  0  0
   -1.5007    0.4166    1.4653 H   0  0  0  0  0  0  0  0  0  0  0  0
   -2.0851    0.9030    2.9905 H   0  0  0  0  0  0  0  0  0  0  0  0
   -2.6942    1.6400    1.4650 H   0  0  0  0  0  0  0  0  0  0  0  0
   -3.3818   -0.3499    1.7815 C   0  0  0  0  0  0  0  0  0  0  0  0
   -4.1330   -0.1450    2.3785 H   0  0  0  0  0  0  0  0  0  0  0  0
   -3.6448   -0.3866    0.8383 H   0  0  0  0  0  0  0  0  0  0  0  0
   -2.8435   -1.7113    2.1667 C   0  0  0  0  0  0  0  0  0  0  0  0
   -2.3613   -1.6463    3.0333 H   0  0  0  0  0  0  0  0  0  0  0  0
   -3.6791   -2.4031    2.2740 H   0  0  0  0  0  0  0  0  0  0  0  0
   -2.0827   -2.0818    1.4798 H   0  0  0  0  0  0  0  0  0  0  0  0
  1  5  1  0
  5  6  2  0
  5  7  1  0
  1  2  1  0
  1  3  1  0
  1  4  1  0
  8 12  1  0
 12 15  1  0
  8  9  1  0
  8 10  1  0
  8 11  1  0
 12 13  1  0
 12 14  1  0
 15 16  1  0
 15 17  1  0
 15 18  1  0
M  CHG  1   7  -1
V    7 [O&-]
M  END
>  <PDB_ID>  (2197) 
pdb4lk5

>  <RESIDUE_NAME>  (2197) 
GLU   LEU

>  <FRAG_NAME>  (2197) 
ACET   PRPA

>  <FRAG_ATOM_NUM>  (2197) 
fragi: 7 fragj: 11

>  <atom.prop.CHAIN_ID>  (2197) 
A A A A A A A Z Z Z Z Z Z Z Z Z Z Z

>  <atom.prop.IS_HEAVY_ATOM>  (2197) 
1 0 0 0 1 1 1 1 0 0 0 1 0 0 1 0 0 0

>  <DIFUSE_FUNC_ATOM>  (2197) 
n/a

>  <FINAL_SINGLE_POINT_ENERGY>  (2197) 
0

>  <NONCOV_INTER_ENERGY_QM>  (2197) 
0

>  <FF_Energy>  (2197) 
46.35

>  <QM_Energy>  (2197) 
6.3

>  <source>  (2197) 
ACET_PRPA_29

>  <Index>  (2197) 
12609

$$$$
ACEH-pdb5nny-B-GLH-154:PRPA-pdb5nny-B-LEU-174
     RDKit          3D

 18 16  0  0  0  0  0  0  0  0999 V2000
   -0.0006    1.5151   -0.0028 C   0  0  0  0  0  0  0  0  0  0  0  0
   -0.2608    1.8113   -0.9059 H   0  0  0  0  0  0  0  0  0  0  0  0
    0.9087    1.8126    0.2322 H   0  0  0  0  0  0  0  0  0  0  0  0
   -0.7005    1.9461    0.7131 H   0  0  0  0  0  0  0  0  0  0  0  0
    0.0000    0.0000    0.0000 C   0  0  0  0  0  0  0  0  0  0  0  0
   -1.0994   -0.6007   -0.0000 O   0  0  0  0  0  0  0  0  0  0  0  0
    1.0994   -0.5904    0.0000 O   0  0  0  0  0  0  0  0  0  0  0  0
   -1.1766   -3.5397   -2.1733 C   0  0  0  0  0  0  0  0  0  0  0  0
   -1.6703   -3.3855   -1.3237 H   0  0  0  0  0  0  0  0  0  0  0  0
   -0.7581   -4.4405   -2.1736 H   0  0  0  0  0  0  0  0  0  0  0  0
   -1.8939   -3.4995   -2.9930 H   0  0  0  0  0  0  0  0  0  0  0  0
   -0.0457   -2.5119   -2.2354 C   0  0  0  0  0  0  0  0  0  0  0  0
   -0.4338   -1.5960   -2.2204 H   0  0  0  0  0  0  0  0  0  0  0  0
    0.5087   -2.6622   -3.1618 H   0  0  0  0  0  0  0  0  0  0  0  0
    0.8836   -2.6838   -1.0253 C   0  0  0  0  0  0  0  0  0  0  0  0
    1.2707   -3.6033   -1.0377 H   0  0  0  0  0  0  0  0  0  0  0  0
    1.6161   -2.0074   -1.0767 H   0  0  0  0  0  0  0  0  0  0  0  0
    0.3585   -2.5483   -0.1877 H   0  0  0  0  0  0  0  0  0  0  0  0
  1  5  1  0
  5  6  2  0
  5  7  1  0
  1  2  1  0
  1  3  1  0
  1  4  1  0
  8 12  1  0
 12 15  1  0
  8  9  1  0
  8 10  1  0
  8 11  1  0
 12 13  1  0
 12 14  1  0
 15 16  1  0
 15 17  1  0
 15 18  1  0
M  CHG  1   7  -1
V    7 [O&-]
M  END
>  <PDB_ID>  (2198) 
pdb5nny

>  <RESIDUE_NAME>  (2198) 
GLU   LEU

>  <FRAG_NAME>  (2198) 
ACET   PRPA

>  <FRAG_ATOM_NUM>  (2198) 
fragi: 7 fragj: 11

>  <atom.prop.CHAIN_ID>  (2198) 
A A A A A A A Z Z Z Z Z Z Z Z Z Z Z

>  <atom.prop.IS_HEAVY_ATOM>  (2198) 
1 0 0 0 1 1 1 1 0 0 0 1 0 0 1 0 0 0

>  <DIFUSE_FUNC_ATOM>  (2198) 
n/a

>  <FINAL_SINGLE_POINT_ENERGY>  (2198) 
0

>  <NONCOV_INTER_ENERGY_QM>  (2198) 
0

>  <FF_Energy>  (2198) 
49.45

>  <QM_Energy>  (2198) 
11.39

>  <source>  (2198) 
ACET_PRPA_29

>  <Index>  (2198) 
12771

$$$$
ACEH-pdb5nny-B-GLH-154:PRPA-pdb5nny-B-LEU-174
     RDKit          3D

 18 16  0  0  0  0  0  0  0  0999 V2000
   -0.0006    1.5151   -0.0028 C   0  0  0  0  0  0  0  0  0  0  0  0
   -0.2608    1.8113   -0.9059 H   0  0  0  0  0  0  0  0  0  0  0  0
    0.9087    1.8126    0.2322 H   0  0  0  0  0  0  0  0  0  0  0  0
   -0.7005    1.9461    0.7131 H   0  0  0  0  0  0  0  0  0  0  0  0
    0.0000    0.0000    0.0000 C   0  0  0  0  0  0  0  0  0  0  0  0
   -1.0994   -0.6007   -0.0000 O   0  0  0  0  0  0  0  0  0  0  0  0
    1.0994   -0.5904    0.0000 O   0  0  0  0  0  0  0  0  0  0  0  0
    0.8836   -2.6838   -1.0253 C   0  0  0  0  0  0  0  0  0  0  0  0
    1.2707   -3.6033   -1.0377 H   0  0  0  0  0  0  0  0  0  0  0  0
    1.6161   -2.0074   -1.0767 H   0  0  0  0  0  0  0  0  0  0  0  0
    0.3585   -2.5483   -0.1877 H   0  0  0  0  0  0  0  0  0  0  0  0
   -0.0457   -2.5119   -2.2354 C   0  0  0  0  0  0  0  0  0  0  0  0
   -0.4338   -1.5960   -2.2204 H   0  0  0  0  0  0  0  0  0  0  0  0
   -0.8517   -3.2444   -2.1911 H   0  0  0  0  0  0  0  0  0  0  0  0
    0.7274   -2.7213   -3.5271 C   0  0  0  0  0  0  0  0  0  0  0  0
    0.1139   -2.6011   -4.3089 H   0  0  0  0  0  0  0  0  0  0  0  0
    1.4722   -2.0559   -3.5834 H   0  0  0  0  0  0  0  0  0  0  0  0
    1.1084   -3.6478   -3.5438 H   0  0  0  0  0  0  0  0  0  0  0  0
  1  5  1  0
  5  6  2  0
  5  7  1  0
  1  2  1  0
  1  3  1  0
  1  4  1  0
  8 12  1  0
 12 15  1  0
  8  9  1  0
  8 10  1  0
  8 11  1  0
 12 13  1  0
 12 14  1  0
 15 16  1  0
 15 17  1  0
 15 18  1  0
M  CHG  1   7  -1
V    7 [O&-]
M  END
>  <PDB_ID>  (2199) 
pdb5nny

>  <RESIDUE_NAME>  (2199) 
GLU   LEU

>  <FRAG_NAME>  (2199) 
ACET   PRPA

>  <FRAG_ATOM_NUM>  (2199) 
fragi: 7 fragj: 11

>  <atom.prop.CHAIN_ID>  (2199) 
A A A A A A A Z Z Z Z Z Z Z Z Z Z Z

>  <atom.prop.IS_HEAVY_ATOM>  (2199) 
1 0 0 0 1 1 1 1 0 0 0 1 0 0 1 0 0 0

>  <DIFUSE_FUNC_ATOM>  (2199) 
n/a

>  <FINAL_SINGLE_POINT_ENERGY>  (2199) 
0

>  <NONCOV_INTER_ENERGY_QM>  (2199) 
0

>  <FF_Energy>  (2199) 
49.03

>  <QM_Energy>  (2199) 
12.67

>  <source>  (2199) 
ACET_PRPA_29

>  <Index>  (2199) 
12859

$$$$
ACEH-pdb2j91-C-ASH-182:PRPA-pdb2j91-C-LEU-179
     RDKit          3D

 18 16  0  0  0  0  0  0  0  0999 V2000
   -0.0012    1.4876   -0.0072 C   0  0  0  0  0  0  0  0  0  0  0  0
   -0.9204    1.8189    0.1858 H   0  0  0  0  0  0  0  0  0  0  0  0
    0.2989    1.8156   -0.8979 H   0  0  0  0  0  0  0  0  0  0  0  0
    0.6675    1.9080    0.7439 H   0  0  0  0  0  0  0  0  0  0  0  0
    0.0000    0.0000    0.0000 C   0  0  0  0  0  0  0  0  0  0  0  0
   -1.1059   -0.5644    0.0000 O   0  0  0  0  0  0  0  0  0  0  0  0
    1.1059   -0.6146   -0.0000 O   0  0  0  0  0  0  0  0  0  0  0  0
   -3.0510   -0.6096    1.8143 C   0  0  0  0  0  0  0  0  0  0  0  0
   -2.5510   -0.4858    0.9482 H   0  0  0  0  0  0  0  0  0  0  0  0
   -2.7601   -1.5622    2.2569 H   0  0  0  0  0  0  0  0  0  0  0  0
   -2.8067    0.2326    2.4618 H   0  0  0  0  0  0  0  0  0  0  0  0
   -4.5338   -0.6160    1.4536 C   0  0  0  0  0  0  0  0  0  0  0  0
   -5.0486   -0.9173    2.2548 H   0  0  0  0  0  0  0  0  0  0  0  0
   -4.8000    0.3143    1.2109 H   0  0  0  0  0  0  0  0  0  0  0  0
   -4.9671   -1.5257    0.2788 C   0  0  0  0  0  0  0  0  0  0  0  0
   -4.6766   -2.4570    0.4729 H   0  0  0  0  0  0  0  0  0  0  0  0
   -6.0508   -1.4986    0.1648 H   0  0  0  0  0  0  0  0  0  0  0  0
   -4.4807   -1.2240   -0.6488 H   0  0  0  0  0  0  0  0  0  0  0  0
  1  5  1  0
  5  6  2  0
  5  7  1  0
  1  2  1  0
  1  3  1  0
  1  4  1  0
  8 12  1  0
 12 15  1  0
  8  9  1  0
  8 10  1  0
  8 11  1  0
 12 13  1  0
 12 14  1  0
 15 16  1  0
 15 17  1  0
 15 18  1  0
M  CHG  1   7  -1
V    7 [O&-]
M  END
>  <PDB_ID>  (2200) 
pdb2j91

>  <RESIDUE_NAME>  (2200) 
ASP   LEU

>  <FRAG_NAME>  (2200) 
ACET   PRPA

>  <FRAG_ATOM_NUM>  (2200) 
fragi: 7 fragj: 11

>  <atom.prop.CHAIN_ID>  (2200) 
A A A A A A A Z Z Z Z Z Z Z Z Z Z Z

>  <atom.prop.IS_HEAVY_ATOM>  (2200) 
1 0 0 0 1 1 1 1 0 0 0 1 0 0 1 0 0 0

>  <DIFUSE_FUNC_ATOM>  (2200) 
n/a

>  <FINAL_SINGLE_POINT_ENERGY>  (2200) 
0

>  <NONCOV_INTER_ENERGY_QM>  (2200) 
0

>  <FF_Energy>  (2200) 
46.36

>  <QM_Energy>  (2200) 
3.7

>  <source>  (2200) 
ACET_PRPA_29

>  <Index>  (2200) 
12983

$$$$
ACEH-pdb1jpl-B-GLH-5:PRPA-pdb1jpl-B-GLU-39
     RDKit          3D

 18 16  0  0  0  0  0  0  0  0999 V2000
    0.0010    1.5358   -0.0289 C   0  0  0  0  0  0  0  0  0  0  0  0
   -0.2024    1.8079   -0.9505 H   0  0  0  0  0  0  0  0  0  0  0  0
    0.8928    1.8284    0.2591 H   0  0  0  0  0  0  0  0  0  0  0  0
   -0.7426    1.9764    0.6352 H   0  0  0  0  0  0  0  0  0  0  0  0
    0.0000    0.0000    0.0000 C   0  0  0  0  0  0  0  0  0  0  0  0
   -1.0975   -0.6064   -0.0000 O   0  0  0  0  0  0  0  0  0  0  0  0
    1.0975   -0.6047    0.0000 O   0  0  0  0  0  0  0  0  0  0  0  0
    0.4051   -1.4812   -4.8266 C   0  0  0  0  0  0  0  0  0  0  0  0
   -0.6132   -1.3415   -4.7427 H   0  0  0  0  0  0  0  0  0  0  0  0
    0.5989   -2.5028   -5.1536 H   0  0  0  0  0  0  0  0  0  0  0  0
    0.8179   -0.6871   -5.4487 H   0  0  0  0  0  0  0  0  0  0  0  0
    0.8771   -1.2749   -3.3939 C   0  0  0  0  0  0  0  0  0  0  0  0
    0.6434   -2.0705   -2.8877 H   0  0  0  0  0  0  0  0  0  0  0  0
    1.8281   -1.0810   -3.4201 H   0  0  0  0  0  0  0  0  0  0  0  0
    0.1716   -0.1024   -2.7839 C   0  0  0  0  0  0  0  0  0  0  0  0
    0.5646    0.0852   -1.9054 H   0  0  0  0  0  0  0  0  0  0  0  0
    0.2303    0.6612   -3.3965 H   0  0  0  0  0  0  0  0  0  0  0  0
   -0.8872   -0.3068   -2.6253 H   0  0  0  0  0  0  0  0  0  0  0  0
  1  5  1  0
  5  6  2  0
  5  7  1  0
  1  2  1  0
  1  3  1  0
  1  4  1  0
  8 12  1  0
 12 15  1  0
  8  9  1  0
  8 10  1  0
  8 11  1  0
 12 13  1  0
 12 14  1  0
 15 16  1  0
 15 17  1  0
 15 18  1  0
M  CHG  1   7  -1
V    7 [O&-]
M  END
>  <PDB_ID>  (2201) 
pdb1jpl

>  <RESIDUE_NAME>  (2201) 
GLU   GLU

>  <FRAG_NAME>  (2201) 
ACET   PRPA

>  <FRAG_ATOM_NUM>  (2201) 
fragi: 7 fragj: 11

>  <atom.prop.CHAIN_ID>  (2201) 
A A A A A A A Z Z Z Z Z Z Z Z Z Z Z

>  <atom.prop.IS_HEAVY_ATOM>  (2201) 
1 0 0 0 1 1 1 1 0 0 0 1 0 0 1 0 0 0

>  <DIFUSE_FUNC_ATOM>  (2201) 
n/a

>  <FINAL_SINGLE_POINT_ENERGY>  (2201) 
0

>  <NONCOV_INTER_ENERGY_QM>  (2201) 
0

>  <FF_Energy>  (2201) 
30.4

>  <QM_Energy>  (2201) 
2.31

>  <source>  (2201) 
ACET_PRPA_29

>  <Index>  (2201) 
13195

$$$$
ACEH-pdb3hrx-B-GLH-223:PRPA-pdb3hrx-B-LEU-207
     RDKit          3D

 18 16  0  0  0  0  0  0  0  0999 V2000
   -0.0098    1.5288   -0.0121 C   0  0  0  0  0  0  0  0  0  0  0  0
   -0.5803    1.8249    0.7291 H   0  0  0  0  0  0  0  0  0  0  0  0
   -0.3503    1.8133   -0.8875 H   0  0  0  0  0  0  0  0  0  0  0  0
    0.9815    1.9602    0.1269 H   0  0  0  0  0  0  0  0  0  0  0  0
    0.0000    0.0000    0.0000 C   0  0  0  0  0  0  0  0  0  0  0  0
   -1.0961   -0.6014    0.0000 O   0  0  0  0  0  0  0  0  0  0  0  0
    1.0961   -0.5989   -0.0000 O   0  0  0  0  0  0  0  0  0  0  0  0
    0.0749   -3.7651   -2.3788 C   0  0  0  0  0  0  0  0  0  0  0  0
   -0.7919   -3.8979   -2.8521 H   0  0  0  0  0  0  0  0  0  0  0  0
   -0.0766   -3.6991   -1.3970 H   0  0  0  0  0  0  0  0  0  0  0  0
    0.6917   -4.6448   -2.5624 H   0  0  0  0  0  0  0  0  0  0  0  0
    0.6484   -2.4234   -2.8447 C   0  0  0  0  0  0  0  0  0  0  0  0
    0.9732   -2.5161   -3.7823 H   0  0  0  0  0  0  0  0  0  0  0  0
   -0.1226   -1.6539   -2.8055 H   0  0  0  0  0  0  0  0  0  0  0  0
    1.8277   -2.0391   -1.9593 C   0  0  0  0  0  0  0  0  0  0  0  0
    2.5352   -2.7434   -2.0222 H   0  0  0  0  0  0  0  0  0  0  0  0
    2.2020   -1.1626   -2.2642 H   0  0  0  0  0  0  0  0  0  0  0  0
    1.5198   -1.9586   -1.0110 H   0  0  0  0  0  0  0  0  0  0  0  0
  1  5  1  0
  5  6  2  0
  5  7  1  0
  1  2  1  0
  1  3  1  0
  1  4  1  0
  8 12  1  0
 12 15  1  0
  8  9  1  0
  8 10  1  0
  8 11  1  0
 12 13  1  0
 12 14  1  0
 15 16  1  0
 15 17  1  0
 15 18  1  0
M  CHG  1   7  -1
V    7 [O&-]
M  END
>  <PDB_ID>  (2202) 
pdb3hrx

>  <RESIDUE_NAME>  (2202) 
GLU   LEU

>  <FRAG_NAME>  (2202) 
ACET   PRPA

>  <FRAG_ATOM_NUM>  (2202) 
fragi: 7 fragj: 11

>  <atom.prop.CHAIN_ID>  (2202) 
A A A A A A A Z Z Z Z Z Z Z Z Z Z Z

>  <atom.prop.IS_HEAVY_ATOM>  (2202) 
1 0 0 0 1 1 1 1 0 0 0 1 0 0 1 0 0 0

>  <DIFUSE_FUNC_ATOM>  (2202) 
n/a

>  <FINAL_SINGLE_POINT_ENERGY>  (2202) 
0

>  <NONCOV_INTER_ENERGY_QM>  (2202) 
0

>  <FF_Energy>  (2202) 
45.94

>  <QM_Energy>  (2202) 
4.55

>  <source>  (2202) 
ACET_PRPA_29

>  <Index>  (2202) 
14244

$$$$
ACEH-pdb2j91-C-ASH-182:PRPA-pdb2j91-D-LYS-246
     RDKit          3D

 18 16  0  0  0  0  0  0  0  0999 V2000
   -0.0012    1.4876   -0.0072 C   0  0  0  0  0  0  0  0  0  0  0  0
   -0.9204    1.8189    0.1858 H   0  0  0  0  0  0  0  0  0  0  0  0
    0.2989    1.8156   -0.8979 H   0  0  0  0  0  0  0  0  0  0  0  0
    0.6675    1.9080    0.7439 H   0  0  0  0  0  0  0  0  0  0  0  0
    0.0000    0.0000    0.0000 C   0  0  0  0  0  0  0  0  0  0  0  0
   -1.1059   -0.5644    0.0000 O   0  0  0  0  0  0  0  0  0  0  0  0
    1.1059   -0.6146   -0.0000 O   0  0  0  0  0  0  0  0  0  0  0  0
    3.8522   -4.3401    1.3879 C   0  0  0  0  0  0  0  0  0  0  0  0
    4.6596   -3.9004    1.7696 H   0  0  0  0  0  0  0  0  0  0  0  0
    3.9251   -4.3975    0.3974 H   0  0  0  0  0  0  0  0  0  0  0  0
    3.7796   -5.3495    1.7927 H   0  0  0  0  0  0  0  0  0  0  0  0
    2.6155   -3.5090    1.7495 C   0  0  0  0  0  0  0  0  0  0  0  0
    1.8030   -4.0308    1.4946 H   0  0  0  0  0  0  0  0  0  0  0  0
    2.6203   -3.3517    2.7348 H   0  0  0  0  0  0  0  0  0  0  0  0
    2.5925   -2.1814    1.0387 C   0  0  0  0  0  0  0  0  0  0  0  0
    1.7880   -1.6532    1.3315 H   0  0  0  0  0  0  0  0  0  0  0  0
    3.4196   -1.6571    1.2719 H   0  0  0  0  0  0  0  0  0  0  0  0
    2.5523   -2.2833   -0.0458 H   0  0  0  0  0  0  0  0  0  0  0  0
  1  5  1  0
  5  6  2  0
  5  7  1  0
  1  2  1  0
  1  3  1  0
  1  4  1  0
  8 12  1  0
 12 15  1  0
  8  9  1  0
  8 10  1  0
  8 11  1  0
 12 13  1  0
 12 14  1  0
 15 16  1  0
 15 17  1  0
 15 18  1  0
M  CHG  1   7  -1
V    7 [O&-]
M  END
>  <PDB_ID>  (2203) 
pdb2j91

>  <RESIDUE_NAME>  (2203) 
ASP   LYS

>  <FRAG_NAME>  (2203) 
ACET   PRPA

>  <FRAG_ATOM_NUM>  (2203) 
fragi: 7 fragj: 11

>  <atom.prop.CHAIN_ID>  (2203) 
A A A A A A A Z Z Z Z Z Z Z Z Z Z Z

>  <atom.prop.IS_HEAVY_ATOM>  (2203) 
1 0 0 0 1 1 1 1 0 0 0 1 0 0 1 0 0 0

>  <DIFUSE_FUNC_ATOM>  (2203) 
n/a

>  <FINAL_SINGLE_POINT_ENERGY>  (2203) 
0

>  <NONCOV_INTER_ENERGY_QM>  (2203) 
0

>  <FF_Energy>  (2203) 
41.07

>  <QM_Energy>  (2203) 
9.76

>  <source>  (2203) 
ACET_PRPA_29

>  <Index>  (2203) 
14354

$$$$
ACEH-pdb6k3h-L-GLH-28:PRPA-pdb6k3h-K-VAL-20
     RDKit          3D

 18 16  0  0  0  0  0  0  0  0999 V2000
   -0.0046    1.5341    0.0021 C   0  0  0  0  0  0  0  0  0  0  0  0
    0.5367    1.8265   -0.7567 H   0  0  0  0  0  0  0  0  0  0  0  0
    0.3497    1.8230    0.8648 H   0  0  0  0  0  0  0  0  0  0  0  0
   -1.0118    1.9342   -0.1140 H   0  0  0  0  0  0  0  0  0  0  0  0
    0.0000    0.0000    0.0000 C   0  0  0  0  0  0  0  0  0  0  0  0
   -1.1094   -0.6053    0.0000 O   0  0  0  0  0  0  0  0  0  0  0  0
    1.1094   -0.6009    0.0000 O   0  0  0  0  0  0  0  0  0  0  0  0
    0.5633   -4.1978    1.2398 C   0  0  0  0  0  0  0  0  0  0  0  0
    0.9711   -5.1142    1.2435 H   0  0  0  0  0  0  0  0  0  0  0  0
    0.7198   -3.7681    0.2503 H   0  0  0  0  0  0  0  0  0  0  0  0
   -0.5020   -4.2979    1.4475 H   0  0  0  0  0  0  0  0  0  0  0  0
    1.3086   -3.4469    2.3790 C   0  0  0  0  0  0  0  0  0  0  0  0
    2.2915   -3.6764    2.2693 H   0  0  0  0  0  0  0  0  0  0  0  0
    0.9311   -3.7519    3.3549 H   0  0  0  0  0  0  0  0  0  0  0  0
    1.1599   -2.0014    2.3398 C   0  0  0  0  0  0  0  0  0  0  0  0
    2.0594   -1.5384    2.3547 H   0  0  0  0  0  0  0  0  0  0  0  0
    0.6773   -1.7032    1.5016 H   0  0  0  0  0  0  0  0  0  0  0  0
    0.6300   -1.6645    3.1325 H   0  0  0  0  0  0  0  0  0  0  0  0
  1  5  1  0
  5  6  2  0
  5  7  1  0
  1  2  1  0
  1  3  1  0
  1  4  1  0
  8 12  1  0
 12 15  1  0
  8  9  1  0
  8 10  1  0
  8 11  1  0
 12 13  1  0
 12 14  1  0
 15 16  1  0
 15 17  1  0
 15 18  1  0
M  CHG  1   7  -1
V    7 [O&-]
M  END
>  <PDB_ID>  (2204) 
pdb6k3h

>  <RESIDUE_NAME>  (2204) 
GLU   VAL

>  <FRAG_NAME>  (2204) 
ACET   PRPA

>  <FRAG_ATOM_NUM>  (2204) 
fragi: 7 fragj: 11

>  <atom.prop.CHAIN_ID>  (2204) 
A A A A A A A Z Z Z Z Z Z Z Z Z Z Z

>  <atom.prop.IS_HEAVY_ATOM>  (2204) 
1 0 0 0 1 1 1 1 0 0 0 1 0 0 1 0 0 0

>  <DIFUSE_FUNC_ATOM>  (2204) 
n/a

>  <FINAL_SINGLE_POINT_ENERGY>  (2204) 
0

>  <NONCOV_INTER_ENERGY_QM>  (2204) 
0

>  <FF_Energy>  (2204) 
16.69

>  <QM_Energy>  (2204) 
1.09

>  <source>  (2204) 
ACET_PRPA_29

>  <Index>  (2204) 
14444

$$$$
ACEH-pdb6r4v-D-GLH-206:PRPA-pdb6r4v-D-LYS-202
     RDKit          3D

 18 16  0  0  0  0  0  0  0  0999 V2000
    0.1712    1.4836    0.0150 C   0  0  0  0  0  0  0  0  0  0  0  0
   -0.4115    1.8529    0.7405 H   0  0  0  0  0  0  0  0  0  0  0  0
   -0.1417    1.8367   -0.8698 H   0  0  0  0  0  0  0  0  0  0  0  0
    1.1812    1.8580    0.1815 H   0  0  0  0  0  0  0  0  0  0  0  0
    0.0000    0.0000    0.0000 C   0  0  0  0  0  0  0  0  0  0  0  0
   -1.0895   -0.5598   -0.0000 O   0  0  0  0  0  0  0  0  0  0  0  0
    1.0895   -0.6070   -0.0000 O   0  0  0  0  0  0  0  0  0  0  0  0
    2.0129    1.3639   -3.6830 C   0  0  0  0  0  0  0  0  0  0  0  0
    2.6003    0.5596   -3.5879 H   0  0  0  0  0  0  0  0  0  0  0  0
    2.0291    1.8890   -2.8307 H   0  0  0  0  0  0  0  0  0  0  0  0
    2.4227    1.9915   -4.4744 H   0  0  0  0  0  0  0  0  0  0  0  0
    0.5868    0.8873   -3.9245 C   0  0  0  0  0  0  0  0  0  0  0  0
    0.0206    1.6731   -4.1772 H   0  0  0  0  0  0  0  0  0  0  0  0
    0.5876    0.2259   -4.6750 H   0  0  0  0  0  0  0  0  0  0  0  0
   -0.0022    0.2321   -2.6893 C   0  0  0  0  0  0  0  0  0  0  0  0
    0.4611    0.5977   -1.8801 H   0  0  0  0  0  0  0  0  0  0  0  0
   -0.9774    0.4545   -2.6407 H   0  0  0  0  0  0  0  0  0  0  0  0
    0.1080   -0.8523   -2.6955 H   0  0  0  0  0  0  0  0  0  0  0  0
  1  5  1  0
  5  6  2  0
  5  7  1  0
  1  2  1  0
  1  3  1  0
  1  4  1  0
  8 12  1  0
 12 15  1  0
  8  9  1  0
  8 10  1  0
  8 11  1  0
 12 13  1  0
 12 14  1  0
 15 16  1  0
 15 17  1  0
 15 18  1  0
M  CHG  1   7  -1
V    7 [O&-]
M  END
>  <PDB_ID>  (2205) 
pdb6r4v

>  <RESIDUE_NAME>  (2205) 
GLU   LYS

>  <FRAG_NAME>  (2205) 
ACET   PRPA

>  <FRAG_ATOM_NUM>  (2205) 
fragi: 7 fragj: 11

>  <atom.prop.CHAIN_ID>  (2205) 
A A A A A A A Z Z Z Z Z Z Z Z Z Z Z

>  <atom.prop.IS_HEAVY_ATOM>  (2205) 
1 0 0 0 1 1 1 1 0 0 0 1 0 0 1 0 0 0

>  <DIFUSE_FUNC_ATOM>  (2205) 
n/a

>  <FINAL_SINGLE_POINT_ENERGY>  (2205) 
0

>  <NONCOV_INTER_ENERGY_QM>  (2205) 
0

>  <FF_Energy>  (2205) 
42.73

>  <QM_Energy>  (2205) 
7.15

>  <source>  (2205) 
ACET_PRPA_29

>  <Index>  (2205) 
14454

$$$$
ACEH-pdb3hrx-C-GLH-223:PRPA-pdb3hrx-C-LEU-220
     RDKit          3D

 18 16  0  0  0  0  0  0  0  0999 V2000
    0.0053    1.5261    0.0095 C   0  0  0  0  0  0  0  0  0  0  0  0
    0.6214    1.8237   -0.6949 H   0  0  0  0  0  0  0  0  0  0  0  0
    0.2889    1.8149    0.9040 H   0  0  0  0  0  0  0  0  0  0  0  0
   -0.9756    1.9557   -0.1937 H   0  0  0  0  0  0  0  0  0  0  0  0
    0.0000    0.0000    0.0000 C   0  0  0  0  0  0  0  0  0  0  0  0
   -1.0966   -0.5952    0.0000 O   0  0  0  0  0  0  0  0  0  0  0  0
    1.0966   -0.6075    0.0000 O   0  0  0  0  0  0  0  0  0  0  0  0
    2.3211    1.2503    1.8265 C   0  0  0  0  0  0  0  0  0  0  0  0
    1.4846    0.8202    1.4738 H   0  0  0  0  0  0  0  0  0  0  0  0
    3.1021    1.1651    1.0709 H   0  0  0  0  0  0  0  0  0  0  0  0
    2.1047    2.2974    2.0382 H   0  0  0  0  0  0  0  0  0  0  0  0
    2.7466    0.5355    3.1161 C   0  0  0  0  0  0  0  0  0  0  0  0
    3.6514    0.8703    3.3646 H   0  0  0  0  0  0  0  0  0  0  0  0
    2.0875    0.7674    3.8249 H   0  0  0  0  0  0  0  0  0  0  0  0
    2.8284   -0.9934    3.0501 C   0  0  0  0  0  0  0  0  0  0  0  0
    3.4149   -1.2529    2.2895 H   0  0  0  0  0  0  0  0  0  0  0  0
    3.2466   -1.3765    3.9809 H   0  0  0  0  0  0  0  0  0  0  0  0
    1.8363   -1.4099    2.8757 H   0  0  0  0  0  0  0  0  0  0  0  0
  1  5  1  0
  5  6  2  0
  5  7  1  0
  1  2  1  0
  1  3  1  0
  1  4  1  0
  8 12  1  0
 12 15  1  0
  8  9  1  0
  8 10  1  0
  8 11  1  0
 12 13  1  0
 12 14  1  0
 15 16  1  0
 15 17  1  0
 15 18  1  0
M  CHG  1   7  -1
V    7 [O&-]
M  END
>  <PDB_ID>  (2206) 
pdb3hrx

>  <RESIDUE_NAME>  (2206) 
GLU   LEU

>  <FRAG_NAME>  (2206) 
ACET   PRPA

>  <FRAG_ATOM_NUM>  (2206) 
fragi: 7 fragj: 11

>  <atom.prop.CHAIN_ID>  (2206) 
A A A A A A A Z Z Z Z Z Z Z Z Z Z Z

>  <atom.prop.IS_HEAVY_ATOM>  (2206) 
1 0 0 0 1 1 1 1 0 0 0 1 0 0 1 0 0 0

>  <DIFUSE_FUNC_ATOM>  (2206) 
n/a

>  <FINAL_SINGLE_POINT_ENERGY>  (2206) 
0

>  <NONCOV_INTER_ENERGY_QM>  (2206) 
0

>  <FF_Energy>  (2206) 
28.46

>  <QM_Energy>  (2206) 
6.03

>  <source>  (2206) 
ACET_PRPA_29

>  <Index>  (2206) 
14459

$$$$
ACEH-pdb1k3r-B-GLH-247:PRPA-pdb1k3r-B-LYS-27
     RDKit          3D

 18 16  0  0  0  0  0  0  0  0999 V2000
   -0.0257    1.5230    0.0182 C   0  0  0  0  0  0  0  0  0  0  0  0
    0.4242    1.8140    0.8498 H   0  0  0  0  0  0  0  0  0  0  0  0
   -0.9760    1.8001    0.0098 H   0  0  0  0  0  0  0  0  0  0  0  0
    0.4778    1.9920   -0.8272 H   0  0  0  0  0  0  0  0  0  0  0  0
    0.0000    0.0000    0.0000 C   0  0  0  0  0  0  0  0  0  0  0  0
   -1.0900   -0.6148   -0.0000 O   0  0  0  0  0  0  0  0  0  0  0  0
    1.0900   -0.5952   -0.0000 O   0  0  0  0  0  0  0  0  0  0  0  0
   -0.8982   -2.5319   -3.6168 C   0  0  0  0  0  0  0  0  0  0  0  0
   -1.4646   -3.3242   -3.3986 H   0  0  0  0  0  0  0  0  0  0  0  0
   -0.1358   -2.8129   -4.1971 H   0  0  0  0  0  0  0  0  0  0  0  0
   -1.5078   -1.8231   -4.1773 H   0  0  0  0  0  0  0  0  0  0  0  0
   -0.3406   -1.9707   -2.3286 C   0  0  0  0  0  0  0  0  0  0  0  0
    0.1906   -1.1391   -2.5232 H   0  0  0  0  0  0  0  0  0  0  0  0
   -1.0946   -1.7297   -1.7083 H   0  0  0  0  0  0  0  0  0  0  0  0
    0.5925   -2.9612   -1.5758 C   0  0  0  0  0  0  0  0  0  0  0  0
    1.2407   -3.3294   -2.2375 H   0  0  0  0  0  0  0  0  0  0  0  0
    1.0761   -2.4482   -0.8718 H   0  0  0  0  0  0  0  0  0  0  0  0
    0.0416   -3.7802   -1.1132 H   0  0  0  0  0  0  0  0  0  0  0  0
  1  5  1  0
  5  6  2  0
  5  7  1  0
  1  2  1  0
  1  3  1  0
  1  4  1  0
  8 12  1  0
 12 15  1  0
  8  9  1  0
  8 10  1  0
  8 11  1  0
 12 13  1  0
 12 14  1  0
 15 16  1  0
 15 17  1  0
 15 18  1  0
M  CHG  1   7  -1
V    7 [O&-]
M  END
>  <PDB_ID>  (2207) 
pdb1k3r

>  <RESIDUE_NAME>  (2207) 
GLU   LYS

>  <FRAG_NAME>  (2207) 
ACET   PRPA

>  <FRAG_ATOM_NUM>  (2207) 
fragi: 7 fragj: 11

>  <atom.prop.CHAIN_ID>  (2207) 
A A A A A A A Z Z Z Z Z Z Z Z Z Z Z

>  <atom.prop.IS_HEAVY_ATOM>  (2207) 
1 0 0 0 1 1 1 1 0 0 0 1 0 0 1 0 0 0

>  <DIFUSE_FUNC_ATOM>  (2207) 
n/a

>  <FINAL_SINGLE_POINT_ENERGY>  (2207) 
0

>  <NONCOV_INTER_ENERGY_QM>  (2207) 
0

>  <FF_Energy>  (2207) 
14.94

>  <QM_Energy>  (2207) 
-0.42

>  <source>  (2207) 
ACET_PRPA_29

>  <Index>  (2207) 
14789

$$$$
ACEH-pdb3hrx-F-GLH-223:PRPA-pdb3hrx-F-LEU-220
     RDKit          3D

 18 16  0  0  0  0  0  0  0  0999 V2000
   -0.0032    1.5216   -0.0068 C   0  0  0  0  0  0  0  0  0  0  0  0
   -0.6172    1.8200    0.6984 H   0  0  0  0  0  0  0  0  0  0  0  0
   -0.2881    1.8134   -0.9006 H   0  0  0  0  0  0  0  0  0  0  0  0
    0.9797    1.9474    0.1946 H   0  0  0  0  0  0  0  0  0  0  0  0
    0.0000    0.0000    0.0000 C   0  0  0  0  0  0  0  0  0  0  0  0
   -1.0981   -0.5966    0.0000 O   0  0  0  0  0  0  0  0  0  0  0  0
    1.0981   -0.6016   -0.0000 O   0  0  0  0  0  0  0  0  0  0  0  0
   -2.6968    1.7373   -0.9743 C   0  0  0  0  0  0  0  0  0  0  0  0
   -1.7629    1.4595   -1.2020 H   0  0  0  0  0  0  0  0  0  0  0  0
   -3.1303    0.9914   -0.3081 H   0  0  0  0  0  0  0  0  0  0  0  0
   -2.6563    2.7006   -0.4660 H   0  0  0  0  0  0  0  0  0  0  0  0
   -3.5335    1.8635   -2.2518 C   0  0  0  0  0  0  0  0  0  0  0  0
   -4.4749    2.0398   -1.9826 H   0  0  0  0  0  0  0  0  0  0  0  0
   -3.1739    2.6257   -2.7782 H   0  0  0  0  0  0  0  0  0  0  0  0
   -3.5410    0.6373   -3.1663 C   0  0  0  0  0  0  0  0  0  0  0  0
   -3.8529   -0.1542   -2.6451 H   0  0  0  0  0  0  0  0  0  0  0  0
   -4.2096    0.8020   -4.0113 H   0  0  0  0  0  0  0  0  0  0  0  0
   -2.5248    0.4492   -3.5128 H   0  0  0  0  0  0  0  0  0  0  0  0
  1  5  1  0
  5  6  2  0
  5  7  1  0
  1  2  1  0
  1  3  1  0
  1  4  1  0
  8 12  1  0
 12 15  1  0
  8  9  1  0
  8 10  1  0
  8 11  1  0
 12 13  1  0
 12 14  1  0
 15 16  1  0
 15 17  1  0
 15 18  1  0
M  CHG  1   7  -1
V    7 [O&-]
M  END
>  <PDB_ID>  (2208) 
pdb3hrx

>  <RESIDUE_NAME>  (2208) 
GLU   LEU

>  <FRAG_NAME>  (2208) 
ACET   PRPA

>  <FRAG_ATOM_NUM>  (2208) 
fragi: 7 fragj: 11

>  <atom.prop.CHAIN_ID>  (2208) 
A A A A A A A Z Z Z Z Z Z Z Z Z Z Z

>  <atom.prop.IS_HEAVY_ATOM>  (2208) 
1 0 0 0 1 1 1 1 0 0 0 1 0 0 1 0 0 0

>  <DIFUSE_FUNC_ATOM>  (2208) 
n/a

>  <FINAL_SINGLE_POINT_ENERGY>  (2208) 
0

>  <NONCOV_INTER_ENERGY_QM>  (2208) 
0

>  <FF_Energy>  (2208) 
33.52

>  <QM_Energy>  (2208) 
7.39

>  <source>  (2208) 
ACET_PRPA_29

>  <Index>  (2208) 
15643

$$$$
ACEH-pdb4m59-B-GLH-320:PRPA-pdb4m59-B-LEU-287
     RDKit          3D

 18 16  0  0  0  0  0  0  0  0999 V2000
   -0.1677    1.4851   -0.0156 C   0  0  0  0  0  0  0  0  0  0  0  0
   -0.6877    1.7435    0.8009 H   0  0  0  0  0  0  0  0  0  0  0  0
   -0.6989    1.7252   -0.8313 H   0  0  0  0  0  0  0  0  0  0  0  0
    0.7432    2.0836   -0.0276 H   0  0  0  0  0  0  0  0  0  0  0  0
    0.0000    0.0000    0.0000 C   0  0  0  0  0  0  0  0  0  0  0  0
   -1.0895   -0.6048   -0.0000 O   0  0  0  0  0  0  0  0  0  0  0  0
    1.0895   -0.5602    0.0000 O   0  0  0  0  0  0  0  0  0  0  0  0
    3.2805   -1.7784    0.3442 C   0  0  0  0  0  0  0  0  0  0  0  0
    2.6481   -2.4395   -0.0994 H   0  0  0  0  0  0  0  0  0  0  0  0
    2.7149   -0.9971    0.6629 H   0  0  0  0  0  0  0  0  0  0  0  0
    3.6957   -2.2645    1.2269 H   0  0  0  0  0  0  0  0  0  0  0  0
    4.1983   -1.2429   -0.7499 C   0  0  0  0  0  0  0  0  0  0  0  0
    4.8876   -1.9341   -0.9611 H   0  0  0  0  0  0  0  0  0  0  0  0
    3.6165   -1.0173   -1.6436 H   0  0  0  0  0  0  0  0  0  0  0  0
    4.9136   -0.0032   -0.2791 C   0  0  0  0  0  0  0  0  0  0  0  0
    5.4673   -0.2141    0.5306 H   0  0  0  0  0  0  0  0  0  0  0  0
    5.5139    0.3414   -1.0046 H   0  0  0  0  0  0  0  0  0  0  0  0
    4.2467    0.7079   -0.0426 H   0  0  0  0  0  0  0  0  0  0  0  0
  1  5  1  0
  5  6  2  0
  5  7  1  0
  1  2  1  0
  1  3  1  0
  1  4  1  0
  8 12  1  0
 12 15  1  0
  8  9  1  0
  8 10  1  0
  8 11  1  0
 12 13  1  0
 12 14  1  0
 15 16  1  0
 15 17  1  0
 15 18  1  0
M  CHG  1   7  -1
V    7 [O&-]
M  END
>  <PDB_ID>  (2209) 
pdb4m59

>  <RESIDUE_NAME>  (2209) 
GLU   LEU

>  <FRAG_NAME>  (2209) 
ACET   PRPA

>  <FRAG_ATOM_NUM>  (2209) 
fragi: 7 fragj: 11

>  <atom.prop.CHAIN_ID>  (2209) 
A A A A A A A Z Z Z Z Z Z Z Z Z Z Z

>  <atom.prop.IS_HEAVY_ATOM>  (2209) 
1 0 0 0 1 1 1 1 0 0 0 1 0 0 1 0 0 0

>  <DIFUSE_FUNC_ATOM>  (2209) 
n/a

>  <FINAL_SINGLE_POINT_ENERGY>  (2209) 
0

>  <NONCOV_INTER_ENERGY_QM>  (2209) 
0

>  <FF_Energy>  (2209) 
32.73

>  <QM_Energy>  (2209) 
4.34

>  <source>  (2209) 
ACET_PRPA_29

>  <Index>  (2209) 
16607

$$$$
ACEH-pdb3ibd-A-GLH-218:PRPA-pdb3ibd-A-LEU-51
     RDKit          3D

 18 16  0  0  0  0  0  0  0  0999 V2000
    0.1881    1.4864    0.0159 C   0  0  0  0  0  0  0  0  0  0  0  0
    0.7056    1.7359   -0.8006 H   0  0  0  0  0  0  0  0  0  0  0  0
    0.7172    1.7162    0.8313 H   0  0  0  0  0  0  0  0  0  0  0  0
   -0.7230    2.0846    0.0290 H   0  0  0  0  0  0  0  0  0  0  0  0
    0.0000    0.0000    0.0000 C   0  0  0  0  0  0  0  0  0  0  0  0
   -1.0885   -0.5547    0.0000 O   0  0  0  0  0  0  0  0  0  0  0  0
    1.0885   -0.6141    0.0000 O   0  0  0  0  0  0  0  0  0  0  0  0
   -3.9748   -3.5665    2.0777 C   0  0  0  0  0  0  0  0  0  0  0  0
   -3.1876   -4.1401    1.8725 H   0  0  0  0  0  0  0  0  0  0  0  0
   -4.5734   -3.5059    1.2852 H   0  0  0  0  0  0  0  0  0  0  0  0
   -4.5342   -4.0462    2.8809 H   0  0  0  0  0  0  0  0  0  0  0  0
   -3.4481   -2.1520    2.3640 C   0  0  0  0  0  0  0  0  0  0  0  0
   -2.7426   -2.2062    3.0630 H   0  0  0  0  0  0  0  0  0  0  0  0
   -4.2150   -1.4831    2.7547 H   0  0  0  0  0  0  0  0  0  0  0  0
   -2.8601   -1.5618    1.0899 C   0  0  0  0  0  0  0  0  0  0  0  0
   -3.5680   -1.5174    0.3845 H   0  0  0  0  0  0  0  0  0  0  0  0
   -2.5170   -0.6407    1.2760 H   0  0  0  0  0  0  0  0  0  0  0  0
   -2.1084   -2.1388    0.7702 H   0  0  0  0  0  0  0  0  0  0  0  0
  1  5  1  0
  5  6  2  0
  5  7  1  0
  1  2  1  0
  1  3  1  0
  1  4  1  0
  8 12  1  0
 12 15  1  0
  8  9  1  0
  8 10  1  0
  8 11  1  0
 12 13  1  0
 12 14  1  0
 15 16  1  0
 15 17  1  0
 15 18  1  0
M  CHG  1   7  -1
V    7 [O&-]
M  END
>  <PDB_ID>  (2210) 
pdb3ibd

>  <RESIDUE_NAME>  (2210) 
GLU   LEU

>  <FRAG_NAME>  (2210) 
ACET   PRPA

>  <FRAG_ATOM_NUM>  (2210) 
fragi: 7 fragj: 11

>  <atom.prop.CHAIN_ID>  (2210) 
A A A A A A A Z Z Z Z Z Z Z Z Z Z Z

>  <atom.prop.IS_HEAVY_ATOM>  (2210) 
1 0 0 0 1 1 1 1 0 0 0 1 0 0 1 0 0 0

>  <DIFUSE_FUNC_ATOM>  (2210) 
n/a

>  <FINAL_SINGLE_POINT_ENERGY>  (2210) 
0

>  <NONCOV_INTER_ENERGY_QM>  (2210) 
0

>  <FF_Energy>  (2210) 
44.58

>  <QM_Energy>  (2210) 
11.73

>  <source>  (2210) 
ACET_PRPA_29

>  <Index>  (2210) 
16800

$$$$
ACEH-pdb3ibd-A-GLH-218:PRPA-pdb3ibd-A-LEU-51
     RDKit          3D

 18 16  0  0  0  0  0  0  0  0999 V2000
    0.1881    1.4864    0.0159 C   0  0  0  0  0  0  0  0  0  0  0  0
    0.7056    1.7359   -0.8006 H   0  0  0  0  0  0  0  0  0  0  0  0
    0.7172    1.7162    0.8313 H   0  0  0  0  0  0  0  0  0  0  0  0
   -0.7230    2.0846    0.0290 H   0  0  0  0  0  0  0  0  0  0  0  0
    0.0000    0.0000    0.0000 C   0  0  0  0  0  0  0  0  0  0  0  0
   -1.0885   -0.5547    0.0000 O   0  0  0  0  0  0  0  0  0  0  0  0
    1.0885   -0.6141    0.0000 O   0  0  0  0  0  0  0  0  0  0  0  0
   -2.8601   -1.5618    1.0899 C   0  0  0  0  0  0  0  0  0  0  0  0
   -3.5680   -1.5174    0.3845 H   0  0  0  0  0  0  0  0  0  0  0  0
   -2.5170   -0.6407    1.2760 H   0  0  0  0  0  0  0  0  0  0  0  0
   -2.1084   -2.1388    0.7702 H   0  0  0  0  0  0  0  0  0  0  0  0
   -3.4481   -2.1520    2.3640 C   0  0  0  0  0  0  0  0  0  0  0  0
   -2.7426   -2.2062    3.0630 H   0  0  0  0  0  0  0  0  0  0  0  0
   -3.8218   -3.1556    2.1608 H   0  0  0  0  0  0  0  0  0  0  0  0
   -4.5073   -1.2281    2.9035 C   0  0  0  0  0  0  0  0  0  0  0  0
   -4.8739   -1.5917    3.7643 H   0  0  0  0  0  0  0  0  0  0  0  0
   -4.1153   -0.3197    3.0736 H   0  0  0  0  0  0  0  0  0  0  0  0
   -5.2561   -1.1417    2.2408 H   0  0  0  0  0  0  0  0  0  0  0  0
  1  5  1  0
  5  6  2  0
  5  7  1  0
  1  2  1  0
  1  3  1  0
  1  4  1  0
  8 12  1  0
 12 15  1  0
  8  9  1  0
  8 10  1  0
  8 11  1  0
 12 13  1  0
 12 14  1  0
 15 16  1  0
 15 17  1  0
 15 18  1  0
M  CHG  1   7  -1
V    7 [O&-]
M  END
>  <PDB_ID>  (2211) 
pdb3ibd

>  <RESIDUE_NAME>  (2211) 
GLU   LEU

>  <FRAG_NAME>  (2211) 
ACET   PRPA

>  <FRAG_ATOM_NUM>  (2211) 
fragi: 7 fragj: 11

>  <atom.prop.CHAIN_ID>  (2211) 
A A A A A A A Z Z Z Z Z Z Z Z Z Z Z

>  <atom.prop.IS_HEAVY_ATOM>  (2211) 
1 0 0 0 1 1 1 1 0 0 0 1 0 0 1 0 0 0

>  <DIFUSE_FUNC_ATOM>  (2211) 
n/a

>  <FINAL_SINGLE_POINT_ENERGY>  (2211) 
0

>  <NONCOV_INTER_ENERGY_QM>  (2211) 
0

>  <FF_Energy>  (2211) 
44.56

>  <QM_Energy>  (2211) 
12.18

>  <source>  (2211) 
ACET_PRPA_29

>  <Index>  (2211) 
16878

$$$$
ACEH-pdb4ihc-B-GLH-112:PRPA-pdb4ihc-B-PRO-109
     RDKit          3D

 18 16  0  0  0  0  0  0  0  0999 V2000
   -0.1952    1.4888   -0.0127 C   0  0  0  0  0  0  0  0  0  0  0  0
   -0.7112    1.7340    0.8044 H   0  0  0  0  0  0  0  0  0  0  0  0
   -0.7229    1.7170   -0.8276 H   0  0  0  0  0  0  0  0  0  0  0  0
    0.7160    2.0869   -0.0249 H   0  0  0  0  0  0  0  0  0  0  0  0
    0.0000    0.0000    0.0000 C   0  0  0  0  0  0  0  0  0  0  0  0
   -1.0887   -0.6162    0.0000 O   0  0  0  0  0  0  0  0  0  0  0  0
    1.0887   -0.5505    0.0000 O   0  0  0  0  0  0  0  0  0  0  0  0
   -1.1536    1.0843   -3.8523 C   0  0  0  0  0  0  0  0  0  0  0  0
   -1.2118    1.7963   -3.1459 H   0  0  0  0  0  0  0  0  0  0  0  0
   -1.9026    1.2183   -4.5065 H   0  0  0  0  0  0  0  0  0  0  0  0
   -0.1909    1.1323   -4.3613 H   0  0  0  0  0  0  0  0  0  0  0  0
   -1.1910   -0.2699   -3.2578 C   0  0  0  0  0  0  0  0  0  0  0  0
   -1.8348   -0.3057   -2.4942 H   0  0  0  0  0  0  0  0  0  0  0  0
   -1.4448   -0.9517   -3.9419 H   0  0  0  0  0  0  0  0  0  0  0  0
    0.2105   -0.4730   -2.7903 C   0  0  0  0  0  0  0  0  0  0  0  0
    0.3798   -0.0201   -1.9194 H   0  0  0  0  0  0  0  0  0  0  0  0
    0.4418   -1.4412   -2.7208 H   0  0  0  0  0  0  0  0  0  0  0  0
    0.7822    0.0022   -3.5874 H   0  0  0  0  0  0  0  0  0  0  0  0
  1  5  1  0
  5  6  2  0
  5  7  1  0
  1  2  1  0
  1  3  1  0
  1  4  1  0
  8 12  1  0
 12 15  1  0
  8  9  1  0
  8 10  1  0
  8 11  1  0
 12 13  1  0
 12 14  1  0
 15 16  1  0
 15 17  1  0
 15 18  1  0
M  CHG  1   7  -1
V    7 [O&-]
M  END
>  <PDB_ID>  (2212) 
pdb4ihc

>  <RESIDUE_NAME>  (2212) 
GLU   PRO

>  <FRAG_NAME>  (2212) 
ACET   PRPA

>  <FRAG_ATOM_NUM>  (2212) 
fragi: 7 fragj: 11

>  <atom.prop.CHAIN_ID>  (2212) 
A A A A A A A Z Z Z Z Z Z Z Z Z Z Z

>  <atom.prop.IS_HEAVY_ATOM>  (2212) 
1 0 0 0 1 1 1 1 0 0 0 1 0 0 1 0 0 0

>  <DIFUSE_FUNC_ATOM>  (2212) 
n/a

>  <FINAL_SINGLE_POINT_ENERGY>  (2212) 
0

>  <NONCOV_INTER_ENERGY_QM>  (2212) 
0

>  <FF_Energy>  (2212) 
32.72

>  <QM_Energy>  (2212) 
1.81

>  <source>  (2212) 
ACET_PRPA_29

>  <Index>  (2212) 
17462

$$$$
ACEH-pdb4mb0-A-GLH-100:PRPA-pdb4mb0-A-LEU-128
     RDKit          3D

 18 16  0  0  0  0  0  0  0  0999 V2000
    0.0028    1.5195    0.0862 C   0  0  0  0  0  0  0  0  0  0  0  0
    0.6952    1.8493   -0.5223 H   0  0  0  0  0  0  0  0  0  0  0  0
    0.1714    1.7619    1.0207 H   0  0  0  0  0  0  0  0  0  0  0  0
   -0.9513    1.9529   -0.2137 H   0  0  0  0  0  0  0  0  0  0  0  0
    0.0000    0.0000    0.0000 C   0  0  0  0  0  0  0  0  0  0  0  0
   -1.0971   -0.6051    0.0000 O   0  0  0  0  0  0  0  0  0  0  0  0
    1.0971   -0.5945   -0.0000 O   0  0  0  0  0  0  0  0  0  0  0  0
    2.1864    2.6556    1.3000 C   0  0  0  0  0  0  0  0  0  0  0  0
    1.3136    2.7783    1.7660 H   0  0  0  0  0  0  0  0  0  0  0  0
    2.0597    2.1146    0.4730 H   0  0  0  0  0  0  0  0  0  0  0  0
    2.5487    3.6399    1.0035 H   0  0  0  0  0  0  0  0  0  0  0  0
    3.0925    1.8554    2.2356 C   0  0  0  0  0  0  0  0  0  0  0  0
    3.5573    1.1394    1.7038 H   0  0  0  0  0  0  0  0  0  0  0  0
    2.5010    1.3223    2.9799 H   0  0  0  0  0  0  0  0  0  0  0  0
    4.1326    2.7345    2.9115 C   0  0  0  0  0  0  0  0  0  0  0  0
    3.6739    3.4419    3.4517 H   0  0  0  0  0  0  0  0  0  0  0  0
    4.7039    2.1758    3.5137 H   0  0  0  0  0  0  0  0  0  0  0  0
    4.7079    3.1678    2.2169 H   0  0  0  0  0  0  0  0  0  0  0  0
  1  5  1  0
  5  6  2  0
  5  7  1  0
  1  2  1  0
  1  3  1  0
  1  4  1  0
  8 12  1  0
 12 15  1  0
  8  9  1  0
  8 10  1  0
  8 11  1  0
 12 13  1  0
 12 14  1  0
 15 16  1  0
 15 17  1  0
 15 18  1  0
M  CHG  1   7  -1
V    7 [O&-]
M  END
>  <PDB_ID>  (2213) 
pdb4mb0

>  <RESIDUE_NAME>  (2213) 
GLU   LEU

>  <FRAG_NAME>  (2213) 
ACET   PRPA

>  <FRAG_ATOM_NUM>  (2213) 
fragi: 7 fragj: 11

>  <atom.prop.CHAIN_ID>  (2213) 
A A A A A A A Z Z Z Z Z Z Z Z Z Z Z

>  <atom.prop.IS_HEAVY_ATOM>  (2213) 
1 0 0 0 1 1 1 1 0 0 0 1 0 0 1 0 0 0

>  <DIFUSE_FUNC_ATOM>  (2213) 
n/a

>  <FINAL_SINGLE_POINT_ENERGY>  (2213) 
0

>  <NONCOV_INTER_ENERGY_QM>  (2213) 
0

>  <FF_Energy>  (2213) 
31.53

>  <QM_Energy>  (2213) 
10.32

>  <source>  (2213) 
ACET_PRPA_29

>  <Index>  (2213) 
17921

$$$$
ACEH-pdb4mb0-A-GLH-100:PRPA-pdb4mb0-A-LEU-128
     RDKit          3D

 18 16  0  0  0  0  0  0  0  0999 V2000
    0.0028    1.5195    0.0862 C   0  0  0  0  0  0  0  0  0  0  0  0
    0.6952    1.8493   -0.5223 H   0  0  0  0  0  0  0  0  0  0  0  0
    0.1714    1.7619    1.0207 H   0  0  0  0  0  0  0  0  0  0  0  0
   -0.9513    1.9529   -0.2137 H   0  0  0  0  0  0  0  0  0  0  0  0
    0.0000    0.0000    0.0000 C   0  0  0  0  0  0  0  0  0  0  0  0
   -1.0971   -0.6051    0.0000 O   0  0  0  0  0  0  0  0  0  0  0  0
    1.0971   -0.5945   -0.0000 O   0  0  0  0  0  0  0  0  0  0  0  0
    2.1864    2.6556    1.3000 C   0  0  0  0  0  0  0  0  0  0  0  0
    1.3136    2.7783    1.7660 H   0  0  0  0  0  0  0  0  0  0  0  0
    2.0597    2.1146    0.4730 H   0  0  0  0  0  0  0  0  0  0  0  0
    2.5487    3.6399    1.0035 H   0  0  0  0  0  0  0  0  0  0  0  0
    3.0925    1.8554    2.2356 C   0  0  0  0  0  0  0  0  0  0  0  0
    3.5573    1.1394    1.7038 H   0  0  0  0  0  0  0  0  0  0  0  0
    3.8382    2.4857    2.7202 H   0  0  0  0  0  0  0  0  0  0  0  0
    2.2711    1.1151    3.2693 C   0  0  0  0  0  0  0  0  0  0  0  0
    1.6415    0.4833    2.8125 H   0  0  0  0  0  0  0  0  0  0  0  0
    2.8770    0.5958    3.8751 H   0  0  0  0  0  0  0  0  0  0  0  0
    1.7430    1.7693    3.8142 H   0  0  0  0  0  0  0  0  0  0  0  0
  1  5  1  0
  5  6  2  0
  5  7  1  0
  1  2  1  0
  1  3  1  0
  1  4  1  0
  8 12  1  0
 12 15  1  0
  8  9  1  0
  8 10  1  0
  8 11  1  0
 12 13  1  0
 12 14  1  0
 15 16  1  0
 15 17  1  0
 15 18  1  0
M  CHG  1   7  -1
V    7 [O&-]
M  END
>  <PDB_ID>  (2214) 
pdb4mb0

>  <RESIDUE_NAME>  (2214) 
GLU   LEU

>  <FRAG_NAME>  (2214) 
ACET   PRPA

>  <FRAG_ATOM_NUM>  (2214) 
fragi: 7 fragj: 11

>  <atom.prop.CHAIN_ID>  (2214) 
A A A A A A A Z Z Z Z Z Z Z Z Z Z Z

>  <atom.prop.IS_HEAVY_ATOM>  (2214) 
1 0 0 0 1 1 1 1 0 0 0 1 0 0 1 0 0 0

>  <DIFUSE_FUNC_ATOM>  (2214) 
n/a

>  <FINAL_SINGLE_POINT_ENERGY>  (2214) 
0

>  <NONCOV_INTER_ENERGY_QM>  (2214) 
0

>  <FF_Energy>  (2214) 
31.58

>  <QM_Energy>  (2214) 
8.87

>  <source>  (2214) 
ACET_PRPA_29

>  <Index>  (2214) 
18008

$$$$
ACEH-pdb1knz-B-GLH-151:PRPA-pdb1knz-B-LEU-147
     RDKit          3D

 18 16  0  0  0  0  0  0  0  0999 V2000
   -0.1668    1.4857   -0.0140 C   0  0  0  0  0  0  0  0  0  0  0  0
   -0.6859    1.7440    0.8035 H   0  0  0  0  0  0  0  0  0  0  0  0
   -0.6974    1.7268   -0.8288 H   0  0  0  0  0  0  0  0  0  0  0  0
    0.7446    2.0835   -0.0259 H   0  0  0  0  0  0  0  0  0  0  0  0
    0.0000    0.0000    0.0000 C   0  0  0  0  0  0  0  0  0  0  0  0
   -1.0897   -0.6039    0.0000 O   0  0  0  0  0  0  0  0  0  0  0  0
    1.0897   -0.5606   -0.0000 O   0  0  0  0  0  0  0  0  0  0  0  0
   -1.7271   -1.2575   -3.4682 C   0  0  0  0  0  0  0  0  0  0  0  0
   -2.5009   -1.8818   -3.5018 H   0  0  0  0  0  0  0  0  0  0  0  0
   -1.2771   -1.2131   -4.3531 H   0  0  0  0  0  0  0  0  0  0  0  0
   -2.1104   -0.2632   -3.2386 H   0  0  0  0  0  0  0  0  0  0  0  0
   -0.7167   -1.8367   -2.4684 C   0  0  0  0  0  0  0  0  0  0  0  0
   -1.0922   -1.7480   -1.5457 H   0  0  0  0  0  0  0  0  0  0  0  0
    0.2060   -1.2583   -2.5148 H   0  0  0  0  0  0  0  0  0  0  0  0
   -0.4416   -3.2956   -2.7691 C   0  0  0  0  0  0  0  0  0  0  0  0
   -0.0668   -3.3848   -3.6938 H   0  0  0  0  0  0  0  0  0  0  0  0
    0.2188   -3.6576   -2.1086 H   0  0  0  0  0  0  0  0  0  0  0  0
   -1.2926   -3.8196   -2.7066 H   0  0  0  0  0  0  0  0  0  0  0  0
  1  5  1  0
  5  6  2  0
  5  7  1  0
  1  2  1  0
  1  3  1  0
  1  4  1  0
  8 12  1  0
 12 15  1  0
  8  9  1  0
  8 10  1  0
  8 11  1  0
 12 13  1  0
 12 14  1  0
 15 16  1  0
 15 17  1  0
 15 18  1  0
M  CHG  1   7  -1
V    7 [O&-]
M  END
>  <PDB_ID>  (2215) 
pdb1knz

>  <RESIDUE_NAME>  (2215) 
GLU   LEU

>  <FRAG_NAME>  (2215) 
ACET   PRPA

>  <FRAG_ATOM_NUM>  (2215) 
fragi: 7 fragj: 11

>  <atom.prop.CHAIN_ID>  (2215) 
A A A A A A A Z Z Z Z Z Z Z Z Z Z Z

>  <atom.prop.IS_HEAVY_ATOM>  (2215) 
1 0 0 0 1 1 1 1 0 0 0 1 0 0 1 0 0 0

>  <DIFUSE_FUNC_ATOM>  (2215) 
n/a

>  <FINAL_SINGLE_POINT_ENERGY>  (2215) 
0

>  <NONCOV_INTER_ENERGY_QM>  (2215) 
0

>  <FF_Energy>  (2215) 
14.83

>  <QM_Energy>  (2215) 
-0.41

>  <source>  (2215) 
ACET_PRPA_29

>  <Index>  (2215) 
18677

$$$$
ACEH-pdb1knz-B-GLH-151:PRPA-pdb1knz-B-LEU-147
     RDKit          3D

 18 16  0  0  0  0  0  0  0  0999 V2000
   -0.1668    1.4857   -0.0140 C   0  0  0  0  0  0  0  0  0  0  0  0
   -0.6859    1.7440    0.8035 H   0  0  0  0  0  0  0  0  0  0  0  0
   -0.6974    1.7268   -0.8288 H   0  0  0  0  0  0  0  0  0  0  0  0
    0.7446    2.0835   -0.0259 H   0  0  0  0  0  0  0  0  0  0  0  0
    0.0000    0.0000    0.0000 C   0  0  0  0  0  0  0  0  0  0  0  0
   -1.0897   -0.6039    0.0000 O   0  0  0  0  0  0  0  0  0  0  0  0
    1.0897   -0.5606   -0.0000 O   0  0  0  0  0  0  0  0  0  0  0  0
   -1.7271   -1.2575   -3.4682 C   0  0  0  0  0  0  0  0  0  0  0  0
   -2.5009   -1.8818   -3.5018 H   0  0  0  0  0  0  0  0  0  0  0  0
   -1.2771   -1.2131   -4.3531 H   0  0  0  0  0  0  0  0  0  0  0  0
   -2.1104   -0.2632   -3.2386 H   0  0  0  0  0  0  0  0  0  0  0  0
   -0.7167   -1.8367   -2.4684 C   0  0  0  0  0  0  0  0  0  0  0  0
   -1.0922   -1.7480   -1.5457 H   0  0  0  0  0  0  0  0  0  0  0  0
   -0.5187   -2.8866   -2.6848 H   0  0  0  0  0  0  0  0  0  0  0  0
    0.5646   -1.0335   -2.5327 C   0  0  0  0  0  0  0  0  0  0  0  0
    0.3768   -0.0765   -2.3010 H   0  0  0  0  0  0  0  0  0  0  0  0
    1.2306   -1.4047   -1.8823 H   0  0  0  0  0  0  0  0  0  0  0  0
    0.9466   -1.0796   -3.4581 H   0  0  0  0  0  0  0  0  0  0  0  0
  1  5  1  0
  5  6  2  0
  5  7  1  0
  1  2  1  0
  1  3  1  0
  1  4  1  0
  8 12  1  0
 12 15  1  0
  8  9  1  0
  8 10  1  0
  8 11  1  0
 12 13  1  0
 12 14  1  0
 15 16  1  0
 15 17  1  0
 15 18  1  0
M  CHG  1   7  -1
V    7 [O&-]
M  END
>  <PDB_ID>  (2216) 
pdb1knz

>  <RESIDUE_NAME>  (2216) 
GLU   LEU

>  <FRAG_NAME>  (2216) 
ACET   PRPA

>  <FRAG_ATOM_NUM>  (2216) 
fragi: 7 fragj: 11

>  <atom.prop.CHAIN_ID>  (2216) 
A A A A A A A Z Z Z Z Z Z Z Z Z Z Z

>  <atom.prop.IS_HEAVY_ATOM>  (2216) 
1 0 0 0 1 1 1 1 0 0 0 1 0 0 1 0 0 0

>  <DIFUSE_FUNC_ATOM>  (2216) 
n/a

>  <FINAL_SINGLE_POINT_ENERGY>  (2216) 
0

>  <NONCOV_INTER_ENERGY_QM>  (2216) 
0

>  <FF_Energy>  (2216) 
33.49

>  <QM_Energy>  (2216) 
4.61

>  <source>  (2216) 
ACET_PRPA_29

>  <Index>  (2216) 
18704

$$$$
ACEH-pdb4mb0-B-GLH-100:PRPA-pdb4mb0-B-LEU-128
     RDKit          3D

 18 16  0  0  0  0  0  0  0  0999 V2000
    0.0103    1.5165   -0.0030 C   0  0  0  0  0  0  0  0  0  0  0  0
    0.8753    1.8063   -0.3744 H   0  0  0  0  0  0  0  0  0  0  0  0
   -0.1090    1.8156    0.9281 H   0  0  0  0  0  0  0  0  0  0  0  0
   -0.7848    1.9521   -0.6080 H   0  0  0  0  0  0  0  0  0  0  0  0
    0.0000    0.0000    0.0000 C   0  0  0  0  0  0  0  0  0  0  0  0
   -1.0943   -0.5997   -0.0000 O   0  0  0  0  0  0  0  0  0  0  0  0
    1.0943   -0.5954    0.0000 O   0  0  0  0  0  0  0  0  0  0  0  0
    1.5731    2.5520    2.0279 C   0  0  0  0  0  0  0  0  0  0  0  0
    0.6050    2.7277    1.8724 H   0  0  0  0  0  0  0  0  0  0  0  0
    1.9103    1.8791    1.3781 H   0  0  0  0  0  0  0  0  0  0  0  0
    2.1140    3.4830    1.8581 H   0  0  0  0  0  0  0  0  0  0  0  0
    1.7071    1.9445    3.4257 C   0  0  0  0  0  0  0  0  0  0  0  0
    2.6331    1.5788    3.5327 H   0  0  0  0  0  0  0  0  0  0  0  0
    1.5222    2.6928    4.1964 H   0  0  0  0  0  0  0  0  0  0  0  0
    0.7699    0.7563    3.5921 C   0  0  0  0  0  0  0  0  0  0  0  0
    0.9942    0.0558    2.9136 H   0  0  0  0  0  0  0  0  0  0  0  0
    0.8736    0.3756    4.5115 H   0  0  0  0  0  0  0  0  0  0  0  0
   -0.1763    1.0554    3.4604 H   0  0  0  0  0  0  0  0  0  0  0  0
  1  5  1  0
  5  6  2  0
  5  7  1  0
  1  2  1  0
  1  3  1  0
  1  4  1  0
  8 12  1  0
 12 15  1  0
  8  9  1  0
  8 10  1  0
  8 11  1  0
 12 13  1  0
 12 14  1  0
 15 16  1  0
 15 17  1  0
 15 18  1  0
M  CHG  1   7  -1
V    7 [O&-]
M  END
>  <PDB_ID>  (2217) 
pdb4mb0

>  <RESIDUE_NAME>  (2217) 
GLU   LEU

>  <FRAG_NAME>  (2217) 
ACET   PRPA

>  <FRAG_ATOM_NUM>  (2217) 
fragi: 7 fragj: 11

>  <atom.prop.CHAIN_ID>  (2217) 
A A A A A A A Z Z Z Z Z Z Z Z Z Z Z

>  <atom.prop.IS_HEAVY_ATOM>  (2217) 
1 0 0 0 1 1 1 1 0 0 0 1 0 0 1 0 0 0

>  <DIFUSE_FUNC_ATOM>  (2217) 
n/a

>  <FINAL_SINGLE_POINT_ENERGY>  (2217) 
0

>  <NONCOV_INTER_ENERGY_QM>  (2217) 
0

>  <FF_Energy>  (2217) 
46.29

>  <QM_Energy>  (2217) 
9.26

>  <source>  (2217) 
ACET_PRPA_29

>  <Index>  (2217) 
18772

$$$$
ACEH-pdb1knz-D-GLH-151:PRPA-pdb1knz-D-LEU-147
     RDKit          3D

 18 16  0  0  0  0  0  0  0  0999 V2000
    0.1682    1.4849    0.0114 C   0  0  0  0  0  0  0  0  0  0  0  0
    0.6872    1.7416   -0.8056 H   0  0  0  0  0  0  0  0  0  0  0  0
    0.6989    1.7262    0.8271 H   0  0  0  0  0  0  0  0  0  0  0  0
   -0.7430    2.0830    0.0231 H   0  0  0  0  0  0  0  0  0  0  0  0
    0.0000    0.0000    0.0000 C   0  0  0  0  0  0  0  0  0  0  0  0
   -1.0893   -0.5599   -0.0000 O   0  0  0  0  0  0  0  0  0  0  0  0
    1.0893   -0.6046    0.0000 O   0  0  0  0  0  0  0  0  0  0  0  0
    0.8649   -1.5297    3.7697 C   0  0  0  0  0  0  0  0  0  0  0  0
    1.5928   -2.1805    3.9314 H   0  0  0  0  0  0  0  0  0  0  0  0
    0.2319   -1.5025    4.5288 H   0  0  0  0  0  0  0  0  0  0  0  0
    1.3141   -0.5415    3.6714 H   0  0  0  0  0  0  0  0  0  0  0  0
    0.0907   -2.0020    2.5394 C   0  0  0  0  0  0  0  0  0  0  0  0
    0.6338   -1.8064    1.7213 H   0  0  0  0  0  0  0  0  0  0  0  0
   -0.1108   -3.0716    2.5977 H   0  0  0  0  0  0  0  0  0  0  0  0
   -1.1986   -1.1990    2.4293 C   0  0  0  0  0  0  0  0  0  0  0  0
   -0.9796   -0.2269    2.3381 H   0  0  0  0  0  0  0  0  0  0  0  0
   -1.7130   -1.5010    1.6261 H   0  0  0  0  0  0  0  0  0  0  0  0
   -1.7511   -1.3404    3.2511 H   0  0  0  0  0  0  0  0  0  0  0  0
  1  5  1  0
  5  6  2  0
  5  7  1  0
  1  2  1  0
  1  3  1  0
  1  4  1  0
  8 12  1  0
 12 15  1  0
  8  9  1  0
  8 10  1  0
  8 11  1  0
 12 13  1  0
 12 14  1  0
 15 16  1  0
 15 17  1  0
 15 18  1  0
M  CHG  1   7  -1
V    7 [O&-]
M  END
>  <PDB_ID>  (2218) 
pdb1knz

>  <RESIDUE_NAME>  (2218) 
GLU   LEU

>  <FRAG_NAME>  (2218) 
ACET   PRPA

>  <FRAG_ATOM_NUM>  (2218) 
fragi: 7 fragj: 11

>  <atom.prop.CHAIN_ID>  (2218) 
A A A A A A A Z Z Z Z Z Z Z Z Z Z Z

>  <atom.prop.IS_HEAVY_ATOM>  (2218) 
1 0 0 0 1 1 1 1 0 0 0 1 0 0 1 0 0 0

>  <DIFUSE_FUNC_ATOM>  (2218) 
n/a

>  <FINAL_SINGLE_POINT_ENERGY>  (2218) 
0

>  <NONCOV_INTER_ENERGY_QM>  (2218) 
0

>  <FF_Energy>  (2218) 
24.35

>  <QM_Energy>  (2218) 
3.84

>  <source>  (2218) 
ACET_PRPA_29

>  <Index>  (2218) 
19007

$$$$
ACEH-pdb4mb0-C-GLH-100:PRPA-pdb4mb0-C-ILE-151
     RDKit          3D

 18 16  0  0  0  0  0  0  0  0999 V2000
   -0.0034    1.5040   -0.1166 C   0  0  0  0  0  0  0  0  0  0  0  0
    0.8753    1.7804   -0.4532 H   0  0  0  0  0  0  0  0  0  0  0  0
   -0.2005    1.8724    0.7708 H   0  0  0  0  0  0  0  0  0  0  0  0
   -0.7644    1.8561   -0.8130 H   0  0  0  0  0  0  0  0  0  0  0  0
    0.0000    0.0000    0.0000 C   0  0  0  0  0  0  0  0  0  0  0  0
   -1.1061   -0.5933   -0.0000 O   0  0  0  0  0  0  0  0  0  0  0  0
    1.1061   -0.5870   -0.0000 O   0  0  0  0  0  0  0  0  0  0  0  0
   -1.2050   -3.8688   -1.4353 C   0  0  0  0  0  0  0  0  0  0  0  0
   -1.3697   -3.8915   -2.4244 H   0  0  0  0  0  0  0  0  0  0  0  0
   -1.9559   -3.2007   -1.0135 H   0  0  0  0  0  0  0  0  0  0  0  0
   -1.3477   -4.8881   -1.0767 H   0  0  0  0  0  0  0  0  0  0  0  0
    0.2212   -3.3424   -1.1763 C   0  0  0  0  0  0  0  0  0  0  0  0
    0.2810   -3.0751   -0.2246 H   0  0  0  0  0  0  0  0  0  0  0  0
    0.9711   -4.1053   -1.3855 H   0  0  0  0  0  0  0  0  0  0  0  0
    0.4734   -2.1003   -2.0363 C   0  0  0  0  0  0  0  0  0  0  0  0
    0.2974   -2.3384   -2.9937 H   0  0  0  0  0  0  0  0  0  0  0  0
   -0.1869   -1.3953   -1.7659 H   0  0  0  0  0  0  0  0  0  0  0  0
    1.4782   -1.6859   -1.9547 H   0  0  0  0  0  0  0  0  0  0  0  0
  1  5  1  0
  5  6  2  0
  5  7  1  0
  1  2  1  0
  1  3  1  0
  1  4  1  0
  8 12  1  0
 12 15  1  0
  8  9  1  0
  8 10  1  0
  8 11  1  0
 12 13  1  0
 12 14  1  0
 15 16  1  0
 15 17  1  0
 15 18  1  0
M  CHG  1   7  -1
V    7 [O&-]
M  END
>  <PDB_ID>  (2219) 
pdb4mb0

>  <RESIDUE_NAME>  (2219) 
GLU   ILE

>  <FRAG_NAME>  (2219) 
ACET   PRPA

>  <FRAG_ATOM_NUM>  (2219) 
fragi: 7 fragj: 11

>  <atom.prop.CHAIN_ID>  (2219) 
A A A A A A A Z Z Z Z Z Z Z Z Z Z Z

>  <atom.prop.IS_HEAVY_ATOM>  (2219) 
1 0 0 0 1 1 1 1 0 0 0 1 0 0 1 0 0 0

>  <DIFUSE_FUNC_ATOM>  (2219) 
n/a

>  <FINAL_SINGLE_POINT_ENERGY>  (2219) 
0

>  <NONCOV_INTER_ENERGY_QM>  (2219) 
0

>  <FF_Energy>  (2219) 
17.22

>  <QM_Energy>  (2219) 
0.24

>  <source>  (2219) 
ACET_PRPA_29

>  <Index>  (2219) 
19297

$$$$
ACEH-pdb4mb0-C-GLH-100:PRPA-pdb4mb0-C-ILE-151
     RDKit          3D

 18 16  0  0  0  0  0  0  0  0999 V2000
   -0.0034    1.5040   -0.1166 C   0  0  0  0  0  0  0  0  0  0  0  0
    0.8753    1.7804   -0.4532 H   0  0  0  0  0  0  0  0  0  0  0  0
   -0.2005    1.8724    0.7708 H   0  0  0  0  0  0  0  0  0  0  0  0
   -0.7644    1.8561   -0.8130 H   0  0  0  0  0  0  0  0  0  0  0  0
    0.0000    0.0000    0.0000 C   0  0  0  0  0  0  0  0  0  0  0  0
   -1.1061   -0.5933   -0.0000 O   0  0  0  0  0  0  0  0  0  0  0  0
    1.1061   -0.5870   -0.0000 O   0  0  0  0  0  0  0  0  0  0  0  0
    0.4734   -2.1003   -2.0363 C   0  0  0  0  0  0  0  0  0  0  0  0
    0.2974   -2.3384   -2.9937 H   0  0  0  0  0  0  0  0  0  0  0  0
   -0.1869   -1.3953   -1.7659 H   0  0  0  0  0  0  0  0  0  0  0  0
    1.4782   -1.6859   -1.9547 H   0  0  0  0  0  0  0  0  0  0  0  0
    0.2212   -3.3424   -1.1763 C   0  0  0  0  0  0  0  0  0  0  0  0
    0.2810   -3.0751   -0.2246 H   0  0  0  0  0  0  0  0  0  0  0  0
   -0.7868   -3.7144   -1.3594 H   0  0  0  0  0  0  0  0  0  0  0  0
    1.2736   -4.4132   -1.4699 C   0  0  0  0  0  0  0  0  0  0  0  0
    2.1795   -4.0508   -1.2629 H   0  0  0  0  0  0  0  0  0  0  0  0
    1.0962   -5.2145   -0.9033 H   0  0  0  0  0  0  0  0  0  0  0  0
    1.2255   -4.6674   -2.4329 H   0  0  0  0  0  0  0  0  0  0  0  0
  1  5  1  0
  5  6  2  0
  5  7  1  0
  1  2  1  0
  1  3  1  0
  1  4  1  0
  8 12  1  0
 12 15  1  0
  8  9  1  0
  8 10  1  0
  8 11  1  0
 12 13  1  0
 12 14  1  0
 15 16  1  0
 15 17  1  0
 15 18  1  0
M  CHG  1   7  -1
V    7 [O&-]
M  END
>  <PDB_ID>  (2220) 
pdb4mb0

>  <RESIDUE_NAME>  (2220) 
GLU   ILE

>  <FRAG_NAME>  (2220) 
ACET   PRPA

>  <FRAG_ATOM_NUM>  (2220) 
fragi: 7 fragj: 11

>  <atom.prop.CHAIN_ID>  (2220) 
A A A A A A A Z Z Z Z Z Z Z Z Z Z Z

>  <atom.prop.IS_HEAVY_ATOM>  (2220) 
1 0 0 0 1 1 1 1 0 0 0 1 0 0 1 0 0 0

>  <DIFUSE_FUNC_ATOM>  (2220) 
n/a

>  <FINAL_SINGLE_POINT_ENERGY>  (2220) 
0

>  <NONCOV_INTER_ENERGY_QM>  (2220) 
0

>  <FF_Energy>  (2220) 
16.77

>  <QM_Energy>  (2220) 
1.24

>  <source>  (2220) 
ACET_PRPA_29

>  <Index>  (2220) 
19448

$$$$
ACEH-pdb4ihc-D-GLH-112:PRPA-pdb4ihc-D-PRO-109
     RDKit          3D

 18 16  0  0  0  0  0  0  0  0999 V2000
   -0.1767    1.4872   -0.0127 C   0  0  0  0  0  0  0  0  0  0  0  0
   -0.6945    1.7409    0.8043 H   0  0  0  0  0  0  0  0  0  0  0  0
   -0.7064    1.7247   -0.8280 H   0  0  0  0  0  0  0  0  0  0  0  0
    0.7336    2.0865   -0.0245 H   0  0  0  0  0  0  0  0  0  0  0  0
    0.0000    0.0000    0.0000 C   0  0  0  0  0  0  0  0  0  0  0  0
   -1.0894   -0.6078    0.0000 O   0  0  0  0  0  0  0  0  0  0  0  0
    1.0894   -0.5548    0.0000 O   0  0  0  0  0  0  0  0  0  0  0  0
   -1.4154    1.1812   -4.0975 C   0  0  0  0  0  0  0  0  0  0  0  0
   -1.5062    2.0262   -3.5565 H   0  0  0  0  0  0  0  0  0  0  0  0
   -2.0987    1.2039   -4.8364 H   0  0  0  0  0  0  0  0  0  0  0  0
   -0.4094    1.0974   -4.5088 H   0  0  0  0  0  0  0  0  0  0  0  0
   -1.6146   -0.0303   -3.2263 C   0  0  0  0  0  0  0  0  0  0  0  0
   -2.1566    0.2172   -2.4046 H   0  0  0  0  0  0  0  0  0  0  0  0
   -2.1420   -0.7368   -3.7287 H   0  0  0  0  0  0  0  0  0  0  0  0
   -0.2575   -0.5573   -2.8321 C   0  0  0  0  0  0  0  0  0  0  0  0
    0.0133   -0.2270   -1.9298 H   0  0  0  0  0  0  0  0  0  0  0  0
   -0.2369   -1.5562   -2.8432 H   0  0  0  0  0  0  0  0  0  0  0  0
    0.3974   -0.1506   -3.6027 H   0  0  0  0  0  0  0  0  0  0  0  0
  1  5  1  0
  5  6  2  0
  5  7  1  0
  1  2  1  0
  1  3  1  0
  1  4  1  0
  8 12  1  0
 12 15  1  0
  8  9  1  0
  8 10  1  0
  8 11  1  0
 12 13  1  0
 12 14  1  0
 15 16  1  0
 15 17  1  0
 15 18  1  0
M  CHG  1   7  -1
V    7 [O&-]
M  END
>  <PDB_ID>  (2221) 
pdb4ihc

>  <RESIDUE_NAME>  (2221) 
GLU   PRO

>  <FRAG_NAME>  (2221) 
ACET   PRPA

>  <FRAG_ATOM_NUM>  (2221) 
fragi: 7 fragj: 11

>  <atom.prop.CHAIN_ID>  (2221) 
A A A A A A A Z Z Z Z Z Z Z Z Z Z Z

>  <atom.prop.IS_HEAVY_ATOM>  (2221) 
1 0 0 0 1 1 1 1 0 0 0 1 0 0 1 0 0 0

>  <DIFUSE_FUNC_ATOM>  (2221) 
n/a

>  <FINAL_SINGLE_POINT_ENERGY>  (2221) 
0

>  <NONCOV_INTER_ENERGY_QM>  (2221) 
0

>  <FF_Energy>  (2221) 
31.94

>  <QM_Energy>  (2221) 
1.25

>  <source>  (2221) 
ACET_PRPA_29

>  <Index>  (2221) 
19468

$$$$
ACEH-pdb1knz-N-GLH-151:PRPA-pdb1knz-N-LEU-147
     RDKit          3D

 18 16  0  0  0  0  0  0  0  0999 V2000
    0.1678    1.4856    0.0138 C   0  0  0  0  0  0  0  0  0  0  0  0
    0.6874    1.7425   -0.8032 H   0  0  0  0  0  0  0  0  0  0  0  0
    0.6987    1.7258    0.8293 H   0  0  0  0  0  0  0  0  0  0  0  0
   -0.7432    2.0839    0.0257 H   0  0  0  0  0  0  0  0  0  0  0  0
    0.0000    0.0000    0.0000 C   0  0  0  0  0  0  0  0  0  0  0  0
   -1.0898   -0.5592   -0.0000 O   0  0  0  0  0  0  0  0  0  0  0  0
    1.0898   -0.6044    0.0000 O   0  0  0  0  0  0  0  0  0  0  0  0
    0.8780   -1.6134    3.6672 C   0  0  0  0  0  0  0  0  0  0  0  0
    1.6268   -2.2402    3.7967 H   0  0  0  0  0  0  0  0  0  0  0  0
    0.2523   -1.6209    4.4256 H   0  0  0  0  0  0  0  0  0  0  0  0
    1.2909   -0.6084    3.5794 H   0  0  0  0  0  0  0  0  0  0  0  0
    0.1053   -2.0681    2.4232 C   0  0  0  0  0  0  0  0  0  0  0  0
    0.6392   -1.8347    1.6078 H   0  0  0  0  0  0  0  0  0  0  0  0
   -0.0765   -3.1426    2.4417 H   0  0  0  0  0  0  0  0  0  0  0  0
   -1.2036   -1.2857    2.3523 C   0  0  0  0  0  0  0  0  0  0  0  0
   -1.0034   -0.3076    2.2914 H   0  0  0  0  0  0  0  0  0  0  0  0
   -1.7190   -1.5727    1.5449 H   0  0  0  0  0  0  0  0  0  0  0  0
   -1.7432   -1.4655    3.1741 H   0  0  0  0  0  0  0  0  0  0  0  0
  1  5  1  0
  5  6  2  0
  5  7  1  0
  1  2  1  0
  1  3  1  0
  1  4  1  0
  8 12  1  0
 12 15  1  0
  8  9  1  0
  8 10  1  0
  8 11  1  0
 12 13  1  0
 12 14  1  0
 15 16  1  0
 15 17  1  0
 15 18  1  0
M  CHG  1   7  -1
V    7 [O&-]
M  END
>  <PDB_ID>  (2222) 
pdb1knz

>  <RESIDUE_NAME>  (2222) 
GLU   LEU

>  <FRAG_NAME>  (2222) 
ACET   PRPA

>  <FRAG_ATOM_NUM>  (2222) 
fragi: 7 fragj: 11

>  <atom.prop.CHAIN_ID>  (2222) 
A A A A A A A Z Z Z Z Z Z Z Z Z Z Z

>  <atom.prop.IS_HEAVY_ATOM>  (2222) 
1 0 0 0 1 1 1 1 0 0 0 1 0 0 1 0 0 0

>  <DIFUSE_FUNC_ATOM>  (2222) 
n/a

>  <FINAL_SINGLE_POINT_ENERGY>  (2222) 
0

>  <NONCOV_INTER_ENERGY_QM>  (2222) 
0

>  <FF_Energy>  (2222) 
31.91

>  <QM_Energy>  (2222) 
5.88

>  <source>  (2222) 
ACET_PRPA_29

>  <Index>  (2222) 
19765

$$$$
ACEH-pdb1knz-N-GLH-151:PRPA-pdb1knz-N-LEU-147
     RDKit          3D

 18 16  0  0  0  0  0  0  0  0999 V2000
    0.1678    1.4856    0.0138 C   0  0  0  0  0  0  0  0  0  0  0  0
    0.6874    1.7425   -0.8032 H   0  0  0  0  0  0  0  0  0  0  0  0
    0.6987    1.7258    0.8293 H   0  0  0  0  0  0  0  0  0  0  0  0
   -0.7432    2.0839    0.0257 H   0  0  0  0  0  0  0  0  0  0  0  0
    0.0000    0.0000    0.0000 C   0  0  0  0  0  0  0  0  0  0  0  0
   -1.0898   -0.5592   -0.0000 O   0  0  0  0  0  0  0  0  0  0  0  0
    1.0898   -0.6044    0.0000 O   0  0  0  0  0  0  0  0  0  0  0  0
   -0.1484   -3.5672    2.4491 C   0  0  0  0  0  0  0  0  0  0  0  0
   -0.6851   -3.8028    3.2600 H   0  0  0  0  0  0  0  0  0  0  0  0
   -0.6532   -3.8360    1.6281 H   0  0  0  0  0  0  0  0  0  0  0  0
    0.7245   -4.0541    2.4764 H   0  0  0  0  0  0  0  0  0  0  0  0
    0.1053   -2.0681    2.4232 C   0  0  0  0  0  0  0  0  0  0  0  0
    0.6392   -1.8347    1.6078 H   0  0  0  0  0  0  0  0  0  0  0  0
    0.6546   -1.7448    3.3075 H   0  0  0  0  0  0  0  0  0  0  0  0
   -1.2036   -1.2857    2.3523 C   0  0  0  0  0  0  0  0  0  0  0  0
   -1.0034   -0.3076    2.2914 H   0  0  0  0  0  0  0  0  0  0  0  0
   -1.7190   -1.5727    1.5449 H   0  0  0  0  0  0  0  0  0  0  0  0
   -1.7432   -1.4655    3.1741 H   0  0  0  0  0  0  0  0  0  0  0  0
  1  5  1  0
  5  6  2  0
  5  7  1  0
  1  2  1  0
  1  3  1  0
  1  4  1  0
  8 12  1  0
 12 15  1  0
  8  9  1  0
  8 10  1  0
  8 11  1  0
 12 13  1  0
 12 14  1  0
 15 16  1  0
 15 17  1  0
 15 18  1  0
M  CHG  1   7  -1
V    7 [O&-]
M  END
>  <PDB_ID>  (2223) 
pdb1knz

>  <RESIDUE_NAME>  (2223) 
GLU   LEU

>  <FRAG_NAME>  (2223) 
ACET   PRPA

>  <FRAG_ATOM_NUM>  (2223) 
fragi: 7 fragj: 11

>  <atom.prop.CHAIN_ID>  (2223) 
A A A A A A A Z Z Z Z Z Z Z Z Z Z Z

>  <atom.prop.IS_HEAVY_ATOM>  (2223) 
1 0 0 0 1 1 1 1 0 0 0 1 0 0 1 0 0 0

>  <DIFUSE_FUNC_ATOM>  (2223) 
n/a

>  <FINAL_SINGLE_POINT_ENERGY>  (2223) 
0

>  <NONCOV_INTER_ENERGY_QM>  (2223) 
0

>  <FF_Energy>  (2223) 
33.46

>  <QM_Energy>  (2223) 
5.79

>  <source>  (2223) 
ACET_PRPA_29

>  <Index>  (2223) 
19803

$$$$
ACEH-pdb1l7j-A-ASH-243:PRPA-pdb1l7j-A-VAL-239
     RDKit          3D

 18 16  0  0  0  0  0  0  0  0999 V2000
    0.2113    1.4975   -0.0312 C   0  0  0  0  0  0  0  0  0  0  0  0
    0.6691    1.7448   -0.8734 H   0  0  0  0  0  0  0  0  0  0  0  0
    0.7433    1.7684    0.7576 H   0  0  0  0  0  0  0  0  0  0  0  0
   -0.7290    2.0477    0.0033 H   0  0  0  0  0  0  0  0  0  0  0  0
    0.0000    0.0000    0.0000 C   0  0  0  0  0  0  0  0  0  0  0  0
   -1.0988   -0.5142    0.0000 O   0  0  0  0  0  0  0  0  0  0  0  0
    1.0988   -0.7074    0.0000 O   0  0  0  0  0  0  0  0  0  0  0  0
    4.6062    3.9636   -0.9718 C   0  0  0  0  0  0  0  0  0  0  0  0
    5.0593    3.1319   -0.6265 H   0  0  0  0  0  0  0  0  0  0  0  0
    5.1553    4.8322   -0.6086 H   0  0  0  0  0  0  0  0  0  0  0  0
    4.6276    3.9329   -2.0612 H   0  0  0  0  0  0  0  0  0  0  0  0
    3.2134    4.1076   -0.4205 C   0  0  0  0  0  0  0  0  0  0  0  0
    3.1845    4.9239    0.1665 H   0  0  0  0  0  0  0  0  0  0  0  0
    2.4717    4.2664   -1.2034 H   0  0  0  0  0  0  0  0  0  0  0  0
    2.8925    3.0022    0.5716 C   0  0  0  0  0  0  0  0  0  0  0  0
    3.5939    2.2917    0.5146 H   0  0  0  0  0  0  0  0  0  0  0  0
    2.8747    3.3829    1.4966 H   0  0  0  0  0  0  0  0  0  0  0  0
    1.9990    2.6094    0.3529 H   0  0  0  0  0  0  0  0  0  0  0  0
  1  5  1  0
  5  6  2  0
  5  7  1  0
  1  2  1  0
  1  3  1  0
  1  4  1  0
  8 12  1  0
 12 15  1  0
  8  9  1  0
  8 10  1  0
  8 11  1  0
 12 13  1  0
 12 14  1  0
 15 16  1  0
 15 17  1  0
 15 18  1  0
M  CHG  1   7  -1
V    7 [O&-]
M  END
>  <PDB_ID>  (2224) 
pdb1l7j

>  <RESIDUE_NAME>  (2224) 
ASP   VAL

>  <FRAG_NAME>  (2224) 
ACET   PRPA

>  <FRAG_ATOM_NUM>  (2224) 
fragi: 7 fragj: 11

>  <atom.prop.CHAIN_ID>  (2224) 
A A A A A A A Z Z Z Z Z Z Z Z Z Z Z

>  <atom.prop.IS_HEAVY_ATOM>  (2224) 
1 0 0 0 1 1 1 1 0 0 0 1 0 0 1 0 0 0

>  <DIFUSE_FUNC_ATOM>  (2224) 
n/a

>  <FINAL_SINGLE_POINT_ENERGY>  (2224) 
0

>  <NONCOV_INTER_ENERGY_QM>  (2224) 
0

>  <FF_Energy>  (2224) 
25.2

>  <QM_Energy>  (2224) 
5.13

>  <source>  (2224) 
ACET_PRPA_29

>  <Index>  (2224) 
19874

$$$$
ACEH-pdb3isr-B-GLH-89:PRPA-pdb3isr-B-VAL-131
     RDKit          3D

 18 16  0  0  0  0  0  0  0  0999 V2000
   -0.1786    1.4881   -0.0161 C   0  0  0  0  0  0  0  0  0  0  0  0
   -0.2047    1.7822   -0.9711 H   0  0  0  0  0  0  0  0  0  0  0  0
    0.6156    1.8947    0.4361 H   0  0  0  0  0  0  0  0  0  0  0  0
   -1.0726    1.8742    0.4737 H   0  0  0  0  0  0  0  0  0  0  0  0
    0.0000    0.0000    0.0000 C   0  0  0  0  0  0  0  0  0  0  0  0
   -1.0896   -0.6078    0.0000 O   0  0  0  0  0  0  0  0  0  0  0  0
    1.0896   -0.5551   -0.0000 O   0  0  0  0  0  0  0  0  0  0  0  0
   -0.5318   -2.4467    2.8745 C   0  0  0  0  0  0  0  0  0  0  0  0
   -0.6263   -3.2168    3.5335 H   0  0  0  0  0  0  0  0  0  0  0  0
   -1.2243   -1.6586    3.1701 H   0  0  0  0  0  0  0  0  0  0  0  0
    0.5128   -2.1356    2.8814 H   0  0  0  0  0  0  0  0  0  0  0  0
   -0.9214   -3.0603    1.5045 C   0  0  0  0  0  0  0  0  0  0  0  0
   -0.8423   -2.3370    0.8242 H   0  0  0  0  0  0  0  0  0  0  0  0
   -0.2261   -3.8513    1.2236 H   0  0  0  0  0  0  0  0  0  0  0  0
   -2.3598   -3.6054    1.5493 C   0  0  0  0  0  0  0  0  0  0  0  0
   -2.9760   -2.9196    1.1688 H   0  0  0  0  0  0  0  0  0  0  0  0
   -2.4038   -4.4424    1.0093 H   0  0  0  0  0  0  0  0  0  0  0  0
   -2.6020   -3.7963    2.4977 H   0  0  0  0  0  0  0  0  0  0  0  0
  1  5  1  0
  5  6  2  0
  5  7  1  0
  1  2  1  0
  1  3  1  0
  1  4  1  0
  8 12  1  0
 12 15  1  0
  8  9  1  0
  8 10  1  0
  8 11  1  0
 12 13  1  0
 12 14  1  0
 15 16  1  0
 15 17  1  0
 15 18  1  0
M  CHG  1   7  -1
V    7 [O&-]
M  END
>  <PDB_ID>  (2225) 
pdb3isr

>  <RESIDUE_NAME>  (2225) 
GLU   VAL

>  <FRAG_NAME>  (2225) 
ACET   PRPA

>  <FRAG_ATOM_NUM>  (2225) 
fragi: 7 fragj: 11

>  <atom.prop.CHAIN_ID>  (2225) 
A A A A A A A Z Z Z Z Z Z Z Z Z Z Z

>  <atom.prop.IS_HEAVY_ATOM>  (2225) 
1 0 0 0 1 1 1 1 0 0 0 1 0 0 1 0 0 0

>  <DIFUSE_FUNC_ATOM>  (2225) 
n/a

>  <FINAL_SINGLE_POINT_ENERGY>  (2225) 
0

>  <NONCOV_INTER_ENERGY_QM>  (2225) 
0

>  <FF_Energy>  (2225) 
13.4

>  <QM_Energy>  (2225) 
-2.86

>  <source>  (2225) 
ACET_PRPA_29

>  <Index>  (2225) 
20055

$$$$
ACEH-pdb3isr-B-GLH-89:PRPA-pdb3isr-B-VAL-131
     RDKit          3D

 18 16  0  0  0  0  0  0  0  0999 V2000
   -0.1786    1.4881   -0.0161 C   0  0  0  0  0  0  0  0  0  0  0  0
   -0.2047    1.7822   -0.9711 H   0  0  0  0  0  0  0  0  0  0  0  0
    0.6156    1.8947    0.4361 H   0  0  0  0  0  0  0  0  0  0  0  0
   -1.0726    1.8742    0.4737 H   0  0  0  0  0  0  0  0  0  0  0  0
    0.0000    0.0000    0.0000 C   0  0  0  0  0  0  0  0  0  0  0  0
   -1.0896   -0.6078    0.0000 O   0  0  0  0  0  0  0  0  0  0  0  0
    1.0896   -0.5551   -0.0000 O   0  0  0  0  0  0  0  0  0  0  0  0
    0.0424   -4.1569    1.1151 C   0  0  0  0  0  0  0  0  0  0  0  0
    0.7531   -4.2477    1.8144 H   0  0  0  0  0  0  0  0  0  0  0  0
   -0.4484   -5.0261    1.0307 H   0  0  0  0  0  0  0  0  0  0  0  0
    0.4716   -3.9360    0.2378 H   0  0  0  0  0  0  0  0  0  0  0  0
   -0.9214   -3.0603    1.5045 C   0  0  0  0  0  0  0  0  0  0  0  0
   -0.8423   -2.3370    0.8242 H   0  0  0  0  0  0  0  0  0  0  0  0
   -0.6476   -2.6290    2.4674 H   0  0  0  0  0  0  0  0  0  0  0  0
   -2.3598   -3.6054    1.5493 C   0  0  0  0  0  0  0  0  0  0  0  0
   -2.9760   -2.9196    1.1688 H   0  0  0  0  0  0  0  0  0  0  0  0
   -2.4038   -4.4424    1.0093 H   0  0  0  0  0  0  0  0  0  0  0  0
   -2.6020   -3.7963    2.4977 H   0  0  0  0  0  0  0  0  0  0  0  0
  1  5  1  0
  5  6  2  0
  5  7  1  0
  1  2  1  0
  1  3  1  0
  1  4  1  0
  8 12  1  0
 12 15  1  0
  8  9  1  0
  8 10  1  0
  8 11  1  0
 12 13  1  0
 12 14  1  0
 15 16  1  0
 15 17  1  0
 15 18  1  0
M  CHG  1   7  -1
V    7 [O&-]
M  END
>  <PDB_ID>  (2226) 
pdb3isr

>  <RESIDUE_NAME>  (2226) 
GLU   VAL

>  <FRAG_NAME>  (2226) 
ACET   PRPA

>  <FRAG_ATOM_NUM>  (2226) 
fragi: 7 fragj: 11

>  <atom.prop.CHAIN_ID>  (2226) 
A A A A A A A Z Z Z Z Z Z Z Z Z Z Z

>  <atom.prop.IS_HEAVY_ATOM>  (2226) 
1 0 0 0 1 1 1 1 0 0 0 1 0 0 1 0 0 0

>  <DIFUSE_FUNC_ATOM>  (2226) 
n/a

>  <FINAL_SINGLE_POINT_ENERGY>  (2226) 
0

>  <NONCOV_INTER_ENERGY_QM>  (2226) 
0

>  <FF_Energy>  (2226) 
12.72

>  <QM_Energy>  (2226) 
-2.54

>  <source>  (2226) 
ACET_PRPA_29

>  <Index>  (2226) 
20120

$$$$
ACEH-pdb2pa6-B-GLH-289:PRPA-pdb2pa6-B-LEU-337
     RDKit          3D

 18 16  0  0  0  0  0  0  0  0999 V2000
   -0.0108    1.5236    0.0102 C   0  0  0  0  0  0  0  0  0  0  0  0
    0.7958    1.8238   -0.4548 H   0  0  0  0  0  0  0  0  0  0  0  0
   -0.0418    1.8089    0.9461 H   0  0  0  0  0  0  0  0  0  0  0  0
   -0.8821    1.9245   -0.5077 H   0  0  0  0  0  0  0  0  0  0  0  0
    0.0000    0.0000    0.0000 C   0  0  0  0  0  0  0  0  0  0  0  0
   -1.0992   -0.6000    0.0000 O   0  0  0  0  0  0  0  0  0  0  0  0
    1.0992   -0.5926   -0.0000 O   0  0  0  0  0  0  0  0  0  0  0  0
    3.6512   -1.9786   -1.4986 C   0  0  0  0  0  0  0  0  0  0  0  0
    3.2965   -1.0685   -1.4079 H   0  0  0  0  0  0  0  0  0  0  0  0
    3.6575   -2.2920   -2.4265 H   0  0  0  0  0  0  0  0  0  0  0  0
    4.6773   -1.9821   -1.1308 H   0  0  0  0  0  0  0  0  0  0  0  0
    2.7329   -2.9138   -0.6992 C   0  0  0  0  0  0  0  0  0  0  0  0
    3.0968   -3.8385   -0.7416 H   0  0  0  0  0  0  0  0  0  0  0  0
    2.6919   -2.5874    0.3400 H   0  0  0  0  0  0  0  0  0  0  0  0
    1.3453   -2.9115   -1.2845 C   0  0  0  0  0  0  0  0  0  0  0  0
    1.3754   -3.2246   -2.2369 H   0  0  0  0  0  0  0  0  0  0  0  0
    0.7500   -3.5245   -0.7581 H   0  0  0  0  0  0  0  0  0  0  0  0
    0.9638   -1.9834   -1.2580 H   0  0  0  0  0  0  0  0  0  0  0  0
  1  5  1  0
  5  6  2  0
  5  7  1  0
  1  2  1  0
  1  3  1  0
  1  4  1  0
  8 12  1  0
 12 15  1  0
  8  9  1  0
  8 10  1  0
  8 11  1  0
 12 13  1  0
 12 14  1  0
 15 16  1  0
 15 17  1  0
 15 18  1  0
M  CHG  1   7  -1
V    7 [O&-]
M  END
>  <PDB_ID>  (2227) 
pdb2pa6

>  <RESIDUE_NAME>  (2227) 
GLU   LEU

>  <FRAG_NAME>  (2227) 
ACET   PRPA

>  <FRAG_ATOM_NUM>  (2227) 
fragi: 7 fragj: 11

>  <atom.prop.CHAIN_ID>  (2227) 
A A A A A A A Z Z Z Z Z Z Z Z Z Z Z

>  <atom.prop.IS_HEAVY_ATOM>  (2227) 
1 0 0 0 1 1 1 1 0 0 0 1 0 0 1 0 0 0

>  <DIFUSE_FUNC_ATOM>  (2227) 
n/a

>  <FINAL_SINGLE_POINT_ENERGY>  (2227) 
0

>  <NONCOV_INTER_ENERGY_QM>  (2227) 
0

>  <FF_Energy>  (2227) 
21.36

>  <QM_Energy>  (2227) 
0.23

>  <source>  (2227) 
ACET_PRPA_29

>  <Index>  (2227) 
20184

$$$$
ACEH-pdb3i4k-D-GLH-52:PRPA-pdb3i4k-D-GLU-306
     RDKit          3D

 18 16  0  0  0  0  0  0  0  0999 V2000
    0.0212    1.5265    0.0142 C   0  0  0  0  0  0  0  0  0  0  0  0
    0.1646    1.8078    0.9383 H   0  0  0  0  0  0  0  0  0  0  0  0
   -0.8283    1.8327   -0.3574 H   0  0  0  0  0  0  0  0  0  0  0  0
    0.8332    1.9175   -0.5990 H   0  0  0  0  0  0  0  0  0  0  0  0
    0.0000    0.0000    0.0000 C   0  0  0  0  0  0  0  0  0  0  0  0
   -1.0972   -0.5988    0.0000 O   0  0  0  0  0  0  0  0  0  0  0  0
    1.0972   -0.6081   -0.0000 O   0  0  0  0  0  0  0  0  0  0  0  0
    0.4787   -3.2006    1.1526 C   0  0  0  0  0  0  0  0  0  0  0  0
   -0.0020   -2.3595    1.4242 H   0  0  0  0  0  0  0  0  0  0  0  0
    0.4519   -3.9217    1.9695 H   0  0  0  0  0  0  0  0  0  0  0  0
    0.0076   -3.6154    0.2616 H   0  0  0  0  0  0  0  0  0  0  0  0
    1.9250   -2.8347    0.7968 C   0  0  0  0  0  0  0  0  0  0  0  0
    2.4129   -3.6813    0.6199 H   0  0  0  0  0  0  0  0  0  0  0  0
    1.8990   -2.2677   -0.0167 H   0  0  0  0  0  0  0  0  0  0  0  0
    2.7085   -2.0714    1.8610 C   0  0  0  0  0  0  0  0  0  0  0  0
    3.3644   -1.4944    1.4060 H   0  0  0  0  0  0  0  0  0  0  0  0
    2.0702   -1.5475    2.3995 H   0  0  0  0  0  0  0  0  0  0  0  0
    3.2602   -2.7155    2.5458 H   0  0  0  0  0  0  0  0  0  0  0  0
  1  5  1  0
  5  6  2  0
  5  7  1  0
  1  2  1  0
  1  3  1  0
  1  4  1  0
  8 12  1  0
 12 15  1  0
  8  9  1  0
  8 10  1  0
  8 11  1  0
 12 13  1  0
 12 14  1  0
 15 16  1  0
 15 17  1  0
 15 18  1  0
M  CHG  1   7  -1
V    7 [O&-]
M  END
>  <PDB_ID>  (2228) 
pdb3i4k

>  <RESIDUE_NAME>  (2228) 
GLU   GLU

>  <FRAG_NAME>  (2228) 
ACET   PRPA

>  <FRAG_ATOM_NUM>  (2228) 
fragi: 7 fragj: 11

>  <atom.prop.CHAIN_ID>  (2228) 
A A A A A A A Z Z Z Z Z Z Z Z Z Z Z

>  <atom.prop.IS_HEAVY_ATOM>  (2228) 
1 0 0 0 1 1 1 1 0 0 0 1 0 0 1 0 0 0

>  <DIFUSE_FUNC_ATOM>  (2228) 
n/a

>  <FINAL_SINGLE_POINT_ENERGY>  (2228) 
0

>  <NONCOV_INTER_ENERGY_QM>  (2228) 
0

>  <FF_Energy>  (2228) 
35.05

>  <QM_Energy>  (2228) 
2.03

>  <source>  (2228) 
ACET_PRPA_29

>  <Index>  (2228) 
20325

$$$$
ACEH-pdb3ju8-A-GLH-88:PRPA-pdb3ju8-A-VAL-30
     RDKit          3D

 18 16  0  0  0  0  0  0  0  0999 V2000
   -0.0227    1.5105    0.0315 C   0  0  0  0  0  0  0  0  0  0  0  0
   -0.3226    1.7817    0.9336 H   0  0  0  0  0  0  0  0  0  0  0  0
   -0.6582    1.8090   -0.6636 H   0  0  0  0  0  0  0  0  0  0  0  0
    0.9507    1.9606   -0.1635 H   0  0  0  0  0  0  0  0  0  0  0  0
    0.0000    0.0000    0.0000 C   0  0  0  0  0  0  0  0  0  0  0  0
   -1.1034   -0.5742   -0.0000 O   0  0  0  0  0  0  0  0  0  0  0  0
    1.1034   -0.6018   -0.0000 O   0  0  0  0  0  0  0  0  0  0  0  0
   -2.7628    1.9741   -2.0191 C   0  0  0  0  0  0  0  0  0  0  0  0
   -2.4385    2.4367   -2.8510 H   0  0  0  0  0  0  0  0  0  0  0  0
   -1.9665    1.7476   -1.4490 H   0  0  0  0  0  0  0  0  0  0  0  0
   -3.2185    1.1193   -2.2860 H   0  0  0  0  0  0  0  0  0  0  0  0
   -3.7048    2.8523   -1.2701 C   0  0  0  0  0  0  0  0  0  0  0  0
   -3.6058    2.6517   -0.2970 H   0  0  0  0  0  0  0  0  0  0  0  0
   -4.7380    2.6302   -1.5367 H   0  0  0  0  0  0  0  0  0  0  0  0
   -3.4102    4.3380   -1.5633 C   0  0  0  0  0  0  0  0  0  0  0  0
   -2.6695    4.3915   -2.2279 H   0  0  0  0  0  0  0  0  0  0  0  0
   -4.2343    4.7611   -1.9309 H   0  0  0  0  0  0  0  0  0  0  0  0
   -3.1429    4.7850   -0.7133 H   0  0  0  0  0  0  0  0  0  0  0  0
  1  5  1  0
  5  6  2  0
  5  7  1  0
  1  2  1  0
  1  3  1  0
  1  4  1  0
  8 12  1  0
 12 15  1  0
  8  9  1  0
  8 10  1  0
  8 11  1  0
 12 13  1  0
 12 14  1  0
 15 16  1  0
 15 17  1  0
 15 18  1  0
M  CHG  1   7  -1
V    7 [O&-]
M  END
>  <PDB_ID>  (2229) 
pdb3ju8

>  <RESIDUE_NAME>  (2229) 
GLU   VAL

>  <FRAG_NAME>  (2229) 
ACET   PRPA

>  <FRAG_ATOM_NUM>  (2229) 
fragi: 7 fragj: 11

>  <atom.prop.CHAIN_ID>  (2229) 
A A A A A A A Z Z Z Z Z Z Z Z Z Z Z

>  <atom.prop.IS_HEAVY_ATOM>  (2229) 
1 0 0 0 1 1 1 1 0 0 0 1 0 0 1 0 0 0

>  <DIFUSE_FUNC_ATOM>  (2229) 
n/a

>  <FINAL_SINGLE_POINT_ENERGY>  (2229) 
0

>  <NONCOV_INTER_ENERGY_QM>  (2229) 
0

>  <FF_Energy>  (2229) 
20.62

>  <QM_Energy>  (2229) 
1.69

>  <source>  (2229) 
ACET_PRPA_29

>  <Index>  (2229) 
22800

$$$$
ACEH-pdb3ju8-A-GLH-88:PRPA-pdb3ju8-A-LYS-177
     RDKit          3D

 18 16  0  0  0  0  0  0  0  0999 V2000
   -0.0227    1.5105    0.0315 C   0  0  0  0  0  0  0  0  0  0  0  0
   -0.3226    1.7817    0.9336 H   0  0  0  0  0  0  0  0  0  0  0  0
   -0.6582    1.8090   -0.6636 H   0  0  0  0  0  0  0  0  0  0  0  0
    0.9507    1.9606   -0.1635 H   0  0  0  0  0  0  0  0  0  0  0  0
    0.0000    0.0000    0.0000 C   0  0  0  0  0  0  0  0  0  0  0  0
   -1.1034   -0.5742   -0.0000 O   0  0  0  0  0  0  0  0  0  0  0  0
    1.1034   -0.6018   -0.0000 O   0  0  0  0  0  0  0  0  0  0  0  0
   -0.7809   -3.2521   -1.3283 C   0  0  0  0  0  0  0  0  0  0  0  0
   -1.4414   -3.9641   -1.5547 H   0  0  0  0  0  0  0  0  0  0  0  0
   -0.6963   -3.1915   -0.2433 H   0  0  0  0  0  0  0  0  0  0  0  0
    0.1899   -3.5182   -1.7463 H   0  0  0  0  0  0  0  0  0  0  0  0
   -1.3015   -1.9400   -1.9489 C   0  0  0  0  0  0  0  0  0  0  0  0
   -2.0832   -1.6391   -1.4447 H   0  0  0  0  0  0  0  0  0  0  0  0
   -0.5747   -1.2859   -1.9606 H   0  0  0  0  0  0  0  0  0  0  0  0
   -1.7525   -2.1750   -3.4282 C   0  0  0  0  0  0  0  0  0  0  0  0
   -1.0102   -2.6281   -3.9101 H   0  0  0  0  0  0  0  0  0  0  0  0
   -2.5621   -2.7525   -3.4179 H   0  0  0  0  0  0  0  0  0  0  0  0
   -1.9863   -1.2365   -3.9309 H   0  0  0  0  0  0  0  0  0  0  0  0
  1  5  1  0
  5  6  2  0
  5  7  1  0
  1  2  1  0
  1  3  1  0
  1  4  1  0
  8 12  1  0
 12 15  1  0
  8  9  1  0
  8 10  1  0
  8 11  1  0
 12 13  1  0
 12 14  1  0
 15 16  1  0
 15 17  1  0
 15 18  1  0
M  CHG  1   7  -1
V    7 [O&-]
M  END
>  <PDB_ID>  (2230) 
pdb3ju8

>  <RESIDUE_NAME>  (2230) 
GLU   LYS

>  <FRAG_NAME>  (2230) 
ACET   PRPA

>  <FRAG_ATOM_NUM>  (2230) 
fragi: 7 fragj: 11

>  <atom.prop.CHAIN_ID>  (2230) 
A A A A A A A Z Z Z Z Z Z Z Z Z Z Z

>  <atom.prop.IS_HEAVY_ATOM>  (2230) 
1 0 0 0 1 1 1 1 0 0 0 1 0 0 1 0 0 0

>  <DIFUSE_FUNC_ATOM>  (2230) 
n/a

>  <FINAL_SINGLE_POINT_ENERGY>  (2230) 
0

>  <NONCOV_INTER_ENERGY_QM>  (2230) 
0

>  <FF_Energy>  (2230) 
26.57

>  <QM_Energy>  (2230) 
6.31

>  <source>  (2230) 
ACET_PRPA_29

>  <Index>  (2230) 
23037

$$$$
ACEH-pdb3ju8-A-GLH-88:PRPA-pdb3ju8-A-LYS-177
     RDKit          3D

 18 16  0  0  0  0  0  0  0  0999 V2000
   -0.0227    1.5105    0.0315 C   0  0  0  0  0  0  0  0  0  0  0  0
   -0.3226    1.7817    0.9336 H   0  0  0  0  0  0  0  0  0  0  0  0
   -0.6582    1.8090   -0.6636 H   0  0  0  0  0  0  0  0  0  0  0  0
    0.9507    1.9606   -0.1635 H   0  0  0  0  0  0  0  0  0  0  0  0
    0.0000    0.0000    0.0000 C   0  0  0  0  0  0  0  0  0  0  0  0
   -1.1034   -0.5742   -0.0000 O   0  0  0  0  0  0  0  0  0  0  0  0
    1.1034   -0.6018   -0.0000 O   0  0  0  0  0  0  0  0  0  0  0  0
   -1.3015   -1.9400   -1.9489 C   0  0  0  0  0  0  0  0  0  0  0  0
   -2.0832   -1.6391   -1.4447 H   0  0  0  0  0  0  0  0  0  0  0  0
   -0.5747   -1.2859   -1.9606 H   0  0  0  0  0  0  0  0  0  0  0  0
   -0.9335   -2.8674   -1.5102 H   0  0  0  0  0  0  0  0  0  0  0  0
   -1.7525   -2.1750   -3.4282 C   0  0  0  0  0  0  0  0  0  0  0  0
   -1.0102   -2.6281   -3.9101 H   0  0  0  0  0  0  0  0  0  0  0  0
   -2.5621   -2.7525   -3.4179 H   0  0  0  0  0  0  0  0  0  0  0  0
   -2.0817   -0.8535   -4.1359 C   0  0  0  0  0  0  0  0  0  0  0  0
   -2.8041   -0.3912   -3.6326 H   0  0  0  0  0  0  0  0  0  0  0  0
   -1.2630   -0.2896   -4.1624 H   0  0  0  0  0  0  0  0  0  0  0  0
   -2.4238   -1.0048   -5.1598 H   0  0  0  0  0  0  0  0  0  0  0  0
  1  5  1  0
  5  6  2  0
  5  7  1  0
  1  2  1  0
  1  3  1  0
  1  4  1  0
  8 12  1  0
 12 15  1  0
  8  9  1  0
  8 10  1  0
  8 11  1  0
 12 13  1  0
 12 14  1  0
 15 16  1  0
 15 17  1  0
 15 18  1  0
M  CHG  1   7  -1
V    7 [O&-]
M  END
>  <PDB_ID>  (2231) 
pdb3ju8

>  <RESIDUE_NAME>  (2231) 
GLU   LYS

>  <FRAG_NAME>  (2231) 
ACET   PRPA

>  <FRAG_ATOM_NUM>  (2231) 
fragi: 7 fragj: 11

>  <atom.prop.CHAIN_ID>  (2231) 
A A A A A A A Z Z Z Z Z Z Z Z Z Z Z

>  <atom.prop.IS_HEAVY_ATOM>  (2231) 
1 0 0 0 1 1 1 1 0 0 0 1 0 0 1 0 0 0

>  <DIFUSE_FUNC_ATOM>  (2231) 
n/a

>  <FINAL_SINGLE_POINT_ENERGY>  (2231) 
0

>  <NONCOV_INTER_ENERGY_QM>  (2231) 
0

>  <FF_Energy>  (2231) 
28.25

>  <QM_Energy>  (2231) 
7.75

>  <source>  (2231) 
ACET_PRPA_29

>  <Index>  (2231) 
23096

$$$$
ACEH-pdb4n7q-A-GLH-401:PRPA-pdb4n7q-A-LEU-385
     RDKit          3D

 18 16  0  0  0  0  0  0  0  0999 V2000
   -0.0093    1.4994   -0.0130 C   0  0  0  0  0  0  0  0  0  0  0  0
   -0.3543    1.7924   -0.8830 H   0  0  0  0  0  0  0  0  0  0  0  0
    0.9081    1.8094    0.1507 H   0  0  0  0  0  0  0  0  0  0  0  0
   -0.6530    1.9080    0.7659 H   0  0  0  0  0  0  0  0  0  0  0  0
    0.0000    0.0000    0.0000 C   0  0  0  0  0  0  0  0  0  0  0  0
   -1.1025   -0.5978   -0.0000 O   0  0  0  0  0  0  0  0  0  0  0  0
    1.1025   -0.5803    0.0000 O   0  0  0  0  0  0  0  0  0  0  0  0
   -2.8663   -2.9135    0.1452 C   0  0  0  0  0  0  0  0  0  0  0  0
   -3.5051   -3.6338    0.4590 H   0  0  0  0  0  0  0  0  0  0  0  0
   -1.9111   -3.0501    0.6521 H   0  0  0  0  0  0  0  0  0  0  0  0
   -2.7770   -2.9894   -0.9384 H   0  0  0  0  0  0  0  0  0  0  0  0
   -3.4967   -1.5636    0.5242 C   0  0  0  0  0  0  0  0  0  0  0  0
   -2.9164   -0.8503    0.1774 H   0  0  0  0  0  0  0  0  0  0  0  0
   -4.4001   -1.5321    0.1408 H   0  0  0  0  0  0  0  0  0  0  0  0
   -3.6270   -1.3612    2.0387 C   0  0  0  0  0  0  0  0  0  0  0  0
   -2.7128   -1.3569    2.4453 H   0  0  0  0  0  0  0  0  0  0  0  0
   -4.1263   -0.4188    2.2639 H   0  0  0  0  0  0  0  0  0  0  0  0
   -4.1718   -2.1993    2.4733 H   0  0  0  0  0  0  0  0  0  0  0  0
  1  5  1  0
  5  6  2  0
  5  7  1  0
  1  2  1  0
  1  3  1  0
  1  4  1  0
  8 12  1  0
 12 15  1  0
  8  9  1  0
  8 10  1  0
  8 11  1  0
 12 13  1  0
 12 14  1  0
 15 16  1  0
 15 17  1  0
 15 18  1  0
M  CHG  1   7  -1
V    7 [O&-]
M  END
>  <PDB_ID>  (2232) 
pdb4n7q

>  <RESIDUE_NAME>  (2232) 
GLU   LEU

>  <FRAG_NAME>  (2232) 
ACET   PRPA

>  <FRAG_ATOM_NUM>  (2232) 
fragi: 7 fragj: 11

>  <atom.prop.CHAIN_ID>  (2232) 
A A A A A A A Z Z Z Z Z Z Z Z Z Z Z

>  <atom.prop.IS_HEAVY_ATOM>  (2232) 
1 0 0 0 1 1 1 1 0 0 0 1 0 0 1 0 0 0

>  <DIFUSE_FUNC_ATOM>  (2232) 
n/a

>  <FINAL_SINGLE_POINT_ENERGY>  (2232) 
0

>  <NONCOV_INTER_ENERGY_QM>  (2232) 
0

>  <FF_Energy>  (2232) 
29.21

>  <QM_Energy>  (2232) 
0.04

>  <source>  (2232) 
ACET_PRPA_29

>  <Index>  (2232) 
23192

$$$$
ACEH-pdb4n7q-A-GLH-401:PRPA-pdb4n7q-A-LEU-385
     RDKit          3D

 18 16  0  0  0  0  0  0  0  0999 V2000
   -0.0093    1.4994   -0.0130 C   0  0  0  0  0  0  0  0  0  0  0  0
   -0.3543    1.7924   -0.8830 H   0  0  0  0  0  0  0  0  0  0  0  0
    0.9081    1.8094    0.1507 H   0  0  0  0  0  0  0  0  0  0  0  0
   -0.6530    1.9080    0.7659 H   0  0  0  0  0  0  0  0  0  0  0  0
    0.0000    0.0000    0.0000 C   0  0  0  0  0  0  0  0  0  0  0  0
   -1.1025   -0.5978   -0.0000 O   0  0  0  0  0  0  0  0  0  0  0  0
    1.1025   -0.5803    0.0000 O   0  0  0  0  0  0  0  0  0  0  0  0
   -3.4967   -1.5636    0.5242 C   0  0  0  0  0  0  0  0  0  0  0  0
   -2.9164   -0.8503    0.1774 H   0  0  0  0  0  0  0  0  0  0  0  0
   -4.4001   -1.5321    0.1408 H   0  0  0  0  0  0  0  0  0  0  0  0
   -3.0497   -2.5208    0.2555 H   0  0  0  0  0  0  0  0  0  0  0  0
   -3.6270   -1.3612    2.0387 C   0  0  0  0  0  0  0  0  0  0  0  0
   -2.7128   -1.3569    2.4453 H   0  0  0  0  0  0  0  0  0  0  0  0
   -4.1718   -2.1993    2.4733 H   0  0  0  0  0  0  0  0  0  0  0  0
   -4.3262   -0.0415    2.3541 C   0  0  0  0  0  0  0  0  0  0  0  0
   -5.2404   -0.0455    1.9505 H   0  0  0  0  0  0  0  0  0  0  0  0
   -4.3988    0.0676    3.3444 H   0  0  0  0  0  0  0  0  0  0  0  0
   -3.7949    0.7144    1.9728 H   0  0  0  0  0  0  0  0  0  0  0  0
  1  5  1  0
  5  6  2  0
  5  7  1  0
  1  2  1  0
  1  3  1  0
  1  4  1  0
  8 12  1  0
 12 15  1  0
  8  9  1  0
  8 10  1  0
  8 11  1  0
 12 13  1  0
 12 14  1  0
 15 16  1  0
 15 17  1  0
 15 18  1  0
M  CHG  1   7  -1
V    7 [O&-]
M  END
>  <PDB_ID>  (2233) 
pdb4n7q

>  <RESIDUE_NAME>  (2233) 
GLU   LEU

>  <FRAG_NAME>  (2233) 
ACET   PRPA

>  <FRAG_ATOM_NUM>  (2233) 
fragi: 7 fragj: 11

>  <atom.prop.CHAIN_ID>  (2233) 
A A A A A A A Z Z Z Z Z Z Z Z Z Z Z

>  <atom.prop.IS_HEAVY_ATOM>  (2233) 
1 0 0 0 1 1 1 1 0 0 0 1 0 0 1 0 0 0

>  <DIFUSE_FUNC_ATOM>  (2233) 
n/a

>  <FINAL_SINGLE_POINT_ENERGY>  (2233) 
0

>  <NONCOV_INTER_ENERGY_QM>  (2233) 
0

>  <FF_Energy>  (2233) 
24.31

>  <QM_Energy>  (2233) 
0.79

>  <source>  (2233) 
ACET_PRPA_29

>  <Index>  (2233) 
23246

$$$$
ACEH-pdb4n7q-A-GLH-401:PRPA-pdb4n7q-A-LEU-385
     RDKit          3D

 18 16  0  0  0  0  0  0  0  0999 V2000
   -0.0093    1.4994   -0.0130 C   0  0  0  0  0  0  0  0  0  0  0  0
   -0.3543    1.7924   -0.8830 H   0  0  0  0  0  0  0  0  0  0  0  0
    0.9081    1.8094    0.1507 H   0  0  0  0  0  0  0  0  0  0  0  0
   -0.6530    1.9080    0.7659 H   0  0  0  0  0  0  0  0  0  0  0  0
    0.0000    0.0000    0.0000 C   0  0  0  0  0  0  0  0  0  0  0  0
   -1.1025   -0.5978   -0.0000 O   0  0  0  0  0  0  0  0  0  0  0  0
    1.1025   -0.5803    0.0000 O   0  0  0  0  0  0  0  0  0  0  0  0
   -3.4967   -1.5636    0.5242 C   0  0  0  0  0  0  0  0  0  0  0  0
   -2.9164   -0.8503    0.1774 H   0  0  0  0  0  0  0  0  0  0  0  0
   -4.4001   -1.5321    0.1408 H   0  0  0  0  0  0  0  0  0  0  0  0
   -3.0497   -2.5208    0.2555 H   0  0  0  0  0  0  0  0  0  0  0  0
   -3.6270   -1.3612    2.0387 C   0  0  0  0  0  0  0  0  0  0  0  0
   -2.7128   -1.3569    2.4453 H   0  0  0  0  0  0  0  0  0  0  0  0
   -4.1263   -0.4188    2.2639 H   0  0  0  0  0  0  0  0  0  0  0  0
   -4.3830   -2.5243    2.6417 C   0  0  0  0  0  0  0  0  0  0  0  0
   -3.8901   -3.3783    2.4637 H   0  0  0  0  0  0  0  0  0  0  0  0
   -4.4699   -2.3956    3.6323 H   0  0  0  0  0  0  0  0  0  0  0  0
   -5.2971   -2.5811    2.2358 H   0  0  0  0  0  0  0  0  0  0  0  0
  1  5  1  0
  5  6  2  0
  5  7  1  0
  1  2  1  0
  1  3  1  0
  1  4  1  0
  8 12  1  0
 12 15  1  0
  8  9  1  0
  8 10  1  0
  8 11  1  0
 12 13  1  0
 12 14  1  0
 15 16  1  0
 15 17  1  0
 15 18  1  0
M  CHG  1   7  -1
V    7 [O&-]
M  END
>  <PDB_ID>  (2234) 
pdb4n7q

>  <RESIDUE_NAME>  (2234) 
GLU   LEU

>  <FRAG_NAME>  (2234) 
ACET   PRPA

>  <FRAG_ATOM_NUM>  (2234) 
fragi: 7 fragj: 11

>  <atom.prop.CHAIN_ID>  (2234) 
A A A A A A A Z Z Z Z Z Z Z Z Z Z Z

>  <atom.prop.IS_HEAVY_ATOM>  (2234) 
1 0 0 0 1 1 1 1 0 0 0 1 0 0 1 0 0 0

>  <DIFUSE_FUNC_ATOM>  (2234) 
n/a

>  <FINAL_SINGLE_POINT_ENERGY>  (2234) 
0

>  <NONCOV_INTER_ENERGY_QM>  (2234) 
0

>  <FF_Energy>  (2234) 
24.12

>  <QM_Energy>  (2234) 
1.35

>  <source>  (2234) 
ACET_PRPA_29

>  <Index>  (2234) 
23297

$$$$
ACEH-pdb2psn-A-GLH-292:PRPA-pdb2psn-A-LEU-340
     RDKit          3D

 18 16  0  0  0  0  0  0  0  0999 V2000
    0.0226    1.5242   -0.0038 C   0  0  0  0  0  0  0  0  0  0  0  0
   -0.8161    1.8355    0.3825 H   0  0  0  0  0  0  0  0  0  0  0  0
    0.1666    1.8171   -0.9215 H   0  0  0  0  0  0  0  0  0  0  0  0
    0.8389    1.9086    0.6079 H   0  0  0  0  0  0  0  0  0  0  0  0
    0.0000    0.0000    0.0000 C   0  0  0  0  0  0  0  0  0  0  0  0
   -1.0982   -0.5982   -0.0000 O   0  0  0  0  0  0  0  0  0  0  0  0
    1.0982   -0.6060    0.0000 O   0  0  0  0  0  0  0  0  0  0  0  0
   -3.5810   -1.7540   -0.0642 C   0  0  0  0  0  0  0  0  0  0  0  0
   -3.1207   -0.8899   -0.0439 H   0  0  0  0  0  0  0  0  0  0  0  0
   -3.9596   -2.0069    0.8018 H   0  0  0  0  0  0  0  0  0  0  0  0
   -4.3904   -1.6964   -0.7919 H   0  0  0  0  0  0  0  0  0  0  0  0
   -2.5253   -2.8257   -0.4329 C   0  0  0  0  0  0  0  0  0  0  0  0
   -2.9930   -3.6594   -0.6812 H   0  0  0  0  0  0  0  0  0  0  0  0
   -1.9463   -2.4626   -1.2820 H   0  0  0  0  0  0  0  0  0  0  0  0
   -1.5496   -3.0945    0.7240 C   0  0  0  0  0  0  0  0  0  0  0  0
   -2.0631   -3.4175    1.5164 H   0  0  0  0  0  0  0  0  0  0  0  0
   -0.8909   -3.7888    0.4410 H   0  0  0  0  0  0  0  0  0  0  0  0
   -1.0722   -2.2480    0.9526 H   0  0  0  0  0  0  0  0  0  0  0  0
  1  5  1  0
  5  6  2  0
  5  7  1  0
  1  2  1  0
  1  3  1  0
  1  4  1  0
  8 12  1  0
 12 15  1  0
  8  9  1  0
  8 10  1  0
  8 11  1  0
 12 13  1  0
 12 14  1  0
 15 16  1  0
 15 17  1  0
 15 18  1  0
M  CHG  1   7  -1
V    7 [O&-]
M  END
>  <PDB_ID>  (2235) 
pdb2psn

>  <RESIDUE_NAME>  (2235) 
GLU   LEU

>  <FRAG_NAME>  (2235) 
ACET   PRPA

>  <FRAG_ATOM_NUM>  (2235) 
fragi: 7 fragj: 11

>  <atom.prop.CHAIN_ID>  (2235) 
A A A A A A A Z Z Z Z Z Z Z Z Z Z Z

>  <atom.prop.IS_HEAVY_ATOM>  (2235) 
1 0 0 0 1 1 1 1 0 0 0 1 0 0 1 0 0 0

>  <DIFUSE_FUNC_ATOM>  (2235) 
n/a

>  <FINAL_SINGLE_POINT_ENERGY>  (2235) 
0

>  <NONCOV_INTER_ENERGY_QM>  (2235) 
0

>  <FF_Energy>  (2235) 
29.88

>  <QM_Energy>  (2235) 
2.93

>  <source>  (2235) 
ACET_PRPA_29

>  <Index>  (2235) 
24330

$$$$
ACEH-pdb2pqm-A-GLH-217:PRPA-pdb2pqm-A-ILE-254
     RDKit          3D

 18 16  0  0  0  0  0  0  0  0999 V2000
   -0.0404    1.5464   -0.0206 C   0  0  0  0  0  0  0  0  0  0  0  0
   -0.6107    1.8359    0.7202 H   0  0  0  0  0  0  0  0  0  0  0  0
   -0.3839    1.8194   -0.8961 H   0  0  0  0  0  0  0  0  0  0  0  0
    0.9364    2.0113    0.1127 H   0  0  0  0  0  0  0  0  0  0  0  0
    0.0000    0.0000    0.0000 C   0  0  0  0  0  0  0  0  0  0  0  0
   -1.0958   -0.6073    0.0000 O   0  0  0  0  0  0  0  0  0  0  0  0
    1.0958   -0.5954    0.0000 O   0  0  0  0  0  0  0  0  0  0  0  0
   -5.2279    1.2043   -2.0380 C   0  0  0  0  0  0  0  0  0  0  0  0
   -5.1273    2.1872   -1.9970 H   0  0  0  0  0  0  0  0  0  0  0  0
   -6.2862    1.0128   -2.2153 H   0  0  0  0  0  0  0  0  0  0  0  0
   -4.6969    0.8725   -2.9301 H   0  0  0  0  0  0  0  0  0  0  0  0
   -4.6935    0.4559   -0.8080 C   0  0  0  0  0  0  0  0  0  0  0  0
   -4.8185   -0.5205   -0.9608 H   0  0  0  0  0  0  0  0  0  0  0  0
   -5.2520    0.7276    0.0876 H   0  0  0  0  0  0  0  0  0  0  0  0
   -3.1654    0.7047   -0.6490 C   0  0  0  0  0  0  0  0  0  0  0  0
   -2.8332    0.1564    0.1088 H   0  0  0  0  0  0  0  0  0  0  0  0
   -2.7122    0.4404   -1.4922 H   0  0  0  0  0  0  0  0  0  0  0  0
   -3.0192    1.6693   -0.4671 H   0  0  0  0  0  0  0  0  0  0  0  0
  1  5  1  0
  5  6  2  0
  5  7  1  0
  1  2  1  0
  1  3  1  0
  1  4  1  0
  8 12  1  0
 12 15  1  0
  8  9  1  0
  8 10  1  0
  8 11  1  0
 12 13  1  0
 12 14  1  0
 15 16  1  0
 15 17  1  0
 15 18  1  0
M  CHG  1   7  -1
V    7 [O&-]
M  END
>  <PDB_ID>  (2236) 
pdb2pqm

>  <RESIDUE_NAME>  (2236) 
GLU   ILE

>  <FRAG_NAME>  (2236) 
ACET   PRPA

>  <FRAG_ATOM_NUM>  (2236) 
fragi: 7 fragj: 11

>  <atom.prop.CHAIN_ID>  (2236) 
A A A A A A A Z Z Z Z Z Z Z Z Z Z Z

>  <atom.prop.IS_HEAVY_ATOM>  (2236) 
1 0 0 0 1 1 1 1 0 0 0 1 0 0 1 0 0 0

>  <DIFUSE_FUNC_ATOM>  (2236) 
n/a

>  <FINAL_SINGLE_POINT_ENERGY>  (2236) 
0

>  <NONCOV_INTER_ENERGY_QM>  (2236) 
0

>  <FF_Energy>  (2236) 
21.72

>  <QM_Energy>  (2236) 
6.15

>  <source>  (2236) 
ACET_PRPA_29

>  <Index>  (2236) 
24567

$$$$
ACEH-pdb2pqm-A-GLH-217:PRPA-pdb2pqm-A-ILE-254
     RDKit          3D

 18 16  0  0  0  0  0  0  0  0999 V2000
   -0.0404    1.5464   -0.0206 C   0  0  0  0  0  0  0  0  0  0  0  0
   -0.6107    1.8359    0.7202 H   0  0  0  0  0  0  0  0  0  0  0  0
   -0.3839    1.8194   -0.8961 H   0  0  0  0  0  0  0  0  0  0  0  0
    0.9364    2.0113    0.1127 H   0  0  0  0  0  0  0  0  0  0  0  0
    0.0000    0.0000    0.0000 C   0  0  0  0  0  0  0  0  0  0  0  0
   -1.0958   -0.6073    0.0000 O   0  0  0  0  0  0  0  0  0  0  0  0
    1.0958   -0.5954    0.0000 O   0  0  0  0  0  0  0  0  0  0  0  0
   -5.4802    0.8386    0.4535 C   0  0  0  0  0  0  0  0  0  0  0  0
   -5.1092    1.6833    0.8184 H   0  0  0  0  0  0  0  0  0  0  0  0
   -6.4325    0.9704    0.2047 H   0  0  0  0  0  0  0  0  0  0  0  0
   -5.4343    0.0772    1.2322 H   0  0  0  0  0  0  0  0  0  0  0  0
   -4.6935    0.4559   -0.8080 C   0  0  0  0  0  0  0  0  0  0  0  0
   -4.8185   -0.5205   -0.9608 H   0  0  0  0  0  0  0  0  0  0  0  0
   -5.0728    0.9870   -1.6809 H   0  0  0  0  0  0  0  0  0  0  0  0
   -3.1654    0.7047   -0.6490 C   0  0  0  0  0  0  0  0  0  0  0  0
   -2.8332    0.1564    0.1088 H   0  0  0  0  0  0  0  0  0  0  0  0
   -2.7122    0.4404   -1.4922 H   0  0  0  0  0  0  0  0  0  0  0  0
   -3.0192    1.6693   -0.4671 H   0  0  0  0  0  0  0  0  0  0  0  0
  1  5  1  0
  5  6  2  0
  5  7  1  0
  1  2  1  0
  1  3  1  0
  1  4  1  0
  8 12  1  0
 12 15  1  0
  8  9  1  0
  8 10  1  0
  8 11  1  0
 12 13  1  0
 12 14  1  0
 15 16  1  0
 15 17  1  0
 15 18  1  0
M  CHG  1   7  -1
V    7 [O&-]
M  END
>  <PDB_ID>  (2237) 
pdb2pqm

>  <RESIDUE_NAME>  (2237) 
GLU   ILE

>  <FRAG_NAME>  (2237) 
ACET   PRPA

>  <FRAG_ATOM_NUM>  (2237) 
fragi: 7 fragj: 11

>  <atom.prop.CHAIN_ID>  (2237) 
A A A A A A A Z Z Z Z Z Z Z Z Z Z Z

>  <atom.prop.IS_HEAVY_ATOM>  (2237) 
1 0 0 0 1 1 1 1 0 0 0 1 0 0 1 0 0 0

>  <DIFUSE_FUNC_ATOM>  (2237) 
n/a

>  <FINAL_SINGLE_POINT_ENERGY>  (2237) 
0

>  <NONCOV_INTER_ENERGY_QM>  (2237) 
0

>  <FF_Energy>  (2237) 
21.79

>  <QM_Energy>  (2237) 
6.27

>  <source>  (2237) 
ACET_PRPA_29

>  <Index>  (2237) 
24697

$$$$
ACEH-pdb2p88-B-GLH-298:PRPA-pdb2p88-B-VAL-49
     RDKit          3D

 18 16  0  0  0  0  0  0  0  0999 V2000
   -0.0272    1.5174   -0.0076 C   0  0  0  0  0  0  0  0  0  0  0  0
   -0.4847    1.8113    0.8170 H   0  0  0  0  0  0  0  0  0  0  0  0
   -0.5204    1.8019   -0.8145 H   0  0  0  0  0  0  0  0  0  0  0  0
    0.9584    1.9820   -0.0308 H   0  0  0  0  0  0  0  0  0  0  0  0
    0.0000    0.0000    0.0000 C   0  0  0  0  0  0  0  0  0  0  0  0
   -1.0949   -0.5973    0.0000 O   0  0  0  0  0  0  0  0  0  0  0  0
    1.0949   -0.5994    0.0000 O   0  0  0  0  0  0  0  0  0  0  0  0
   -3.3020    3.3684    3.9451 C   0  0  0  0  0  0  0  0  0  0  0  0
   -3.4312    4.2142    4.4355 H   0  0  0  0  0  0  0  0  0  0  0  0
   -2.8090    2.6551    4.6056 H   0  0  0  0  0  0  0  0  0  0  0  0
   -4.2826    2.9359    3.7472 H   0  0  0  0  0  0  0  0  0  0  0  0
   -2.4813    3.6138    2.6533 C   0  0  0  0  0  0  0  0  0  0  0  0
   -1.7551    4.2492    2.8862 H   0  0  0  0  0  0  0  0  0  0  0  0
   -3.1130    4.0230    1.8649 H   0  0  0  0  0  0  0  0  0  0  0  0
   -1.8514    2.3346    2.2144 C   0  0  0  0  0  0  0  0  0  0  0  0
   -0.8526    2.3843    2.3168 H   0  0  0  0  0  0  0  0  0  0  0  0
   -2.1936    1.5686    2.7685 H   0  0  0  0  0  0  0  0  0  0  0  0
   -2.0656    2.1529    1.2501 H   0  0  0  0  0  0  0  0  0  0  0  0
  1  5  1  0
  5  6  2  0
  5  7  1  0
  1  2  1  0
  1  3  1  0
  1  4  1  0
  8 12  1  0
 12 15  1  0
  8  9  1  0
  8 10  1  0
  8 11  1  0
 12 13  1  0
 12 14  1  0
 15 16  1  0
 15 17  1  0
 15 18  1  0
M  CHG  1   7  -1
V    7 [O&-]
M  END
>  <PDB_ID>  (2238) 
pdb2p88

>  <RESIDUE_NAME>  (2238) 
GLU   VAL

>  <FRAG_NAME>  (2238) 
ACET   PRPA

>  <FRAG_ATOM_NUM>  (2238) 
fragi: 7 fragj: 11

>  <atom.prop.CHAIN_ID>  (2238) 
A A A A A A A Z Z Z Z Z Z Z Z Z Z Z

>  <atom.prop.IS_HEAVY_ATOM>  (2238) 
1 0 0 0 1 1 1 1 0 0 0 1 0 0 1 0 0 0

>  <DIFUSE_FUNC_ATOM>  (2238) 
n/a

>  <FINAL_SINGLE_POINT_ENERGY>  (2238) 
0

>  <NONCOV_INTER_ENERGY_QM>  (2238) 
0

>  <FF_Energy>  (2238) 
34.79

>  <QM_Energy>  (2238) 
8.43

>  <source>  (2238) 
ACET_PRPA_29

>  <Index>  (2238) 
24833

$$$$
ACEH-pdb2p88-B-GLH-298:PRPA-pdb2p88-B-VAL-49
     RDKit          3D

 18 16  0  0  0  0  0  0  0  0999 V2000
   -0.0272    1.5174   -0.0076 C   0  0  0  0  0  0  0  0  0  0  0  0
   -0.4847    1.8113    0.8170 H   0  0  0  0  0  0  0  0  0  0  0  0
   -0.5204    1.8019   -0.8145 H   0  0  0  0  0  0  0  0  0  0  0  0
    0.9584    1.9820   -0.0308 H   0  0  0  0  0  0  0  0  0  0  0  0
    0.0000    0.0000    0.0000 C   0  0  0  0  0  0  0  0  0  0  0  0
   -1.0949   -0.5973    0.0000 O   0  0  0  0  0  0  0  0  0  0  0  0
    1.0949   -0.5994    0.0000 O   0  0  0  0  0  0  0  0  0  0  0  0
   -1.8514    2.3346    2.2144 C   0  0  0  0  0  0  0  0  0  0  0  0
   -0.8526    2.3843    2.3168 H   0  0  0  0  0  0  0  0  0  0  0  0
   -2.1936    1.5686    2.7685 H   0  0  0  0  0  0  0  0  0  0  0  0
   -2.0656    2.1529    1.2501 H   0  0  0  0  0  0  0  0  0  0  0  0
   -2.4813    3.6138    2.6533 C   0  0  0  0  0  0  0  0  0  0  0  0
   -1.7551    4.2492    2.8862 H   0  0  0  0  0  0  0  0  0  0  0  0
   -3.0585    3.4412    3.5617 H   0  0  0  0  0  0  0  0  0  0  0  0
   -3.3579    4.1816    1.5593 C   0  0  0  0  0  0  0  0  0  0  0  0
   -3.2484    3.6377    0.7263 H   0  0  0  0  0  0  0  0  0  0  0  0
   -4.3158    4.1548    1.8505 H   0  0  0  0  0  0  0  0  0  0  0  0
   -3.0917    5.1291    1.3753 H   0  0  0  0  0  0  0  0  0  0  0  0
  1  5  1  0
  5  6  2  0
  5  7  1  0
  1  2  1  0
  1  3  1  0
  1  4  1  0
  8 12  1  0
 12 15  1  0
  8  9  1  0
  8 10  1  0
  8 11  1  0
 12 13  1  0
 12 14  1  0
 15 16  1  0
 15 17  1  0
 15 18  1  0
M  CHG  1   7  -1
V    7 [O&-]
M  END
>  <PDB_ID>  (2239) 
pdb2p88

>  <RESIDUE_NAME>  (2239) 
GLU   VAL

>  <FRAG_NAME>  (2239) 
ACET   PRPA

>  <FRAG_ATOM_NUM>  (2239) 
fragi: 7 fragj: 11

>  <atom.prop.CHAIN_ID>  (2239) 
A A A A A A A Z Z Z Z Z Z Z Z Z Z Z

>  <atom.prop.IS_HEAVY_ATOM>  (2239) 
1 0 0 0 1 1 1 1 0 0 0 1 0 0 1 0 0 0

>  <DIFUSE_FUNC_ATOM>  (2239) 
n/a

>  <FINAL_SINGLE_POINT_ENERGY>  (2239) 
0

>  <NONCOV_INTER_ENERGY_QM>  (2239) 
0

>  <FF_Energy>  (2239) 
34.67

>  <QM_Energy>  (2239) 
8.13

>  <source>  (2239) 
ACET_PRPA_29

>  <Index>  (2239) 
24885

$$$$
ACEH-pdb4nlm-A-GLH-264:PRPA-pdb4nlm-A-ILE-295
     RDKit          3D

 18 16  0  0  0  0  0  0  0  0999 V2000
    0.0271    1.5202    0.0354 C   0  0  0  0  0  0  0  0  0  0  0  0
    0.7368    1.8148   -0.5801 H   0  0  0  0  0  0  0  0  0  0  0  0
    0.2107    1.7878    0.9652 H   0  0  0  0  0  0  0  0  0  0  0  0
   -0.9151    1.9691   -0.2790 H   0  0  0  0  0  0  0  0  0  0  0  0
    0.0000    0.0000    0.0000 C   0  0  0  0  0  0  0  0  0  0  0  0
   -1.1032   -0.5973    0.0000 O   0  0  0  0  0  0  0  0  0  0  0  0
    1.1032   -0.5916    0.0000 O   0  0  0  0  0  0  0  0  0  0  0  0
    3.4411   -0.1497   -0.9356 C   0  0  0  0  0  0  0  0  0  0  0  0
    2.8194   -0.2710   -0.1462 H   0  0  0  0  0  0  0  0  0  0  0  0
    3.6307    0.9221   -0.9942 H   0  0  0  0  0  0  0  0  0  0  0  0
    4.3359   -0.7380   -0.7321 H   0  0  0  0  0  0  0  0  0  0  0  0
    2.6964   -0.7228   -2.1697 C   0  0  0  0  0  0  0  0  0  0  0  0
    2.5113   -1.6879   -1.9876 H   0  0  0  0  0  0  0  0  0  0  0  0
    1.7310   -0.2358   -2.3072 H   0  0  0  0  0  0  0  0  0  0  0  0
    3.5393   -0.6267   -3.4361 C   0  0  0  0  0  0  0  0  0  0  0  0
    3.2423    0.1796   -3.9569 H   0  0  0  0  0  0  0  0  0  0  0  0
    4.4975   -0.4797   -3.1670 H   0  0  0  0  0  0  0  0  0  0  0  0
    3.4969   -1.4979   -4.0898 H   0  0  0  0  0  0  0  0  0  0  0  0
  1  5  1  0
  5  6  2  0
  5  7  1  0
  1  2  1  0
  1  3  1  0
  1  4  1  0
  8 12  1  0
 12 15  1  0
  8  9  1  0
  8 10  1  0
  8 11  1  0
 12 13  1  0
 12 14  1  0
 15 16  1  0
 15 17  1  0
 15 18  1  0
M  CHG  1   7  -1
V    7 [O&-]
M  END
>  <PDB_ID>  (2240) 
pdb4nlm

>  <RESIDUE_NAME>  (2240) 
GLU   ILE

>  <FRAG_NAME>  (2240) 
ACET   PRPA

>  <FRAG_ATOM_NUM>  (2240) 
fragi: 7 fragj: 11

>  <atom.prop.CHAIN_ID>  (2240) 
A A A A A A A Z Z Z Z Z Z Z Z Z Z Z

>  <atom.prop.IS_HEAVY_ATOM>  (2240) 
1 0 0 0 1 1 1 1 0 0 0 1 0 0 1 0 0 0

>  <DIFUSE_FUNC_ATOM>  (2240) 
n/a

>  <FINAL_SINGLE_POINT_ENERGY>  (2240) 
0

>  <NONCOV_INTER_ENERGY_QM>  (2240) 
0

>  <FF_Energy>  (2240) 
46.75

>  <QM_Energy>  (2240) 
5.36

>  <source>  (2240) 
ACET_PRPA_29

>  <Index>  (2240) 
24890

$$$$
ACEH-pdb2psn-C-GLH-292:PRPA-pdb2psn-C-LEU-340
     RDKit          3D

 18 16  0  0  0  0  0  0  0  0999 V2000
   -0.0060    1.5269    0.0061 C   0  0  0  0  0  0  0  0  0  0  0  0
    0.6862    1.8305   -0.6165 H   0  0  0  0  0  0  0  0  0  0  0  0
    0.1538    1.8213    0.9259 H   0  0  0  0  0  0  0  0  0  0  0  0
   -0.9576    1.9456   -0.3212 H   0  0  0  0  0  0  0  0  0  0  0  0
    0.0000    0.0000    0.0000 C   0  0  0  0  0  0  0  0  0  0  0  0
   -1.0955   -0.6072   -0.0000 O   0  0  0  0  0  0  0  0  0  0  0  0
    1.0955   -0.6027   -0.0000 O   0  0  0  0  0  0  0  0  0  0  0  0
    3.6035   -1.3718    0.4942 C   0  0  0  0  0  0  0  0  0  0  0  0
    3.0240   -0.5944    0.5685 H   0  0  0  0  0  0  0  0  0  0  0  0
    4.1048   -1.4210   -0.3355 H   0  0  0  0  0  0  0  0  0  0  0  0
    4.3086   -1.3593    1.3253 H   0  0  0  0  0  0  0  0  0  0  0  0
    2.7060   -2.6236    0.5677 C   0  0  0  0  0  0  0  0  0  0  0  0
    3.2669   -3.4100    0.7796 H   0  0  0  0  0  0  0  0  0  0  0  0
    1.9711   -2.4784    1.3594 H   0  0  0  0  0  0  0  0  0  0  0  0
    1.9896   -2.8697   -0.7606 C   0  0  0  0  0  0  0  0  0  0  0  0
    2.6676   -3.0045   -1.4827 H   0  0  0  0  0  0  0  0  0  0  0  0
    1.4177   -3.6852   -0.6818 H   0  0  0  0  0  0  0  0  0  0  0  0
    1.4183   -2.0798   -0.9797 H   0  0  0  0  0  0  0  0  0  0  0  0
  1  5  1  0
  5  6  2  0
  5  7  1  0
  1  2  1  0
  1  3  1  0
  1  4  1  0
  8 12  1  0
 12 15  1  0
  8  9  1  0
  8 10  1  0
  8 11  1  0
 12 13  1  0
 12 14  1  0
 15 16  1  0
 15 17  1  0
 15 18  1  0
M  CHG  1   7  -1
V    7 [O&-]
M  END
>  <PDB_ID>  (2241) 
pdb2psn

>  <RESIDUE_NAME>  (2241) 
GLU   LEU

>  <FRAG_NAME>  (2241) 
ACET   PRPA

>  <FRAG_ATOM_NUM>  (2241) 
fragi: 7 fragj: 11

>  <atom.prop.CHAIN_ID>  (2241) 
A A A A A A A Z Z Z Z Z Z Z Z Z Z Z

>  <atom.prop.IS_HEAVY_ATOM>  (2241) 
1 0 0 0 1 1 1 1 0 0 0 1 0 0 1 0 0 0

>  <DIFUSE_FUNC_ATOM>  (2241) 
n/a

>  <FINAL_SINGLE_POINT_ENERGY>  (2241) 
0

>  <NONCOV_INTER_ENERGY_QM>  (2241) 
0

>  <FF_Energy>  (2241) 
49.07

>  <QM_Energy>  (2241) 
6.4

>  <source>  (2241) 
ACET_PRPA_29

>  <Index>  (2241) 
25117

$$$$
ACEH-pdb1l8a-A-GLH-522:PRPA-pdb1l8a-B-LEU-264
     RDKit          3D

 18 16  0  0  0  0  0  0  0  0999 V2000
    0.0164    1.5091    0.0020 C   0  0  0  0  0  0  0  0  0  0  0  0
    0.1943    1.8079   -0.9199 H   0  0  0  0  0  0  0  0  0  0  0  0
    0.7239    1.7995    0.6239 H   0  0  0  0  0  0  0  0  0  0  0  0
   -0.9270    1.9483    0.3265 H   0  0  0  0  0  0  0  0  0  0  0  0
    0.0000    0.0000    0.0000 C   0  0  0  0  0  0  0  0  0  0  0  0
   -1.0948   -0.5913   -0.0000 O   0  0  0  0  0  0  0  0  0  0  0  0
    1.0948   -0.5996    0.0000 O   0  0  0  0  0  0  0  0  0  0  0  0
    2.4170    2.0971   -3.1991 C   0  0  0  0  0  0  0  0  0  0  0  0
    3.0447    2.0926   -2.4040 H   0  0  0  0  0  0  0  0  0  0  0  0
    1.6147    2.6617   -2.9499 H   0  0  0  0  0  0  0  0  0  0  0  0
    2.9307    2.6036   -4.0161 H   0  0  0  0  0  0  0  0  0  0  0  0
    1.9158    0.6603   -3.3794 C   0  0  0  0  0  0  0  0  0  0  0  0
    2.3865    0.0722   -2.7305 H   0  0  0  0  0  0  0  0  0  0  0  0
    2.1433    0.2930   -4.3801 H   0  0  0  0  0  0  0  0  0  0  0  0
    0.4250    0.6191   -3.1216 C   0  0  0  0  0  0  0  0  0  0  0  0
   -0.0470    1.2215   -3.7683 H   0  0  0  0  0  0  0  0  0  0  0  0
    0.0871   -0.3165   -3.2373 H   0  0  0  0  0  0  0  0  0  0  0  0
    0.2347    0.9248   -2.1866 H   0  0  0  0  0  0  0  0  0  0  0  0
  1  5  1  0
  5  6  2  0
  5  7  1  0
  1  2  1  0
  1  3  1  0
  1  4  1  0
  8 12  1  0
 12 15  1  0
  8  9  1  0
  8 10  1  0
  8 11  1  0
 12 13  1  0
 12 14  1  0
 15 16  1  0
 15 17  1  0
 15 18  1  0
M  CHG  1   7  -1
V    7 [O&-]
M  END
>  <PDB_ID>  (2242) 
pdb1l8a

>  <RESIDUE_NAME>  (2242) 
GLU   LEU

>  <FRAG_NAME>  (2242) 
ACET   PRPA

>  <FRAG_ATOM_NUM>  (2242) 
fragi: 7 fragj: 11

>  <atom.prop.CHAIN_ID>  (2242) 
A A A A A A A Z Z Z Z Z Z Z Z Z Z Z

>  <atom.prop.IS_HEAVY_ATOM>  (2242) 
1 0 0 0 1 1 1 1 0 0 0 1 0 0 1 0 0 0

>  <DIFUSE_FUNC_ATOM>  (2242) 
n/a

>  <FINAL_SINGLE_POINT_ENERGY>  (2242) 
0

>  <NONCOV_INTER_ENERGY_QM>  (2242) 
0

>  <FF_Energy>  (2242) 
23.26

>  <QM_Energy>  (2242) 
0.88

>  <source>  (2242) 
ACET_PRPA_29

>  <Index>  (2242) 
25119

$$$$
ACEH-pdb1m7s-A-GLH-482:PRPA-pdb1m7s-A-LEU-479
     RDKit          3D

 18 16  0  0  0  0  0  0  0  0999 V2000
   -0.1919    1.4859   -0.0155 C   0  0  0  0  0  0  0  0  0  0  0  0
   -0.7101    1.7337    0.8015 H   0  0  0  0  0  0  0  0  0  0  0  0
   -0.7213    1.7147   -0.8309 H   0  0  0  0  0  0  0  0  0  0  0  0
    0.7186    2.0850   -0.0277 H   0  0  0  0  0  0  0  0  0  0  0  0
    0.0000    0.0000    0.0000 C   0  0  0  0  0  0  0  0  0  0  0  0
   -1.0883   -0.6164   -0.0000 O   0  0  0  0  0  0  0  0  0  0  0  0
    1.0883   -0.5527    0.0000 O   0  0  0  0  0  0  0  0  0  0  0  0
   -2.0401    0.4629   -2.3203 C   0  0  0  0  0  0  0  0  0  0  0  0
   -1.3124    0.2634   -1.6573 H   0  0  0  0  0  0  0  0  0  0  0  0
   -2.9919    0.5380   -1.7943 H   0  0  0  0  0  0  0  0  0  0  0  0
   -1.8040    1.4097   -2.8059 H   0  0  0  0  0  0  0  0  0  0  0  0
   -2.1242   -0.6636   -3.3486 C   0  0  0  0  0  0  0  0  0  0  0  0
   -2.8145   -0.4178   -4.0231 H   0  0  0  0  0  0  0  0  0  0  0  0
   -1.2340   -0.7551   -3.7838 H   0  0  0  0  0  0  0  0  0  0  0  0
   -2.5052   -2.0613   -2.8072 C   0  0  0  0  0  0  0  0  0  0  0  0
   -3.4440   -2.0433   -2.5066 H   0  0  0  0  0  0  0  0  0  0  0  0
   -2.3976   -2.7816   -3.6182 H   0  0  0  0  0  0  0  0  0  0  0  0
   -1.8522   -2.2961   -1.9667 H   0  0  0  0  0  0  0  0  0  0  0  0
  1  5  1  0
  5  6  2  0
  5  7  1  0
  1  2  1  0
  1  3  1  0
  1  4  1  0
  8 12  1  0
 12 15  1  0
  8  9  1  0
  8 10  1  0
  8 11  1  0
 12 13  1  0
 12 14  1  0
 15 16  1  0
 15 17  1  0
 15 18  1  0
M  CHG  1   7  -1
V    7 [O&-]
M  END
>  <PDB_ID>  (2243) 
pdb1m7s

>  <RESIDUE_NAME>  (2243) 
GLU   LEU

>  <FRAG_NAME>  (2243) 
ACET   PRPA

>  <FRAG_ATOM_NUM>  (2243) 
fragi: 7 fragj: 11

>  <atom.prop.CHAIN_ID>  (2243) 
A A A A A A A Z Z Z Z Z Z Z Z Z Z Z

>  <atom.prop.IS_HEAVY_ATOM>  (2243) 
1 0 0 0 1 1 1 1 0 0 0 1 0 0 1 0 0 0

>  <DIFUSE_FUNC_ATOM>  (2243) 
n/a

>  <FINAL_SINGLE_POINT_ENERGY>  (2243) 
0

>  <NONCOV_INTER_ENERGY_QM>  (2243) 
0

>  <FF_Energy>  (2243) 
34.9

>  <QM_Energy>  (2243) 
5.24

>  <source>  (2243) 
ACET_PRPA_29

>  <Index>  (2243) 
25430

$$$$
ACEH-pdb4nek-F-GLH-222:PRPA-pdb4nek-A-GLH-136
     RDKit          3D

 18 16  0  0  0  0  0  0  0  0999 V2000
   -0.0072    1.5354    0.0344 C   0  0  0  0  0  0  0  0  0  0  0  0
   -0.7323    1.8046    0.6436 H   0  0  0  0  0  0  0  0  0  0  0  0
   -0.1673    1.8418   -0.8874 H   0  0  0  0  0  0  0  0  0  0  0  0
    0.9287    1.9651    0.3915 H   0  0  0  0  0  0  0  0  0  0  0  0
    0.0000    0.0000    0.0000 C   0  0  0  0  0  0  0  0  0  0  0  0
   -1.1100   -0.6181    0.0000 O   0  0  0  0  0  0  0  0  0  0  0  0
    1.1100   -0.5919    0.0000 O   0  0  0  0  0  0  0  0  0  0  0  0
    2.9357   -1.9259   -0.9617 C   0  0  0  0  0  0  0  0  0  0  0  0
    2.5898   -0.9981   -0.9105 H   0  0  0  0  0  0  0  0  0  0  0  0
    3.7710   -2.0782   -0.2782 H   0  0  0  0  0  0  0  0  0  0  0  0
    2.1527   -2.6111   -0.6371 H   0  0  0  0  0  0  0  0  0  0  0  0
    3.4192   -2.3555   -2.3759 C   0  0  0  0  0  0  0  0  0  0  0  0
    2.7700   -2.0338   -3.0196 H   0  0  0  0  0  0  0  0  0  0  0  0
    4.3173   -2.0140   -2.4970 H   0  0  0  0  0  0  0  0  0  0  0  0
    3.4846   -3.8978   -2.5126 C   0  0  0  0  0  0  0  0  0  0  0  0
    3.8381   -4.2565   -1.6582 H   0  0  0  0  0  0  0  0  0  0  0  0
    2.5610   -4.2221   -2.6738 H   0  0  0  0  0  0  0  0  0  0  0  0
    4.1144   -4.2769   -3.3175 H   0  0  0  0  0  0  0  0  0  0  0  0
  1  5  1  0
  5  6  2  0
  5  7  1  0
  1  2  1  0
  1  3  1  0
  1  4  1  0
  8 12  1  0
 12 15  1  0
  8  9  1  0
  8 10  1  0
  8 11  1  0
 12 13  1  0
 12 14  1  0
 15 16  1  0
 15 17  1  0
 15 18  1  0
M  CHG  1   7  -1
V    7 [O&-]
M  END
>  <PDB_ID>  (2244) 
pdb4nek

>  <RESIDUE_NAME>  (2244) 
GLU   GLU

>  <FRAG_NAME>  (2244) 
ACET   PRPA

>  <FRAG_ATOM_NUM>  (2244) 
fragi: 7 fragj: 11

>  <atom.prop.CHAIN_ID>  (2244) 
A A A A A A A Z Z Z Z Z Z Z Z Z Z Z

>  <atom.prop.IS_HEAVY_ATOM>  (2244) 
1 0 0 0 1 1 1 1 0 0 0 1 0 0 1 0 0 0

>  <DIFUSE_FUNC_ATOM>  (2244) 
n/a

>  <FINAL_SINGLE_POINT_ENERGY>  (2244) 
0

>  <NONCOV_INTER_ENERGY_QM>  (2244) 
0

>  <FF_Energy>  (2244) 
41.58

>  <QM_Energy>  (2244) 
6.92

>  <source>  (2244) 
ACET_PRPA_29

>  <Index>  (2244) 
25880

$$$$
ACEH-pdb2ps2-C-GLH-297:PRPA-pdb2ps2-C-ILE-270
     RDKit          3D

 18 16  0  0  0  0  0  0  0  0999 V2000
    0.0020    1.5169   -0.0199 C   0  0  0  0  0  0  0  0  0  0  0  0
   -0.9359    1.8163    0.0249 H   0  0  0  0  0  0  0  0  0  0  0  0
    0.4384    1.8020   -0.8564 H   0  0  0  0  0  0  0  0  0  0  0  0
    0.5414    1.9597    0.8173 H   0  0  0  0  0  0  0  0  0  0  0  0
    0.0000    0.0000    0.0000 C   0  0  0  0  0  0  0  0  0  0  0  0
   -1.0969   -0.6042   -0.0000 O   0  0  0  0  0  0  0  0  0  0  0  0
    1.0969   -0.5883    0.0000 O   0  0  0  0  0  0  0  0  0  0  0  0
   -0.7153   -2.8723    2.5923 C   0  0  0  0  0  0  0  0  0  0  0  0
   -0.0297   -2.1975    2.8743 H   0  0  0  0  0  0  0  0  0  0  0  0
   -1.6242   -2.4760    2.7510 H   0  0  0  0  0  0  0  0  0  0  0  0
   -0.6131   -3.7533    3.2260 H   0  0  0  0  0  0  0  0  0  0  0  0
   -0.5572   -3.1285    1.0907 C   0  0  0  0  0  0  0  0  0  0  0  0
   -0.6474   -2.2622    0.6171 H   0  0  0  0  0  0  0  0  0  0  0  0
    0.4376   -3.5201    0.8783 H   0  0  0  0  0  0  0  0  0  0  0  0
   -1.6166   -4.1106    0.6088 C   0  0  0  0  0  0  0  0  0  0  0  0
   -2.5242   -3.7324    0.7814 H   0  0  0  0  0  0  0  0  0  0  0  0
   -1.5028   -4.2690   -0.3699 H   0  0  0  0  0  0  0  0  0  0  0  0
   -1.5178   -4.9746    1.0996 H   0  0  0  0  0  0  0  0  0  0  0  0
  1  5  1  0
  5  6  2  0
  5  7  1  0
  1  2  1  0
  1  3  1  0
  1  4  1  0
  8 12  1  0
 12 15  1  0
  8  9  1  0
  8 10  1  0
  8 11  1  0
 12 13  1  0
 12 14  1  0
 15 16  1  0
 15 17  1  0
 15 18  1  0
M  CHG  1   7  -1
V    7 [O&-]
M  END
>  <PDB_ID>  (2245) 
pdb2ps2

>  <RESIDUE_NAME>  (2245) 
GLU   ILE

>  <FRAG_NAME>  (2245) 
ACET   PRPA

>  <FRAG_ATOM_NUM>  (2245) 
fragi: 7 fragj: 11

>  <atom.prop.CHAIN_ID>  (2245) 
A A A A A A A Z Z Z Z Z Z Z Z Z Z Z

>  <atom.prop.IS_HEAVY_ATOM>  (2245) 
1 0 0 0 1 1 1 1 0 0 0 1 0 0 1 0 0 0

>  <DIFUSE_FUNC_ATOM>  (2245) 
n/a

>  <FINAL_SINGLE_POINT_ENERGY>  (2245) 
0

>  <NONCOV_INTER_ENERGY_QM>  (2245) 
0

>  <FF_Energy>  (2245) 
28.5

>  <QM_Energy>  (2245) 
-1.05

>  <source>  (2245) 
ACET_PRPA_29

>  <Index>  (2245) 
25911

$$$$
ACEH-pdb4n2o-D-GLH-79:PRPA-pdb4n2o-F-PRO-28
     RDKit          3D

 18 16  0  0  0  0  0  0  0  0999 V2000
    0.0031    1.5071    0.1677 C   0  0  0  0  0  0  0  0  0  0  0  0
   -0.5086    1.8774   -0.5589 H   0  0  0  0  0  0  0  0  0  0  0  0
    0.9226    1.7865    0.2225 H   0  0  0  0  0  0  0  0  0  0  0  0
   -0.5007    1.7124    1.1122 H   0  0  0  0  0  0  0  0  0  0  0  0
    0.0000    0.0000    0.0000 C   0  0  0  0  0  0  0  0  0  0  0  0
   -1.0694   -0.6077    0.0000 O   0  0  0  0  0  0  0  0  0  0  0  0
    1.0694   -0.5982   -0.0000 O   0  0  0  0  0  0  0  0  0  0  0  0
    0.2540   -0.2096   -3.1794 C   0  0  0  0  0  0  0  0  0  0  0  0
    0.4039   -1.0640   -2.6721 H   0  0  0  0  0  0  0  0  0  0  0  0
    1.0536    0.5026   -2.9753 H   0  0  0  0  0  0  0  0  0  0  0  0
    0.1797   -0.3936   -4.2513 H   0  0  0  0  0  0  0  0  0  0  0  0
   -0.9923    0.5212   -2.7048 C   0  0  0  0  0  0  0  0  0  0  0  0
   -1.7931    0.2465   -3.2433 H   0  0  0  0  0  0  0  0  0  0  0  0
   -1.1707    0.3300   -1.7367 H   0  0  0  0  0  0  0  0  0  0  0  0
   -0.6717    1.9543   -2.9173 C   0  0  0  0  0  0  0  0  0  0  0  0
   -0.9315    2.2440   -3.8514 H   0  0  0  0  0  0  0  0  0  0  0  0
   -1.1839    2.5354   -2.2657 H   0  0  0  0  0  0  0  0  0  0  0  0
    0.4022    2.0645   -2.7669 H   0  0  0  0  0  0  0  0  0  0  0  0
  1  5  1  0
  5  6  2  0
  5  7  1  0
  1  2  1  0
  1  3  1  0
  1  4  1  0
  8 12  1  0
 12 15  1  0
  8  9  1  0
  8 10  1  0
  8 11  1  0
 12 13  1  0
 12 14  1  0
 15 16  1  0
 15 17  1  0
 15 18  1  0
M  CHG  1   7  -1
V    7 [O&-]
M  END
>  <PDB_ID>  (2246) 
pdb4n2o

>  <RESIDUE_NAME>  (2246) 
GLU   PRO

>  <FRAG_NAME>  (2246) 
ACET   PRPA

>  <FRAG_ATOM_NUM>  (2246) 
fragi: 7 fragj: 11

>  <atom.prop.CHAIN_ID>  (2246) 
A A A A A A A Z Z Z Z Z Z Z Z Z Z Z

>  <atom.prop.IS_HEAVY_ATOM>  (2246) 
1 0 0 0 1 1 1 1 0 0 0 1 0 0 1 0 0 0

>  <DIFUSE_FUNC_ATOM>  (2246) 
n/a

>  <FINAL_SINGLE_POINT_ENERGY>  (2246) 
0

>  <NONCOV_INTER_ENERGY_QM>  (2246) 
0

>  <FF_Energy>  (2246) 
27.96

>  <QM_Energy>  (2246) 
1.42

>  <source>  (2246) 
ACET_PRPA_29

>  <Index>  (2246) 
25971

$$$$
ACEH-pdb4n2o-D-GLH-79:PRPA-pdb4n2o-F-PRO-28
     RDKit          3D

 18 16  0  0  0  0  0  0  0  0999 V2000
    0.0031    1.5071    0.1677 C   0  0  0  0  0  0  0  0  0  0  0  0
   -0.5086    1.8774   -0.5589 H   0  0  0  0  0  0  0  0  0  0  0  0
    0.9226    1.7865    0.2225 H   0  0  0  0  0  0  0  0  0  0  0  0
   -0.5007    1.7124    1.1122 H   0  0  0  0  0  0  0  0  0  0  0  0
    0.0000    0.0000    0.0000 C   0  0  0  0  0  0  0  0  0  0  0  0
   -1.0694   -0.6077    0.0000 O   0  0  0  0  0  0  0  0  0  0  0  0
    1.0694   -0.5982   -0.0000 O   0  0  0  0  0  0  0  0  0  0  0  0
   -0.9923    0.5212   -2.7048 C   0  0  0  0  0  0  0  0  0  0  0  0
   -1.7931    0.2465   -3.2433 H   0  0  0  0  0  0  0  0  0  0  0  0
   -1.1707    0.3300   -1.7367 H   0  0  0  0  0  0  0  0  0  0  0  0
   -0.0990   -0.0026   -3.0450 H   0  0  0  0  0  0  0  0  0  0  0  0
   -0.6717    1.9543   -2.9173 C   0  0  0  0  0  0  0  0  0  0  0  0
   -0.9315    2.2440   -3.8514 H   0  0  0  0  0  0  0  0  0  0  0  0
   -1.1839    2.5354   -2.2657 H   0  0  0  0  0  0  0  0  0  0  0  0
    0.8110    2.1065   -2.7095 C   0  0  0  0  0  0  0  0  0  0  0  0
    1.2099    2.7371   -3.3777 H   0  0  0  0  0  0  0  0  0  0  0  0
    1.0179    2.4353   -1.7848 H   0  0  0  0  0  0  0  0  0  0  0  0
    1.1960    1.0972   -2.8546 H   0  0  0  0  0  0  0  0  0  0  0  0
  1  5  1  0
  5  6  2  0
  5  7  1  0
  1  2  1  0
  1  3  1  0
  1  4  1  0
  8 12  1  0
 12 15  1  0
  8  9  1  0
  8 10  1  0
  8 11  1  0
 12 13  1  0
 12 14  1  0
 15 16  1  0
 15 17  1  0
 15 18  1  0
M  CHG  1   7  -1
V    7 [O&-]
M  END
>  <PDB_ID>  (2247) 
pdb4n2o

>  <RESIDUE_NAME>  (2247) 
GLU   PRO

>  <FRAG_NAME>  (2247) 
ACET   PRPA

>  <FRAG_ATOM_NUM>  (2247) 
fragi: 7 fragj: 11

>  <atom.prop.CHAIN_ID>  (2247) 
A A A A A A A Z Z Z Z Z Z Z Z Z Z Z

>  <atom.prop.IS_HEAVY_ATOM>  (2247) 
1 0 0 0 1 1 1 1 0 0 0 1 0 0 1 0 0 0

>  <DIFUSE_FUNC_ATOM>  (2247) 
n/a

>  <FINAL_SINGLE_POINT_ENERGY>  (2247) 
0

>  <NONCOV_INTER_ENERGY_QM>  (2247) 
0

>  <FF_Energy>  (2247) 
29.36

>  <QM_Energy>  (2247) 
4.3

>  <source>  (2247) 
ACET_PRPA_29

>  <Index>  (2247) 
26021

$$$$
ACEH-pdb4n2o-H-GLH-109:PRPA-pdb4n2o-G-GLU-19
     RDKit          3D

 18 16  0  0  0  0  0  0  0  0999 V2000
    0.0059    1.5270    0.0211 C   0  0  0  0  0  0  0  0  0  0  0  0
   -0.8954    1.8213    0.2458 H   0  0  0  0  0  0  0  0  0  0  0  0
    0.3124    1.8322   -0.8525 H   0  0  0  0  0  0  0  0  0  0  0  0
    0.6903    1.9081    0.7791 H   0  0  0  0  0  0  0  0  0  0  0  0
    0.0000    0.0000    0.0000 C   0  0  0  0  0  0  0  0  0  0  0  0
   -1.1031   -0.5950    0.0000 O   0  0  0  0  0  0  0  0  0  0  0  0
    1.1031   -0.5954    0.0000 O   0  0  0  0  0  0  0  0  0  0  0  0
   -1.6525   -2.3130   -4.0547 C   0  0  0  0  0  0  0  0  0  0  0  0
   -2.0524   -1.4004   -3.9935 H   0  0  0  0  0  0  0  0  0  0  0  0
   -2.0326   -2.8311   -4.9352 H   0  0  0  0  0  0  0  0  0  0  0  0
   -0.5691   -2.2256   -4.1352 H   0  0  0  0  0  0  0  0  0  0  0  0
   -2.0257   -3.0959   -2.8057 C   0  0  0  0  0  0  0  0  0  0  0  0
   -2.8158   -3.6562   -3.0291 H   0  0  0  0  0  0  0  0  0  0  0  0
   -1.2492   -3.6680   -2.5677 H   0  0  0  0  0  0  0  0  0  0  0  0
   -2.3755   -2.2704   -1.5979 C   0  0  0  0  0  0  0  0  0  0  0  0
   -1.5579   -1.8293   -1.2650 H   0  0  0  0  0  0  0  0  0  0  0  0
   -3.0669   -1.6119   -1.8487 H   0  0  0  0  0  0  0  0  0  0  0  0
   -2.7799   -2.8532   -0.7702 H   0  0  0  0  0  0  0  0  0  0  0  0
  1  5  1  0
  5  6  2  0
  5  7  1  0
  1  2  1  0
  1  3  1  0
  1  4  1  0
  8 12  1  0
 12 15  1  0
  8  9  1  0
  8 10  1  0
  8 11  1  0
 12 13  1  0
 12 14  1  0
 15 16  1  0
 15 17  1  0
 15 18  1  0
M  CHG  1   7  -1
V    7 [O&-]
M  END
>  <PDB_ID>  (2248) 
pdb4n2o

>  <RESIDUE_NAME>  (2248) 
GLU   GLU

>  <FRAG_NAME>  (2248) 
ACET   PRPA

>  <FRAG_ATOM_NUM>  (2248) 
fragi: 7 fragj: 11

>  <atom.prop.CHAIN_ID>  (2248) 
A A A A A A A Z Z Z Z Z Z Z Z Z Z Z

>  <atom.prop.IS_HEAVY_ATOM>  (2248) 
1 0 0 0 1 1 1 1 0 0 0 1 0 0 1 0 0 0

>  <DIFUSE_FUNC_ATOM>  (2248) 
n/a

>  <FINAL_SINGLE_POINT_ENERGY>  (2248) 
0

>  <NONCOV_INTER_ENERGY_QM>  (2248) 
0

>  <FF_Energy>  (2248) 
25.94

>  <QM_Energy>  (2248) 
2.84

>  <source>  (2248) 
ACET_PRPA_29

>  <Index>  (2248) 
26191

$$$$
ACEH-pdb4nek-C-GLH-222:PRPA-pdb4nek-D-GLH-136
     RDKit          3D

 18 16  0  0  0  0  0  0  0  0999 V2000
   -0.0083    1.5367    0.0166 C   0  0  0  0  0  0  0  0  0  0  0  0
   -0.7159    1.8180    0.6373 H   0  0  0  0  0  0  0  0  0  0  0  0
   -0.1781    1.8366   -0.9043 H   0  0  0  0  0  0  0  0  0  0  0  0
    0.9327    1.9732    0.3514 H   0  0  0  0  0  0  0  0  0  0  0  0
    0.0000    0.0000    0.0000 C   0  0  0  0  0  0  0  0  0  0  0  0
   -1.1125   -0.6089   -0.0000 O   0  0  0  0  0  0  0  0  0  0  0  0
    1.1125   -0.5978    0.0000 O   0  0  0  0  0  0  0  0  0  0  0  0
    3.1482   -2.0415   -0.4604 C   0  0  0  0  0  0  0  0  0  0  0  0
    2.7926   -1.1157   -0.5067 H   0  0  0  0  0  0  0  0  0  0  0  0
    3.8682   -2.1473    0.3511 H   0  0  0  0  0  0  0  0  0  0  0  0
    2.3290   -2.7248   -0.2367 H   0  0  0  0  0  0  0  0  0  0  0  0
    3.8487   -2.5296   -1.7410 C   0  0  0  0  0  0  0  0  0  0  0  0
    3.3154   -2.2498   -2.5015 H   0  0  0  0  0  0  0  0  0  0  0  0
    4.7572   -2.1913   -1.7371 H   0  0  0  0  0  0  0  0  0  0  0  0
    3.9355   -4.0760   -1.7867 C   0  0  0  0  0  0  0  0  0  0  0  0
    4.1336   -4.3894   -0.8659 H   0  0  0  0  0  0  0  0  0  0  0  0
    3.0520   -4.4153   -2.0874 H   0  0  0  0  0  0  0  0  0  0  0  0
    4.6932   -4.4944   -2.4492 H   0  0  0  0  0  0  0  0  0  0  0  0
  1  5  1  0
  5  6  2  0
  5  7  1  0
  1  2  1  0
  1  3  1  0
  1  4  1  0
  8 12  1  0
 12 15  1  0
  8  9  1  0
  8 10  1  0
  8 11  1  0
 12 13  1  0
 12 14  1  0
 15 16  1  0
 15 17  1  0
 15 18  1  0
M  CHG  1   7  -1
V    7 [O&-]
M  END
>  <PDB_ID>  (2249) 
pdb4nek

>  <RESIDUE_NAME>  (2249) 
GLU   GLU

>  <FRAG_NAME>  (2249) 
ACET   PRPA

>  <FRAG_ATOM_NUM>  (2249) 
fragi: 7 fragj: 11

>  <atom.prop.CHAIN_ID>  (2249) 
A A A A A A A Z Z Z Z Z Z Z Z Z Z Z

>  <atom.prop.IS_HEAVY_ATOM>  (2249) 
1 0 0 0 1 1 1 1 0 0 0 1 0 0 1 0 0 0

>  <DIFUSE_FUNC_ATOM>  (2249) 
n/a

>  <FINAL_SINGLE_POINT_ENERGY>  (2249) 
0

>  <NONCOV_INTER_ENERGY_QM>  (2249) 
0

>  <FF_Energy>  (2249) 
28.93

>  <QM_Energy>  (2249) 
3.96

>  <source>  (2249) 
ACET_PRPA_29

>  <Index>  (2249) 
26793

$$$$
ACEH-pdb2poz-A-GLH-36:PRPA-pdb2poz-A-LEU-22
     RDKit          3D

 18 16  0  0  0  0  0  0  0  0999 V2000
   -0.0032    1.5306   -0.0236 C   0  0  0  0  0  0  0  0  0  0  0  0
   -0.7228    1.8332    0.5707 H   0  0  0  0  0  0  0  0  0  0  0  0
   -0.1393    1.8107   -0.9541 H   0  0  0  0  0  0  0  0  0  0  0  0
    0.9319    1.9662    0.3287 H   0  0  0  0  0  0  0  0  0  0  0  0
    0.0000    0.0000    0.0000 C   0  0  0  0  0  0  0  0  0  0  0  0
   -1.0906   -0.6118    0.0000 O   0  0  0  0  0  0  0  0  0  0  0  0
    1.0906   -0.5963   -0.0000 O   0  0  0  0  0  0  0  0  0  0  0  0
    0.4286    2.6736   -4.6776 C   0  0  0  0  0  0  0  0  0  0  0  0
    0.3593    2.8533   -5.6774 H   0  0  0  0  0  0  0  0  0  0  0  0
    1.4188    2.5915   -4.4617 H   0  0  0  0  0  0  0  0  0  0  0  0
    0.0586    3.5609   -4.1639 H   0  0  0  0  0  0  0  0  0  0  0  0
   -0.1977    1.3057   -4.4279 C   0  0  0  0  0  0  0  0  0  0  0  0
   -1.1576    1.3363   -4.6571 H   0  0  0  0  0  0  0  0  0  0  0  0
    0.3043    0.5883   -5.0771 H   0  0  0  0  0  0  0  0  0  0  0  0
   -0.0810    0.9016   -2.9738 C   0  0  0  0  0  0  0  0  0  0  0  0
   -0.5504    1.5738   -2.3968 H   0  0  0  0  0  0  0  0  0  0  0  0
   -0.4996    0.0012   -2.8375 H   0  0  0  0  0  0  0  0  0  0  0  0
    0.8849    0.8586   -2.7111 H   0  0  0  0  0  0  0  0  0  0  0  0
  1  5  1  0
  5  6  2  0
  5  7  1  0
  1  2  1  0
  1  3  1  0
  1  4  1  0
  8 12  1  0
 12 15  1  0
  8  9  1  0
  8 10  1  0
  8 11  1  0
 12 13  1  0
 12 14  1  0
 15 16  1  0
 15 17  1  0
 15 18  1  0
M  CHG  1   7  -1
V    7 [O&-]
M  END
>  <PDB_ID>  (2250) 
pdb2poz

>  <RESIDUE_NAME>  (2250) 
GLU   LEU

>  <FRAG_NAME>  (2250) 
ACET   PRPA

>  <FRAG_ATOM_NUM>  (2250) 
fragi: 7 fragj: 11

>  <atom.prop.CHAIN_ID>  (2250) 
A A A A A A A Z Z Z Z Z Z Z Z Z Z Z

>  <atom.prop.IS_HEAVY_ATOM>  (2250) 
1 0 0 0 1 1 1 1 0 0 0 1 0 0 1 0 0 0

>  <DIFUSE_FUNC_ATOM>  (2250) 
n/a

>  <FINAL_SINGLE_POINT_ENERGY>  (2250) 
0

>  <NONCOV_INTER_ENERGY_QM>  (2250) 
0

>  <FF_Energy>  (2250) 
29.76

>  <QM_Energy>  (2250) 
4.44

>  <source>  (2250) 
ACET_PRPA_29

>  <Index>  (2250) 
28041

$$$$
ACEH-pdb4o9x-A-ASH-434:PRPA-pdb4o9x-A-PRO-441
     RDKit          3D

 18 16  0  0  0  0  0  0  0  0999 V2000
   -0.0203    1.5395    0.0080 C   0  0  0  0  0  0  0  0  0  0  0  0
   -0.2752    1.8431    0.9177 H   0  0  0  0  0  0  0  0  0  0  0  0
   -0.6829    1.8461   -0.6626 H   0  0  0  0  0  0  0  0  0  0  0  0
    0.9444    1.9823   -0.2397 H   0  0  0  0  0  0  0  0  0  0  0  0
    0.0000    0.0000    0.0000 C   0  0  0  0  0  0  0  0  0  0  0  0
   -1.0894   -0.6012   -0.0000 O   0  0  0  0  0  0  0  0  0  0  0  0
    1.0894   -0.6084    0.0000 O   0  0  0  0  0  0  0  0  0  0  0  0
    2.9759   -2.1001   -0.4867 C   0  0  0  0  0  0  0  0  0  0  0  0
    3.9474   -2.1773   -0.7130 H   0  0  0  0  0  0  0  0  0  0  0  0
    2.8778   -1.7143    0.4303 H   0  0  0  0  0  0  0  0  0  0  0  0
    2.4506   -1.4933   -1.2242 H   0  0  0  0  0  0  0  0  0  0  0  0
    2.3082   -3.4694   -0.5574 C   0  0  0  0  0  0  0  0  0  0  0  0
    2.7756   -4.0367   -1.2418 H   0  0  0  0  0  0  0  0  0  0  0  0
    2.3730   -3.9214    0.3369 H   0  0  0  0  0  0  0  0  0  0  0  0
    0.8849   -3.2090   -0.9391 C   0  0  0  0  0  0  0  0  0  0  0  0
    0.5158   -3.9419   -1.5132 H   0  0  0  0  0  0  0  0  0  0  0  0
    0.2998   -3.0969   -0.1331 H   0  0  0  0  0  0  0  0  0  0  0  0
    0.9387   -2.2768   -1.5015 H   0  0  0  0  0  0  0  0  0  0  0  0
  1  5  1  0
  5  6  2  0
  5  7  1  0
  1  2  1  0
  1  3  1  0
  1  4  1  0
  8 12  1  0
 12 15  1  0
  8  9  1  0
  8 10  1  0
  8 11  1  0
 12 13  1  0
 12 14  1  0
 15 16  1  0
 15 17  1  0
 15 18  1  0
M  CHG  1   7  -1
V    7 [O&-]
M  END
>  <PDB_ID>  (2251) 
pdb4o9x

>  <RESIDUE_NAME>  (2251) 
ASP   PRO

>  <FRAG_NAME>  (2251) 
ACET   PRPA

>  <FRAG_ATOM_NUM>  (2251) 
fragi: 7 fragj: 11

>  <atom.prop.CHAIN_ID>  (2251) 
A A A A A A A Z Z Z Z Z Z Z Z Z Z Z

>  <atom.prop.IS_HEAVY_ATOM>  (2251) 
1 0 0 0 1 1 1 1 0 0 0 1 0 0 1 0 0 0

>  <DIFUSE_FUNC_ATOM>  (2251) 
n/a

>  <FINAL_SINGLE_POINT_ENERGY>  (2251) 
0

>  <NONCOV_INTER_ENERGY_QM>  (2251) 
0

>  <FF_Energy>  (2251) 
25.05

>  <QM_Energy>  (2251) 
6.78

>  <source>  (2251) 
ACET_PRPA_29

>  <Index>  (2251) 
28936

$$$$
ACEH-pdb2vun-A-ASH-74:PRPA-pdb2vun-A-ILE-85
     RDKit          3D

 18 16  0  0  0  0  0  0  0  0999 V2000
   -0.0073    1.5293    0.0197 C   0  0  0  0  0  0  0  0  0  0  0  0
    0.5766    1.8591   -0.7114 H   0  0  0  0  0  0  0  0  0  0  0  0
    0.3249    1.8374    0.9014 H   0  0  0  0  0  0  0  0  0  0  0  0
   -1.0001    1.9535   -0.1299 H   0  0  0  0  0  0  0  0  0  0  0  0
    0.0000    0.0000    0.0000 C   0  0  0  0  0  0  0  0  0  0  0  0
   -1.1011   -0.5929   -0.0000 O   0  0  0  0  0  0  0  0  0  0  0  0
    1.1011   -0.6241    0.0000 O   0  0  0  0  0  0  0  0  0  0  0  0
   -1.0506   -3.6370   -0.4090 C   0  0  0  0  0  0  0  0  0  0  0  0
   -1.7510   -4.3293   -0.5632 H   0  0  0  0  0  0  0  0  0  0  0  0
   -1.3288   -3.1196    0.5091 H   0  0  0  0  0  0  0  0  0  0  0  0
   -0.1146   -4.1697   -0.2408 H   0  0  0  0  0  0  0  0  0  0  0  0
   -0.9670   -2.6738   -1.6194 C   0  0  0  0  0  0  0  0  0  0  0  0
   -0.3382   -1.9469   -1.3844 H   0  0  0  0  0  0  0  0  0  0  0  0
   -0.5931   -3.1960   -2.5001 H   0  0  0  0  0  0  0  0  0  0  0  0
   -2.3429   -2.0525   -1.8757 C   0  0  0  0  0  0  0  0  0  0  0  0
   -2.9806   -2.7893   -2.1148 H   0  0  0  0  0  0  0  0  0  0  0  0
   -2.6612   -1.6380   -1.0180 H   0  0  0  0  0  0  0  0  0  0  0  0
   -2.3677   -1.2952   -2.6593 H   0  0  0  0  0  0  0  0  0  0  0  0
  1  5  1  0
  5  6  2  0
  5  7  1  0
  1  2  1  0
  1  3  1  0
  1  4  1  0
  8 12  1  0
 12 15  1  0
  8  9  1  0
  8 10  1  0
  8 11  1  0
 12 13  1  0
 12 14  1  0
 15 16  1  0
 15 17  1  0
 15 18  1  0
M  CHG  1   7  -1
V    7 [O&-]
M  END
>  <PDB_ID>  (2252) 
pdb2vun

>  <RESIDUE_NAME>  (2252) 
ASP   ILE

>  <FRAG_NAME>  (2252) 
ACET   PRPA

>  <FRAG_ATOM_NUM>  (2252) 
fragi: 7 fragj: 11

>  <atom.prop.CHAIN_ID>  (2252) 
A A A A A A A Z Z Z Z Z Z Z Z Z Z Z

>  <atom.prop.IS_HEAVY_ATOM>  (2252) 
1 0 0 0 1 1 1 1 0 0 0 1 0 0 1 0 0 0

>  <DIFUSE_FUNC_ATOM>  (2252) 
n/a

>  <FINAL_SINGLE_POINT_ENERGY>  (2252) 
0

>  <NONCOV_INTER_ENERGY_QM>  (2252) 
0

>  <FF_Energy>  (2252) 
19.3

>  <QM_Energy>  (2252) 
0.23

>  <source>  (2252) 
ACET_PRPA_29

>  <Index>  (2252) 
29182

$$$$
ACEH-pdb2vun-A-ASH-74:PRPA-pdb2vun-A-ILE-85
     RDKit          3D

 18 16  0  0  0  0  0  0  0  0999 V2000
   -0.0073    1.5293    0.0197 C   0  0  0  0  0  0  0  0  0  0  0  0
    0.5766    1.8591   -0.7114 H   0  0  0  0  0  0  0  0  0  0  0  0
    0.3249    1.8374    0.9014 H   0  0  0  0  0  0  0  0  0  0  0  0
   -1.0001    1.9535   -0.1299 H   0  0  0  0  0  0  0  0  0  0  0  0
    0.0000    0.0000    0.0000 C   0  0  0  0  0  0  0  0  0  0  0  0
   -1.1011   -0.5929   -0.0000 O   0  0  0  0  0  0  0  0  0  0  0  0
    1.1011   -0.6241    0.0000 O   0  0  0  0  0  0  0  0  0  0  0  0
   -0.9670   -2.6738   -1.6194 C   0  0  0  0  0  0  0  0  0  0  0  0
   -0.3382   -1.9469   -1.3844 H   0  0  0  0  0  0  0  0  0  0  0  0
   -1.0259   -3.3515   -0.7677 H   0  0  0  0  0  0  0  0  0  0  0  0
   -0.5931   -3.1960   -2.5001 H   0  0  0  0  0  0  0  0  0  0  0  0
   -2.3429   -2.0525   -1.8757 C   0  0  0  0  0  0  0  0  0  0  0  0
   -2.9806   -2.7893   -2.1148 H   0  0  0  0  0  0  0  0  0  0  0  0
   -2.6612   -1.6380   -1.0180 H   0  0  0  0  0  0  0  0  0  0  0  0
   -2.3772   -1.0022   -2.9624 C   0  0  0  0  0  0  0  0  0  0  0  0
   -2.0803   -1.4083   -3.8255 H   0  0  0  0  0  0  0  0  0  0  0  0
   -3.3096   -0.6547   -3.0591 H   0  0  0  0  0  0  0  0  0  0  0  0
   -1.7645   -0.2515   -2.7180 H   0  0  0  0  0  0  0  0  0  0  0  0
  1  5  1  0
  5  6  2  0
  5  7  1  0
  1  2  1  0
  1  3  1  0
  1  4  1  0
  8 12  1  0
 12 15  1  0
  8  9  1  0
  8 10  1  0
  8 11  1  0
 12 13  1  0
 12 14  1  0
 15 16  1  0
 15 17  1  0
 15 18  1  0
M  CHG  1   7  -1
V    7 [O&-]
M  END
>  <PDB_ID>  (2253) 
pdb2vun

>  <RESIDUE_NAME>  (2253) 
ASP   ILE

>  <FRAG_NAME>  (2253) 
ACET   PRPA

>  <FRAG_ATOM_NUM>  (2253) 
fragi: 7 fragj: 11

>  <atom.prop.CHAIN_ID>  (2253) 
A A A A A A A Z Z Z Z Z Z Z Z Z Z Z

>  <atom.prop.IS_HEAVY_ATOM>  (2253) 
1 0 0 0 1 1 1 1 0 0 0 1 0 0 1 0 0 0

>  <DIFUSE_FUNC_ATOM>  (2253) 
n/a

>  <FINAL_SINGLE_POINT_ENERGY>  (2253) 
0

>  <NONCOV_INTER_ENERGY_QM>  (2253) 
0

>  <FF_Energy>  (2253) 
17.87

>  <QM_Energy>  (2253) 
0.42

>  <source>  (2253) 
ACET_PRPA_29

>  <Index>  (2253) 
29261

$$$$
ACEH-pdb2vun-C-ASH-74:PRPA-pdb2vun-C-ILE-85
     RDKit          3D

 18 16  0  0  0  0  0  0  0  0999 V2000
   -0.0042    1.5386    0.0206 C   0  0  0  0  0  0  0  0  0  0  0  0
    0.5634    1.8645   -0.7241 H   0  0  0  0  0  0  0  0  0  0  0  0
    0.3501    1.8421    0.8945 H   0  0  0  0  0  0  0  0  0  0  0  0
   -0.9993    1.9654   -0.1047 H   0  0  0  0  0  0  0  0  0  0  0  0
    0.0000    0.0000    0.0000 C   0  0  0  0  0  0  0  0  0  0  0  0
   -1.1040   -0.5953   -0.0000 O   0  0  0  0  0  0  0  0  0  0  0  0
    1.1040   -0.6235   -0.0000 O   0  0  0  0  0  0  0  0  0  0  0  0
   -0.9186   -3.5535   -0.4494 C   0  0  0  0  0  0  0  0  0  0  0  0
   -1.6209   -4.2475   -0.6168 H   0  0  0  0  0  0  0  0  0  0  0  0
   -1.2025   -3.0536    0.4766 H   0  0  0  0  0  0  0  0  0  0  0  0
    0.0238   -4.0849   -0.3164 H   0  0  0  0  0  0  0  0  0  0  0  0
   -0.8920   -2.5900   -1.6763 C   0  0  0  0  0  0  0  0  0  0  0  0
   -0.3128   -1.8242   -1.4425 H   0  0  0  0  0  0  0  0  0  0  0  0
   -0.5093   -3.0984   -2.5613 H   0  0  0  0  0  0  0  0  0  0  0  0
   -2.3070   -2.0592   -1.9458 C   0  0  0  0  0  0  0  0  0  0  0  0
   -2.8819   -2.8248   -2.2497 H   0  0  0  0  0  0  0  0  0  0  0  0
   -2.6864   -1.7173   -1.0797 H   0  0  0  0  0  0  0  0  0  0  0  0
   -2.3808   -1.2611   -2.6845 H   0  0  0  0  0  0  0  0  0  0  0  0
  1  5  1  0
  5  6  2  0
  5  7  1  0
  1  2  1  0
  1  3  1  0
  1  4  1  0
  8 12  1  0
 12 15  1  0
  8  9  1  0
  8 10  1  0
  8 11  1  0
 12 13  1  0
 12 14  1  0
 15 16  1  0
 15 17  1  0
 15 18  1  0
M  CHG  1   7  -1
V    7 [O&-]
M  END
>  <PDB_ID>  (2254) 
pdb2vun

>  <RESIDUE_NAME>  (2254) 
ASP   ILE

>  <FRAG_NAME>  (2254) 
ACET   PRPA

>  <FRAG_ATOM_NUM>  (2254) 
fragi: 7 fragj: 11

>  <atom.prop.CHAIN_ID>  (2254) 
A A A A A A A Z Z Z Z Z Z Z Z Z Z Z

>  <atom.prop.IS_HEAVY_ATOM>  (2254) 
1 0 0 0 1 1 1 1 0 0 0 1 0 0 1 0 0 0

>  <DIFUSE_FUNC_ATOM>  (2254) 
n/a

>  <FINAL_SINGLE_POINT_ENERGY>  (2254) 
0

>  <NONCOV_INTER_ENERGY_QM>  (2254) 
0

>  <FF_Energy>  (2254) 
20.91

>  <QM_Energy>  (2254) 
0.69

>  <source>  (2254) 
ACET_PRPA_29

>  <Index>  (2254) 
29664

$$$$
ACEH-pdb2vun-C-ASH-74:PRPA-pdb2vun-C-ILE-85
     RDKit          3D

 18 16  0  0  0  0  0  0  0  0999 V2000
   -0.0042    1.5386    0.0206 C   0  0  0  0  0  0  0  0  0  0  0  0
    0.5634    1.8645   -0.7241 H   0  0  0  0  0  0  0  0  0  0  0  0
    0.3501    1.8421    0.8945 H   0  0  0  0  0  0  0  0  0  0  0  0
   -0.9993    1.9654   -0.1047 H   0  0  0  0  0  0  0  0  0  0  0  0
    0.0000    0.0000    0.0000 C   0  0  0  0  0  0  0  0  0  0  0  0
   -1.1040   -0.5953   -0.0000 O   0  0  0  0  0  0  0  0  0  0  0  0
    1.1040   -0.6235   -0.0000 O   0  0  0  0  0  0  0  0  0  0  0  0
   -0.8920   -2.5900   -1.6763 C   0  0  0  0  0  0  0  0  0  0  0  0
   -0.3128   -1.8242   -1.4425 H   0  0  0  0  0  0  0  0  0  0  0  0
   -0.9106   -3.2632   -0.8192 H   0  0  0  0  0  0  0  0  0  0  0  0
   -0.5093   -3.0984   -2.5613 H   0  0  0  0  0  0  0  0  0  0  0  0
   -2.3070   -2.0592   -1.9458 C   0  0  0  0  0  0  0  0  0  0  0  0
   -2.8819   -2.8248   -2.2497 H   0  0  0  0  0  0  0  0  0  0  0  0
   -2.6864   -1.7173   -1.0797 H   0  0  0  0  0  0  0  0  0  0  0  0
   -2.4110   -0.9343   -2.9869 C   0  0  0  0  0  0  0  0  0  0  0  0
   -2.0616   -1.2706   -3.8567 H   0  0  0  0  0  0  0  0  0  0  0  0
   -3.3661   -0.6718   -3.0788 H   0  0  0  0  0  0  0  0  0  0  0  0
   -1.8703   -0.1591   -2.6754 H   0  0  0  0  0  0  0  0  0  0  0  0
  1  5  1  0
  5  6  2  0
  5  7  1  0
  1  2  1  0
  1  3  1  0
  1  4  1  0
  8 12  1  0
 12 15  1  0
  8  9  1  0
  8 10  1  0
  8 11  1  0
 12 13  1  0
 12 14  1  0
 15 16  1  0
 15 17  1  0
 15 18  1  0
M  CHG  1   7  -1
V    7 [O&-]
M  END
>  <PDB_ID>  (2255) 
pdb2vun

>  <RESIDUE_NAME>  (2255) 
ASP   ILE

>  <FRAG_NAME>  (2255) 
ACET   PRPA

>  <FRAG_ATOM_NUM>  (2255) 
fragi: 7 fragj: 11

>  <atom.prop.CHAIN_ID>  (2255) 
A A A A A A A Z Z Z Z Z Z Z Z Z Z Z

>  <atom.prop.IS_HEAVY_ATOM>  (2255) 
1 0 0 0 1 1 1 1 0 0 0 1 0 0 1 0 0 0

>  <DIFUSE_FUNC_ATOM>  (2255) 
n/a

>  <FINAL_SINGLE_POINT_ENERGY>  (2255) 
0

>  <NONCOV_INTER_ENERGY_QM>  (2255) 
0

>  <FF_Energy>  (2255) 
18.64

>  <QM_Energy>  (2255) 
0.67

>  <source>  (2255) 
ACET_PRPA_29

>  <Index>  (2255) 
29743

$$$$
ACEH-pdb2vun-C-ASH-74:PRPA-pdb2vun-C-ILE-85
     RDKit          3D

 18 16  0  0  0  0  0  0  0  0999 V2000
   -0.0042    1.5386    0.0206 C   0  0  0  0  0  0  0  0  0  0  0  0
    0.5634    1.8645   -0.7241 H   0  0  0  0  0  0  0  0  0  0  0  0
    0.3501    1.8421    0.8945 H   0  0  0  0  0  0  0  0  0  0  0  0
   -0.9993    1.9654   -0.1047 H   0  0  0  0  0  0  0  0  0  0  0  0
    0.0000    0.0000    0.0000 C   0  0  0  0  0  0  0  0  0  0  0  0
   -1.1040   -0.5953   -0.0000 O   0  0  0  0  0  0  0  0  0  0  0  0
    1.1040   -0.6235   -0.0000 O   0  0  0  0  0  0  0  0  0  0  0  0
   -2.3070   -2.0592   -1.9458 C   0  0  0  0  0  0  0  0  0  0  0  0
   -2.8819   -2.8248   -2.2497 H   0  0  0  0  0  0  0  0  0  0  0  0
   -2.6864   -1.7173   -1.0797 H   0  0  0  0  0  0  0  0  0  0  0  0
   -2.3808   -1.2611   -2.6845 H   0  0  0  0  0  0  0  0  0  0  0  0
   -0.8920   -2.5900   -1.6763 C   0  0  0  0  0  0  0  0  0  0  0  0
   -0.3128   -1.8242   -1.4425 H   0  0  0  0  0  0  0  0  0  0  0  0
   -0.9106   -3.2632   -0.8192 H   0  0  0  0  0  0  0  0  0  0  0  0
   -0.3490   -3.3113   -2.9320 C   0  0  0  0  0  0  0  0  0  0  0  0
   -0.3226   -2.6650   -3.6879 H   0  0  0  0  0  0  0  0  0  0  0  0
    0.5666   -3.6477   -2.7383 H   0  0  0  0  0  0  0  0  0  0  0  0
   -0.9520   -4.0706   -3.1520 H   0  0  0  0  0  0  0  0  0  0  0  0
  1  5  1  0
  5  6  2  0
  5  7  1  0
  1  2  1  0
  1  3  1  0
  1  4  1  0
  8 12  1  0
 12 15  1  0
  8  9  1  0
  8 10  1  0
  8 11  1  0
 12 13  1  0
 12 14  1  0
 15 16  1  0
 15 17  1  0
 15 18  1  0
M  CHG  1   7  -1
V    7 [O&-]
M  END
>  <PDB_ID>  (2256) 
pdb2vun

>  <RESIDUE_NAME>  (2256) 
ASP   ILE

>  <FRAG_NAME>  (2256) 
ACET   PRPA

>  <FRAG_ATOM_NUM>  (2256) 
fragi: 7 fragj: 11

>  <atom.prop.CHAIN_ID>  (2256) 
A A A A A A A Z Z Z Z Z Z Z Z Z Z Z

>  <atom.prop.IS_HEAVY_ATOM>  (2256) 
1 0 0 0 1 1 1 1 0 0 0 1 0 0 1 0 0 0

>  <DIFUSE_FUNC_ATOM>  (2256) 
n/a

>  <FINAL_SINGLE_POINT_ENERGY>  (2256) 
0

>  <NONCOV_INTER_ENERGY_QM>  (2256) 
0

>  <FF_Energy>  (2256) 
18.08

>  <QM_Energy>  (2256) 
1.73

>  <source>  (2256) 
ACET_PRPA_29

>  <Index>  (2256) 
29788

$$$$
ACEH-pdb2vun-D-ASH-74:PRPA-pdb2vun-D-ILE-85
     RDKit          3D

 18 16  0  0  0  0  0  0  0  0999 V2000
   -0.0140    1.5305    0.0145 C   0  0  0  0  0  0  0  0  0  0  0  0
    0.5376    1.8601   -0.7394 H   0  0  0  0  0  0  0  0  0  0  0  0
    0.3469    1.8434    0.8818 H   0  0  0  0  0  0  0  0  0  0  0  0
   -1.0162    1.9438   -0.0993 H   0  0  0  0  0  0  0  0  0  0  0  0
    0.0000    0.0000    0.0000 C   0  0  0  0  0  0  0  0  0  0  0  0
   -1.0978   -0.5952    0.0000 O   0  0  0  0  0  0  0  0  0  0  0  0
    1.0978   -0.6180   -0.0000 O   0  0  0  0  0  0  0  0  0  0  0  0
   -0.8480   -3.6870   -0.3871 C   0  0  0  0  0  0  0  0  0  0  0  0
   -1.5061   -4.4257   -0.5363 H   0  0  0  0  0  0  0  0  0  0  0  0
   -1.1599   -3.1878    0.5303 H   0  0  0  0  0  0  0  0  0  0  0  0
    0.1263   -4.1549   -0.2463 H   0  0  0  0  0  0  0  0  0  0  0  0
   -0.8412   -2.7179   -1.5936 C   0  0  0  0  0  0  0  0  0  0  0  0
   -0.3025   -1.9262   -1.3458 H   0  0  0  0  0  0  0  0  0  0  0  0
   -0.3877   -3.1896   -2.4653 H   0  0  0  0  0  0  0  0  0  0  0  0
   -2.2770   -2.2464   -1.8795 C   0  0  0  0  0  0  0  0  0  0  0  0
   -2.8045   -3.0302   -2.2140 H   0  0  0  0  0  0  0  0  0  0  0  0
   -2.6843   -1.9460   -1.0129 H   0  0  0  0  0  0  0  0  0  0  0  0
   -2.3614   -1.4335   -2.6007 H   0  0  0  0  0  0  0  0  0  0  0  0
  1  5  1  0
  5  6  2  0
  5  7  1  0
  1  2  1  0
  1  3  1  0
  1  4  1  0
  8 12  1  0
 12 15  1  0
  8  9  1  0
  8 10  1  0
  8 11  1  0
 12 13  1  0
 12 14  1  0
 15 16  1  0
 15 17  1  0
 15 18  1  0
M  CHG  1   7  -1
V    7 [O&-]
M  END
>  <PDB_ID>  (2257) 
pdb2vun

>  <RESIDUE_NAME>  (2257) 
ASP   ILE

>  <FRAG_NAME>  (2257) 
ACET   PRPA

>  <FRAG_ATOM_NUM>  (2257) 
fragi: 7 fragj: 11

>  <atom.prop.CHAIN_ID>  (2257) 
A A A A A A A Z Z Z Z Z Z Z Z Z Z Z

>  <atom.prop.IS_HEAVY_ATOM>  (2257) 
1 0 0 0 1 1 1 1 0 0 0 1 0 0 1 0 0 0

>  <DIFUSE_FUNC_ATOM>  (2257) 
n/a

>  <FINAL_SINGLE_POINT_ENERGY>  (2257) 
0

>  <NONCOV_INTER_ENERGY_QM>  (2257) 
0

>  <FF_Energy>  (2257) 
17.03

>  <QM_Energy>  (2257) 
-0.73

>  <source>  (2257) 
ACET_PRPA_29

>  <Index>  (2257) 
29893

$$$$
ACEH-pdb2vun-D-ASH-74:PRPA-pdb2vun-D-ILE-85
     RDKit          3D

 18 16  0  0  0  0  0  0  0  0999 V2000
   -0.0140    1.5305    0.0145 C   0  0  0  0  0  0  0  0  0  0  0  0
    0.5376    1.8601   -0.7394 H   0  0  0  0  0  0  0  0  0  0  0  0
    0.3469    1.8434    0.8818 H   0  0  0  0  0  0  0  0  0  0  0  0
   -1.0162    1.9438   -0.0993 H   0  0  0  0  0  0  0  0  0  0  0  0
    0.0000    0.0000    0.0000 C   0  0  0  0  0  0  0  0  0  0  0  0
   -1.0978   -0.5952    0.0000 O   0  0  0  0  0  0  0  0  0  0  0  0
    1.0978   -0.6180   -0.0000 O   0  0  0  0  0  0  0  0  0  0  0  0
   -0.8412   -2.7179   -1.5936 C   0  0  0  0  0  0  0  0  0  0  0  0
   -0.3025   -1.9262   -1.3458 H   0  0  0  0  0  0  0  0  0  0  0  0
   -0.8460   -3.4005   -0.7438 H   0  0  0  0  0  0  0  0  0  0  0  0
   -0.3877   -3.1896   -2.4653 H   0  0  0  0  0  0  0  0  0  0  0  0
   -2.2770   -2.2464   -1.8795 C   0  0  0  0  0  0  0  0  0  0  0  0
   -2.8045   -3.0302   -2.2140 H   0  0  0  0  0  0  0  0  0  0  0  0
   -2.6843   -1.9460   -1.0129 H   0  0  0  0  0  0  0  0  0  0  0  0
   -2.3949   -1.1109   -2.8870 C   0  0  0  0  0  0  0  0  0  0  0  0
   -2.0091   -1.4059   -3.7583 H   0  0  0  0  0  0  0  0  0  0  0  0
   -3.3578   -0.8772   -3.0042 H   0  0  0  0  0  0  0  0  0  0  0  0
   -1.8940   -0.3190   -2.5465 H   0  0  0  0  0  0  0  0  0  0  0  0
  1  5  1  0
  5  6  2  0
  5  7  1  0
  1  2  1  0
  1  3  1  0
  1  4  1  0
  8 12  1  0
 12 15  1  0
  8  9  1  0
  8 10  1  0
  8 11  1  0
 12 13  1  0
 12 14  1  0
 15 16  1  0
 15 17  1  0
 15 18  1  0
M  CHG  1   7  -1
V    7 [O&-]
M  END
>  <PDB_ID>  (2258) 
pdb2vun

>  <RESIDUE_NAME>  (2258) 
ASP   ILE

>  <FRAG_NAME>  (2258) 
ACET   PRPA

>  <FRAG_ATOM_NUM>  (2258) 
fragi: 7 fragj: 11

>  <atom.prop.CHAIN_ID>  (2258) 
A A A A A A A Z Z Z Z Z Z Z Z Z Z Z

>  <atom.prop.IS_HEAVY_ATOM>  (2258) 
1 0 0 0 1 1 1 1 0 0 0 1 0 0 1 0 0 0

>  <DIFUSE_FUNC_ATOM>  (2258) 
n/a

>  <FINAL_SINGLE_POINT_ENERGY>  (2258) 
0

>  <NONCOV_INTER_ENERGY_QM>  (2258) 
0

>  <FF_Energy>  (2258) 
15.52

>  <QM_Energy>  (2258) 
-0.39

>  <source>  (2258) 
ACET_PRPA_29

>  <Index>  (2258) 
29968

$$$$
ACEH-pdb1ne7-A-GLH-217:PRPA-pdb1ne7-A-LYS-248
     RDKit          3D

 18 16  0  0  0  0  0  0  0  0999 V2000
   -0.0114    1.5162   -0.0165 C   0  0  0  0  0  0  0  0  0  0  0  0
   -0.9312    1.8058    0.1806 H   0  0  0  0  0  0  0  0  0  0  0  0
    0.2839    1.8026   -0.9108 H   0  0  0  0  0  0  0  0  0  0  0  0
    0.6562    1.9512    0.7272 H   0  0  0  0  0  0  0  0  0  0  0  0
    0.0000    0.0000    0.0000 C   0  0  0  0  0  0  0  0  0  0  0  0
   -1.0949   -0.5870   -0.0000 O   0  0  0  0  0  0  0  0  0  0  0  0
    1.0949   -0.6045    0.0000 O   0  0  0  0  0  0  0  0  0  0  0  0
    0.3144   -4.4276   -1.0725 C   0  0  0  0  0  0  0  0  0  0  0  0
   -0.4779   -4.9294   -0.7267 H   0  0  0  0  0  0  0  0  0  0  0  0
    0.7541   -3.8509   -0.2588 H   0  0  0  0  0  0  0  0  0  0  0  0
    1.0527   -5.1423   -1.4362 H   0  0  0  0  0  0  0  0  0  0  0  0
   -0.1210   -3.5201   -2.2263 C   0  0  0  0  0  0  0  0  0  0  0  0
    0.6519   -2.9401   -2.4733 H   0  0  0  0  0  0  0  0  0  0  0  0
   -0.3702   -4.1004   -2.9994 H   0  0  0  0  0  0  0  0  0  0  0  0
   -1.3029   -2.6282   -1.8938 C   0  0  0  0  0  0  0  0  0  0  0  0
   -1.9936   -3.1670   -1.4074 H   0  0  0  0  0  0  0  0  0  0  0  0
   -0.9945   -1.8800   -1.3047 H   0  0  0  0  0  0  0  0  0  0  0  0
   -1.7557   -2.2053   -2.7905 H   0  0  0  0  0  0  0  0  0  0  0  0
  1  5  1  0
  5  6  2  0
  5  7  1  0
  1  2  1  0
  1  3  1  0
  1  4  1  0
  8 12  1  0
 12 15  1  0
  8  9  1  0
  8 10  1  0
  8 11  1  0
 12 13  1  0
 12 14  1  0
 15 16  1  0
 15 17  1  0
 15 18  1  0
M  CHG  1   7  -1
V    7 [O&-]
M  END
>  <PDB_ID>  (2259) 
pdb1ne7

>  <RESIDUE_NAME>  (2259) 
GLU   LYS

>  <FRAG_NAME>  (2259) 
ACET   PRPA

>  <FRAG_ATOM_NUM>  (2259) 
fragi: 7 fragj: 11

>  <atom.prop.CHAIN_ID>  (2259) 
A A A A A A A Z Z Z Z Z Z Z Z Z Z Z

>  <atom.prop.IS_HEAVY_ATOM>  (2259) 
1 0 0 0 1 1 1 1 0 0 0 1 0 0 1 0 0 0

>  <DIFUSE_FUNC_ATOM>  (2259) 
n/a

>  <FINAL_SINGLE_POINT_ENERGY>  (2259) 
0

>  <NONCOV_INTER_ENERGY_QM>  (2259) 
0

>  <FF_Energy>  (2259) 
21.89

>  <QM_Energy>  (2259) 
-0.59

>  <source>  (2259) 
ACET_PRPA_29

>  <Index>  (2259) 
30204

$$$$
ACEH-pdb5ur2-B-GLH-580:PRPA-pdb5ur2-B-VAL-670
     RDKit          3D

 18 16  0  0  0  0  0  0  0  0999 V2000
   -0.0152    1.5238   -0.0067 C   0  0  0  0  0  0  0  0  0  0  0  0
   -0.1645    1.8190    0.9242 H   0  0  0  0  0  0  0  0  0  0  0  0
   -0.7546    1.8054   -0.5978 H   0  0  0  0  0  0  0  0  0  0  0  0
    0.9094    1.9739   -0.3684 H   0  0  0  0  0  0  0  0  0  0  0  0
    0.0000    0.0000    0.0000 C   0  0  0  0  0  0  0  0  0  0  0  0
   -1.0887   -0.6147   -0.0000 O   0  0  0  0  0  0  0  0  0  0  0  0
    1.0887   -0.5998   -0.0000 O   0  0  0  0  0  0  0  0  0  0  0  0
   -0.2806   -3.0672   -1.8278 C   0  0  0  0  0  0  0  0  0  0  0  0
   -0.8816   -3.7136   -2.3078 H   0  0  0  0  0  0  0  0  0  0  0  0
   -0.4388   -3.1905   -0.7565 H   0  0  0  0  0  0  0  0  0  0  0  0
    0.7497   -3.3040   -2.0930 H   0  0  0  0  0  0  0  0  0  0  0  0
   -0.6727   -1.6494   -2.2870 C   0  0  0  0  0  0  0  0  0  0  0  0
   -0.0775   -1.0064   -1.8134 H   0  0  0  0  0  0  0  0  0  0  0  0
   -1.7232   -1.4584   -2.0682 H   0  0  0  0  0  0  0  0  0  0  0  0
   -0.4233   -1.4886   -3.7654 C   0  0  0  0  0  0  0  0  0  0  0  0
    0.4665   -1.0533   -3.9154 H   0  0  0  0  0  0  0  0  0  0  0  0
   -0.4281   -2.3864   -4.2114 H   0  0  0  0  0  0  0  0  0  0  0  0
   -1.1394   -0.9175   -4.1718 H   0  0  0  0  0  0  0  0  0  0  0  0
  1  5  1  0
  5  6  2  0
  5  7  1  0
  1  2  1  0
  1  3  1  0
  1  4  1  0
  8 12  1  0
 12 15  1  0
  8  9  1  0
  8 10  1  0
  8 11  1  0
 12 13  1  0
 12 14  1  0
 15 16  1  0
 15 17  1  0
 15 18  1  0
M  CHG  1   7  -1
V    7 [O&-]
M  END
>  <PDB_ID>  (2260) 
pdb5ur2

>  <RESIDUE_NAME>  (2260) 
GLU   VAL

>  <FRAG_NAME>  (2260) 
ACET   PRPA

>  <FRAG_ATOM_NUM>  (2260) 
fragi: 7 fragj: 11

>  <atom.prop.CHAIN_ID>  (2260) 
A A A A A A A Z Z Z Z Z Z Z Z Z Z Z

>  <atom.prop.IS_HEAVY_ATOM>  (2260) 
1 0 0 0 1 1 1 1 0 0 0 1 0 0 1 0 0 0

>  <DIFUSE_FUNC_ATOM>  (2260) 
n/a

>  <FINAL_SINGLE_POINT_ENERGY>  (2260) 
0

>  <NONCOV_INTER_ENERGY_QM>  (2260) 
0

>  <FF_Energy>  (2260) 
28.82

>  <QM_Energy>  (2260) 
4.84

>  <source>  (2260) 
ACET_PRPA_29

>  <Index>  (2260) 
30459

$$$$
ACEH-pdb1ngk-G-GLH-30:PRPA-pdb1ngk-A-GLU-64
     RDKit          3D

 18 16  0  0  0  0  0  0  0  0999 V2000
   -0.0160    1.5475   -0.0061 C   0  0  0  0  0  0  0  0  0  0  0  0
    0.8473    1.8455    0.3769 H   0  0  0  0  0  0  0  0  0  0  0  0
   -0.7739    1.8288    0.5664 H   0  0  0  0  0  0  0  0  0  0  0  0
   -0.1341    2.0158   -0.9832 H   0  0  0  0  0  0  0  0  0  0  0  0
    0.0000    0.0000    0.0000 C   0  0  0  0  0  0  0  0  0  0  0  0
   -1.0989   -0.6141   -0.0000 O   0  0  0  0  0  0  0  0  0  0  0  0
    1.0989   -0.5809    0.0000 O   0  0  0  0  0  0  0  0  0  0  0  0
   -0.4881   -3.0091   -1.4472 C   0  0  0  0  0  0  0  0  0  0  0  0
   -0.4988   -2.1825   -0.8641 H   0  0  0  0  0  0  0  0  0  0  0  0
   -0.7150   -2.7276   -2.4755 H   0  0  0  0  0  0  0  0  0  0  0  0
    0.4789   -3.5035   -1.3544 H   0  0  0  0  0  0  0  0  0  0  0  0
   -1.5840   -3.9128   -0.8645 C   0  0  0  0  0  0  0  0  0  0  0  0
   -1.8701   -4.5296   -1.5762 H   0  0  0  0  0  0  0  0  0  0  0  0
   -1.1994   -4.3890   -0.0948 H   0  0  0  0  0  0  0  0  0  0  0  0
   -2.8164   -3.1648   -0.3774 C   0  0  0  0  0  0  0  0  0  0  0  0
   -2.5601   -2.6214    0.4013 H   0  0  0  0  0  0  0  0  0  0  0  0
   -3.1591   -2.6154   -1.1171 H   0  0  0  0  0  0  0  0  0  0  0  0
   -3.6229   -3.8270   -0.0628 H   0  0  0  0  0  0  0  0  0  0  0  0
  1  5  1  0
  5  6  2  0
  5  7  1  0
  1  2  1  0
  1  3  1  0
  1  4  1  0
  8 12  1  0
 12 15  1  0
  8  9  1  0
  8 10  1  0
  8 11  1  0
 12 13  1  0
 12 14  1  0
 15 16  1  0
 15 17  1  0
 15 18  1  0
M  CHG  1   7  -1
V    7 [O&-]
M  END
>  <PDB_ID>  (2261) 
pdb1ngk

>  <RESIDUE_NAME>  (2261) 
GLU   GLU

>  <FRAG_NAME>  (2261) 
ACET   PRPA

>  <FRAG_ATOM_NUM>  (2261) 
fragi: 7 fragj: 11

>  <atom.prop.CHAIN_ID>  (2261) 
A A A A A A A Z Z Z Z Z Z Z Z Z Z Z

>  <atom.prop.IS_HEAVY_ATOM>  (2261) 
1 0 0 0 1 1 1 1 0 0 0 1 0 0 1 0 0 0

>  <DIFUSE_FUNC_ATOM>  (2261) 
n/a

>  <FINAL_SINGLE_POINT_ENERGY>  (2261) 
0

>  <NONCOV_INTER_ENERGY_QM>  (2261) 
0

>  <FF_Energy>  (2261) 
17.98

>  <QM_Energy>  (2261) 
-1.24

>  <source>  (2261) 
ACET_PRPA_29

>  <Index>  (2261) 
30651

$$$$
ACEH-pdb3mkv-D-GLH-336:PRPA-pdb3mkv-D-VAL-276
     RDKit          3D

 18 16  0  0  0  0  0  0  0  0999 V2000
    0.0108    1.5315    0.0029 C   0  0  0  0  0  0  0  0  0  0  0  0
    0.6693    1.8215   -0.6669 H   0  0  0  0  0  0  0  0  0  0  0  0
    0.2534    1.8211    0.9110 H   0  0  0  0  0  0  0  0  0  0  0  0
   -0.9514    1.9759   -0.2513 H   0  0  0  0  0  0  0  0  0  0  0  0
    0.0000    0.0000    0.0000 C   0  0  0  0  0  0  0  0  0  0  0  0
   -1.0958   -0.6011    0.0000 O   0  0  0  0  0  0  0  0  0  0  0  0
    1.0958   -0.6056   -0.0000 O   0  0  0  0  0  0  0  0  0  0  0  0
   -4.2461   -1.9145   -1.4131 C   0  0  0  0  0  0  0  0  0  0  0  0
   -4.7923   -1.8738   -0.5583 H   0  0  0  0  0  0  0  0  0  0  0  0
   -3.2621   -2.3086   -1.1591 H   0  0  0  0  0  0  0  0  0  0  0  0
   -4.7878   -2.5327   -2.1292 H   0  0  0  0  0  0  0  0  0  0  0  0
   -4.1657   -0.5237   -2.0544 C   0  0  0  0  0  0  0  0  0  0  0  0
   -4.1590   -0.6389   -3.0394 H   0  0  0  0  0  0  0  0  0  0  0  0
   -5.0625    0.0469   -1.8126 H   0  0  0  0  0  0  0  0  0  0  0  0
   -2.9110    0.1980   -1.6177 C   0  0  0  0  0  0  0  0  0  0  0  0
   -2.1893   -0.4696   -1.4285 H   0  0  0  0  0  0  0  0  0  0  0  0
   -2.6096    0.8168   -2.3453 H   0  0  0  0  0  0  0  0  0  0  0  0
   -3.1000    0.7273   -0.7883 H   0  0  0  0  0  0  0  0  0  0  0  0
  1  5  1  0
  5  6  2  0
  5  7  1  0
  1  2  1  0
  1  3  1  0
  1  4  1  0
  8 12  1  0
 12 15  1  0
  8  9  1  0
  8 10  1  0
  8 11  1  0
 12 13  1  0
 12 14  1  0
 15 16  1  0
 15 17  1  0
 15 18  1  0
M  CHG  1   7  -1
V    7 [O&-]
M  END
>  <PDB_ID>  (2262) 
pdb3mkv

>  <RESIDUE_NAME>  (2262) 
GLU   VAL

>  <FRAG_NAME>  (2262) 
ACET   PRPA

>  <FRAG_ATOM_NUM>  (2262) 
fragi: 7 fragj: 11

>  <atom.prop.CHAIN_ID>  (2262) 
A A A A A A A Z Z Z Z Z Z Z Z Z Z Z

>  <atom.prop.IS_HEAVY_ATOM>  (2262) 
1 0 0 0 1 1 1 1 0 0 0 1 0 0 1 0 0 0

>  <DIFUSE_FUNC_ATOM>  (2262) 
n/a

>  <FINAL_SINGLE_POINT_ENERGY>  (2262) 
0

>  <NONCOV_INTER_ENERGY_QM>  (2262) 
0

>  <FF_Energy>  (2262) 
32.68

>  <QM_Energy>  (2262) 
5.24

>  <source>  (2262) 
ACET_PRPA_29

>  <Index>  (2262) 
31257

$$$$
ACEH-pdb4oko-B-GLH-106:PRPA-pdb4oko-C-LEU-287
     RDKit          3D

 18 16  0  0  0  0  0  0  0  0999 V2000
   -0.0140    1.5075   -0.1434 C   0  0  0  0  0  0  0  0  0  0  0  0
    0.7045    1.7638   -0.7417 H   0  0  0  0  0  0  0  0  0  0  0  0
    0.1202    1.8987    0.7339 H   0  0  0  0  0  0  0  0  0  0  0  0
   -0.9639    1.8527   -0.5516 H   0  0  0  0  0  0  0  0  0  0  0  0
    0.0000    0.0000    0.0000 C   0  0  0  0  0  0  0  0  0  0  0  0
   -1.0925   -0.6041    0.0000 O   0  0  0  0  0  0  0  0  0  0  0  0
    1.0925   -0.5963   -0.0000 O   0  0  0  0  0  0  0  0  0  0  0  0
    3.9799   -0.0704    0.5532 C   0  0  0  0  0  0  0  0  0  0  0  0
    4.2595    0.8304    0.3243 H   0  0  0  0  0  0  0  0  0  0  0  0
    3.3971   -0.4124   -0.1416 H   0  0  0  0  0  0  0  0  0  0  0  0
    4.8663   -0.7030    0.5996 H   0  0  0  0  0  0  0  0  0  0  0  0
    3.1563    0.0210    1.8358 C   0  0  0  0  0  0  0  0  0  0  0  0
    2.4756    0.7052    1.7376 H   0  0  0  0  0  0  0  0  0  0  0  0
    3.7702    0.2602    2.7042 H   0  0  0  0  0  0  0  0  0  0  0  0
    2.4704   -1.3209    2.0400 C   0  0  0  0  0  0  0  0  0  0  0  0
    3.1465   -2.0124    2.1169 H   0  0  0  0  0  0  0  0  0  0  0  0
    1.9408   -1.2834    2.8511 H   0  0  0  0  0  0  0  0  0  0  0  0
    1.8975   -1.5016    1.2786 H   0  0  0  0  0  0  0  0  0  0  0  0
  1  5  1  0
  5  6  2  0
  5  7  1  0
  1  2  1  0
  1  3  1  0
  1  4  1  0
  8 12  1  0
 12 15  1  0
  8  9  1  0
  8 10  1  0
  8 11  1  0
 12 13  1  0
 12 14  1  0
 15 16  1  0
 15 17  1  0
 15 18  1  0
M  CHG  1   7  -1
V    7 [O&-]
M  END
>  <PDB_ID>  (2263) 
pdb4oko

>  <RESIDUE_NAME>  (2263) 
GLU   LEU

>  <FRAG_NAME>  (2263) 
ACET   PRPA

>  <FRAG_ATOM_NUM>  (2263) 
fragi: 7 fragj: 11

>  <atom.prop.CHAIN_ID>  (2263) 
A A A A A A A Z Z Z Z Z Z Z Z Z Z Z

>  <atom.prop.IS_HEAVY_ATOM>  (2263) 
1 0 0 0 1 1 1 1 0 0 0 1 0 0 1 0 0 0

>  <DIFUSE_FUNC_ATOM>  (2263) 
n/a

>  <FINAL_SINGLE_POINT_ENERGY>  (2263) 
0

>  <NONCOV_INTER_ENERGY_QM>  (2263) 
0

>  <FF_Energy>  (2263) 
44.64

>  <QM_Energy>  (2263) 
2.55

>  <source>  (2263) 
ACET_PRPA_29

>  <Index>  (2263) 
31586

$$$$
ACEH-pdb4oko-B-GLH-106:PRPA-pdb4oko-C-LEU-287
     RDKit          3D

 18 16  0  0  0  0  0  0  0  0999 V2000
   -0.0140    1.5075   -0.1434 C   0  0  0  0  0  0  0  0  0  0  0  0
    0.7045    1.7638   -0.7417 H   0  0  0  0  0  0  0  0  0  0  0  0
    0.1202    1.8987    0.7339 H   0  0  0  0  0  0  0  0  0  0  0  0
   -0.9639    1.8527   -0.5516 H   0  0  0  0  0  0  0  0  0  0  0  0
    0.0000    0.0000    0.0000 C   0  0  0  0  0  0  0  0  0  0  0  0
   -1.0925   -0.6041    0.0000 O   0  0  0  0  0  0  0  0  0  0  0  0
    1.0925   -0.5963   -0.0000 O   0  0  0  0  0  0  0  0  0  0  0  0
    2.4704   -1.3209    2.0400 C   0  0  0  0  0  0  0  0  0  0  0  0
    3.1465   -2.0124    2.1169 H   0  0  0  0  0  0  0  0  0  0  0  0
    1.9408   -1.2834    2.8511 H   0  0  0  0  0  0  0  0  0  0  0  0
    1.8975   -1.5016    1.2786 H   0  0  0  0  0  0  0  0  0  0  0  0
    3.1563    0.0210    1.8358 C   0  0  0  0  0  0  0  0  0  0  0  0
    2.4756    0.7052    1.7376 H   0  0  0  0  0  0  0  0  0  0  0  0
    3.7441   -0.0443    0.9203 H   0  0  0  0  0  0  0  0  0  0  0  0
    4.0078    0.3527    3.0404 C   0  0  0  0  0  0  0  0  0  0  0  0
    3.4397    0.3986    3.8252 H   0  0  0  0  0  0  0  0  0  0  0  0
    4.6764   -0.3407    3.1560 H   0  0  0  0  0  0  0  0  0  0  0  0
    4.4401    1.2084    2.8946 H   0  0  0  0  0  0  0  0  0  0  0  0
  1  5  1  0
  5  6  2  0
  5  7  1  0
  1  2  1  0
  1  3  1  0
  1  4  1  0
  8 12  1  0
 12 15  1  0
  8  9  1  0
  8 10  1  0
  8 11  1  0
 12 13  1  0
 12 14  1  0
 15 16  1  0
 15 17  1  0
 15 18  1  0
M  CHG  1   7  -1
V    7 [O&-]
M  END
>  <PDB_ID>  (2264) 
pdb4oko

>  <RESIDUE_NAME>  (2264) 
GLU   LEU

>  <FRAG_NAME>  (2264) 
ACET   PRPA

>  <FRAG_ATOM_NUM>  (2264) 
fragi: 7 fragj: 11

>  <atom.prop.CHAIN_ID>  (2264) 
A A A A A A A Z Z Z Z Z Z Z Z Z Z Z

>  <atom.prop.IS_HEAVY_ATOM>  (2264) 
1 0 0 0 1 1 1 1 0 0 0 1 0 0 1 0 0 0

>  <DIFUSE_FUNC_ATOM>  (2264) 
n/a

>  <FINAL_SINGLE_POINT_ENERGY>  (2264) 
0

>  <NONCOV_INTER_ENERGY_QM>  (2264) 
0

>  <FF_Energy>  (2264) 
42.03

>  <QM_Energy>  (2264) 
4.28

>  <source>  (2264) 
ACET_PRPA_29

>  <Index>  (2264) 
31634

$$$$
ACEH-pdb1nw1-A-GLH-125:PRPA-pdb1nw1-A-LEU-122
     RDKit          3D

 18 16  0  0  0  0  0  0  0  0999 V2000
    0.1741    1.4835    0.0146 C   0  0  0  0  0  0  0  0  0  0  0  0
    0.6940    1.7393   -0.8023 H   0  0  0  0  0  0  0  0  0  0  0  0
    0.7059    1.7212    0.8297 H   0  0  0  0  0  0  0  0  0  0  0  0
   -0.7359    2.0832    0.0268 H   0  0  0  0  0  0  0  0  0  0  0  0
    0.0000    0.0000    0.0000 C   0  0  0  0  0  0  0  0  0  0  0  0
   -1.0897   -0.5591    0.0000 O   0  0  0  0  0  0  0  0  0  0  0  0
    1.0897   -0.6083   -0.0000 O   0  0  0  0  0  0  0  0  0  0  0  0
    3.3434    0.7033   -1.2075 C   0  0  0  0  0  0  0  0  0  0  0  0
    2.5919    0.2894   -0.6976 H   0  0  0  0  0  0  0  0  0  0  0  0
    3.0816    0.7327   -2.2651 H   0  0  0  0  0  0  0  0  0  0  0  0
    3.4761    1.7258   -0.8540 H   0  0  0  0  0  0  0  0  0  0  0  0
    4.6356   -0.0904   -1.0026 C   0  0  0  0  0  0  0  0  0  0  0  0
    5.3039    0.2361   -1.6787 H   0  0  0  0  0  0  0  0  0  0  0  0
    4.9791    0.1186   -0.0824 H   0  0  0  0  0  0  0  0  0  0  0  0
    4.5739   -1.6123   -1.1278 C   0  0  0  0  0  0  0  0  0  0  0  0
    4.1846   -1.8501   -2.0104 H   0  0  0  0  0  0  0  0  0  0  0  0
    5.5841   -2.0149   -1.0543 H   0  0  0  0  0  0  0  0  0  0  0  0
    3.9469   -2.0299   -0.3401 H   0  0  0  0  0  0  0  0  0  0  0  0
  1  5  1  0
  5  6  2  0
  5  7  1  0
  1  2  1  0
  1  3  1  0
  1  4  1  0
  8 12  1  0
 12 15  1  0
  8  9  1  0
  8 10  1  0
  8 11  1  0
 12 13  1  0
 12 14  1  0
 15 16  1  0
 15 17  1  0
 15 18  1  0
M  CHG  1   7  -1
V    7 [O&-]
M  END
>  <PDB_ID>  (2265) 
pdb1nw1

>  <RESIDUE_NAME>  (2265) 
GLU   LEU

>  <FRAG_NAME>  (2265) 
ACET   PRPA

>  <FRAG_ATOM_NUM>  (2265) 
fragi: 7 fragj: 11

>  <atom.prop.CHAIN_ID>  (2265) 
A A A A A A A Z Z Z Z Z Z Z Z Z Z Z

>  <atom.prop.IS_HEAVY_ATOM>  (2265) 
1 0 0 0 1 1 1 1 0 0 0 1 0 0 1 0 0 0

>  <DIFUSE_FUNC_ATOM>  (2265) 
n/a

>  <FINAL_SINGLE_POINT_ENERGY>  (2265) 
0

>  <NONCOV_INTER_ENERGY_QM>  (2265) 
0

>  <FF_Energy>  (2265) 
15.91

>  <QM_Energy>  (2265) 
-1.32

>  <source>  (2265) 
ACET_PRPA_29

>  <Index>  (2265) 
31880

$$$$
ACEH-pdb5w7a-A-GLH-51:PRPA-pdb5w7a-A-VAL-47
     RDKit          3D

 18 16  0  0  0  0  0  0  0  0999 V2000
    0.1713    1.4842    0.0142 C   0  0  0  0  0  0  0  0  0  0  0  0
    0.6912    1.7405   -0.8025 H   0  0  0  0  0  0  0  0  0  0  0  0
    0.7022    1.7226    0.8301 H   0  0  0  0  0  0  0  0  0  0  0  0
   -0.7393    2.0831    0.0262 H   0  0  0  0  0  0  0  0  0  0  0  0
    0.0000    0.0000    0.0000 C   0  0  0  0  0  0  0  0  0  0  0  0
   -1.0894   -0.5595   -0.0000 O   0  0  0  0  0  0  0  0  0  0  0  0
    1.0894   -0.6063   -0.0000 O   0  0  0  0  0  0  0  0  0  0  0  0
    3.4018    1.2251    3.4036 C   0  0  0  0  0  0  0  0  0  0  0  0
    3.8026    1.8881    2.8194 H   0  0  0  0  0  0  0  0  0  0  0  0
    3.8208    1.3397    4.4033 H   0  0  0  0  0  0  0  0  0  0  0  0
    2.3245    1.3908    3.4054 H   0  0  0  0  0  0  0  0  0  0  0  0
    3.7457   -0.1677    2.8411 C   0  0  0  0  0  0  0  0  0  0  0  0
    3.4053   -0.8454    3.4455 H   0  0  0  0  0  0  0  0  0  0  0  0
    4.8249   -0.2995    2.7637 H   0  0  0  0  0  0  0  0  0  0  0  0
    3.0896   -0.3812    1.4770 C   0  0  0  0  0  0  0  0  0  0  0  0
    3.3234   -1.2625    1.1487 H   0  0  0  0  0  0  0  0  0  0  0  0
    2.1275   -0.3081    1.5753 H   0  0  0  0  0  0  0  0  0  0  0  0
    3.4117    0.2978    0.8633 H   0  0  0  0  0  0  0  0  0  0  0  0
  1  5  1  0
  5  6  2  0
  5  7  1  0
  1  2  1  0
  1  3  1  0
  1  4  1  0
  8 12  1  0
 12 15  1  0
  8  9  1  0
  8 10  1  0
  8 11  1  0
 12 13  1  0
 12 14  1  0
 15 16  1  0
 15 17  1  0
 15 18  1  0
M  CHG  1   7  -1
V    7 [O&-]
M  END
>  <PDB_ID>  (2266) 
pdb5w7a

>  <RESIDUE_NAME>  (2266) 
GLU   VAL

>  <FRAG_NAME>  (2266) 
ACET   PRPA

>  <FRAG_ATOM_NUM>  (2266) 
fragi: 7 fragj: 11

>  <atom.prop.CHAIN_ID>  (2266) 
A A A A A A A Z Z Z Z Z Z Z Z Z Z Z

>  <atom.prop.IS_HEAVY_ATOM>  (2266) 
1 0 0 0 1 1 1 1 0 0 0 1 0 0 1 0 0 0

>  <DIFUSE_FUNC_ATOM>  (2266) 
n/a

>  <FINAL_SINGLE_POINT_ENERGY>  (2266) 
0

>  <NONCOV_INTER_ENERGY_QM>  (2266) 
0

>  <FF_Energy>  (2266) 
22.08

>  <QM_Energy>  (2266) 
4.83

>  <source>  (2266) 
ACET_PRPA_29

>  <Index>  (2266) 
31942

$$$$
ACEH-pdb2poz-F-GLH-36:PRPA-pdb2poz-F-LEU-22
     RDKit          3D

 18 16  0  0  0  0  0  0  0  0999 V2000
   -0.0013    1.5224   -0.0208 C   0  0  0  0  0  0  0  0  0  0  0  0
   -0.6322    1.8299    0.6647 H   0  0  0  0  0  0  0  0  0  0  0  0
   -0.2603    1.8077   -0.9246 H   0  0  0  0  0  0  0  0  0  0  0  0
    0.9751    1.9525    0.2023 H   0  0  0  0  0  0  0  0  0  0  0  0
    0.0000    0.0000    0.0000 C   0  0  0  0  0  0  0  0  0  0  0  0
   -1.0937   -0.6011   -0.0000 O   0  0  0  0  0  0  0  0  0  0  0  0
    1.0937   -0.5977   -0.0000 O   0  0  0  0  0  0  0  0  0  0  0  0
    0.0915    2.4206   -4.7765 C   0  0  0  0  0  0  0  0  0  0  0  0
   -0.1103    2.5344   -5.7648 H   0  0  0  0  0  0  0  0  0  0  0  0
    1.0997    2.3772   -4.6778 H   0  0  0  0  0  0  0  0  0  0  0  0
   -0.2476    3.3233   -4.2684 H   0  0  0  0  0  0  0  0  0  0  0  0
   -0.4559    1.0453   -4.3681 C   0  0  0  0  0  0  0  0  0  0  0  0
   -1.4261    1.0147   -4.5563 H   0  0  0  0  0  0  0  0  0  0  0  0
    0.0534    0.2844   -4.9595 H   0  0  0  0  0  0  0  0  0  0  0  0
   -0.2523    0.7830   -2.8869 C   0  0  0  0  0  0  0  0  0  0  0  0
   -0.7283    1.4835   -2.3523 H   0  0  0  0  0  0  0  0  0  0  0  0
   -0.6187   -0.1187   -2.6517 H   0  0  0  0  0  0  0  0  0  0  0  0
    0.7255    0.8104   -2.6719 H   0  0  0  0  0  0  0  0  0  0  0  0
  1  5  1  0
  5  6  2  0
  5  7  1  0
  1  2  1  0
  1  3  1  0
  1  4  1  0
  8 12  1  0
 12 15  1  0
  8  9  1  0
  8 10  1  0
  8 11  1  0
 12 13  1  0
 12 14  1  0
 15 16  1  0
 15 17  1  0
 15 18  1  0
M  CHG  1   7  -1
V    7 [O&-]
M  END
>  <PDB_ID>  (2267) 
pdb2poz

>  <RESIDUE_NAME>  (2267) 
GLU   LEU

>  <FRAG_NAME>  (2267) 
ACET   PRPA

>  <FRAG_ATOM_NUM>  (2267) 
fragi: 7 fragj: 11

>  <atom.prop.CHAIN_ID>  (2267) 
A A A A A A A Z Z Z Z Z Z Z Z Z Z Z

>  <atom.prop.IS_HEAVY_ATOM>  (2267) 
1 0 0 0 1 1 1 1 0 0 0 1 0 0 1 0 0 0

>  <DIFUSE_FUNC_ATOM>  (2267) 
n/a

>  <FINAL_SINGLE_POINT_ENERGY>  (2267) 
0

>  <NONCOV_INTER_ENERGY_QM>  (2267) 
0

>  <FF_Energy>  (2267) 
28.66

>  <QM_Energy>  (2267) 
4.53

>  <source>  (2267) 
ACET_PRPA_29

>  <Index>  (2267) 
32774

$$$$
ACEH-pdb2poz-F-GLH-36:PRPA-pdb2poz-F-LEU-22
     RDKit          3D

 18 16  0  0  0  0  0  0  0  0999 V2000
   -0.0013    1.5224   -0.0208 C   0  0  0  0  0  0  0  0  0  0  0  0
   -0.6322    1.8299    0.6647 H   0  0  0  0  0  0  0  0  0  0  0  0
   -0.2603    1.8077   -0.9246 H   0  0  0  0  0  0  0  0  0  0  0  0
    0.9751    1.9525    0.2023 H   0  0  0  0  0  0  0  0  0  0  0  0
    0.0000    0.0000    0.0000 C   0  0  0  0  0  0  0  0  0  0  0  0
   -1.0937   -0.6011   -0.0000 O   0  0  0  0  0  0  0  0  0  0  0  0
    1.0937   -0.5977   -0.0000 O   0  0  0  0  0  0  0  0  0  0  0  0
    0.2583   -0.0217   -5.1974 C   0  0  0  0  0  0  0  0  0  0  0  0
    1.2407    0.0234   -5.0197 H   0  0  0  0  0  0  0  0  0  0  0  0
   -0.0870   -0.9240   -4.9432 H   0  0  0  0  0  0  0  0  0  0  0  0
    0.0854    0.1424   -6.1677 H   0  0  0  0  0  0  0  0  0  0  0  0
   -0.4559    1.0453   -4.3681 C   0  0  0  0  0  0  0  0  0  0  0  0
   -1.4261    1.0147   -4.5563 H   0  0  0  0  0  0  0  0  0  0  0  0
   -0.0672    2.0216   -4.6580 H   0  0  0  0  0  0  0  0  0  0  0  0
   -0.2523    0.7830   -2.8869 C   0  0  0  0  0  0  0  0  0  0  0  0
   -0.7283    1.4835   -2.3523 H   0  0  0  0  0  0  0  0  0  0  0  0
   -0.6187   -0.1187   -2.6517 H   0  0  0  0  0  0  0  0  0  0  0  0
    0.7255    0.8104   -2.6719 H   0  0  0  0  0  0  0  0  0  0  0  0
  1  5  1  0
  5  6  2  0
  5  7  1  0
  1  2  1  0
  1  3  1  0
  1  4  1  0
  8 12  1  0
 12 15  1  0
  8  9  1  0
  8 10  1  0
  8 11  1  0
 12 13  1  0
 12 14  1  0
 15 16  1  0
 15 17  1  0
 15 18  1  0
M  CHG  1   7  -1
V    7 [O&-]
M  END
>  <PDB_ID>  (2268) 
pdb2poz

>  <RESIDUE_NAME>  (2268) 
GLU   LEU

>  <FRAG_NAME>  (2268) 
ACET   PRPA

>  <FRAG_ATOM_NUM>  (2268) 
fragi: 7 fragj: 11

>  <atom.prop.CHAIN_ID>  (2268) 
A A A A A A A Z Z Z Z Z Z Z Z Z Z Z

>  <atom.prop.IS_HEAVY_ATOM>  (2268) 
1 0 0 0 1 1 1 1 0 0 0 1 0 0 1 0 0 0

>  <DIFUSE_FUNC_ATOM>  (2268) 
n/a

>  <FINAL_SINGLE_POINT_ENERGY>  (2268) 
0

>  <NONCOV_INTER_ENERGY_QM>  (2268) 
0

>  <FF_Energy>  (2268) 
28.74

>  <QM_Energy>  (2268) 
4.47

>  <source>  (2268) 
ACET_PRPA_29

>  <Index>  (2268) 
32869

$$$$
ACEH-pdb4p9t-A-GLH-88:PRPA-pdb4p9t-B-LEU-85
     RDKit          3D

 18 16  0  0  0  0  0  0  0  0999 V2000
    0.1727    1.4844    0.0166 C   0  0  0  0  0  0  0  0  0  0  0  0
    0.6922    1.7406   -0.8006 H   0  0  0  0  0  0  0  0  0  0  0  0
    0.7045    1.7219    0.8316 H   0  0  0  0  0  0  0  0  0  0  0  0
   -0.7379    2.0834    0.0289 H   0  0  0  0  0  0  0  0  0  0  0  0
    0.0000    0.0000    0.0000 C   0  0  0  0  0  0  0  0  0  0  0  0
   -1.0894   -0.5594   -0.0000 O   0  0  0  0  0  0  0  0  0  0  0  0
    1.0894   -0.6070   -0.0000 O   0  0  0  0  0  0  0  0  0  0  0  0
   -0.6167   -2.2145    4.1581 C   0  0  0  0  0  0  0  0  0  0  0  0
    0.1577   -2.8198    4.3540 H   0  0  0  0  0  0  0  0  0  0  0  0
   -1.1587   -2.6018    3.4113 H   0  0  0  0  0  0  0  0  0  0  0  0
   -1.2480   -2.1876    5.0463 H   0  0  0  0  0  0  0  0  0  0  0  0
   -0.0369   -0.8857    3.6567 C   0  0  0  0  0  0  0  0  0  0  0  0
    0.5699   -0.5150    4.3591 H   0  0  0  0  0  0  0  0  0  0  0  0
   -0.8016   -0.1208    3.5215 H   0  0  0  0  0  0  0  0  0  0  0  0
    0.7382   -1.0978    2.3734 C   0  0  0  0  0  0  0  0  0  0  0  0
    0.1307   -1.4723    1.6697 H   0  0  0  0  0  0  0  0  0  0  0  0
    1.1124   -0.2244    2.0549 H   0  0  0  0  0  0  0  0  0  0  0  0
    1.4907   -1.7393    2.5348 H   0  0  0  0  0  0  0  0  0  0  0  0
  1  5  1  0
  5  6  2  0
  5  7  1  0
  1  2  1  0
  1  3  1  0
  1  4  1  0
  8 12  1  0
 12 15  1  0
  8  9  1  0
  8 10  1  0
  8 11  1  0
 12 13  1  0
 12 14  1  0
 15 16  1  0
 15 17  1  0
 15 18  1  0
M  CHG  1   7  -1
V    7 [O&-]
M  END
>  <PDB_ID>  (2269) 
pdb4p9t

>  <RESIDUE_NAME>  (2269) 
GLU   LEU

>  <FRAG_NAME>  (2269) 
ACET   PRPA

>  <FRAG_ATOM_NUM>  (2269) 
fragi: 7 fragj: 11

>  <atom.prop.CHAIN_ID>  (2269) 
A A A A A A A Z Z Z Z Z Z Z Z Z Z Z

>  <atom.prop.IS_HEAVY_ATOM>  (2269) 
1 0 0 0 1 1 1 1 0 0 0 1 0 0 1 0 0 0

>  <DIFUSE_FUNC_ATOM>  (2269) 
n/a

>  <FINAL_SINGLE_POINT_ENERGY>  (2269) 
0

>  <NONCOV_INTER_ENERGY_QM>  (2269) 
0

>  <FF_Energy>  (2269) 
34.63

>  <QM_Energy>  (2269) 
8.07

>  <source>  (2269) 
ACET_PRPA_29

>  <Index>  (2269) 
33219

$$$$
ACEH-pdb4p9t-C-GLH-88:PRPA-pdb4p9t-D-LEU-85
     RDKit          3D

 18 16  0  0  0  0  0  0  0  0999 V2000
    0.1718    1.4842    0.0154 C   0  0  0  0  0  0  0  0  0  0  0  0
    0.6911    1.7408   -0.8016 H   0  0  0  0  0  0  0  0  0  0  0  0
    0.7034    1.7222    0.8306 H   0  0  0  0  0  0  0  0  0  0  0  0
   -0.7389    2.0829    0.0283 H   0  0  0  0  0  0  0  0  0  0  0  0
    0.0000    0.0000    0.0000 C   0  0  0  0  0  0  0  0  0  0  0  0
   -1.0894   -0.5592   -0.0000 O   0  0  0  0  0  0  0  0  0  0  0  0
    1.0894   -0.6075    0.0000 O   0  0  0  0  0  0  0  0  0  0  0  0
   -0.5944   -2.2161    4.1473 C   0  0  0  0  0  0  0  0  0  0  0  0
    0.1807   -2.8173    4.3486 H   0  0  0  0  0  0  0  0  0  0  0  0
   -1.1330   -2.6092    3.4011 H   0  0  0  0  0  0  0  0  0  0  0  0
   -1.2285   -2.1884    5.0335 H   0  0  0  0  0  0  0  0  0  0  0  0
   -0.0201   -0.8873    3.6446 C   0  0  0  0  0  0  0  0  0  0  0  0
    0.5810   -0.5096    4.3488 H   0  0  0  0  0  0  0  0  0  0  0  0
   -0.7885   -0.1270    3.5050 H   0  0  0  0  0  0  0  0  0  0  0  0
    0.7618   -1.0960    2.3659 C   0  0  0  0  0  0  0  0  0  0  0  0
    0.1607   -1.4766    1.6599 H   0  0  0  0  0  0  0  0  0  0  0  0
    1.1316   -0.2212    2.0481 H   0  0  0  0  0  0  0  0  0  0  0  0
    1.5175   -1.7326    2.5312 H   0  0  0  0  0  0  0  0  0  0  0  0
  1  5  1  0
  5  6  2  0
  5  7  1  0
  1  2  1  0
  1  3  1  0
  1  4  1  0
  8 12  1  0
 12 15  1  0
  8  9  1  0
  8 10  1  0
  8 11  1  0
 12 13  1  0
 12 14  1  0
 15 16  1  0
 15 17  1  0
 15 18  1  0
M  CHG  1   7  -1
V    7 [O&-]
M  END
>  <PDB_ID>  (2270) 
pdb4p9t

>  <RESIDUE_NAME>  (2270) 
GLU   LEU

>  <FRAG_NAME>  (2270) 
ACET   PRPA

>  <FRAG_ATOM_NUM>  (2270) 
fragi: 7 fragj: 11

>  <atom.prop.CHAIN_ID>  (2270) 
A A A A A A A Z Z Z Z Z Z Z Z Z Z Z

>  <atom.prop.IS_HEAVY_ATOM>  (2270) 
1 0 0 0 1 1 1 1 0 0 0 1 0 0 1 0 0 0

>  <DIFUSE_FUNC_ATOM>  (2270) 
n/a

>  <FINAL_SINGLE_POINT_ENERGY>  (2270) 
0

>  <NONCOV_INTER_ENERGY_QM>  (2270) 
0

>  <FF_Energy>  (2270) 
35.93

>  <QM_Energy>  (2270) 
8.51

>  <source>  (2270) 
ACET_PRPA_29

>  <Index>  (2270) 
33528

$$$$
ACEH-pdb4p9t-C-GLH-88:PRPA-pdb4p9t-D-LEU-85
     RDKit          3D

 18 16  0  0  0  0  0  0  0  0999 V2000
    0.1718    1.4842    0.0154 C   0  0  0  0  0  0  0  0  0  0  0  0
    0.6911    1.7408   -0.8016 H   0  0  0  0  0  0  0  0  0  0  0  0
    0.7034    1.7222    0.8306 H   0  0  0  0  0  0  0  0  0  0  0  0
   -0.7389    2.0829    0.0283 H   0  0  0  0  0  0  0  0  0  0  0  0
    0.0000    0.0000    0.0000 C   0  0  0  0  0  0  0  0  0  0  0  0
   -1.0894   -0.5592   -0.0000 O   0  0  0  0  0  0  0  0  0  0  0  0
    1.0894   -0.6075    0.0000 O   0  0  0  0  0  0  0  0  0  0  0  0
    0.7618   -1.0960    2.3659 C   0  0  0  0  0  0  0  0  0  0  0  0
    0.1607   -1.4766    1.6599 H   0  0  0  0  0  0  0  0  0  0  0  0
    1.1316   -0.2212    2.0481 H   0  0  0  0  0  0  0  0  0  0  0  0
    1.5175   -1.7326    2.5312 H   0  0  0  0  0  0  0  0  0  0  0  0
   -0.0201   -0.8873    3.6446 C   0  0  0  0  0  0  0  0  0  0  0  0
    0.5810   -0.5096    4.3488 H   0  0  0  0  0  0  0  0  0  0  0  0
   -0.4286   -1.8325    4.0022 H   0  0  0  0  0  0  0  0  0  0  0  0
   -1.0963    0.1777    3.4490 C   0  0  0  0  0  0  0  0  0  0  0  0
   -1.5551    0.3505    4.3201 H   0  0  0  0  0  0  0  0  0  0  0  0
   -0.6716    1.0220    3.1219 H   0  0  0  0  0  0  0  0  0  0  0  0
   -1.7631   -0.1434    2.7773 H   0  0  0  0  0  0  0  0  0  0  0  0
  1  5  1  0
  5  6  2  0
  5  7  1  0
  1  2  1  0
  1  3  1  0
  1  4  1  0
  8 12  1  0
 12 15  1  0
  8  9  1  0
  8 10  1  0
  8 11  1  0
 12 13  1  0
 12 14  1  0
 15 16  1  0
 15 17  1  0
 15 18  1  0
M  CHG  1   7  -1
V    7 [O&-]
M  END
>  <PDB_ID>  (2271) 
pdb4p9t

>  <RESIDUE_NAME>  (2271) 
GLU   LEU

>  <FRAG_NAME>  (2271) 
ACET   PRPA

>  <FRAG_ATOM_NUM>  (2271) 
fragi: 7 fragj: 11

>  <atom.prop.CHAIN_ID>  (2271) 
A A A A A A A Z Z Z Z Z Z Z Z Z Z Z

>  <atom.prop.IS_HEAVY_ATOM>  (2271) 
1 0 0 0 1 1 1 1 0 0 0 1 0 0 1 0 0 0

>  <DIFUSE_FUNC_ATOM>  (2271) 
n/a

>  <FINAL_SINGLE_POINT_ENERGY>  (2271) 
0

>  <NONCOV_INTER_ENERGY_QM>  (2271) 
0

>  <FF_Energy>  (2271) 
35.84

>  <QM_Energy>  (2271) 
8.28

>  <source>  (2271) 
ACET_PRPA_29

>  <Index>  (2271) 
33573

$$$$
ACEH-pdb1oah-A-GLH-303:PRPA-pdb1oah-A-PRO-300
     RDKit          3D

 18 16  0  0  0  0  0  0  0  0999 V2000
   -0.0067    1.5083    0.0043 C   0  0  0  0  0  0  0  0  0  0  0  0
   -0.8926    1.8069    0.3096 H   0  0  0  0  0  0  0  0  0  0  0  0
    0.1944    1.8144   -0.9085 H   0  0  0  0  0  0  0  0  0  0  0  0
    0.7400    1.9333    0.6750 H   0  0  0  0  0  0  0  0  0  0  0  0
    0.0000    0.0000    0.0000 C   0  0  0  0  0  0  0  0  0  0  0  0
   -1.1074   -0.5905    0.0000 O   0  0  0  0  0  0  0  0  0  0  0  0
    1.1074   -0.5940   -0.0000 O   0  0  0  0  0  0  0  0  0  0  0  0
    0.7505   -2.6796    1.0252 C   0  0  0  0  0  0  0  0  0  0  0  0
    0.1197   -2.3261    0.3015 H   0  0  0  0  0  0  0  0  0  0  0  0
    0.5209   -3.7223    1.2450 H   0  0  0  0  0  0  0  0  0  0  0  0
    1.7883   -2.4910    0.7504 H   0  0  0  0  0  0  0  0  0  0  0  0
    0.4976   -1.9626    2.3533 C   0  0  0  0  0  0  0  0  0  0  0  0
    1.3393   -1.4704    2.6491 H   0  0  0  0  0  0  0  0  0  0  0  0
   -0.2262   -1.2555    2.2365 H   0  0  0  0  0  0  0  0  0  0  0  0
    0.0985   -2.9779    3.3387 C   0  0  0  0  0  0  0  0  0  0  0  0
    0.6627   -2.8871    4.1954 H   0  0  0  0  0  0  0  0  0  0  0  0
   -0.8724   -2.8195    3.6419 H   0  0  0  0  0  0  0  0  0  0  0  0
    0.2085   -3.9753    2.9131 H   0  0  0  0  0  0  0  0  0  0  0  0
  1  5  1  0
  5  6  2  0
  5  7  1  0
  1  2  1  0
  1  3  1  0
  1  4  1  0
  8 12  1  0
 12 15  1  0
  8  9  1  0
  8 10  1  0
  8 11  1  0
 12 13  1  0
 12 14  1  0
 15 16  1  0
 15 17  1  0
 15 18  1  0
M  CHG  1   7  -1
V    7 [O&-]
M  END
>  <PDB_ID>  (2272) 
pdb1oah

>  <RESIDUE_NAME>  (2272) 
GLU   PRO

>  <FRAG_NAME>  (2272) 
ACET   PRPA

>  <FRAG_ATOM_NUM>  (2272) 
fragi: 7 fragj: 11

>  <atom.prop.CHAIN_ID>  (2272) 
A A A A A A A Z Z Z Z Z Z Z Z Z Z Z

>  <atom.prop.IS_HEAVY_ATOM>  (2272) 
1 0 0 0 1 1 1 1 0 0 0 1 0 0 1 0 0 0

>  <DIFUSE_FUNC_ATOM>  (2272) 
n/a

>  <FINAL_SINGLE_POINT_ENERGY>  (2272) 
0

>  <NONCOV_INTER_ENERGY_QM>  (2272) 
0

>  <FF_Energy>  (2272) 
42.52

>  <QM_Energy>  (2272) 
8.78

>  <source>  (2272) 
ACET_PRPA_29

>  <Index>  (2272) 
35521

$$$$
ACEH-pdb2x55-A-GLH-217:PRPA-pdb2x55-A-ILE-270
     RDKit          3D

 18 16  0  0  0  0  0  0  0  0999 V2000
   -0.0047    1.5260    0.0199 C   0  0  0  0  0  0  0  0  0  0  0  0
   -0.4802    1.8253   -0.7804 H   0  0  0  0  0  0  0  0  0  0  0  0
    0.9279    1.8183    0.0458 H   0  0  0  0  0  0  0  0  0  0  0  0
   -0.5196    1.9129    0.8992 H   0  0  0  0  0  0  0  0  0  0  0  0
    0.0000    0.0000    0.0000 C   0  0  0  0  0  0  0  0  0  0  0  0
   -1.0902   -0.6078    0.0000 O   0  0  0  0  0  0  0  0  0  0  0  0
    1.0902   -0.5961   -0.0000 O   0  0  0  0  0  0  0  0  0  0  0  0
   -2.1508    3.6785   -3.1946 C   0  0  0  0  0  0  0  0  0  0  0  0
   -2.5207    3.6917   -4.1384 H   0  0  0  0  0  0  0  0  0  0  0  0
   -1.5565    4.5867   -3.0939 H   0  0  0  0  0  0  0  0  0  0  0  0
   -3.0096    3.6317   -2.5249 H   0  0  0  0  0  0  0  0  0  0  0  0
   -1.3029    2.4024   -2.9761 C   0  0  0  0  0  0  0  0  0  0  0  0
   -0.9781    2.4095   -2.0363 H   0  0  0  0  0  0  0  0  0  0  0  0
   -1.9132    1.5095   -3.1118 H   0  0  0  0  0  0  0  0  0  0  0  0
   -0.0775    2.3945   -3.9029 C   0  0  0  0  0  0  0  0  0  0  0  0
   -0.3946    2.2950   -4.8437 H   0  0  0  0  0  0  0  0  0  0  0  0
    0.3878    3.2743   -3.8122 H   0  0  0  0  0  0  0  0  0  0  0  0
    0.6372    1.6004   -3.6869 H   0  0  0  0  0  0  0  0  0  0  0  0
  1  5  1  0
  5  6  2  0
  5  7  1  0
  1  2  1  0
  1  3  1  0
  1  4  1  0
  8 12  1  0
 12 15  1  0
  8  9  1  0
  8 10  1  0
  8 11  1  0
 12 13  1  0
 12 14  1  0
 15 16  1  0
 15 17  1  0
 15 18  1  0
M  CHG  1   7  -1
V    7 [O&-]
M  END
>  <PDB_ID>  (2273) 
pdb2x55

>  <RESIDUE_NAME>  (2273) 
GLU   ILE

>  <FRAG_NAME>  (2273) 
ACET   PRPA

>  <FRAG_ATOM_NUM>  (2273) 
fragi: 7 fragj: 11

>  <atom.prop.CHAIN_ID>  (2273) 
A A A A A A A Z Z Z Z Z Z Z Z Z Z Z

>  <atom.prop.IS_HEAVY_ATOM>  (2273) 
1 0 0 0 1 1 1 1 0 0 0 1 0 0 1 0 0 0

>  <DIFUSE_FUNC_ATOM>  (2273) 
n/a

>  <FINAL_SINGLE_POINT_ENERGY>  (2273) 
0

>  <NONCOV_INTER_ENERGY_QM>  (2273) 
0

>  <FF_Energy>  (2273) 
38.1

>  <QM_Energy>  (2273) 
3.32

>  <source>  (2273) 
ACET_PRPA_29

>  <Index>  (2273) 
35672

$$$$
ACEH-pdb2x55-A-GLH-217:PRPA-pdb2x55-A-ILE-270
     RDKit          3D

 18 16  0  0  0  0  0  0  0  0999 V2000
   -0.0047    1.5260    0.0199 C   0  0  0  0  0  0  0  0  0  0  0  0
   -0.4802    1.8253   -0.7804 H   0  0  0  0  0  0  0  0  0  0  0  0
    0.9279    1.8183    0.0458 H   0  0  0  0  0  0  0  0  0  0  0  0
   -0.5196    1.9129    0.8992 H   0  0  0  0  0  0  0  0  0  0  0  0
    0.0000    0.0000    0.0000 C   0  0  0  0  0  0  0  0  0  0  0  0
   -1.0902   -0.6078    0.0000 O   0  0  0  0  0  0  0  0  0  0  0  0
    1.0902   -0.5961   -0.0000 O   0  0  0  0  0  0  0  0  0  0  0  0
   -0.0775    2.3945   -3.9029 C   0  0  0  0  0  0  0  0  0  0  0  0
   -0.3946    2.2950   -4.8437 H   0  0  0  0  0  0  0  0  0  0  0  0
    0.3878    3.2743   -3.8122 H   0  0  0  0  0  0  0  0  0  0  0  0
    0.6372    1.6004   -3.6869 H   0  0  0  0  0  0  0  0  0  0  0  0
   -1.3029    2.4024   -2.9761 C   0  0  0  0  0  0  0  0  0  0  0  0
   -0.9781    2.4095   -2.0363 H   0  0  0  0  0  0  0  0  0  0  0  0
   -1.9001    3.3012   -3.1299 H   0  0  0  0  0  0  0  0  0  0  0  0
   -2.1594    1.1492   -3.1666 C   0  0  0  0  0  0  0  0  0  0  0  0
   -1.6118    0.3413   -2.9611 H   0  0  0  0  0  0  0  0  0  0  0  0
   -2.9427    1.1891   -2.5508 H   0  0  0  0  0  0  0  0  0  0  0  0
   -2.4773    1.1072   -4.1107 H   0  0  0  0  0  0  0  0  0  0  0  0
  1  5  1  0
  5  6  2  0
  5  7  1  0
  1  2  1  0
  1  3  1  0
  1  4  1  0
  8 12  1  0
 12 15  1  0
  8  9  1  0
  8 10  1  0
  8 11  1  0
 12 13  1  0
 12 14  1  0
 15 16  1  0
 15 17  1  0
 15 18  1  0
M  CHG  1   7  -1
V    7 [O&-]
M  END
>  <PDB_ID>  (2274) 
pdb2x55

>  <RESIDUE_NAME>  (2274) 
GLU   ILE

>  <FRAG_NAME>  (2274) 
ACET   PRPA

>  <FRAG_ATOM_NUM>  (2274) 
fragi: 7 fragj: 11

>  <atom.prop.CHAIN_ID>  (2274) 
A A A A A A A Z Z Z Z Z Z Z Z Z Z Z

>  <atom.prop.IS_HEAVY_ATOM>  (2274) 
1 0 0 0 1 1 1 1 0 0 0 1 0 0 1 0 0 0

>  <DIFUSE_FUNC_ATOM>  (2274) 
n/a

>  <FINAL_SINGLE_POINT_ENERGY>  (2274) 
0

>  <NONCOV_INTER_ENERGY_QM>  (2274) 
0

>  <FF_Energy>  (2274) 
38.12

>  <QM_Energy>  (2274) 
2.15

>  <source>  (2274) 
ACET_PRPA_29

>  <Index>  (2274) 
35863

$$$$
ACEH-pdb3nvl-A-GLH-377:PRPA-pdb3nvl-A-LYS-371
     RDKit          3D

 18 16  0  0  0  0  0  0  0  0999 V2000
   -0.0037    1.4984   -0.0030 C   0  0  0  0  0  0  0  0  0  0  0  0
    0.9359    1.7989   -0.0428 H   0  0  0  0  0  0  0  0  0  0  0  0
   -0.4451    1.7958    0.8286 H   0  0  0  0  0  0  0  0  0  0  0  0
   -0.5412    1.9133   -0.8557 H   0  0  0  0  0  0  0  0  0  0  0  0
    0.0000    0.0000    0.0000 C   0  0  0  0  0  0  0  0  0  0  0  0
   -1.0797   -0.5846    0.0000 O   0  0  0  0  0  0  0  0  0  0  0  0
    1.0797   -0.6140   -0.0000 O   0  0  0  0  0  0  0  0  0  0  0  0
   -2.9201   -2.3462    0.4403 C   0  0  0  0  0  0  0  0  0  0  0  0
   -2.2488   -2.3624   -0.3321 H   0  0  0  0  0  0  0  0  0  0  0  0
   -3.6525   -3.1381    0.2835 H   0  0  0  0  0  0  0  0  0  0  0  0
   -2.3758   -2.4376    1.3803 H   0  0  0  0  0  0  0  0  0  0  0  0
   -3.6107   -1.0105    0.4395 C   0  0  0  0  0  0  0  0  0  0  0  0
   -4.3810   -1.0581    1.0904 H   0  0  0  0  0  0  0  0  0  0  0  0
   -2.9567   -0.3215    0.7842 H   0  0  0  0  0  0  0  0  0  0  0  0
   -4.1199   -0.5728   -0.8738 C   0  0  0  0  0  0  0  0  0  0  0  0
   -3.3638   -0.5620   -1.5383 H   0  0  0  0  0  0  0  0  0  0  0  0
   -4.8175   -1.2219   -1.1951 H   0  0  0  0  0  0  0  0  0  0  0  0
   -4.5542    0.4239   -0.7963 H   0  0  0  0  0  0  0  0  0  0  0  0
  1  5  1  0
  5  6  2  0
  5  7  1  0
  1  2  1  0
  1  3  1  0
  1  4  1  0
  8 12  1  0
 12 15  1  0
  8  9  1  0
  8 10  1  0
  8 11  1  0
 12 13  1  0
 12 14  1  0
 15 16  1  0
 15 17  1  0
 15 18  1  0
M  CHG  1   7  -1
V    7 [O&-]
M  END
>  <PDB_ID>  (2275) 
pdb3nvl

>  <RESIDUE_NAME>  (2275) 
GLU   LYS

>  <FRAG_NAME>  (2275) 
ACET   PRPA

>  <FRAG_ATOM_NUM>  (2275) 
fragi: 7 fragj: 11

>  <atom.prop.CHAIN_ID>  (2275) 
A A A A A A A Z Z Z Z Z Z Z Z Z Z Z

>  <atom.prop.IS_HEAVY_ATOM>  (2275) 
1 0 0 0 1 1 1 1 0 0 0 1 0 0 1 0 0 0

>  <DIFUSE_FUNC_ATOM>  (2275) 
n/a

>  <FINAL_SINGLE_POINT_ENERGY>  (2275) 
0

>  <NONCOV_INTER_ENERGY_QM>  (2275) 
0

>  <FF_Energy>  (2275) 
20.39

>  <QM_Energy>  (2275) 
1.34

>  <source>  (2275) 
ACET_PRPA_29

>  <Index>  (2275) 
36692

$$$$
ACEH-pdb5xb8-B-GLH-301:PRPA-pdb5xb8-C-ILE-395
     RDKit          3D

 18 16  0  0  0  0  0  0  0  0999 V2000
   -0.1724    1.4839   -0.0121 C   0  0  0  0  0  0  0  0  0  0  0  0
   -0.6196    1.7477    0.8440 H   0  0  0  0  0  0  0  0  0  0  0  0
   -0.7729    1.7158   -0.7811 H   0  0  0  0  0  0  0  0  0  0  0  0
    0.7335    2.0824   -0.1086 H   0  0  0  0  0  0  0  0  0  0  0  0
    0.0000    0.0000    0.0000 C   0  0  0  0  0  0  0  0  0  0  0  0
   -1.0898   -0.6075   -0.0000 O   0  0  0  0  0  0  0  0  0  0  0  0
    1.0898   -0.5591    0.0000 O   0  0  0  0  0  0  0  0  0  0  0  0
    1.6110   -3.8963    1.2650 C   0  0  0  0  0  0  0  0  0  0  0  0
    2.4361   -3.4468    1.0236 H   0  0  0  0  0  0  0  0  0  0  0  0
    1.6248   -4.9037    0.8491 H   0  0  0  0  0  0  0  0  0  0  0  0
    1.5566   -3.9308    2.3531 H   0  0  0  0  0  0  0  0  0  0  0  0
    0.4401   -3.1020    0.6435 C   0  0  0  0  0  0  0  0  0  0  0  0
   -0.3628   -3.6442    0.7006 H   0  0  0  0  0  0  0  0  0  0  0  0
    0.2649   -2.1680    1.1774 H   0  0  0  0  0  0  0  0  0  0  0  0
    0.7310   -2.8203   -0.8347 C   0  0  0  0  0  0  0  0  0  0  0  0
    1.4209   -2.1403   -0.8916 H   0  0  0  0  0  0  0  0  0  0  0  0
    1.0437   -3.6387   -1.2516 H   0  0  0  0  0  0  0  0  0  0  0  0
   -0.1290   -2.4671   -1.4036 H   0  0  0  0  0  0  0  0  0  0  0  0
  1  5  1  0
  5  6  2  0
  5  7  1  0
  1  2  1  0
  1  3  1  0
  1  4  1  0
  8 12  1  0
 12 15  1  0
  8  9  1  0
  8 10  1  0
  8 11  1  0
 12 13  1  0
 12 14  1  0
 15 16  1  0
 15 17  1  0
 15 18  1  0
M  CHG  1   7  -1
V    7 [O&-]
M  END
>  <PDB_ID>  (2276) 
pdb5xb8

>  <RESIDUE_NAME>  (2276) 
GLU   ILE

>  <FRAG_NAME>  (2276) 
ACET   PRPA

>  <FRAG_ATOM_NUM>  (2276) 
fragi: 7 fragj: 11

>  <atom.prop.CHAIN_ID>  (2276) 
A A A A A A A Z Z Z Z Z Z Z Z Z Z Z

>  <atom.prop.IS_HEAVY_ATOM>  (2276) 
1 0 0 0 1 1 1 1 0 0 0 1 0 0 1 0 0 0

>  <DIFUSE_FUNC_ATOM>  (2276) 
n/a

>  <FINAL_SINGLE_POINT_ENERGY>  (2276) 
0

>  <NONCOV_INTER_ENERGY_QM>  (2276) 
0

>  <FF_Energy>  (2276) 
44.92

>  <QM_Energy>  (2276) 
9.5

>  <source>  (2276) 
ACET_PRPA_29

>  <Index>  (2276) 
36787

$$$$
ACEH-pdb4pu6-A-GLH-59:PRPA-pdb4pu6-A-ILE-105
     RDKit          3D

 18 16  0  0  0  0  0  0  0  0999 V2000
    0.0555    1.5410    0.0270 C   0  0  0  0  0  0  0  0  0  0  0  0
   -0.6143    1.8536    0.6550 H   0  0  0  0  0  0  0  0  0  0  0  0
   -0.0601    1.8606   -0.8809 H   0  0  0  0  0  0  0  0  0  0  0  0
    1.0223    1.9020    0.3781 H   0  0  0  0  0  0  0  0  0  0  0  0
    0.0000    0.0000    0.0000 C   0  0  0  0  0  0  0  0  0  0  0  0
   -1.1259   -0.6280   -0.0000 O   0  0  0  0  0  0  0  0  0  0  0  0
    1.1259   -0.5889   -0.0000 O   0  0  0  0  0  0  0  0  0  0  0  0
   -2.6290   -3.3569   -0.3046 C   0  0  0  0  0  0  0  0  0  0  0  0
   -3.5356   -3.5176    0.1133 H   0  0  0  0  0  0  0  0  0  0  0  0
   -1.9657   -3.0731    0.5124 H   0  0  0  0  0  0  0  0  0  0  0  0
   -2.3419   -4.2911   -0.7873 H   0  0  0  0  0  0  0  0  0  0  0  0
   -2.7621   -2.2896   -1.3732 C   0  0  0  0  0  0  0  0  0  0  0  0
   -2.9631   -1.4242   -0.9332 H   0  0  0  0  0  0  0  0  0  0  0  0
   -3.6038   -2.5383   -2.0195 H   0  0  0  0  0  0  0  0  0  0  0  0
   -1.4055   -2.1083   -2.1912 C   0  0  0  0  0  0  0  0  0  0  0  0
   -1.5435   -1.3757   -2.8378 H   0  0  0  0  0  0  0  0  0  0  0  0
   -0.6943   -1.8864   -1.5430 H   0  0  0  0  0  0  0  0  0  0  0  0
   -1.2190   -2.9616   -2.6501 H   0  0  0  0  0  0  0  0  0  0  0  0
  1  5  1  0
  5  6  2  0
  5  7  1  0
  1  2  1  0
  1  3  1  0
  1  4  1  0
  8 12  1  0
 12 15  1  0
  8  9  1  0
  8 10  1  0
  8 11  1  0
 12 13  1  0
 12 14  1  0
 15 16  1  0
 15 17  1  0
 15 18  1  0
M  CHG  1   7  -1
V    7 [O&-]
M  END
>  <PDB_ID>  (2277) 
pdb4pu6

>  <RESIDUE_NAME>  (2277) 
GLU   ILE

>  <FRAG_NAME>  (2277) 
ACET   PRPA

>  <FRAG_ATOM_NUM>  (2277) 
fragi: 7 fragj: 11

>  <atom.prop.CHAIN_ID>  (2277) 
A A A A A A A Z Z Z Z Z Z Z Z Z Z Z

>  <atom.prop.IS_HEAVY_ATOM>  (2277) 
1 0 0 0 1 1 1 1 0 0 0 1 0 0 1 0 0 0

>  <DIFUSE_FUNC_ATOM>  (2277) 
n/a

>  <FINAL_SINGLE_POINT_ENERGY>  (2277) 
0

>  <NONCOV_INTER_ENERGY_QM>  (2277) 
0

>  <FF_Energy>  (2277) 
16.46

>  <QM_Energy>  (2277) 
-0.53

>  <source>  (2277) 
ACET_PRPA_29

>  <Index>  (2277) 
37342

$$$$
ACEH-pdb1oz7-A-ASH-52:PRPA-pdb1oz7-A-ARG-110
     RDKit          3D

 18 16  0  0  0  0  0  0  0  0999 V2000
    0.0308    1.5203   -0.0197 C   0  0  0  0  0  0  0  0  0  0  0  0
    0.5314    1.8128   -0.8369 H   0  0  0  0  0  0  0  0  0  0  0  0
    0.5205    1.8351    0.7946 H   0  0  0  0  0  0  0  0  0  0  0  0
   -0.9526    1.9902   -0.0328 H   0  0  0  0  0  0  0  0  0  0  0  0
    0.0000    0.0000    0.0000 C   0  0  0  0  0  0  0  0  0  0  0  0
   -1.0953   -0.5984    0.0000 O   0  0  0  0  0  0  0  0  0  0  0  0
    1.0953   -0.5789   -0.0000 O   0  0  0  0  0  0  0  0  0  0  0  0
    1.8951   -2.9409    0.7515 C   0  0  0  0  0  0  0  0  0  0  0  0
    1.2043   -2.6252    0.0720 H   0  0  0  0  0  0  0  0  0  0  0  0
    1.7728   -2.3600    1.6657 H   0  0  0  0  0  0  0  0  0  0  0  0
    1.7738   -4.0150    0.8916 H   0  0  0  0  0  0  0  0  0  0  0  0
    3.2636   -2.6891    0.1234 C   0  0  0  0  0  0  0  0  0  0  0  0
    3.9635   -2.8445    0.8270 H   0  0  0  0  0  0  0  0  0  0  0  0
    3.3968   -3.3572   -0.6146 H   0  0  0  0  0  0  0  0  0  0  0  0
    3.4876   -1.3020   -0.4584 C   0  0  0  0  0  0  0  0  0  0  0  0
    2.7749   -1.0903   -1.0990 H   0  0  0  0  0  0  0  0  0  0  0  0
    3.5515   -0.6439    0.2660 H   0  0  0  0  0  0  0  0  0  0  0  0
    4.4369   -1.3131   -0.9939 H   0  0  0  0  0  0  0  0  0  0  0  0
  1  5  1  0
  5  6  2  0
  5  7  1  0
  1  2  1  0
  1  3  1  0
  1  4  1  0
  8 12  1  0
 12 15  1  0
  8  9  1  0
  8 10  1  0
  8 11  1  0
 12 13  1  0
 12 14  1  0
 15 16  1  0
 15 17  1  0
 15 18  1  0
M  CHG  1   7  -1
V    7 [O&-]
M  END
>  <PDB_ID>  (2278) 
pdb1oz7

>  <RESIDUE_NAME>  (2278) 
ASP   ARG

>  <FRAG_NAME>  (2278) 
ACET   PRPA

>  <FRAG_ATOM_NUM>  (2278) 
fragi: 7 fragj: 11

>  <atom.prop.CHAIN_ID>  (2278) 
A A A A A A A Z Z Z Z Z Z Z Z Z Z Z

>  <atom.prop.IS_HEAVY_ATOM>  (2278) 
1 0 0 0 1 1 1 1 0 0 0 1 0 0 1 0 0 0

>  <DIFUSE_FUNC_ATOM>  (2278) 
n/a

>  <FINAL_SINGLE_POINT_ENERGY>  (2278) 
0

>  <NONCOV_INTER_ENERGY_QM>  (2278) 
0

>  <FF_Energy>  (2278) 
25.44

>  <QM_Energy>  (2278) 
5.37

>  <source>  (2278) 
ACET_PRPA_29

>  <Index>  (2278) 
37463

$$$$
ACEH-pdb3o85-B-GLH-49:PRPA-pdb3o85-B-VAL-111
     RDKit          3D

 18 16  0  0  0  0  0  0  0  0999 V2000
   -0.0048    1.5209   -0.0384 C   0  0  0  0  0  0  0  0  0  0  0  0
    0.0647    1.8456    0.8729 H   0  0  0  0  0  0  0  0  0  0  0  0
   -0.8438    1.8094   -0.4316 H   0  0  0  0  0  0  0  0  0  0  0  0
    0.8207    1.9247   -0.6245 H   0  0  0  0  0  0  0  0  0  0  0  0
    0.0000    0.0000    0.0000 C   0  0  0  0  0  0  0  0  0  0  0  0
   -1.0924   -0.5966   -0.0000 O   0  0  0  0  0  0  0  0  0  0  0  0
    1.0924   -0.5985    0.0000 O   0  0  0  0  0  0  0  0  0  0  0  0
    0.6001   -2.0416   -2.4631 C   0  0  0  0  0  0  0  0  0  0  0  0
    0.8219   -1.3308   -1.8572 H   0  0  0  0  0  0  0  0  0  0  0  0
    1.3092   -2.1646   -3.0976 H   0  0  0  0  0  0  0  0  0  0  0  0
   -0.2185   -1.8383   -2.9217 H   0  0  0  0  0  0  0  0  0  0  0  0
    0.4159   -3.3349   -1.6670 C   0  0  0  0  0  0  0  0  0  0  0  0
    1.2648   -3.5428   -1.2239 H   0  0  0  0  0  0  0  0  0  0  0  0
    0.1636   -4.1442   -2.3523 H   0  0  0  0  0  0  0  0  0  0  0  0
   -0.6575   -3.2038   -0.5945 C   0  0  0  0  0  0  0  0  0  0  0  0
   -0.4204   -2.4885   -0.0011 H   0  0  0  0  0  0  0  0  0  0  0  0
   -1.4993   -3.0137   -1.0169 H   0  0  0  0  0  0  0  0  0  0  0  0
   -0.7151   -4.0285   -0.1075 H   0  0  0  0  0  0  0  0  0  0  0  0
  1  5  1  0
  5  6  2  0
  5  7  1  0
  1  2  1  0
  1  3  1  0
  1  4  1  0
  8 12  1  0
 12 15  1  0
  8  9  1  0
  8 10  1  0
  8 11  1  0
 12 13  1  0
 12 14  1  0
 15 16  1  0
 15 17  1  0
 15 18  1  0
M  CHG  1   7  -1
V    7 [O&-]
M  END
>  <PDB_ID>  (2279) 
pdb3o85

>  <RESIDUE_NAME>  (2279) 
GLU   VAL

>  <FRAG_NAME>  (2279) 
ACET   PRPA

>  <FRAG_ATOM_NUM>  (2279) 
fragi: 7 fragj: 11

>  <atom.prop.CHAIN_ID>  (2279) 
A A A A A A A Z Z Z Z Z Z Z Z Z Z Z

>  <atom.prop.IS_HEAVY_ATOM>  (2279) 
1 0 0 0 1 1 1 1 0 0 0 1 0 0 1 0 0 0

>  <DIFUSE_FUNC_ATOM>  (2279) 
n/a

>  <FINAL_SINGLE_POINT_ENERGY>  (2279) 
0

>  <NONCOV_INTER_ENERGY_QM>  (2279) 
0

>  <FF_Energy>  (2279) 
20.6

>  <QM_Energy>  (2279) 
1.77

>  <source>  (2279) 
ACET_PRPA_29

>  <Index>  (2279) 
37989

$$$$
ACEH-pdb4q1t-B-GLH-139:PRPA-pdb4q1t-B-GLU-147
     RDKit          3D

 18 16  0  0  0  0  0  0  0  0999 V2000
   -0.1745    1.4851   -0.0146 C   0  0  0  0  0  0  0  0  0  0  0  0
   -0.6932    1.7400    0.8029 H   0  0  0  0  0  0  0  0  0  0  0  0
   -0.7052    1.7222   -0.8295 H   0  0  0  0  0  0  0  0  0  0  0  0
    0.7363    2.0837   -0.0261 H   0  0  0  0  0  0  0  0  0  0  0  0
    0.0000    0.0000    0.0000 C   0  0  0  0  0  0  0  0  0  0  0  0
   -1.0896   -0.6079   -0.0000 O   0  0  0  0  0  0  0  0  0  0  0  0
    1.0896   -0.5580   -0.0000 O   0  0  0  0  0  0  0  0  0  0  0  0
    1.6782   -4.3486    0.6303 C   0  0  0  0  0  0  0  0  0  0  0  0
    1.1911   -5.2372    0.7341 H   0  0  0  0  0  0  0  0  0  0  0  0
    2.3646   -4.2192    1.4671 H   0  0  0  0  0  0  0  0  0  0  0  0
    2.1709   -4.3121   -0.3413 H   0  0  0  0  0  0  0  0  0  0  0  0
    0.6207   -3.2666    0.6781 C   0  0  0  0  0  0  0  0  0  0  0  0
    1.0718   -2.3881    0.5988 H   0  0  0  0  0  0  0  0  0  0  0  0
   -0.0074   -3.4125   -0.0736 H   0  0  0  0  0  0  0  0  0  0  0  0
   -0.2216   -3.2210    1.9612 C   0  0  0  0  0  0  0  0  0  0  0  0
    0.3870   -3.0414    2.7185 H   0  0  0  0  0  0  0  0  0  0  0  0
   -0.8931   -2.5030    1.8615 H   0  0  0  0  0  0  0  0  0  0  0  0
   -0.7604   -4.1412    2.1873 H   0  0  0  0  0  0  0  0  0  0  0  0
  1  5  1  0
  5  6  2  0
  5  7  1  0
  1  2  1  0
  1  3  1  0
  1  4  1  0
  8 12  1  0
 12 15  1  0
  8  9  1  0
  8 10  1  0
  8 11  1  0
 12 13  1  0
 12 14  1  0
 15 16  1  0
 15 17  1  0
 15 18  1  0
M  CHG  1   7  -1
V    7 [O&-]
M  END
>  <PDB_ID>  (2280) 
pdb4q1t

>  <RESIDUE_NAME>  (2280) 
GLU   GLU

>  <FRAG_NAME>  (2280) 
ACET   PRPA

>  <FRAG_ATOM_NUM>  (2280) 
fragi: 7 fragj: 11

>  <atom.prop.CHAIN_ID>  (2280) 
A A A A A A A Z Z Z Z Z Z Z Z Z Z Z

>  <atom.prop.IS_HEAVY_ATOM>  (2280) 
1 0 0 0 1 1 1 1 0 0 0 1 0 0 1 0 0 0

>  <DIFUSE_FUNC_ATOM>  (2280) 
n/a

>  <FINAL_SINGLE_POINT_ENERGY>  (2280) 
0

>  <NONCOV_INTER_ENERGY_QM>  (2280) 
0

>  <FF_Energy>  (2280) 
13.81

>  <QM_Energy>  (2280) 
-1.77

>  <source>  (2280) 
ACET_PRPA_29

>  <Index>  (2280) 
38858

$$$$
ACEH-pdb5xnc-B-ASH-158:PRPA-pdb5xnc-B-VAL-155
     RDKit          3D

 18 16  0  0  0  0  0  0  0  0999 V2000
   -0.0024    1.5651   -0.2329 C   0  0  0  0  0  0  0  0  0  0  0  0
   -0.2301    1.9896    0.6253 H   0  0  0  0  0  0  0  0  0  0  0  0
   -0.6706    1.7574   -0.9288 H   0  0  0  0  0  0  0  0  0  0  0  0
    0.9664    1.9400   -0.5631 H   0  0  0  0  0  0  0  0  0  0  0  0
    0.0000    0.0000    0.0000 C   0  0  0  0  0  0  0  0  0  0  0  0
   -1.1084   -0.5931   -0.0000 O   0  0  0  0  0  0  0  0  0  0  0  0
    1.1084   -0.6624    0.0000 O   0  0  0  0  0  0  0  0  0  0  0  0
    0.3717   -0.6661    5.2331 C   0  0  0  0  0  0  0  0  0  0  0  0
    1.1857   -1.2211    5.3024 H   0  0  0  0  0  0  0  0  0  0  0  0
   -0.2463   -0.8542    6.1111 H   0  0  0  0  0  0  0  0  0  0  0  0
    0.6819    0.3783    5.2672 H   0  0  0  0  0  0  0  0  0  0  0  0
   -0.4774   -1.0173    3.9240 C   0  0  0  0  0  0  0  0  0  0  0  0
   -1.2319   -0.3662    3.9076 H   0  0  0  0  0  0  0  0  0  0  0  0
   -0.8537   -2.0358    4.0200 H   0  0  0  0  0  0  0  0  0  0  0  0
    0.3303   -0.8411    2.6770 C   0  0  0  0  0  0  0  0  0  0  0  0
    0.8652   -1.6701    2.4896 H   0  0  0  0  0  0  0  0  0  0  0  0
   -0.2741   -0.6640    1.8944 H   0  0  0  0  0  0  0  0  0  0  0  0
    0.9615   -0.0673    2.7792 H   0  0  0  0  0  0  0  0  0  0  0  0
  1  5  1  0
  5  6  2  0
  5  7  1  0
  1  2  1  0
  1  3  1  0
  1  4  1  0
  8 12  1  0
 12 15  1  0
  8  9  1  0
  8 10  1  0
  8 11  1  0
 12 13  1  0
 12 14  1  0
 15 16  1  0
 15 17  1  0
 15 18  1  0
M  CHG  1   7  -1
V    7 [O&-]
M  END
>  <PDB_ID>  (2281) 
pdb5xnc

>  <RESIDUE_NAME>  (2281) 
ASP   VAL

>  <FRAG_NAME>  (2281) 
ACET   PRPA

>  <FRAG_ATOM_NUM>  (2281) 
fragi: 7 fragj: 11

>  <atom.prop.CHAIN_ID>  (2281) 
A A A A A A A Z Z Z Z Z Z Z Z Z Z Z

>  <atom.prop.IS_HEAVY_ATOM>  (2281) 
1 0 0 0 1 1 1 1 0 0 0 1 0 0 1 0 0 0

>  <DIFUSE_FUNC_ATOM>  (2281) 
n/a

>  <FINAL_SINGLE_POINT_ENERGY>  (2281) 
0

>  <NONCOV_INTER_ENERGY_QM>  (2281) 
0

>  <FF_Energy>  (2281) 
25.42

>  <QM_Energy>  (2281) 
2.71

>  <source>  (2281) 
ACET_PRPA_29

>  <Index>  (2281) 
39063

$$$$
ACEH-pdb5xnc-B-ASH-158:PRPA-pdb5xnc-B-VAL-155
     RDKit          3D

 18 16  0  0  0  0  0  0  0  0999 V2000
   -0.0024    1.5651   -0.2329 C   0  0  0  0  0  0  0  0  0  0  0  0
   -0.2301    1.9896    0.6253 H   0  0  0  0  0  0  0  0  0  0  0  0
   -0.6706    1.7574   -0.9288 H   0  0  0  0  0  0  0  0  0  0  0  0
    0.9664    1.9400   -0.5631 H   0  0  0  0  0  0  0  0  0  0  0  0
    0.0000    0.0000    0.0000 C   0  0  0  0  0  0  0  0  0  0  0  0
   -1.1084   -0.5931   -0.0000 O   0  0  0  0  0  0  0  0  0  0  0  0
    1.1084   -0.6624    0.0000 O   0  0  0  0  0  0  0  0  0  0  0  0
    0.3303   -0.8411    2.6770 C   0  0  0  0  0  0  0  0  0  0  0  0
    0.8652   -1.6701    2.4896 H   0  0  0  0  0  0  0  0  0  0  0  0
   -0.2741   -0.6640    1.8944 H   0  0  0  0  0  0  0  0  0  0  0  0
    0.9615   -0.0673    2.7792 H   0  0  0  0  0  0  0  0  0  0  0  0
   -0.4774   -1.0173    3.9240 C   0  0  0  0  0  0  0  0  0  0  0  0
   -1.2319   -0.3662    3.9076 H   0  0  0  0  0  0  0  0  0  0  0  0
    0.1012   -0.7780    4.8162 H   0  0  0  0  0  0  0  0  0  0  0  0
   -0.9788   -2.3744    4.0519 C   0  0  0  0  0  0  0  0  0  0  0  0
   -1.5043   -2.4900    4.9087 H   0  0  0  0  0  0  0  0  0  0  0  0
   -1.5893   -2.6124    3.2807 H   0  0  0  0  0  0  0  0  0  0  0  0
   -0.2205   -3.0437    4.0629 H   0  0  0  0  0  0  0  0  0  0  0  0
  1  5  1  0
  5  6  2  0
  5  7  1  0
  1  2  1  0
  1  3  1  0
  1  4  1  0
  8 12  1  0
 12 15  1  0
  8  9  1  0
  8 10  1  0
  8 11  1  0
 12 13  1  0
 12 14  1  0
 15 16  1  0
 15 17  1  0
 15 18  1  0
M  CHG  1   7  -1
V    7 [O&-]
M  END
>  <PDB_ID>  (2282) 
pdb5xnc

>  <RESIDUE_NAME>  (2282) 
ASP   VAL

>  <FRAG_NAME>  (2282) 
ACET   PRPA

>  <FRAG_ATOM_NUM>  (2282) 
fragi: 7 fragj: 11

>  <atom.prop.CHAIN_ID>  (2282) 
A A A A A A A Z Z Z Z Z Z Z Z Z Z Z

>  <atom.prop.IS_HEAVY_ATOM>  (2282) 
1 0 0 0 1 1 1 1 0 0 0 1 0 0 1 0 0 0

>  <DIFUSE_FUNC_ATOM>  (2282) 
n/a

>  <FINAL_SINGLE_POINT_ENERGY>  (2282) 
0

>  <NONCOV_INTER_ENERGY_QM>  (2282) 
0

>  <FF_Energy>  (2282) 
25.63

>  <QM_Energy>  (2282) 
2.75

>  <source>  (2282) 
ACET_PRPA_29

>  <Index>  (2282) 
39141

$$$$
ACEH-pdb4q69-A-GLH-136:PRPA-pdb4q69-A-LEU-213
     RDKit          3D

 18 16  0  0  0  0  0  0  0  0999 V2000
   -0.0085    1.5142    0.0032 C   0  0  0  0  0  0  0  0  0  0  0  0
   -0.1233    1.8089    0.9379 H   0  0  0  0  0  0  0  0  0  0  0  0
   -0.7589    1.8077   -0.5660 H   0  0  0  0  0  0  0  0  0  0  0  0
    0.9099    1.9558   -0.3836 H   0  0  0  0  0  0  0  0  0  0  0  0
    0.0000    0.0000    0.0000 C   0  0  0  0  0  0  0  0  0  0  0  0
   -1.1127   -0.5996   -0.0000 O   0  0  0  0  0  0  0  0  0  0  0  0
    1.1127   -0.5887   -0.0000 O   0  0  0  0  0  0  0  0  0  0  0  0
   -0.1337   -3.6477    1.7196 C   0  0  0  0  0  0  0  0  0  0  0  0
    0.7343   -3.9981    2.0441 H   0  0  0  0  0  0  0  0  0  0  0  0
   -0.0592   -3.3141    0.7912 H   0  0  0  0  0  0  0  0  0  0  0  0
   -0.8510   -4.4684    1.7258 H   0  0  0  0  0  0  0  0  0  0  0  0
   -0.5042   -2.4488    2.6099 C   0  0  0  0  0  0  0  0  0  0  0  0
   -0.6840   -2.7832    3.5395 H   0  0  0  0  0  0  0  0  0  0  0  0
   -1.4332   -1.9830    2.2814 H   0  0  0  0  0  0  0  0  0  0  0  0
    0.6069   -1.4104    2.6510 C   0  0  0  0  0  0  0  0  0  0  0  0
    0.7827   -1.0713    1.7262 H   0  0  0  0  0  0  0  0  0  0  0  0
    0.3307   -0.6479    3.2376 H   0  0  0  0  0  0  0  0  0  0  0  0
    1.4400   -1.8266    3.0166 H   0  0  0  0  0  0  0  0  0  0  0  0
  1  5  1  0
  5  6  2  0
  5  7  1  0
  1  2  1  0
  1  3  1  0
  1  4  1  0
  8 12  1  0
 12 15  1  0
  8  9  1  0
  8 10  1  0
  8 11  1  0
 12 13  1  0
 12 14  1  0
 15 16  1  0
 15 17  1  0
 15 18  1  0
M  CHG  1   7  -1
V    7 [O&-]
M  END
>  <PDB_ID>  (2283) 
pdb4q69

>  <RESIDUE_NAME>  (2283) 
GLU   LEU

>  <FRAG_NAME>  (2283) 
ACET   PRPA

>  <FRAG_ATOM_NUM>  (2283) 
fragi: 7 fragj: 11

>  <atom.prop.CHAIN_ID>  (2283) 
A A A A A A A Z Z Z Z Z Z Z Z Z Z Z

>  <atom.prop.IS_HEAVY_ATOM>  (2283) 
1 0 0 0 1 1 1 1 0 0 0 1 0 0 1 0 0 0

>  <DIFUSE_FUNC_ATOM>  (2283) 
n/a

>  <FINAL_SINGLE_POINT_ENERGY>  (2283) 
0

>  <NONCOV_INTER_ENERGY_QM>  (2283) 
0

>  <FF_Energy>  (2283) 
31.02

>  <QM_Energy>  (2283) 
-0.12

>  <source>  (2283) 
ACET_PRPA_29

>  <Index>  (2283) 
39730

$$$$
ACEH-pdb3o6u-B-GLH-97:PRPA-pdb3o6u-B-ARG-76
     RDKit          3D

 18 16  0  0  0  0  0  0  0  0999 V2000
    0.0200    1.5123    0.0211 C   0  0  0  0  0  0  0  0  0  0  0  0
    0.7052    1.8101   -0.6257 H   0  0  0  0  0  0  0  0  0  0  0  0
    0.2473    1.7930    0.9412 H   0  0  0  0  0  0  0  0  0  0  0  0
   -0.9311    1.9687   -0.2532 H   0  0  0  0  0  0  0  0  0  0  0  0
    0.0000    0.0000    0.0000 C   0  0  0  0  0  0  0  0  0  0  0  0
   -1.1028   -0.5911   -0.0000 O   0  0  0  0  0  0  0  0  0  0  0  0
    1.1028   -0.5920   -0.0000 O   0  0  0  0  0  0  0  0  0  0  0  0
   -2.2533   -1.4572    3.0396 C   0  0  0  0  0  0  0  0  0  0  0  0
   -2.5545   -0.6043    3.4928 H   0  0  0  0  0  0  0  0  0  0  0  0
   -1.5636   -1.2055    2.3434 H   0  0  0  0  0  0  0  0  0  0  0  0
   -1.7615   -2.0785    3.7882 H   0  0  0  0  0  0  0  0  0  0  0  0
   -3.4683   -2.0347    2.2944 C   0  0  0  0  0  0  0  0  0  0  0  0
   -3.3451   -2.9934    2.1718 H   0  0  0  0  0  0  0  0  0  0  0  0
   -4.2823   -1.8018    2.7776 H   0  0  0  0  0  0  0  0  0  0  0  0
   -3.4984   -1.3641    0.9327 C   0  0  0  0  0  0  0  0  0  0  0  0
   -2.7652   -0.6598    0.9226 H   0  0  0  0  0  0  0  0  0  0  0  0
   -3.2419   -2.0655    0.2421 H   0  0  0  0  0  0  0  0  0  0  0  0
   -4.4423   -0.9031    0.6418 H   0  0  0  0  0  0  0  0  0  0  0  0
  1  5  1  0
  5  6  2  0
  5  7  1  0
  1  2  1  0
  1  3  1  0
  1  4  1  0
  8 12  1  0
 12 15  1  0
  8  9  1  0
  8 10  1  0
  8 11  1  0
 12 13  1  0
 12 14  1  0
 15 16  1  0
 15 17  1  0
 15 18  1  0
M  CHG  1   7  -1
V    7 [O&-]
M  END
>  <PDB_ID>  (2284) 
pdb3o6u

>  <RESIDUE_NAME>  (2284) 
GLU   ARG

>  <FRAG_NAME>  (2284) 
ACET   PRPA

>  <FRAG_ATOM_NUM>  (2284) 
fragi: 7 fragj: 11

>  <atom.prop.CHAIN_ID>  (2284) 
A A A A A A A Z Z Z Z Z Z Z Z Z Z Z

>  <atom.prop.IS_HEAVY_ATOM>  (2284) 
1 0 0 0 1 1 1 1 0 0 0 1 0 0 1 0 0 0

>  <DIFUSE_FUNC_ATOM>  (2284) 
n/a

>  <FINAL_SINGLE_POINT_ENERGY>  (2284) 
0

>  <NONCOV_INTER_ENERGY_QM>  (2284) 
0

>  <FF_Energy>  (2284) 
15.59

>  <QM_Energy>  (2284) 
-0.1

>  <source>  (2284) 
ACET_PRPA_29

>  <Index>  (2284) 
39752

$$$$
ACEH-pdb5xnc-E-ASH-158:PRPA-pdb5xnc-E-VAL-155
     RDKit          3D

 18 16  0  0  0  0  0  0  0  0999 V2000
   -0.0604    1.5566   -0.0313 C   0  0  0  0  0  0  0  0  0  0  0  0
   -0.1770    1.8748    0.8965 H   0  0  0  0  0  0  0  0  0  0  0  0
   -0.8216    1.8198   -0.6019 H   0  0  0  0  0  0  0  0  0  0  0  0
    0.8469    2.0035   -0.4379 H   0  0  0  0  0  0  0  0  0  0  0  0
    0.0000    0.0000    0.0000 C   0  0  0  0  0  0  0  0  0  0  0  0
   -1.1158   -0.6299   -0.0000 O   0  0  0  0  0  0  0  0  0  0  0  0
    1.1158   -0.5906    0.0000 O   0  0  0  0  0  0  0  0  0  0  0  0
    0.6858   -1.2063    2.4348 C   0  0  0  0  0  0  0  0  0  0  0  0
    0.0111   -1.0295    1.7219 H   0  0  0  0  0  0  0  0  0  0  0  0
    1.2750   -0.4091    2.5465 H   0  0  0  0  0  0  0  0  0  0  0  0
    1.2360   -2.0019    2.1890 H   0  0  0  0  0  0  0  0  0  0  0  0
   -0.0407   -1.4854    3.7580 C   0  0  0  0  0  0  0  0  0  0  0  0
   -0.7499   -0.7967    3.8488 H   0  0  0  0  0  0  0  0  0  0  0  0
    0.6396   -1.3693    4.6017 H   0  0  0  0  0  0  0  0  0  0  0  0
   -0.6264   -2.8433    3.7708 C   0  0  0  0  0  0  0  0  0  0  0  0
   -1.6301   -2.7924    3.8364 H   0  0  0  0  0  0  0  0  0  0  0  0
   -0.3862   -3.3380    2.9271 H   0  0  0  0  0  0  0  0  0  0  0  0
   -0.2806   -3.3679    4.5584 H   0  0  0  0  0  0  0  0  0  0  0  0
  1  5  1  0
  5  6  2  0
  5  7  1  0
  1  2  1  0
  1  3  1  0
  1  4  1  0
  8 12  1  0
 12 15  1  0
  8  9  1  0
  8 10  1  0
  8 11  1  0
 12 13  1  0
 12 14  1  0
 15 16  1  0
 15 17  1  0
 15 18  1  0
M  CHG  1   7  -1
V    7 [O&-]
M  END
>  <PDB_ID>  (2285) 
pdb5xnc

>  <RESIDUE_NAME>  (2285) 
ASP   VAL

>  <FRAG_NAME>  (2285) 
ACET   PRPA

>  <FRAG_ATOM_NUM>  (2285) 
fragi: 7 fragj: 11

>  <atom.prop.CHAIN_ID>  (2285) 
A A A A A A A Z Z Z Z Z Z Z Z Z Z Z

>  <atom.prop.IS_HEAVY_ATOM>  (2285) 
1 0 0 0 1 1 1 1 0 0 0 1 0 0 1 0 0 0

>  <DIFUSE_FUNC_ATOM>  (2285) 
n/a

>  <FINAL_SINGLE_POINT_ENERGY>  (2285) 
0

>  <NONCOV_INTER_ENERGY_QM>  (2285) 
0

>  <FF_Energy>  (2285) 
36.24

>  <QM_Energy>  (2285) 
5.73

>  <source>  (2285) 
ACET_PRPA_29

>  <Index>  (2285) 
39816

$$$$
ACEH-pdb3o6u-E-GLH-97:PRPA-pdb3o6u-E-ARG-76
     RDKit          3D

 18 16  0  0  0  0  0  0  0  0999 V2000
   -0.0002    1.5167    0.0122 C   0  0  0  0  0  0  0  0  0  0  0  0
    0.7421    1.8188   -0.5539 H   0  0  0  0  0  0  0  0  0  0  0  0
    0.0967    1.8067    0.9455 H   0  0  0  0  0  0  0  0  0  0  0  0
   -0.9243    1.9379   -0.3836 H   0  0  0  0  0  0  0  0  0  0  0  0
    0.0000    0.0000    0.0000 C   0  0  0  0  0  0  0  0  0  0  0  0
   -1.0979   -0.5935    0.0000 O   0  0  0  0  0  0  0  0  0  0  0  0
    1.0979   -0.5959    0.0000 O   0  0  0  0  0  0  0  0  0  0  0  0
   -2.8473   -1.0832    3.0218 C   0  0  0  0  0  0  0  0  0  0  0  0
   -3.4400   -0.3603    3.3839 H   0  0  0  0  0  0  0  0  0  0  0  0
   -2.1195   -0.6663    2.4736 H   0  0  0  0  0  0  0  0  0  0  0  0
   -2.3813   -1.5890    3.8674 H   0  0  0  0  0  0  0  0  0  0  0  0
   -3.6816   -1.9621    2.1070 C   0  0  0  0  0  0  0  0  0  0  0  0
   -3.3721   -2.9050    2.1761 H   0  0  0  0  0  0  0  0  0  0  0  0
   -4.6410   -1.8929    2.3612 H   0  0  0  0  0  0  0  0  0  0  0  0
   -3.5454   -1.5242    0.6545 C   0  0  0  0  0  0  0  0  0  0  0  0
   -2.7115   -0.9722    0.5763 H   0  0  0  0  0  0  0  0  0  0  0  0
   -3.4428   -2.3496    0.0931 H   0  0  0  0  0  0  0  0  0  0  0  0
   -4.3939   -0.9455    0.2894 H   0  0  0  0  0  0  0  0  0  0  0  0
  1  5  1  0
  5  6  2  0
  5  7  1  0
  1  2  1  0
  1  3  1  0
  1  4  1  0
  8 12  1  0
 12 15  1  0
  8  9  1  0
  8 10  1  0
  8 11  1  0
 12 13  1  0
 12 14  1  0
 15 16  1  0
 15 17  1  0
 15 18  1  0
M  CHG  1   7  -1
V    7 [O&-]
M  END
>  <PDB_ID>  (2286) 
pdb3o6u

>  <RESIDUE_NAME>  (2286) 
GLU   ARG

>  <FRAG_NAME>  (2286) 
ACET   PRPA

>  <FRAG_ATOM_NUM>  (2286) 
fragi: 7 fragj: 11

>  <atom.prop.CHAIN_ID>  (2286) 
A A A A A A A Z Z Z Z Z Z Z Z Z Z Z

>  <atom.prop.IS_HEAVY_ATOM>  (2286) 
1 0 0 0 1 1 1 1 0 0 0 1 0 0 1 0 0 0

>  <DIFUSE_FUNC_ATOM>  (2286) 
n/a

>  <FINAL_SINGLE_POINT_ENERGY>  (2286) 
0

>  <NONCOV_INTER_ENERGY_QM>  (2286) 
0

>  <FF_Energy>  (2286) 
38.23

>  <QM_Energy>  (2286) 
0.75

>  <source>  (2286) 
ACET_PRPA_29

>  <Index>  (2286) 
40198

$$$$
ACEH-pdb3oec-A-GLH-203:PRPA-pdb3oec-A-LEU-200
     RDKit          3D

 18 16  0  0  0  0  0  0  0  0999 V2000
    0.0035    1.5281   -0.0023 C   0  0  0  0  0  0  0  0  0  0  0  0
    0.3714    1.8172   -0.8712 H   0  0  0  0  0  0  0  0  0  0  0  0
    0.5737    1.8185    0.7482 H   0  0  0  0  0  0  0  0  0  0  0  0
   -0.9848    1.9713    0.1199 H   0  0  0  0  0  0  0  0  0  0  0  0
    0.0000    0.0000    0.0000 C   0  0  0  0  0  0  0  0  0  0  0  0
   -1.0953   -0.5679    0.0000 O   0  0  0  0  0  0  0  0  0  0  0  0
    1.0953   -0.6159   -0.0000 O   0  0  0  0  0  0  0  0  0  0  0  0
    3.0380   -0.4857   -2.1320 C   0  0  0  0  0  0  0  0  0  0  0  0
    3.0497   -1.3479   -1.6562 H   0  0  0  0  0  0  0  0  0  0  0  0
    3.4815   -0.5392   -3.0082 H   0  0  0  0  0  0  0  0  0  0  0  0
    1.9967   -0.2109   -2.3000 H   0  0  0  0  0  0  0  0  0  0  0  0
    3.8177    0.5264   -1.2762 C   0  0  0  0  0  0  0  0  0  0  0  0
    3.8552    1.4040   -1.7553 H   0  0  0  0  0  0  0  0  0  0  0  0
    4.8533    0.2105   -1.1498 H   0  0  0  0  0  0  0  0  0  0  0  0
    3.1481    0.7497    0.1124 C   0  0  0  0  0  0  0  0  0  0  0  0
    3.1187   -0.1201    0.5930 H   0  0  0  0  0  0  0  0  0  0  0  0
    3.6899    1.4094    0.6228 H   0  0  0  0  0  0  0  0  0  0  0  0
    2.2275    1.0961   -0.0322 H   0  0  0  0  0  0  0  0  0  0  0  0
  1  5  1  0
  5  6  2  0
  5  7  1  0
  1  2  1  0
  1  3  1  0
  1  4  1  0
  8 12  1  0
 12 15  1  0
  8  9  1  0
  8 10  1  0
  8 11  1  0
 12 13  1  0
 12 14  1  0
 15 16  1  0
 15 17  1  0
 15 18  1  0
M  CHG  1   7  -1
V    7 [O&-]
M  END
>  <PDB_ID>  (2287) 
pdb3oec

>  <RESIDUE_NAME>  (2287) 
GLU   LEU

>  <FRAG_NAME>  (2287) 
ACET   PRPA

>  <FRAG_ATOM_NUM>  (2287) 
fragi: 7 fragj: 11

>  <atom.prop.CHAIN_ID>  (2287) 
A A A A A A A Z Z Z Z Z Z Z Z Z Z Z

>  <atom.prop.IS_HEAVY_ATOM>  (2287) 
1 0 0 0 1 1 1 1 0 0 0 1 0 0 1 0 0 0

>  <DIFUSE_FUNC_ATOM>  (2287) 
n/a

>  <FINAL_SINGLE_POINT_ENERGY>  (2287) 
0

>  <NONCOV_INTER_ENERGY_QM>  (2287) 
0

>  <FF_Energy>  (2287) 
28.35

>  <QM_Energy>  (2287) 
9.66

>  <source>  (2287) 
ACET_PRPA_29

>  <Index>  (2287) 
40284

$$$$
ACEH-pdb3oec-D-GLH-203:PRPA-pdb3oec-D-LEU-200
     RDKit          3D

 18 16  0  0  0  0  0  0  0  0999 V2000
   -0.0225    1.5204   -0.0058 C   0  0  0  0  0  0  0  0  0  0  0  0
   -0.3661    1.8260    0.8555 H   0  0  0  0  0  0  0  0  0  0  0  0
   -0.5623    1.8159   -0.7647 H   0  0  0  0  0  0  0  0  0  0  0  0
    0.9702    1.9536   -0.1276 H   0  0  0  0  0  0  0  0  0  0  0  0
    0.0000    0.0000    0.0000 C   0  0  0  0  0  0  0  0  0  0  0  0
   -1.0935   -0.5946    0.0000 O   0  0  0  0  0  0  0  0  0  0  0  0
    1.0935   -0.6144   -0.0000 O   0  0  0  0  0  0  0  0  0  0  0  0
   -2.6223    1.3246    1.3508 C   0  0  0  0  0  0  0  0  0  0  0  0
   -1.7437    0.9610    1.0315 H   0  0  0  0  0  0  0  0  0  0  0  0
   -2.6282    1.2897    2.4403 H   0  0  0  0  0  0  0  0  0  0  0  0
   -2.7247    2.3525    1.0030 H   0  0  0  0  0  0  0  0  0  0  0  0
   -3.7232    0.4209    0.7795 C   0  0  0  0  0  0  0  0  0  0  0  0
   -3.5321   -0.5113    1.0602 H   0  0  0  0  0  0  0  0  0  0  0  0
   -4.5922    0.7278    1.1428 H   0  0  0  0  0  0  0  0  0  0  0  0
   -3.8483    0.4151   -0.7585 C   0  0  0  0  0  0  0  0  0  0  0  0
   -4.1394    1.3291   -1.0614 H   0  0  0  0  0  0  0  0  0  0  0  0
   -2.9137    0.1554   -1.2560 H   0  0  0  0  0  0  0  0  0  0  0  0
   -4.6659   -0.2477   -1.0417 H   0  0  0  0  0  0  0  0  0  0  0  0
  1  5  1  0
  5  6  2  0
  5  7  1  0
  1  2  1  0
  1  3  1  0
  1  4  1  0
  8 12  1  0
 12 15  1  0
  8  9  1  0
  8 10  1  0
  8 11  1  0
 12 13  1  0
 12 14  1  0
 15 16  1  0
 15 17  1  0
 15 18  1  0
M  CHG  1   7  -1
V    7 [O&-]
M  END
>  <PDB_ID>  (2288) 
pdb3oec

>  <RESIDUE_NAME>  (2288) 
GLU   LEU

>  <FRAG_NAME>  (2288) 
ACET   PRPA

>  <FRAG_ATOM_NUM>  (2288) 
fragi: 7 fragj: 11

>  <atom.prop.CHAIN_ID>  (2288) 
A A A A A A A Z Z Z Z Z Z Z Z Z Z Z

>  <atom.prop.IS_HEAVY_ATOM>  (2288) 
1 0 0 0 1 1 1 1 0 0 0 1 0 0 1 0 0 0

>  <DIFUSE_FUNC_ATOM>  (2288) 
n/a

>  <FINAL_SINGLE_POINT_ENERGY>  (2288) 
0

>  <NONCOV_INTER_ENERGY_QM>  (2288) 
0

>  <FF_Energy>  (2288) 
42.69

>  <QM_Energy>  (2288) 
6.35

>  <source>  (2288) 
ACET_PRPA_29

>  <Index>  (2288) 
41324

$$$$
ACEH-pdb4qrs-B-ASH-53:PRPA-pdb4qrs-A-VAL-25
     RDKit          3D

 18 16  0  0  0  0  0  0  0  0999 V2000
   -0.0146    1.5006    0.0081 C   0  0  0  0  0  0  0  0  0  0  0  0
   -0.0696    1.8218    0.9498 H   0  0  0  0  0  0  0  0  0  0  0  0
   -0.8018    1.8233   -0.5090 H   0  0  0  0  0  0  0  0  0  0  0  0
    0.8781    1.9375   -0.4395 H   0  0  0  0  0  0  0  0  0  0  0  0
    0.0000    0.0000    0.0000 C   0  0  0  0  0  0  0  0  0  0  0  0
   -1.0969   -0.5915    0.0000 O   0  0  0  0  0  0  0  0  0  0  0  0
    1.0969   -0.5850   -0.0000 O   0  0  0  0  0  0  0  0  0  0  0  0
   -2.9902   -1.9080   -1.8112 C   0  0  0  0  0  0  0  0  0  0  0  0
   -2.5680   -1.3070   -1.1306 H   0  0  0  0  0  0  0  0  0  0  0  0
   -2.9270   -1.4790   -2.7140 H   0  0  0  0  0  0  0  0  0  0  0  0
   -3.9541   -2.0446   -1.5791 H   0  0  0  0  0  0  0  0  0  0  0  0
   -2.2745   -3.2428   -1.8288 C   0  0  0  0  0  0  0  0  0  0  0  0
   -2.2457   -3.5434   -2.7793 H   0  0  0  0  0  0  0  0  0  0  0  0
   -2.8354   -3.9806   -1.2551 H   0  0  0  0  0  0  0  0  0  0  0  0
   -0.8467   -3.1110   -1.2628 C   0  0  0  0  0  0  0  0  0  0  0  0
   -0.2328   -2.8440   -2.0006 H   0  0  0  0  0  0  0  0  0  0  0  0
   -0.8486   -2.4170   -0.5469 H   0  0  0  0  0  0  0  0  0  0  0  0
   -0.5693   -3.9922   -0.8863 H   0  0  0  0  0  0  0  0  0  0  0  0
  1  5  1  0
  5  6  2  0
  5  7  1  0
  1  2  1  0
  1  3  1  0
  1  4  1  0
  8 12  1  0
 12 15  1  0
  8  9  1  0
  8 10  1  0
  8 11  1  0
 12 13  1  0
 12 14  1  0
 15 16  1  0
 15 17  1  0
 15 18  1  0
M  CHG  1   7  -1
V    7 [O&-]
M  END
>  <PDB_ID>  (2289) 
pdb4qrs

>  <RESIDUE_NAME>  (2289) 
ASP   VAL

>  <FRAG_NAME>  (2289) 
ACET   PRPA

>  <FRAG_ATOM_NUM>  (2289) 
fragi: 7 fragj: 11

>  <atom.prop.CHAIN_ID>  (2289) 
A A A A A A A Z Z Z Z Z Z Z Z Z Z Z

>  <atom.prop.IS_HEAVY_ATOM>  (2289) 
1 0 0 0 1 1 1 1 0 0 0 1 0 0 1 0 0 0

>  <DIFUSE_FUNC_ATOM>  (2289) 
n/a

>  <FINAL_SINGLE_POINT_ENERGY>  (2289) 
0

>  <NONCOV_INTER_ENERGY_QM>  (2289) 
0

>  <FF_Energy>  (2289) 
20.71

>  <QM_Energy>  (2289) 
-0.41

>  <source>  (2289) 
ACET_PRPA_29

>  <Index>  (2289) 
41337

$$$$
ACEH-pdb3ors-H-GLH-153:PRPA-pdb3ors-H-GLN-156
     RDKit          3D

 18 16  0  0  0  0  0  0  0  0999 V2000
    0.1350    1.4721    0.0158 C   0  0  0  0  0  0  0  0  0  0  0  0
    0.6685    1.7421   -0.8012 H   0  0  0  0  0  0  0  0  0  0  0  0
    0.6798    1.7237    0.8305 H   0  0  0  0  0  0  0  0  0  0  0  0
   -0.7722    2.0762    0.0280 H   0  0  0  0  0  0  0  0  0  0  0  0
    0.0000    0.0000    0.0000 C   0  0  0  0  0  0  0  0  0  0  0  0
   -1.0910   -0.5742   -0.0000 O   0  0  0  0  0  0  0  0  0  0  0  0
    1.0910   -0.5944    0.0000 O   0  0  0  0  0  0  0  0  0  0  0  0
    2.2589    3.0576   -1.2053 C   0  0  0  0  0  0  0  0  0  0  0  0
    2.2554    2.2513   -1.8251 H   0  0  0  0  0  0  0  0  0  0  0  0
    1.8809    2.7318   -0.2362 H   0  0  0  0  0  0  0  0  0  0  0  0
    3.2772    3.4454   -1.1771 H   0  0  0  0  0  0  0  0  0  0  0  0
    1.3155    4.0803   -1.8464 C   0  0  0  0  0  0  0  0  0  0  0  0
    1.4823    4.0990   -2.8362 H   0  0  0  0  0  0  0  0  0  0  0  0
    0.3668    3.7926   -1.6835 H   0  0  0  0  0  0  0  0  0  0  0  0
    1.4640    5.5161   -1.3213 C   0  0  0  0  0  0  0  0  0  0  0  0
    2.2915    5.9156   -1.7206 H   0  0  0  0  0  0  0  0  0  0  0  0
    0.6672    6.0460   -1.6212 H   0  0  0  0  0  0  0  0  0  0  0  0
    1.5373    5.5845   -0.2360 H   0  0  0  0  0  0  0  0  0  0  0  0
  1  5  1  0
  5  6  2  0
  5  7  1  0
  1  2  1  0
  1  3  1  0
  1  4  1  0
  8 12  1  0
 12 15  1  0
  8  9  1  0
  8 10  1  0
  8 11  1  0
 12 13  1  0
 12 14  1  0
 15 16  1  0
 15 17  1  0
 15 18  1  0
M  CHG  1   7  -1
V    7 [O&-]
M  END
>  <PDB_ID>  (2290) 
pdb3ors

>  <RESIDUE_NAME>  (2290) 
GLU   GLN

>  <FRAG_NAME>  (2290) 
ACET   PRPA

>  <FRAG_ATOM_NUM>  (2290) 
fragi: 7 fragj: 11

>  <atom.prop.CHAIN_ID>  (2290) 
A A A A A A A Z Z Z Z Z Z Z Z Z Z Z

>  <atom.prop.IS_HEAVY_ATOM>  (2290) 
1 0 0 0 1 1 1 1 0 0 0 1 0 0 1 0 0 0

>  <DIFUSE_FUNC_ATOM>  (2290) 
n/a

>  <FINAL_SINGLE_POINT_ENERGY>  (2290) 
0

>  <NONCOV_INTER_ENERGY_QM>  (2290) 
0

>  <FF_Energy>  (2290) 
30.02

>  <QM_Energy>  (2290) 
7.91

>  <source>  (2290) 
ACET_PRPA_29

>  <Index>  (2290) 
41559

$$$$
ACEH-pdb1pwx-A-GLH-162:PRPA-pdb1pwx-B-PRO-88
     RDKit          3D

 18 16  0  0  0  0  0  0  0  0999 V2000
   -0.0136    1.5100    0.0063 C   0  0  0  0  0  0  0  0  0  0  0  0
    0.9153    1.8156    0.0977 H   0  0  0  0  0  0  0  0  0  0  0  0
   -0.5781    1.7994    0.7553 H   0  0  0  0  0  0  0  0  0  0  0  0
   -0.4227    1.9235   -0.9155 H   0  0  0  0  0  0  0  0  0  0  0  0
    0.0000    0.0000    0.0000 C   0  0  0  0  0  0  0  0  0  0  0  0
   -1.0983   -0.5898    0.0000 O   0  0  0  0  0  0  0  0  0  0  0  0
    1.0983   -0.5969   -0.0000 O   0  0  0  0  0  0  0  0  0  0  0  0
   -2.2145   -2.7466   -0.5857 C   0  0  0  0  0  0  0  0  0  0  0  0
   -1.7805   -1.9662   -0.9820 H   0  0  0  0  0  0  0  0  0  0  0  0
   -2.4258   -3.5150   -1.3293 H   0  0  0  0  0  0  0  0  0  0  0  0
   -1.5568   -3.2396    0.1302 H   0  0  0  0  0  0  0  0  0  0  0  0
   -3.5988   -2.4277   -0.0343 C   0  0  0  0  0  0  0  0  0  0  0  0
   -3.8782   -3.0996    0.6413 H   0  0  0  0  0  0  0  0  0  0  0  0
   -3.6303   -1.5125    0.3485 H   0  0  0  0  0  0  0  0  0  0  0  0
   -4.4570   -2.5210   -1.2651 C   0  0  0  0  0  0  0  0  0  0  0  0
   -5.4095   -2.6217   -1.0257 H   0  0  0  0  0  0  0  0  0  0  0  0
   -4.3109   -1.7452   -1.8574 H   0  0  0  0  0  0  0  0  0  0  0  0
   -4.0849   -3.4323   -1.7332 H   0  0  0  0  0  0  0  0  0  0  0  0
  1  5  1  0
  5  6  2  0
  5  7  1  0
  1  2  1  0
  1  3  1  0
  1  4  1  0
  8 12  1  0
 12 15  1  0
  8  9  1  0
  8 10  1  0
  8 11  1  0
 12 13  1  0
 12 14  1  0
 15 16  1  0
 15 17  1  0
 15 18  1  0
M  CHG  1   7  -1
V    7 [O&-]
M  END
>  <PDB_ID>  (2291) 
pdb1pwx

>  <RESIDUE_NAME>  (2291) 
GLU   PRO

>  <FRAG_NAME>  (2291) 
ACET   PRPA

>  <FRAG_ATOM_NUM>  (2291) 
fragi: 7 fragj: 11

>  <atom.prop.CHAIN_ID>  (2291) 
A A A A A A A Z Z Z Z Z Z Z Z Z Z Z

>  <atom.prop.IS_HEAVY_ATOM>  (2291) 
1 0 0 0 1 1 1 1 0 0 0 1 0 0 1 0 0 0

>  <DIFUSE_FUNC_ATOM>  (2291) 
n/a

>  <FINAL_SINGLE_POINT_ENERGY>  (2291) 
0

>  <NONCOV_INTER_ENERGY_QM>  (2291) 
0

>  <FF_Energy>  (2291) 
33.26

>  <QM_Energy>  (2291) 
4.34

>  <source>  (2291) 
ACET_PRPA_29

>  <Index>  (2291) 
41567

$$$$
ACEH-pdb5yb6-E-GLH-464:PRPA-pdb5yb6-E-GLN-362
     RDKit          3D

 18 16  0  0  0  0  0  0  0  0999 V2000
    0.0258    1.4735   -0.1511 C   0  0  0  0  0  0  0  0  0  0  0  0
   -0.8345    1.7473   -0.5905 H   0  0  0  0  0  0  0  0  0  0  0  0
    0.7885    1.7013   -0.7632 H   0  0  0  0  0  0  0  0  0  0  0  0
    0.1388    2.0459    0.7696 H   0  0  0  0  0  0  0  0  0  0  0  0
    0.0000    0.0000    0.0000 C   0  0  0  0  0  0  0  0  0  0  0  0
   -1.0962   -0.5840   -0.0000 O   0  0  0  0  0  0  0  0  0  0  0  0
    1.0962   -0.5244    0.0000 O   0  0  0  0  0  0  0  0  0  0  0  0
    1.4208    0.1341   -3.3220 C   0  0  0  0  0  0  0  0  0  0  0  0
    1.8896    0.4838   -2.5069 H   0  0  0  0  0  0  0  0  0  0  0  0
    1.8170    0.6590   -4.1912 H   0  0  0  0  0  0  0  0  0  0  0  0
    1.6345   -0.9322   -3.3963 H   0  0  0  0  0  0  0  0  0  0  0  0
   -0.0743    0.3316   -3.2131 C   0  0  0  0  0  0  0  0  0  0  0  0
   -0.5086    0.0523   -4.0648 H   0  0  0  0  0  0  0  0  0  0  0  0
   -0.4268   -0.2127   -2.4559 H   0  0  0  0  0  0  0  0  0  0  0  0
   -0.4539    1.7905   -2.9532 C   0  0  0  0  0  0  0  0  0  0  0  0
   -1.4331    1.8294   -2.7041 H   0  0  0  0  0  0  0  0  0  0  0  0
    0.0785    2.1258   -2.1615 H   0  0  0  0  0  0  0  0  0  0  0  0
   -0.2939    2.4831   -3.7794 H   0  0  0  0  0  0  0  0  0  0  0  0
  1  5  1  0
  5  6  2  0
  5  7  1  0
  1  2  1  0
  1  3  1  0
  1  4  1  0
  8 12  1  0
 12 15  1  0
  8  9  1  0
  8 10  1  0
  8 11  1  0
 12 13  1  0
 12 14  1  0
 15 16  1  0
 15 17  1  0
 15 18  1  0
M  CHG  1   7  -1
V    7 [O&-]
M  END
>  <PDB_ID>  (2292) 
pdb5yb6

>  <RESIDUE_NAME>  (2292) 
GLU   GLN

>  <FRAG_NAME>  (2292) 
ACET   PRPA

>  <FRAG_ATOM_NUM>  (2292) 
fragi: 7 fragj: 11

>  <atom.prop.CHAIN_ID>  (2292) 
A A A A A A A Z Z Z Z Z Z Z Z Z Z Z

>  <atom.prop.IS_HEAVY_ATOM>  (2292) 
1 0 0 0 1 1 1 1 0 0 0 1 0 0 1 0 0 0

>  <DIFUSE_FUNC_ATOM>  (2292) 
n/a

>  <FINAL_SINGLE_POINT_ENERGY>  (2292) 
0

>  <NONCOV_INTER_ENERGY_QM>  (2292) 
0

>  <FF_Energy>  (2292) 
29.53

>  <QM_Energy>  (2292) 
4.04

>  <source>  (2292) 
ACET_PRPA_29

>  <Index>  (2292) 
42367

$$$$
ACEH-pdb5yb6-F-GLH-464:PRPA-pdb5yb6-F-GLN-362
     RDKit          3D

 18 16  0  0  0  0  0  0  0  0999 V2000
    0.0369    1.4818   -0.1480 C   0  0  0  0  0  0  0  0  0  0  0  0
   -0.8086    1.7546   -0.6179 H   0  0  0  0  0  0  0  0  0  0  0  0
    0.8186    1.7009   -0.7404 H   0  0  0  0  0  0  0  0  0  0  0  0
    0.1244    2.0561    0.7742 H   0  0  0  0  0  0  0  0  0  0  0  0
    0.0000    0.0000    0.0000 C   0  0  0  0  0  0  0  0  0  0  0  0
   -1.0975   -0.5838    0.0000 O   0  0  0  0  0  0  0  0  0  0  0  0
    1.0975   -0.5229   -0.0000 O   0  0  0  0  0  0  0  0  0  0  0  0
    1.4521    0.1156   -3.2856 C   0  0  0  0  0  0  0  0  0  0  0  0
    1.9030    0.4743   -2.4586 H   0  0  0  0  0  0  0  0  0  0  0  0
    1.8688    0.6410   -4.1449 H   0  0  0  0  0  0  0  0  0  0  0  0
    1.6550   -0.9537   -3.3458 H   0  0  0  0  0  0  0  0  0  0  0  0
   -0.0379    0.3298   -3.2193 C   0  0  0  0  0  0  0  0  0  0  0  0
   -0.4518    0.0598   -4.0871 H   0  0  0  0  0  0  0  0  0  0  0  0
   -0.4209   -0.2209   -2.4783 H   0  0  0  0  0  0  0  0  0  0  0  0
   -0.4174    1.7856   -2.9577 C   0  0  0  0  0  0  0  0  0  0  0  0
   -1.4044    1.8297   -2.7468 H   0  0  0  0  0  0  0  0  0  0  0  0
    0.0866    2.1096   -2.1444 H   0  0  0  0  0  0  0  0  0  0  0  0
   -0.2196    2.4825   -3.7722 H   0  0  0  0  0  0  0  0  0  0  0  0
  1  5  1  0
  5  6  2  0
  5  7  1  0
  1  2  1  0
  1  3  1  0
  1  4  1  0
  8 12  1  0
 12 15  1  0
  8  9  1  0
  8 10  1  0
  8 11  1  0
 12 13  1  0
 12 14  1  0
 15 16  1  0
 15 17  1  0
 15 18  1  0
M  CHG  1   7  -1
V    7 [O&-]
M  END
>  <PDB_ID>  (2293) 
pdb5yb6

>  <RESIDUE_NAME>  (2293) 
GLU   GLN

>  <FRAG_NAME>  (2293) 
ACET   PRPA

>  <FRAG_ATOM_NUM>  (2293) 
fragi: 7 fragj: 11

>  <atom.prop.CHAIN_ID>  (2293) 
A A A A A A A Z Z Z Z Z Z Z Z Z Z Z

>  <atom.prop.IS_HEAVY_ATOM>  (2293) 
1 0 0 0 1 1 1 1 0 0 0 1 0 0 1 0 0 0

>  <DIFUSE_FUNC_ATOM>  (2293) 
n/a

>  <FINAL_SINGLE_POINT_ENERGY>  (2293) 
0

>  <NONCOV_INTER_ENERGY_QM>  (2293) 
0

>  <FF_Energy>  (2293) 
30.97

>  <QM_Energy>  (2293) 
4.36

>  <source>  (2293) 
ACET_PRPA_29

>  <Index>  (2293) 
42559

$$$$
ACEH-pdb4r2l-A-ASH-13:PRPA-pdb4r2l-A-LEU-16
     RDKit          3D

 18 16  0  0  0  0  0  0  0  0999 V2000
   -0.0094    1.4882    0.0167 C   0  0  0  0  0  0  0  0  0  0  0  0
   -0.6173    1.8215   -0.6945 H   0  0  0  0  0  0  0  0  0  0  0  0
    0.9132    1.8263   -0.1272 H   0  0  0  0  0  0  0  0  0  0  0  0
   -0.3641    1.8777    0.9709 H   0  0  0  0  0  0  0  0  0  0  0  0
    0.0000    0.0000    0.0000 C   0  0  0  0  0  0  0  0  0  0  0  0
   -1.1086   -0.6022    0.0000 O   0  0  0  0  0  0  0  0  0  0  0  0
    1.1086   -0.5904    0.0000 O   0  0  0  0  0  0  0  0  0  0  0  0
   -2.3500   -1.8476   -1.9845 C   0  0  0  0  0  0  0  0  0  0  0  0
   -2.1756   -1.5480   -1.0140 H   0  0  0  0  0  0  0  0  0  0  0  0
   -2.4331   -2.8722   -1.9346 H   0  0  0  0  0  0  0  0  0  0  0  0
   -3.3313   -1.4632   -2.2629 H   0  0  0  0  0  0  0  0  0  0  0  0
   -1.0186   -1.5628   -2.7657 C   0  0  0  0  0  0  0  0  0  0  0  0
   -0.9186   -0.5400   -2.8542 H   0  0  0  0  0  0  0  0  0  0  0  0
   -0.0770   -1.9628   -2.3896 H   0  0  0  0  0  0  0  0  0  0  0  0
   -1.2212   -2.0335   -4.1747 C   0  0  0  0  0  0  0  0  0  0  0  0
   -1.9855   -1.5381   -4.5982 H   0  0  0  0  0  0  0  0  0  0  0  0
   -0.3911   -1.8718   -4.7166 H   0  0  0  0  0  0  0  0  0  0  0  0
   -1.4267   -3.0171   -4.1848 H   0  0  0  0  0  0  0  0  0  0  0  0
  1  5  1  0
  5  6  2  0
  5  7  1  0
  1  2  1  0
  1  3  1  0
  1  4  1  0
  8 12  1  0
 12 15  1  0
  8  9  1  0
  8 10  1  0
  8 11  1  0
 12 13  1  0
 12 14  1  0
 15 16  1  0
 15 17  1  0
 15 18  1  0
M  CHG  1   7  -1
V    7 [O&-]
M  END
>  <PDB_ID>  (2294) 
pdb4r2l

>  <RESIDUE_NAME>  (2294) 
ASP   LEU

>  <FRAG_NAME>  (2294) 
ACET   PRPA

>  <FRAG_ATOM_NUM>  (2294) 
fragi: 7 fragj: 11

>  <atom.prop.CHAIN_ID>  (2294) 
A A A A A A A Z Z Z Z Z Z Z Z Z Z Z

>  <atom.prop.IS_HEAVY_ATOM>  (2294) 
1 0 0 0 1 1 1 1 0 0 0 1 0 0 1 0 0 0

>  <DIFUSE_FUNC_ATOM>  (2294) 
n/a

>  <FINAL_SINGLE_POINT_ENERGY>  (2294) 
0

>  <NONCOV_INTER_ENERGY_QM>  (2294) 
0

>  <FF_Energy>  (2294) 
41.78

>  <QM_Energy>  (2294) 
2.1

>  <source>  (2294) 
ACET_PRPA_29

>  <Index>  (2294) 
42612

$$$$
ACEH-pdb4r2l-A-ASH-13:PRPA-pdb4r2l-A-LEU-16
     RDKit          3D

 18 16  0  0  0  0  0  0  0  0999 V2000
   -0.0094    1.4882    0.0167 C   0  0  0  0  0  0  0  0  0  0  0  0
   -0.6173    1.8215   -0.6945 H   0  0  0  0  0  0  0  0  0  0  0  0
    0.9132    1.8263   -0.1272 H   0  0  0  0  0  0  0  0  0  0  0  0
   -0.3641    1.8777    0.9709 H   0  0  0  0  0  0  0  0  0  0  0  0
    0.0000    0.0000    0.0000 C   0  0  0  0  0  0  0  0  0  0  0  0
   -1.1086   -0.6022    0.0000 O   0  0  0  0  0  0  0  0  0  0  0  0
    1.1086   -0.5904    0.0000 O   0  0  0  0  0  0  0  0  0  0  0  0
    0.3328   -2.1368   -2.2261 C   0  0  0  0  0  0  0  0  0  0  0  0
    0.2620   -3.1274   -2.1957 H   0  0  0  0  0  0  0  0  0  0  0  0
    1.0601   -1.8578   -2.8427 H   0  0  0  0  0  0  0  0  0  0  0  0
    0.4881   -1.7694   -1.3164 H   0  0  0  0  0  0  0  0  0  0  0  0
   -1.0186   -1.5628   -2.7657 C   0  0  0  0  0  0  0  0  0  0  0  0
   -0.9186   -0.5400   -2.8542 H   0  0  0  0  0  0  0  0  0  0  0  0
   -1.9431   -1.7606   -2.2232 H   0  0  0  0  0  0  0  0  0  0  0  0
   -1.2212   -2.0335   -4.1747 C   0  0  0  0  0  0  0  0  0  0  0  0
   -1.9855   -1.5381   -4.5982 H   0  0  0  0  0  0  0  0  0  0  0  0
   -0.3911   -1.8718   -4.7166 H   0  0  0  0  0  0  0  0  0  0  0  0
   -1.4267   -3.0171   -4.1848 H   0  0  0  0  0  0  0  0  0  0  0  0
  1  5  1  0
  5  6  2  0
  5  7  1  0
  1  2  1  0
  1  3  1  0
  1  4  1  0
  8 12  1  0
 12 15  1  0
  8  9  1  0
  8 10  1  0
  8 11  1  0
 12 13  1  0
 12 14  1  0
 15 16  1  0
 15 17  1  0
 15 18  1  0
M  CHG  1   7  -1
V    7 [O&-]
M  END
>  <PDB_ID>  (2295) 
pdb4r2l

>  <RESIDUE_NAME>  (2295) 
ASP   LEU

>  <FRAG_NAME>  (2295) 
ACET   PRPA

>  <FRAG_ATOM_NUM>  (2295) 
fragi: 7 fragj: 11

>  <atom.prop.CHAIN_ID>  (2295) 
A A A A A A A Z Z Z Z Z Z Z Z Z Z Z

>  <atom.prop.IS_HEAVY_ATOM>  (2295) 
1 0 0 0 1 1 1 1 0 0 0 1 0 0 1 0 0 0

>  <DIFUSE_FUNC_ATOM>  (2295) 
n/a

>  <FINAL_SINGLE_POINT_ENERGY>  (2295) 
0

>  <NONCOV_INTER_ENERGY_QM>  (2295) 
0

>  <FF_Energy>  (2295) 
23.38

>  <QM_Energy>  (2295) 
1.35

>  <source>  (2295) 
ACET_PRPA_29

>  <Index>  (2295) 
42636

$$$$
ACEH-pdb4q31-E-GLH-143:PRPA-pdb4q31-E-VAL-99
     RDKit          3D

 18 16  0  0  0  0  0  0  0  0999 V2000
    0.0051    1.5254   -0.0206 C   0  0  0  0  0  0  0  0  0  0  0  0
    0.9240    1.8124   -0.2129 H   0  0  0  0  0  0  0  0  0  0  0  0
   -0.3075    1.8291    0.8591 H   0  0  0  0  0  0  0  0  0  0  0  0
   -0.6542    1.9349   -0.7860 H   0  0  0  0  0  0  0  0  0  0  0  0
    0.0000    0.0000    0.0000 C   0  0  0  0  0  0  0  0  0  0  0  0
   -1.1062   -0.5972   -0.0000 O   0  0  0  0  0  0  0  0  0  0  0  0
    1.1062   -0.5945    0.0000 O   0  0  0  0  0  0  0  0  0  0  0  0
   -3.3719   -1.9994   -0.9256 C   0  0  0  0  0  0  0  0  0  0  0  0
   -2.5079   -1.4839   -0.9078 H   0  0  0  0  0  0  0  0  0  0  0  0
   -3.3293   -2.7043   -1.7559 H   0  0  0  0  0  0  0  0  0  0  0  0
   -3.4700   -2.5277    0.0228 H   0  0  0  0  0  0  0  0  0  0  0  0
   -4.5492   -1.0260   -1.0469 C   0  0  0  0  0  0  0  0  0  0  0  0
   -4.5748   -0.4784   -0.2165 H   0  0  0  0  0  0  0  0  0  0  0  0
   -4.3813   -0.3448   -1.8811 H   0  0  0  0  0  0  0  0  0  0  0  0
   -5.8605   -1.8028   -1.2109 C   0  0  0  0  0  0  0  0  0  0  0  0
   -5.6649   -2.7810   -1.1772 H   0  0  0  0  0  0  0  0  0  0  0  0
   -6.4804   -1.5534   -0.4697 H   0  0  0  0  0  0  0  0  0  0  0  0
   -6.2699   -1.5677   -2.0904 H   0  0  0  0  0  0  0  0  0  0  0  0
  1  5  1  0
  5  6  2  0
  5  7  1  0
  1  2  1  0
  1  3  1  0
  1  4  1  0
  8 12  1  0
 12 15  1  0
  8  9  1  0
  8 10  1  0
  8 11  1  0
 12 13  1  0
 12 14  1  0
 15 16  1  0
 15 17  1  0
 15 18  1  0
M  CHG  1   7  -1
V    7 [O&-]
M  END
>  <PDB_ID>  (2296) 
pdb4q31

>  <RESIDUE_NAME>  (2296) 
GLU   VAL

>  <FRAG_NAME>  (2296) 
ACET   PRPA

>  <FRAG_ATOM_NUM>  (2296) 
fragi: 7 fragj: 11

>  <atom.prop.CHAIN_ID>  (2296) 
A A A A A A A Z Z Z Z Z Z Z Z Z Z Z

>  <atom.prop.IS_HEAVY_ATOM>  (2296) 
1 0 0 0 1 1 1 1 0 0 0 1 0 0 1 0 0 0

>  <DIFUSE_FUNC_ATOM>  (2296) 
n/a

>  <FINAL_SINGLE_POINT_ENERGY>  (2296) 
0

>  <NONCOV_INTER_ENERGY_QM>  (2296) 
0

>  <FF_Energy>  (2296) 
14.39

>  <QM_Energy>  (2296) 
-0.84

>  <source>  (2296) 
ACET_PRPA_29

>  <Index>  (2296) 
42818

$$$$
ACEH-pdb1qlb-A-GLH-270:PRPA-pdb1qlb-A-ILE-330
     RDKit          3D

 18 16  0  0  0  0  0  0  0  0999 V2000
   -0.0097    1.5165    0.0026 C   0  0  0  0  0  0  0  0  0  0  0  0
    0.4044    1.8139    0.8437 H   0  0  0  0  0  0  0  0  0  0  0  0
   -0.9466    1.8062   -0.0731 H   0  0  0  0  0  0  0  0  0  0  0  0
    0.5521    1.9444   -0.8276 H   0  0  0  0  0  0  0  0  0  0  0  0
    0.0000    0.0000    0.0000 C   0  0  0  0  0  0  0  0  0  0  0  0
   -1.0959   -0.5984    0.0000 O   0  0  0  0  0  0  0  0  0  0  0  0
    1.0959   -0.5965    0.0000 O   0  0  0  0  0  0  0  0  0  0  0  0
    3.3651    0.4836    2.8177 C   0  0  0  0  0  0  0  0  0  0  0  0
    3.4094    1.3542    3.2933 H   0  0  0  0  0  0  0  0  0  0  0  0
    4.2963   -0.0466    3.0174 H   0  0  0  0  0  0  0  0  0  0  0  0
    3.2700    0.6756    1.7490 H   0  0  0  0  0  0  0  0  0  0  0  0
    2.1675   -0.3017    3.3601 C   0  0  0  0  0  0  0  0  0  0  0  0
    2.3516   -0.5321    4.3181 H   0  0  0  0  0  0  0  0  0  0  0  0
    1.3648    0.2994    3.3342 H   0  0  0  0  0  0  0  0  0  0  0  0
    1.8497   -1.5684    2.6018 C   0  0  0  0  0  0  0  0  0  0  0  0
    2.6374   -2.1826    2.6349 H   0  0  0  0  0  0  0  0  0  0  0  0
    1.0592   -2.0165    3.0192 H   0  0  0  0  0  0  0  0  0  0  0  0
    1.6416   -1.3430    1.6509 H   0  0  0  0  0  0  0  0  0  0  0  0
  1  5  1  0
  5  6  2  0
  5  7  1  0
  1  2  1  0
  1  3  1  0
  1  4  1  0
  8 12  1  0
 12 15  1  0
  8  9  1  0
  8 10  1  0
  8 11  1  0
 12 13  1  0
 12 14  1  0
 15 16  1  0
 15 17  1  0
 15 18  1  0
M  CHG  1   7  -1
V    7 [O&-]
M  END
>  <PDB_ID>  (2297) 
pdb1qlb

>  <RESIDUE_NAME>  (2297) 
GLU   ILE

>  <FRAG_NAME>  (2297) 
ACET   PRPA

>  <FRAG_ATOM_NUM>  (2297) 
fragi: 7 fragj: 11

>  <atom.prop.CHAIN_ID>  (2297) 
A A A A A A A Z Z Z Z Z Z Z Z Z Z Z

>  <atom.prop.IS_HEAVY_ATOM>  (2297) 
1 0 0 0 1 1 1 1 0 0 0 1 0 0 1 0 0 0

>  <DIFUSE_FUNC_ATOM>  (2297) 
n/a

>  <FINAL_SINGLE_POINT_ENERGY>  (2297) 
0

>  <NONCOV_INTER_ENERGY_QM>  (2297) 
0

>  <FF_Energy>  (2297) 
14.08

>  <QM_Energy>  (2297) 
-2.09

>  <source>  (2297) 
ACET_PRPA_29

>  <Index>  (2297) 
43089

$$$$
ACEH-pdb1qdb-A-GLH-286:PRPA-pdb1qdb-A-PRO-283
     RDKit          3D

 18 16  0  0  0  0  0  0  0  0999 V2000
   -0.0401    1.5252   -0.0369 C   0  0  0  0  0  0  0  0  0  0  0  0
   -0.9638    1.8023    0.1753 H   0  0  0  0  0  0  0  0  0  0  0  0
    0.2201    1.8058   -0.9479 H   0  0  0  0  0  0  0  0  0  0  0  0
    0.6294    2.0132    0.6714 H   0  0  0  0  0  0  0  0  0  0  0  0
    0.0000    0.0000    0.0000 C   0  0  0  0  0  0  0  0  0  0  0  0
   -1.1001   -0.6012    0.0000 O   0  0  0  0  0  0  0  0  0  0  0  0
    1.1001   -0.5995   -0.0000 O   0  0  0  0  0  0  0  0  0  0  0  0
    1.0008   -2.6593    1.1651 C   0  0  0  0  0  0  0  0  0  0  0  0
    0.4444   -2.5475    0.3474 H   0  0  0  0  0  0  0  0  0  0  0  0
    1.0072   -3.6988    1.4928 H   0  0  0  0  0  0  0  0  0  0  0  0
    2.0283   -2.3430    0.9857 H   0  0  0  0  0  0  0  0  0  0  0  0
    0.3943   -1.9362    2.3697 C   0  0  0  0  0  0  0  0  0  0  0  0
    0.7253   -1.0030    2.4300 H   0  0  0  0  0  0  0  0  0  0  0  0
   -0.5972   -1.9560    2.3370 H   0  0  0  0  0  0  0  0  0  0  0  0
    0.9047   -2.7576    3.5360 C   0  0  0  0  0  0  0  0  0  0  0  0
    1.8653   -2.5896    3.6797 H   0  0  0  0  0  0  0  0  0  0  0  0
    0.3755   -2.5686    4.3457 H   0  0  0  0  0  0  0  0  0  0  0  0
    0.7299   -3.7721    3.1777 H   0  0  0  0  0  0  0  0  0  0  0  0
  1  5  1  0
  5  6  2  0
  5  7  1  0
  1  2  1  0
  1  3  1  0
  1  4  1  0
  8 12  1  0
 12 15  1  0
  8  9  1  0
  8 10  1  0
  8 11  1  0
 12 13  1  0
 12 14  1  0
 15 16  1  0
 15 17  1  0
 15 18  1  0
M  CHG  1   7  -1
V    7 [O&-]
M  END
>  <PDB_ID>  (2298) 
pdb1qdb

>  <RESIDUE_NAME>  (2298) 
GLU   PRO

>  <FRAG_NAME>  (2298) 
ACET   PRPA

>  <FRAG_ATOM_NUM>  (2298) 
fragi: 7 fragj: 11

>  <atom.prop.CHAIN_ID>  (2298) 
A A A A A A A Z Z Z Z Z Z Z Z Z Z Z

>  <atom.prop.IS_HEAVY_ATOM>  (2298) 
1 0 0 0 1 1 1 1 0 0 0 1 0 0 1 0 0 0

>  <DIFUSE_FUNC_ATOM>  (2298) 
n/a

>  <FINAL_SINGLE_POINT_ENERGY>  (2298) 
0

>  <NONCOV_INTER_ENERGY_QM>  (2298) 
0

>  <FF_Energy>  (2298) 
32.33

>  <QM_Energy>  (2298) 
6.64

>  <source>  (2298) 
ACET_PRPA_29

>  <Index>  (2298) 
43136

$$$$
ACEH-pdb1qlb-D-GLH-270:PRPA-pdb1qlb-D-ILE-330
     RDKit          3D

 18 16  0  0  0  0  0  0  0  0999 V2000
   -0.0093    1.5166    0.0039 C   0  0  0  0  0  0  0  0  0  0  0  0
    0.4054    1.8135    0.8450 H   0  0  0  0  0  0  0  0  0  0  0  0
   -0.9465    1.8065   -0.0706 H   0  0  0  0  0  0  0  0  0  0  0  0
    0.5518    1.9452   -0.8265 H   0  0  0  0  0  0  0  0  0  0  0  0
    0.0000    0.0000    0.0000 C   0  0  0  0  0  0  0  0  0  0  0  0
   -1.0959   -0.5977   -0.0000 O   0  0  0  0  0  0  0  0  0  0  0  0
    1.0959   -0.5966    0.0000 O   0  0  0  0  0  0  0  0  0  0  0  0
    3.3654    0.4803    2.8179 C   0  0  0  0  0  0  0  0  0  0  0  0
    3.4102    1.3509    3.2941 H   0  0  0  0  0  0  0  0  0  0  0  0
    4.2960   -0.0509    3.0177 H   0  0  0  0  0  0  0  0  0  0  0  0
    3.2723    0.6733    1.7492 H   0  0  0  0  0  0  0  0  0  0  0  0
    2.1653   -0.3033    3.3588 C   0  0  0  0  0  0  0  0  0  0  0  0
    2.3485   -0.5344    4.3171 H   0  0  0  0  0  0  0  0  0  0  0  0
    1.3637    0.2997    3.3325 H   0  0  0  0  0  0  0  0  0  0  0  0
    1.8473   -1.5672    2.5994 C   0  0  0  0  0  0  0  0  0  0  0  0
    2.6341   -2.1832    2.6324 H   0  0  0  0  0  0  0  0  0  0  0  0
    1.0560   -2.0153    3.0150 H   0  0  0  0  0  0  0  0  0  0  0  0
    1.6407   -1.3420    1.6479 H   0  0  0  0  0  0  0  0  0  0  0  0
  1  5  1  0
  5  6  2  0
  5  7  1  0
  1  2  1  0
  1  3  1  0
  1  4  1  0
  8 12  1  0
 12 15  1  0
  8  9  1  0
  8 10  1  0
  8 11  1  0
 12 13  1  0
 12 14  1  0
 15 16  1  0
 15 17  1  0
 15 18  1  0
M  CHG  1   7  -1
V    7 [O&-]
M  END
>  <PDB_ID>  (2299) 
pdb1qlb

>  <RESIDUE_NAME>  (2299) 
GLU   ILE

>  <FRAG_NAME>  (2299) 
ACET   PRPA

>  <FRAG_ATOM_NUM>  (2299) 
fragi: 7 fragj: 11

>  <atom.prop.CHAIN_ID>  (2299) 
A A A A A A A Z Z Z Z Z Z Z Z Z Z Z

>  <atom.prop.IS_HEAVY_ATOM>  (2299) 
1 0 0 0 1 1 1 1 0 0 0 1 0 0 1 0 0 0

>  <DIFUSE_FUNC_ATOM>  (2299) 
n/a

>  <FINAL_SINGLE_POINT_ENERGY>  (2299) 
0

>  <NONCOV_INTER_ENERGY_QM>  (2299) 
0

>  <FF_Energy>  (2299) 
14.44

>  <QM_Energy>  (2299) 
-2.04

>  <source>  (2299) 
ACET_PRPA_29

>  <Index>  (2299) 
43543

$$$$
ACEH-pdb3p1v-B-GLH-97:PRPA-pdb3p1v-B-ILE-291
     RDKit          3D

 18 16  0  0  0  0  0  0  0  0999 V2000
    0.0039    1.5137   -0.0431 C   0  0  0  0  0  0  0  0  0  0  0  0
    0.5971    1.7879   -0.7749 H   0  0  0  0  0  0  0  0  0  0  0  0
    0.3125    1.8339    0.8320 H   0  0  0  0  0  0  0  0  0  0  0  0
   -0.9894    1.9213   -0.2312 H   0  0  0  0  0  0  0  0  0  0  0  0
    0.0000    0.0000    0.0000 C   0  0  0  0  0  0  0  0  0  0  0  0
   -1.1016   -0.5961   -0.0000 O   0  0  0  0  0  0  0  0  0  0  0  0
    1.1016   -0.5954    0.0000 O   0  0  0  0  0  0  0  0  0  0  0  0
    4.7178   -1.4389    2.2299 C   0  0  0  0  0  0  0  0  0  0  0  0
    4.6847   -1.5218    3.2220 H   0  0  0  0  0  0  0  0  0  0  0  0
    5.4374   -2.1715    1.8644 H   0  0  0  0  0  0  0  0  0  0  0  0
    5.0309   -0.4267    1.9738 H   0  0  0  0  0  0  0  0  0  0  0  0
    3.2999   -1.6994    1.6806 C   0  0  0  0  0  0  0  0  0  0  0  0
    3.2846   -1.5346    0.7071 H   0  0  0  0  0  0  0  0  0  0  0  0
    3.0382   -2.6334    1.8748 H   0  0  0  0  0  0  0  0  0  0  0  0
    2.1704   -0.7620    2.3297 C   0  0  0  0  0  0  0  0  0  0  0  0
    2.4210    0.1685    2.1278 H   0  0  0  0  0  0  0  0  0  0  0  0
    1.3160   -1.0128    1.9096 H   0  0  0  0  0  0  0  0  0  0  0  0
    2.1718   -0.9423    3.2975 H   0  0  0  0  0  0  0  0  0  0  0  0
  1  5  1  0
  5  6  2  0
  5  7  1  0
  1  2  1  0
  1  3  1  0
  1  4  1  0
  8 12  1  0
 12 15  1  0
  8  9  1  0
  8 10  1  0
  8 11  1  0
 12 13  1  0
 12 14  1  0
 15 16  1  0
 15 17  1  0
 15 18  1  0
M  CHG  1   7  -1
V    7 [O&-]
M  END
>  <PDB_ID>  (2300) 
pdb3p1v

>  <RESIDUE_NAME>  (2300) 
GLU   ILE

>  <FRAG_NAME>  (2300) 
ACET   PRPA

>  <FRAG_ATOM_NUM>  (2300) 
fragi: 7 fragj: 11

>  <atom.prop.CHAIN_ID>  (2300) 
A A A A A A A Z Z Z Z Z Z Z Z Z Z Z

>  <atom.prop.IS_HEAVY_ATOM>  (2300) 
1 0 0 0 1 1 1 1 0 0 0 1 0 0 1 0 0 0

>  <DIFUSE_FUNC_ATOM>  (2300) 
n/a

>  <FINAL_SINGLE_POINT_ENERGY>  (2300) 
0

>  <NONCOV_INTER_ENERGY_QM>  (2300) 
0

>  <FF_Energy>  (2300) 
16.87

>  <QM_Energy>  (2300) 
1.59

>  <source>  (2300) 
ACET_PRPA_29

>  <Index>  (2300) 
43745

$$$$
ACEH-pdb1qmh-B-GLH-209:PRPA-pdb1qmh-B-VAL-205
     RDKit          3D

 18 16  0  0  0  0  0  0  0  0999 V2000
   -0.0473    1.5333    0.0384 C   0  0  0  0  0  0  0  0  0  0  0  0
   -0.7903    1.7814    0.6709 H   0  0  0  0  0  0  0  0  0  0  0  0
   -0.3057    1.8356   -0.8869 H   0  0  0  0  0  0  0  0  0  0  0  0
    0.8485    2.0776    0.3374 H   0  0  0  0  0  0  0  0  0  0  0  0
    0.0000    0.0000    0.0000 C   0  0  0  0  0  0  0  0  0  0  0  0
   -1.1072   -0.5894   -0.0000 O   0  0  0  0  0  0  0  0  0  0  0  0
    1.1072   -0.5655   -0.0000 O   0  0  0  0  0  0  0  0  0  0  0  0
   -2.4873    0.6298   -3.8420 C   0  0  0  0  0  0  0  0  0  0  0  0
   -3.0538    1.3641   -3.4616 H   0  0  0  0  0  0  0  0  0  0  0  0
   -2.5114    0.7025   -4.9293 H   0  0  0  0  0  0  0  0  0  0  0  0
   -1.4657    0.7784   -3.4921 H   0  0  0  0  0  0  0  0  0  0  0  0
   -2.9611   -0.7523   -3.3320 C   0  0  0  0  0  0  0  0  0  0  0  0
   -2.3982   -1.4573   -3.7990 H   0  0  0  0  0  0  0  0  0  0  0  0
   -4.0036   -0.9157   -3.6049 H   0  0  0  0  0  0  0  0  0  0  0  0
   -2.8120   -1.0015   -1.8276 C   0  0  0  0  0  0  0  0  0  0  0  0
   -3.6573   -0.7401   -1.3652 H   0  0  0  0  0  0  0  0  0  0  0  0
   -2.6288   -1.9699   -1.6716 H   0  0  0  0  0  0  0  0  0  0  0  0
   -2.0539   -0.4542   -1.4772 H   0  0  0  0  0  0  0  0  0  0  0  0
  1  5  1  0
  5  6  2  0
  5  7  1  0
  1  2  1  0
  1  3  1  0
  1  4  1  0
  8 12  1  0
 12 15  1  0
  8  9  1  0
  8 10  1  0
  8 11  1  0
 12 13  1  0
 12 14  1  0
 15 16  1  0
 15 17  1  0
 15 18  1  0
M  CHG  1   7  -1
V    7 [O&-]
M  END
>  <PDB_ID>  (2301) 
pdb1qmh

>  <RESIDUE_NAME>  (2301) 
GLU   VAL

>  <FRAG_NAME>  (2301) 
ACET   PRPA

>  <FRAG_ATOM_NUM>  (2301) 
fragi: 7 fragj: 11

>  <atom.prop.CHAIN_ID>  (2301) 
A A A A A A A Z Z Z Z Z Z Z Z Z Z Z

>  <atom.prop.IS_HEAVY_ATOM>  (2301) 
1 0 0 0 1 1 1 1 0 0 0 1 0 0 1 0 0 0

>  <DIFUSE_FUNC_ATOM>  (2301) 
n/a

>  <FINAL_SINGLE_POINT_ENERGY>  (2301) 
0

>  <NONCOV_INTER_ENERGY_QM>  (2301) 
0

>  <FF_Energy>  (2301) 
42.65

>  <QM_Energy>  (2301) 
6.2

>  <source>  (2301) 
ACET_PRPA_29

>  <Index>  (2301) 
43880

$$$$
ACEH-pdb1qmh-B-GLH-209:PRPA-pdb1qmh-B-VAL-205
     RDKit          3D

 18 16  0  0  0  0  0  0  0  0999 V2000
   -0.0473    1.5333    0.0384 C   0  0  0  0  0  0  0  0  0  0  0  0
   -0.7903    1.7814    0.6709 H   0  0  0  0  0  0  0  0  0  0  0  0
   -0.3057    1.8356   -0.8869 H   0  0  0  0  0  0  0  0  0  0  0  0
    0.8485    2.0776    0.3374 H   0  0  0  0  0  0  0  0  0  0  0  0
    0.0000    0.0000    0.0000 C   0  0  0  0  0  0  0  0  0  0  0  0
   -1.1072   -0.5894   -0.0000 O   0  0  0  0  0  0  0  0  0  0  0  0
    1.1072   -0.5655   -0.0000 O   0  0  0  0  0  0  0  0  0  0  0  0
   -2.8120   -1.0015   -1.8276 C   0  0  0  0  0  0  0  0  0  0  0  0
   -3.6573   -0.7401   -1.3652 H   0  0  0  0  0  0  0  0  0  0  0  0
   -2.6288   -1.9699   -1.6716 H   0  0  0  0  0  0  0  0  0  0  0  0
   -2.0539   -0.4542   -1.4772 H   0  0  0  0  0  0  0  0  0  0  0  0
   -2.9611   -0.7523   -3.3320 C   0  0  0  0  0  0  0  0  0  0  0  0
   -2.3982   -1.4573   -3.7990 H   0  0  0  0  0  0  0  0  0  0  0  0
   -2.6274    0.2212   -3.6912 H   0  0  0  0  0  0  0  0  0  0  0  0
   -4.4312   -0.9827   -3.7169 C   0  0  0  0  0  0  0  0  0  0  0  0
   -4.9077   -0.1068   -3.7084 H   0  0  0  0  0  0  0  0  0  0  0  0
   -4.4662   -1.3835   -4.6294 H   0  0  0  0  0  0  0  0  0  0  0  0
   -4.8442   -1.6030   -3.0543 H   0  0  0  0  0  0  0  0  0  0  0  0
  1  5  1  0
  5  6  2  0
  5  7  1  0
  1  2  1  0
  1  3  1  0
  1  4  1  0
  8 12  1  0
 12 15  1  0
  8  9  1  0
  8 10  1  0
  8 11  1  0
 12 13  1  0
 12 14  1  0
 15 16  1  0
 15 17  1  0
 15 18  1  0
M  CHG  1   7  -1
V    7 [O&-]
M  END
>  <PDB_ID>  (2302) 
pdb1qmh

>  <RESIDUE_NAME>  (2302) 
GLU   VAL

>  <FRAG_NAME>  (2302) 
ACET   PRPA

>  <FRAG_ATOM_NUM>  (2302) 
fragi: 7 fragj: 11

>  <atom.prop.CHAIN_ID>  (2302) 
A A A A A A A Z Z Z Z Z Z Z Z Z Z Z

>  <atom.prop.IS_HEAVY_ATOM>  (2302) 
1 0 0 0 1 1 1 1 0 0 0 1 0 0 1 0 0 0

>  <DIFUSE_FUNC_ATOM>  (2302) 
n/a

>  <FINAL_SINGLE_POINT_ENERGY>  (2302) 
0

>  <NONCOV_INTER_ENERGY_QM>  (2302) 
0

>  <FF_Energy>  (2302) 
42.55

>  <QM_Energy>  (2302) 
7.21

>  <source>  (2302) 
ACET_PRPA_29

>  <Index>  (2302) 
43936

$$$$
ACEH-pdb1pku-D-GLH-29:PRPA-pdb1pku-E-ILE-21
     RDKit          3D

 18 16  0  0  0  0  0  0  0  0999 V2000
   -0.0121    1.5281   -0.0009 C   0  0  0  0  0  0  0  0  0  0  0  0
   -0.9509    1.8125   -0.0161 H   0  0  0  0  0  0  0  0  0  0  0  0
    0.4839    1.8227   -0.7943 H   0  0  0  0  0  0  0  0  0  0  0  0
    0.4639    1.9517    0.8834 H   0  0  0  0  0  0  0  0  0  0  0  0
    0.0000    0.0000    0.0000 C   0  0  0  0  0  0  0  0  0  0  0  0
   -1.0927   -0.5967    0.0000 O   0  0  0  0  0  0  0  0  0  0  0  0
    1.0927   -0.6097    0.0000 O   0  0  0  0  0  0  0  0  0  0  0  0
   -1.1283   -3.6492   -1.0401 C   0  0  0  0  0  0  0  0  0  0  0  0
   -1.5470   -4.5590   -1.1517 H   0  0  0  0  0  0  0  0  0  0  0  0
   -0.8725   -3.5583    0.0156 H   0  0  0  0  0  0  0  0  0  0  0  0
   -0.2410   -3.6337   -1.6730 H   0  0  0  0  0  0  0  0  0  0  0  0
   -2.0933   -2.5420   -1.4767 C   0  0  0  0  0  0  0  0  0  0  0  0
   -1.6895   -1.6687   -1.2412 H   0  0  0  0  0  0  0  0  0  0  0  0
   -3.0278   -2.6413   -0.9245 H   0  0  0  0  0  0  0  0  0  0  0  0
   -2.3771   -2.6530   -2.9748 C   0  0  0  0  0  0  0  0  0  0  0  0
   -3.0057   -1.9279   -3.2463 H   0  0  0  0  0  0  0  0  0  0  0  0
   -1.5220   -2.5627   -3.4805 H   0  0  0  0  0  0  0  0  0  0  0  0
   -2.7871   -3.5407   -3.1679 H   0  0  0  0  0  0  0  0  0  0  0  0
  1  5  1  0
  5  6  2  0
  5  7  1  0
  1  2  1  0
  1  3  1  0
  1  4  1  0
  8 12  1  0
 12 15  1  0
  8  9  1  0
  8 10  1  0
  8 11  1  0
 12 13  1  0
 12 14  1  0
 15 16  1  0
 15 17  1  0
 15 18  1  0
M  CHG  1   7  -1
V    7 [O&-]
M  END
>  <PDB_ID>  (2303) 
pdb1pku

>  <RESIDUE_NAME>  (2303) 
GLU   ILE

>  <FRAG_NAME>  (2303) 
ACET   PRPA

>  <FRAG_ATOM_NUM>  (2303) 
fragi: 7 fragj: 11

>  <atom.prop.CHAIN_ID>  (2303) 
A A A A A A A Z Z Z Z Z Z Z Z Z Z Z

>  <atom.prop.IS_HEAVY_ATOM>  (2303) 
1 0 0 0 1 1 1 1 0 0 0 1 0 0 1 0 0 0

>  <DIFUSE_FUNC_ATOM>  (2303) 
n/a

>  <FINAL_SINGLE_POINT_ENERGY>  (2303) 
0

>  <NONCOV_INTER_ENERGY_QM>  (2303) 
0

>  <FF_Energy>  (2303) 
49.18

>  <QM_Energy>  (2303) 
2.4

>  <source>  (2303) 
ACET_PRPA_29

>  <Index>  (2303) 
44122

$$$$
ACEH-pdb1pku-D-GLH-29:PRPA-pdb1pku-E-ILE-21
     RDKit          3D

 18 16  0  0  0  0  0  0  0  0999 V2000
   -0.0121    1.5281   -0.0009 C   0  0  0  0  0  0  0  0  0  0  0  0
   -0.9509    1.8125   -0.0161 H   0  0  0  0  0  0  0  0  0  0  0  0
    0.4839    1.8227   -0.7943 H   0  0  0  0  0  0  0  0  0  0  0  0
    0.4639    1.9517    0.8834 H   0  0  0  0  0  0  0  0  0  0  0  0
    0.0000    0.0000    0.0000 C   0  0  0  0  0  0  0  0  0  0  0  0
   -1.0927   -0.5967    0.0000 O   0  0  0  0  0  0  0  0  0  0  0  0
    1.0927   -0.6097    0.0000 O   0  0  0  0  0  0  0  0  0  0  0  0
   -2.0933   -2.5420   -1.4767 C   0  0  0  0  0  0  0  0  0  0  0  0
   -1.6895   -1.6687   -1.2412 H   0  0  0  0  0  0  0  0  0  0  0  0
   -1.4069   -3.3296   -1.1661 H   0  0  0  0  0  0  0  0  0  0  0  0
   -2.2956   -2.6211   -2.5448 H   0  0  0  0  0  0  0  0  0  0  0  0
   -3.4049   -2.6814   -0.7017 C   0  0  0  0  0  0  0  0  0  0  0  0
   -3.7853   -3.5862   -0.8806 H   0  0  0  0  0  0  0  0  0  0  0  0
   -3.2034   -2.6057    0.2740 H   0  0  0  0  0  0  0  0  0  0  0  0
   -4.4492   -1.6318   -1.0612 C   0  0  0  0  0  0  0  0  0  0  0  0
   -4.6657   -1.7070   -2.0319 H   0  0  0  0  0  0  0  0  0  0  0  0
   -5.2698   -1.7889   -0.5170 H   0  0  0  0  0  0  0  0  0  0  0  0
   -4.0818   -0.7253   -0.8653 H   0  0  0  0  0  0  0  0  0  0  0  0
  1  5  1  0
  5  6  2  0
  5  7  1  0
  1  2  1  0
  1  3  1  0
  1  4  1  0
  8 12  1  0
 12 15  1  0
  8  9  1  0
  8 10  1  0
  8 11  1  0
 12 13  1  0
 12 14  1  0
 15 16  1  0
 15 17  1  0
 15 18  1  0
M  CHG  1   7  -1
V    7 [O&-]
M  END
>  <PDB_ID>  (2304) 
pdb1pku

>  <RESIDUE_NAME>  (2304) 
GLU   ILE

>  <FRAG_NAME>  (2304) 
ACET   PRPA

>  <FRAG_ATOM_NUM>  (2304) 
fragi: 7 fragj: 11

>  <atom.prop.CHAIN_ID>  (2304) 
A A A A A A A Z Z Z Z Z Z Z Z Z Z Z

>  <atom.prop.IS_HEAVY_ATOM>  (2304) 
1 0 0 0 1 1 1 1 0 0 0 1 0 0 1 0 0 0

>  <DIFUSE_FUNC_ATOM>  (2304) 
n/a

>  <FINAL_SINGLE_POINT_ENERGY>  (2304) 
0

>  <NONCOV_INTER_ENERGY_QM>  (2304) 
0

>  <FF_Energy>  (2304) 
43.37

>  <QM_Energy>  (2304) 
1.53

>  <source>  (2304) 
ACET_PRPA_29

>  <Index>  (2304) 
44163

$$$$
ACEH-pdb1pku-D-GLH-29:PRPA-pdb1pku-E-ILE-21
     RDKit          3D

 18 16  0  0  0  0  0  0  0  0999 V2000
   -0.0121    1.5281   -0.0009 C   0  0  0  0  0  0  0  0  0  0  0  0
   -0.9509    1.8125   -0.0161 H   0  0  0  0  0  0  0  0  0  0  0  0
    0.4839    1.8227   -0.7943 H   0  0  0  0  0  0  0  0  0  0  0  0
    0.4639    1.9517    0.8834 H   0  0  0  0  0  0  0  0  0  0  0  0
    0.0000    0.0000    0.0000 C   0  0  0  0  0  0  0  0  0  0  0  0
   -1.0927   -0.5967    0.0000 O   0  0  0  0  0  0  0  0  0  0  0  0
    1.0927   -0.6097    0.0000 O   0  0  0  0  0  0  0  0  0  0  0  0
   -3.4049   -2.6814   -0.7017 C   0  0  0  0  0  0  0  0  0  0  0  0
   -3.7853   -3.5862   -0.8806 H   0  0  0  0  0  0  0  0  0  0  0  0
   -3.2034   -2.6057    0.2740 H   0  0  0  0  0  0  0  0  0  0  0  0
   -4.1520   -1.9305   -0.9588 H   0  0  0  0  0  0  0  0  0  0  0  0
   -2.0933   -2.5420   -1.4767 C   0  0  0  0  0  0  0  0  0  0  0  0
   -1.6895   -1.6687   -1.2412 H   0  0  0  0  0  0  0  0  0  0  0  0
   -1.4069   -3.3296   -1.1661 H   0  0  0  0  0  0  0  0  0  0  0  0
   -2.3771   -2.6530   -2.9748 C   0  0  0  0  0  0  0  0  0  0  0  0
   -3.0057   -1.9279   -3.2463 H   0  0  0  0  0  0  0  0  0  0  0  0
   -1.5220   -2.5627   -3.4805 H   0  0  0  0  0  0  0  0  0  0  0  0
   -2.7871   -3.5407   -3.1679 H   0  0  0  0  0  0  0  0  0  0  0  0
  1  5  1  0
  5  6  2  0
  5  7  1  0
  1  2  1  0
  1  3  1  0
  1  4  1  0
  8 12  1  0
 12 15  1  0
  8  9  1  0
  8 10  1  0
  8 11  1  0
 12 13  1  0
 12 14  1  0
 15 16  1  0
 15 17  1  0
 15 18  1  0
M  CHG  1   7  -1
V    7 [O&-]
M  END
>  <PDB_ID>  (2305) 
pdb1pku

>  <RESIDUE_NAME>  (2305) 
GLU   ILE

>  <FRAG_NAME>  (2305) 
ACET   PRPA

>  <FRAG_ATOM_NUM>  (2305) 
fragi: 7 fragj: 11

>  <atom.prop.CHAIN_ID>  (2305) 
A A A A A A A Z Z Z Z Z Z Z Z Z Z Z

>  <atom.prop.IS_HEAVY_ATOM>  (2305) 
1 0 0 0 1 1 1 1 0 0 0 1 0 0 1 0 0 0

>  <DIFUSE_FUNC_ATOM>  (2305) 
n/a

>  <FINAL_SINGLE_POINT_ENERGY>  (2305) 
0

>  <NONCOV_INTER_ENERGY_QM>  (2305) 
0

>  <FF_Energy>  (2305) 
49.07

>  <QM_Energy>  (2305) 
2.27

>  <source>  (2305) 
ACET_PRPA_29

>  <Index>  (2305) 
44208

$$$$
ACEH-pdb3or2-E-GLH-223:PRPA-pdb3or2-E-LEU-226
     RDKit          3D

 18 16  0  0  0  0  0  0  0  0999 V2000
    0.0002    1.5165   -0.0007 C   0  0  0  0  0  0  0  0  0  0  0  0
   -0.4473    1.8141    0.8214 H   0  0  0  0  0  0  0  0  0  0  0  0
   -0.4684    1.8125   -0.8113 H   0  0  0  0  0  0  0  0  0  0  0  0
    1.0066    1.9349   -0.0129 H   0  0  0  0  0  0  0  0  0  0  0  0
    0.0000    0.0000    0.0000 C   0  0  0  0  0  0  0  0  0  0  0  0
   -1.0981   -0.5957    0.0000 O   0  0  0  0  0  0  0  0  0  0  0  0
    1.0981   -0.5959    0.0000 O   0  0  0  0  0  0  0  0  0  0  0  0
    4.8431    1.0463   -2.0957 C   0  0  0  0  0  0  0  0  0  0  0  0
    4.2292    1.8245   -2.1823 H   0  0  0  0  0  0  0  0  0  0  0  0
    4.9504    0.5908   -2.9724 H   0  0  0  0  0  0  0  0  0  0  0  0
    5.8200    1.4255   -1.7956 H   0  0  0  0  0  0  0  0  0  0  0  0
    4.1878    0.0500   -1.1368 C   0  0  0  0  0  0  0  0  0  0  0  0
    4.0316    0.4976   -0.2590 H   0  0  0  0  0  0  0  0  0  0  0  0
    4.8615   -0.7937   -0.9867 H   0  0  0  0  0  0  0  0  0  0  0  0
    2.8548   -0.4280   -1.7043 C   0  0  0  0  0  0  0  0  0  0  0  0
    3.0094   -0.8749   -2.5854 H   0  0  0  0  0  0  0  0  0  0  0  0
    2.4369   -1.0773   -1.0694 H   0  0  0  0  0  0  0  0  0  0  0  0
    2.2463    0.3552   -1.8296 H   0  0  0  0  0  0  0  0  0  0  0  0
  1  5  1  0
  5  6  2  0
  5  7  1  0
  1  2  1  0
  1  3  1  0
  1  4  1  0
  8 12  1  0
 12 15  1  0
  8  9  1  0
  8 10  1  0
  8 11  1  0
 12 13  1  0
 12 14  1  0
 15 16  1  0
 15 17  1  0
 15 18  1  0
M  CHG  1   7  -1
V    7 [O&-]
M  END
>  <PDB_ID>  (2306) 
pdb3or2

>  <RESIDUE_NAME>  (2306) 
GLU   LEU

>  <FRAG_NAME>  (2306) 
ACET   PRPA

>  <FRAG_ATOM_NUM>  (2306) 
fragi: 7 fragj: 11

>  <atom.prop.CHAIN_ID>  (2306) 
A A A A A A A Z Z Z Z Z Z Z Z Z Z Z

>  <atom.prop.IS_HEAVY_ATOM>  (2306) 
1 0 0 0 1 1 1 1 0 0 0 1 0 0 1 0 0 0

>  <DIFUSE_FUNC_ATOM>  (2306) 
n/a

>  <FINAL_SINGLE_POINT_ENERGY>  (2306) 
0

>  <NONCOV_INTER_ENERGY_QM>  (2306) 
0

>  <FF_Energy>  (2306) 
43.06

>  <QM_Energy>  (2306) 
7.65

>  <source>  (2306) 
ACET_PRPA_29

>  <Index>  (2306) 
44307

$$$$
ACEH-pdb1r1n-D-GLH-264:PRPA-pdb1r1n-D-ARG-101
     RDKit          3D

 18 16  0  0  0  0  0  0  0  0999 V2000
    0.0049    1.5128   -0.0077 C   0  0  0  0  0  0  0  0  0  0  0  0
   -0.4440    1.8060   -0.8340 H   0  0  0  0  0  0  0  0  0  0  0  0
    0.9450    1.8057    0.0239 H   0  0  0  0  0  0  0  0  0  0  0  0
   -0.5215    1.9448    0.8434 H   0  0  0  0  0  0  0  0  0  0  0  0
    0.0000    0.0000    0.0000 C   0  0  0  0  0  0  0  0  0  0  0  0
   -1.0987   -0.5955    0.0000 O   0  0  0  0  0  0  0  0  0  0  0  0
    1.0987   -0.5911    0.0000 O   0  0  0  0  0  0  0  0  0  0  0  0
    2.7371   -3.0823    1.5782 C   0  0  0  0  0  0  0  0  0  0  0  0
    2.3641   -2.4222    2.2139 H   0  0  0  0  0  0  0  0  0  0  0  0
    3.2906   -2.5545    0.8016 H   0  0  0  0  0  0  0  0  0  0  0  0
    3.4591   -3.7094    2.1013 H   0  0  0  0  0  0  0  0  0  0  0  0
    1.6288   -3.9474    0.9686 C   0  0  0  0  0  0  0  0  0  0  0  0
    1.9236   -4.2367    0.0633 H   0  0  0  0  0  0  0  0  0  0  0  0
    1.4952   -4.7398    1.5557 H   0  0  0  0  0  0  0  0  0  0  0  0
    0.2920   -3.2344    0.8256 C   0  0  0  0  0  0  0  0  0  0  0  0
   -0.2186   -3.3191    1.6747 H   0  0  0  0  0  0  0  0  0  0  0  0
    0.4516   -2.2763    0.6115 H   0  0  0  0  0  0  0  0  0  0  0  0
   -0.2977   -3.6743    0.0214 H   0  0  0  0  0  0  0  0  0  0  0  0
  1  5  1  0
  5  6  2  0
  5  7  1  0
  1  2  1  0
  1  3  1  0
  1  4  1  0
  8 12  1  0
 12 15  1  0
  8  9  1  0
  8 10  1  0
  8 11  1  0
 12 13  1  0
 12 14  1  0
 15 16  1  0
 15 17  1  0
 15 18  1  0
M  CHG  1   7  -1
V    7 [O&-]
M  END
>  <PDB_ID>  (2307) 
pdb1r1n

>  <RESIDUE_NAME>  (2307) 
GLU   ARG

>  <FRAG_NAME>  (2307) 
ACET   PRPA

>  <FRAG_ATOM_NUM>  (2307) 
fragi: 7 fragj: 11

>  <atom.prop.CHAIN_ID>  (2307) 
A A A A A A A Z Z Z Z Z Z Z Z Z Z Z

>  <atom.prop.IS_HEAVY_ATOM>  (2307) 
1 0 0 0 1 1 1 1 0 0 0 1 0 0 1 0 0 0

>  <DIFUSE_FUNC_ATOM>  (2307) 
n/a

>  <FINAL_SINGLE_POINT_ENERGY>  (2307) 
0

>  <NONCOV_INTER_ENERGY_QM>  (2307) 
0

>  <FF_Energy>  (2307) 
16.29

>  <QM_Energy>  (2307) 
-0.57

>  <source>  (2307) 
ACET_PRPA_29

>  <Index>  (2307) 
44633

$$$$
ACEH-pdb1r1n-D-GLH-264:PRPA-pdb1r1n-D-ARG-101
     RDKit          3D

 18 16  0  0  0  0  0  0  0  0999 V2000
    0.0049    1.5128   -0.0077 C   0  0  0  0  0  0  0  0  0  0  0  0
   -0.4440    1.8060   -0.8340 H   0  0  0  0  0  0  0  0  0  0  0  0
    0.9450    1.8057    0.0239 H   0  0  0  0  0  0  0  0  0  0  0  0
   -0.5215    1.9448    0.8434 H   0  0  0  0  0  0  0  0  0  0  0  0
    0.0000    0.0000    0.0000 C   0  0  0  0  0  0  0  0  0  0  0  0
   -1.0987   -0.5955    0.0000 O   0  0  0  0  0  0  0  0  0  0  0  0
    1.0987   -0.5911    0.0000 O   0  0  0  0  0  0  0  0  0  0  0  0
    1.6288   -3.9474    0.9686 C   0  0  0  0  0  0  0  0  0  0  0  0
    1.9236   -4.2367    0.0633 H   0  0  0  0  0  0  0  0  0  0  0  0
    1.4952   -4.7398    1.5557 H   0  0  0  0  0  0  0  0  0  0  0  0
    2.4171   -3.3320    1.4022 H   0  0  0  0  0  0  0  0  0  0  0  0
    0.2920   -3.2344    0.8256 C   0  0  0  0  0  0  0  0  0  0  0  0
   -0.2186   -3.3191    1.6747 H   0  0  0  0  0  0  0  0  0  0  0  0
    0.4516   -2.2763    0.6115 H   0  0  0  0  0  0  0  0  0  0  0  0
   -0.5255   -3.8441   -0.2892 C   0  0  0  0  0  0  0  0  0  0  0  0
   -0.6952   -4.7936   -0.0696 H   0  0  0  0  0  0  0  0  0  0  0  0
   -1.3727   -3.3376   -0.3679 H   0  0  0  0  0  0  0  0  0  0  0  0
    0.0214   -3.7824   -1.2300 H   0  0  0  0  0  0  0  0  0  0  0  0
  1  5  1  0
  5  6  2  0
  5  7  1  0
  1  2  1  0
  1  3  1  0
  1  4  1  0
  8 12  1  0
 12 15  1  0
  8  9  1  0
  8 10  1  0
  8 11  1  0
 12 13  1  0
 12 14  1  0
 15 16  1  0
 15 17  1  0
 15 18  1  0
M  CHG  1   7  -1
V    7 [O&-]
M  END
>  <PDB_ID>  (2308) 
pdb1r1n

>  <RESIDUE_NAME>  (2308) 
GLU   ARG

>  <FRAG_NAME>  (2308) 
ACET   PRPA

>  <FRAG_ATOM_NUM>  (2308) 
fragi: 7 fragj: 11

>  <atom.prop.CHAIN_ID>  (2308) 
A A A A A A A Z Z Z Z Z Z Z Z Z Z Z

>  <atom.prop.IS_HEAVY_ATOM>  (2308) 
1 0 0 0 1 1 1 1 0 0 0 1 0 0 1 0 0 0

>  <DIFUSE_FUNC_ATOM>  (2308) 
n/a

>  <FINAL_SINGLE_POINT_ENERGY>  (2308) 
0

>  <NONCOV_INTER_ENERGY_QM>  (2308) 
0

>  <FF_Energy>  (2308) 
18.27

>  <QM_Energy>  (2308) 
-1.85

>  <source>  (2308) 
ACET_PRPA_29

>  <Index>  (2308) 
44654

$$$$
ACEH-pdb1r0d-E-GLH-961:PRPA-pdb1r0d-E-GLN-957
     RDKit          3D

 18 16  0  0  0  0  0  0  0  0999 V2000
    0.0541    1.5190    0.0436 C   0  0  0  0  0  0  0  0  0  0  0  0
    0.9117    1.7916   -0.3777 H   0  0  0  0  0  0  0  0  0  0  0  0
    0.0400    1.7824    1.0020 H   0  0  0  0  0  0  0  0  0  0  0  0
   -0.7631    2.0243   -0.4711 H   0  0  0  0  0  0  0  0  0  0  0  0
    0.0000    0.0000    0.0000 C   0  0  0  0  0  0  0  0  0  0  0  0
   -1.0899   -0.5780   -0.0000 O   0  0  0  0  0  0  0  0  0  0  0  0
    1.0899   -0.5870   -0.0000 O   0  0  0  0  0  0  0  0  0  0  0  0
    2.6494    0.4517    3.6889 C   0  0  0  0  0  0  0  0  0  0  0  0
    3.2740    1.1787    3.3742 H   0  0  0  0  0  0  0  0  0  0  0  0
    2.6040    0.4949    4.7770 H   0  0  0  0  0  0  0  0  0  0  0  0
    1.6749    0.6353    3.2363 H   0  0  0  0  0  0  0  0  0  0  0  0
    3.1318   -0.9271    3.2241 C   0  0  0  0  0  0  0  0  0  0  0  0
    4.0923   -1.0317    3.4877 H   0  0  0  0  0  0  0  0  0  0  0  0
    2.5855   -1.6278    3.6896 H   0  0  0  0  0  0  0  0  0  0  0  0
    3.0179   -1.1434    1.7351 C   0  0  0  0  0  0  0  0  0  0  0  0
    2.0617   -1.0487    1.4583 H   0  0  0  0  0  0  0  0  0  0  0  0
    3.5715   -0.4620    1.2575 H   0  0  0  0  0  0  0  0  0  0  0  0
    3.3592   -2.1298    1.4211 H   0  0  0  0  0  0  0  0  0  0  0  0
  1  5  1  0
  5  6  2  0
  5  7  1  0
  1  2  1  0
  1  3  1  0
  1  4  1  0
  8 12  1  0
 12 15  1  0
  8  9  1  0
  8 10  1  0
  8 11  1  0
 12 13  1  0
 12 14  1  0
 15 16  1  0
 15 17  1  0
 15 18  1  0
M  CHG  1   7  -1
V    7 [O&-]
M  END
>  <PDB_ID>  (2309) 
pdb1r0d

>  <RESIDUE_NAME>  (2309) 
GLU   GLN

>  <FRAG_NAME>  (2309) 
ACET   PRPA

>  <FRAG_ATOM_NUM>  (2309) 
fragi: 7 fragj: 11

>  <atom.prop.CHAIN_ID>  (2309) 
A A A A A A A Z Z Z Z Z Z Z Z Z Z Z

>  <atom.prop.IS_HEAVY_ATOM>  (2309) 
1 0 0 0 1 1 1 1 0 0 0 1 0 0 1 0 0 0

>  <DIFUSE_FUNC_ATOM>  (2309) 
n/a

>  <FINAL_SINGLE_POINT_ENERGY>  (2309) 
0

>  <NONCOV_INTER_ENERGY_QM>  (2309) 
0

>  <FF_Energy>  (2309) 
27.23

>  <QM_Energy>  (2309) 
2.71

>  <source>  (2309) 
ACET_PRPA_30

>  <Index>  (2309) 
1113

$$$$
ACEH-pdb3pgx-D-GLH-191:PRPA-pdb3pgx-B-VAL-117
     RDKit          3D

 18 16  0  0  0  0  0  0  0  0999 V2000
   -0.0057    1.5285   -0.0907 C   0  0  0  0  0  0  0  0  0  0  0  0
   -0.6156    1.8624    0.5962 H   0  0  0  0  0  0  0  0  0  0  0  0
   -0.2746    1.7699   -0.9975 H   0  0  0  0  0  0  0  0  0  0  0  0
    0.9800    1.9544    0.0971 H   0  0  0  0  0  0  0  0  0  0  0  0
    0.0000    0.0000    0.0000 C   0  0  0  0  0  0  0  0  0  0  0  0
   -1.1066   -0.5965    0.0000 O   0  0  0  0  0  0  0  0  0  0  0  0
    1.1066   -0.5859    0.0000 O   0  0  0  0  0  0  0  0  0  0  0  0
    0.6308   -4.2015   -0.9200 C   0  0  0  0  0  0  0  0  0  0  0  0
    0.6687   -4.9368   -0.2201 H   0  0  0  0  0  0  0  0  0  0  0  0
    1.4878   -3.5464   -0.7636 H   0  0  0  0  0  0  0  0  0  0  0  0
    0.6118   -4.6799   -1.8993 H   0  0  0  0  0  0  0  0  0  0  0  0
   -0.7015   -3.4754   -0.6986 C   0  0  0  0  0  0  0  0  0  0  0  0
   -0.7604   -2.7370   -1.3583 H   0  0  0  0  0  0  0  0  0  0  0  0
   -1.5262   -4.1563   -0.9094 H   0  0  0  0  0  0  0  0  0  0  0  0
   -0.8197   -3.0041    0.7761 C   0  0  0  0  0  0  0  0  0  0  0  0
    0.0834   -2.7313    1.0929 H   0  0  0  0  0  0  0  0  0  0  0  0
   -1.4480   -2.2341    0.8110 H   0  0  0  0  0  0  0  0  0  0  0  0
   -1.1657   -3.7609    1.3215 H   0  0  0  0  0  0  0  0  0  0  0  0
  1  5  1  0
  5  6  2  0
  5  7  1  0
  1  2  1  0
  1  3  1  0
  1  4  1  0
  8 12  1  0
 12 15  1  0
  8  9  1  0
  8 10  1  0
  8 11  1  0
 12 13  1  0
 12 14  1  0
 15 16  1  0
 15 17  1  0
 15 18  1  0
M  CHG  1   7  -1
V    7 [O&-]
M  END
>  <PDB_ID>  (2310) 
pdb3pgx

>  <RESIDUE_NAME>  (2310) 
GLU   VAL

>  <FRAG_NAME>  (2310) 
ACET   PRPA

>  <FRAG_ATOM_NUM>  (2310) 
fragi: 7 fragj: 11

>  <atom.prop.CHAIN_ID>  (2310) 
A A A A A A A Z Z Z Z Z Z Z Z Z Z Z

>  <atom.prop.IS_HEAVY_ATOM>  (2310) 
1 0 0 0 1 1 1 1 0 0 0 1 0 0 1 0 0 0

>  <DIFUSE_FUNC_ATOM>  (2310) 
n/a

>  <FINAL_SINGLE_POINT_ENERGY>  (2310) 
0

>  <NONCOV_INTER_ENERGY_QM>  (2310) 
0

>  <FF_Energy>  (2310) 
27.64

>  <QM_Energy>  (2310) 
2.62

>  <source>  (2310) 
ACET_PRPA_30

>  <Index>  (2310) 
1603

$$$$
ACEH-pdb2yz7-C-GLH-172:PRPA-pdb2yz7-C-VAL-168
     RDKit          3D

 18 16  0  0  0  0  0  0  0  0999 V2000
   -0.0111    1.5134    0.0089 C   0  0  0  0  0  0  0  0  0  0  0  0
    0.3267    1.8046    0.8875 H   0  0  0  0  0  0  0  0  0  0  0  0
   -0.9407    1.8025   -0.1422 H   0  0  0  0  0  0  0  0  0  0  0  0
    0.6206    1.9453   -0.7674 H   0  0  0  0  0  0  0  0  0  0  0  0
    0.0000    0.0000    0.0000 C   0  0  0  0  0  0  0  0  0  0  0  0
   -1.1068   -0.5866    0.0000 O   0  0  0  0  0  0  0  0  0  0  0  0
    1.1068   -0.5940   -0.0000 O   0  0  0  0  0  0  0  0  0  0  0  0
   -4.5763    1.0866   -1.7239 C   0  0  0  0  0  0  0  0  0  0  0  0
   -4.6100    1.8252   -1.0469 H   0  0  0  0  0  0  0  0  0  0  0  0
   -5.3941    1.2285   -2.4304 H   0  0  0  0  0  0  0  0  0  0  0  0
   -3.6163    1.1536   -2.2358 H   0  0  0  0  0  0  0  0  0  0  0  0
   -4.6875   -0.2906   -0.9859 C   0  0  0  0  0  0  0  0  0  0  0  0
   -4.7604   -0.9897   -1.6853 H   0  0  0  0  0  0  0  0  0  0  0  0
   -5.5279   -0.2837   -0.2919 H   0  0  0  0  0  0  0  0  0  0  0  0
   -3.4206   -0.5662   -0.1940 C   0  0  0  0  0  0  0  0  0  0  0  0
   -2.9571    0.2972    0.0081 H   0  0  0  0  0  0  0  0  0  0  0  0
   -3.6538   -1.0259    0.6627 H   0  0  0  0  0  0  0  0  0  0  0  0
   -2.8116   -1.1512   -0.7292 H   0  0  0  0  0  0  0  0  0  0  0  0
  1  5  1  0
  5  6  2  0
  5  7  1  0
  1  2  1  0
  1  3  1  0
  1  4  1  0
  8 12  1  0
 12 15  1  0
  8  9  1  0
  8 10  1  0
  8 11  1  0
 12 13  1  0
 12 14  1  0
 15 16  1  0
 15 17  1  0
 15 18  1  0
M  CHG  1   7  -1
V    7 [O&-]
M  END
>  <PDB_ID>  (2311) 
pdb2yz7

>  <RESIDUE_NAME>  (2311) 
GLU   VAL

>  <FRAG_NAME>  (2311) 
ACET   PRPA

>  <FRAG_ATOM_NUM>  (2311) 
fragi: 7 fragj: 11

>  <atom.prop.CHAIN_ID>  (2311) 
A A A A A A A Z Z Z Z Z Z Z Z Z Z Z

>  <atom.prop.IS_HEAVY_ATOM>  (2311) 
1 0 0 0 1 1 1 1 0 0 0 1 0 0 1 0 0 0

>  <DIFUSE_FUNC_ATOM>  (2311) 
n/a

>  <FINAL_SINGLE_POINT_ENERGY>  (2311) 
0

>  <NONCOV_INTER_ENERGY_QM>  (2311) 
0

>  <FF_Energy>  (2311) 
40.55

>  <QM_Energy>  (2311) 
11.84

>  <source>  (2311) 
ACET_PRPA_30

>  <Index>  (2311) 
1632

$$$$
ACEH-pdb3pgx-D-GLH-191:PRPA-pdb3pgx-B-VAL-117
     RDKit          3D

 18 16  0  0  0  0  0  0  0  0999 V2000
   -0.0057    1.5285   -0.0907 C   0  0  0  0  0  0  0  0  0  0  0  0
   -0.6156    1.8624    0.5962 H   0  0  0  0  0  0  0  0  0  0  0  0
   -0.2746    1.7699   -0.9975 H   0  0  0  0  0  0  0  0  0  0  0  0
    0.9800    1.9544    0.0971 H   0  0  0  0  0  0  0  0  0  0  0  0
    0.0000    0.0000    0.0000 C   0  0  0  0  0  0  0  0  0  0  0  0
   -1.1066   -0.5965    0.0000 O   0  0  0  0  0  0  0  0  0  0  0  0
    1.1066   -0.5859    0.0000 O   0  0  0  0  0  0  0  0  0  0  0  0
   -1.8542   -4.4269   -0.9933 C   0  0  0  0  0  0  0  0  0  0  0  0
   -2.6331   -4.1982   -0.4096 H   0  0  0  0  0  0  0  0  0  0  0  0
   -2.1199   -4.3408   -1.9531 H   0  0  0  0  0  0  0  0  0  0  0  0
   -1.5660   -5.3665   -0.8107 H   0  0  0  0  0  0  0  0  0  0  0  0
   -0.7015   -3.4754   -0.6986 C   0  0  0  0  0  0  0  0  0  0  0  0
   -0.7604   -2.7370   -1.3583 H   0  0  0  0  0  0  0  0  0  0  0  0
    0.2455   -3.9916   -0.8559 H   0  0  0  0  0  0  0  0  0  0  0  0
   -0.8197   -3.0041    0.7761 C   0  0  0  0  0  0  0  0  0  0  0  0
    0.0834   -2.7313    1.0929 H   0  0  0  0  0  0  0  0  0  0  0  0
   -1.4480   -2.2341    0.8110 H   0  0  0  0  0  0  0  0  0  0  0  0
   -1.1657   -3.7609    1.3215 H   0  0  0  0  0  0  0  0  0  0  0  0
  1  5  1  0
  5  6  2  0
  5  7  1  0
  1  2  1  0
  1  3  1  0
  1  4  1  0
  8 12  1  0
 12 15  1  0
  8  9  1  0
  8 10  1  0
  8 11  1  0
 12 13  1  0
 12 14  1  0
 15 16  1  0
 15 17  1  0
 15 18  1  0
M  CHG  1   7  -1
V    7 [O&-]
M  END
>  <PDB_ID>  (2312) 
pdb3pgx

>  <RESIDUE_NAME>  (2312) 
GLU   VAL

>  <FRAG_NAME>  (2312) 
ACET   PRPA

>  <FRAG_ATOM_NUM>  (2312) 
fragi: 7 fragj: 11

>  <atom.prop.CHAIN_ID>  (2312) 
A A A A A A A Z Z Z Z Z Z Z Z Z Z Z

>  <atom.prop.IS_HEAVY_ATOM>  (2312) 
1 0 0 0 1 1 1 1 0 0 0 1 0 0 1 0 0 0

>  <DIFUSE_FUNC_ATOM>  (2312) 
n/a

>  <FINAL_SINGLE_POINT_ENERGY>  (2312) 
0

>  <NONCOV_INTER_ENERGY_QM>  (2312) 
0

>  <FF_Energy>  (2312) 
27.3

>  <QM_Energy>  (2312) 
3.57

>  <source>  (2312) 
ACET_PRPA_30

>  <Index>  (2312) 
1643

$$$$
ACEH-pdb3pr3-B-GLH-516:PRPA-pdb3pr3-B-LEU-512
     RDKit          3D

 18 16  0  0  0  0  0  0  0  0999 V2000
    0.0039    1.5191    0.0020 C   0  0  0  0  0  0  0  0  0  0  0  0
    0.5832    1.8741   -0.8630 H   0  0  0  0  0  0  0  0  0  0  0  0
    0.5250    1.8713    0.9042 H   0  0  0  0  0  0  0  0  0  0  0  0
   -0.9875    1.9710   -0.0298 H   0  0  0  0  0  0  0  0  0  0  0  0
    0.0000    0.0000    0.0000 C   0  0  0  0  0  0  0  0  0  0  0  0
   -1.0967   -0.6001   -0.0000 O   0  0  0  0  0  0  0  0  0  0  0  0
    1.0967   -0.5993   -0.0000 O   0  0  0  0  0  0  0  0  0  0  0  0
    4.2581    1.1724   -1.0660 C   0  0  0  0  0  0  0  0  0  0  0  0
    4.1859    1.8363   -1.9401 H   0  0  0  0  0  0  0  0  0  0  0  0
    5.2247    1.3579   -0.5977 H   0  0  0  0  0  0  0  0  0  0  0  0
    3.4348    1.4134   -0.3936 H   0  0  0  0  0  0  0  0  0  0  0  0
    4.1489   -0.2826   -1.5507 C   0  0  0  0  0  0  0  0  0  0  0  0
    4.8936   -0.4567   -2.3409 H   0  0  0  0  0  0  0  0  0  0  0  0
    4.3971   -0.9597   -0.7202 H   0  0  0  0  0  0  0  0  0  0  0  0
    2.7625   -0.6310   -2.0830 C   0  0  0  0  0  0  0  0  0  0  0  0
    2.0078   -0.1146   -1.4720 H   0  0  0  0  0  0  0  0  0  0  0  0
    2.6175   -0.2546   -3.0956 H   0  0  0  0  0  0  0  0  0  0  0  0
    2.5604   -1.6963   -1.9712 H   0  0  0  0  0  0  0  0  0  0  0  0
  1  5  1  0
  5  6  2  0
  5  7  1  0
  1  2  1  0
  1  3  1  0
  1  4  1  0
  8 12  1  0
 12 15  1  0
  8  9  1  0
  8 10  1  0
  8 11  1  0
 12 13  1  0
 12 14  1  0
 15 16  1  0
 15 17  1  0
 15 18  1  0
M  CHG  1   7  -1
V    7 [O&-]
M  END
>  <PDB_ID>  (2313) 
pdb3pr3

>  <RESIDUE_NAME>  (2313) 
GLU   LEU

>  <FRAG_NAME>  (2313) 
ACET   PRPA

>  <FRAG_ATOM_NUM>  (2313) 
fragi: 7 fragj: 11

>  <atom.prop.CHAIN_ID>  (2313) 
A A A A A A A Z Z Z Z Z Z Z Z Z Z Z

>  <atom.prop.IS_HEAVY_ATOM>  (2313) 
1 0 0 0 1 1 1 1 0 0 0 1 0 0 1 0 0 0

>  <DIFUSE_FUNC_ATOM>  (2313) 
n/a

>  <FINAL_SINGLE_POINT_ENERGY>  (2313) 
0

>  <NONCOV_INTER_ENERGY_QM>  (2313) 
0

>  <FF_Energy>  (2313) 
30.78

>  <QM_Energy>  (2313) 
2.24

>  <source>  (2313) 
ACET_PRPA_30

>  <Index>  (2313) 
1689

$$$$
ACEH-pdb3pr3-B-GLH-516:PRPA-pdb3pr3-B-LEU-512
     RDKit          3D

 18 16  0  0  0  0  0  0  0  0999 V2000
    0.0039    1.5191    0.0020 C   0  0  0  0  0  0  0  0  0  0  0  0
    0.5832    1.8741   -0.8630 H   0  0  0  0  0  0  0  0  0  0  0  0
    0.5250    1.8713    0.9042 H   0  0  0  0  0  0  0  0  0  0  0  0
   -0.9875    1.9710   -0.0298 H   0  0  0  0  0  0  0  0  0  0  0  0
    0.0000    0.0000    0.0000 C   0  0  0  0  0  0  0  0  0  0  0  0
   -1.0967   -0.6001   -0.0000 O   0  0  0  0  0  0  0  0  0  0  0  0
    1.0967   -0.5993   -0.0000 O   0  0  0  0  0  0  0  0  0  0  0  0
    4.1489   -0.2826   -1.5507 C   0  0  0  0  0  0  0  0  0  0  0  0
    4.8936   -0.4567   -2.3409 H   0  0  0  0  0  0  0  0  0  0  0  0
    4.3971   -0.9597   -0.7202 H   0  0  0  0  0  0  0  0  0  0  0  0
    4.2263    0.7489   -1.2071 H   0  0  0  0  0  0  0  0  0  0  0  0
    2.7625   -0.6310   -2.0830 C   0  0  0  0  0  0  0  0  0  0  0  0
    2.0078   -0.1146   -1.4720 H   0  0  0  0  0  0  0  0  0  0  0  0
    2.5604   -1.6963   -1.9712 H   0  0  0  0  0  0  0  0  0  0  0  0
    2.5585   -0.1016   -3.5074 C   0  0  0  0  0  0  0  0  0  0  0  0
    1.5511   -0.3705   -3.8581 H   0  0  0  0  0  0  0  0  0  0  0  0
    2.6675    0.9926   -3.5119 H   0  0  0  0  0  0  0  0  0  0  0  0
    3.3103   -0.5468   -4.1755 H   0  0  0  0  0  0  0  0  0  0  0  0
  1  5  1  0
  5  6  2  0
  5  7  1  0
  1  2  1  0
  1  3  1  0
  1  4  1  0
  8 12  1  0
 12 15  1  0
  8  9  1  0
  8 10  1  0
  8 11  1  0
 12 13  1  0
 12 14  1  0
 15 16  1  0
 15 17  1  0
 15 18  1  0
M  CHG  1   7  -1
V    7 [O&-]
M  END
>  <PDB_ID>  (2314) 
pdb3pr3

>  <RESIDUE_NAME>  (2314) 
GLU   LEU

>  <FRAG_NAME>  (2314) 
ACET   PRPA

>  <FRAG_ATOM_NUM>  (2314) 
fragi: 7 fragj: 11

>  <atom.prop.CHAIN_ID>  (2314) 
A A A A A A A Z Z Z Z Z Z Z Z Z Z Z

>  <atom.prop.IS_HEAVY_ATOM>  (2314) 
1 0 0 0 1 1 1 1 0 0 0 1 0 0 1 0 0 0

>  <DIFUSE_FUNC_ATOM>  (2314) 
n/a

>  <FINAL_SINGLE_POINT_ENERGY>  (2314) 
0

>  <NONCOV_INTER_ENERGY_QM>  (2314) 
0

>  <FF_Energy>  (2314) 
34.6

>  <QM_Energy>  (2314) 
2.91

>  <source>  (2314) 
ACET_PRPA_30

>  <Index>  (2314) 
1717

$$$$
ACEH-pdb3pr3-B-GLH-516:PRPA-pdb3pr3-B-LEU-512
     RDKit          3D

 18 16  0  0  0  0  0  0  0  0999 V2000
    0.0039    1.5191    0.0020 C   0  0  0  0  0  0  0  0  0  0  0  0
    0.5832    1.8741   -0.8630 H   0  0  0  0  0  0  0  0  0  0  0  0
    0.5250    1.8713    0.9042 H   0  0  0  0  0  0  0  0  0  0  0  0
   -0.9875    1.9710   -0.0298 H   0  0  0  0  0  0  0  0  0  0  0  0
    0.0000    0.0000    0.0000 C   0  0  0  0  0  0  0  0  0  0  0  0
   -1.0967   -0.6001   -0.0000 O   0  0  0  0  0  0  0  0  0  0  0  0
    1.0967   -0.5993   -0.0000 O   0  0  0  0  0  0  0  0  0  0  0  0
    4.1489   -0.2826   -1.5507 C   0  0  0  0  0  0  0  0  0  0  0  0
    4.8936   -0.4567   -2.3409 H   0  0  0  0  0  0  0  0  0  0  0  0
    4.3971   -0.9597   -0.7202 H   0  0  0  0  0  0  0  0  0  0  0  0
    4.2263    0.7489   -1.2071 H   0  0  0  0  0  0  0  0  0  0  0  0
    2.7625   -0.6310   -2.0830 C   0  0  0  0  0  0  0  0  0  0  0  0
    2.0078   -0.1146   -1.4720 H   0  0  0  0  0  0  0  0  0  0  0  0
    2.6175   -0.2546   -3.0956 H   0  0  0  0  0  0  0  0  0  0  0  0
    2.4907   -2.0638   -1.9326 C   0  0  0  0  0  0  0  0  0  0  0  0
    1.4867   -2.2901   -2.3226 H   0  0  0  0  0  0  0  0  0  0  0  0
    3.2402   -2.6409   -2.4934 H   0  0  0  0  0  0  0  0  0  0  0  0
    2.5400   -2.3371   -0.8677 H   0  0  0  0  0  0  0  0  0  0  0  0
  1  5  1  0
  5  6  2  0
  5  7  1  0
  1  2  1  0
  1  3  1  0
  1  4  1  0
  8 12  1  0
 12 15  1  0
  8  9  1  0
  8 10  1  0
  8 11  1  0
 12 13  1  0
 12 14  1  0
 15 16  1  0
 15 17  1  0
 15 18  1  0
M  CHG  1   7  -1
V    7 [O&-]
M  END
>  <PDB_ID>  (2315) 
pdb3pr3

>  <RESIDUE_NAME>  (2315) 
GLU   LEU

>  <FRAG_NAME>  (2315) 
ACET   PRPA

>  <FRAG_ATOM_NUM>  (2315) 
fragi: 7 fragj: 11

>  <atom.prop.CHAIN_ID>  (2315) 
A A A A A A A Z Z Z Z Z Z Z Z Z Z Z

>  <atom.prop.IS_HEAVY_ATOM>  (2315) 
1 0 0 0 1 1 1 1 0 0 0 1 0 0 1 0 0 0

>  <DIFUSE_FUNC_ATOM>  (2315) 
n/a

>  <FINAL_SINGLE_POINT_ENERGY>  (2315) 
0

>  <NONCOV_INTER_ENERGY_QM>  (2315) 
0

>  <FF_Energy>  (2315) 
38.41

>  <QM_Energy>  (2315) 
1.49

>  <source>  (2315) 
ACET_PRPA_30

>  <Index>  (2315) 
1747

$$$$
ACEH-pdb3pr3-B-GLH-516:PRPA-pdb3pr3-B-LEU-512
     RDKit          3D

 18 16  0  0  0  0  0  0  0  0999 V2000
    0.0039    1.5191    0.0020 C   0  0  0  0  0  0  0  0  0  0  0  0
    0.5832    1.8741   -0.8630 H   0  0  0  0  0  0  0  0  0  0  0  0
    0.5250    1.8713    0.9042 H   0  0  0  0  0  0  0  0  0  0  0  0
   -0.9875    1.9710   -0.0298 H   0  0  0  0  0  0  0  0  0  0  0  0
    0.0000    0.0000    0.0000 C   0  0  0  0  0  0  0  0  0  0  0  0
   -1.0967   -0.6001   -0.0000 O   0  0  0  0  0  0  0  0  0  0  0  0
    1.0967   -0.5993   -0.0000 O   0  0  0  0  0  0  0  0  0  0  0  0
    2.5585   -0.1016   -3.5074 C   0  0  0  0  0  0  0  0  0  0  0  0
    1.5511   -0.3705   -3.8581 H   0  0  0  0  0  0  0  0  0  0  0  0
    2.6675    0.9926   -3.5119 H   0  0  0  0  0  0  0  0  0  0  0  0
    3.3103   -0.5468   -4.1755 H   0  0  0  0  0  0  0  0  0  0  0  0
    2.7625   -0.6310   -2.0830 C   0  0  0  0  0  0  0  0  0  0  0  0
    2.0078   -0.1146   -1.4720 H   0  0  0  0  0  0  0  0  0  0  0  0
    3.7531   -0.3821   -1.7027 H   0  0  0  0  0  0  0  0  0  0  0  0
    2.4907   -2.0638   -1.9326 C   0  0  0  0  0  0  0  0  0  0  0  0
    1.4867   -2.2901   -2.3226 H   0  0  0  0  0  0  0  0  0  0  0  0
    3.2402   -2.6409   -2.4934 H   0  0  0  0  0  0  0  0  0  0  0  0
    2.5400   -2.3371   -0.8677 H   0  0  0  0  0  0  0  0  0  0  0  0
  1  5  1  0
  5  6  2  0
  5  7  1  0
  1  2  1  0
  1  3  1  0
  1  4  1  0
  8 12  1  0
 12 15  1  0
  8  9  1  0
  8 10  1  0
  8 11  1  0
 12 13  1  0
 12 14  1  0
 15 16  1  0
 15 17  1  0
 15 18  1  0
M  CHG  1   7  -1
V    7 [O&-]
M  END
>  <PDB_ID>  (2316) 
pdb3pr3

>  <RESIDUE_NAME>  (2316) 
GLU   LEU

>  <FRAG_NAME>  (2316) 
ACET   PRPA

>  <FRAG_ATOM_NUM>  (2316) 
fragi: 7 fragj: 11

>  <atom.prop.CHAIN_ID>  (2316) 
A A A A A A A Z Z Z Z Z Z Z Z Z Z Z

>  <atom.prop.IS_HEAVY_ATOM>  (2316) 
1 0 0 0 1 1 1 1 0 0 0 1 0 0 1 0 0 0

>  <DIFUSE_FUNC_ATOM>  (2316) 
n/a

>  <FINAL_SINGLE_POINT_ENERGY>  (2316) 
0

>  <NONCOV_INTER_ENERGY_QM>  (2316) 
0

>  <FF_Energy>  (2316) 
37.72

>  <QM_Energy>  (2316) 
2.07

>  <source>  (2316) 
ACET_PRPA_30

>  <Index>  (2316) 
1782

$$$$
ACEH-pdb2yz7-D-GLH-172:PRPA-pdb2yz7-D-VAL-168
     RDKit          3D

 18 16  0  0  0  0  0  0  0  0999 V2000
   -0.0103    1.5270    0.0254 C   0  0  0  0  0  0  0  0  0  0  0  0
    0.0120    1.8099    0.9663 H   0  0  0  0  0  0  0  0  0  0  0  0
   -0.8250    1.8281   -0.4356 H   0  0  0  0  0  0  0  0  0  0  0  0
    0.8442    1.9797   -0.4776 H   0  0  0  0  0  0  0  0  0  0  0  0
    0.0000    0.0000    0.0000 C   0  0  0  0  0  0  0  0  0  0  0  0
   -1.0965   -0.5984   -0.0000 O   0  0  0  0  0  0  0  0  0  0  0  0
    1.0965   -0.6030    0.0000 O   0  0  0  0  0  0  0  0  0  0  0  0
   -3.5900    1.0891   -3.2065 C   0  0  0  0  0  0  0  0  0  0  0  0
   -3.8648    1.8730   -2.6543 H   0  0  0  0  0  0  0  0  0  0  0  0
   -4.1292    1.1323   -4.1528 H   0  0  0  0  0  0  0  0  0  0  0  0
   -2.5231    1.1757   -3.4125 H   0  0  0  0  0  0  0  0  0  0  0  0
   -3.8179   -0.2237   -2.4428 C   0  0  0  0  0  0  0  0  0  0  0  0
   -3.3530   -0.9452   -2.9322 H   0  0  0  0  0  0  0  0  0  0  0  0
   -4.8825   -0.4291   -2.3304 H   0  0  0  0  0  0  0  0  0  0  0  0
   -3.1525   -0.1154   -1.0746 C   0  0  0  0  0  0  0  0  0  0  0  0
   -2.3523    0.4800   -1.1408 H   0  0  0  0  0  0  0  0  0  0  0  0
   -3.8015    0.2692   -0.4186 H   0  0  0  0  0  0  0  0  0  0  0  0
   -2.8683   -1.0239   -0.7707 H   0  0  0  0  0  0  0  0  0  0  0  0
  1  5  1  0
  5  6  2  0
  5  7  1  0
  1  2  1  0
  1  3  1  0
  1  4  1  0
  8 12  1  0
 12 15  1  0
  8  9  1  0
  8 10  1  0
  8 11  1  0
 12 13  1  0
 12 14  1  0
 15 16  1  0
 15 17  1  0
 15 18  1  0
M  CHG  1   7  -1
V    7 [O&-]
M  END
>  <PDB_ID>  (2317) 
pdb2yz7

>  <RESIDUE_NAME>  (2317) 
GLU   VAL

>  <FRAG_NAME>  (2317) 
ACET   PRPA

>  <FRAG_ATOM_NUM>  (2317) 
fragi: 7 fragj: 11

>  <atom.prop.CHAIN_ID>  (2317) 
A A A A A A A Z Z Z Z Z Z Z Z Z Z Z

>  <atom.prop.IS_HEAVY_ATOM>  (2317) 
1 0 0 0 1 1 1 1 0 0 0 1 0 0 1 0 0 0

>  <DIFUSE_FUNC_ATOM>  (2317) 
n/a

>  <FINAL_SINGLE_POINT_ENERGY>  (2317) 
0

>  <NONCOV_INTER_ENERGY_QM>  (2317) 
0

>  <FF_Energy>  (2317) 
34.43

>  <QM_Energy>  (2317) 
11.1

>  <source>  (2317) 
ACET_PRPA_30

>  <Index>  (2317) 
2045

$$$$
ACEH-pdb2yz7-D-GLH-172:PRPA-pdb2yz7-D-VAL-168
     RDKit          3D

 18 16  0  0  0  0  0  0  0  0999 V2000
   -0.0103    1.5270    0.0254 C   0  0  0  0  0  0  0  0  0  0  0  0
    0.0120    1.8099    0.9663 H   0  0  0  0  0  0  0  0  0  0  0  0
   -0.8250    1.8281   -0.4356 H   0  0  0  0  0  0  0  0  0  0  0  0
    0.8442    1.9797   -0.4776 H   0  0  0  0  0  0  0  0  0  0  0  0
    0.0000    0.0000    0.0000 C   0  0  0  0  0  0  0  0  0  0  0  0
   -1.0965   -0.5984   -0.0000 O   0  0  0  0  0  0  0  0  0  0  0  0
    1.0965   -0.6030    0.0000 O   0  0  0  0  0  0  0  0  0  0  0  0
   -3.1525   -0.1154   -1.0746 C   0  0  0  0  0  0  0  0  0  0  0  0
   -2.3523    0.4800   -1.1408 H   0  0  0  0  0  0  0  0  0  0  0  0
   -3.8015    0.2692   -0.4186 H   0  0  0  0  0  0  0  0  0  0  0  0
   -2.8683   -1.0239   -0.7707 H   0  0  0  0  0  0  0  0  0  0  0  0
   -3.8179   -0.2237   -2.4428 C   0  0  0  0  0  0  0  0  0  0  0  0
   -3.3530   -0.9452   -2.9322 H   0  0  0  0  0  0  0  0  0  0  0  0
   -3.6562    0.7081   -2.9848 H   0  0  0  0  0  0  0  0  0  0  0  0
   -5.2978   -0.5091   -2.2866 C   0  0  0  0  0  0  0  0  0  0  0  0
   -5.6212   -0.1263   -1.4202 H   0  0  0  0  0  0  0  0  0  0  0  0
   -5.8001   -0.0907   -3.0452 H   0  0  0  0  0  0  0  0  0  0  0  0
   -5.4492   -1.4985   -2.2916 H   0  0  0  0  0  0  0  0  0  0  0  0
  1  5  1  0
  5  6  2  0
  5  7  1  0
  1  2  1  0
  1  3  1  0
  1  4  1  0
  8 12  1  0
 12 15  1  0
  8  9  1  0
  8 10  1  0
  8 11  1  0
 12 13  1  0
 12 14  1  0
 15 16  1  0
 15 17  1  0
 15 18  1  0
M  CHG  1   7  -1
V    7 [O&-]
M  END
>  <PDB_ID>  (2318) 
pdb2yz7

>  <RESIDUE_NAME>  (2318) 
GLU   VAL

>  <FRAG_NAME>  (2318) 
ACET   PRPA

>  <FRAG_ATOM_NUM>  (2318) 
fragi: 7 fragj: 11

>  <atom.prop.CHAIN_ID>  (2318) 
A A A A A A A Z Z Z Z Z Z Z Z Z Z Z

>  <atom.prop.IS_HEAVY_ATOM>  (2318) 
1 0 0 0 1 1 1 1 0 0 0 1 0 0 1 0 0 0

>  <DIFUSE_FUNC_ATOM>  (2318) 
n/a

>  <FINAL_SINGLE_POINT_ENERGY>  (2318) 
0

>  <NONCOV_INTER_ENERGY_QM>  (2318) 
0

>  <FF_Energy>  (2318) 
34.37

>  <QM_Energy>  (2318) 
12.0

>  <source>  (2318) 
ACET_PRPA_30

>  <Index>  (2318) 
2158

$$$$
ACEH-pdb1rx0-D-GLH-376:PRPA-pdb1rx0-D-ILE-258
     RDKit          3D

 18 16  0  0  0  0  0  0  0  0999 V2000
   -0.0084    1.5225   -0.0109 C   0  0  0  0  0  0  0  0  0  0  0  0
   -0.4704    1.8213    0.8041 H   0  0  0  0  0  0  0  0  0  0  0  0
   -0.4761    1.8086   -0.8282 H   0  0  0  0  0  0  0  0  0  0  0  0
    0.9907    1.9584   -0.0162 H   0  0  0  0  0  0  0  0  0  0  0  0
    0.0000    0.0000    0.0000 C   0  0  0  0  0  0  0  0  0  0  0  0
   -1.0981   -0.6000    0.0000 O   0  0  0  0  0  0  0  0  0  0  0  0
    1.0981   -0.5961    0.0000 O   0  0  0  0  0  0  0  0  0  0  0  0
   -1.1003    0.9256   -2.9937 C   0  0  0  0  0  0  0  0  0  0  0  0
   -0.7741   -0.0188   -3.0277 H   0  0  0  0  0  0  0  0  0  0  0  0
   -0.6781    1.3770   -2.2064 H   0  0  0  0  0  0  0  0  0  0  0  0
   -2.1811    0.9203   -2.8526 H   0  0  0  0  0  0  0  0  0  0  0  0
   -0.6369    1.6438   -4.2618 C   0  0  0  0  0  0  0  0  0  0  0  0
    0.3537    1.6217   -4.2836 H   0  0  0  0  0  0  0  0  0  0  0  0
   -1.0061    1.1137   -5.1397 H   0  0  0  0  0  0  0  0  0  0  0  0
   -1.1365    3.0852   -4.2753 C   0  0  0  0  0  0  0  0  0  0  0  0
   -0.7769    3.5690   -3.4799 H   0  0  0  0  0  0  0  0  0  0  0  0
   -0.8243    3.5362   -5.1088 H   0  0  0  0  0  0  0  0  0  0  0  0
   -2.1338    3.0907   -4.2462 H   0  0  0  0  0  0  0  0  0  0  0  0
  1  5  1  0
  5  6  2  0
  5  7  1  0
  1  2  1  0
  1  3  1  0
  1  4  1  0
  8 12  1  0
 12 15  1  0
  8  9  1  0
  8 10  1  0
  8 11  1  0
 12 13  1  0
 12 14  1  0
 15 16  1  0
 15 17  1  0
 15 18  1  0
M  CHG  1   7  -1
V    7 [O&-]
M  END
>  <PDB_ID>  (2319) 
pdb1rx0

>  <RESIDUE_NAME>  (2319) 
GLU   ILE

>  <FRAG_NAME>  (2319) 
ACET   PRPA

>  <FRAG_ATOM_NUM>  (2319) 
fragi: 7 fragj: 11

>  <atom.prop.CHAIN_ID>  (2319) 
A A A A A A A Z Z Z Z Z Z Z Z Z Z Z

>  <atom.prop.IS_HEAVY_ATOM>  (2319) 
1 0 0 0 1 1 1 1 0 0 0 1 0 0 1 0 0 0

>  <DIFUSE_FUNC_ATOM>  (2319) 
n/a

>  <FINAL_SINGLE_POINT_ENERGY>  (2319) 
0

>  <NONCOV_INTER_ENERGY_QM>  (2319) 
0

>  <FF_Energy>  (2319) 
39.04

>  <QM_Energy>  (2319) 
3.82

>  <source>  (2319) 
ACET_PRPA_30

>  <Index>  (2319) 
3071

$$$$
ACEH-pdb2zad-A-GLH-327:PRPA-pdb2zad-A-LEU-324
     RDKit          3D

 18 16  0  0  0  0  0  0  0  0999 V2000
   -0.1759    1.4859   -0.0131 C   0  0  0  0  0  0  0  0  0  0  0  0
   -0.6945    1.7406    0.8045 H   0  0  0  0  0  0  0  0  0  0  0  0
   -0.7065    1.7231   -0.8273 H   0  0  0  0  0  0  0  0  0  0  0  0
    0.7345    2.0851   -0.0248 H   0  0  0  0  0  0  0  0  0  0  0  0
    0.0000    0.0000    0.0000 C   0  0  0  0  0  0  0  0  0  0  0  0
   -1.0893   -0.6086    0.0000 O   0  0  0  0  0  0  0  0  0  0  0  0
    1.0893   -0.5565   -0.0000 O   0  0  0  0  0  0  0  0  0  0  0  0
   -3.5769    0.9881   -2.7867 C   0  0  0  0  0  0  0  0  0  0  0  0
   -4.3024    0.3768   -2.4250 H   0  0  0  0  0  0  0  0  0  0  0  0
   -3.5420    0.8782   -3.8706 H   0  0  0  0  0  0  0  0  0  0  0  0
   -3.7990    2.0071   -2.4697 H   0  0  0  0  0  0  0  0  0  0  0  0
   -2.2725    0.5079   -2.1492 C   0  0  0  0  0  0  0  0  0  0  0  0
   -1.6604    1.2931   -2.0705 H   0  0  0  0  0  0  0  0  0  0  0  0
   -2.4852    0.1521   -1.2419 H   0  0  0  0  0  0  0  0  0  0  0  0
   -1.4981   -0.5928   -2.8969 C   0  0  0  0  0  0  0  0  0  0  0  0
   -1.2660   -0.2596   -3.8099 H   0  0  0  0  0  0  0  0  0  0  0  0
   -0.5841   -0.8527   -2.3629 H   0  0  0  0  0  0  0  0  0  0  0  0
   -2.1003   -1.4808   -3.0888 H   0  0  0  0  0  0  0  0  0  0  0  0
  1  5  1  0
  5  6  2  0
  5  7  1  0
  1  2  1  0
  1  3  1  0
  1  4  1  0
  8 12  1  0
 12 15  1  0
  8  9  1  0
  8 10  1  0
  8 11  1  0
 12 13  1  0
 12 14  1  0
 15 16  1  0
 15 17  1  0
 15 18  1  0
M  CHG  1   7  -1
V    7 [O&-]
M  END
>  <PDB_ID>  (2320) 
pdb2zad

>  <RESIDUE_NAME>  (2320) 
GLU   LEU

>  <FRAG_NAME>  (2320) 
ACET   PRPA

>  <FRAG_ATOM_NUM>  (2320) 
fragi: 7 fragj: 11

>  <atom.prop.CHAIN_ID>  (2320) 
A A A A A A A Z Z Z Z Z Z Z Z Z Z Z

>  <atom.prop.IS_HEAVY_ATOM>  (2320) 
1 0 0 0 1 1 1 1 0 0 0 1 0 0 1 0 0 0

>  <DIFUSE_FUNC_ATOM>  (2320) 
n/a

>  <FINAL_SINGLE_POINT_ENERGY>  (2320) 
0

>  <NONCOV_INTER_ENERGY_QM>  (2320) 
0

>  <FF_Energy>  (2320) 
25.71

>  <QM_Energy>  (2320) 
4.19

>  <source>  (2320) 
ACET_PRPA_30

>  <Index>  (2320) 
3264

$$$$
ACEH-pdb2zad-A-GLH-327:PRPA-pdb2zad-A-LEU-324
     RDKit          3D

 18 16  0  0  0  0  0  0  0  0999 V2000
   -0.1759    1.4859   -0.0131 C   0  0  0  0  0  0  0  0  0  0  0  0
   -0.6945    1.7406    0.8045 H   0  0  0  0  0  0  0  0  0  0  0  0
   -0.7065    1.7231   -0.8273 H   0  0  0  0  0  0  0  0  0  0  0  0
    0.7345    2.0851   -0.0248 H   0  0  0  0  0  0  0  0  0  0  0  0
    0.0000    0.0000    0.0000 C   0  0  0  0  0  0  0  0  0  0  0  0
   -1.0893   -0.6086    0.0000 O   0  0  0  0  0  0  0  0  0  0  0  0
    1.0893   -0.5565   -0.0000 O   0  0  0  0  0  0  0  0  0  0  0  0
   -2.2725    0.5079   -2.1492 C   0  0  0  0  0  0  0  0  0  0  0  0
   -1.6604    1.2931   -2.0705 H   0  0  0  0  0  0  0  0  0  0  0  0
   -2.4852    0.1521   -1.2419 H   0  0  0  0  0  0  0  0  0  0  0  0
   -3.2023    0.8501   -2.6036 H   0  0  0  0  0  0  0  0  0  0  0  0
   -1.4981   -0.5928   -2.8969 C   0  0  0  0  0  0  0  0  0  0  0  0
   -1.2660   -0.2596   -3.8099 H   0  0  0  0  0  0  0  0  0  0  0  0
   -0.5841   -0.8527   -2.3629 H   0  0  0  0  0  0  0  0  0  0  0  0
   -2.3419   -1.8370   -3.1657 C   0  0  0  0  0  0  0  0  0  0  0  0
   -3.1324   -1.5877   -3.7244 H   0  0  0  0  0  0  0  0  0  0  0  0
   -1.7893   -2.5141   -3.6513 H   0  0  0  0  0  0  0  0  0  0  0  0
   -2.6530   -2.2211   -2.2963 H   0  0  0  0  0  0  0  0  0  0  0  0
  1  5  1  0
  5  6  2  0
  5  7  1  0
  1  2  1  0
  1  3  1  0
  1  4  1  0
  8 12  1  0
 12 15  1  0
  8  9  1  0
  8 10  1  0
  8 11  1  0
 12 13  1  0
 12 14  1  0
 15 16  1  0
 15 17  1  0
 15 18  1  0
M  CHG  1   7  -1
V    7 [O&-]
M  END
>  <PDB_ID>  (2321) 
pdb2zad

>  <RESIDUE_NAME>  (2321) 
GLU   LEU

>  <FRAG_NAME>  (2321) 
ACET   PRPA

>  <FRAG_ATOM_NUM>  (2321) 
fragi: 7 fragj: 11

>  <atom.prop.CHAIN_ID>  (2321) 
A A A A A A A Z Z Z Z Z Z Z Z Z Z Z

>  <atom.prop.IS_HEAVY_ATOM>  (2321) 
1 0 0 0 1 1 1 1 0 0 0 1 0 0 1 0 0 0

>  <DIFUSE_FUNC_ATOM>  (2321) 
n/a

>  <FINAL_SINGLE_POINT_ENERGY>  (2321) 
0

>  <NONCOV_INTER_ENERGY_QM>  (2321) 
0

>  <FF_Energy>  (2321) 
25.1

>  <QM_Energy>  (2321) 
3.52

>  <source>  (2321) 
ACET_PRPA_30

>  <Index>  (2321) 
3312

$$$$
ACEH-pdb3pw3-E-GLH-274:PRPA-pdb3pw3-E-LYS-383
     RDKit          3D

 18 16  0  0  0  0  0  0  0  0999 V2000
    0.1778    1.4853    0.0149 C   0  0  0  0  0  0  0  0  0  0  0  0
    0.6968    1.7388   -0.8017 H   0  0  0  0  0  0  0  0  0  0  0  0
    0.7083    1.7205    0.8304 H   0  0  0  0  0  0  0  0  0  0  0  0
   -0.7329    2.0841    0.0273 H   0  0  0  0  0  0  0  0  0  0  0  0
    0.0000    0.0000    0.0000 C   0  0  0  0  0  0  0  0  0  0  0  0
   -1.0893   -0.5571    0.0000 O   0  0  0  0  0  0  0  0  0  0  0  0
    1.0893   -0.6101   -0.0000 O   0  0  0  0  0  0  0  0  0  0  0  0
    2.4336   -4.5143   -1.4821 C   0  0  0  0  0  0  0  0  0  0  0  0
    2.5353   -4.0404   -2.3887 H   0  0  0  0  0  0  0  0  0  0  0  0
    1.6983   -5.3120   -1.5876 H   0  0  0  0  0  0  0  0  0  0  0  0
    3.4273   -4.8154   -1.1504 H   0  0  0  0  0  0  0  0  0  0  0  0
    1.8606   -3.4433   -0.5583 C   0  0  0  0  0  0  0  0  0  0  0  0
    1.5104   -3.8827    0.2566 H   0  0  0  0  0  0  0  0  0  0  0  0
    2.5801   -2.8009   -0.3356 H   0  0  0  0  0  0  0  0  0  0  0  0
    0.7139   -2.6679   -1.2120 C   0  0  0  0  0  0  0  0  0  0  0  0
    0.1274   -3.3061   -1.7027 H   0  0  0  0  0  0  0  0  0  0  0  0
    0.1925   -2.1983   -0.5057 H   0  0  0  0  0  0  0  0  0  0  0  0
    1.0899   -1.9273   -1.9177 H   0  0  0  0  0  0  0  0  0  0  0  0
  1  5  1  0
  5  6  2  0
  5  7  1  0
  1  2  1  0
  1  3  1  0
  1  4  1  0
  8 12  1  0
 12 15  1  0
  8  9  1  0
  8 10  1  0
  8 11  1  0
 12 13  1  0
 12 14  1  0
 15 16  1  0
 15 17  1  0
 15 18  1  0
M  CHG  1   7  -1
V    7 [O&-]
M  END
>  <PDB_ID>  (2322) 
pdb3pw3

>  <RESIDUE_NAME>  (2322) 
GLU   LYS

>  <FRAG_NAME>  (2322) 
ACET   PRPA

>  <FRAG_ATOM_NUM>  (2322) 
fragi: 7 fragj: 11

>  <atom.prop.CHAIN_ID>  (2322) 
A A A A A A A Z Z Z Z Z Z Z Z Z Z Z

>  <atom.prop.IS_HEAVY_ATOM>  (2322) 
1 0 0 0 1 1 1 1 0 0 0 1 0 0 1 0 0 0

>  <DIFUSE_FUNC_ATOM>  (2322) 
n/a

>  <FINAL_SINGLE_POINT_ENERGY>  (2322) 
0

>  <NONCOV_INTER_ENERGY_QM>  (2322) 
0

>  <FF_Energy>  (2322) 
38.63

>  <QM_Energy>  (2322) 
8.5

>  <source>  (2322) 
ACET_PRPA_30

>  <Index>  (2322) 
3433

$$$$
ACEH-pdb2yz7-H-GLH-172:PRPA-pdb2yz7-H-VAL-168
     RDKit          3D

 18 16  0  0  0  0  0  0  0  0999 V2000
    0.0040    1.5003   -0.0151 C   0  0  0  0  0  0  0  0  0  0  0  0
   -0.2463    1.7949   -0.9200 H   0  0  0  0  0  0  0  0  0  0  0  0
    0.9065    1.8032    0.2354 H   0  0  0  0  0  0  0  0  0  0  0  0
   -0.7083    1.9266    0.6914 H   0  0  0  0  0  0  0  0  0  0  0  0
    0.0000    0.0000    0.0000 C   0  0  0  0  0  0  0  0  0  0  0  0
   -1.1003   -0.5928   -0.0000 O   0  0  0  0  0  0  0  0  0  0  0  0
    1.1003   -0.5889   -0.0000 O   0  0  0  0  0  0  0  0  0  0  0  0
    4.2182    0.7488    2.6871 C   0  0  0  0  0  0  0  0  0  0  0  0
    4.4814    1.4748    2.0487 H   0  0  0  0  0  0  0  0  0  0  0  0
    4.8804    0.8031    3.5512 H   0  0  0  0  0  0  0  0  0  0  0  0
    3.1876    0.9256    2.9948 H   0  0  0  0  0  0  0  0  0  0  0  0
    4.2926   -0.6328    1.9767 C   0  0  0  0  0  0  0  0  0  0  0  0
    3.8680   -1.2963    2.5780 H   0  0  0  0  0  0  0  0  0  0  0  0
    5.3277   -0.8888    1.7506 H   0  0  0  0  0  0  0  0  0  0  0  0
    3.4774   -0.5928    0.6962 C   0  0  0  0  0  0  0  0  0  0  0  0
    2.5840   -1.0138    0.8543 H   0  0  0  0  0  0  0  0  0  0  0  0
    3.3507    0.3566    0.4087 H   0  0  0  0  0  0  0  0  0  0  0  0
    3.9573   -1.0955   -0.0236 H   0  0  0  0  0  0  0  0  0  0  0  0
  1  5  1  0
  5  6  2  0
  5  7  1  0
  1  2  1  0
  1  3  1  0
  1  4  1  0
  8 12  1  0
 12 15  1  0
  8  9  1  0
  8 10  1  0
  8 11  1  0
 12 13  1  0
 12 14  1  0
 15 16  1  0
 15 17  1  0
 15 18  1  0
M  CHG  1   7  -1
V    7 [O&-]
M  END
>  <PDB_ID>  (2323) 
pdb2yz7

>  <RESIDUE_NAME>  (2323) 
GLU   VAL

>  <FRAG_NAME>  (2323) 
ACET   PRPA

>  <FRAG_ATOM_NUM>  (2323) 
fragi: 7 fragj: 11

>  <atom.prop.CHAIN_ID>  (2323) 
A A A A A A A Z Z Z Z Z Z Z Z Z Z Z

>  <atom.prop.IS_HEAVY_ATOM>  (2323) 
1 0 0 0 1 1 1 1 0 0 0 1 0 0 1 0 0 0

>  <DIFUSE_FUNC_ATOM>  (2323) 
n/a

>  <FINAL_SINGLE_POINT_ENERGY>  (2323) 
0

>  <NONCOV_INTER_ENERGY_QM>  (2323) 
0

>  <FF_Energy>  (2323) 
44.14

>  <QM_Energy>  (2323) 
7.56

>  <source>  (2323) 
ACET_PRPA_30

>  <Index>  (2323) 
3886

$$$$
ACEH-pdb2yz7-H-GLH-172:PRPA-pdb2yz7-H-VAL-168
     RDKit          3D

 18 16  0  0  0  0  0  0  0  0999 V2000
    0.0040    1.5003   -0.0151 C   0  0  0  0  0  0  0  0  0  0  0  0
   -0.2463    1.7949   -0.9200 H   0  0  0  0  0  0  0  0  0  0  0  0
    0.9065    1.8032    0.2354 H   0  0  0  0  0  0  0  0  0  0  0  0
   -0.7083    1.9266    0.6914 H   0  0  0  0  0  0  0  0  0  0  0  0
    0.0000    0.0000    0.0000 C   0  0  0  0  0  0  0  0  0  0  0  0
   -1.1003   -0.5928   -0.0000 O   0  0  0  0  0  0  0  0  0  0  0  0
    1.1003   -0.5889   -0.0000 O   0  0  0  0  0  0  0  0  0  0  0  0
    3.4774   -0.5928    0.6962 C   0  0  0  0  0  0  0  0  0  0  0  0
    2.5840   -1.0138    0.8543 H   0  0  0  0  0  0  0  0  0  0  0  0
    3.3507    0.3566    0.4087 H   0  0  0  0  0  0  0  0  0  0  0  0
    3.9573   -1.0955   -0.0236 H   0  0  0  0  0  0  0  0  0  0  0  0
    4.2926   -0.6328    1.9767 C   0  0  0  0  0  0  0  0  0  0  0  0
    3.8680   -1.2963    2.5780 H   0  0  0  0  0  0  0  0  0  0  0  0
    4.2405    0.3355    2.4745 H   0  0  0  0  0  0  0  0  0  0  0  0
    5.7388   -0.9905    1.6607 C   0  0  0  0  0  0  0  0  0  0  0  0
    6.1030   -0.3356    0.9997 H   0  0  0  0  0  0  0  0  0  0  0  0
    6.2782   -0.9554    2.5014 H   0  0  0  0  0  0  0  0  0  0  0  0
    5.7739   -1.9125    1.2761 H   0  0  0  0  0  0  0  0  0  0  0  0
  1  5  1  0
  5  6  2  0
  5  7  1  0
  1  2  1  0
  1  3  1  0
  1  4  1  0
  8 12  1  0
 12 15  1  0
  8  9  1  0
  8 10  1  0
  8 11  1  0
 12 13  1  0
 12 14  1  0
 15 16  1  0
 15 17  1  0
 15 18  1  0
M  CHG  1   7  -1
V    7 [O&-]
M  END
>  <PDB_ID>  (2324) 
pdb2yz7

>  <RESIDUE_NAME>  (2324) 
GLU   VAL

>  <FRAG_NAME>  (2324) 
ACET   PRPA

>  <FRAG_ATOM_NUM>  (2324) 
fragi: 7 fragj: 11

>  <atom.prop.CHAIN_ID>  (2324) 
A A A A A A A Z Z Z Z Z Z Z Z Z Z Z

>  <atom.prop.IS_HEAVY_ATOM>  (2324) 
1 0 0 0 1 1 1 1 0 0 0 1 0 0 1 0 0 0

>  <DIFUSE_FUNC_ATOM>  (2324) 
n/a

>  <FINAL_SINGLE_POINT_ENERGY>  (2324) 
0

>  <NONCOV_INTER_ENERGY_QM>  (2324) 
0

>  <FF_Energy>  (2324) 
43.95

>  <QM_Energy>  (2324) 
8.34

>  <source>  (2324) 
ACET_PRPA_30

>  <Index>  (2324) 
3982

$$$$
ACEH-pdb1s68-A-GLH-34:PRPA-pdb1s68-A-VAL-171
     RDKit          3D

 18 16  0  0  0  0  0  0  0  0999 V2000
    0.0133    1.5220    0.0264 C   0  0  0  0  0  0  0  0  0  0  0  0
    0.8556    1.8214   -0.3918 H   0  0  0  0  0  0  0  0  0  0  0  0
   -0.0445    1.8054    0.9696 H   0  0  0  0  0  0  0  0  0  0  0  0
   -0.8107    1.9868   -0.5150 H   0  0  0  0  0  0  0  0  0  0  0  0
    0.0000    0.0000    0.0000 C   0  0  0  0  0  0  0  0  0  0  0  0
   -1.0926   -0.5962    0.0000 O   0  0  0  0  0  0  0  0  0  0  0  0
    1.0926   -0.6075   -0.0000 O   0  0  0  0  0  0  0  0  0  0  0  0
   -1.9389   -2.9236    2.9978 C   0  0  0  0  0  0  0  0  0  0  0  0
   -0.9923   -2.6286    2.8860 H   0  0  0  0  0  0  0  0  0  0  0  0
   -2.4642   -2.2078    3.4518 H   0  0  0  0  0  0  0  0  0  0  0  0
   -1.9714   -3.7614    3.5374 H   0  0  0  0  0  0  0  0  0  0  0  0
   -2.5488   -3.1934    1.6130 C   0  0  0  0  0  0  0  0  0  0  0  0
   -3.3059   -3.8181    1.7466 H   0  0  0  0  0  0  0  0  0  0  0  0
   -1.8248   -3.6929    0.9692 H   0  0  0  0  0  0  0  0  0  0  0  0
   -3.0129   -1.8835    0.9809 C   0  0  0  0  0  0  0  0  0  0  0  0
   -3.9778   -1.9621    0.7363 H   0  0  0  0  0  0  0  0  0  0  0  0
   -2.8898   -1.1406    1.6384 H   0  0  0  0  0  0  0  0  0  0  0  0
   -2.4694   -1.7042    0.1624 H   0  0  0  0  0  0  0  0  0  0  0  0
  1  5  1  0
  5  6  2  0
  5  7  1  0
  1  2  1  0
  1  3  1  0
  1  4  1  0
  8 12  1  0
 12 15  1  0
  8  9  1  0
  8 10  1  0
  8 11  1  0
 12 13  1  0
 12 14  1  0
 15 16  1  0
 15 17  1  0
 15 18  1  0
M  CHG  1   7  -1
V    7 [O&-]
M  END
>  <PDB_ID>  (2325) 
pdb1s68

>  <RESIDUE_NAME>  (2325) 
GLU   VAL

>  <FRAG_NAME>  (2325) 
ACET   PRPA

>  <FRAG_ATOM_NUM>  (2325) 
fragi: 7 fragj: 11

>  <atom.prop.CHAIN_ID>  (2325) 
A A A A A A A Z Z Z Z Z Z Z Z Z Z Z

>  <atom.prop.IS_HEAVY_ATOM>  (2325) 
1 0 0 0 1 1 1 1 0 0 0 1 0 0 1 0 0 0

>  <DIFUSE_FUNC_ATOM>  (2325) 
n/a

>  <FINAL_SINGLE_POINT_ENERGY>  (2325) 
0

>  <NONCOV_INTER_ENERGY_QM>  (2325) 
0

>  <FF_Energy>  (2325) 
40.72

>  <QM_Energy>  (2325) 
5.19

>  <source>  (2325) 
ACET_PRPA_30

>  <Index>  (2325) 
4071

$$$$
ACEH-pdb2zl2-B-ASH-80:PRPA-pdb2zl2-C-LEU-116
     RDKit          3D

 18 16  0  0  0  0  0  0  0  0999 V2000
   -0.0098    1.5215    0.0113 C   0  0  0  0  0  0  0  0  0  0  0  0
    0.5921    1.8479   -0.7062 H   0  0  0  0  0  0  0  0  0  0  0  0
    0.3000    1.8347    0.8990 H   0  0  0  0  0  0  0  0  0  0  0  0
   -1.0040    1.9317   -0.1666 H   0  0  0  0  0  0  0  0  0  0  0  0
    0.0000    0.0000    0.0000 C   0  0  0  0  0  0  0  0  0  0  0  0
   -1.1029   -0.5860    0.0000 O   0  0  0  0  0  0  0  0  0  0  0  0
    1.1029   -0.6037   -0.0000 O   0  0  0  0  0  0  0  0  0  0  0  0
    3.5238    3.2453    3.5906 C   0  0  0  0  0  0  0  0  0  0  0  0
    4.3406    3.2291    3.0110 H   0  0  0  0  0  0  0  0  0  0  0  0
    3.3004    4.1951    3.8166 H   0  0  0  0  0  0  0  0  0  0  0  0
    3.7103    2.7412    4.4363 H   0  0  0  0  0  0  0  0  0  0  0  0
    2.3645    2.6064    2.8591 C   0  0  0  0  0  0  0  0  0  0  0  0
    1.5510    2.6171    3.4386 H   0  0  0  0  0  0  0  0  0  0  0  0
    2.5991    1.5718    2.6091 H   0  0  0  0  0  0  0  0  0  0  0  0
    2.0515    3.3971    1.6062 C   0  0  0  0  0  0  0  0  0  0  0  0
    1.2638    2.9912    1.1380 H   0  0  0  0  0  0  0  0  0  0  0  0
    1.8372    4.3458    1.8494 H   0  0  0  0  0  0  0  0  0  0  0  0
    2.8430    3.3850    0.9915 H   0  0  0  0  0  0  0  0  0  0  0  0
  1  5  1  0
  5  6  2  0
  5  7  1  0
  1  2  1  0
  1  3  1  0
  1  4  1  0
  8 12  1  0
 12 15  1  0
  8  9  1  0
  8 10  1  0
  8 11  1  0
 12 13  1  0
 12 14  1  0
 15 16  1  0
 15 17  1  0
 15 18  1  0
M  CHG  1   7  -1
V    7 [O&-]
M  END
>  <PDB_ID>  (2326) 
pdb2zl2

>  <RESIDUE_NAME>  (2326) 
ASP   LEU

>  <FRAG_NAME>  (2326) 
ACET   PRPA

>  <FRAG_ATOM_NUM>  (2326) 
fragi: 7 fragj: 11

>  <atom.prop.CHAIN_ID>  (2326) 
A A A A A A A Z Z Z Z Z Z Z Z Z Z Z

>  <atom.prop.IS_HEAVY_ATOM>  (2326) 
1 0 0 0 1 1 1 1 0 0 0 1 0 0 1 0 0 0

>  <DIFUSE_FUNC_ATOM>  (2326) 
n/a

>  <FINAL_SINGLE_POINT_ENERGY>  (2326) 
0

>  <NONCOV_INTER_ENERGY_QM>  (2326) 
0

>  <FF_Energy>  (2326) 
25.52

>  <QM_Energy>  (2326) 
4.1

>  <source>  (2326) 
ACET_PRPA_30

>  <Index>  (2326) 
4581

$$$$
ACEH-pdb4r7w-B-GLH-182:PRPA-pdb4r7w-B-LYS-187
     RDKit          3D

 18 16  0  0  0  0  0  0  0  0999 V2000
   -0.0082    1.5297    0.0059 C   0  0  0  0  0  0  0  0  0  0  0  0
   -0.6148    1.8237    0.7199 H   0  0  0  0  0  0  0  0  0  0  0  0
   -0.2992    1.8308   -0.8822 H   0  0  0  0  0  0  0  0  0  0  0  0
    0.9686    1.9719    0.2016 H   0  0  0  0  0  0  0  0  0  0  0  0
    0.0000    0.0000    0.0000 C   0  0  0  0  0  0  0  0  0  0  0  0
   -1.0926   -0.5900   -0.0000 O   0  0  0  0  0  0  0  0  0  0  0  0
    1.0926   -0.6169   -0.0000 O   0  0  0  0  0  0  0  0  0  0  0  0
   -1.1997   -2.3072   -2.0978 C   0  0  0  0  0  0  0  0  0  0  0  0
   -1.9400   -2.0453   -2.7263 H   0  0  0  0  0  0  0  0  0  0  0  0
   -0.7244   -3.1073   -2.4796 H   0  0  0  0  0  0  0  0  0  0  0  0
   -0.4953   -1.4801   -2.0105 H   0  0  0  0  0  0  0  0  0  0  0  0
   -1.8183   -2.7036   -0.7604 C   0  0  0  0  0  0  0  0  0  0  0  0
   -1.0989   -2.8081   -0.0931 H   0  0  0  0  0  0  0  0  0  0  0  0
   -2.4683   -2.0122   -0.4896 H   0  0  0  0  0  0  0  0  0  0  0  0
   -2.5512   -4.0336   -0.9024 C   0  0  0  0  0  0  0  0  0  0  0  0
   -3.0844   -4.0207   -1.7602 H   0  0  0  0  0  0  0  0  0  0  0  0
   -1.8690   -4.7752   -0.9743 H   0  0  0  0  0  0  0  0  0  0  0  0
   -3.2239   -4.2550   -0.0738 H   0  0  0  0  0  0  0  0  0  0  0  0
  1  5  1  0
  5  6  2  0
  5  7  1  0
  1  2  1  0
  1  3  1  0
  1  4  1  0
  8 12  1  0
 12 15  1  0
  8  9  1  0
  8 10  1  0
  8 11  1  0
 12 13  1  0
 12 14  1  0
 15 16  1  0
 15 17  1  0
 15 18  1  0
M  CHG  1   7  -1
V    7 [O&-]
M  END
>  <PDB_ID>  (2327) 
pdb4r7w

>  <RESIDUE_NAME>  (2327) 
GLU   LYS

>  <FRAG_NAME>  (2327) 
ACET   PRPA

>  <FRAG_ATOM_NUM>  (2327) 
fragi: 7 fragj: 11

>  <atom.prop.CHAIN_ID>  (2327) 
A A A A A A A Z Z Z Z Z Z Z Z Z Z Z

>  <atom.prop.IS_HEAVY_ATOM>  (2327) 
1 0 0 0 1 1 1 1 0 0 0 1 0 0 1 0 0 0

>  <DIFUSE_FUNC_ATOM>  (2327) 
n/a

>  <FINAL_SINGLE_POINT_ENERGY>  (2327) 
0

>  <NONCOV_INTER_ENERGY_QM>  (2327) 
0

>  <FF_Energy>  (2327) 
30.2

>  <QM_Energy>  (2327) 
7.07

>  <source>  (2327) 
ACET_PRPA_30

>  <Index>  (2327) 
4671

$$$$
ACEH-pdb2zof-B-GLH-163:PRPA-pdb2zof-B-LEU-173
     RDKit          3D

 18 16  0  0  0  0  0  0  0  0999 V2000
    0.0208    1.5029    0.0591 C   0  0  0  0  0  0  0  0  0  0  0  0
   -0.2535    1.8333   -0.8284 H   0  0  0  0  0  0  0  0  0  0  0  0
    0.9425    1.7727    0.2814 H   0  0  0  0  0  0  0  0  0  0  0  0
   -0.6621    1.8904    0.8152 H   0  0  0  0  0  0  0  0  0  0  0  0
    0.0000    0.0000    0.0000 C   0  0  0  0  0  0  0  0  0  0  0  0
   -1.0167   -0.6485    0.0000 O   0  0  0  0  0  0  0  0  0  0  0  0
    1.0167   -0.6147    0.0000 O   0  0  0  0  0  0  0  0  0  0  0  0
   -4.4533   -1.9665   -0.0072 C   0  0  0  0  0  0  0  0  0  0  0  0
   -3.8435   -1.6754    0.7254 H   0  0  0  0  0  0  0  0  0  0  0  0
   -4.0482   -2.7230   -0.5109 H   0  0  0  0  0  0  0  0  0  0  0  0
   -5.3665   -2.3371    0.4584 H   0  0  0  0  0  0  0  0  0  0  0  0
   -4.6094   -0.7944   -0.9736 C   0  0  0  0  0  0  0  0  0  0  0  0
   -5.1782   -1.0853   -1.7496 H   0  0  0  0  0  0  0  0  0  0  0  0
   -5.0717    0.0680   -0.4934 H   0  0  0  0  0  0  0  0  0  0  0  0
   -3.2876   -0.4350   -1.5678 C   0  0  0  0  0  0  0  0  0  0  0  0
   -2.9070   -1.2184   -2.0704 H   0  0  0  0  0  0  0  0  0  0  0  0
   -3.3892    0.3363   -2.2043 H   0  0  0  0  0  0  0  0  0  0  0  0
   -2.6401   -0.1720   -0.8450 H   0  0  0  0  0  0  0  0  0  0  0  0
  1  5  1  0
  5  6  2  0
  5  7  1  0
  1  2  1  0
  1  3  1  0
  1  4  1  0
  8 12  1  0
 12 15  1  0
  8  9  1  0
  8 10  1  0
  8 11  1  0
 12 13  1  0
 12 14  1  0
 15 16  1  0
 15 17  1  0
 15 18  1  0
M  CHG  1   7  -1
V    7 [O&-]
M  END
>  <PDB_ID>  (2328) 
pdb2zof

>  <RESIDUE_NAME>  (2328) 
GLU   LEU

>  <FRAG_NAME>  (2328) 
ACET   PRPA

>  <FRAG_ATOM_NUM>  (2328) 
fragi: 7 fragj: 11

>  <atom.prop.CHAIN_ID>  (2328) 
A A A A A A A Z Z Z Z Z Z Z Z Z Z Z

>  <atom.prop.IS_HEAVY_ATOM>  (2328) 
1 0 0 0 1 1 1 1 0 0 0 1 0 0 1 0 0 0

>  <DIFUSE_FUNC_ATOM>  (2328) 
n/a

>  <FINAL_SINGLE_POINT_ENERGY>  (2328) 
0

>  <NONCOV_INTER_ENERGY_QM>  (2328) 
0

>  <FF_Energy>  (2328) 
15.58

>  <QM_Energy>  (2328) 
0.28

>  <source>  (2328) 
ACET_PRPA_30

>  <Index>  (2328) 
4813

$$$$
ACEH-pdb4tv7-B-ASH-118:PRPA-pdb4tv7-B-ARG-451
     RDKit          3D

 18 16  0  0  0  0  0  0  0  0999 V2000
    0.0421    1.5152   -0.0201 C   0  0  0  0  0  0  0  0  0  0  0  0
    0.5319    1.8126   -0.8377 H   0  0  0  0  0  0  0  0  0  0  0  0
    0.5211    1.8344    0.7949 H   0  0  0  0  0  0  0  0  0  0  0  0
   -0.9415    1.9848   -0.0331 H   0  0  0  0  0  0  0  0  0  0  0  0
    0.0000    0.0000    0.0000 C   0  0  0  0  0  0  0  0  0  0  0  0
   -1.0952   -0.5986   -0.0000 O   0  0  0  0  0  0  0  0  0  0  0  0
    1.0952   -0.5881    0.0000 O   0  0  0  0  0  0  0  0  0  0  0  0
    0.5714   -0.6411    2.8328 C   0  0  0  0  0  0  0  0  0  0  0  0
    0.3925   -0.2940    1.8996 H   0  0  0  0  0  0  0  0  0  0  0  0
   -0.1081   -1.4703    3.0300 H   0  0  0  0  0  0  0  0  0  0  0  0
    1.6190   -0.9354    2.8973 H   0  0  0  0  0  0  0  0  0  0  0  0
    0.2873    0.5354    3.7824 C   0  0  0  0  0  0  0  0  0  0  0  0
    1.0169    0.5623    4.4662 H   0  0  0  0  0  0  0  0  0  0  0  0
    0.3056    1.3775    3.2433 H   0  0  0  0  0  0  0  0  0  0  0  0
   -1.0447    0.4729    4.5143 C   0  0  0  0  0  0  0  0  0  0  0  0
   -1.7847    0.4529    3.8417 H   0  0  0  0  0  0  0  0  0  0  0  0
   -1.0733   -0.3622    5.0646 H   0  0  0  0  0  0  0  0  0  0  0  0
   -1.1849    1.3325    5.1697 H   0  0  0  0  0  0  0  0  0  0  0  0
  1  5  1  0
  5  6  2  0
  5  7  1  0
  1  2  1  0
  1  3  1  0
  1  4  1  0
  8 12  1  0
 12 15  1  0
  8  9  1  0
  8 10  1  0
  8 11  1  0
 12 13  1  0
 12 14  1  0
 15 16  1  0
 15 17  1  0
 15 18  1  0
M  CHG  1   7  -1
V    7 [O&-]
M  END
>  <PDB_ID>  (2329) 
pdb4tv7

>  <RESIDUE_NAME>  (2329) 
ASP   ARG

>  <FRAG_NAME>  (2329) 
ACET   PRPA

>  <FRAG_ATOM_NUM>  (2329) 
fragi: 7 fragj: 11

>  <atom.prop.CHAIN_ID>  (2329) 
A A A A A A A Z Z Z Z Z Z Z Z Z Z Z

>  <atom.prop.IS_HEAVY_ATOM>  (2329) 
1 0 0 0 1 1 1 1 0 0 0 1 0 0 1 0 0 0

>  <DIFUSE_FUNC_ATOM>  (2329) 
n/a

>  <FINAL_SINGLE_POINT_ENERGY>  (2329) 
0

>  <NONCOV_INTER_ENERGY_QM>  (2329) 
0

>  <FF_Energy>  (2329) 
30.23

>  <QM_Energy>  (2329) 
3.23

>  <source>  (2329) 
ACET_PRPA_30

>  <Index>  (2329) 
5054

$$$$
ACEH-pdb2zad-D-GLH-327:PRPA-pdb2zad-D-LEU-324
     RDKit          3D

 18 16  0  0  0  0  0  0  0  0999 V2000
    0.1762    1.4845    0.0143 C   0  0  0  0  0  0  0  0  0  0  0  0
    0.6953    1.7392   -0.8022 H   0  0  0  0  0  0  0  0  0  0  0  0
    0.7062    1.7216    0.8298 H   0  0  0  0  0  0  0  0  0  0  0  0
   -0.7344    2.0835    0.0263 H   0  0  0  0  0  0  0  0  0  0  0  0
    0.0000    0.0000    0.0000 C   0  0  0  0  0  0  0  0  0  0  0  0
   -1.0896   -0.5579   -0.0000 O   0  0  0  0  0  0  0  0  0  0  0  0
    1.0896   -0.6089   -0.0000 O   0  0  0  0  0  0  0  0  0  0  0  0
    0.9988   -1.6333    2.4211 C   0  0  0  0  0  0  0  0  0  0  0  0
    0.2331   -1.0221    2.6383 H   0  0  0  0  0  0  0  0  0  0  0  0
    1.5672   -1.2066    1.7147 H   0  0  0  0  0  0  0  0  0  0  0  0
    1.6064   -1.7370    3.3201 H   0  0  0  0  0  0  0  0  0  0  0  0
    0.3964   -2.9068    1.8066 C   0  0  0  0  0  0  0  0  0  0  0  0
   -0.5522   -2.7249    1.5523 H   0  0  0  0  0  0  0  0  0  0  0  0
    0.3355   -3.7253    2.5238 H   0  0  0  0  0  0  0  0  0  0  0  0
    1.1795   -3.3331    0.5685 C   0  0  0  0  0  0  0  0  0  0  0  0
    2.1294   -3.5147    0.8224 H   0  0  0  0  0  0  0  0  0  0  0  0
    0.7720   -4.1616    0.1862 H   0  0  0  0  0  0  0  0  0  0  0  0
    1.1508   -2.6014   -0.1109 H   0  0  0  0  0  0  0  0  0  0  0  0
  1  5  1  0
  5  6  2  0
  5  7  1  0
  1  2  1  0
  1  3  1  0
  1  4  1  0
  8 12  1  0
 12 15  1  0
  8  9  1  0
  8 10  1  0
  8 11  1  0
 12 13  1  0
 12 14  1  0
 15 16  1  0
 15 17  1  0
 15 18  1  0
M  CHG  1   7  -1
V    7 [O&-]
M  END
>  <PDB_ID>  (2330) 
pdb2zad

>  <RESIDUE_NAME>  (2330) 
GLU   LEU

>  <FRAG_NAME>  (2330) 
ACET   PRPA

>  <FRAG_ATOM_NUM>  (2330) 
fragi: 7 fragj: 11

>  <atom.prop.CHAIN_ID>  (2330) 
A A A A A A A Z Z Z Z Z Z Z Z Z Z Z

>  <atom.prop.IS_HEAVY_ATOM>  (2330) 
1 0 0 0 1 1 1 1 0 0 0 1 0 0 1 0 0 0

>  <DIFUSE_FUNC_ATOM>  (2330) 
n/a

>  <FINAL_SINGLE_POINT_ENERGY>  (2330) 
0

>  <NONCOV_INTER_ENERGY_QM>  (2330) 
0

>  <FF_Energy>  (2330) 
32.15

>  <QM_Energy>  (2330) 
2.1

>  <source>  (2330) 
ACET_PRPA_30

>  <Index>  (2330) 
5059

$$$$
ACEH-pdb2zad-D-GLH-327:PRPA-pdb2zad-D-LEU-324
     RDKit          3D

 18 16  0  0  0  0  0  0  0  0999 V2000
    0.1762    1.4845    0.0143 C   0  0  0  0  0  0  0  0  0  0  0  0
    0.6953    1.7392   -0.8022 H   0  0  0  0  0  0  0  0  0  0  0  0
    0.7062    1.7216    0.8298 H   0  0  0  0  0  0  0  0  0  0  0  0
   -0.7344    2.0835    0.0263 H   0  0  0  0  0  0  0  0  0  0  0  0
    0.0000    0.0000    0.0000 C   0  0  0  0  0  0  0  0  0  0  0  0
   -1.0896   -0.5579   -0.0000 O   0  0  0  0  0  0  0  0  0  0  0  0
    1.0896   -0.6089   -0.0000 O   0  0  0  0  0  0  0  0  0  0  0  0
    0.9988   -1.6333    2.4211 C   0  0  0  0  0  0  0  0  0  0  0  0
    0.2331   -1.0221    2.6383 H   0  0  0  0  0  0  0  0  0  0  0  0
    1.5672   -1.2066    1.7147 H   0  0  0  0  0  0  0  0  0  0  0  0
    1.6064   -1.7370    3.3201 H   0  0  0  0  0  0  0  0  0  0  0  0
    0.3964   -2.9068    1.8066 C   0  0  0  0  0  0  0  0  0  0  0  0
   -0.5522   -2.7249    1.5523 H   0  0  0  0  0  0  0  0  0  0  0  0
    0.9559   -3.2114    0.9221 H   0  0  0  0  0  0  0  0  0  0  0  0
    0.3112   -4.0533    2.8111 C   0  0  0  0  0  0  0  0  0  0  0  0
   -0.2654   -3.7783    3.5803 H   0  0  0  0  0  0  0  0  0  0  0  0
   -0.0851   -4.8567    2.3664 H   0  0  0  0  0  0  0  0  0  0  0  0
    1.2285   -4.2739    3.1431 H   0  0  0  0  0  0  0  0  0  0  0  0
  1  5  1  0
  5  6  2  0
  5  7  1  0
  1  2  1  0
  1  3  1  0
  1  4  1  0
  8 12  1  0
 12 15  1  0
  8  9  1  0
  8 10  1  0
  8 11  1  0
 12 13  1  0
 12 14  1  0
 15 16  1  0
 15 17  1  0
 15 18  1  0
M  CHG  1   7  -1
V    7 [O&-]
M  END
>  <PDB_ID>  (2331) 
pdb2zad

>  <RESIDUE_NAME>  (2331) 
GLU   LEU

>  <FRAG_NAME>  (2331) 
ACET   PRPA

>  <FRAG_ATOM_NUM>  (2331) 
fragi: 7 fragj: 11

>  <atom.prop.CHAIN_ID>  (2331) 
A A A A A A A Z Z Z Z Z Z Z Z Z Z Z

>  <atom.prop.IS_HEAVY_ATOM>  (2331) 
1 0 0 0 1 1 1 1 0 0 0 1 0 0 1 0 0 0

>  <DIFUSE_FUNC_ATOM>  (2331) 
n/a

>  <FINAL_SINGLE_POINT_ENERGY>  (2331) 
0

>  <NONCOV_INTER_ENERGY_QM>  (2331) 
0

>  <FF_Energy>  (2331) 
21.76

>  <QM_Energy>  (2331) 
0.8

>  <source>  (2331) 
ACET_PRPA_30

>  <Index>  (2331) 
5077

$$$$
ACEH-pdb2zl2-L-ASH-80:PRPA-pdb2zl2-K-LEU-116
     RDKit          3D

 18 16  0  0  0  0  0  0  0  0999 V2000
   -0.0019    1.5051   -0.0075 C   0  0  0  0  0  0  0  0  0  0  0  0
   -0.4044    1.8317    0.8408 H   0  0  0  0  0  0  0  0  0  0  0  0
   -0.5304    1.8239   -0.7864 H   0  0  0  0  0  0  0  0  0  0  0  0
    1.0031    1.9193   -0.0872 H   0  0  0  0  0  0  0  0  0  0  0  0
    0.0000    0.0000    0.0000 C   0  0  0  0  0  0  0  0  0  0  0  0
   -1.0984   -0.6027   -0.0000 O   0  0  0  0  0  0  0  0  0  0  0  0
    1.0984   -0.5863   -0.0000 O   0  0  0  0  0  0  0  0  0  0  0  0
   -3.0270    1.1419   -2.0145 C   0  0  0  0  0  0  0  0  0  0  0  0
   -3.6471    1.3240   -1.2832 H   0  0  0  0  0  0  0  0  0  0  0  0
   -2.2159    0.6801   -1.7342 H   0  0  0  0  0  0  0  0  0  0  0  0
   -3.5381    0.5204   -2.7498 H   0  0  0  0  0  0  0  0  0  0  0  0
   -2.6075    2.4967   -2.6132 C   0  0  0  0  0  0  0  0  0  0  0  0
   -1.8326    2.3518   -3.2198 H   0  0  0  0  0  0  0  0  0  0  0  0
   -3.4388    2.9237   -3.1741 H   0  0  0  0  0  0  0  0  0  0  0  0
   -2.1439    3.4564   -1.5222 C   0  0  0  0  0  0  0  0  0  0  0  0
   -1.3611    3.0612   -1.0419 H   0  0  0  0  0  0  0  0  0  0  0  0
   -1.8775    4.3272   -1.9354 H   0  0  0  0  0  0  0  0  0  0  0  0
   -2.8900    3.6089   -0.8740 H   0  0  0  0  0  0  0  0  0  0  0  0
  1  5  1  0
  5  6  2  0
  5  7  1  0
  1  2  1  0
  1  3  1  0
  1  4  1  0
  8 12  1  0
 12 15  1  0
  8  9  1  0
  8 10  1  0
  8 11  1  0
 12 13  1  0
 12 14  1  0
 15 16  1  0
 15 17  1  0
 15 18  1  0
M  CHG  1   7  -1
V    7 [O&-]
M  END
>  <PDB_ID>  (2332) 
pdb2zl2

>  <RESIDUE_NAME>  (2332) 
ASP   LEU

>  <FRAG_NAME>  (2332) 
ACET   PRPA

>  <FRAG_ATOM_NUM>  (2332) 
fragi: 7 fragj: 11

>  <atom.prop.CHAIN_ID>  (2332) 
A A A A A A A Z Z Z Z Z Z Z Z Z Z Z

>  <atom.prop.IS_HEAVY_ATOM>  (2332) 
1 0 0 0 1 1 1 1 0 0 0 1 0 0 1 0 0 0

>  <DIFUSE_FUNC_ATOM>  (2332) 
n/a

>  <FINAL_SINGLE_POINT_ENERGY>  (2332) 
0

>  <NONCOV_INTER_ENERGY_QM>  (2332) 
0

>  <FF_Energy>  (2332) 
26.9

>  <QM_Energy>  (2332) 
3.01

>  <source>  (2332) 
ACET_PRPA_30

>  <Index>  (2332) 
5442

$$$$
ACEH-pdb4uhv-B-GLH-162:PRPA-pdb4uhv-B-VAL-114
     RDKit          3D

 18 16  0  0  0  0  0  0  0  0999 V2000
    0.0031    1.5047    0.0250 C   0  0  0  0  0  0  0  0  0  0  0  0
    0.8903    1.8077   -0.2762 H   0  0  0  0  0  0  0  0  0  0  0  0
   -0.1881    1.7891    0.9489 H   0  0  0  0  0  0  0  0  0  0  0  0
   -0.7494    1.9398   -0.6328 H   0  0  0  0  0  0  0  0  0  0  0  0
    0.0000    0.0000    0.0000 C   0  0  0  0  0  0  0  0  0  0  0  0
   -1.1093   -0.5867   -0.0000 O   0  0  0  0  0  0  0  0  0  0  0  0
    1.1093   -0.5746    0.0000 O   0  0  0  0  0  0  0  0  0  0  0  0
    0.2959    2.6739    5.1769 C   0  0  0  0  0  0  0  0  0  0  0  0
    1.0741    2.9581    5.7851 H   0  0  0  0  0  0  0  0  0  0  0  0
   -0.2950    1.9450    5.7315 H   0  0  0  0  0  0  0  0  0  0  0  0
   -0.2194    3.5775    4.8514 H   0  0  0  0  0  0  0  0  0  0  0  0
    0.9706    2.0429    3.9448 C   0  0  0  0  0  0  0  0  0  0  0  0
    1.1187    2.7655    3.2779 H   0  0  0  0  0  0  0  0  0  0  0  0
    1.9510    1.6497    4.2137 H   0  0  0  0  0  0  0  0  0  0  0  0
    0.0818    0.9788    3.3157 C   0  0  0  0  0  0  0  0  0  0  0  0
    0.4650    0.0751    3.5050 H   0  0  0  0  0  0  0  0  0  0  0  0
   -0.8364    1.0435    3.7059 H   0  0  0  0  0  0  0  0  0  0  0  0
    0.0393    1.1266    2.3278 H   0  0  0  0  0  0  0  0  0  0  0  0
  1  5  1  0
  5  6  2  0
  5  7  1  0
  1  2  1  0
  1  3  1  0
  1  4  1  0
  8 12  1  0
 12 15  1  0
  8  9  1  0
  8 10  1  0
  8 11  1  0
 12 13  1  0
 12 14  1  0
 15 16  1  0
 15 17  1  0
 15 18  1  0
M  CHG  1   7  -1
V    7 [O&-]
M  END
>  <PDB_ID>  (2333) 
pdb4uhv

>  <RESIDUE_NAME>  (2333) 
GLU   VAL

>  <FRAG_NAME>  (2333) 
ACET   PRPA

>  <FRAG_ATOM_NUM>  (2333) 
fragi: 7 fragj: 11

>  <atom.prop.CHAIN_ID>  (2333) 
A A A A A A A Z Z Z Z Z Z Z Z Z Z Z

>  <atom.prop.IS_HEAVY_ATOM>  (2333) 
1 0 0 0 1 1 1 1 0 0 0 1 0 0 1 0 0 0

>  <DIFUSE_FUNC_ATOM>  (2333) 
n/a

>  <FINAL_SINGLE_POINT_ENERGY>  (2333) 
0

>  <NONCOV_INTER_ENERGY_QM>  (2333) 
0

>  <FF_Energy>  (2333) 
20.02

>  <QM_Energy>  (2333) 
2.07

>  <source>  (2333) 
ACET_PRPA_30

>  <Index>  (2333) 
6115

$$$$
ACEH-pdb1sj9-B-GLH-2080:PRPA-pdb1sj9-B-LEU-2009
     RDKit          3D

 18 16  0  0  0  0  0  0  0  0999 V2000
   -0.0024    1.5201    0.0219 C   0  0  0  0  0  0  0  0  0  0  0  0
   -0.7699    1.8233   -0.5096 H   0  0  0  0  0  0  0  0  0  0  0  0
    0.8552    1.8232   -0.3475 H   0  0  0  0  0  0  0  0  0  0  0  0
   -0.1037    1.9235    1.0295 H   0  0  0  0  0  0  0  0  0  0  0  0
    0.0000    0.0000    0.0000 C   0  0  0  0  0  0  0  0  0  0  0  0
   -1.0858   -0.6018    0.0000 O   0  0  0  0  0  0  0  0  0  0  0  0
    1.0858   -0.6045   -0.0000 O   0  0  0  0  0  0  0  0  0  0  0  0
    1.9063   -3.0657    3.1315 C   0  0  0  0  0  0  0  0  0  0  0  0
    2.8437   -3.3407    2.9448 H   0  0  0  0  0  0  0  0  0  0  0  0
    1.2966   -3.2757    2.2527 H   0  0  0  0  0  0  0  0  0  0  0  0
    1.5241   -3.6691    3.9549 H   0  0  0  0  0  0  0  0  0  0  0  0
    1.8262   -1.5886    3.5302 C   0  0  0  0  0  0  0  0  0  0  0  0
    0.8646   -1.4022    3.8082 H   0  0  0  0  0  0  0  0  0  0  0  0
    2.4005   -1.4676    4.3603 H   0  0  0  0  0  0  0  0  0  0  0  0
    2.2256   -0.4837    2.5491 C   0  0  0  0  0  0  0  0  0  0  0  0
    1.5399   -0.4181    1.8359 H   0  0  0  0  0  0  0  0  0  0  0  0
    2.2788    0.4629    3.0870 H   0  0  0  0  0  0  0  0  0  0  0  0
    3.1841   -0.7142    2.0842 H   0  0  0  0  0  0  0  0  0  0  0  0
  1  5  1  0
  5  6  2  0
  5  7  1  0
  1  2  1  0
  1  3  1  0
  1  4  1  0
  8 12  1  0
 12 15  1  0
  8  9  1  0
  8 10  1  0
  8 11  1  0
 12 13  1  0
 12 14  1  0
 15 16  1  0
 15 17  1  0
 15 18  1  0
M  CHG  1   7  -1
V    7 [O&-]
M  END
>  <PDB_ID>  (2334) 
pdb1sj9

>  <RESIDUE_NAME>  (2334) 
GLU   LEU

>  <FRAG_NAME>  (2334) 
ACET   PRPA

>  <FRAG_ATOM_NUM>  (2334) 
fragi: 7 fragj: 11

>  <atom.prop.CHAIN_ID>  (2334) 
A A A A A A A Z Z Z Z Z Z Z Z Z Z Z

>  <atom.prop.IS_HEAVY_ATOM>  (2334) 
1 0 0 0 1 1 1 1 0 0 0 1 0 0 1 0 0 0

>  <DIFUSE_FUNC_ATOM>  (2334) 
n/a

>  <FINAL_SINGLE_POINT_ENERGY>  (2334) 
0

>  <NONCOV_INTER_ENERGY_QM>  (2334) 
0

>  <FF_Energy>  (2334) 
16.06

>  <QM_Energy>  (2334) 
0.44

>  <source>  (2334) 
ACET_PRPA_30

>  <Index>  (2334) 
6758

$$$$
ACEH-pdb1sj9-B-GLH-2080:PRPA-pdb1sj9-B-LEU-2009
     RDKit          3D

 18 16  0  0  0  0  0  0  0  0999 V2000
   -0.0024    1.5201    0.0219 C   0  0  0  0  0  0  0  0  0  0  0  0
   -0.7699    1.8233   -0.5096 H   0  0  0  0  0  0  0  0  0  0  0  0
    0.8552    1.8232   -0.3475 H   0  0  0  0  0  0  0  0  0  0  0  0
   -0.1037    1.9235    1.0295 H   0  0  0  0  0  0  0  0  0  0  0  0
    0.0000    0.0000    0.0000 C   0  0  0  0  0  0  0  0  0  0  0  0
   -1.0858   -0.6018    0.0000 O   0  0  0  0  0  0  0  0  0  0  0  0
    1.0858   -0.6045   -0.0000 O   0  0  0  0  0  0  0  0  0  0  0  0
    1.8262   -1.5886    3.5302 C   0  0  0  0  0  0  0  0  0  0  0  0
    0.8646   -1.4022    3.8082 H   0  0  0  0  0  0  0  0  0  0  0  0
    2.4005   -1.4676    4.3603 H   0  0  0  0  0  0  0  0  0  0  0  0
    1.8832   -2.6395    3.2465 H   0  0  0  0  0  0  0  0  0  0  0  0
    2.2256   -0.4837    2.5491 C   0  0  0  0  0  0  0  0  0  0  0  0
    1.5399   -0.4181    1.8359 H   0  0  0  0  0  0  0  0  0  0  0  0
    3.1841   -0.7142    2.0842 H   0  0  0  0  0  0  0  0  0  0  0  0
    2.3003    0.8446    3.3038 C   0  0  0  0  0  0  0  0  0  0  0  0
    2.9824    0.7738    4.0311 H   0  0  0  0  0  0  0  0  0  0  0  0
    2.5610    1.5710    2.6695 H   0  0  0  0  0  0  0  0  0  0  0  0
    1.4064    1.0501    3.7005 H   0  0  0  0  0  0  0  0  0  0  0  0
  1  5  1  0
  5  6  2  0
  5  7  1  0
  1  2  1  0
  1  3  1  0
  1  4  1  0
  8 12  1  0
 12 15  1  0
  8  9  1  0
  8 10  1  0
  8 11  1  0
 12 13  1  0
 12 14  1  0
 15 16  1  0
 15 17  1  0
 15 18  1  0
M  CHG  1   7  -1
V    7 [O&-]
M  END
>  <PDB_ID>  (2335) 
pdb1sj9

>  <RESIDUE_NAME>  (2335) 
GLU   LEU

>  <FRAG_NAME>  (2335) 
ACET   PRPA

>  <FRAG_ATOM_NUM>  (2335) 
fragi: 7 fragj: 11

>  <atom.prop.CHAIN_ID>  (2335) 
A A A A A A A Z Z Z Z Z Z Z Z Z Z Z

>  <atom.prop.IS_HEAVY_ATOM>  (2335) 
1 0 0 0 1 1 1 1 0 0 0 1 0 0 1 0 0 0

>  <DIFUSE_FUNC_ATOM>  (2335) 
n/a

>  <FINAL_SINGLE_POINT_ENERGY>  (2335) 
0

>  <NONCOV_INTER_ENERGY_QM>  (2335) 
0

>  <FF_Energy>  (2335) 
17.46

>  <QM_Energy>  (2335) 
0.49

>  <source>  (2335) 
ACET_PRPA_30

>  <Index>  (2335) 
6778

$$$$
ACEH-pdb1t0t-Z-GLH-86:PRPA-pdb1t0t-Z-LEU-14
     RDKit          3D

 18 16  0  0  0  0  0  0  0  0999 V2000
    0.0450    1.5286    0.0858 C   0  0  0  0  0  0  0  0  0  0  0  0
   -0.8619    1.8566   -0.0743 H   0  0  0  0  0  0  0  0  0  0  0  0
    0.6901    1.8399   -0.5787 H   0  0  0  0  0  0  0  0  0  0  0  0
    0.3668    1.8731    1.0686 H   0  0  0  0  0  0  0  0  0  0  0  0
    0.0000    0.0000    0.0000 C   0  0  0  0  0  0  0  0  0  0  0  0
   -1.1144   -0.6325   -0.0000 O   0  0  0  0  0  0  0  0  0  0  0  0
    1.1144   -0.5510    0.0000 O   0  0  0  0  0  0  0  0  0  0  0  0
   -0.7668   -0.9745   -3.4235 C   0  0  0  0  0  0  0  0  0  0  0  0
    0.1016   -1.3043   -3.0690 H   0  0  0  0  0  0  0  0  0  0  0  0
   -1.4676   -1.0212   -2.7200 H   0  0  0  0  0  0  0  0  0  0  0  0
   -1.0402   -1.5038   -4.2195 H   0  0  0  0  0  0  0  0  0  0  0  0
   -0.5941    0.5132   -3.8534 C   0  0  0  0  0  0  0  0  0  0  0  0
   -1.4649    0.8455   -4.2060 H   0  0  0  0  0  0  0  0  0  0  0  0
    0.1681    0.6095   -4.6266 H   0  0  0  0  0  0  0  0  0  0  0  0
   -0.2720    1.3308   -2.6691 C   0  0  0  0  0  0  0  0  0  0  0  0
   -0.2061    2.3076   -2.9149 H   0  0  0  0  0  0  0  0  0  0  0  0
   -0.9844    1.2326   -1.9611 H   0  0  0  0  0  0  0  0  0  0  0  0
    0.6089    1.0487   -2.2680 H   0  0  0  0  0  0  0  0  0  0  0  0
  1  5  1  0
  5  6  2  0
  5  7  1  0
  1  2  1  0
  1  3  1  0
  1  4  1  0
  8 12  1  0
 12 15  1  0
  8  9  1  0
  8 10  1  0
  8 11  1  0
 12 13  1  0
 12 14  1  0
 15 16  1  0
 15 17  1  0
 15 18  1  0
M  CHG  1   7  -1
V    7 [O&-]
M  END
>  <PDB_ID>  (2336) 
pdb1t0t

>  <RESIDUE_NAME>  (2336) 
GLU   LEU

>  <FRAG_NAME>  (2336) 
ACET   PRPA

>  <FRAG_ATOM_NUM>  (2336) 
fragi: 7 fragj: 11

>  <atom.prop.CHAIN_ID>  (2336) 
A A A A A A A Z Z Z Z Z Z Z Z Z Z Z

>  <atom.prop.IS_HEAVY_ATOM>  (2336) 
1 0 0 0 1 1 1 1 0 0 0 1 0 0 1 0 0 0

>  <DIFUSE_FUNC_ATOM>  (2336) 
n/a

>  <FINAL_SINGLE_POINT_ENERGY>  (2336) 
0

>  <NONCOV_INTER_ENERGY_QM>  (2336) 
0

>  <FF_Energy>  (2336) 
17.68

>  <QM_Energy>  (2336) 
1.87

>  <source>  (2336) 
ACET_PRPA_30

>  <Index>  (2336) 
6903

$$$$
ACEH-pdb1ted-A-GLH-203:PRPA-pdb1ted-A-LEU-348
     RDKit          3D

 18 16  0  0  0  0  0  0  0  0999 V2000
   -0.0038    1.5312    0.0166 C   0  0  0  0  0  0  0  0  0  0  0  0
    0.5678    1.8161    0.7709 H   0  0  0  0  0  0  0  0  0  0  0  0
   -0.9407    1.8184    0.1480 H   0  0  0  0  0  0  0  0  0  0  0  0
    0.3733    1.9962   -0.8942 H   0  0  0  0  0  0  0  0  0  0  0  0
    0.0000    0.0000    0.0000 C   0  0  0  0  0  0  0  0  0  0  0  0
   -1.0957   -0.5944    0.0000 O   0  0  0  0  0  0  0  0  0  0  0  0
    1.0957   -0.6054   -0.0000 O   0  0  0  0  0  0  0  0  0  0  0  0
    1.5415    1.8399    2.8750 C   0  0  0  0  0  0  0  0  0  0  0  0
    1.3406    2.1312    1.9461 H   0  0  0  0  0  0  0  0  0  0  0  0
    1.5976    0.8502    2.9263 H   0  0  0  0  0  0  0  0  0  0  0  0
    2.5156    2.2452    3.1489 H   0  0  0  0  0  0  0  0  0  0  0  0
    0.3575    2.2772    3.7565 C   0  0  0  0  0  0  0  0  0  0  0  0
    0.3386    1.6941    4.5720 H   0  0  0  0  0  0  0  0  0  0  0  0
   -0.5854    2.1192    3.2330 H   0  0  0  0  0  0  0  0  0  0  0  0
    0.4887    3.7213    4.1607 C   0  0  0  0  0  0  0  0  0  0  0  0
    0.5090    4.3045    3.3448 H   0  0  0  0  0  0  0  0  0  0  0  0
   -0.2896    3.9889    4.7337 H   0  0  0  0  0  0  0  0  0  0  0  0
    1.3366    3.8561    4.6787 H   0  0  0  0  0  0  0  0  0  0  0  0
  1  5  1  0
  5  6  2  0
  5  7  1  0
  1  2  1  0
  1  3  1  0
  1  4  1  0
  8 12  1  0
 12 15  1  0
  8  9  1  0
  8 10  1  0
  8 11  1  0
 12 13  1  0
 12 14  1  0
 15 16  1  0
 15 17  1  0
 15 18  1  0
M  CHG  1   7  -1
V    7 [O&-]
M  END
>  <PDB_ID>  (2337) 
pdb1ted

>  <RESIDUE_NAME>  (2337) 
GLU   LEU

>  <FRAG_NAME>  (2337) 
ACET   PRPA

>  <FRAG_ATOM_NUM>  (2337) 
fragi: 7 fragj: 11

>  <atom.prop.CHAIN_ID>  (2337) 
A A A A A A A Z Z Z Z Z Z Z Z Z Z Z

>  <atom.prop.IS_HEAVY_ATOM>  (2337) 
1 0 0 0 1 1 1 1 0 0 0 1 0 0 1 0 0 0

>  <DIFUSE_FUNC_ATOM>  (2337) 
n/a

>  <FINAL_SINGLE_POINT_ENERGY>  (2337) 
0

>  <NONCOV_INTER_ENERGY_QM>  (2337) 
0

>  <FF_Energy>  (2337) 
43.14

>  <QM_Energy>  (2337) 
3.99

>  <source>  (2337) 
ACET_PRPA_30

>  <Index>  (2337) 
7793

$$$$
ACEH-pdb1ted-A-GLH-203:PRPA-pdb1ted-A-LEU-348
     RDKit          3D

 18 16  0  0  0  0  0  0  0  0999 V2000
   -0.0038    1.5312    0.0166 C   0  0  0  0  0  0  0  0  0  0  0  0
    0.5678    1.8161    0.7709 H   0  0  0  0  0  0  0  0  0  0  0  0
   -0.9407    1.8184    0.1480 H   0  0  0  0  0  0  0  0  0  0  0  0
    0.3733    1.9962   -0.8942 H   0  0  0  0  0  0  0  0  0  0  0  0
    0.0000    0.0000    0.0000 C   0  0  0  0  0  0  0  0  0  0  0  0
   -1.0957   -0.5944    0.0000 O   0  0  0  0  0  0  0  0  0  0  0  0
    1.0957   -0.6054   -0.0000 O   0  0  0  0  0  0  0  0  0  0  0  0
    1.5415    1.8399    2.8750 C   0  0  0  0  0  0  0  0  0  0  0  0
    1.3406    2.1312    1.9461 H   0  0  0  0  0  0  0  0  0  0  0  0
    1.5976    0.8502    2.9263 H   0  0  0  0  0  0  0  0  0  0  0  0
    2.5156    2.2452    3.1489 H   0  0  0  0  0  0  0  0  0  0  0  0
    0.3575    2.2772    3.7565 C   0  0  0  0  0  0  0  0  0  0  0  0
    0.3386    1.6941    4.5720 H   0  0  0  0  0  0  0  0  0  0  0  0
    0.4525    3.3229    4.0491 H   0  0  0  0  0  0  0  0  0  0  0  0
   -0.9500    2.0581    3.0306 C   0  0  0  0  0  0  0  0  0  0  0  0
   -1.0552    1.0870    2.8066 H   0  0  0  0  0  0  0  0  0  0  0  0
   -1.7140    2.3462    3.6123 H   0  0  0  0  0  0  0  0  0  0  0  0
   -0.9623    2.5940    2.1833 H   0  0  0  0  0  0  0  0  0  0  0  0
  1  5  1  0
  5  6  2  0
  5  7  1  0
  1  2  1  0
  1  3  1  0
  1  4  1  0
  8 12  1  0
 12 15  1  0
  8  9  1  0
  8 10  1  0
  8 11  1  0
 12 13  1  0
 12 14  1  0
 15 16  1  0
 15 17  1  0
 15 18  1  0
M  CHG  1   7  -1
V    7 [O&-]
M  END
>  <PDB_ID>  (2338) 
pdb1ted

>  <RESIDUE_NAME>  (2338) 
GLU   LEU

>  <FRAG_NAME>  (2338) 
ACET   PRPA

>  <FRAG_ATOM_NUM>  (2338) 
fragi: 7 fragj: 11

>  <atom.prop.CHAIN_ID>  (2338) 
A A A A A A A Z Z Z Z Z Z Z Z Z Z Z

>  <atom.prop.IS_HEAVY_ATOM>  (2338) 
1 0 0 0 1 1 1 1 0 0 0 1 0 0 1 0 0 0

>  <DIFUSE_FUNC_ATOM>  (2338) 
n/a

>  <FINAL_SINGLE_POINT_ENERGY>  (2338) 
0

>  <NONCOV_INTER_ENERGY_QM>  (2338) 
0

>  <FF_Energy>  (2338) 
45.02

>  <QM_Energy>  (2338) 
4.65

>  <source>  (2338) 
ACET_PRPA_30

>  <Index>  (2338) 
7827

$$$$
ACEH-pdb4v1x-A-GLH-125:PRPA-pdb4v1x-A-VAL-69
     RDKit          3D

 18 16  0  0  0  0  0  0  0  0999 V2000
    0.1214    1.5294   -0.1464 C   0  0  0  0  0  0  0  0  0  0  0  0
    0.7260    1.6937   -0.9223 H   0  0  0  0  0  0  0  0  0  0  0  0
    0.5476    1.8621    0.6919 H   0  0  0  0  0  0  0  0  0  0  0  0
   -0.8052    2.0805   -0.3068 H   0  0  0  0  0  0  0  0  0  0  0  0
    0.0000    0.0000    0.0000 C   0  0  0  0  0  0  0  0  0  0  0  0
   -1.1168   -0.6021    0.0000 O   0  0  0  0  0  0  0  0  0  0  0  0
    1.1168   -0.5974   -0.0000 O   0  0  0  0  0  0  0  0  0  0  0  0
   -0.6308   -3.3449   -1.8877 C   0  0  0  0  0  0  0  0  0  0  0  0
   -1.5396   -3.6629   -2.2565 H   0  0  0  0  0  0  0  0  0  0  0  0
   -0.7678   -3.1089   -0.8323 H   0  0  0  0  0  0  0  0  0  0  0  0
    0.1057   -4.1096   -2.1342 H   0  0  0  0  0  0  0  0  0  0  0  0
   -0.2572   -2.0618   -2.6100 C   0  0  0  0  0  0  0  0  0  0  0  0
    0.4921   -1.6280   -2.1070 H   0  0  0  0  0  0  0  0  0  0  0  0
    0.1135   -2.2632   -3.6151 H   0  0  0  0  0  0  0  0  0  0  0  0
   -1.4672   -1.1471   -2.6620 C   0  0  0  0  0  0  0  0  0  0  0  0
   -1.7448   -0.9097   -1.7305 H   0  0  0  0  0  0  0  0  0  0  0  0
   -1.2321   -0.3141   -3.1641 H   0  0  0  0  0  0  0  0  0  0  0  0
   -2.2186   -1.6172   -3.1260 H   0  0  0  0  0  0  0  0  0  0  0  0
  1  5  1  0
  5  6  2  0
  5  7  1  0
  1  2  1  0
  1  3  1  0
  1  4  1  0
  8 12  1  0
 12 15  1  0
  8  9  1  0
  8 10  1  0
  8 11  1  0
 12 13  1  0
 12 14  1  0
 15 16  1  0
 15 17  1  0
 15 18  1  0
M  CHG  1   7  -1
V    7 [O&-]
M  END
>  <PDB_ID>  (2339) 
pdb4v1x

>  <RESIDUE_NAME>  (2339) 
GLU   VAL

>  <FRAG_NAME>  (2339) 
ACET   PRPA

>  <FRAG_ATOM_NUM>  (2339) 
fragi: 7 fragj: 11

>  <atom.prop.CHAIN_ID>  (2339) 
A A A A A A A Z Z Z Z Z Z Z Z Z Z Z

>  <atom.prop.IS_HEAVY_ATOM>  (2339) 
1 0 0 0 1 1 1 1 0 0 0 1 0 0 1 0 0 0

>  <DIFUSE_FUNC_ATOM>  (2339) 
n/a

>  <FINAL_SINGLE_POINT_ENERGY>  (2339) 
0

>  <NONCOV_INTER_ENERGY_QM>  (2339) 
0

>  <FF_Energy>  (2339) 
20.9

>  <QM_Energy>  (2339) 
-2.15

>  <source>  (2339) 
ACET_PRPA_30

>  <Index>  (2339) 
7847

$$$$
ACEH-pdb4v1x-A-GLH-125:PRPA-pdb4v1x-A-VAL-69
     RDKit          3D

 18 16  0  0  0  0  0  0  0  0999 V2000
    0.1214    1.5294   -0.1464 C   0  0  0  0  0  0  0  0  0  0  0  0
    0.7260    1.6937   -0.9223 H   0  0  0  0  0  0  0  0  0  0  0  0
    0.5476    1.8621    0.6919 H   0  0  0  0  0  0  0  0  0  0  0  0
   -0.8052    2.0805   -0.3068 H   0  0  0  0  0  0  0  0  0  0  0  0
    0.0000    0.0000    0.0000 C   0  0  0  0  0  0  0  0  0  0  0  0
   -1.1168   -0.6021    0.0000 O   0  0  0  0  0  0  0  0  0  0  0  0
    1.1168   -0.5974   -0.0000 O   0  0  0  0  0  0  0  0  0  0  0  0
    0.2581   -2.3418   -4.0072 C   0  0  0  0  0  0  0  0  0  0  0  0
    0.9111   -1.6322   -4.2739 H   0  0  0  0  0  0  0  0  0  0  0  0
    0.7125   -3.2333   -4.0266 H   0  0  0  0  0  0  0  0  0  0  0  0
   -0.5058   -2.3468   -4.6543 H   0  0  0  0  0  0  0  0  0  0  0  0
   -0.2572   -2.0618   -2.6100 C   0  0  0  0  0  0  0  0  0  0  0  0
    0.4921   -1.6280   -2.1070 H   0  0  0  0  0  0  0  0  0  0  0  0
   -0.5253   -2.9824   -2.0917 H   0  0  0  0  0  0  0  0  0  0  0  0
   -1.4672   -1.1471   -2.6620 C   0  0  0  0  0  0  0  0  0  0  0  0
   -1.7448   -0.9097   -1.7305 H   0  0  0  0  0  0  0  0  0  0  0  0
   -1.2321   -0.3141   -3.1641 H   0  0  0  0  0  0  0  0  0  0  0  0
   -2.2186   -1.6172   -3.1260 H   0  0  0  0  0  0  0  0  0  0  0  0
  1  5  1  0
  5  6  2  0
  5  7  1  0
  1  2  1  0
  1  3  1  0
  1  4  1  0
  8 12  1  0
 12 15  1  0
  8  9  1  0
  8 10  1  0
  8 11  1  0
 12 13  1  0
 12 14  1  0
 15 16  1  0
 15 17  1  0
 15 18  1  0
M  CHG  1   7  -1
V    7 [O&-]
M  END
>  <PDB_ID>  (2340) 
pdb4v1x

>  <RESIDUE_NAME>  (2340) 
GLU   VAL

>  <FRAG_NAME>  (2340) 
ACET   PRPA

>  <FRAG_ATOM_NUM>  (2340) 
fragi: 7 fragj: 11

>  <atom.prop.CHAIN_ID>  (2340) 
A A A A A A A Z Z Z Z Z Z Z Z Z Z Z

>  <atom.prop.IS_HEAVY_ATOM>  (2340) 
1 0 0 0 1 1 1 1 0 0 0 1 0 0 1 0 0 0

>  <DIFUSE_FUNC_ATOM>  (2340) 
n/a

>  <FINAL_SINGLE_POINT_ENERGY>  (2340) 
0

>  <NONCOV_INTER_ENERGY_QM>  (2340) 
0

>  <FF_Energy>  (2340) 
19.91

>  <QM_Energy>  (2340) 
0.05

>  <source>  (2340) 
ACET_PRPA_30

>  <Index>  (2340) 
7862

$$$$
ACEH-pdb1ted-C-GLH-203:PRPA-pdb1ted-C-LEU-348
     RDKit          3D

 18 16  0  0  0  0  0  0  0  0999 V2000
   -0.0203    1.5309    0.0061 C   0  0  0  0  0  0  0  0  0  0  0  0
    0.5999    1.8280    0.7152 H   0  0  0  0  0  0  0  0  0  0  0  0
   -0.9489    1.8087    0.1979 H   0  0  0  0  0  0  0  0  0  0  0  0
    0.2885    1.9886   -0.9338 H   0  0  0  0  0  0  0  0  0  0  0  0
    0.0000    0.0000    0.0000 C   0  0  0  0  0  0  0  0  0  0  0  0
   -1.0992   -0.6030    0.0000 O   0  0  0  0  0  0  0  0  0  0  0  0
    1.0992   -0.5962   -0.0000 O   0  0  0  0  0  0  0  0  0  0  0  0
    0.8863    2.3676    2.9867 C   0  0  0  0  0  0  0  0  0  0  0  0
    0.7817    2.5762    2.0096 H   0  0  0  0  0  0  0  0  0  0  0  0
    1.0313    1.3812    3.0953 H   0  0  0  0  0  0  0  0  0  0  0  0
    1.7864    2.8733    3.3360 H   0  0  0  0  0  0  0  0  0  0  0  0
   -0.4549    2.7051    3.6661 C   0  0  0  0  0  0  0  0  0  0  0  0
   -0.5629    2.1174    4.4667 H   0  0  0  0  0  0  0  0  0  0  0  0
   -1.2856    2.4797    2.9972 H   0  0  0  0  0  0  0  0  0  0  0  0
   -0.4874    4.1610    4.0912 C   0  0  0  0  0  0  0  0  0  0  0  0
   -0.3755    4.7486    3.2880 H   0  0  0  0  0  0  0  0  0  0  0  0
   -1.3636    4.3642    4.5303 H   0  0  0  0  0  0  0  0  0  0  0  0
    0.2556    4.3394    4.7373 H   0  0  0  0  0  0  0  0  0  0  0  0
  1  5  1  0
  5  6  2  0
  5  7  1  0
  1  2  1  0
  1  3  1  0
  1  4  1  0
  8 12  1  0
 12 15  1  0
  8  9  1  0
  8 10  1  0
  8 11  1  0
 12 13  1  0
 12 14  1  0
 15 16  1  0
 15 17  1  0
 15 18  1  0
M  CHG  1   7  -1
V    7 [O&-]
M  END
>  <PDB_ID>  (2341) 
pdb1ted

>  <RESIDUE_NAME>  (2341) 
GLU   LEU

>  <FRAG_NAME>  (2341) 
ACET   PRPA

>  <FRAG_ATOM_NUM>  (2341) 
fragi: 7 fragj: 11

>  <atom.prop.CHAIN_ID>  (2341) 
A A A A A A A Z Z Z Z Z Z Z Z Z Z Z

>  <atom.prop.IS_HEAVY_ATOM>  (2341) 
1 0 0 0 1 1 1 1 0 0 0 1 0 0 1 0 0 0

>  <DIFUSE_FUNC_ATOM>  (2341) 
n/a

>  <FINAL_SINGLE_POINT_ENERGY>  (2341) 
0

>  <NONCOV_INTER_ENERGY_QM>  (2341) 
0

>  <FF_Energy>  (2341) 
26.55

>  <QM_Energy>  (2341) 
3.75

>  <source>  (2341) 
ACET_PRPA_30

>  <Index>  (2341) 
8109

$$$$
ACEH-pdb4v1x-D-GLH-125:PRPA-pdb4v1x-D-VAL-69
     RDKit          3D

 18 16  0  0  0  0  0  0  0  0999 V2000
   -0.1246    1.5201    0.0256 C   0  0  0  0  0  0  0  0  0  0  0  0
   -0.7278    1.7514    0.7878 H   0  0  0  0  0  0  0  0  0  0  0  0
   -0.5524    1.7925   -0.8346 H   0  0  0  0  0  0  0  0  0  0  0  0
    0.8002    2.0855    0.1413 H   0  0  0  0  0  0  0  0  0  0  0  0
    0.0000    0.0000    0.0000 C   0  0  0  0  0  0  0  0  0  0  0  0
   -1.1167   -0.6102    0.0000 O   0  0  0  0  0  0  0  0  0  0  0  0
    1.1167   -0.5997    0.0000 O   0  0  0  0  0  0  0  0  0  0  0  0
    0.6680   -3.2352    2.0208 C   0  0  0  0  0  0  0  0  0  0  0  0
    1.5800   -3.5088    2.4274 H   0  0  0  0  0  0  0  0  0  0  0  0
    0.8111   -3.0599    0.9546 H   0  0  0  0  0  0  0  0  0  0  0  0
   -0.0505   -3.9979    2.3208 H   0  0  0  0  0  0  0  0  0  0  0  0
    0.2825   -1.9130    2.6746 C   0  0  0  0  0  0  0  0  0  0  0  0
   -0.4746   -1.5186    2.1541 H   0  0  0  0  0  0  0  0  0  0  0  0
   -0.0806   -2.0651    3.6910 H   0  0  0  0  0  0  0  0  0  0  0  0
    1.4954   -1.0008    2.6807 C   0  0  0  0  0  0  0  0  0  0  0  0
    1.7987   -0.8454    1.7395 H   0  0  0  0  0  0  0  0  0  0  0  0
    1.2513   -0.1269    3.1033 H   0  0  0  0  0  0  0  0  0  0  0  0
    2.2320   -1.4318    3.2034 H   0  0  0  0  0  0  0  0  0  0  0  0
  1  5  1  0
  5  6  2  0
  5  7  1  0
  1  2  1  0
  1  3  1  0
  1  4  1  0
  8 12  1  0
 12 15  1  0
  8  9  1  0
  8 10  1  0
  8 11  1  0
 12 13  1  0
 12 14  1  0
 15 16  1  0
 15 17  1  0
 15 18  1  0
M  CHG  1   7  -1
V    7 [O&-]
M  END
>  <PDB_ID>  (2342) 
pdb4v1x

>  <RESIDUE_NAME>  (2342) 
GLU   VAL

>  <FRAG_NAME>  (2342) 
ACET   PRPA

>  <FRAG_ATOM_NUM>  (2342) 
fragi: 7 fragj: 11

>  <atom.prop.CHAIN_ID>  (2342) 
A A A A A A A Z Z Z Z Z Z Z Z Z Z Z

>  <atom.prop.IS_HEAVY_ATOM>  (2342) 
1 0 0 0 1 1 1 1 0 0 0 1 0 0 1 0 0 0

>  <DIFUSE_FUNC_ATOM>  (2342) 
n/a

>  <FINAL_SINGLE_POINT_ENERGY>  (2342) 
0

>  <NONCOV_INTER_ENERGY_QM>  (2342) 
0

>  <FF_Energy>  (2342) 
19.26

>  <QM_Energy>  (2342) 
-2.13

>  <source>  (2342) 
ACET_PRPA_30

>  <Index>  (2342) 
8190

$$$$
ACEH-pdb4v1x-E-GLH-125:PRPA-pdb4v1x-E-VAL-69
     RDKit          3D

 18 16  0  0  0  0  0  0  0  0999 V2000
   -0.0991    1.5444    0.0008 C   0  0  0  0  0  0  0  0  0  0  0  0
   -0.7102    1.7922    0.7489 H   0  0  0  0  0  0  0  0  0  0  0  0
   -0.5082    1.8042   -0.8711 H   0  0  0  0  0  0  0  0  0  0  0  0
    0.8288    2.1035    0.1215 H   0  0  0  0  0  0  0  0  0  0  0  0
    0.0000    0.0000    0.0000 C   0  0  0  0  0  0  0  0  0  0  0  0
   -1.1216   -0.5743   -0.0000 O   0  0  0  0  0  0  0  0  0  0  0  0
    1.1216   -0.6065   -0.0000 O   0  0  0  0  0  0  0  0  0  0  0  0
    0.2531   -3.2668    1.6900 C   0  0  0  0  0  0  0  0  0  0  0  0
    1.1203   -3.6442    2.1116 H   0  0  0  0  0  0  0  0  0  0  0  0
    0.4439   -3.0467    0.6397 H   0  0  0  0  0  0  0  0  0  0  0  0
   -0.5382   -3.9815    1.9165 H   0  0  0  0  0  0  0  0  0  0  0  0
   -0.0585   -1.9361    2.4100 C   0  0  0  0  0  0  0  0  0  0  0  0
   -0.7697   -1.4728    1.8896 H   0  0  0  0  0  0  0  0  0  0  0  0
   -0.4582   -2.1196    3.4073 H   0  0  0  0  0  0  0  0  0  0  0  0
    1.2204   -1.1522    2.4793 C   0  0  0  0  0  0  0  0  0  0  0  0
    1.0318   -0.1784    2.3272 H   0  0  0  0  0  0  0  0  0  0  0  0
    1.6416   -1.2682    3.3824 H   0  0  0  0  0  0  0  0  0  0  0  0
    1.8574   -1.4770    1.7757 H   0  0  0  0  0  0  0  0  0  0  0  0
  1  5  1  0
  5  6  2  0
  5  7  1  0
  1  2  1  0
  1  3  1  0
  1  4  1  0
  8 12  1  0
 12 15  1  0
  8  9  1  0
  8 10  1  0
  8 11  1  0
 12 13  1  0
 12 14  1  0
 15 16  1  0
 15 17  1  0
 15 18  1  0
M  CHG  1   7  -1
V    7 [O&-]
M  END
>  <PDB_ID>  (2343) 
pdb4v1x

>  <RESIDUE_NAME>  (2343) 
GLU   VAL

>  <FRAG_NAME>  (2343) 
ACET   PRPA

>  <FRAG_ATOM_NUM>  (2343) 
fragi: 7 fragj: 11

>  <atom.prop.CHAIN_ID>  (2343) 
A A A A A A A Z Z Z Z Z Z Z Z Z Z Z

>  <atom.prop.IS_HEAVY_ATOM>  (2343) 
1 0 0 0 1 1 1 1 0 0 0 1 0 0 1 0 0 0

>  <DIFUSE_FUNC_ATOM>  (2343) 
n/a

>  <FINAL_SINGLE_POINT_ENERGY>  (2343) 
0

>  <NONCOV_INTER_ENERGY_QM>  (2343) 
0

>  <FF_Energy>  (2343) 
21.74

>  <QM_Energy>  (2343) 
1.64

>  <source>  (2343) 
ACET_PRPA_30

>  <Index>  (2343) 
8294

$$$$
ACEH-pdb4v1x-E-GLH-125:PRPA-pdb4v1x-E-VAL-69
     RDKit          3D

 18 16  0  0  0  0  0  0  0  0999 V2000
   -0.0991    1.5444    0.0008 C   0  0  0  0  0  0  0  0  0  0  0  0
   -0.7102    1.7922    0.7489 H   0  0  0  0  0  0  0  0  0  0  0  0
   -0.5082    1.8042   -0.8711 H   0  0  0  0  0  0  0  0  0  0  0  0
    0.8288    2.1035    0.1215 H   0  0  0  0  0  0  0  0  0  0  0  0
    0.0000    0.0000    0.0000 C   0  0  0  0  0  0  0  0  0  0  0  0
   -1.1216   -0.5743   -0.0000 O   0  0  0  0  0  0  0  0  0  0  0  0
    1.1216   -0.6065   -0.0000 O   0  0  0  0  0  0  0  0  0  0  0  0
   -0.6160   -2.1920    3.8010 C   0  0  0  0  0  0  0  0  0  0  0  0
   -0.4389   -1.3982    4.3839 H   0  0  0  0  0  0  0  0  0  0  0  0
   -1.6023   -2.3485    3.7424 H   0  0  0  0  0  0  0  0  0  0  0  0
   -0.1748   -2.9981    4.1954 H   0  0  0  0  0  0  0  0  0  0  0  0
   -0.0585   -1.9361    2.4100 C   0  0  0  0  0  0  0  0  0  0  0  0
   -0.7697   -1.4728    1.8896 H   0  0  0  0  0  0  0  0  0  0  0  0
    0.1614   -2.8750    1.9019 H   0  0  0  0  0  0  0  0  0  0  0  0
    1.2204   -1.1522    2.4793 C   0  0  0  0  0  0  0  0  0  0  0  0
    1.0318   -0.1784    2.3272 H   0  0  0  0  0  0  0  0  0  0  0  0
    1.6416   -1.2682    3.3824 H   0  0  0  0  0  0  0  0  0  0  0  0
    1.8574   -1.4770    1.7757 H   0  0  0  0  0  0  0  0  0  0  0  0
  1  5  1  0
  5  6  2  0
  5  7  1  0
  1  2  1  0
  1  3  1  0
  1  4  1  0
  8 12  1  0
 12 15  1  0
  8  9  1  0
  8 10  1  0
  8 11  1  0
 12 13  1  0
 12 14  1  0
 15 16  1  0
 15 17  1  0
 15 18  1  0
M  CHG  1   7  -1
V    7 [O&-]
M  END
>  <PDB_ID>  (2344) 
pdb4v1x

>  <RESIDUE_NAME>  (2344) 
GLU   VAL

>  <FRAG_NAME>  (2344) 
ACET   PRPA

>  <FRAG_ATOM_NUM>  (2344) 
fragi: 7 fragj: 11

>  <atom.prop.CHAIN_ID>  (2344) 
A A A A A A A Z Z Z Z Z Z Z Z Z Z Z

>  <atom.prop.IS_HEAVY_ATOM>  (2344) 
1 0 0 0 1 1 1 1 0 0 0 1 0 0 1 0 0 0

>  <DIFUSE_FUNC_ATOM>  (2344) 
n/a

>  <FINAL_SINGLE_POINT_ENERGY>  (2344) 
0

>  <NONCOV_INTER_ENERGY_QM>  (2344) 
0

>  <FF_Energy>  (2344) 
20.21

>  <QM_Energy>  (2344) 
3.89

>  <source>  (2344) 
ACET_PRPA_30

>  <Index>  (2344) 
8312

$$$$
ACEH-pdb1u79-E-GLH-124:PRPA-pdb1u79-C-GLU-42
     RDKit          3D

 18 16  0  0  0  0  0  0  0  0999 V2000
    0.0107    1.4864   -0.0017 C   0  0  0  0  0  0  0  0  0  0  0  0
   -0.4321    1.7946   -0.8290 H   0  0  0  0  0  0  0  0  0  0  0  0
    0.9515    1.7839    0.0377 H   0  0  0  0  0  0  0  0  0  0  0  0
   -0.5212    1.9096    0.8504 H   0  0  0  0  0  0  0  0  0  0  0  0
    0.0000    0.0000    0.0000 C   0  0  0  0  0  0  0  0  0  0  0  0
   -1.0990   -0.5923   -0.0000 O   0  0  0  0  0  0  0  0  0  0  0  0
    1.0990   -0.5765    0.0000 O   0  0  0  0  0  0  0  0  0  0  0  0
    2.5178   -3.9312   -1.7478 C   0  0  0  0  0  0  0  0  0  0  0  0
    2.2909   -3.9651   -2.7443 H   0  0  0  0  0  0  0  0  0  0  0  0
    2.0928   -4.8032   -1.2508 H   0  0  0  0  0  0  0  0  0  0  0  0
    3.5967   -3.8270   -1.6335 H   0  0  0  0  0  0  0  0  0  0  0  0
    1.8146   -2.6719   -1.2402 C   0  0  0  0  0  0  0  0  0  0  0  0
    1.7283   -2.7482   -0.2617 H   0  0  0  0  0  0  0  0  0  0  0  0
    2.3612   -1.8947   -1.5011 H   0  0  0  0  0  0  0  0  0  0  0  0
    0.4134   -2.4569   -1.8073 C   0  0  0  0  0  0  0  0  0  0  0  0
   -0.0682   -3.3110   -1.7651 H   0  0  0  0  0  0  0  0  0  0  0  0
   -0.0264   -1.7527   -1.2821 H   0  0  0  0  0  0  0  0  0  0  0  0
    0.4229   -2.1342   -2.8485 H   0  0  0  0  0  0  0  0  0  0  0  0
  1  5  1  0
  5  6  2  0
  5  7  1  0
  1  2  1  0
  1  3  1  0
  1  4  1  0
  8 12  1  0
 12 15  1  0
  8  9  1  0
  8 10  1  0
  8 11  1  0
 12 13  1  0
 12 14  1  0
 15 16  1  0
 15 17  1  0
 15 18  1  0
M  CHG  1   7  -1
V    7 [O&-]
M  END
>  <PDB_ID>  (2345) 
pdb1u79

>  <RESIDUE_NAME>  (2345) 
GLU   GLU

>  <FRAG_NAME>  (2345) 
ACET   PRPA

>  <FRAG_ATOM_NUM>  (2345) 
fragi: 7 fragj: 11

>  <atom.prop.CHAIN_ID>  (2345) 
A A A A A A A Z Z Z Z Z Z Z Z Z Z Z

>  <atom.prop.IS_HEAVY_ATOM>  (2345) 
1 0 0 0 1 1 1 1 0 0 0 1 0 0 1 0 0 0

>  <DIFUSE_FUNC_ATOM>  (2345) 
n/a

>  <FINAL_SINGLE_POINT_ENERGY>  (2345) 
0

>  <NONCOV_INTER_ENERGY_QM>  (2345) 
0

>  <FF_Energy>  (2345) 
28.85

>  <QM_Energy>  (2345) 
4.03

>  <source>  (2345) 
ACET_PRPA_30

>  <Index>  (2345) 
9688

$$$$
ACEH-pdb1tyf-C-ASH-78:PRPA-pdb1tyf-D-LEU-114
     RDKit          3D

 18 16  0  0  0  0  0  0  0  0999 V2000
    0.0051    1.5209   -0.0335 C   0  0  0  0  0  0  0  0  0  0  0  0
   -0.7043    1.8521    0.5747 H   0  0  0  0  0  0  0  0  0  0  0  0
   -0.1623    1.8172   -0.9644 H   0  0  0  0  0  0  0  0  0  0  0  0
    0.9584    1.9367    0.2928 H   0  0  0  0  0  0  0  0  0  0  0  0
    0.0000    0.0000    0.0000 C   0  0  0  0  0  0  0  0  0  0  0  0
   -1.1048   -0.5901    0.0000 O   0  0  0  0  0  0  0  0  0  0  0  0
    1.1048   -0.6068    0.0000 O   0  0  0  0  0  0  0  0  0  0  0  0
   -2.8418    1.0227   -2.4750 C   0  0  0  0  0  0  0  0  0  0  0  0
   -3.7267    0.8760   -1.9877 H   0  0  0  0  0  0  0  0  0  0  0  0
   -2.1293    0.5384   -1.9300 H   0  0  0  0  0  0  0  0  0  0  0  0
   -2.9133    0.5200   -3.4395 H   0  0  0  0  0  0  0  0  0  0  0  0
   -2.5283    2.5272   -2.3664 C   0  0  0  0  0  0  0  0  0  0  0  0
   -2.6367    2.8078   -1.4051 H   0  0  0  0  0  0  0  0  0  0  0  0
   -3.2589    3.0994   -2.9382 H   0  0  0  0  0  0  0  0  0  0  0  0
   -1.1207    2.8681   -2.8375 C   0  0  0  0  0  0  0  0  0  0  0  0
   -1.0158    2.6015   -3.7958 H   0  0  0  0  0  0  0  0  0  0  0  0
   -0.9673    3.8518   -2.7469 H   0  0  0  0  0  0  0  0  0  0  0  0
   -0.4536    2.3745   -2.2791 H   0  0  0  0  0  0  0  0  0  0  0  0
  1  5  1  0
  5  6  2  0
  5  7  1  0
  1  2  1  0
  1  3  1  0
  1  4  1  0
  8 12  1  0
 12 15  1  0
  8  9  1  0
  8 10  1  0
  8 11  1  0
 12 13  1  0
 12 14  1  0
 15 16  1  0
 15 17  1  0
 15 18  1  0
M  CHG  1   7  -1
V    7 [O&-]
M  END
>  <PDB_ID>  (2346) 
pdb1tyf

>  <RESIDUE_NAME>  (2346) 
ASP   LEU

>  <FRAG_NAME>  (2346) 
ACET   PRPA

>  <FRAG_ATOM_NUM>  (2346) 
fragi: 7 fragj: 11

>  <atom.prop.CHAIN_ID>  (2346) 
A A A A A A A Z Z Z Z Z Z Z Z Z Z Z

>  <atom.prop.IS_HEAVY_ATOM>  (2346) 
1 0 0 0 1 1 1 1 0 0 0 1 0 0 1 0 0 0

>  <DIFUSE_FUNC_ATOM>  (2346) 
n/a

>  <FINAL_SINGLE_POINT_ENERGY>  (2346) 
0

>  <NONCOV_INTER_ENERGY_QM>  (2346) 
0

>  <FF_Energy>  (2346) 
37.46

>  <QM_Energy>  (2346) 
2.16

>  <source>  (2346) 
ACET_PRPA_30

>  <Index>  (2346) 
10824

$$$$
ACEH-pdb3s0z-B-ASH-90:PRPA-pdb3s0z-B-LYN-125
     RDKit          3D

 18 16  0  0  0  0  0  0  0  0999 V2000
    0.0287    1.4596   -0.0035 C   0  0  0  0  0  0  0  0  0  0  0  0
   -0.8358    1.8159   -0.3630 H   0  0  0  0  0  0  0  0  0  0  0  0
    0.7823    1.7838   -0.5757 H   0  0  0  0  0  0  0  0  0  0  0  0
    0.1674    1.8763    0.9942 H   0  0  0  0  0  0  0  0  0  0  0  0
    0.0000    0.0000    0.0000 C   0  0  0  0  0  0  0  0  0  0  0  0
   -1.0962   -0.5963    0.0000 O   0  0  0  0  0  0  0  0  0  0  0  0
    1.0962   -0.5471    0.0000 O   0  0  0  0  0  0  0  0  0  0  0  0
    1.9394   -2.9659    0.3683 C   0  0  0  0  0  0  0  0  0  0  0  0
    2.1214   -2.0476   -0.0125 H   0  0  0  0  0  0  0  0  0  0  0  0
    2.7413   -3.6396    0.0664 H   0  0  0  0  0  0  0  0  0  0  0  0
    1.8642   -2.8786    1.4522 H   0  0  0  0  0  0  0  0  0  0  0  0
    0.5993   -3.3870   -0.2630 C   0  0  0  0  0  0  0  0  0  0  0  0
    0.3432   -4.2746    0.1096 H   0  0  0  0  0  0  0  0  0  0  0  0
   -0.0861   -2.7053   -0.0237 H   0  0  0  0  0  0  0  0  0  0  0  0
    0.6328   -3.5088   -1.7996 C   0  0  0  0  0  0  0  0  0  0  0  0
    1.3881   -4.1357   -2.0526 H   0  0  0  0  0  0  0  0  0  0  0  0
   -0.2324   -3.9391   -2.1044 H   0  0  0  0  0  0  0  0  0  0  0  0
    0.7638   -2.5696   -2.3368 H   0  0  0  0  0  0  0  0  0  0  0  0
  1  5  1  0
  5  6  2  0
  5  7  1  0
  1  2  1  0
  1  3  1  0
  1  4  1  0
  8 12  1  0
 12 15  1  0
  8  9  1  0
  8 10  1  0
  8 11  1  0
 12 13  1  0
 12 14  1  0
 15 16  1  0
 15 17  1  0
 15 18  1  0
M  CHG  1   7  -1
V    7 [O&-]
M  END
>  <PDB_ID>  (2347) 
pdb3s0z

>  <RESIDUE_NAME>  (2347) 
ASP   LYN

>  <FRAG_NAME>  (2347) 
ACET   PRPA

>  <FRAG_ATOM_NUM>  (2347) 
fragi: 7 fragj: 11

>  <atom.prop.CHAIN_ID>  (2347) 
A A A A A A A Z Z Z Z Z Z Z Z Z Z Z

>  <atom.prop.IS_HEAVY_ATOM>  (2347) 
1 0 0 0 1 1 1 1 0 0 0 1 0 0 1 0 0 0

>  <DIFUSE_FUNC_ATOM>  (2347) 
n/a

>  <FINAL_SINGLE_POINT_ENERGY>  (2347) 
0

>  <NONCOV_INTER_ENERGY_QM>  (2347) 
0

>  <FF_Energy>  (2347) 
32.08

>  <QM_Energy>  (2347) 
1.33

>  <source>  (2347) 
ACET_PRPA_30

>  <Index>  (2347) 
11628

$$$$
ACEH-pdb3sbx-E-GLH-93:PRPA-pdb3sbx-B-ARG-40
     RDKit          3D

 18 16  0  0  0  0  0  0  0  0999 V2000
   -0.1791    1.4854   -0.0142 C   0  0  0  0  0  0  0  0  0  0  0  0
   -0.6969    1.7384    0.8028 H   0  0  0  0  0  0  0  0  0  0  0  0
   -0.7095    1.7210   -0.8289 H   0  0  0  0  0  0  0  0  0  0  0  0
    0.7318    2.0839   -0.0264 H   0  0  0  0  0  0  0  0  0  0  0  0
    0.0000    0.0000    0.0000 C   0  0  0  0  0  0  0  0  0  0  0  0
   -1.0891   -0.6095    0.0000 O   0  0  0  0  0  0  0  0  0  0  0  0
    1.0891   -0.5569   -0.0000 O   0  0  0  0  0  0  0  0  0  0  0  0
    2.6808   -1.6636   -2.7925 C   0  0  0  0  0  0  0  0  0  0  0  0
    3.1350   -2.5395   -2.7378 H   0  0  0  0  0  0  0  0  0  0  0  0
    3.1034   -0.9997   -2.1949 H   0  0  0  0  0  0  0  0  0  0  0  0
    2.7540   -1.3005   -3.8176 H   0  0  0  0  0  0  0  0  0  0  0  0
    1.2356   -1.8508   -2.3472 C   0  0  0  0  0  0  0  0  0  0  0  0
    0.8994   -0.9942   -1.9437 H   0  0  0  0  0  0  0  0  0  0  0  0
    0.6692   -2.0737   -3.1461 H   0  0  0  0  0  0  0  0  0  0  0  0
    1.0512   -2.9589   -1.3186 C   0  0  0  0  0  0  0  0  0  0  0  0
    1.2844   -3.8189   -1.7456 H   0  0  0  0  0  0  0  0  0  0  0  0
    1.6443   -2.7667   -0.5492 H   0  0  0  0  0  0  0  0  0  0  0  0
    0.0160   -2.9916   -0.9788 H   0  0  0  0  0  0  0  0  0  0  0  0
  1  5  1  0
  5  6  2  0
  5  7  1  0
  1  2  1  0
  1  3  1  0
  1  4  1  0
  8 12  1  0
 12 15  1  0
  8  9  1  0
  8 10  1  0
  8 11  1  0
 12 13  1  0
 12 14  1  0
 15 16  1  0
 15 17  1  0
 15 18  1  0
M  CHG  1   7  -1
V    7 [O&-]
M  END
>  <PDB_ID>  (2348) 
pdb3sbx

>  <RESIDUE_NAME>  (2348) 
GLU   ARG

>  <FRAG_NAME>  (2348) 
ACET   PRPA

>  <FRAG_ATOM_NUM>  (2348) 
fragi: 7 fragj: 11

>  <atom.prop.CHAIN_ID>  (2348) 
A A A A A A A Z Z Z Z Z Z Z Z Z Z Z

>  <atom.prop.IS_HEAVY_ATOM>  (2348) 
1 0 0 0 1 1 1 1 0 0 0 1 0 0 1 0 0 0

>  <DIFUSE_FUNC_ATOM>  (2348) 
n/a

>  <FINAL_SINGLE_POINT_ENERGY>  (2348) 
0

>  <NONCOV_INTER_ENERGY_QM>  (2348) 
0

>  <FF_Energy>  (2348) 
17.47

>  <QM_Energy>  (2348) 
0.17

>  <source>  (2348) 
ACET_PRPA_30

>  <Index>  (2348) 
12836

$$$$
ACEH-pdb1vkj-B-ASH-222:PRPA-pdb1vkj-B-ARG-151
     RDKit          3D

 18 16  0  0  0  0  0  0  0  0999 V2000
    0.0216    1.5331    0.0219 C   0  0  0  0  0  0  0  0  0  0  0  0
    0.6786    1.8458   -0.6550 H   0  0  0  0  0  0  0  0  0  0  0  0
    0.2905    1.8289    0.9307 H   0  0  0  0  0  0  0  0  0  0  0  0
   -0.9452    1.9794   -0.2104 H   0  0  0  0  0  0  0  0  0  0  0  0
    0.0000    0.0000    0.0000 C   0  0  0  0  0  0  0  0  0  0  0  0
   -1.0947   -0.6004    0.0000 O   0  0  0  0  0  0  0  0  0  0  0  0
    1.0947   -0.6079   -0.0000 O   0  0  0  0  0  0  0  0  0  0  0  0
   -1.7291   -2.0201   -3.0323 C   0  0  0  0  0  0  0  0  0  0  0  0
   -1.0690   -1.2726   -3.0603 H   0  0  0  0  0  0  0  0  0  0  0  0
   -2.1385   -2.1790   -4.0299 H   0  0  0  0  0  0  0  0  0  0  0  0
   -1.2143   -2.9346   -2.7375 H   0  0  0  0  0  0  0  0  0  0  0  0
   -2.7992   -1.5764   -2.0340 C   0  0  0  0  0  0  0  0  0  0  0  0
   -2.3459   -1.5141   -1.1174 H   0  0  0  0  0  0  0  0  0  0  0  0
   -3.0578   -0.6157   -2.2788 H   0  0  0  0  0  0  0  0  0  0  0  0
   -4.0441   -2.3709   -1.8863 C   0  0  0  0  0  0  0  0  0  0  0  0
   -4.4483   -2.5505   -2.7533 H   0  0  0  0  0  0  0  0  0  0  0  0
   -3.8872   -3.1685   -1.3504 H   0  0  0  0  0  0  0  0  0  0  0  0
   -4.7246   -1.7269   -1.3293 H   0  0  0  0  0  0  0  0  0  0  0  0
  1  5  1  0
  5  6  2  0
  5  7  1  0
  1  2  1  0
  1  3  1  0
  1  4  1  0
  8 12  1  0
 12 15  1  0
  8  9  1  0
  8 10  1  0
  8 11  1  0
 12 13  1  0
 12 14  1  0
 15 16  1  0
 15 17  1  0
 15 18  1  0
M  CHG  1   7  -1
V    7 [O&-]
M  END
>  <PDB_ID>  (2349) 
pdb1vkj

>  <RESIDUE_NAME>  (2349) 
ASP   ARG

>  <FRAG_NAME>  (2349) 
ACET   PRPA

>  <FRAG_ATOM_NUM>  (2349) 
fragi: 7 fragj: 11

>  <atom.prop.CHAIN_ID>  (2349) 
A A A A A A A Z Z Z Z Z Z Z Z Z Z Z

>  <atom.prop.IS_HEAVY_ATOM>  (2349) 
1 0 0 0 1 1 1 1 0 0 0 1 0 0 1 0 0 0

>  <DIFUSE_FUNC_ATOM>  (2349) 
n/a

>  <FINAL_SINGLE_POINT_ENERGY>  (2349) 
0

>  <NONCOV_INTER_ENERGY_QM>  (2349) 
0

>  <FF_Energy>  (2349) 
14.37

>  <QM_Energy>  (2349) 
-1.54

>  <source>  (2349) 
ACET_PRPA_30

>  <Index>  (2349) 
12992

$$$$
ACEH-pdb1vkj-C-GLH-122:PRPA-pdb1vkj-C-ILE-62
     RDKit          3D

 18 16  0  0  0  0  0  0  0  0999 V2000
   -0.1694    1.4815   -0.0144 C   0  0  0  0  0  0  0  0  0  0  0  0
   -0.6902    1.7401    0.8030 H   0  0  0  0  0  0  0  0  0  0  0  0
   -0.7006    1.7228   -0.8290 H   0  0  0  0  0  0  0  0  0  0  0  0
    0.7408    2.0811   -0.0259 H   0  0  0  0  0  0  0  0  0  0  0  0
    0.0000    0.0000    0.0000 C   0  0  0  0  0  0  0  0  0  0  0  0
   -1.0898   -0.6070   -0.0000 O   0  0  0  0  0  0  0  0  0  0  0  0
    1.0898   -0.5617    0.0000 O   0  0  0  0  0  0  0  0  0  0  0  0
   -2.8813    1.0923   -1.6836 C   0  0  0  0  0  0  0  0  0  0  0  0
   -1.9816    1.2518   -1.2827 H   0  0  0  0  0  0  0  0  0  0  0  0
   -3.5754    1.2213   -0.9785 H   0  0  0  0  0  0  0  0  0  0  0  0
   -2.9320    0.0626   -2.0377 H   0  0  0  0  0  0  0  0  0  0  0  0
   -3.1140    2.1093   -2.7822 C   0  0  0  0  0  0  0  0  0  0  0  0
   -3.8791    1.7999   -3.3403 H   0  0  0  0  0  0  0  0  0  0  0  0
   -3.3815    3.0765   -2.3566 H   0  0  0  0  0  0  0  0  0  0  0  0
   -1.8980    2.2428   -3.6692 C   0  0  0  0  0  0  0  0  0  0  0  0
   -1.6893    1.3612   -4.0933 H   0  0  0  0  0  0  0  0  0  0  0  0
   -2.0738    2.9183   -4.3854 H   0  0  0  0  0  0  0  0  0  0  0  0
   -1.1123    2.5388   -3.1244 H   0  0  0  0  0  0  0  0  0  0  0  0
  1  5  1  0
  5  6  2  0
  5  7  1  0
  1  2  1  0
  1  3  1  0
  1  4  1  0
  8 12  1  0
 12 15  1  0
  8  9  1  0
  8 10  1  0
  8 11  1  0
 12 13  1  0
 12 14  1  0
 15 16  1  0
 15 17  1  0
 15 18  1  0
M  CHG  1   7  -1
V    7 [O&-]
M  END
>  <PDB_ID>  (2350) 
pdb1vkj

>  <RESIDUE_NAME>  (2350) 
GLU   ILE

>  <FRAG_NAME>  (2350) 
ACET   PRPA

>  <FRAG_ATOM_NUM>  (2350) 
fragi: 7 fragj: 11

>  <atom.prop.CHAIN_ID>  (2350) 
A A A A A A A Z Z Z Z Z Z Z Z Z Z Z

>  <atom.prop.IS_HEAVY_ATOM>  (2350) 
1 0 0 0 1 1 1 1 0 0 0 1 0 0 1 0 0 0

>  <DIFUSE_FUNC_ATOM>  (2350) 
n/a

>  <FINAL_SINGLE_POINT_ENERGY>  (2350) 
0

>  <NONCOV_INTER_ENERGY_QM>  (2350) 
0

>  <FF_Energy>  (2350) 
48.18

>  <QM_Energy>  (2350) 
5.47

>  <source>  (2350) 
ACET_PRPA_30

>  <Index>  (2350) 
13060

$$$$
ACEH-pdb1wp4-A-GLH-181:PRPA-pdb1wp4-B-PRO-251
     RDKit          3D

 18 16  0  0  0  0  0  0  0  0999 V2000
    0.0053    1.5230   -0.0171 C   0  0  0  0  0  0  0  0  0  0  0  0
   -0.6390    1.8269    0.6541 H   0  0  0  0  0  0  0  0  0  0  0  0
   -0.2287    1.8071   -0.9251 H   0  0  0  0  0  0  0  0  0  0  0  0
    0.9838    1.9331    0.2327 H   0  0  0  0  0  0  0  0  0  0  0  0
    0.0000    0.0000    0.0000 C   0  0  0  0  0  0  0  0  0  0  0  0
   -1.0963   -0.5982   -0.0000 O   0  0  0  0  0  0  0  0  0  0  0  0
    1.0963   -0.6023    0.0000 O   0  0  0  0  0  0  0  0  0  0  0  0
   -3.3577   -4.0371   -0.4003 C   0  0  0  0  0  0  0  0  0  0  0  0
   -3.1992   -4.7058   -1.1184 H   0  0  0  0  0  0  0  0  0  0  0  0
   -4.1857   -4.2584    0.1028 H   0  0  0  0  0  0  0  0  0  0  0  0
   -2.4995   -3.9729    0.2686 H   0  0  0  0  0  0  0  0  0  0  0  0
   -3.4348   -2.6459   -0.9736 C   0  0  0  0  0  0  0  0  0  0  0  0
   -2.7167   -2.5044   -1.6394 H   0  0  0  0  0  0  0  0  0  0  0  0
   -4.3263   -2.4830   -1.3679 H   0  0  0  0  0  0  0  0  0  0  0  0
   -3.2167   -1.7919    0.2527 C   0  0  0  0  0  0  0  0  0  0  0  0
   -2.8723   -0.8895    0.0104 H   0  0  0  0  0  0  0  0  0  0  0  0
   -4.0524   -1.7059    0.7901 H   0  0  0  0  0  0  0  0  0  0  0  0
   -2.4627   -2.3563    0.8016 H   0  0  0  0  0  0  0  0  0  0  0  0
  1  5  1  0
  5  6  2  0
  5  7  1  0
  1  2  1  0
  1  3  1  0
  1  4  1  0
  8 12  1  0
 12 15  1  0
  8  9  1  0
  8 10  1  0
  8 11  1  0
 12 13  1  0
 12 14  1  0
 15 16  1  0
 15 17  1  0
 15 18  1  0
M  CHG  1   7  -1
V    7 [O&-]
M  END
>  <PDB_ID>  (2351) 
pdb1wp4

>  <RESIDUE_NAME>  (2351) 
GLU   PRO

>  <FRAG_NAME>  (2351) 
ACET   PRPA

>  <FRAG_ATOM_NUM>  (2351) 
fragi: 7 fragj: 11

>  <atom.prop.CHAIN_ID>  (2351) 
A A A A A A A Z Z Z Z Z Z Z Z Z Z Z

>  <atom.prop.IS_HEAVY_ATOM>  (2351) 
1 0 0 0 1 1 1 1 0 0 0 1 0 0 1 0 0 0

>  <DIFUSE_FUNC_ATOM>  (2351) 
n/a

>  <FINAL_SINGLE_POINT_ENERGY>  (2351) 
0

>  <NONCOV_INTER_ENERGY_QM>  (2351) 
0

>  <FF_Energy>  (2351) 
39.53

>  <QM_Energy>  (2351) 
7.01

>  <source>  (2351) 
ACET_PRPA_30

>  <Index>  (2351) 
15666

$$$$
ACEH-pdb1wvg-B-GLH-1033:PRPA-pdb1wvg-B-ILE-1352
     RDKit          3D

 18 16  0  0  0  0  0  0  0  0999 V2000
    0.1957    1.4923    0.0130 C   0  0  0  0  0  0  0  0  0  0  0  0
    0.7089    1.7384   -0.8036 H   0  0  0  0  0  0  0  0  0  0  0  0
    0.7206    1.7210    0.8282 H   0  0  0  0  0  0  0  0  0  0  0  0
   -0.7160    2.0897    0.0249 H   0  0  0  0  0  0  0  0  0  0  0  0
    0.0000    0.0000    0.0000 C   0  0  0  0  0  0  0  0  0  0  0  0
   -1.0882   -0.5478   -0.0000 O   0  0  0  0  0  0  0  0  0  0  0  0
    1.0882   -0.6146   -0.0000 O   0  0  0  0  0  0  0  0  0  0  0  0
   -2.2079   -2.9831    1.0916 C   0  0  0  0  0  0  0  0  0  0  0  0
   -1.8192   -2.7177    0.2233 H   0  0  0  0  0  0  0  0  0  0  0  0
   -2.7238   -3.9338    0.9573 H   0  0  0  0  0  0  0  0  0  0  0  0
   -2.8404   -2.1600    1.4240 H   0  0  0  0  0  0  0  0  0  0  0  0
   -1.0600   -3.1849    2.0831 C   0  0  0  0  0  0  0  0  0  0  0  0
   -1.4346   -3.1794    3.0082 H   0  0  0  0  0  0  0  0  0  0  0  0
   -0.6472   -4.0778    1.9083 H   0  0  0  0  0  0  0  0  0  0  0  0
    0.0274   -2.1242    1.9886 C   0  0  0  0  0  0  0  0  0  0  0  0
   -0.3724   -1.2286    2.1718 H   0  0  0  0  0  0  0  0  0  0  0  0
    0.7367   -2.3224    2.6614 H   0  0  0  0  0  0  0  0  0  0  0  0
    0.4188   -2.1378    1.0705 H   0  0  0  0  0  0  0  0  0  0  0  0
  1  5  1  0
  5  6  2  0
  5  7  1  0
  1  2  1  0
  1  3  1  0
  1  4  1  0
  8 12  1  0
 12 15  1  0
  8  9  1  0
  8 10  1  0
  8 11  1  0
 12 13  1  0
 12 14  1  0
 15 16  1  0
 15 17  1  0
 15 18  1  0
M  CHG  1   7  -1
V    7 [O&-]
M  END
>  <PDB_ID>  (2352) 
pdb1wvg

>  <RESIDUE_NAME>  (2352) 
GLU   ILE

>  <FRAG_NAME>  (2352) 
ACET   PRPA

>  <FRAG_ATOM_NUM>  (2352) 
fragi: 7 fragj: 11

>  <atom.prop.CHAIN_ID>  (2352) 
A A A A A A A Z Z Z Z Z Z Z Z Z Z Z

>  <atom.prop.IS_HEAVY_ATOM>  (2352) 
1 0 0 0 1 1 1 1 0 0 0 1 0 0 1 0 0 0

>  <DIFUSE_FUNC_ATOM>  (2352) 
n/a

>  <FINAL_SINGLE_POINT_ENERGY>  (2352) 
0

>  <NONCOV_INTER_ENERGY_QM>  (2352) 
0

>  <FF_Energy>  (2352) 
21.22

>  <QM_Energy>  (2352) 
3.07

>  <source>  (2352) 
ACET_PRPA_30

>  <Index>  (2352) 
15832

$$$$
ACEH-pdb1wp4-B-GLH-181:PRPA-pdb1wp4-B-LEU-280
     RDKit          3D

 18 16  0  0  0  0  0  0  0  0999 V2000
    0.0081    1.5213   -0.0020 C   0  0  0  0  0  0  0  0  0  0  0  0
    0.4617    1.8126   -0.8223 H   0  0  0  0  0  0  0  0  0  0  0  0
    0.4734    1.8140    0.8107 H   0  0  0  0  0  0  0  0  0  0  0  0
   -0.9971    1.9428    0.0036 H   0  0  0  0  0  0  0  0  0  0  0  0
    0.0000    0.0000    0.0000 C   0  0  0  0  0  0  0  0  0  0  0  0
   -1.0959   -0.6007    0.0000 O   0  0  0  0  0  0  0  0  0  0  0  0
    1.0959   -0.5954    0.0000 O   0  0  0  0  0  0  0  0  0  0  0  0
   -0.5687   -2.9564    4.0361 C   0  0  0  0  0  0  0  0  0  0  0  0
   -1.3628   -3.5267    4.1453 H   0  0  0  0  0  0  0  0  0  0  0  0
   -0.7270   -2.0334    4.3327 H   0  0  0  0  0  0  0  0  0  0  0  0
    0.2387   -3.3756    4.6366 H   0  0  0  0  0  0  0  0  0  0  0  0
   -0.2405   -2.9090    2.5389 C   0  0  0  0  0  0  0  0  0  0  0  0
    0.0025   -3.8347    2.2308 H   0  0  0  0  0  0  0  0  0  0  0  0
    0.5970   -2.2535    2.3001 H   0  0  0  0  0  0  0  0  0  0  0  0
   -1.4152   -2.3954    1.7092 C   0  0  0  0  0  0  0  0  0  0  0  0
   -1.6521   -1.4705    2.0062 H   0  0  0  0  0  0  0  0  0  0  0  0
   -1.1583   -2.3809    0.7432 H   0  0  0  0  0  0  0  0  0  0  0  0
   -2.2011   -2.9995    1.8374 H   0  0  0  0  0  0  0  0  0  0  0  0
  1  5  1  0
  5  6  2  0
  5  7  1  0
  1  2  1  0
  1  3  1  0
  1  4  1  0
  8 12  1  0
 12 15  1  0
  8  9  1  0
  8 10  1  0
  8 11  1  0
 12 13  1  0
 12 14  1  0
 15 16  1  0
 15 17  1  0
 15 18  1  0
M  CHG  1   7  -1
V    7 [O&-]
M  END
>  <PDB_ID>  (2353) 
pdb1wp4

>  <RESIDUE_NAME>  (2353) 
GLU   LEU

>  <FRAG_NAME>  (2353) 
ACET   PRPA

>  <FRAG_ATOM_NUM>  (2353) 
fragi: 7 fragj: 11

>  <atom.prop.CHAIN_ID>  (2353) 
A A A A A A A Z Z Z Z Z Z Z Z Z Z Z

>  <atom.prop.IS_HEAVY_ATOM>  (2353) 
1 0 0 0 1 1 1 1 0 0 0 1 0 0 1 0 0 0

>  <DIFUSE_FUNC_ATOM>  (2353) 
n/a

>  <FINAL_SINGLE_POINT_ENERGY>  (2353) 
0

>  <NONCOV_INTER_ENERGY_QM>  (2353) 
0

>  <FF_Energy>  (2353) 
21.37

>  <QM_Energy>  (2353) 
5.02

>  <source>  (2353) 
ACET_PRPA_30

>  <Index>  (2353) 
15891

$$$$
ACEH-pdb1wp4-B-GLH-181:PRPA-pdb1wp4-B-LEU-280
     RDKit          3D

 18 16  0  0  0  0  0  0  0  0999 V2000
    0.0081    1.5213   -0.0020 C   0  0  0  0  0  0  0  0  0  0  0  0
    0.4617    1.8126   -0.8223 H   0  0  0  0  0  0  0  0  0  0  0  0
    0.4734    1.8140    0.8107 H   0  0  0  0  0  0  0  0  0  0  0  0
   -0.9971    1.9428    0.0036 H   0  0  0  0  0  0  0  0  0  0  0  0
    0.0000    0.0000    0.0000 C   0  0  0  0  0  0  0  0  0  0  0  0
   -1.0959   -0.6007    0.0000 O   0  0  0  0  0  0  0  0  0  0  0  0
    1.0959   -0.5954    0.0000 O   0  0  0  0  0  0  0  0  0  0  0  0
   -0.5687   -2.9564    4.0361 C   0  0  0  0  0  0  0  0  0  0  0  0
   -1.3628   -3.5267    4.1453 H   0  0  0  0  0  0  0  0  0  0  0  0
   -0.7270   -2.0334    4.3327 H   0  0  0  0  0  0  0  0  0  0  0  0
    0.2387   -3.3756    4.6366 H   0  0  0  0  0  0  0  0  0  0  0  0
   -0.2405   -2.9090    2.5389 C   0  0  0  0  0  0  0  0  0  0  0  0
    0.0025   -3.8347    2.2308 H   0  0  0  0  0  0  0  0  0  0  0  0
   -1.0789   -2.5424    1.9467 H   0  0  0  0  0  0  0  0  0  0  0  0
    0.9342   -1.9896    2.2039 C   0  0  0  0  0  0  0  0  0  0  0  0
    1.7523   -2.3097    2.6818 H   0  0  0  0  0  0  0  0  0  0  0  0
    1.0949   -2.0042    1.2175 H   0  0  0  0  0  0  0  0  0  0  0  0
    0.7192   -1.0583    2.4949 H   0  0  0  0  0  0  0  0  0  0  0  0
  1  5  1  0
  5  6  2  0
  5  7  1  0
  1  2  1  0
  1  3  1  0
  1  4  1  0
  8 12  1  0
 12 15  1  0
  8  9  1  0
  8 10  1  0
  8 11  1  0
 12 13  1  0
 12 14  1  0
 15 16  1  0
 15 17  1  0
 15 18  1  0
M  CHG  1   7  -1
V    7 [O&-]
M  END
>  <PDB_ID>  (2354) 
pdb1wp4

>  <RESIDUE_NAME>  (2354) 
GLU   LEU

>  <FRAG_NAME>  (2354) 
ACET   PRPA

>  <FRAG_ATOM_NUM>  (2354) 
fragi: 7 fragj: 11

>  <atom.prop.CHAIN_ID>  (2354) 
A A A A A A A Z Z Z Z Z Z Z Z Z Z Z

>  <atom.prop.IS_HEAVY_ATOM>  (2354) 
1 0 0 0 1 1 1 1 0 0 0 1 0 0 1 0 0 0

>  <DIFUSE_FUNC_ATOM>  (2354) 
n/a

>  <FINAL_SINGLE_POINT_ENERGY>  (2354) 
0

>  <NONCOV_INTER_ENERGY_QM>  (2354) 
0

>  <FF_Energy>  (2354) 
22.7

>  <QM_Energy>  (2354) 
2.31

>  <source>  (2354) 
ACET_PRPA_30

>  <Index>  (2354) 
15909

$$$$
ACEH-pdb1wp4-B-GLH-181:PRPA-pdb1wp4-B-LEU-280
     RDKit          3D

 18 16  0  0  0  0  0  0  0  0999 V2000
    0.0081    1.5213   -0.0020 C   0  0  0  0  0  0  0  0  0  0  0  0
    0.4617    1.8126   -0.8223 H   0  0  0  0  0  0  0  0  0  0  0  0
    0.4734    1.8140    0.8107 H   0  0  0  0  0  0  0  0  0  0  0  0
   -0.9971    1.9428    0.0036 H   0  0  0  0  0  0  0  0  0  0  0  0
    0.0000    0.0000    0.0000 C   0  0  0  0  0  0  0  0  0  0  0  0
   -1.0959   -0.6007    0.0000 O   0  0  0  0  0  0  0  0  0  0  0  0
    1.0959   -0.5954    0.0000 O   0  0  0  0  0  0  0  0  0  0  0  0
   -1.4152   -2.3954    1.7092 C   0  0  0  0  0  0  0  0  0  0  0  0
   -1.6521   -1.4705    2.0062 H   0  0  0  0  0  0  0  0  0  0  0  0
   -1.1583   -2.3809    0.7432 H   0  0  0  0  0  0  0  0  0  0  0  0
   -2.2011   -2.9995    1.8374 H   0  0  0  0  0  0  0  0  0  0  0  0
   -0.2405   -2.9090    2.5389 C   0  0  0  0  0  0  0  0  0  0  0  0
    0.0025   -3.8347    2.2308 H   0  0  0  0  0  0  0  0  0  0  0  0
   -0.4738   -2.9428    3.6032 H   0  0  0  0  0  0  0  0  0  0  0  0
    0.9342   -1.9896    2.2039 C   0  0  0  0  0  0  0  0  0  0  0  0
    1.7523   -2.3097    2.6818 H   0  0  0  0  0  0  0  0  0  0  0  0
    1.0949   -2.0042    1.2175 H   0  0  0  0  0  0  0  0  0  0  0  0
    0.7192   -1.0583    2.4949 H   0  0  0  0  0  0  0  0  0  0  0  0
  1  5  1  0
  5  6  2  0
  5  7  1  0
  1  2  1  0
  1  3  1  0
  1  4  1  0
  8 12  1  0
 12 15  1  0
  8  9  1  0
  8 10  1  0
  8 11  1  0
 12 13  1  0
 12 14  1  0
 15 16  1  0
 15 17  1  0
 15 18  1  0
M  CHG  1   7  -1
V    7 [O&-]
M  END
>  <PDB_ID>  (2355) 
pdb1wp4

>  <RESIDUE_NAME>  (2355) 
GLU   LEU

>  <FRAG_NAME>  (2355) 
ACET   PRPA

>  <FRAG_ATOM_NUM>  (2355) 
fragi: 7 fragj: 11

>  <atom.prop.CHAIN_ID>  (2355) 
A A A A A A A Z Z Z Z Z Z Z Z Z Z Z

>  <atom.prop.IS_HEAVY_ATOM>  (2355) 
1 0 0 0 1 1 1 1 0 0 0 1 0 0 1 0 0 0

>  <DIFUSE_FUNC_ATOM>  (2355) 
n/a

>  <FINAL_SINGLE_POINT_ENERGY>  (2355) 
0

>  <NONCOV_INTER_ENERGY_QM>  (2355) 
0

>  <FF_Energy>  (2355) 
46.1

>  <QM_Energy>  (2355) 
11.97

>  <source>  (2355) 
ACET_PRPA_30

>  <Index>  (2355) 
15938

$$$$
ACEH-pdb1wp4-C-GLH-181:PRPA-pdb1wp4-D-LEU-252
     RDKit          3D

 18 16  0  0  0  0  0  0  0  0999 V2000
    0.0152    1.5286    0.0038 C   0  0  0  0  0  0  0  0  0  0  0  0
   -0.4359    1.8252    0.8190 H   0  0  0  0  0  0  0  0  0  0  0  0
   -0.4322    1.8285   -0.8132 H   0  0  0  0  0  0  0  0  0  0  0  0
    1.0282    1.9311    0.0080 H   0  0  0  0  0  0  0  0  0  0  0  0
    0.0000    0.0000    0.0000 C   0  0  0  0  0  0  0  0  0  0  0  0
   -1.0949   -0.6009    0.0000 O   0  0  0  0  0  0  0  0  0  0  0  0
    1.0949   -0.6061   -0.0000 O   0  0  0  0  0  0  0  0  0  0  0  0
   -1.3851   -2.5040   -1.8514 C   0  0  0  0  0  0  0  0  0  0  0  0
   -1.7197   -1.9377   -1.0967 H   0  0  0  0  0  0  0  0  0  0  0  0
   -0.7061   -1.9925   -2.3774 H   0  0  0  0  0  0  0  0  0  0  0  0
   -0.8882   -3.3732   -1.4205 H   0  0  0  0  0  0  0  0  0  0  0  0
   -2.5691   -2.7722   -2.7767 C   0  0  0  0  0  0  0  0  0  0  0  0
   -3.3087   -3.1808   -2.2527 H   0  0  0  0  0  0  0  0  0  0  0  0
   -2.9114   -1.8324   -3.2098 H   0  0  0  0  0  0  0  0  0  0  0  0
   -2.1596   -3.7405   -3.8758 C   0  0  0  0  0  0  0  0  0  0  0  0
   -1.8594   -4.6032   -3.4673 H   0  0  0  0  0  0  0  0  0  0  0  0
   -2.9401   -3.9123   -4.4785 H   0  0  0  0  0  0  0  0  0  0  0  0
   -1.4095   -3.3460   -4.4078 H   0  0  0  0  0  0  0  0  0  0  0  0
  1  5  1  0
  5  6  2  0
  5  7  1  0
  1  2  1  0
  1  3  1  0
  1  4  1  0
  8 12  1  0
 12 15  1  0
  8  9  1  0
  8 10  1  0
  8 11  1  0
 12 13  1  0
 12 14  1  0
 15 16  1  0
 15 17  1  0
 15 18  1  0
M  CHG  1   7  -1
V    7 [O&-]
M  END
>  <PDB_ID>  (2356) 
pdb1wp4

>  <RESIDUE_NAME>  (2356) 
GLU   LEU

>  <FRAG_NAME>  (2356) 
ACET   PRPA

>  <FRAG_ATOM_NUM>  (2356) 
fragi: 7 fragj: 11

>  <atom.prop.CHAIN_ID>  (2356) 
A A A A A A A Z Z Z Z Z Z Z Z Z Z Z

>  <atom.prop.IS_HEAVY_ATOM>  (2356) 
1 0 0 0 1 1 1 1 0 0 0 1 0 0 1 0 0 0

>  <DIFUSE_FUNC_ATOM>  (2356) 
n/a

>  <FINAL_SINGLE_POINT_ENERGY>  (2356) 
0

>  <NONCOV_INTER_ENERGY_QM>  (2356) 
0

>  <FF_Energy>  (2356) 
22.72

>  <QM_Energy>  (2356) 
3.0

>  <source>  (2356) 
ACET_PRPA_30

>  <Index>  (2356) 
16067

$$$$
ACEH-pdb3tyk-A-GLH-228:PRPA-pdb3tyk-A-VAL-195
     RDKit          3D

 18 16  0  0  0  0  0  0  0  0999 V2000
    0.0170    1.4927   -0.0408 C   0  0  0  0  0  0  0  0  0  0  0  0
    0.7997    1.8108    0.4592 H   0  0  0  0  0  0  0  0  0  0  0  0
   -0.8279    1.8250    0.3362 H   0  0  0  0  0  0  0  0  0  0  0  0
    0.0982    1.8846   -1.0547 H   0  0  0  0  0  0  0  0  0  0  0  0
    0.0000    0.0000    0.0000 C   0  0  0  0  0  0  0  0  0  0  0  0
   -1.1151   -0.5771    0.0000 O   0  0  0  0  0  0  0  0  0  0  0  0
    1.1151   -0.6143   -0.0000 O   0  0  0  0  0  0  0  0  0  0  0  0
    1.0377   -3.2194   -1.2098 C   0  0  0  0  0  0  0  0  0  0  0  0
    1.5035   -2.3950   -0.9040 H   0  0  0  0  0  0  0  0  0  0  0  0
    1.7871   -3.9994   -1.3446 H   0  0  0  0  0  0  0  0  0  0  0  0
    0.3527   -3.5357   -0.4231 H   0  0  0  0  0  0  0  0  0  0  0  0
    0.2623   -2.9511   -2.5178 C   0  0  0  0  0  0  0  0  0  0  0  0
   -0.1425   -3.8168   -2.8186 H   0  0  0  0  0  0  0  0  0  0  0  0
    0.9312   -2.5743   -3.2916 H   0  0  0  0  0  0  0  0  0  0  0  0
   -0.9131   -1.9624   -2.3342 C   0  0  0  0  0  0  0  0  0  0  0  0
   -1.1703   -1.6001   -3.2250 H   0  0  0  0  0  0  0  0  0  0  0  0
   -1.6815   -2.4486   -1.9274 H   0  0  0  0  0  0  0  0  0  0  0  0
   -0.6205   -1.2224   -1.7348 H   0  0  0  0  0  0  0  0  0  0  0  0
  1  5  1  0
  5  6  2  0
  5  7  1  0
  1  2  1  0
  1  3  1  0
  1  4  1  0
  8 12  1  0
 12 15  1  0
  8  9  1  0
  8 10  1  0
  8 11  1  0
 12 13  1  0
 12 14  1  0
 15 16  1  0
 15 17  1  0
 15 18  1  0
M  CHG  1   7  -1
V    7 [O&-]
M  END
>  <PDB_ID>  (2357) 
pdb3tyk

>  <RESIDUE_NAME>  (2357) 
GLU   VAL

>  <FRAG_NAME>  (2357) 
ACET   PRPA

>  <FRAG_ATOM_NUM>  (2357) 
fragi: 7 fragj: 11

>  <atom.prop.CHAIN_ID>  (2357) 
A A A A A A A Z Z Z Z Z Z Z Z Z Z Z

>  <atom.prop.IS_HEAVY_ATOM>  (2357) 
1 0 0 0 1 1 1 1 0 0 0 1 0 0 1 0 0 0

>  <DIFUSE_FUNC_ATOM>  (2357) 
n/a

>  <FINAL_SINGLE_POINT_ENERGY>  (2357) 
0

>  <NONCOV_INTER_ENERGY_QM>  (2357) 
0

>  <FF_Energy>  (2357) 
26.95

>  <QM_Energy>  (2357) 
3.49

>  <source>  (2357) 
ACET_PRPA_30

>  <Index>  (2357) 
16237

$$$$
ACEH-pdb1wp4-D-GLH-181:PRPA-pdb1wp4-D-LEU-280
     RDKit          3D

 18 16  0  0  0  0  0  0  0  0999 V2000
    0.0018    1.5368   -0.0009 C   0  0  0  0  0  0  0  0  0  0  0  0
    0.5189    1.8260   -0.7821 H   0  0  0  0  0  0  0  0  0  0  0  0
    0.3990    1.8270    0.8465 H   0  0  0  0  0  0  0  0  0  0  0  0
   -0.9998    1.9603   -0.0764 H   0  0  0  0  0  0  0  0  0  0  0  0
    0.0000    0.0000    0.0000 C   0  0  0  0  0  0  0  0  0  0  0  0
   -1.0945   -0.6058   -0.0000 O   0  0  0  0  0  0  0  0  0  0  0  0
    1.0945   -0.6020   -0.0000 O   0  0  0  0  0  0  0  0  0  0  0  0
   -1.1011   -3.2194    3.5675 C   0  0  0  0  0  0  0  0  0  0  0  0
   -1.9363   -3.7512    3.5569 H   0  0  0  0  0  0  0  0  0  0  0  0
   -1.2620   -2.3079    3.9168 H   0  0  0  0  0  0  0  0  0  0  0  0
   -0.3949   -3.7154    4.2334 H   0  0  0  0  0  0  0  0  0  0  0  0
   -0.6263   -3.0813    2.1193 C   0  0  0  0  0  0  0  0  0  0  0  0
   -0.3575   -3.9786    1.7801 H   0  0  0  0  0  0  0  0  0  0  0  0
    0.2492   -2.4332    2.0809 H   0  0  0  0  0  0  0  0  0  0  0  0
   -1.7514   -2.5297    1.2628 C   0  0  0  0  0  0  0  0  0  0  0  0
   -2.0275   -1.6310    1.6077 H   0  0  0  0  0  0  0  0  0  0  0  0
   -1.4398   -2.4392    0.3157 H   0  0  0  0  0  0  0  0  0  0  0  0
   -2.5353   -3.1516    1.2953 H   0  0  0  0  0  0  0  0  0  0  0  0
  1  5  1  0
  5  6  2  0
  5  7  1  0
  1  2  1  0
  1  3  1  0
  1  4  1  0
  8 12  1  0
 12 15  1  0
  8  9  1  0
  8 10  1  0
  8 11  1  0
 12 13  1  0
 12 14  1  0
 15 16  1  0
 15 17  1  0
 15 18  1  0
M  CHG  1   7  -1
V    7 [O&-]
M  END
>  <PDB_ID>  (2358) 
pdb1wp4

>  <RESIDUE_NAME>  (2358) 
GLU   LEU

>  <FRAG_NAME>  (2358) 
ACET   PRPA

>  <FRAG_ATOM_NUM>  (2358) 
fragi: 7 fragj: 11

>  <atom.prop.CHAIN_ID>  (2358) 
A A A A A A A Z Z Z Z Z Z Z Z Z Z Z

>  <atom.prop.IS_HEAVY_ATOM>  (2358) 
1 0 0 0 1 1 1 1 0 0 0 1 0 0 1 0 0 0

>  <DIFUSE_FUNC_ATOM>  (2358) 
n/a

>  <FINAL_SINGLE_POINT_ENERGY>  (2358) 
0

>  <NONCOV_INTER_ENERGY_QM>  (2358) 
0

>  <FF_Energy>  (2358) 
34.38

>  <QM_Energy>  (2358) 
8.8

>  <source>  (2358) 
ACET_PRPA_30

>  <Index>  (2358) 
16295

$$$$
ACEH-pdb1xb2-B-GLH-208:PRPA-pdb1xb2-B-VAL-141
     RDKit          3D

 18 16  0  0  0  0  0  0  0  0999 V2000
    0.0044    1.5217   -0.0161 C   0  0  0  0  0  0  0  0  0  0  0  0
    0.0228    1.8062   -0.9548 H   0  0  0  0  0  0  0  0  0  0  0  0
    0.7966    1.8182    0.4819 H   0  0  0  0  0  0  0  0  0  0  0  0
   -0.8813    1.9470    0.4559 H   0  0  0  0  0  0  0  0  0  0  0  0
    0.0000    0.0000    0.0000 C   0  0  0  0  0  0  0  0  0  0  0  0
   -1.0999   -0.6110   -0.0000 O   0  0  0  0  0  0  0  0  0  0  0  0
    1.0999   -0.5870   -0.0000 O   0  0  0  0  0  0  0  0  0  0  0  0
    0.6220   -3.6797    3.6033 C   0  0  0  0  0  0  0  0  0  0  0  0
    1.2749   -3.3735    4.3066 H   0  0  0  0  0  0  0  0  0  0  0  0
    1.1730   -4.2333    2.8431 H   0  0  0  0  0  0  0  0  0  0  0  0
   -0.1223   -4.3051    4.0963 H   0  0  0  0  0  0  0  0  0  0  0  0
   -0.0610   -2.4136    3.0005 C   0  0  0  0  0  0  0  0  0  0  0  0
   -0.6060   -2.7099    2.2273 H   0  0  0  0  0  0  0  0  0  0  0  0
   -0.7465   -1.9723    3.7241 H   0  0  0  0  0  0  0  0  0  0  0  0
    1.0120   -1.3666    2.6589 C   0  0  0  0  0  0  0  0  0  0  0  0
    1.1368   -1.3442    1.6696 H   0  0  0  0  0  0  0  0  0  0  0  0
    0.7073   -0.4752    2.9857 H   0  0  0  0  0  0  0  0  0  0  0  0
    1.8659   -1.6222    3.1064 H   0  0  0  0  0  0  0  0  0  0  0  0
  1  5  1  0
  5  6  2  0
  5  7  1  0
  1  2  1  0
  1  3  1  0
  1  4  1  0
  8 12  1  0
 12 15  1  0
  8  9  1  0
  8 10  1  0
  8 11  1  0
 12 13  1  0
 12 14  1  0
 15 16  1  0
 15 17  1  0
 15 18  1  0
M  CHG  1   7  -1
V    7 [O&-]
M  END
>  <PDB_ID>  (2359) 
pdb1xb2

>  <RESIDUE_NAME>  (2359) 
GLU   VAL

>  <FRAG_NAME>  (2359) 
ACET   PRPA

>  <FRAG_ATOM_NUM>  (2359) 
fragi: 7 fragj: 11

>  <atom.prop.CHAIN_ID>  (2359) 
A A A A A A A Z Z Z Z Z Z Z Z Z Z Z

>  <atom.prop.IS_HEAVY_ATOM>  (2359) 
1 0 0 0 1 1 1 1 0 0 0 1 0 0 1 0 0 0

>  <DIFUSE_FUNC_ATOM>  (2359) 
n/a

>  <FINAL_SINGLE_POINT_ENERGY>  (2359) 
0

>  <NONCOV_INTER_ENERGY_QM>  (2359) 
0

>  <FF_Energy>  (2359) 
23.92

>  <QM_Energy>  (2359) 
0.02

>  <source>  (2359) 
ACET_PRPA_30

>  <Index>  (2359) 
16720

$$$$
ACEH-pdb1x0r-G-ASH-104:PRPA-pdb1x0r-G-VAL-109
     RDKit          3D

 18 16  0  0  0  0  0  0  0  0999 V2000
   -0.0066    1.5316   -0.0404 C   0  0  0  0  0  0  0  0  0  0  0  0
    0.1661    1.8201   -0.9759 H   0  0  0  0  0  0  0  0  0  0  0  0
    0.7108    1.8636    0.5621 H   0  0  0  0  0  0  0  0  0  0  0  0
   -0.9520    1.9681    0.2817 H   0  0  0  0  0  0  0  0  0  0  0  0
    0.0000    0.0000    0.0000 C   0  0  0  0  0  0  0  0  0  0  0  0
   -1.0973   -0.5876   -0.0000 O   0  0  0  0  0  0  0  0  0  0  0  0
    1.0973   -0.6629   -0.0000 O   0  0  0  0  0  0  0  0  0  0  0  0
    0.9325   -3.2750   -1.5026 C   0  0  0  0  0  0  0  0  0  0  0  0
    0.6951   -4.1164   -1.9640 H   0  0  0  0  0  0  0  0  0  0  0  0
    0.3911   -3.2304   -0.5576 H   0  0  0  0  0  0  0  0  0  0  0  0
    1.9937   -3.3212   -1.2582 H   0  0  0  0  0  0  0  0  0  0  0  0
    0.6874   -2.0092   -2.3361 C   0  0  0  0  0  0  0  0  0  0  0  0
    1.0550   -1.2343   -1.8347 H   0  0  0  0  0  0  0  0  0  0  0  0
   -0.3390   -2.0008   -2.7028 H   0  0  0  0  0  0  0  0  0  0  0  0
    1.4645   -2.0861   -3.6576 C   0  0  0  0  0  0  0  0  0  0  0  0
    2.3598   -2.4929   -3.4880 H   0  0  0  0  0  0  0  0  0  0  0  0
    0.9548   -2.6479   -4.3052 H   0  0  0  0  0  0  0  0  0  0  0  0
    1.5770   -1.1657   -4.0253 H   0  0  0  0  0  0  0  0  0  0  0  0
  1  5  1  0
  5  6  2  0
  5  7  1  0
  1  2  1  0
  1  3  1  0
  1  4  1  0
  8 12  1  0
 12 15  1  0
  8  9  1  0
  8 10  1  0
  8 11  1  0
 12 13  1  0
 12 14  1  0
 15 16  1  0
 15 17  1  0
 15 18  1  0
M  CHG  1   7  -1
V    7 [O&-]
M  END
>  <PDB_ID>  (2360) 
pdb1x0r

>  <RESIDUE_NAME>  (2360) 
ASP   VAL

>  <FRAG_NAME>  (2360) 
ACET   PRPA

>  <FRAG_ATOM_NUM>  (2360) 
fragi: 7 fragj: 11

>  <atom.prop.CHAIN_ID>  (2360) 
A A A A A A A Z Z Z Z Z Z Z Z Z Z Z

>  <atom.prop.IS_HEAVY_ATOM>  (2360) 
1 0 0 0 1 1 1 1 0 0 0 1 0 0 1 0 0 0

>  <DIFUSE_FUNC_ATOM>  (2360) 
n/a

>  <FINAL_SINGLE_POINT_ENERGY>  (2360) 
0

>  <NONCOV_INTER_ENERGY_QM>  (2360) 
0

>  <FF_Energy>  (2360) 
18.23

>  <QM_Energy>  (2360) 
0.02

>  <source>  (2360) 
ACET_PRPA_30

>  <Index>  (2360) 
17178

$$$$
ACEH-pdb1x0r-G-ASH-104:PRPA-pdb1x0r-G-VAL-109
     RDKit          3D

 18 16  0  0  0  0  0  0  0  0999 V2000
   -0.0066    1.5316   -0.0404 C   0  0  0  0  0  0  0  0  0  0  0  0
    0.1661    1.8201   -0.9759 H   0  0  0  0  0  0  0  0  0  0  0  0
    0.7108    1.8636    0.5621 H   0  0  0  0  0  0  0  0  0  0  0  0
   -0.9520    1.9681    0.2817 H   0  0  0  0  0  0  0  0  0  0  0  0
    0.0000    0.0000    0.0000 C   0  0  0  0  0  0  0  0  0  0  0  0
   -1.0973   -0.5876   -0.0000 O   0  0  0  0  0  0  0  0  0  0  0  0
    1.0973   -0.6629   -0.0000 O   0  0  0  0  0  0  0  0  0  0  0  0
    1.4645   -2.0861   -3.6576 C   0  0  0  0  0  0  0  0  0  0  0  0
    2.3598   -2.4929   -3.4880 H   0  0  0  0  0  0  0  0  0  0  0  0
    0.9548   -2.6479   -4.3052 H   0  0  0  0  0  0  0  0  0  0  0  0
    1.5770   -1.1657   -4.0253 H   0  0  0  0  0  0  0  0  0  0  0  0
    0.6874   -2.0092   -2.3361 C   0  0  0  0  0  0  0  0  0  0  0  0
    1.0550   -1.2343   -1.8347 H   0  0  0  0  0  0  0  0  0  0  0  0
    0.8614   -2.9079   -1.7443 H   0  0  0  0  0  0  0  0  0  0  0  0
   -0.6911   -1.9979   -2.8285 C   0  0  0  0  0  0  0  0  0  0  0  0
   -1.2417   -1.3075   -2.3381 H   0  0  0  0  0  0  0  0  0  0  0  0
   -0.7181   -1.7790   -3.8136 H   0  0  0  0  0  0  0  0  0  0  0  0
   -1.1271   -2.8993   -2.6956 H   0  0  0  0  0  0  0  0  0  0  0  0
  1  5  1  0
  5  6  2  0
  5  7  1  0
  1  2  1  0
  1  3  1  0
  1  4  1  0
  8 12  1  0
 12 15  1  0
  8  9  1  0
  8 10  1  0
  8 11  1  0
 12 13  1  0
 12 14  1  0
 15 16  1  0
 15 17  1  0
 15 18  1  0
M  CHG  1   7  -1
V    7 [O&-]
M  END
>  <PDB_ID>  (2361) 
pdb1x0r

>  <RESIDUE_NAME>  (2361) 
ASP   VAL

>  <FRAG_NAME>  (2361) 
ACET   PRPA

>  <FRAG_ATOM_NUM>  (2361) 
fragi: 7 fragj: 11

>  <atom.prop.CHAIN_ID>  (2361) 
A A A A A A A Z Z Z Z Z Z Z Z Z Z Z

>  <atom.prop.IS_HEAVY_ATOM>  (2361) 
1 0 0 0 1 1 1 1 0 0 0 1 0 0 1 0 0 0

>  <DIFUSE_FUNC_ATOM>  (2361) 
n/a

>  <FINAL_SINGLE_POINT_ENERGY>  (2361) 
0

>  <NONCOV_INTER_ENERGY_QM>  (2361) 
0

>  <FF_Energy>  (2361) 
17.49

>  <QM_Energy>  (2361) 
0.8

>  <source>  (2361) 
ACET_PRPA_30

>  <Index>  (2361) 
17200

$$$$
ACEH-pdb1ydh-A-GLH-120:PRPA-pdb1ydh-A-LYS-99
     RDKit          3D

 18 16  0  0  0  0  0  0  0  0999 V2000
   -0.1163    1.5013    0.0519 C   0  0  0  0  0  0  0  0  0  0  0  0
   -1.0339    1.7313   -0.2131 H   0  0  0  0  0  0  0  0  0  0  0  0
    0.5541    1.8653   -0.5674 H   0  0  0  0  0  0  0  0  0  0  0  0
    0.0746    1.8784    1.0566 H   0  0  0  0  0  0  0  0  0  0  0  0
    0.0000    0.0000    0.0000 C   0  0  0  0  0  0  0  0  0  0  0  0
   -1.1124   -0.5238   -0.0000 O   0  0  0  0  0  0  0  0  0  0  0  0
    1.1124   -0.6300   -0.0000 O   0  0  0  0  0  0  0  0  0  0  0  0
   -1.6706   -5.0926   -0.4300 C   0  0  0  0  0  0  0  0  0  0  0  0
   -1.7776   -5.4967    0.5032 H   0  0  0  0  0  0  0  0  0  0  0  0
   -0.6939   -5.2438   -0.6915 H   0  0  0  0  0  0  0  0  0  0  0  0
   -2.2808   -5.6878   -1.1094 H   0  0  0  0  0  0  0  0  0  0  0  0
   -1.9413   -3.5973   -0.3574 C   0  0  0  0  0  0  0  0  0  0  0  0
   -2.8606   -3.4259   -0.6492 H   0  0  0  0  0  0  0  0  0  0  0  0
   -1.7650   -3.2851    0.5541 H   0  0  0  0  0  0  0  0  0  0  0  0
   -0.9854   -2.9157   -1.3078 C   0  0  0  0  0  0  0  0  0  0  0  0
   -0.8075   -1.9622   -0.9607 H   0  0  0  0  0  0  0  0  0  0  0  0
   -0.0742   -3.3916   -1.2477 H   0  0  0  0  0  0  0  0  0  0  0  0
   -1.2791   -2.8562   -2.3558 H   0  0  0  0  0  0  0  0  0  0  0  0
  1  5  1  0
  5  6  2  0
  5  7  1  0
  1  2  1  0
  1  3  1  0
  1  4  1  0
  8 12  1  0
 12 15  1  0
  8  9  1  0
  8 10  1  0
  8 11  1  0
 12 13  1  0
 12 14  1  0
 15 16  1  0
 15 17  1  0
 15 18  1  0
M  CHG  1   7  -1
V    7 [O&-]
M  END
>  <PDB_ID>  (2362) 
pdb1ydh

>  <RESIDUE_NAME>  (2362) 
GLU   LYS

>  <FRAG_NAME>  (2362) 
ACET   PRPA

>  <FRAG_ATOM_NUM>  (2362) 
fragi: 7 fragj: 11

>  <atom.prop.CHAIN_ID>  (2362) 
A A A A A A A Z Z Z Z Z Z Z Z Z Z Z

>  <atom.prop.IS_HEAVY_ATOM>  (2362) 
1 0 0 0 1 1 1 1 0 0 0 1 0 0 1 0 0 0

>  <DIFUSE_FUNC_ATOM>  (2362) 
n/a

>  <FINAL_SINGLE_POINT_ENERGY>  (2362) 
0

>  <NONCOV_INTER_ENERGY_QM>  (2362) 
0

>  <FF_Energy>  (2362) 
40.3

>  <QM_Energy>  (2362) 
1.84

>  <source>  (2362) 
ACET_PRPA_30

>  <Index>  (2362) 
17842

$$$$
ACEH-pdb1yk0-B-GLH-173:PRPA-pdb1yk0-E-LEU-21
     RDKit          3D

 18 16  0  0  0  0  0  0  0  0999 V2000
   -0.0119    1.5239   -0.0079 C   0  0  0  0  0  0  0  0  0  0  0  0
   -0.3452    1.8104   -0.8858 H   0  0  0  0  0  0  0  0  0  0  0  0
    0.9075    1.8256    0.1617 H   0  0  0  0  0  0  0  0  0  0  0  0
   -0.6607    1.9445    0.7603 H   0  0  0  0  0  0  0  0  0  0  0  0
    0.0000    0.0000    0.0000 C   0  0  0  0  0  0  0  0  0  0  0  0
   -1.0943   -0.5941   -0.0000 O   0  0  0  0  0  0  0  0  0  0  0  0
    1.0943   -0.6049    0.0000 O   0  0  0  0  0  0  0  0  0  0  0  0
    3.2274   -1.4389   -1.8115 C   0  0  0  0  0  0  0  0  0  0  0  0
    2.4869   -1.2511   -1.1071 H   0  0  0  0  0  0  0  0  0  0  0  0
    3.2229   -0.5862   -2.4048 H   0  0  0  0  0  0  0  0  0  0  0  0
    4.1752   -1.4395   -1.2732 H   0  0  0  0  0  0  0  0  0  0  0  0
    2.6975   -2.5768   -2.6948 C   0  0  0  0  0  0  0  0  0  0  0  0
    2.9233   -3.4427   -2.2730 H   0  0  0  0  0  0  0  0  0  0  0  0
    3.1508   -2.5608   -3.6859 H   0  0  0  0  0  0  0  0  0  0  0  0
    1.1910   -2.4308   -2.7938 C   0  0  0  0  0  0  0  0  0  0  0  0
    0.9644   -1.5451   -3.2010 H   0  0  0  0  0  0  0  0  0  0  0  0
    0.8188   -3.1631   -3.3660 H   0  0  0  0  0  0  0  0  0  0  0  0
    0.7862   -2.4881   -1.8796 H   0  0  0  0  0  0  0  0  0  0  0  0
  1  5  1  0
  5  6  2  0
  5  7  1  0
  1  2  1  0
  1  3  1  0
  1  4  1  0
  8 12  1  0
 12 15  1  0
  8  9  1  0
  8 10  1  0
  8 11  1  0
 12 13  1  0
 12 14  1  0
 15 16  1  0
 15 17  1  0
 15 18  1  0
M  CHG  1   7  -1
V    7 [O&-]
M  END
>  <PDB_ID>  (2363) 
pdb1yk0

>  <RESIDUE_NAME>  (2363) 
GLU   LEU

>  <FRAG_NAME>  (2363) 
ACET   PRPA

>  <FRAG_ATOM_NUM>  (2363) 
fragi: 7 fragj: 11

>  <atom.prop.CHAIN_ID>  (2363) 
A A A A A A A Z Z Z Z Z Z Z Z Z Z Z

>  <atom.prop.IS_HEAVY_ATOM>  (2363) 
1 0 0 0 1 1 1 1 0 0 0 1 0 0 1 0 0 0

>  <DIFUSE_FUNC_ATOM>  (2363) 
n/a

>  <FINAL_SINGLE_POINT_ENERGY>  (2363) 
0

>  <NONCOV_INTER_ENERGY_QM>  (2363) 
0

>  <FF_Energy>  (2363) 
13.07

>  <QM_Energy>  (2363) 
-2.91

>  <source>  (2363) 
ACET_PRPA_30

>  <Index>  (2363) 
18081

$$$$
ACEH-pdb1ytl-B-ASH-142:PRPA-pdb1ytl-B-LEU-115
     RDKit          3D

 18 16  0  0  0  0  0  0  0  0999 V2000
    0.0176    1.4761    0.0843 C   0  0  0  0  0  0  0  0  0  0  0  0
   -0.7145    1.7907    0.6862 H   0  0  0  0  0  0  0  0  0  0  0  0
   -0.1036    1.8696   -0.8255 H   0  0  0  0  0  0  0  0  0  0  0  0
    0.9518    1.8720    0.4828 H   0  0  0  0  0  0  0  0  0  0  0  0
    0.0000    0.0000    0.0000 C   0  0  0  0  0  0  0  0  0  0  0  0
   -1.0547   -0.5961   -0.0000 O   0  0  0  0  0  0  0  0  0  0  0  0
    1.0547   -0.6104    0.0000 O   0  0  0  0  0  0  0  0  0  0  0  0
    1.8955   -2.8981    1.0454 C   0  0  0  0  0  0  0  0  0  0  0  0
    1.5689   -1.9701    1.0323 H   0  0  0  0  0  0  0  0  0  0  0  0
    1.3906   -3.4622    1.8296 H   0  0  0  0  0  0  0  0  0  0  0  0
    1.5765   -3.3755    0.1189 H   0  0  0  0  0  0  0  0  0  0  0  0
    3.4200   -3.0847    1.2834 C   0  0  0  0  0  0  0  0  0  0  0  0
    3.5951   -2.7587    2.2493 H   0  0  0  0  0  0  0  0  0  0  0  0
    3.5750   -4.1056    1.3259 H   0  0  0  0  0  0  0  0  0  0  0  0
    4.4875   -2.5005    0.4099 C   0  0  0  0  0  0  0  0  0  0  0  0
    4.2237   -1.5938    0.0892 H   0  0  0  0  0  0  0  0  0  0  0  0
    5.4182   -2.3924    0.9669 H   0  0  0  0  0  0  0  0  0  0  0  0
    4.6017   -3.0886   -0.5007 H   0  0  0  0  0  0  0  0  0  0  0  0
  1  5  1  0
  5  6  2  0
  5  7  1  0
  1  2  1  0
  1  3  1  0
  1  4  1  0
  8 12  1  0
 12 15  1  0
  8  9  1  0
  8 10  1  0
  8 11  1  0
 12 13  1  0
 12 14  1  0
 15 16  1  0
 15 17  1  0
 15 18  1  0
M  CHG  1   7  -1
V    7 [O&-]
M  END
>  <PDB_ID>  (2364) 
pdb1ytl

>  <RESIDUE_NAME>  (2364) 
ASP   LEU

>  <FRAG_NAME>  (2364) 
ACET   PRPA

>  <FRAG_ATOM_NUM>  (2364) 
fragi: 7 fragj: 11

>  <atom.prop.CHAIN_ID>  (2364) 
A A A A A A A Z Z Z Z Z Z Z Z Z Z Z

>  <atom.prop.IS_HEAVY_ATOM>  (2364) 
1 0 0 0 1 1 1 1 0 0 0 1 0 0 1 0 0 0

>  <DIFUSE_FUNC_ATOM>  (2364) 
n/a

>  <FINAL_SINGLE_POINT_ENERGY>  (2364) 
0

>  <NONCOV_INTER_ENERGY_QM>  (2364) 
0

>  <FF_Energy>  (2364) 
33.91

>  <QM_Energy>  (2364) 
2.03

>  <source>  (2364) 
ACET_PRPA_30

>  <Index>  (2364) 
18232

$$$$
ACEH-pdb1z5h-B-GLH-23:PRPA-pdb1z5h-B-PRO-110
     RDKit          3D

 18 16  0  0  0  0  0  0  0  0999 V2000
    0.0087    1.5167    0.0119 C   0  0  0  0  0  0  0  0  0  0  0  0
    0.5778    1.8177   -0.7313 H   0  0  0  0  0  0  0  0  0  0  0  0
    0.3571    1.8060    0.8856 H   0  0  0  0  0  0  0  0  0  0  0  0
   -0.9822    1.9509   -0.1213 H   0  0  0  0  0  0  0  0  0  0  0  0
    0.0000    0.0000    0.0000 C   0  0  0  0  0  0  0  0  0  0  0  0
   -1.0975   -0.5998   -0.0000 O   0  0  0  0  0  0  0  0  0  0  0  0
    1.0975   -0.5977   -0.0000 O   0  0  0  0  0  0  0  0  0  0  0  0
    3.0700   -3.6844   -1.5287 C   0  0  0  0  0  0  0  0  0  0  0  0
    3.6114   -4.4704   -1.8569 H   0  0  0  0  0  0  0  0  0  0  0  0
    2.6717   -3.1160   -2.3691 H   0  0  0  0  0  0  0  0  0  0  0  0
    2.2755   -4.0120   -0.8581 H   0  0  0  0  0  0  0  0  0  0  0  0
    4.0603   -2.7129   -0.8833 C   0  0  0  0  0  0  0  0  0  0  0  0
    4.0793   -2.8363    0.1104 H   0  0  0  0  0  0  0  0  0  0  0  0
    4.9814   -2.8509   -1.2510 H   0  0  0  0  0  0  0  0  0  0  0  0
    3.5322   -1.3687   -1.2464 C   0  0  0  0  0  0  0  0  0  0  0  0
    2.7750   -1.1104   -0.6497 H   0  0  0  0  0  0  0  0  0  0  0  0
    4.2521   -0.6790   -1.1953 H   0  0  0  0  0  0  0  0  0  0  0  0
    3.1893   -1.4954   -2.2733 H   0  0  0  0  0  0  0  0  0  0  0  0
  1  5  1  0
  5  6  2  0
  5  7  1  0
  1  2  1  0
  1  3  1  0
  1  4  1  0
  8 12  1  0
 12 15  1  0
  8  9  1  0
  8 10  1  0
  8 11  1  0
 12 13  1  0
 12 14  1  0
 15 16  1  0
 15 17  1  0
 15 18  1  0
M  CHG  1   7  -1
V    7 [O&-]
M  END
>  <PDB_ID>  (2365) 
pdb1z5h

>  <RESIDUE_NAME>  (2365) 
GLU   PRO

>  <FRAG_NAME>  (2365) 
ACET   PRPA

>  <FRAG_ATOM_NUM>  (2365) 
fragi: 7 fragj: 11

>  <atom.prop.CHAIN_ID>  (2365) 
A A A A A A A Z Z Z Z Z Z Z Z Z Z Z

>  <atom.prop.IS_HEAVY_ATOM>  (2365) 
1 0 0 0 1 1 1 1 0 0 0 1 0 0 1 0 0 0

>  <DIFUSE_FUNC_ATOM>  (2365) 
n/a

>  <FINAL_SINGLE_POINT_ENERGY>  (2365) 
0

>  <NONCOV_INTER_ENERGY_QM>  (2365) 
0

>  <FF_Energy>  (2365) 
16.68

>  <QM_Energy>  (2365) 
-0.98

>  <source>  (2365) 
ACET_PRPA_30

>  <Index>  (2365) 
18731

$$$$
ACEH-pdb1z5h-B-GLH-23:PRPA-pdb1z5h-B-PRO-110
     RDKit          3D

 18 16  0  0  0  0  0  0  0  0999 V2000
    0.0087    1.5167    0.0119 C   0  0  0  0  0  0  0  0  0  0  0  0
    0.5778    1.8177   -0.7313 H   0  0  0  0  0  0  0  0  0  0  0  0
    0.3571    1.8060    0.8856 H   0  0  0  0  0  0  0  0  0  0  0  0
   -0.9822    1.9509   -0.1213 H   0  0  0  0  0  0  0  0  0  0  0  0
    0.0000    0.0000    0.0000 C   0  0  0  0  0  0  0  0  0  0  0  0
   -1.0975   -0.5998   -0.0000 O   0  0  0  0  0  0  0  0  0  0  0  0
    1.0975   -0.5977   -0.0000 O   0  0  0  0  0  0  0  0  0  0  0  0
    4.0603   -2.7129   -0.8833 C   0  0  0  0  0  0  0  0  0  0  0  0
    4.0793   -2.8363    0.1104 H   0  0  0  0  0  0  0  0  0  0  0  0
    4.9814   -2.8509   -1.2510 H   0  0  0  0  0  0  0  0  0  0  0  0
    3.3548   -3.4050   -1.3431 H   0  0  0  0  0  0  0  0  0  0  0  0
    3.5322   -1.3687   -1.2464 C   0  0  0  0  0  0  0  0  0  0  0  0
    2.7750   -1.1104   -0.6497 H   0  0  0  0  0  0  0  0  0  0  0  0
    4.2521   -0.6790   -1.1953 H   0  0  0  0  0  0  0  0  0  0  0  0
    3.0574   -1.5442   -2.6686 C   0  0  0  0  0  0  0  0  0  0  0  0
    2.3368   -0.8944   -2.8935 H   0  0  0  0  0  0  0  0  0  0  0  0
    3.8105   -1.4569   -3.3165 H   0  0  0  0  0  0  0  0  0  0  0  0
    2.6697   -2.5629   -2.6619 H   0  0  0  0  0  0  0  0  0  0  0  0
  1  5  1  0
  5  6  2  0
  5  7  1  0
  1  2  1  0
  1  3  1  0
  1  4  1  0
  8 12  1  0
 12 15  1  0
  8  9  1  0
  8 10  1  0
  8 11  1  0
 12 13  1  0
 12 14  1  0
 15 16  1  0
 15 17  1  0
 15 18  1  0
M  CHG  1   7  -1
V    7 [O&-]
M  END
>  <PDB_ID>  (2366) 
pdb1z5h

>  <RESIDUE_NAME>  (2366) 
GLU   PRO

>  <FRAG_NAME>  (2366) 
ACET   PRPA

>  <FRAG_ATOM_NUM>  (2366) 
fragi: 7 fragj: 11

>  <atom.prop.CHAIN_ID>  (2366) 
A A A A A A A Z Z Z Z Z Z Z Z Z Z Z

>  <atom.prop.IS_HEAVY_ATOM>  (2366) 
1 0 0 0 1 1 1 1 0 0 0 1 0 0 1 0 0 0

>  <DIFUSE_FUNC_ATOM>  (2366) 
n/a

>  <FINAL_SINGLE_POINT_ENERGY>  (2366) 
0

>  <NONCOV_INTER_ENERGY_QM>  (2366) 
0

>  <FF_Energy>  (2366) 
19.17

>  <QM_Energy>  (2366) 
-1.91

>  <source>  (2366) 
ACET_PRPA_30

>  <Index>  (2366) 
18741

$$$$
