ACET-pdb1iqz-A-GLU-45:PRPA-pdb1iqz-A-PRO-1
     RDKit          3D

 18 16  0  0  0  0  0  0  0  0999 V2000
    0.0726    1.5034    0.0055 C   0  0  0  0  0  0  0  0  0  0  0  0
    0.7027    1.7612   -0.7705 H   0  0  0  0  0  0  0  0  0  0  0  0
    0.5946    1.7603    0.8587 H   0  0  0  0  0  0  0  0  0  0  0  0
   -0.8115    2.1382   -0.0534 H   0  0  0  0  0  0  0  0  0  0  0  0
    0.0000    0.0000    0.0000 C   0  0  0  0  0  0  0  0  0  0  0  0
   -1.0956   -0.6003    0.0000 O   0  0  0  0  0  1  0  0  0  0  0  0
    1.0956   -0.6254   -0.0000 O   0  0  0  0  0  0  0  0  0  0  0  0
    3.1812    0.0110    2.4130 C   0  0  0  0  0  0  0  0  0  0  0  0
    3.2334   -0.3700    1.4917 H   0  0  0  0  0  0  0  0  0  0  0  0
    3.4965   -0.7223    3.1553 H   0  0  0  0  0  0  0  0  0  0  0  0
    3.8124    0.8934    2.5183 H   0  0  0  0  0  0  0  0  0  0  0  0
    1.7276    0.2682    2.7735 C   0  0  0  0  0  0  0  0  0  0  0  0
    1.4937    1.2439    2.6507 H   0  0  0  0  0  0  0  0  0  0  0  0
    1.1092   -0.2739    2.1865 H   0  0  0  0  0  0  0  0  0  0  0  0
    1.5769   -0.1324    4.2089 C   0  0  0  0  0  0  0  0  0  0  0  0
    1.6021    0.6879    4.8071 H   0  0  0  0  0  0  0  0  0  0  0  0
    0.6770   -0.5792    4.3554 H   0  0  0  0  0  0  0  0  0  0  0  0
    2.3901   -0.8144    4.4576 H   0  0  0  0  0  0  0  0  0  0  0  0
  1  5  1  0
  5  6  1  0
  5  7  2  0
  1  2  1  0
  1  3  1  0
  1  4  1  0
  8 12  1  0
 12 15  1  0
  8  9  1  0
  8 10  1  0
  8 11  1  0
 12 13  1  0
 12 14  1  0
 15 16  1  0
 15 17  1  0
 15 18  1  0
M  CHG  1   6  -1
M  END
>  <PDB_ID>  (1) 
pdb1iqz

>  <RESIDUE_NAME>  (1) 
GLU   PRO

>  <FRAG_NAME>  (1) 
ACET   PRPA

>  <FRAG_ATOM_NUM>  (1) 
fragi: 7  fragj: 11

>  <atom.prop.CHAIN_ID>  (1) 
A A A A A A A Z Z Z Z Z Z Z Z Z Z Z

>  <atom.prop.IS_HEAVY_ATOM>  (1) 
1 0 0 0 1 1 1 1 0 0 0 1 0 0 1 0 0 0

>  <DIFUSE_FUNC_ATOM>  (1) 
atom 6   atom 7   

>  <FINAL_SINGLE_POINT_ENERGY>  (1) 
0

>  <NONCOV_INTER_ENERGY_QM>  (1) 
0

>  <FF_Energy>  (1) 
16.34

>  <QM_Energy>  (1) 
-2.96

>  <Index>  (1) 
3

$$$$
ACET-pdb1iqz-A-ASP-28:PRPA-pdb1iqz-A-ILE-32
     RDKit          3D

 18 16  0  0  0  0  0  0  0  0999 V2000
   -0.0020    1.5151    0.0412 C   0  0  0  0  0  0  0  0  0  0  0  0
   -0.1365    1.8065    0.9949 H   0  0  0  0  0  0  0  0  0  0  0  0
   -0.7776    1.8467   -0.5055 H   0  0  0  0  0  0  0  0  0  0  0  0
    0.9032    1.9933   -0.3329 H   0  0  0  0  0  0  0  0  0  0  0  0
    0.0000    0.0000    0.0000 C   0  0  0  0  0  0  0  0  0  0  0  0
   -1.1007   -0.5728    0.0000 O   0  0  0  0  0  1  0  0  0  0  0  0
    1.1007   -0.5636   -0.0000 O   0  0  0  0  0  0  0  0  0  0  0  0
    1.0357   -2.5967   -3.0624 C   0  0  0  0  0  0  0  0  0  0  0  0
    1.3386   -3.2934   -3.7029 H   0  0  0  0  0  0  0  0  0  0  0  0
    1.9235   -2.2456   -2.5365 H   0  0  0  0  0  0  0  0  0  0  0  0
    0.6533   -1.7730   -3.6653 H   0  0  0  0  0  0  0  0  0  0  0  0
   -0.0523   -3.1205   -2.0861 C   0  0  0  0  0  0  0  0  0  0  0  0
   -0.2910   -2.3657   -1.4715 H   0  0  0  0  0  0  0  0  0  0  0  0
   -0.9514   -3.3646   -2.6518 H   0  0  0  0  0  0  0  0  0  0  0  0
    0.4378   -4.2868   -1.2454 C   0  0  0  0  0  0  0  0  0  0  0  0
    1.2908   -4.0193   -0.7937 H   0  0  0  0  0  0  0  0  0  0  0  0
   -0.2453   -4.4741   -0.5362 H   0  0  0  0  0  0  0  0  0  0  0  0
    0.6110   -5.2016   -1.8120 H   0  0  0  0  0  0  0  0  0  0  0  0
  1  5  1  0
  5  6  1  0
  5  7  2  0
  1  2  1  0
  1  3  1  0
  1  4  1  0
  8 12  1  0
 12 15  1  0
  8  9  1  0
  8 10  1  0
  8 11  1  0
 12 13  1  0
 12 14  1  0
 15 16  1  0
 15 17  1  0
 15 18  1  0
M  CHG  1   6  -1
M  END
>  <PDB_ID>  (2) 
pdb1iqz

>  <RESIDUE_NAME>  (2) 
ASP   ILE

>  <FRAG_NAME>  (2) 
ACET   PRPA

>  <FRAG_ATOM_NUM>  (2) 
fragi: 7  fragj: 11

>  <atom.prop.CHAIN_ID>  (2) 
A A A A A A A Z Z Z Z Z Z Z Z Z Z Z

>  <atom.prop.IS_HEAVY_ATOM>  (2) 
1 0 0 0 1 1 1 1 0 0 0 1 0 0 1 0 0 0

>  <DIFUSE_FUNC_ATOM>  (2) 
atom 6   atom 7   

>  <FINAL_SINGLE_POINT_ENERGY>  (2) 
0

>  <NONCOV_INTER_ENERGY_QM>  (2) 
0

>  <FF_Energy>  (2) 
-0.22

>  <QM_Energy>  (2) 
-5.41

>  <Index>  (2) 
43

$$$$
ACET-pdb1iqz-A-ASP-38:PRPA-pdb1iqz-A-VAL-44
     RDKit          3D

 18 16  0  0  0  0  0  0  0  0999 V2000
   -0.0559    1.5307    0.0812 C   0  0  0  0  0  0  0  0  0  0  0  0
   -0.3376    1.7809    0.9966 H   0  0  0  0  0  0  0  0  0  0  0  0
   -0.7044    1.8522   -0.5923 H   0  0  0  0  0  0  0  0  0  0  0  0
    0.9136    1.9853   -0.1224 H   0  0  0  0  0  0  0  0  0  0  0  0
    0.0000    0.0000    0.0000 C   0  0  0  0  0  0  0  0  0  0  0  0
   -1.1219   -0.6268    0.0000 O   0  0  0  0  0  1  0  0  0  0  0  0
    1.1219   -0.5449   -0.0000 O   0  0  0  0  0  0  0  0  0  0  0  0
   -4.2287    1.1076   -1.6067 C   0  0  0  0  0  0  0  0  0  0  0  0
   -4.9906    1.7244   -1.4516 H   0  0  0  0  0  0  0  0  0  0  0  0
   -3.9449    0.6713   -0.6491 H   0  0  0  0  0  0  0  0  0  0  0  0
   -4.5740    0.3001   -2.2523 H   0  0  0  0  0  0  0  0  0  0  0  0
   -3.0756    1.8611   -2.2613 C   0  0  0  0  0  0  0  0  0  0  0  0
   -2.2524    1.2786   -2.2106 H   0  0  0  0  0  0  0  0  0  0  0  0
   -3.2318    2.0800   -3.3176 H   0  0  0  0  0  0  0  0  0  0  0  0
   -2.8353    3.1924   -1.4592 C   0  0  0  0  0  0  0  0  0  0  0  0
   -2.6086    3.9045   -2.1118 H   0  0  0  0  0  0  0  0  0  0  0  0
   -3.6715    3.4104   -0.9722 H   0  0  0  0  0  0  0  0  0  0  0  0
   -2.0867    3.0368   -0.8281 H   0  0  0  0  0  0  0  0  0  0  0  0
  1  5  1  0
  5  6  1  0
  5  7  2  0
  1  2  1  0
  1  3  1  0
  1  4  1  0
  8 12  1  0
 12 15  1  0
  8  9  1  0
  8 10  1  0
  8 11  1  0
 12 13  1  0
 12 14  1  0
 15 16  1  0
 15 17  1  0
 15 18  1  0
M  CHG  1   6  -1
M  END
>  <PDB_ID>  (3) 
pdb1iqz

>  <RESIDUE_NAME>  (3) 
ASP   VAL

>  <FRAG_NAME>  (3) 
ACET   PRPA

>  <FRAG_ATOM_NUM>  (3) 
fragi: 7  fragj: 11

>  <atom.prop.CHAIN_ID>  (3) 
A A A A A A A Z Z Z Z Z Z Z Z Z Z Z

>  <atom.prop.IS_HEAVY_ATOM>  (3) 
1 0 0 0 1 1 1 1 0 0 0 1 0 0 1 0 0 0

>  <DIFUSE_FUNC_ATOM>  (3) 
atom 6   atom 7   

>  <FINAL_SINGLE_POINT_ENERGY>  (3) 
0

>  <NONCOV_INTER_ENERGY_QM>  (3) 
0

>  <FF_Energy>  (3) 
15.92

>  <QM_Energy>  (3) 
-2.28

>  <Index>  (3) 
84

$$$$
ACET-pdb3d1p-A-GLU-48:PRPA-pdb3d1p-A-ARG-66
     RDKit          3D

 18 16  0  0  0  0  0  0  0  0999 V2000
   -0.0525    1.5170   -0.1139 C   0  0  0  0  0  0  0  0  0  0  0  0
    0.8666    1.8440   -0.1564 H   0  0  0  0  0  0  0  0  0  0  0  0
   -0.5482    1.8557    0.6566 H   0  0  0  0  0  0  0  0  0  0  0  0
   -0.5688    1.8356   -1.0194 H   0  0  0  0  0  0  0  0  0  0  0  0
    0.0000    0.0000    0.0000 C   0  0  0  0  0  0  0  0  0  0  0  0
   -1.0964   -0.6123    0.0000 O   0  0  0  0  0  1  0  0  0  0  0  0
    1.0964   -0.5877   -0.0000 O   0  0  0  0  0  0  0  0  0  0  0  0
    3.1208   -1.7267    2.4975 C   0  0  0  0  0  0  0  0  0  0  0  0
    3.8427   -1.7666    3.2064 H   0  0  0  0  0  0  0  0  0  0  0  0
    3.5841   -1.8555    1.5193 H   0  0  0  0  0  0  0  0  0  0  0  0
    2.3837   -2.5006    2.7115 H   0  0  0  0  0  0  0  0  0  0  0  0
    2.4762   -0.3435    2.6054 C   0  0  0  0  0  0  0  0  0  0  0  0
    2.1346   -0.0884    1.7052 H   0  0  0  0  0  0  0  0  0  0  0  0
    1.7230   -0.4007    3.2538 H   0  0  0  0  0  0  0  0  0  0  0  0
    3.4230    0.7472    3.0777 C   0  0  0  0  0  0  0  0  0  0  0  0
    3.7072    0.5596    4.0131 H   0  0  0  0  0  0  0  0  0  0  0  0
    4.2170    0.7814    2.4778 H   0  0  0  0  0  0  0  0  0  0  0  0
    2.9415    1.7249    3.0584 H   0  0  0  0  0  0  0  0  0  0  0  0
  1  5  1  0
  5  6  1  0
  5  7  2  0
  1  2  1  0
  1  3  1  0
  1  4  1  0
  8 12  1  0
 12 15  1  0
  8  9  1  0
  8 10  1  0
  8 11  1  0
 12 13  1  0
 12 14  1  0
 15 16  1  0
 15 17  1  0
 15 18  1  0
M  CHG  1   6  -1
M  END
>  <PDB_ID>  (4) 
pdb3d1p

>  <RESIDUE_NAME>  (4) 
GLU   ARG

>  <FRAG_NAME>  (4) 
ACET   PRPA

>  <FRAG_ATOM_NUM>  (4) 
fragi: 7  fragj: 11

>  <atom.prop.CHAIN_ID>  (4) 
A A A A A A A Z Z Z Z Z Z Z Z Z Z Z

>  <atom.prop.IS_HEAVY_ATOM>  (4) 
1 0 0 0 1 1 1 1 0 0 0 1 0 0 1 0 0 0

>  <DIFUSE_FUNC_ATOM>  (4) 
atom 6   atom 7   

>  <FINAL_SINGLE_POINT_ENERGY>  (4) 
0

>  <NONCOV_INTER_ENERGY_QM>  (4) 
0

>  <FF_Energy>  (4) 
7.63

>  <QM_Energy>  (4) 
-2.12

>  <Index>  (4) 
331

$$$$
ACET-pdb3bwh-A-ASP-131:PRPA-pdb3bwh-A-LEU-6
     RDKit          3D

 18 16  0  0  0  0  0  0  0  0999 V2000
    0.0273    1.5255    0.0280 C   0  0  0  0  0  0  0  0  0  0  0  0
   -0.5769    1.8650   -0.6814 H   0  0  0  0  0  0  0  0  0  0  0  0
    0.9580    1.8277   -0.1293 H   0  0  0  0  0  0  0  0  0  0  0  0
   -0.3062    1.9331    0.9823 H   0  0  0  0  0  0  0  0  0  0  0  0
    0.0000    0.0000    0.0000 C   0  0  0  0  0  0  0  0  0  0  0  0
   -1.1031   -0.5924    0.0000 O   0  0  0  0  0  1  0  0  0  0  0  0
    1.1031   -0.5897   -0.0000 O   0  0  0  0  0  0  0  0  0  0  0  0
   -4.5832    2.0946   -2.5630 C   0  0  0  0  0  0  0  0  0  0  0  0
   -4.8850    1.3667   -1.9760 H   0  0  0  0  0  0  0  0  0  0  0  0
   -3.9039    1.8016   -3.2073 H   0  0  0  0  0  0  0  0  0  0  0  0
   -5.4456    2.4593   -3.1211 H   0  0  0  0  0  0  0  0  0  0  0  0
   -3.9516    3.1704   -1.6780 C   0  0  0  0  0  0  0  0  0  0  0  0
   -3.5528    3.8854   -2.2774 H   0  0  0  0  0  0  0  0  0  0  0  0
   -4.6510    3.6304   -0.9800 H   0  0  0  0  0  0  0  0  0  0  0  0
   -2.8012    2.6146   -0.9184 C   0  0  0  0  0  0  0  0  0  0  0  0
   -2.0968    2.2688   -1.5486 H   0  0  0  0  0  0  0  0  0  0  0  0
   -2.3874    3.3239   -0.3366 H   0  0  0  0  0  0  0  0  0  0  0  0
   -3.1016    1.8554   -0.3299 H   0  0  0  0  0  0  0  0  0  0  0  0
  1  5  1  0
  5  6  1  0
  5  7  2  0
  1  2  1  0
  1  3  1  0
  1  4  1  0
  8 12  1  0
 12 15  1  0
  8  9  1  0
  8 10  1  0
  8 11  1  0
 12 13  1  0
 12 14  1  0
 15 16  1  0
 15 17  1  0
 15 18  1  0
M  CHG  1   6  -1
M  END
>  <PDB_ID>  (5) 
pdb3bwh

>  <RESIDUE_NAME>  (5) 
ASP   LEU

>  <FRAG_NAME>  (5) 
ACET   PRPA

>  <FRAG_ATOM_NUM>  (5) 
fragi: 7  fragj: 11

>  <atom.prop.CHAIN_ID>  (5) 
A A A A A A A Z Z Z Z Z Z Z Z Z Z Z

>  <atom.prop.IS_HEAVY_ATOM>  (5) 
1 0 0 0 1 1 1 1 0 0 0 1 0 0 1 0 0 0

>  <DIFUSE_FUNC_ATOM>  (5) 
atom 6   atom 7   

>  <FINAL_SINGLE_POINT_ENERGY>  (5) 
0

>  <NONCOV_INTER_ENERGY_QM>  (5) 
0

>  <FF_Energy>  (5) 
7.42

>  <QM_Energy>  (5) 
0.79

>  <Index>  (5) 
401

$$$$
ACET-pdb1r2m-B-ASP-59:PRPA-pdb1r2m-B-LEU-62
     RDKit          3D

 18 16  0  0  0  0  0  0  0  0999 V2000
   -0.0402    1.5075    0.0748 C   0  0  0  0  0  0  0  0  0  0  0  0
    0.8554    1.8374    0.3719 H   0  0  0  0  0  0  0  0  0  0  0  0
   -0.7335    1.7771    0.7407 H   0  0  0  0  0  0  0  0  0  0  0  0
   -0.2785    1.9868   -0.8746 H   0  0  0  0  0  0  0  0  0  0  0  0
    0.0000    0.0000    0.0000 C   0  0  0  0  0  0  0  0  0  0  0  0
   -1.0678   -0.6348    0.0000 O   0  0  0  0  0  1  0  0  0  0  0  0
    1.0678   -0.6339    0.0000 O   0  0  0  0  0  0  0  0  0  0  0  0
   -2.8084   -0.4125    3.7356 C   0  0  0  0  0  0  0  0  0  0  0  0
   -2.1663   -1.1763    3.5961 H   0  0  0  0  0  0  0  0  0  0  0  0
   -3.5181   -0.4084    2.9083 H   0  0  0  0  0  0  0  0  0  0  0  0
   -3.3232   -0.5514    4.6862 H   0  0  0  0  0  0  0  0  0  0  0  0
   -2.0670    0.9321    3.8417 C   0  0  0  0  0  0  0  0  0  0  0  0
   -2.7179    1.6525    3.5646 H   0  0  0  0  0  0  0  0  0  0  0  0
   -1.8404    1.0705    4.8138 H   0  0  0  0  0  0  0  0  0  0  0  0
   -0.7949    1.1336    3.0418 C   0  0  0  0  0  0  0  0  0  0  0  0
   -0.9807    0.9670    2.0740 H   0  0  0  0  0  0  0  0  0  0  0  0
   -0.4288    2.1532    3.1624 H   0  0  0  0  0  0  0  0  0  0  0  0
   -0.0206    0.4146    3.3090 H   0  0  0  0  0  0  0  0  0  0  0  0
  1  5  1  0
  5  6  1  0
  5  7  2  0
  1  2  1  0
  1  3  1  0
  1  4  1  0
  8 12  1  0
 12 15  1  0
  8  9  1  0
  8 10  1  0
  8 11  1  0
 12 13  1  0
 12 14  1  0
 15 16  1  0
 15 17  1  0
 15 18  1  0
M  CHG  1   6  -1
M  END
>  <PDB_ID>  (6) 
pdb1r2m

>  <RESIDUE_NAME>  (6) 
ASP   LEU

>  <FRAG_NAME>  (6) 
ACET   PRPA

>  <FRAG_ATOM_NUM>  (6) 
fragi: 7  fragj: 11

>  <atom.prop.CHAIN_ID>  (6) 
A A A A A A A Z Z Z Z Z Z Z Z Z Z Z

>  <atom.prop.IS_HEAVY_ATOM>  (6) 
1 0 0 0 1 1 1 1 0 0 0 1 0 0 1 0 0 0

>  <DIFUSE_FUNC_ATOM>  (6) 
atom 6   atom 7   

>  <FINAL_SINGLE_POINT_ENERGY>  (6) 
0

>  <NONCOV_INTER_ENERGY_QM>  (6) 
0

>  <FF_Energy>  (6) 
36.31

>  <QM_Energy>  (6) 
2.44

>  <Index>  (6) 
421

$$$$
ACET-pdb1r2m-B-ASP-59:PRPA-pdb1r2m-B-LEU-62
     RDKit          3D

 18 16  0  0  0  0  0  0  0  0999 V2000
   -0.0402    1.5075    0.0748 C   0  0  0  0  0  0  0  0  0  0  0  0
    0.8554    1.8374    0.3719 H   0  0  0  0  0  0  0  0  0  0  0  0
   -0.7335    1.7771    0.7407 H   0  0  0  0  0  0  0  0  0  0  0  0
   -0.2785    1.9868   -0.8746 H   0  0  0  0  0  0  0  0  0  0  0  0
    0.0000    0.0000    0.0000 C   0  0  0  0  0  0  0  0  0  0  0  0
   -1.0678   -0.6348    0.0000 O   0  0  0  0  0  1  0  0  0  0  0  0
    1.0678   -0.6339    0.0000 O   0  0  0  0  0  0  0  0  0  0  0  0
   -2.0670    0.9321    3.8417 C   0  0  0  0  0  0  0  0  0  0  0  0
   -2.7179    1.6525    3.5646 H   0  0  0  0  0  0  0  0  0  0  0  0
   -1.8404    1.0705    4.8138 H   0  0  0  0  0  0  0  0  0  0  0  0
   -2.5921   -0.0202    3.7665 H   0  0  0  0  0  0  0  0  0  0  0  0
   -0.7949    1.1336    3.0418 C   0  0  0  0  0  0  0  0  0  0  0  0
   -0.9807    0.9670    2.0740 H   0  0  0  0  0  0  0  0  0  0  0  0
   -0.4288    2.1532    3.1624 H   0  0  0  0  0  0  0  0  0  0  0  0
    0.2814    0.1341    3.4131 C   0  0  0  0  0  0  0  0  0  0  0  0
   -0.0469   -0.7964    3.2401 H   0  0  0  0  0  0  0  0  0  0  0  0
    1.1019    0.3019    2.8636 H   0  0  0  0  0  0  0  0  0  0  0  0
    0.5095    0.2285    4.3846 H   0  0  0  0  0  0  0  0  0  0  0  0
  1  5  1  0
  5  6  1  0
  5  7  2  0
  1  2  1  0
  1  3  1  0
  1  4  1  0
  8 12  1  0
 12 15  1  0
  8  9  1  0
  8 10  1  0
  8 11  1  0
 12 13  1  0
 12 14  1  0
 15 16  1  0
 15 17  1  0
 15 18  1  0
M  CHG  1   6  -1
M  END
>  <PDB_ID>  (7) 
pdb1r2m

>  <RESIDUE_NAME>  (7) 
ASP   LEU

>  <FRAG_NAME>  (7) 
ACET   PRPA

>  <FRAG_ATOM_NUM>  (7) 
fragi: 7  fragj: 11

>  <atom.prop.CHAIN_ID>  (7) 
A A A A A A A Z Z Z Z Z Z Z Z Z Z Z

>  <atom.prop.IS_HEAVY_ATOM>  (7) 
1 0 0 0 1 1 1 1 0 0 0 1 0 0 1 0 0 0

>  <DIFUSE_FUNC_ATOM>  (7) 
atom 6   atom 7   

>  <FINAL_SINGLE_POINT_ENERGY>  (7) 
0

>  <NONCOV_INTER_ENERGY_QM>  (7) 
0

>  <FF_Energy>  (7) 
36.17

>  <QM_Energy>  (7) 
1.15

>  <Index>  (7) 
433

$$$$
ACET-pdb1gvu-A-ASP-119:PRPA-pdb1gvu-A-ILE-122
     RDKit          3D

 18 16  0  0  0  0  0  0  0  0999 V2000
    0.2297    1.4982    0.1158 C   0  0  0  0  0  0  0  0  0  0  0  0
    0.7085    1.8013   -0.6605 H   0  0  0  0  0  0  0  0  0  0  0  0
    0.6348    1.6875    0.9653 H   0  0  0  0  0  0  0  0  0  0  0  0
   -0.7721    1.9274    0.1002 H   0  0  0  0  0  0  0  0  0  0  0  0
    0.0000    0.0000    0.0000 C   0  0  0  0  0  0  0  0  0  0  0  0
   -1.1093   -0.5698    0.0000 O   0  0  0  0  0  1  0  0  0  0  0  0
    1.1093   -0.5680   -0.0000 O   0  0  0  0  0  0  0  0  0  0  0  0
    1.8348   -1.2555    3.7222 C   0  0  0  0  0  0  0  0  0  0  0  0
    1.6558   -0.4907    3.1166 H   0  0  0  0  0  0  0  0  0  0  0  0
    0.9797   -1.3760    4.3874 H   0  0  0  0  0  0  0  0  0  0  0  0
    2.7569   -1.0938    4.2807 H   0  0  0  0  0  0  0  0  0  0  0  0
    2.0216   -2.5225    2.8255 C   0  0  0  0  0  0  0  0  0  0  0  0
    2.3220   -3.2701    3.4251 H   0  0  0  0  0  0  0  0  0  0  0  0
    1.1146   -2.7640    2.4653 H   0  0  0  0  0  0  0  0  0  0  0  0
    2.9874   -2.3713    1.6840 C   0  0  0  0  0  0  0  0  0  0  0  0
    3.8946   -2.1435    2.0394 H   0  0  0  0  0  0  0  0  0  0  0  0
    3.0387   -3.2290    1.1716 H   0  0  0  0  0  0  0  0  0  0  0  0
    2.6769   -1.6406    1.0757 H   0  0  0  0  0  0  0  0  0  0  0  0
  1  5  1  0
  5  6  1  0
  5  7  2  0
  1  2  1  0
  1  3  1  0
  1  4  1  0
  8 12  1  0
 12 15  1  0
  8  9  1  0
  8 10  1  0
  8 11  1  0
 12 13  1  0
 12 14  1  0
 15 16  1  0
 15 17  1  0
 15 18  1  0
M  CHG  1   6  -1
M  END
>  <PDB_ID>  (8) 
pdb1gvu

>  <RESIDUE_NAME>  (8) 
ASP   ILE

>  <FRAG_NAME>  (8) 
ACET   PRPA

>  <FRAG_ATOM_NUM>  (8) 
fragi: 7  fragj: 11

>  <atom.prop.CHAIN_ID>  (8) 
A A A A A A A Z Z Z Z Z Z Z Z Z Z Z

>  <atom.prop.IS_HEAVY_ATOM>  (8) 
1 0 0 0 1 1 1 1 0 0 0 1 0 0 1 0 0 0

>  <DIFUSE_FUNC_ATOM>  (8) 
atom 6   atom 7   

>  <FINAL_SINGLE_POINT_ENERGY>  (8) 
0

>  <NONCOV_INTER_ENERGY_QM>  (8) 
0

>  <FF_Energy>  (8) 
2.43

>  <QM_Energy>  (8) 
-4.53

>  <Index>  (8) 
434

$$$$
ACET-pdb1r2m-B-ASP-59:PRPA-pdb1r2m-B-LEU-62
     RDKit          3D

 18 16  0  0  0  0  0  0  0  0999 V2000
   -0.0402    1.5075    0.0748 C   0  0  0  0  0  0  0  0  0  0  0  0
    0.8554    1.8374    0.3719 H   0  0  0  0  0  0  0  0  0  0  0  0
   -0.7335    1.7771    0.7407 H   0  0  0  0  0  0  0  0  0  0  0  0
   -0.2785    1.9868   -0.8746 H   0  0  0  0  0  0  0  0  0  0  0  0
    0.0000    0.0000    0.0000 C   0  0  0  0  0  0  0  0  0  0  0  0
   -1.0678   -0.6348    0.0000 O   0  0  0  0  0  1  0  0  0  0  0  0
    1.0678   -0.6339    0.0000 O   0  0  0  0  0  0  0  0  0  0  0  0
   -0.2812    2.5641    3.2109 C   0  0  0  0  0  0  0  0  0  0  0  0
   -0.0902    2.7352    4.1768 H   0  0  0  0  0  0  0  0  0  0  0  0
    0.5559    2.6793    2.6781 H   0  0  0  0  0  0  0  0  0  0  0  0
   -0.9758    3.2055    2.8880 H   0  0  0  0  0  0  0  0  0  0  0  0
   -0.7949    1.1336    3.0418 C   0  0  0  0  0  0  0  0  0  0  0  0
   -0.9807    0.9670    2.0740 H   0  0  0  0  0  0  0  0  0  0  0  0
   -1.7095    0.9887    3.6168 H   0  0  0  0  0  0  0  0  0  0  0  0
    0.2814    0.1341    3.4131 C   0  0  0  0  0  0  0  0  0  0  0  0
   -0.0469   -0.7964    3.2401 H   0  0  0  0  0  0  0  0  0  0  0  0
    1.1019    0.3019    2.8636 H   0  0  0  0  0  0  0  0  0  0  0  0
    0.5095    0.2285    4.3846 H   0  0  0  0  0  0  0  0  0  0  0  0
  1  5  1  0
  5  6  1  0
  5  7  2  0
  1  2  1  0
  1  3  1  0
  1  4  1  0
  8 12  1  0
 12 15  1  0
  8  9  1  0
  8 10  1  0
  8 11  1  0
 12 13  1  0
 12 14  1  0
 15 16  1  0
 15 17  1  0
 15 18  1  0
M  CHG  1   6  -1
M  END
>  <PDB_ID>  (9) 
pdb1r2m

>  <RESIDUE_NAME>  (9) 
ASP   LEU

>  <FRAG_NAME>  (9) 
ACET   PRPA

>  <FRAG_ATOM_NUM>  (9) 
fragi: 7  fragj: 11

>  <atom.prop.CHAIN_ID>  (9) 
A A A A A A A Z Z Z Z Z Z Z Z Z Z Z

>  <atom.prop.IS_HEAVY_ATOM>  (9) 
1 0 0 0 1 1 1 1 0 0 0 1 0 0 1 0 0 0

>  <DIFUSE_FUNC_ATOM>  (9) 
atom 6   atom 7   

>  <FINAL_SINGLE_POINT_ENERGY>  (9) 
0

>  <NONCOV_INTER_ENERGY_QM>  (9) 
0

>  <FF_Energy>  (9) 
36.52

>  <QM_Energy>  (9) 
0.65

>  <Index>  (9) 
436

$$$$
ACET-pdb3kff-A-GLU-79:PRPA-pdb3kff-A-LYS-76
     RDKit          3D

 18 16  0  0  0  0  0  0  0  0999 V2000
   -0.0341    1.4966    0.0154 C   0  0  0  0  0  0  0  0  0  0  0  0
   -0.6839    1.8005   -0.6196 H   0  0  0  0  0  0  0  0  0  0  0  0
    0.8589    1.8300   -0.0858 H   0  0  0  0  0  0  0  0  0  0  0  0
   -0.3832    1.7931    1.0045 H   0  0  0  0  0  0  0  0  0  0  0  0
    0.0000    0.0000    0.0000 C   0  0  0  0  0  0  0  0  0  0  0  0
   -1.1130   -0.5617   -0.0000 O   0  0  0  0  0  1  0  0  0  0  0  0
    1.1130   -0.5393    0.0000 O   0  0  0  0  0  0  0  0  0  0  0  0
   -2.3146   -1.0468    3.5438 C   0  0  0  0  0  0  0  0  0  0  0  0
   -2.1252   -0.5221    2.6656 H   0  0  0  0  0  0  0  0  0  0  0  0
   -1.5227   -0.7739    4.1625 H   0  0  0  0  0  0  0  0  0  0  0  0
   -3.2190   -0.6223    3.9797 H   0  0  0  0  0  0  0  0  0  0  0  0
   -2.1646   -2.5149    3.2353 C   0  0  0  0  0  0  0  0  0  0  0  0
   -1.9254   -3.0087    4.0769 H   0  0  0  0  0  0  0  0  0  0  0  0
   -3.0360   -2.8727    2.8873 H   0  0  0  0  0  0  0  0  0  0  0  0
   -1.0841   -2.7751    2.1977 C   0  0  0  0  0  0  0  0  0  0  0  0
   -1.2574   -2.2064    1.4025 H   0  0  0  0  0  0  0  0  0  0  0  0
   -0.1985   -2.5612    2.5938 H   0  0  0  0  0  0  0  0  0  0  0  0
   -1.0830   -3.8194    1.8853 H   0  0  0  0  0  0  0  0  0  0  0  0
  1  5  1  0
  5  6  1  0
  5  7  2  0
  1  2  1  0
  1  3  1  0
  1  4  1  0
  8 12  1  0
 12 15  1  0
  8  9  1  0
  8 10  1  0
  8 11  1  0
 12 13  1  0
 12 14  1  0
 15 16  1  0
 15 17  1  0
 15 18  1  0
M  CHG  1   6  -1
M  END
>  <PDB_ID>  (10) 
pdb3kff

>  <RESIDUE_NAME>  (10) 
GLU   LYS

>  <FRAG_NAME>  (10) 
ACET   PRPA

>  <FRAG_ATOM_NUM>  (10) 
fragi: 7  fragj: 11

>  <atom.prop.CHAIN_ID>  (10) 
A A A A A A A Z Z Z Z Z Z Z Z Z Z Z

>  <atom.prop.IS_HEAVY_ATOM>  (10) 
1 0 0 0 1 1 1 1 0 0 0 1 0 0 1 0 0 0

>  <DIFUSE_FUNC_ATOM>  (10) 
atom 6   atom 7   

>  <FINAL_SINGLE_POINT_ENERGY>  (10) 
0

>  <NONCOV_INTER_ENERGY_QM>  (10) 
0

>  <FF_Energy>  (10) 
2.54

>  <QM_Energy>  (10) 
-4.15

>  <Index>  (10) 
534

$$$$
ACET-pdb3q46-A-ASP-43:PRPA-pdb3q46-A-LYN-30
     RDKit          3D

 18 16  0  0  0  0  0  0  0  0999 V2000
   -0.1389    1.5134   -0.2281 C   0  0  0  0  0  0  0  0  0  0  0  0
   -0.3874    1.6625   -1.1836 H   0  0  0  0  0  0  0  0  0  0  0  0
    0.7440    1.9390   -0.0395 H   0  0  0  0  0  0  0  0  0  0  0  0
   -0.8900    1.9956    0.3975 H   0  0  0  0  0  0  0  0  0  0  0  0
    0.0000    0.0000    0.0000 C   0  0  0  0  0  0  0  0  0  0  0  0
   -1.1087   -0.6017   -0.0000 O   0  0  0  0  0  1  0  0  0  0  0  0
    1.1087   -0.5720   -0.0000 O   0  0  0  0  0  0  0  0  0  0  0  0
    3.9767    4.2791    0.9867 C   0  0  0  0  0  0  0  0  0  0  0  0
    4.8128    4.5009    0.4758 H   0  0  0  0  0  0  0  0  0  0  0  0
    3.9549    4.8692    1.9028 H   0  0  0  0  0  0  0  0  0  0  0  0
    3.1133    4.5162    0.3652 H   0  0  0  0  0  0  0  0  0  0  0  0
    4.0270    2.7787    1.3061 C   0  0  0  0  0  0  0  0  0  0  0  0
    4.9876    2.5142    1.4197 H   0  0  0  0  0  0  0  0  0  0  0  0
    3.5413    2.6259    2.1704 H   0  0  0  0  0  0  0  0  0  0  0  0
    3.4057    1.8526    0.2462 C   0  0  0  0  0  0  0  0  0  0  0  0
    3.3829    0.9202    0.6112 H   0  0  0  0  0  0  0  0  0  0  0  0
    2.4692    2.1582    0.0641 H   0  0  0  0  0  0  0  0  0  0  0  0
    3.9685    1.8550   -0.6872 H   0  0  0  0  0  0  0  0  0  0  0  0
  1  5  1  0
  5  6  1  0
  5  7  2  0
  1  2  1  0
  1  3  1  0
  1  4  1  0
  8 12  1  0
 12 15  1  0
  8  9  1  0
  8 10  1  0
  8 11  1  0
 12 13  1  0
 12 14  1  0
 15 16  1  0
 15 17  1  0
 15 18  1  0
M  CHG  1   6  -1
M  END
>  <PDB_ID>  (11) 
pdb3q46

>  <RESIDUE_NAME>  (11) 
ASP   LYN

>  <FRAG_NAME>  (11) 
ACET   PRPA

>  <FRAG_ATOM_NUM>  (11) 
fragi: 7  fragj: 11

>  <atom.prop.CHAIN_ID>  (11) 
A A A A A A A Z Z Z Z Z Z Z Z Z Z Z

>  <atom.prop.IS_HEAVY_ATOM>  (11) 
1 0 0 0 1 1 1 1 0 0 0 1 0 0 1 0 0 0

>  <DIFUSE_FUNC_ATOM>  (11) 
atom 6   atom 7   

>  <FINAL_SINGLE_POINT_ENERGY>  (11) 
0

>  <NONCOV_INTER_ENERGY_QM>  (11) 
0

>  <FF_Energy>  (11) 
7.53

>  <QM_Energy>  (11) 
-0.3

>  <Index>  (11) 
570

$$$$
ACET-pdb3q46-A-ASP-43:PRPA-pdb3q46-A-LYN-30
     RDKit          3D

 18 16  0  0  0  0  0  0  0  0999 V2000
   -0.1389    1.5134   -0.2281 C   0  0  0  0  0  0  0  0  0  0  0  0
   -0.3874    1.6625   -1.1836 H   0  0  0  0  0  0  0  0  0  0  0  0
    0.7440    1.9390   -0.0395 H   0  0  0  0  0  0  0  0  0  0  0  0
   -0.8900    1.9956    0.3975 H   0  0  0  0  0  0  0  0  0  0  0  0
    0.0000    0.0000    0.0000 C   0  0  0  0  0  0  0  0  0  0  0  0
   -1.1087   -0.6017   -0.0000 O   0  0  0  0  0  1  0  0  0  0  0  0
    1.1087   -0.5720   -0.0000 O   0  0  0  0  0  0  0  0  0  0  0  0
    4.0270    2.7787    1.3061 C   0  0  0  0  0  0  0  0  0  0  0  0
    4.9876    2.5142    1.4197 H   0  0  0  0  0  0  0  0  0  0  0  0
    3.5413    2.6259    2.1704 H   0  0  0  0  0  0  0  0  0  0  0  0
    3.9913    3.8442    1.0792 H   0  0  0  0  0  0  0  0  0  0  0  0
    3.4057    1.8526    0.2462 C   0  0  0  0  0  0  0  0  0  0  0  0
    3.3829    0.9202    0.6112 H   0  0  0  0  0  0  0  0  0  0  0  0
    2.4692    2.1582    0.0641 H   0  0  0  0  0  0  0  0  0  0  0  0
    4.1919    1.8559   -1.0577 C   0  0  0  0  0  0  0  0  0  0  0  0
    3.8423    2.5829   -1.6448 H   0  0  0  0  0  0  0  0  0  0  0  0
    5.1550    2.0156   -0.8551 H   0  0  0  0  0  0  0  0  0  0  0  0
    4.1074    0.9115   -1.5953 H   0  0  0  0  0  0  0  0  0  0  0  0
  1  5  1  0
  5  6  1  0
  5  7  2  0
  1  2  1  0
  1  3  1  0
  1  4  1  0
  8 12  1  0
 12 15  1  0
  8  9  1  0
  8 10  1  0
  8 11  1  0
 12 13  1  0
 12 14  1  0
 15 16  1  0
 15 17  1  0
 15 18  1  0
M  CHG  1   6  -1
M  END
>  <PDB_ID>  (12) 
pdb3q46

>  <RESIDUE_NAME>  (12) 
ASP   LYN

>  <FRAG_NAME>  (12) 
ACET   PRPA

>  <FRAG_ATOM_NUM>  (12) 
fragi: 7  fragj: 11

>  <atom.prop.CHAIN_ID>  (12) 
A A A A A A A Z Z Z Z Z Z Z Z Z Z Z

>  <atom.prop.IS_HEAVY_ATOM>  (12) 
1 0 0 0 1 1 1 1 0 0 0 1 0 0 1 0 0 0

>  <DIFUSE_FUNC_ATOM>  (12) 
atom 6   atom 7   

>  <FINAL_SINGLE_POINT_ENERGY>  (12) 
0

>  <NONCOV_INTER_ENERGY_QM>  (12) 
0

>  <FF_Energy>  (12) 
7.41

>  <QM_Energy>  (12) 
-0.86

>  <Index>  (12) 
572

$$$$
ACET-pdb3q46-A-ASP-43:PRPA-pdb3q46-A-LYN-30
     RDKit          3D

 18 16  0  0  0  0  0  0  0  0999 V2000
   -0.1389    1.5134   -0.2281 C   0  0  0  0  0  0  0  0  0  0  0  0
   -0.3874    1.6625   -1.1836 H   0  0  0  0  0  0  0  0  0  0  0  0
    0.7440    1.9390   -0.0395 H   0  0  0  0  0  0  0  0  0  0  0  0
   -0.8900    1.9956    0.3975 H   0  0  0  0  0  0  0  0  0  0  0  0
    0.0000    0.0000    0.0000 C   0  0  0  0  0  0  0  0  0  0  0  0
   -1.1087   -0.6017   -0.0000 O   0  0  0  0  0  1  0  0  0  0  0  0
    1.1087   -0.5720   -0.0000 O   0  0  0  0  0  0  0  0  0  0  0  0
    3.4057    1.8526    0.2462 C   0  0  0  0  0  0  0  0  0  0  0  0
    3.3829    0.9202    0.6112 H   0  0  0  0  0  0  0  0  0  0  0  0
    2.4692    2.1582    0.0641 H   0  0  0  0  0  0  0  0  0  0  0  0
    3.8459    2.5087    0.9972 H   0  0  0  0  0  0  0  0  0  0  0  0
    4.1919    1.8559   -1.0577 C   0  0  0  0  0  0  0  0  0  0  0  0
    3.8423    2.5829   -1.6448 H   0  0  0  0  0  0  0  0  0  0  0  0
    5.1550    2.0156   -0.8551 H   0  0  0  0  0  0  0  0  0  0  0  0
    4.0734    0.5302   -1.8123 C   0  0  0  0  0  0  0  0  0  0  0  0
    4.5483   -0.1832   -1.2851 H   0  0  0  0  0  0  0  0  0  0  0  0
    3.0996    0.2837   -1.8783 H   0  0  0  0  0  0  0  0  0  0  0  0
    4.4992    0.5777   -2.8146 H   0  0  0  0  0  0  0  0  0  0  0  0
  1  5  1  0
  5  6  1  0
  5  7  2  0
  1  2  1  0
  1  3  1  0
  1  4  1  0
  8 12  1  0
 12 15  1  0
  8  9  1  0
  8 10  1  0
  8 11  1  0
 12 13  1  0
 12 14  1  0
 15 16  1  0
 15 17  1  0
 15 18  1  0
M  CHG  1   6  -1
M  END
>  <PDB_ID>  (13) 
pdb3q46

>  <RESIDUE_NAME>  (13) 
ASP   LYN

>  <FRAG_NAME>  (13) 
ACET   PRPA

>  <FRAG_ATOM_NUM>  (13) 
fragi: 7  fragj: 11

>  <atom.prop.CHAIN_ID>  (13) 
A A A A A A A Z Z Z Z Z Z Z Z Z Z Z

>  <atom.prop.IS_HEAVY_ATOM>  (13) 
1 0 0 0 1 1 1 1 0 0 0 1 0 0 1 0 0 0

>  <DIFUSE_FUNC_ATOM>  (13) 
atom 6   atom 7   

>  <FINAL_SINGLE_POINT_ENERGY>  (13) 
0

>  <NONCOV_INTER_ENERGY_QM>  (13) 
0

>  <FF_Energy>  (13) 
7.43

>  <QM_Energy>  (13) 
-1.57

>  <Index>  (13) 
642

$$$$
ACET-pdb3x0i-A-ASP-128:PRPA-pdb3x0i-A-PRO-125
     RDKit          3D

 18 16  0  0  0  0  0  0  0  0999 V2000
    0.0155    1.5182   -0.0212 C   0  0  0  0  0  0  0  0  0  0  0  0
    0.5188    1.8161   -0.8390 H   0  0  0  0  0  0  0  0  0  0  0  0
    0.5071    1.8386    0.7940 H   0  0  0  0  0  0  0  0  0  0  0  0
   -0.9677    1.9885   -0.0350 H   0  0  0  0  0  0  0  0  0  0  0  0
    0.0000    0.0000    0.0000 C   0  0  0  0  0  0  0  0  0  0  0  0
   -1.0958   -0.6029    0.0000 O   0  0  0  0  0  1  0  0  0  0  0  0
    1.0958   -0.5725    0.0000 O   0  0  0  0  0  0  0  0  0  0  0  0
    1.2750   -1.4218   -4.0279 C   0  0  0  0  0  0  0  0  0  0  0  0
    1.2976   -2.1906   -4.6949 H   0  0  0  0  0  0  0  0  0  0  0  0
    1.8289   -0.5666   -4.4150 H   0  0  0  0  0  0  0  0  0  0  0  0
    0.2455   -1.1960   -3.7499 H   0  0  0  0  0  0  0  0  0  0  0  0
    2.1261   -1.8408   -2.8296 C   0  0  0  0  0  0  0  0  0  0  0  0
    1.5319   -2.1093   -2.0520 H   0  0  0  0  0  0  0  0  0  0  0  0
    2.6952   -2.6461   -3.0649 H   0  0  0  0  0  0  0  0  0  0  0  0
    2.9709   -0.6766   -2.4760 C   0  0  0  0  0  0  0  0  0  0  0  0
    2.4957   -0.0781   -1.8186 H   0  0  0  0  0  0  0  0  0  0  0  0
    3.8364   -0.9785   -2.0576 H   0  0  0  0  0  0  0  0  0  0  0  0
    3.1543   -0.1551   -3.4154 H   0  0  0  0  0  0  0  0  0  0  0  0
  1  5  1  0
  5  6  1  0
  5  7  2  0
  1  2  1  0
  1  3  1  0
  1  4  1  0
  8 12  1  0
 12 15  1  0
  8  9  1  0
  8 10  1  0
  8 11  1  0
 12 13  1  0
 12 14  1  0
 15 16  1  0
 15 17  1  0
 15 18  1  0
M  CHG  1   6  -1
M  END
>  <PDB_ID>  (14) 
pdb3x0i

>  <RESIDUE_NAME>  (14) 
ASP   PRO

>  <FRAG_NAME>  (14) 
ACET   PRPA

>  <FRAG_ATOM_NUM>  (14) 
fragi: 7  fragj: 11

>  <atom.prop.CHAIN_ID>  (14) 
A A A A A A A Z Z Z Z Z Z Z Z Z Z Z

>  <atom.prop.IS_HEAVY_ATOM>  (14) 
1 0 0 0 1 1 1 1 0 0 0 1 0 0 1 0 0 0

>  <DIFUSE_FUNC_ATOM>  (14) 
atom 6   atom 7   

>  <FINAL_SINGLE_POINT_ENERGY>  (14) 
0

>  <NONCOV_INTER_ENERGY_QM>  (14) 
0

>  <FF_Energy>  (14) 
0.52

>  <QM_Energy>  (14) 
-4.85

>  <Index>  (14) 
981

$$$$
ACET-pdb3x0i-A-GLU-149:PRPA-pdb3x0i-A-ARG-144
     RDKit          3D

 18 16  0  0  0  0  0  0  0  0999 V2000
    0.0434    1.4942   -0.0291 C   0  0  0  0  0  0  0  0  0  0  0  0
    0.8364    1.7688   -0.5827 H   0  0  0  0  0  0  0  0  0  0  0  0
    0.1851    1.8163    0.9134 H   0  0  0  0  0  0  0  0  0  0  0  0
   -0.8242    2.0218   -0.4250 H   0  0  0  0  0  0  0  0  0  0  0  0
    0.0000    0.0000    0.0000 C   0  0  0  0  0  0  0  0  0  0  0  0
   -1.0393   -0.6383    0.0000 O   0  0  0  0  0  1  0  0  0  0  0  0
    1.0393   -0.7070    0.0000 O   0  0  0  0  0  0  0  0  0  0  0  0
   -4.4931   -0.0348    0.3967 C   0  0  0  0  0  0  0  0  0  0  0  0
   -5.0953   -0.6983   -0.0427 H   0  0  0  0  0  0  0  0  0  0  0  0
   -3.6691    0.0883   -0.1519 H   0  0  0  0  0  0  0  0  0  0  0  0
   -5.0138    0.9201    0.4695 H   0  0  0  0  0  0  0  0  0  0  0  0
   -4.0701   -0.6152    1.7400 C   0  0  0  0  0  0  0  0  0  0  0  0
   -3.3820   -0.0382    2.1430 H   0  0  0  0  0  0  0  0  0  0  0  0
   -4.8604   -0.7077    2.3193 H   0  0  0  0  0  0  0  0  0  0  0  0
   -3.4822   -1.9782    1.4984 C   0  0  0  0  0  0  0  0  0  0  0  0
   -4.2092   -2.5116    0.9671 H   0  0  0  0  0  0  0  0  0  0  0  0
   -2.7312   -1.8402    0.7824 H   0  0  0  0  0  0  0  0  0  0  0  0
   -3.1080   -2.5724    2.3321 H   0  0  0  0  0  0  0  0  0  0  0  0
  1  5  1  0
  5  6  1  0
  5  7  2  0
  1  2  1  0
  1  3  1  0
  1  4  1  0
  8 12  1  0
 12 15  1  0
  8  9  1  0
  8 10  1  0
  8 11  1  0
 12 13  1  0
 12 14  1  0
 15 16  1  0
 15 17  1  0
 15 18  1  0
M  CHG  1   6  -1
M  END
>  <PDB_ID>  (15) 
pdb3x0i

>  <RESIDUE_NAME>  (15) 
GLU   ARG

>  <FRAG_NAME>  (15) 
ACET   PRPA

>  <FRAG_ATOM_NUM>  (15) 
fragi: 7  fragj: 11

>  <atom.prop.CHAIN_ID>  (15) 
A A A A A A A Z Z Z Z Z Z Z Z Z Z Z

>  <atom.prop.IS_HEAVY_ATOM>  (15) 
1 0 0 0 1 1 1 1 0 0 0 1 0 0 1 0 0 0

>  <DIFUSE_FUNC_ATOM>  (15) 
atom 6   atom 7   

>  <FINAL_SINGLE_POINT_ENERGY>  (15) 
0

>  <NONCOV_INTER_ENERGY_QM>  (15) 
0

>  <FF_Energy>  (15) 
1.74

>  <QM_Energy>  (15) 
-5.02

>  <Index>  (15) 
1096

$$$$
ACET-pdb6fvi-A-GLU-1796:PRPA-pdb6fvi-A-ARG-1763
     RDKit          3D

 18 16  0  0  0  0  0  0  0  0999 V2000
   -0.0191    1.5241   -0.0379 C   0  0  0  0  0  0  0  0  0  0  0  0
    0.8476    1.8450   -0.3347 H   0  0  0  0  0  0  0  0  0  0  0  0
   -0.2305    1.8666    0.8361 H   0  0  0  0  0  0  0  0  0  0  0  0
   -0.7894    1.8403   -0.7412 H   0  0  0  0  0  0  0  0  0  0  0  0
    0.0000    0.0000    0.0000 C   0  0  0  0  0  0  0  0  0  0  0  0
   -1.1126   -0.5968   -0.0000 O   0  0  0  0  0  1  0  0  0  0  0  0
    1.1126   -0.5945   -0.0000 O   0  0  0  0  0  0  0  0  0  0  0  0
   -1.9795   -2.7200    4.1412 C   0  0  0  0  0  0  0  0  0  0  0  0
   -2.6105   -1.9792    4.1574 H   0  0  0  0  0  0  0  0  0  0  0  0
   -0.9983   -2.3531    4.4422 H   0  0  0  0  0  0  0  0  0  0  0  0
   -2.2806   -3.4781    4.8642 H   0  0  0  0  0  0  0  0  0  0  0  0
   -1.9304   -3.2937    2.7324 C   0  0  0  0  0  0  0  0  0  0  0  0
   -1.1867   -3.9129    2.6679 H   0  0  0  0  0  0  0  0  0  0  0  0
   -2.7630   -3.7574    2.5512 H   0  0  0  0  0  0  0  0  0  0  0  0
   -1.7475   -2.2259    1.6828 C   0  0  0  0  0  0  0  0  0  0  0  0
   -2.5586   -1.7005    1.6009 H   0  0  0  0  0  0  0  0  0  0  0  0
   -0.9895   -1.6650    1.9112 H   0  0  0  0  0  0  0  0  0  0  0  0
   -1.5484   -2.7270    0.7355 H   0  0  0  0  0  0  0  0  0  0  0  0
  1  5  1  0
  5  6  1  0
  5  7  2  0
  1  2  1  0
  1  3  1  0
  1  4  1  0
  8 12  1  0
 12 15  1  0
  8  9  1  0
  8 10  1  0
  8 11  1  0
 12 13  1  0
 12 14  1  0
 15 16  1  0
 15 17  1  0
 15 18  1  0
M  CHG  1   6  -1
M  END
>  <PDB_ID>  (16) 
pdb6fvi

>  <RESIDUE_NAME>  (16) 
GLU   ARG

>  <FRAG_NAME>  (16) 
ACET   PRPA

>  <FRAG_ATOM_NUM>  (16) 
fragi: 7  fragj: 11

>  <atom.prop.CHAIN_ID>  (16) 
A A A A A A A Z Z Z Z Z Z Z Z Z Z Z

>  <atom.prop.IS_HEAVY_ATOM>  (16) 
1 0 0 0 1 1 1 1 0 0 0 1 0 0 1 0 0 0

>  <DIFUSE_FUNC_ATOM>  (16) 
atom 6   atom 7   

>  <FINAL_SINGLE_POINT_ENERGY>  (16) 
0

>  <NONCOV_INTER_ENERGY_QM>  (16) 
0

>  <FF_Energy>  (16) 
17.81

>  <QM_Energy>  (16) 
5.24

>  <Index>  (16) 
1604

$$$$
ACET-pdb153l-A-GLU-62:PRPA-pdb153l-A-VAL-8
     RDKit          3D

 18 16  0  0  0  0  0  0  0  0999 V2000
   -0.2304    1.4555   -0.1779 C   0  0  0  0  0  0  0  0  0  0  0  0
    0.6185    1.8961   -0.3487 H   0  0  0  0  0  0  0  0  0  0  0  0
   -0.7123    1.7994    0.5925 H   0  0  0  0  0  0  0  0  0  0  0  0
   -0.8594    1.6278   -1.0512 H   0  0  0  0  0  0  0  0  0  0  0  0
    0.0000    0.0000    0.0000 C   0  0  0  0  0  0  0  0  0  0  0  0
   -1.1011   -0.6956    0.0000 O   0  0  0  0  0  1  0  0  0  0  0  0
    1.1011   -0.4629    0.0000 O   0  0  0  0  0  0  0  0  0  0  0  0
   -1.6191   -4.3376    0.4616 C   0  0  0  0  0  0  0  0  0  0  0  0
   -2.4884   -4.5391    0.9468 H   0  0  0  0  0  0  0  0  0  0  0  0
   -1.0564   -3.6100    1.0464 H   0  0  0  0  0  0  0  0  0  0  0  0
   -1.0835   -5.2792    0.3413 H   0  0  0  0  0  0  0  0  0  0  0  0
   -2.0970   -3.5955   -0.7843 C   0  0  0  0  0  0  0  0  0  0  0  0
   -2.1940   -2.6264   -0.5466 H   0  0  0  0  0  0  0  0  0  0  0  0
   -3.0646   -3.9793   -1.1077 H   0  0  0  0  0  0  0  0  0  0  0  0
   -1.0875   -3.6739   -1.9115 C   0  0  0  0  0  0  0  0  0  0  0  0
   -0.4855   -4.4610   -1.7709 H   0  0  0  0  0  0  0  0  0  0  0  0
   -1.5644   -3.7756   -2.7852 H   0  0  0  0  0  0  0  0  0  0  0  0
   -0.5377   -2.8369   -1.9310 H   0  0  0  0  0  0  0  0  0  0  0  0
  1  5  1  0
  5  6  1  0
  5  7  2  0
  1  2  1  0
  1  3  1  0
  1  4  1  0
  8 12  1  0
 12 15  1  0
  8  9  1  0
  8 10  1  0
  8 11  1  0
 12 13  1  0
 12 14  1  0
 15 16  1  0
 15 17  1  0
 15 18  1  0
M  CHG  1   6  -1
M  END
>  <PDB_ID>  (17) 
pdb153l

>  <RESIDUE_NAME>  (17) 
GLU   VAL

>  <FRAG_NAME>  (17) 
ACET   PRPA

>  <FRAG_ATOM_NUM>  (17) 
fragi: 7  fragj: 11

>  <atom.prop.CHAIN_ID>  (17) 
A A A A A A A Z Z Z Z Z Z Z Z Z Z Z

>  <atom.prop.IS_HEAVY_ATOM>  (17) 
1 0 0 0 1 1 1 1 0 0 0 1 0 0 1 0 0 0

>  <DIFUSE_FUNC_ATOM>  (17) 
atom 6   atom 7   

>  <FINAL_SINGLE_POINT_ENERGY>  (17) 
0

>  <NONCOV_INTER_ENERGY_QM>  (17) 
0

>  <FF_Energy>  (17) 
0.92

>  <QM_Energy>  (17) 
-6.5

>  <Index>  (17) 
2126

$$$$
ACET-pdb1a07-A-GLU-179:PRPA-pdb1a07-A-LYS-155
     RDKit          3D

 18 16  0  0  0  0  0  0  0  0999 V2000
    0.0131    1.5337    0.0846 C   0  0  0  0  0  0  0  0  0  0  0  0
    0.2559    1.8745   -0.8166 H   0  0  0  0  0  0  0  0  0  0  0  0
    0.7092    1.7837    0.7485 H   0  0  0  0  0  0  0  0  0  0  0  0
   -0.9214    2.0097    0.3818 H   0  0  0  0  0  0  0  0  0  0  0  0
    0.0000    0.0000    0.0000 C   0  0  0  0  0  0  0  0  0  0  0  0
   -1.0620   -0.6198   -0.0000 O   0  0  0  0  0  1  0  0  0  0  0  0
    1.0620   -0.6380    0.0000 O   0  0  0  0  0  0  0  0  0  0  0  0
   -1.7868   -1.8928    3.9037 C   0  0  0  0  0  0  0  0  0  0  0  0
   -1.4579   -2.4504    4.6541 H   0  0  0  0  0  0  0  0  0  0  0  0
   -2.7252   -2.1199    3.6785 H   0  0  0  0  0  0  0  0  0  0  0  0
   -1.7532   -0.8479    4.2124 H   0  0  0  0  0  0  0  0  0  0  0  0
   -0.9288   -2.1221    2.7129 C   0  0  0  0  0  0  0  0  0  0  0  0
   -1.3152   -1.6351    1.9161 H   0  0  0  0  0  0  0  0  0  0  0  0
   -0.0036   -1.7529    2.8829 H   0  0  0  0  0  0  0  0  0  0  0  0
   -0.7995   -3.5865    2.3576 C   0  0  0  0  0  0  0  0  0  0  0  0
   -0.2777   -4.0497    3.0527 H   0  0  0  0  0  0  0  0  0  0  0  0
   -1.6959   -3.9798    2.2453 H   0  0  0  0  0  0  0  0  0  0  0  0
   -0.2659   -3.6823    1.4120 H   0  0  0  0  0  0  0  0  0  0  0  0
  1  5  1  0
  5  6  1  0
  5  7  2  0
  1  2  1  0
  1  3  1  0
  1  4  1  0
  8 12  1  0
 12 15  1  0
  8  9  1  0
  8 10  1  0
  8 11  1  0
 12 13  1  0
 12 14  1  0
 15 16  1  0
 15 17  1  0
 15 18  1  0
M  CHG  1   6  -1
M  END
>  <PDB_ID>  (18) 
pdb1a07

>  <RESIDUE_NAME>  (18) 
GLU   LYS

>  <FRAG_NAME>  (18) 
ACET   PRPA

>  <FRAG_ATOM_NUM>  (18) 
fragi: 7  fragj: 11

>  <atom.prop.CHAIN_ID>  (18) 
A A A A A A A Z Z Z Z Z Z Z Z Z Z Z

>  <atom.prop.IS_HEAVY_ATOM>  (18) 
1 0 0 0 1 1 1 1 0 0 0 1 0 0 1 0 0 0

>  <DIFUSE_FUNC_ATOM>  (18) 
atom 6   atom 7   

>  <FINAL_SINGLE_POINT_ENERGY>  (18) 
0

>  <NONCOV_INTER_ENERGY_QM>  (18) 
0

>  <FF_Energy>  (18) 
2.2

>  <QM_Energy>  (18) 
-3.63

>  <Index>  (18) 
2169

$$$$
ACET-pdb12ca-A-GLU-205:PRPA-pdb12ca-A-ILE-22
     RDKit          3D

 18 16  0  0  0  0  0  0  0  0999 V2000
    0.2420    1.4524    0.0885 C   0  0  0  0  0  0  0  0  0  0  0  0
    1.1630    1.6513   -0.2374 H   0  0  0  0  0  0  0  0  0  0  0  0
    0.1473    1.7427    1.0375 H   0  0  0  0  0  0  0  0  0  0  0  0
   -0.4283    2.0865   -0.4917 H   0  0  0  0  0  0  0  0  0  0  0  0
    0.0000    0.0000    0.0000 C   0  0  0  0  0  0  0  0  0  0  0  0
   -1.0933   -0.4872   -0.0000 O   0  0  0  0  0  1  0  0  0  0  0  0
    1.0933   -0.7385   -0.0000 O   0  0  0  0  0  0  0  0  0  0  0  0
    0.1521    0.2145    5.3014 C   0  0  0  0  0  0  0  0  0  0  0  0
   -0.7033    0.2927    5.7824 H   0  0  0  0  0  0  0  0  0  0  0  0
    0.6634   -0.6935    5.6208 H   0  0  0  0  0  0  0  0  0  0  0  0
    0.7603    1.1013    5.4795 H   0  0  0  0  0  0  0  0  0  0  0  0
   -0.1941    0.0691    3.7818 C   0  0  0  0  0  0  0  0  0  0  0  0
    0.6822   -0.0417    3.2815 H   0  0  0  0  0  0  0  0  0  0  0  0
   -0.6934   -0.8090    3.6721 H   0  0  0  0  0  0  0  0  0  0  0  0
   -1.0064    1.1744    3.1078 C   0  0  0  0  0  0  0  0  0  0  0  0
   -0.5055    2.0331    3.1786 H   0  0  0  0  0  0  0  0  0  0  0  0
   -1.1428    0.9377    2.1493 H   0  0  0  0  0  0  0  0  0  0  0  0
   -1.8874    1.2547    3.5673 H   0  0  0  0  0  0  0  0  0  0  0  0
  1  5  1  0
  5  6  1  0
  5  7  2  0
  1  2  1  0
  1  3  1  0
  1  4  1  0
  8 12  1  0
 12 15  1  0
  8  9  1  0
  8 10  1  0
  8 11  1  0
 12 13  1  0
 12 14  1  0
 15 16  1  0
 15 17  1  0
 15 18  1  0
M  CHG  1   6  -1
M  END
>  <PDB_ID>  (19) 
pdb12ca

>  <RESIDUE_NAME>  (19) 
GLU   ILE

>  <FRAG_NAME>  (19) 
ACET   PRPA

>  <FRAG_ATOM_NUM>  (19) 
fragi: 7  fragj: 11

>  <atom.prop.CHAIN_ID>  (19) 
A A A A A A A Z Z Z Z Z Z Z Z Z Z Z

>  <atom.prop.IS_HEAVY_ATOM>  (19) 
1 0 0 0 1 1 1 1 0 0 0 1 0 0 1 0 0 0

>  <DIFUSE_FUNC_ATOM>  (19) 
atom 6   atom 7   

>  <FINAL_SINGLE_POINT_ENERGY>  (19) 
0

>  <NONCOV_INTER_ENERGY_QM>  (19) 
0

>  <FF_Energy>  (19) 
5.55

>  <QM_Energy>  (19) 
-1.7

>  <Index>  (19) 
2201

$$$$
ACET-pdb1a1x-A-ASP-80:PRPA-pdb1a1x-A-ARG-84
     RDKit          3D

 18 16  0  0  0  0  0  0  0  0999 V2000
    0.0472    1.5370   -0.0378 C   0  0  0  0  0  0  0  0  0  0  0  0
    0.1633    1.8219   -0.9847 H   0  0  0  0  0  0  0  0  0  0  0  0
    0.8210    1.8387    0.5090 H   0  0  0  0  0  0  0  0  0  0  0  0
   -0.8507    2.0163    0.3522 H   0  0  0  0  0  0  0  0  0  0  0  0
    0.0000    0.0000    0.0000 C   0  0  0  0  0  0  0  0  0  0  0  0
   -1.0925   -0.6033   -0.0000 O   0  0  0  0  0  1  0  0  0  0  0  0
    1.0925   -0.6156    0.0000 O   0  0  0  0  0  0  0  0  0  0  0  0
    0.1402   -3.2176    1.9888 C   0  0  0  0  0  0  0  0  0  0  0  0
    0.4413   -2.4116    1.4899 H   0  0  0  0  0  0  0  0  0  0  0  0
    0.8582   -3.5321    2.6011 H   0  0  0  0  0  0  0  0  0  0  0  0
   -0.7261   -2.9427    2.5905 H   0  0  0  0  0  0  0  0  0  0  0  0
   -0.1571   -4.3049    1.0048 C   0  0  0  0  0  0  0  0  0  0  0  0
   -0.3331   -5.1602    1.4858 H   0  0  0  0  0  0  0  0  0  0  0  0
   -0.9483   -4.0556    0.4521 H   0  0  0  0  0  0  0  0  0  0  0  0
    1.0134   -4.5159    0.0814 C   0  0  0  0  0  0  0  0  0  0  0  0
    1.2364   -3.6459   -0.3503 H   0  0  0  0  0  0  0  0  0  0  0  0
    1.7879   -4.8360    0.6223 H   0  0  0  0  0  0  0  0  0  0  0  0
    0.7911   -5.2510   -0.6921 H   0  0  0  0  0  0  0  0  0  0  0  0
  1  5  1  0
  5  6  1  0
  5  7  2  0
  1  2  1  0
  1  3  1  0
  1  4  1  0
  8 12  1  0
 12 15  1  0
  8  9  1  0
  8 10  1  0
  8 11  1  0
 12 13  1  0
 12 14  1  0
 15 16  1  0
 15 17  1  0
 15 18  1  0
M  CHG  1   6  -1
M  END
>  <PDB_ID>  (20) 
pdb1a1x

>  <RESIDUE_NAME>  (20) 
ASP   ARG

>  <FRAG_NAME>  (20) 
ACET   PRPA

>  <FRAG_ATOM_NUM>  (20) 
fragi: 7  fragj: 11

>  <atom.prop.CHAIN_ID>  (20) 
A A A A A A A Z Z Z Z Z Z Z Z Z Z Z

>  <atom.prop.IS_HEAVY_ATOM>  (20) 
1 0 0 0 1 1 1 1 0 0 0 1 0 0 1 0 0 0

>  <DIFUSE_FUNC_ATOM>  (20) 
atom 6   atom 7   

>  <FINAL_SINGLE_POINT_ENERGY>  (20) 
0

>  <NONCOV_INTER_ENERGY_QM>  (20) 
0

>  <FF_Energy>  (20) 
-0.26

>  <QM_Energy>  (20) 
-5.54

>  <Index>  (20) 
2215

$$$$
ACET-pdb12ca-A-ASP-41:PRPA-pdb12ca-A-LEU-44
     RDKit          3D

 18 16  0  0  0  0  0  0  0  0999 V2000
    0.0018    1.5517   -0.0318 C   0  0  0  0  0  0  0  0  0  0  0  0
    0.3938    1.8412   -0.8875 H   0  0  0  0  0  0  0  0  0  0  0  0
    0.5189    1.8750    0.7407 H   0  0  0  0  0  0  0  0  0  0  0  0
   -1.0065    1.9601    0.0370 H   0  0  0  0  0  0  0  0  0  0  0  0
    0.0000    0.0000    0.0000 C   0  0  0  0  0  0  0  0  0  0  0  0
   -1.0777   -0.5590   -0.0000 O   0  0  0  0  0  1  0  0  0  0  0  0
    1.0777   -0.6079    0.0000 O   0  0  0  0  0  0  0  0  0  0  0  0
    1.8066   -0.4964    2.8104 C   0  0  0  0  0  0  0  0  0  0  0  0
    1.0669   -0.2243    2.1685 H   0  0  0  0  0  0  0  0  0  0  0  0
    2.6652   -0.5439    2.2681 H   0  0  0  0  0  0  0  0  0  0  0  0
    1.5986   -1.4435    3.1165 H   0  0  0  0  0  0  0  0  0  0  0  0
    1.9185    0.4090    3.9118 C   0  0  0  0  0  0  0  0  0  0  0  0
    2.6609    0.1323    4.5452 H   0  0  0  0  0  0  0  0  0  0  0  0
    0.9926    0.4512    4.4855 H   0  0  0  0  0  0  0  0  0  0  0  0
    2.3730    1.8012    3.4874 C   0  0  0  0  0  0  0  0  0  0  0  0
    2.5282    2.3628    4.2999 H   0  0  0  0  0  0  0  0  0  0  0  0
    3.2232    1.7295    2.9645 H   0  0  0  0  0  0  0  0  0  0  0  0
    1.6665    2.2236    2.9197 H   0  0  0  0  0  0  0  0  0  0  0  0
  1  5  1  0
  5  6  1  0
  5  7  2  0
  1  2  1  0
  1  3  1  0
  1  4  1  0
  8 12  1  0
 12 15  1  0
  8  9  1  0
  8 10  1  0
  8 11  1  0
 12 13  1  0
 12 14  1  0
 15 16  1  0
 15 17  1  0
 15 18  1  0
M  CHG  1   6  -1
M  END
>  <PDB_ID>  (21) 
pdb12ca

>  <RESIDUE_NAME>  (21) 
ASP   LEU

>  <FRAG_NAME>  (21) 
ACET   PRPA

>  <FRAG_ATOM_NUM>  (21) 
fragi: 7  fragj: 11

>  <atom.prop.CHAIN_ID>  (21) 
A A A A A A A Z Z Z Z Z Z Z Z Z Z Z

>  <atom.prop.IS_HEAVY_ATOM>  (21) 
1 0 0 0 1 1 1 1 0 0 0 1 0 0 1 0 0 0

>  <DIFUSE_FUNC_ATOM>  (21) 
atom 6   atom 7   

>  <FINAL_SINGLE_POINT_ENERGY>  (21) 
0

>  <NONCOV_INTER_ENERGY_QM>  (21) 
0

>  <FF_Energy>  (21) 
29.74

>  <QM_Energy>  (21) 
-0.68

>  <Index>  (21) 
2281

$$$$
ACET-pdb102l-A-ASP-92:PRPA-pdb102l-A-ARG-95
     RDKit          3D

 18 16  0  0  0  0  0  0  0  0999 V2000
   -0.2604    1.4834   -0.1288 C   0  0  0  0  0  0  0  0  0  0  0  0
    0.5256    1.9779    0.2053 H   0  0  0  0  0  0  0  0  0  0  0  0
   -1.0765    1.7121    0.3761 H   0  0  0  0  0  0  0  0  0  0  0  0
   -0.4171    1.7609   -1.1711 H   0  0  0  0  0  0  0  0  0  0  0  0
    0.0000    0.0000    0.0000 C   0  0  0  0  0  0  0  0  0  0  0  0
   -1.1320   -0.6430    0.0000 O   0  0  0  0  0  1  0  0  0  0  0  0
    1.1320   -0.5275    0.0000 O   0  0  0  0  0  0  0  0  0  0  0  0
    0.0146   -3.2341   -2.5049 C   0  0  0  0  0  0  0  0  0  0  0  0
   -0.3622   -2.3186   -2.5021 H   0  0  0  0  0  0  0  0  0  0  0  0
   -0.5419   -3.8463   -3.0481 H   0  0  0  0  0  0  0  0  0  0  0  0
    1.0153   -3.1978   -2.9354 H   0  0  0  0  0  0  0  0  0  0  0  0
    0.0335   -3.7433   -1.0887 C   0  0  0  0  0  0  0  0  0  0  0  0
    0.4431   -4.6383   -1.0523 H   0  0  0  0  0  0  0  0  0  0  0  0
    0.4965   -3.1020   -0.5014 H   0  0  0  0  0  0  0  0  0  0  0  0
   -1.4137   -3.8696   -0.5944 C   0  0  0  0  0  0  0  0  0  0  0  0
   -1.7793   -2.9369   -0.5003 H   0  0  0  0  0  0  0  0  0  0  0  0
   -1.9329   -4.3457   -1.3126 H   0  0  0  0  0  0  0  0  0  0  0  0
   -1.5156   -4.4032    0.3506 H   0  0  0  0  0  0  0  0  0  0  0  0
  1  5  1  0
  5  6  1  0
  5  7  2  0
  1  2  1  0
  1  3  1  0
  1  4  1  0
  8 12  1  0
 12 15  1  0
  8  9  1  0
  8 10  1  0
  8 11  1  0
 12 13  1  0
 12 14  1  0
 15 16  1  0
 15 17  1  0
 15 18  1  0
M  CHG  1   6  -1
M  END
>  <PDB_ID>  (22) 
pdb102l

>  <RESIDUE_NAME>  (22) 
ASP   ARG

>  <FRAG_NAME>  (22) 
ACET   PRPA

>  <FRAG_ATOM_NUM>  (22) 
fragi: 7  fragj: 11

>  <atom.prop.CHAIN_ID>  (22) 
A A A A A A A Z Z Z Z Z Z Z Z Z Z Z

>  <atom.prop.IS_HEAVY_ATOM>  (22) 
1 0 0 0 1 1 1 1 0 0 0 1 0 0 1 0 0 0

>  <DIFUSE_FUNC_ATOM>  (22) 
atom 6   atom 7   

>  <FINAL_SINGLE_POINT_ENERGY>  (22) 
0

>  <NONCOV_INTER_ENERGY_QM>  (22) 
0

>  <FF_Energy>  (22) 
-0.59

>  <QM_Energy>  (22) 
-6.37

>  <Index>  (22) 
2350

$$$$
ACET-pdb1a0p-A-ASP-4:PRPA-pdb1a0p-A-LEU-47
     RDKit          3D

 18 16  0  0  0  0  0  0  0  0999 V2000
    0.0494    1.5114   -0.0200 C   0  0  0  0  0  0  0  0  0  0  0  0
    0.7527    1.8049   -0.6522 H   0  0  0  0  0  0  0  0  0  0  0  0
    0.2328    1.8429    0.8943 H   0  0  0  0  0  0  0  0  0  0  0  0
   -0.8937    1.9485   -0.3478 H   0  0  0  0  0  0  0  0  0  0  0  0
    0.0000    0.0000    0.0000 C   0  0  0  0  0  0  0  0  0  0  0  0
   -1.0764   -0.6333   -0.0000 O   0  0  0  0  0  1  0  0  0  0  0  0
    1.0764   -0.6194    0.0000 O   0  0  0  0  0  0  0  0  0  0  0  0
   -0.6285   -1.3133    3.1362 C   0  0  0  0  0  0  0  0  0  0  0  0
   -0.9164   -1.2904    2.1901 H   0  0  0  0  0  0  0  0  0  0  0  0
   -1.3712   -1.5724    3.7339 H   0  0  0  0  0  0  0  0  0  0  0  0
    0.1667   -2.0522    3.2352 H   0  0  0  0  0  0  0  0  0  0  0  0
   -0.2130    0.1149    3.5180 C   0  0  0  0  0  0  0  0  0  0  0  0
    0.5344    0.3990    2.9160 H   0  0  0  0  0  0  0  0  0  0  0  0
    0.2115    0.1986    4.5185 H   0  0  0  0  0  0  0  0  0  0  0  0
   -1.3739    1.0566    3.3760 C   0  0  0  0  0  0  0  0  0  0  0  0
   -2.1258    0.7703    3.9762 H   0  0  0  0  0  0  0  0  0  0  0  0
   -1.0946    1.9875    3.6267 H   0  0  0  0  0  0  0  0  0  0  0  0
   -1.7002    1.0605    2.4264 H   0  0  0  0  0  0  0  0  0  0  0  0
  1  5  1  0
  5  6  1  0
  5  7  2  0
  1  2  1  0
  1  3  1  0
  1  4  1  0
  8 12  1  0
 12 15  1  0
  8  9  1  0
  8 10  1  0
  8 11  1  0
 12 13  1  0
 12 14  1  0
 15 16  1  0
 15 17  1  0
 15 18  1  0
M  CHG  1   6  -1
M  END
>  <PDB_ID>  (23) 
pdb1a0p

>  <RESIDUE_NAME>  (23) 
ASP   LEU

>  <FRAG_NAME>  (23) 
ACET   PRPA

>  <FRAG_ATOM_NUM>  (23) 
fragi: 7  fragj: 11

>  <atom.prop.CHAIN_ID>  (23) 
A A A A A A A Z Z Z Z Z Z Z Z Z Z Z

>  <atom.prop.IS_HEAVY_ATOM>  (23) 
1 0 0 0 1 1 1 1 0 0 0 1 0 0 1 0 0 0

>  <DIFUSE_FUNC_ATOM>  (23) 
atom 6   atom 7   

>  <FINAL_SINGLE_POINT_ENERGY>  (23) 
0

>  <NONCOV_INTER_ENERGY_QM>  (23) 
0

>  <FF_Energy>  (23) 
1.02

>  <QM_Energy>  (23) 
-5.78

>  <Index>  (23) 
2524

$$$$
ACET-pdb2a11-A-GLU-41:PRPA-pdb2a11-A-ARG-28
     RDKit          3D

 18 16  0  0  0  0  0  0  0  0999 V2000
    0.0058    1.5077   -0.0043 C   0  0  0  0  0  0  0  0  0  0  0  0
    0.9353    1.8100    0.1086 H   0  0  0  0  0  0  0  0  0  0  0  0
   -0.5758    1.8171    0.7268 H   0  0  0  0  0  0  0  0  0  0  0  0
   -0.3711    1.9366   -0.9327 H   0  0  0  0  0  0  0  0  0  0  0  0
    0.0000    0.0000    0.0000 C   0  0  0  0  0  0  0  0  0  0  0  0
   -1.1045   -0.5911    0.0000 O   0  0  0  0  0  1  0  0  0  0  0  0
    1.1045   -0.5873   -0.0000 O   0  0  0  0  0  0  0  0  0  0  0  0
   -1.8426   -0.8834    4.9102 C   0  0  0  0  0  0  0  0  0  0  0  0
   -2.7029   -0.8150    4.3581 H   0  0  0  0  0  0  0  0  0  0  0  0
   -1.5296    0.1210    5.1953 H   0  0  0  0  0  0  0  0  0  0  0  0
   -2.0312   -1.5659    5.7389 H   0  0  0  0  0  0  0  0  0  0  0  0
   -0.8117   -1.4891    3.9527 C   0  0  0  0  0  0  0  0  0  0  0  0
   -0.2334   -2.1108    4.4727 H   0  0  0  0  0  0  0  0  0  0  0  0
   -1.3020   -1.9904    3.2454 H   0  0  0  0  0  0  0  0  0  0  0  0
    0.0831   -0.4662    3.2736 C   0  0  0  0  0  0  0  0  0  0  0  0
   -0.3637    0.4202    3.2766 H   0  0  0  0  0  0  0  0  0  0  0  0
    0.9544   -0.4204    3.7492 H   0  0  0  0  0  0  0  0  0  0  0  0
    0.2730   -0.7520    2.2390 H   0  0  0  0  0  0  0  0  0  0  0  0
  1  5  1  0
  5  6  1  0
  5  7  2  0
  1  2  1  0
  1  3  1  0
  1  4  1  0
  8 12  1  0
 12 15  1  0
  8  9  1  0
  8 10  1  0
  8 11  1  0
 12 13  1  0
 12 14  1  0
 15 16  1  0
 15 17  1  0
 15 18  1  0
M  CHG  1   6  -1
M  END
>  <PDB_ID>  (24) 
pdb2a11

>  <RESIDUE_NAME>  (24) 
GLU   ARG

>  <FRAG_NAME>  (24) 
ACET   PRPA

>  <FRAG_ATOM_NUM>  (24) 
fragi: 7  fragj: 11

>  <atom.prop.CHAIN_ID>  (24) 
A A A A A A A Z Z Z Z Z Z Z Z Z Z Z

>  <atom.prop.IS_HEAVY_ATOM>  (24) 
1 0 0 0 1 1 1 1 0 0 0 1 0 0 1 0 0 0

>  <DIFUSE_FUNC_ATOM>  (24) 
atom 6   atom 7   

>  <FINAL_SINGLE_POINT_ENERGY>  (24) 
0

>  <NONCOV_INTER_ENERGY_QM>  (24) 
0

>  <FF_Energy>  (24) 
4.37

>  <QM_Energy>  (24) 
-3.55

>  <Index>  (24) 
2525

$$$$
ACET-pdb1a2x-A-GLU-85:PRPA-pdb1a2x-A-ARG-81
     RDKit          3D

 18 16  0  0  0  0  0  0  0  0999 V2000
    0.0039    1.5017    0.0108 C   0  0  0  0  0  0  0  0  0  0  0  0
    0.8242    1.7991    0.4699 H   0  0  0  0  0  0  0  0  0  0  0  0
   -0.8075    1.8021    0.4835 H   0  0  0  0  0  0  0  0  0  0  0  0
   -0.0025    1.9349   -0.9894 H   0  0  0  0  0  0  0  0  0  0  0  0
    0.0000    0.0000    0.0000 C   0  0  0  0  0  0  0  0  0  0  0  0
   -1.0955   -0.6143   -0.0000 O   0  0  0  0  0  1  0  0  0  0  0  0
    1.0955   -0.5973    0.0000 O   0  0  0  0  0  0  0  0  0  0  0  0
    4.0091   -1.9856   -1.2729 C   0  0  0  0  0  0  0  0  0  0  0  0
    3.2776   -2.6583   -1.3257 H   0  0  0  0  0  0  0  0  0  0  0  0
    4.8436   -2.3145   -1.8921 H   0  0  0  0  0  0  0  0  0  0  0  0
    3.6498   -1.0413   -1.6820 H   0  0  0  0  0  0  0  0  0  0  0  0
    4.4504   -1.7931    0.1754 C   0  0  0  0  0  0  0  0  0  0  0  0
    4.3497   -2.6602    0.6490 H   0  0  0  0  0  0  0  0  0  0  0  0
    5.4003   -1.5042    0.1750 H   0  0  0  0  0  0  0  0  0  0  0  0
    3.6374   -0.7524    0.9104 C   0  0  0  0  0  0  0  0  0  0  0  0
    4.2228    0.0181    1.1639 H   0  0  0  0  0  0  0  0  0  0  0  0
    2.8949   -0.4263    0.3247 H   0  0  0  0  0  0  0  0  0  0  0  0
    3.1894   -1.1426    1.8243 H   0  0  0  0  0  0  0  0  0  0  0  0
  1  5  1  0
  5  6  1  0
  5  7  2  0
  1  2  1  0
  1  3  1  0
  1  4  1  0
  8 12  1  0
 12 15  1  0
  8  9  1  0
  8 10  1  0
  8 11  1  0
 12 13  1  0
 12 14  1  0
 15 16  1  0
 15 17  1  0
 15 18  1  0
M  CHG  1   6  -1
M  END
>  <PDB_ID>  (25) 
pdb1a2x

>  <RESIDUE_NAME>  (25) 
GLU   ARG

>  <FRAG_NAME>  (25) 
ACET   PRPA

>  <FRAG_ATOM_NUM>  (25) 
fragi: 7  fragj: 11

>  <atom.prop.CHAIN_ID>  (25) 
A A A A A A A Z Z Z Z Z Z Z Z Z Z Z

>  <atom.prop.IS_HEAVY_ATOM>  (25) 
1 0 0 0 1 1 1 1 0 0 0 1 0 0 1 0 0 0

>  <DIFUSE_FUNC_ATOM>  (25) 
atom 6   atom 7   

>  <FINAL_SINGLE_POINT_ENERGY>  (25) 
0

>  <NONCOV_INTER_ENERGY_QM>  (25) 
0

>  <FF_Energy>  (25) 
35.02

>  <QM_Energy>  (25) 
1.2

>  <Index>  (25) 
2538

$$$$
ACET-pdb1a07-B-GLU-179:PRPA-pdb1a07-B-LYS-155
     RDKit          3D

 18 16  0  0  0  0  0  0  0  0999 V2000
   -0.0058    1.4974   -0.0738 C   0  0  0  0  0  0  0  0  0  0  0  0
    0.8751    1.8084    0.1348 H   0  0  0  0  0  0  0  0  0  0  0  0
   -0.7222    1.8179    0.4729 H   0  0  0  0  0  0  0  0  0  0  0  0
   -0.2239    1.7256   -1.1171 H   0  0  0  0  0  0  0  0  0  0  0  0
    0.0000    0.0000    0.0000 C   0  0  0  0  0  0  0  0  0  0  0  0
   -1.0889   -0.5736   -0.0000 O   0  0  0  0  0  1  0  0  0  0  0  0
    1.0889   -0.5788    0.0000 O   0  0  0  0  0  0  0  0  0  0  0  0
    0.2630   -1.6669   -3.4911 C   0  0  0  0  0  0  0  0  0  0  0  0
    0.6217   -0.8306   -3.0586 H   0  0  0  0  0  0  0  0  0  0  0  0
   -0.6812   -1.8095   -3.1709 H   0  0  0  0  0  0  0  0  0  0  0  0
    0.2496   -1.5246   -4.5717 H   0  0  0  0  0  0  0  0  0  0  0  0
    1.1077   -2.8392   -3.0708 C   0  0  0  0  0  0  0  0  0  0  0  0
    0.7474   -3.6727   -3.5031 H   0  0  0  0  0  0  0  0  0  0  0  0
    2.0505   -2.6942   -3.3899 H   0  0  0  0  0  0  0  0  0  0  0  0
    1.1366   -3.0498   -1.5768 C   0  0  0  0  0  0  0  0  0  0  0  0
    1.5036   -2.2274   -1.1355 H   0  0  0  0  0  0  0  0  0  0  0  0
    0.2014   -3.2054   -1.2487 H   0  0  0  0  0  0  0  0  0  0  0  0
    1.7560   -3.9062   -1.3106 H   0  0  0  0  0  0  0  0  0  0  0  0
  1  5  1  0
  5  6  1  0
  5  7  2  0
  1  2  1  0
  1  3  1  0
  1  4  1  0
  8 12  1  0
 12 15  1  0
  8  9  1  0
  8 10  1  0
  8 11  1  0
 12 13  1  0
 12 14  1  0
 15 16  1  0
 15 17  1  0
 15 18  1  0
M  CHG  1   6  -1
M  END
>  <PDB_ID>  (26) 
pdb1a07

>  <RESIDUE_NAME>  (26) 
GLU   LYS

>  <FRAG_NAME>  (26) 
ACET   PRPA

>  <FRAG_ATOM_NUM>  (26) 
fragi: 7  fragj: 11

>  <atom.prop.CHAIN_ID>  (26) 
A A A A A A A Z Z Z Z Z Z Z Z Z Z Z

>  <atom.prop.IS_HEAVY_ATOM>  (26) 
1 0 0 0 1 1 1 1 0 0 0 1 0 0 1 0 0 0

>  <DIFUSE_FUNC_ATOM>  (26) 
atom 6   atom 7   

>  <FINAL_SINGLE_POINT_ENERGY>  (26) 
0

>  <NONCOV_INTER_ENERGY_QM>  (26) 
0

>  <FF_Energy>  (26) 
7.72

>  <QM_Energy>  (26) 
-2.92

>  <Index>  (26) 
2568

$$$$
ACET-pdb1a2x-A-GLU-94:PRPA-pdb1a2x-A-LYS-90
     RDKit          3D

 18 16  0  0  0  0  0  0  0  0999 V2000
    0.0165    1.5403    0.0036 C   0  0  0  0  0  0  0  0  0  0  0  0
    0.4056    1.8276   -0.8538 H   0  0  0  0  0  0  0  0  0  0  0  0
    0.5652    1.8216    0.7711 H   0  0  0  0  0  0  0  0  0  0  0  0
   -0.9699    1.9937    0.1013 H   0  0  0  0  0  0  0  0  0  0  0  0
    0.0000    0.0000    0.0000 C   0  0  0  0  0  0  0  0  0  0  0  0
   -1.0968   -0.5997   -0.0000 O   0  0  0  0  0  1  0  0  0  0  0  0
    1.0968   -0.6088    0.0000 O   0  0  0  0  0  0  0  0  0  0  0  0
    2.9392    0.4866    2.7821 C   0  0  0  0  0  0  0  0  0  0  0  0
    2.5869   -0.3883    2.4350 H   0  0  0  0  0  0  0  0  0  0  0  0
    3.5793    0.2976    3.6439 H   0  0  0  0  0  0  0  0  0  0  0  0
    3.5072    0.9710    1.9877 H   0  0  0  0  0  0  0  0  0  0  0  0
    1.7581    1.3888    3.1947 C   0  0  0  0  0  0  0  0  0  0  0  0
    2.1384    2.1947    3.6551 H   0  0  0  0  0  0  0  0  0  0  0  0
    1.2936    1.6822    2.3551 H   0  0  0  0  0  0  0  0  0  0  0  0
    0.7433    0.7433    4.1104 C   0  0  0  0  0  0  0  0  0  0  0  0
    1.1831    0.0076    4.6199 H   0  0  0  0  0  0  0  0  0  0  0  0
    0.3874    1.4284    4.7417 H   0  0  0  0  0  0  0  0  0  0  0  0
   -0.0809    0.3313    3.5282 H   0  0  0  0  0  0  0  0  0  0  0  0
  1  5  1  0
  5  6  1  0
  5  7  2  0
  1  2  1  0
  1  3  1  0
  1  4  1  0
  8 12  1  0
 12 15  1  0
  8  9  1  0
  8 10  1  0
  8 11  1  0
 12 13  1  0
 12 14  1  0
 15 16  1  0
 15 17  1  0
 15 18  1  0
M  CHG  1   6  -1
M  END
>  <PDB_ID>  (27) 
pdb1a2x

>  <RESIDUE_NAME>  (27) 
GLU   LYS

>  <FRAG_NAME>  (27) 
ACET   PRPA

>  <FRAG_ATOM_NUM>  (27) 
fragi: 7  fragj: 11

>  <atom.prop.CHAIN_ID>  (27) 
A A A A A A A Z Z Z Z Z Z Z Z Z Z Z

>  <atom.prop.IS_HEAVY_ATOM>  (27) 
1 0 0 0 1 1 1 1 0 0 0 1 0 0 1 0 0 0

>  <DIFUSE_FUNC_ATOM>  (27) 
atom 6   atom 7   

>  <FINAL_SINGLE_POINT_ENERGY>  (27) 
0

>  <NONCOV_INTER_ENERGY_QM>  (27) 
0

>  <FF_Energy>  (27) 
6.75

>  <QM_Energy>  (27) 
-2.32

>  <Index>  (27) 
2577

$$$$
ACET-pdb1a2x-A-GLU-97:PRPA-pdb1a2x-A-ARG-100
     RDKit          3D

 18 16  0  0  0  0  0  0  0  0999 V2000
    0.0067    1.5275   -0.0089 C   0  0  0  0  0  0  0  0  0  0  0  0
   -0.4242    1.8190   -0.8433 H   0  0  0  0  0  0  0  0  0  0  0  0
    0.9449    1.8176    0.0443 H   0  0  0  0  0  0  0  0  0  0  0  0
   -0.5365    1.9673    0.8274 H   0  0  0  0  0  0  0  0  0  0  0  0
    0.0000    0.0000    0.0000 C   0  0  0  0  0  0  0  0  0  0  0  0
   -1.0980   -0.5965   -0.0000 O   0  0  0  0  0  1  0  0  0  0  0  0
    1.0980   -0.6074   -0.0000 O   0  0  0  0  0  0  0  0  0  0  0  0
   -6.2222   -0.0229   -0.1350 C   0  0  0  0  0  0  0  0  0  0  0  0
   -6.3203   -0.9876    0.1151 H   0  0  0  0  0  0  0  0  0  0  0  0
   -6.5074    0.1003   -1.0874 H   0  0  0  0  0  0  0  0  0  0  0  0
   -6.8995    0.5551    0.4938 H   0  0  0  0  0  0  0  0  0  0  0  0
   -4.7698    0.3527   -0.0220 C   0  0  0  0  0  0  0  0  0  0  0  0
   -4.5078    0.9187   -0.8004 H   0  0  0  0  0  0  0  0  0  0  0  0
   -4.6188    0.8547    0.8271 H   0  0  0  0  0  0  0  0  0  0  0  0
   -3.8981   -0.8704   -0.0096 C   0  0  0  0  0  0  0  0  0  0  0  0
   -4.0306   -1.3625   -0.8670 H   0  0  0  0  0  0  0  0  0  0  0  0
   -2.9474   -0.5796    0.0730 H   0  0  0  0  0  0  0  0  0  0  0  0
   -4.1454   -1.5282    0.8237 H   0  0  0  0  0  0  0  0  0  0  0  0
  1  5  1  0
  5  6  1  0
  5  7  2  0
  1  2  1  0
  1  3  1  0
  1  4  1  0
  8 12  1  0
 12 15  1  0
  8  9  1  0
  8 10  1  0
  8 11  1  0
 12 13  1  0
 12 14  1  0
 15 16  1  0
 15 17  1  0
 15 18  1  0
M  CHG  1   6  -1
M  END
>  <PDB_ID>  (28) 
pdb1a2x

>  <RESIDUE_NAME>  (28) 
GLU   ARG

>  <FRAG_NAME>  (28) 
ACET   PRPA

>  <FRAG_ATOM_NUM>  (28) 
fragi: 7  fragj: 11

>  <atom.prop.CHAIN_ID>  (28) 
A A A A A A A Z Z Z Z Z Z Z Z Z Z Z

>  <atom.prop.IS_HEAVY_ATOM>  (28) 
1 0 0 0 1 1 1 1 0 0 0 1 0 0 1 0 0 0

>  <DIFUSE_FUNC_ATOM>  (28) 
atom 6   atom 7   

>  <FINAL_SINGLE_POINT_ENERGY>  (28) 
0

>  <NONCOV_INTER_ENERGY_QM>  (28) 
0

>  <FF_Energy>  (28) 
30.31

>  <QM_Energy>  (28) 
-0.28

>  <Index>  (28) 
2614

$$$$
ACET-pdb1a2x-A-GLU-150:PRPA-pdb1a2x-A-ILE-146
     RDKit          3D

 18 16  0  0  0  0  0  0  0  0999 V2000
   -0.0093    1.5383   -0.0057 C   0  0  0  0  0  0  0  0  0  0  0  0
   -0.8203    1.8215   -0.4749 H   0  0  0  0  0  0  0  0  0  0  0  0
    0.8119    1.8309   -0.4512 H   0  0  0  0  0  0  0  0  0  0  0  0
   -0.0271    1.9594    0.9996 H   0  0  0  0  0  0  0  0  0  0  0  0
    0.0000    0.0000    0.0000 C   0  0  0  0  0  0  0  0  0  0  0  0
   -1.0922   -0.6076    0.0000 O   0  0  0  0  0  1  0  0  0  0  0  0
    1.0922   -0.6119    0.0000 O   0  0  0  0  0  0  0  0  0  0  0  0
    2.8719   -1.1583    2.2436 C   0  0  0  0  0  0  0  0  0  0  0  0
    2.0305   -1.1821    1.6826 H   0  0  0  0  0  0  0  0  0  0  0  0
    3.2468   -2.1815    2.2689 H   0  0  0  0  0  0  0  0  0  0  0  0
    3.5652   -0.4778    1.7493 H   0  0  0  0  0  0  0  0  0  0  0  0
    2.6550   -0.6354    3.6816 C   0  0  0  0  0  0  0  0  0  0  0  0
    3.3183   -1.0811    4.2705 H   0  0  0  0  0  0  0  0  0  0  0  0
    2.8315    0.4393    3.7249 H   0  0  0  0  0  0  0  0  0  0  0  0
    1.2533   -1.0054    4.1762 C   0  0  0  0  0  0  0  0  0  0  0  0
    0.6583   -0.2141    4.0680 H   0  0  0  0  0  0  0  0  0  0  0  0
    0.9067   -1.7509    3.6108 H   0  0  0  0  0  0  0  0  0  0  0  0
    1.2258   -1.3228    5.2187 H   0  0  0  0  0  0  0  0  0  0  0  0
  1  5  1  0
  5  6  1  0
  5  7  2  0
  1  2  1  0
  1  3  1  0
  1  4  1  0
  8 12  1  0
 12 15  1  0
  8  9  1  0
  8 10  1  0
  8 11  1  0
 12 13  1  0
 12 14  1  0
 15 16  1  0
 15 17  1  0
 15 18  1  0
M  CHG  1   6  -1
M  END
>  <PDB_ID>  (29) 
pdb1a2x

>  <RESIDUE_NAME>  (29) 
GLU   ILE

>  <FRAG_NAME>  (29) 
ACET   PRPA

>  <FRAG_ATOM_NUM>  (29) 
fragi: 7  fragj: 11

>  <atom.prop.CHAIN_ID>  (29) 
A A A A A A A Z Z Z Z Z Z Z Z Z Z Z

>  <atom.prop.IS_HEAVY_ATOM>  (29) 
1 0 0 0 1 1 1 1 0 0 0 1 0 0 1 0 0 0

>  <DIFUSE_FUNC_ATOM>  (29) 
atom 6   atom 7   

>  <FINAL_SINGLE_POINT_ENERGY>  (29) 
0

>  <NONCOV_INTER_ENERGY_QM>  (29) 
0

>  <FF_Energy>  (29) 
14.2

>  <QM_Energy>  (29) 
-2.05

>  <Index>  (29) 
2812

$$$$
ACET-pdb1a2x-A-GLU-150:PRPA-pdb1a2x-A-ILE-146
     RDKit          3D

 18 16  0  0  0  0  0  0  0  0999 V2000
   -0.0093    1.5383   -0.0057 C   0  0  0  0  0  0  0  0  0  0  0  0
   -0.8203    1.8215   -0.4749 H   0  0  0  0  0  0  0  0  0  0  0  0
    0.8119    1.8309   -0.4512 H   0  0  0  0  0  0  0  0  0  0  0  0
   -0.0271    1.9594    0.9996 H   0  0  0  0  0  0  0  0  0  0  0  0
    0.0000    0.0000    0.0000 C   0  0  0  0  0  0  0  0  0  0  0  0
   -1.0922   -0.6076    0.0000 O   0  0  0  0  0  1  0  0  0  0  0  0
    1.0922   -0.6119    0.0000 O   0  0  0  0  0  0  0  0  0  0  0  0
    2.8719   -1.1583    2.2436 C   0  0  0  0  0  0  0  0  0  0  0  0
    2.0305   -1.1821    1.6826 H   0  0  0  0  0  0  0  0  0  0  0  0
    3.2468   -2.1815    2.2689 H   0  0  0  0  0  0  0  0  0  0  0  0
    3.5652   -0.4778    1.7493 H   0  0  0  0  0  0  0  0  0  0  0  0
    2.6550   -0.6354    3.6816 C   0  0  0  0  0  0  0  0  0  0  0  0
    3.3183   -1.0811    4.2705 H   0  0  0  0  0  0  0  0  0  0  0  0
    1.6576   -0.8987    4.0335 H   0  0  0  0  0  0  0  0  0  0  0  0
    2.8998    0.8552    3.7416 C   0  0  0  0  0  0  0  0  0  0  0  0
    2.8096    1.1756    4.6843 H   0  0  0  0  0  0  0  0  0  0  0  0
    3.8220    1.0607    3.4128 H   0  0  0  0  0  0  0  0  0  0  0  0
    2.2330    1.3307    3.1680 H   0  0  0  0  0  0  0  0  0  0  0  0
  1  5  1  0
  5  6  1  0
  5  7  2  0
  1  2  1  0
  1  3  1  0
  1  4  1  0
  8 12  1  0
 12 15  1  0
  8  9  1  0
  8 10  1  0
  8 11  1  0
 12 13  1  0
 12 14  1  0
 15 16  1  0
 15 17  1  0
 15 18  1  0
M  CHG  1   6  -1
M  END
>  <PDB_ID>  (30) 
pdb1a2x

>  <RESIDUE_NAME>  (30) 
GLU   ILE

>  <FRAG_NAME>  (30) 
ACET   PRPA

>  <FRAG_ATOM_NUM>  (30) 
fragi: 7  fragj: 11

>  <atom.prop.CHAIN_ID>  (30) 
A A A A A A A Z Z Z Z Z Z Z Z Z Z Z

>  <atom.prop.IS_HEAVY_ATOM>  (30) 
1 0 0 0 1 1 1 1 0 0 0 1 0 0 1 0 0 0

>  <DIFUSE_FUNC_ATOM>  (30) 
atom 6   atom 7   

>  <FINAL_SINGLE_POINT_ENERGY>  (30) 
0

>  <NONCOV_INTER_ENERGY_QM>  (30) 
0

>  <FF_Energy>  (30) 
3.12

>  <QM_Energy>  (30) 
-1.68

>  <Index>  (30) 
2816

$$$$
ACET-pdb2a11-A-GLU-33:PRPA-pdb2a11-A-ARG-104
     RDKit          3D

 18 16  0  0  0  0  0  0  0  0999 V2000
   -0.0079    1.5145   -0.0186 C   0  0  0  0  0  0  0  0  0  0  0  0
    0.9224    1.8139   -0.0141 H   0  0  0  0  0  0  0  0  0  0  0  0
   -0.5146    1.8159    0.7615 H   0  0  0  0  0  0  0  0  0  0  0  0
   -0.4926    1.8922   -0.9190 H   0  0  0  0  0  0  0  0  0  0  0  0
    0.0000    0.0000    0.0000 C   0  0  0  0  0  0  0  0  0  0  0  0
   -1.1031   -0.5949   -0.0000 O   0  0  0  0  0  1  0  0  0  0  0  0
    1.1031   -0.5897    0.0000 O   0  0  0  0  0  0  0  0  0  0  0  0
   -2.1369   -3.1664    2.0438 C   0  0  0  0  0  0  0  0  0  0  0  0
   -3.0087   -2.6646    1.9872 H   0  0  0  0  0  0  0  0  0  0  0  0
   -2.2380   -3.8969    2.7302 H   0  0  0  0  0  0  0  0  0  0  0  0
   -1.9652   -3.6412    1.0777 H   0  0  0  0  0  0  0  0  0  0  0  0
   -1.0715   -2.2017    2.5400 C   0  0  0  0  0  0  0  0  0  0  0  0
   -1.2336   -1.2925    2.1439 H   0  0  0  0  0  0  0  0  0  0  0  0
   -1.1270   -2.1304    3.5410 H   0  0  0  0  0  0  0  0  0  0  0  0
    0.3491   -2.6225    2.1802 C   0  0  0  0  0  0  0  0  0  0  0  0
    0.4148   -2.6543    1.1734 H   0  0  0  0  0  0  0  0  0  0  0  0
    0.9752   -1.9033    2.5124 H   0  0  0  0  0  0  0  0  0  0  0  0
    0.6641   -3.5833    2.5873 H   0  0  0  0  0  0  0  0  0  0  0  0
  1  5  1  0
  5  6  1  0
  5  7  2  0
  1  2  1  0
  1  3  1  0
  1  4  1  0
  8 12  1  0
 12 15  1  0
  8  9  1  0
  8 10  1  0
  8 11  1  0
 12 13  1  0
 12 14  1  0
 15 16  1  0
 15 17  1  0
 15 18  1  0
M  CHG  1   6  -1
M  END
>  <PDB_ID>  (31) 
pdb2a11

>  <RESIDUE_NAME>  (31) 
GLU   ARG

>  <FRAG_NAME>  (31) 
ACET   PRPA

>  <FRAG_ATOM_NUM>  (31) 
fragi: 7  fragj: 11

>  <atom.prop.CHAIN_ID>  (31) 
A A A A A A A Z Z Z Z Z Z Z Z Z Z Z

>  <atom.prop.IS_HEAVY_ATOM>  (31) 
1 0 0 0 1 1 1 1 0 0 0 1 0 0 1 0 0 0

>  <DIFUSE_FUNC_ATOM>  (31) 
atom 6   atom 7   

>  <FINAL_SINGLE_POINT_ENERGY>  (31) 
0

>  <NONCOV_INTER_ENERGY_QM>  (31) 
0

>  <FF_Energy>  (31) 
3.45

>  <QM_Energy>  (31) 
-3.91

>  <Index>  (31) 
2878

$$$$
ACET-pdb2a6m-A-ASP-70:PRPA-pdb2a6m-A-LYS-8
     RDKit          3D

 18 16  0  0  0  0  0  0  0  0999 V2000
    0.0037    1.5021    0.0567 C   0  0  0  0  0  0  0  0  0  0  0  0
   -0.7479    1.8465   -0.4912 H   0  0  0  0  0  0  0  0  0  0  0  0
    0.8722    1.8352   -0.2865 H   0  0  0  0  0  0  0  0  0  0  0  0
   -0.1230    1.8648    1.0767 H   0  0  0  0  0  0  0  0  0  0  0  0
    0.0000    0.0000    0.0000 C   0  0  0  0  0  0  0  0  0  0  0  0
   -1.1013   -0.5876   -0.0000 O   0  0  0  0  0  1  0  0  0  0  0  0
    1.1013   -0.5961   -0.0000 O   0  0  0  0  0  0  0  0  0  0  0  0
    1.8295   -4.8247   -2.9731 C   0  0  0  0  0  0  0  0  0  0  0  0
    2.6804   -5.1309   -3.3990 H   0  0  0  0  0  0  0  0  0  0  0  0
    1.1311   -4.6949   -3.6750 H   0  0  0  0  0  0  0  0  0  0  0  0
    1.4913   -5.5810   -2.2648 H   0  0  0  0  0  0  0  0  0  0  0  0
    2.0771   -3.5048   -2.2755 C   0  0  0  0  0  0  0  0  0  0  0  0
    2.4813   -3.6783   -1.3852 H   0  0  0  0  0  0  0  0  0  0  0  0
    2.6828   -2.9498   -2.8324 H   0  0  0  0  0  0  0  0  0  0  0  0
    0.7746   -2.7454   -2.0755 C   0  0  0  0  0  0  0  0  0  0  0  0
    0.9777   -1.8674   -1.6226 H   0  0  0  0  0  0  0  0  0  0  0  0
    0.3745   -2.5443   -2.9796 H   0  0  0  0  0  0  0  0  0  0  0  0
    0.0479   -3.2955   -1.4777 H   0  0  0  0  0  0  0  0  0  0  0  0
  1  5  1  0
  5  6  1  0
  5  7  2  0
  1  2  1  0
  1  3  1  0
  1  4  1  0
  8 12  1  0
 12 15  1  0
  8  9  1  0
  8 10  1  0
  8 11  1  0
 12 13  1  0
 12 14  1  0
 15 16  1  0
 15 17  1  0
 15 18  1  0
M  CHG  1   6  -1
M  END
>  <PDB_ID>  (32) 
pdb2a6m

>  <RESIDUE_NAME>  (32) 
ASP   LYS

>  <FRAG_NAME>  (32) 
ACET   PRPA

>  <FRAG_ATOM_NUM>  (32) 
fragi: 7  fragj: 11

>  <atom.prop.CHAIN_ID>  (32) 
A A A A A A A Z Z Z Z Z Z Z Z Z Z Z

>  <atom.prop.IS_HEAVY_ATOM>  (32) 
1 0 0 0 1 1 1 1 0 0 0 1 0 0 1 0 0 0

>  <DIFUSE_FUNC_ATOM>  (32) 
atom 6   atom 7   

>  <FINAL_SINGLE_POINT_ENERGY>  (32) 
0

>  <NONCOV_INTER_ENERGY_QM>  (32) 
0

>  <FF_Energy>  (32) 
7.31

>  <QM_Energy>  (32) 
-1.94

>  <Index>  (32) 
2986

$$$$
ACET-pdb2a3q-B-ASP-76:PRPA-pdb2a3q-A-ARG-54
     RDKit          3D

 18 16  0  0  0  0  0  0  0  0999 V2000
   -0.0678    1.5422   -0.0302 C   0  0  0  0  0  0  0  0  0  0  0  0
    0.7564    1.8795   -0.4455 H   0  0  0  0  0  0  0  0  0  0  0  0
   -0.1815    1.8645    0.8903 H   0  0  0  0  0  0  0  0  0  0  0  0
   -0.9166    1.8842   -0.6223 H   0  0  0  0  0  0  0  0  0  0  0  0
    0.0000    0.0000    0.0000 C   0  0  0  0  0  0  0  0  0  0  0  0
   -1.1122   -0.6057   -0.0000 O   0  0  0  0  0  1  0  0  0  0  0  0
    1.1122   -0.6219    0.0000 O   0  0  0  0  0  0  0  0  0  0  0  0
   -0.1514   -4.5619    0.7406 C   0  0  0  0  0  0  0  0  0  0  0  0
    0.2429   -3.6990    1.1270 H   0  0  0  0  0  0  0  0  0  0  0  0
    0.6377   -5.0683    0.3295 H   0  0  0  0  0  0  0  0  0  0  0  0
   -0.5396   -5.1560    1.5680 H   0  0  0  0  0  0  0  0  0  0  0  0
   -1.0719   -4.1865   -0.3598 C   0  0  0  0  0  0  0  0  0  0  0  0
   -1.2751   -4.9339   -0.9051 H   0  0  0  0  0  0  0  0  0  0  0  0
   -1.7800   -3.6445   -0.0414 H   0  0  0  0  0  0  0  0  0  0  0  0
   -0.1043   -3.2905   -1.1299 C   0  0  0  0  0  0  0  0  0  0  0  0
   -0.3750   -2.3636   -0.9739 H   0  0  0  0  0  0  0  0  0  0  0  0
    0.7978   -3.4874   -0.8044 H   0  0  0  0  0  0  0  0  0  0  0  0
   -0.2120   -3.5610   -2.1803 H   0  0  0  0  0  0  0  0  0  0  0  0
  1  5  1  0
  5  6  1  0
  5  7  2  0
  1  2  1  0
  1  3  1  0
  1  4  1  0
  8 12  1  0
 12 15  1  0
  8  9  1  0
  8 10  1  0
  8 11  1  0
 12 13  1  0
 12 14  1  0
 15 16  1  0
 15 17  1  0
 15 18  1  0
M  CHG  1   6  -1
M  END
>  <PDB_ID>  (33) 
pdb2a3q

>  <RESIDUE_NAME>  (33) 
ASP   ARG

>  <FRAG_NAME>  (33) 
ACET   PRPA

>  <FRAG_ATOM_NUM>  (33) 
fragi: 7  fragj: 11

>  <atom.prop.CHAIN_ID>  (33) 
A A A A A A A Z Z Z Z Z Z Z Z Z Z Z

>  <atom.prop.IS_HEAVY_ATOM>  (33) 
1 0 0 0 1 1 1 1 0 0 0 1 0 0 1 0 0 0

>  <DIFUSE_FUNC_ATOM>  (33) 
atom 6   atom 7   

>  <FINAL_SINGLE_POINT_ENERGY>  (33) 
0

>  <NONCOV_INTER_ENERGY_QM>  (33) 
0

>  <FF_Energy>  (33) 
5.51

>  <QM_Energy>  (33) 
-4.72

>  <Index>  (33) 
3019

$$$$
ACET-pdb1a21-A-ASP-176:PRPA-pdb1a21-A-LYS-120
     RDKit          3D

 18 16  0  0  0  0  0  0  0  0999 V2000
   -0.0069    1.5211   -0.0343 C   0  0  0  0  0  0  0  0  0  0  0  0
    0.9124    1.8462    0.1406 H   0  0  0  0  0  0  0  0  0  0  0  0
   -0.6375    1.8512    0.6527 H   0  0  0  0  0  0  0  0  0  0  0  0
   -0.3255    1.9073   -1.0024 H   0  0  0  0  0  0  0  0  0  0  0  0
    0.0000    0.0000    0.0000 C   0  0  0  0  0  0  0  0  0  0  0  0
   -1.1001   -0.5934   -0.0000 O   0  0  0  0  0  1  0  0  0  0  0  0
    1.1001   -0.5976    0.0000 O   0  0  0  0  0  0  0  0  0  0  0  0
   -2.7685   -3.1444   -2.7211 C   0  0  0  0  0  0  0  0  0  0  0  0
   -3.3112   -3.1585   -1.8813 H   0  0  0  0  0  0  0  0  0  0  0  0
   -2.5641   -4.0805   -3.0032 H   0  0  0  0  0  0  0  0  0  0  0  0
   -3.3459   -2.6563   -3.5061 H   0  0  0  0  0  0  0  0  0  0  0  0
   -1.4553   -2.4131   -2.4472 C   0  0  0  0  0  0  0  0  0  0  0  0
   -0.9957   -2.2463   -3.3190 H   0  0  0  0  0  0  0  0  0  0  0  0
   -1.6608   -1.5412   -2.0046 H   0  0  0  0  0  0  0  0  0  0  0  0
   -0.5151   -3.2027   -1.5472 C   0  0  0  0  0  0  0  0  0  0  0  0
    0.1762   -2.5764   -1.1718 H   0  0  0  0  0  0  0  0  0  0  0  0
   -1.0441   -3.5885   -0.7841 H   0  0  0  0  0  0  0  0  0  0  0  0
   -0.0133   -4.0117   -2.0780 H   0  0  0  0  0  0  0  0  0  0  0  0
  1  5  1  0
  5  6  1  0
  5  7  2  0
  1  2  1  0
  1  3  1  0
  1  4  1  0
  8 12  1  0
 12 15  1  0
  8  9  1  0
  8 10  1  0
  8 11  1  0
 12 13  1  0
 12 14  1  0
 15 16  1  0
 15 17  1  0
 15 18  1  0
M  CHG  1   6  -1
M  END
>  <PDB_ID>  (34) 
pdb1a21

>  <RESIDUE_NAME>  (34) 
ASP   LYS

>  <FRAG_NAME>  (34) 
ACET   PRPA

>  <FRAG_ATOM_NUM>  (34) 
fragi: 7  fragj: 11

>  <atom.prop.CHAIN_ID>  (34) 
A A A A A A A Z Z Z Z Z Z Z Z Z Z Z

>  <atom.prop.IS_HEAVY_ATOM>  (34) 
1 0 0 0 1 1 1 1 0 0 0 1 0 0 1 0 0 0

>  <DIFUSE_FUNC_ATOM>  (34) 
atom 6   atom 7   

>  <FINAL_SINGLE_POINT_ENERGY>  (34) 
0

>  <NONCOV_INTER_ENERGY_QM>  (34) 
0

>  <FF_Energy>  (34) 
2.16

>  <QM_Energy>  (34) 
-5.15

>  <Index>  (34) 
3082

$$$$
ACET-pdb2a46-A-ASP-83:PRPA-pdb2a46-A-LYS-86
     RDKit          3D

 18 16  0  0  0  0  0  0  0  0999 V2000
    0.1692    1.4988    0.0208 C   0  0  0  0  0  0  0  0  0  0  0  0
    0.9961    1.7441   -0.4634 H   0  0  0  0  0  0  0  0  0  0  0  0
    0.1950    1.8150    0.9573 H   0  0  0  0  0  0  0  0  0  0  0  0
   -0.6568    2.0127   -0.4711 H   0  0  0  0  0  0  0  0  0  0  0  0
    0.0000    0.0000    0.0000 C   0  0  0  0  0  0  0  0  0  0  0  0
   -1.1120   -0.5008   -0.0000 O   0  0  0  0  0  1  0  0  0  0  0  0
    1.1120   -0.6953    0.0000 O   0  0  0  0  0  0  0  0  0  0  0  0
    0.1355   -0.7910    3.5140 C   0  0  0  0  0  0  0  0  0  0  0  0
    0.2526   -0.0500    2.8737 H   0  0  0  0  0  0  0  0  0  0  0  0
    0.6442   -0.6359    4.3464 H   0  0  0  0  0  0  0  0  0  0  0  0
   -0.9224   -0.8685    3.7648 H   0  0  0  0  0  0  0  0  0  0  0  0
    0.6572   -2.0753    2.8630 C   0  0  0  0  0  0  0  0  0  0  0  0
    0.4911   -2.8464    3.4857 H   0  0  0  0  0  0  0  0  0  0  0  0
    0.1520   -2.2367    2.0097 H   0  0  0  0  0  0  0  0  0  0  0  0
    2.1580   -2.0247    2.5398 C   0  0  0  0  0  0  0  0  0  0  0  0
    2.3102   -1.3137    1.8488 H   0  0  0  0  0  0  0  0  0  0  0  0
    2.6558   -1.7795    3.3758 H   0  0  0  0  0  0  0  0  0  0  0  0
    2.5655   -2.9623    2.1617 H   0  0  0  0  0  0  0  0  0  0  0  0
  1  5  1  0
  5  6  1  0
  5  7  2  0
  1  2  1  0
  1  3  1  0
  1  4  1  0
  8 12  1  0
 12 15  1  0
  8  9  1  0
  8 10  1  0
  8 11  1  0
 12 13  1  0
 12 14  1  0
 15 16  1  0
 15 17  1  0
 15 18  1  0
M  CHG  1   6  -1
M  END
>  <PDB_ID>  (35) 
pdb2a46

>  <RESIDUE_NAME>  (35) 
ASP   LYS

>  <FRAG_NAME>  (35) 
ACET   PRPA

>  <FRAG_ATOM_NUM>  (35) 
fragi: 7  fragj: 11

>  <atom.prop.CHAIN_ID>  (35) 
A A A A A A A Z Z Z Z Z Z Z Z Z Z Z

>  <atom.prop.IS_HEAVY_ATOM>  (35) 
1 0 0 0 1 1 1 1 0 0 0 1 0 0 1 0 0 0

>  <DIFUSE_FUNC_ATOM>  (35) 
atom 6   atom 7   

>  <FINAL_SINGLE_POINT_ENERGY>  (35) 
0

>  <NONCOV_INTER_ENERGY_QM>  (35) 
0

>  <FF_Energy>  (35) 
2.94

>  <QM_Energy>  (35) 
-5.49

>  <Index>  (35) 
3083

$$$$
ACET-pdb1a2j-A-ASP-180:PRPA-pdb1a2j-A-LYS-183
     RDKit          3D

 18 16  0  0  0  0  0  0  0  0999 V2000
    0.0125    1.5195    0.0076 C   0  0  0  0  0  0  0  0  0  0  0  0
    0.7934    1.8351   -0.5186 H   0  0  0  0  0  0  0  0  0  0  0  0
    0.0751    1.8337    0.9466 H   0  0  0  0  0  0  0  0  0  0  0  0
   -0.8863    1.9514   -0.4327 H   0  0  0  0  0  0  0  0  0  0  0  0
    0.0000    0.0000    0.0000 C   0  0  0  0  0  0  0  0  0  0  0  0
   -1.0961   -0.6003    0.0000 O   0  0  0  0  0  1  0  0  0  0  0  0
    1.0961   -0.5961   -0.0000 O   0  0  0  0  0  0  0  0  0  0  0  0
   -4.7448    2.0456   -0.5825 C   0  0  0  0  0  0  0  0  0  0  0  0
   -5.3585    2.0848   -1.3742 H   0  0  0  0  0  0  0  0  0  0  0  0
   -3.8988    2.5388   -0.7984 H   0  0  0  0  0  0  0  0  0  0  0  0
   -5.2299    2.5316    0.2639 H   0  0  0  0  0  0  0  0  0  0  0  0
   -4.4101    0.5968   -0.2886 C   0  0  0  0  0  0  0  0  0  0  0  0
   -5.2310    0.1435    0.0661 H   0  0  0  0  0  0  0  0  0  0  0  0
   -4.1311    0.1515   -1.1408 H   0  0  0  0  0  0  0  0  0  0  0  0
   -3.2994    0.4462    0.7223 C   0  0  0  0  0  0  0  0  0  0  0  0
   -2.4742    0.8926    0.3724 H   0  0  0  0  0  0  0  0  0  0  0  0
   -3.5731    0.8843    1.5794 H   0  0  0  0  0  0  0  0  0  0  0  0
   -3.0858   -0.6061    0.9097 H   0  0  0  0  0  0  0  0  0  0  0  0
  1  5  1  0
  5  6  1  0
  5  7  2  0
  1  2  1  0
  1  3  1  0
  1  4  1  0
  8 12  1  0
 12 15  1  0
  8  9  1  0
  8 10  1  0
  8 11  1  0
 12 13  1  0
 12 14  1  0
 15 16  1  0
 15 17  1  0
 15 18  1  0
M  CHG  1   6  -1
M  END
>  <PDB_ID>  (36) 
pdb1a2j

>  <RESIDUE_NAME>  (36) 
ASP   LYS

>  <FRAG_NAME>  (36) 
ACET   PRPA

>  <FRAG_ATOM_NUM>  (36) 
fragi: 7  fragj: 11

>  <atom.prop.CHAIN_ID>  (36) 
A A A A A A A Z Z Z Z Z Z Z Z Z Z Z

>  <atom.prop.IS_HEAVY_ATOM>  (36) 
1 0 0 0 1 1 1 1 0 0 0 1 0 0 1 0 0 0

>  <DIFUSE_FUNC_ATOM>  (36) 
atom 6   atom 7   

>  <FINAL_SINGLE_POINT_ENERGY>  (36) 
0

>  <NONCOV_INTER_ENERGY_QM>  (36) 
0

>  <FF_Energy>  (36) 
18.35

>  <QM_Energy>  (36) 
6.29

>  <Index>  (36) 
3129

$$$$
ACET-pdb15c8-H-ASP-86:PRPA-pdb15c8-H-LYS-66
     RDKit          3D

 18 16  0  0  0  0  0  0  0  0999 V2000
    0.0025    1.5197    0.0056 C   0  0  0  0  0  0  0  0  0  0  0  0
    0.9217    1.8392   -0.1965 H   0  0  0  0  0  0  0  0  0  0  0  0
   -0.2873    1.8372    0.9012 H   0  0  0  0  0  0  0  0  0  0  0  0
   -0.6714    1.9483   -0.7363 H   0  0  0  0  0  0  0  0  0  0  0  0
    0.0000    0.0000    0.0000 C   0  0  0  0  0  0  0  0  0  0  0  0
   -1.0971   -0.5966   -0.0000 O   0  0  0  0  0  1  0  0  0  0  0  0
    1.0971   -0.6061    0.0000 O   0  0  0  0  0  0  0  0  0  0  0  0
   -1.6646   -4.0095    2.7820 C   0  0  0  0  0  0  0  0  0  0  0  0
   -2.4630   -3.4636    3.0269 H   0  0  0  0  0  0  0  0  0  0  0  0
   -0.9119   -3.8091    3.4045 H   0  0  0  0  0  0  0  0  0  0  0  0
   -1.9185   -5.0670    2.8543 H   0  0  0  0  0  0  0  0  0  0  0  0
   -1.2399   -3.6511    1.3641 C   0  0  0  0  0  0  0  0  0  0  0  0
   -1.3614   -4.4482    0.7806 H   0  0  0  0  0  0  0  0  0  0  0  0
   -1.8029   -2.8974    1.0395 H   0  0  0  0  0  0  0  0  0  0  0  0
    0.2197   -3.2255    1.3050 C   0  0  0  0  0  0  0  0  0  0  0  0
    0.2752   -2.2314    1.4347 H   0  0  0  0  0  0  0  0  0  0  0  0
    0.7212   -3.6775    2.0474 H   0  0  0  0  0  0  0  0  0  0  0  0
    0.6836   -3.4856    0.3535 H   0  0  0  0  0  0  0  0  0  0  0  0
  1  5  1  0
  5  6  1  0
  5  7  2  0
  1  2  1  0
  1  3  1  0
  1  4  1  0
  8 12  1  0
 12 15  1  0
  8  9  1  0
  8 10  1  0
  8 11  1  0
 12 13  1  0
 12 14  1  0
 15 16  1  0
 15 17  1  0
 15 18  1  0
M  CHG  1   6  -1
M  END
>  <PDB_ID>  (37) 
pdb15c8

>  <RESIDUE_NAME>  (37) 
ASP   LYS

>  <FRAG_NAME>  (37) 
ACET   PRPA

>  <FRAG_ATOM_NUM>  (37) 
fragi: 7  fragj: 11

>  <atom.prop.CHAIN_ID>  (37) 
A A A A A A A Z Z Z Z Z Z Z Z Z Z Z

>  <atom.prop.IS_HEAVY_ATOM>  (37) 
1 0 0 0 1 1 1 1 0 0 0 1 0 0 1 0 0 0

>  <DIFUSE_FUNC_ATOM>  (37) 
atom 6   atom 7   

>  <FINAL_SINGLE_POINT_ENERGY>  (37) 
0

>  <NONCOV_INTER_ENERGY_QM>  (37) 
0

>  <FF_Energy>  (37) 
4.8

>  <QM_Energy>  (37) 
-3.33

>  <Index>  (37) 
3167

$$$$
ACET-pdb16vp-A-GLU-218:PRPA-pdb16vp-A-LEU-179
     RDKit          3D

 18 16  0  0  0  0  0  0  0  0999 V2000
    0.0316    1.5354   -0.0229 C   0  0  0  0  0  0  0  0  0  0  0  0
   -0.0004    1.8158   -0.9703 H   0  0  0  0  0  0  0  0  0  0  0  0
    0.8764    1.8182    0.4057 H   0  0  0  0  0  0  0  0  0  0  0  0
   -0.7908    2.0242    0.4995 H   0  0  0  0  0  0  0  0  0  0  0  0
    0.0000    0.0000    0.0000 C   0  0  0  0  0  0  0  0  0  0  0  0
   -1.0952   -0.6040    0.0000 O   0  0  0  0  0  1  0  0  0  0  0  0
    1.0952   -0.6137   -0.0000 O   0  0  0  0  0  0  0  0  0  0  0  0
   -6.3360    0.1405    0.5422 C   0  0  0  0  0  0  0  0  0  0  0  0
   -6.4094    0.8970   -0.0957 H   0  0  0  0  0  0  0  0  0  0  0  0
   -6.8703    0.3146    1.3580 H   0  0  0  0  0  0  0  0  0  0  0  0
   -6.7486   -0.7443    0.0573 H   0  0  0  0  0  0  0  0  0  0  0  0
   -4.8581    0.0438    0.9711 C   0  0  0  0  0  0  0  0  0  0  0  0
   -4.7785   -0.6602    1.6756 H   0  0  0  0  0  0  0  0  0  0  0  0
   -4.5334    0.9883    1.4077 H   0  0  0  0  0  0  0  0  0  0  0  0
   -3.9848   -0.3111   -0.2110 C   0  0  0  0  0  0  0  0  0  0  0  0
   -4.0699    0.3931   -0.9190 H   0  0  0  0  0  0  0  0  0  0  0  0
   -3.0281   -0.3709    0.0794 H   0  0  0  0  0  0  0  0  0  0  0  0
   -4.2695   -1.1943   -0.5899 H   0  0  0  0  0  0  0  0  0  0  0  0
  1  5  1  0
  5  6  1  0
  5  7  2  0
  1  2  1  0
  1  3  1  0
  1  4  1  0
  8 12  1  0
 12 15  1  0
  8  9  1  0
  8 10  1  0
  8 11  1  0
 12 13  1  0
 12 14  1  0
 15 16  1  0
 15 17  1  0
 15 18  1  0
M  CHG  1   6  -1
M  END
>  <PDB_ID>  (38) 
pdb16vp

>  <RESIDUE_NAME>  (38) 
GLU   LEU

>  <FRAG_NAME>  (38) 
ACET   PRPA

>  <FRAG_ATOM_NUM>  (38) 
fragi: 7  fragj: 11

>  <atom.prop.CHAIN_ID>  (38) 
A A A A A A A Z Z Z Z Z Z Z Z Z Z Z

>  <atom.prop.IS_HEAVY_ATOM>  (38) 
1 0 0 0 1 1 1 1 0 0 0 1 0 0 1 0 0 0

>  <DIFUSE_FUNC_ATOM>  (38) 
atom 6   atom 7   

>  <FINAL_SINGLE_POINT_ENERGY>  (38) 
0

>  <NONCOV_INTER_ENERGY_QM>  (38) 
0

>  <FF_Energy>  (38) 
15.03

>  <QM_Energy>  (38) 
-1.02

>  <Index>  (38) 
3253

$$$$
ACET-pdb1a0p-A-GLU-176:PRPA-pdb1a0p-A-ILE-170
     RDKit          3D

 18 16  0  0  0  0  0  0  0  0999 V2000
   -0.0639    1.5157    0.0113 C   0  0  0  0  0  0  0  0  0  0  0  0
    0.4132    1.8400   -0.7532 H   0  0  0  0  0  0  0  0  0  0  0  0
    0.2363    1.8198    0.8691 H   0  0  0  0  0  0  0  0  0  0  0  0
   -1.1132    1.7889   -0.1007 H   0  0  0  0  0  0  0  0  0  0  0  0
    0.0000    0.0000    0.0000 C   0  0  0  0  0  0  0  0  0  0  0  0
   -1.1310   -0.5545   -0.0000 O   0  0  0  0  0  1  0  0  0  0  0  0
    1.1310   -0.5296    0.0000 O   0  0  0  0  0  0  0  0  0  0  0  0
    3.0429    3.2055   -3.1407 C   0  0  0  0  0  0  0  0  0  0  0  0
    3.2160    2.6766   -3.9545 H   0  0  0  0  0  0  0  0  0  0  0  0
    2.1475    3.8059   -3.3015 H   0  0  0  0  0  0  0  0  0  0  0  0
    3.9586    3.7727   -2.9738 H   0  0  0  0  0  0  0  0  0  0  0  0
    2.7656    2.2184   -1.9900 C   0  0  0  0  0  0  0  0  0  0  0  0
    3.5911    2.1301   -1.4486 H   0  0  0  0  0  0  0  0  0  0  0  0
    2.0357    2.5933   -1.4316 H   0  0  0  0  0  0  0  0  0  0  0  0
    2.3472    0.8461   -2.4893 C   0  0  0  0  0  0  0  0  0  0  0  0
    3.0771    0.4660   -3.0538 H   0  0  0  0  0  0  0  0  0  0  0  0
    2.1809    0.2485   -1.7070 H   0  0  0  0  0  0  0  0  0  0  0  0
    1.5133    0.9339   -3.0301 H   0  0  0  0  0  0  0  0  0  0  0  0
  1  5  1  0
  5  6  1  0
  5  7  2  0
  1  2  1  0
  1  3  1  0
  1  4  1  0
  8 12  1  0
 12 15  1  0
  8  9  1  0
  8 10  1  0
  8 11  1  0
 12 13  1  0
 12 14  1  0
 15 16  1  0
 15 17  1  0
 15 18  1  0
M  CHG  1   6  -1
M  END
>  <PDB_ID>  (39) 
pdb1a0p

>  <RESIDUE_NAME>  (39) 
GLU   ILE

>  <FRAG_NAME>  (39) 
ACET   PRPA

>  <FRAG_ATOM_NUM>  (39) 
fragi: 7  fragj: 11

>  <atom.prop.CHAIN_ID>  (39) 
A A A A A A A Z Z Z Z Z Z Z Z Z Z Z

>  <atom.prop.IS_HEAVY_ATOM>  (39) 
1 0 0 0 1 1 1 1 0 0 0 1 0 0 1 0 0 0

>  <DIFUSE_FUNC_ATOM>  (39) 
atom 6   atom 7   

>  <FINAL_SINGLE_POINT_ENERGY>  (39) 
0

>  <NONCOV_INTER_ENERGY_QM>  (39) 
0

>  <FF_Energy>  (39) 
6.36

>  <QM_Energy>  (39) 
-2.12

>  <Index>  (39) 
3290

$$$$
ACET-pdb1a0f-A-ASP-31:PRPA-pdb1a0f-A-LYS-34
     RDKit          3D

 18 16  0  0  0  0  0  0  0  0999 V2000
   -0.0003    1.5053    0.0422 C   0  0  0  0  0  0  0  0  0  0  0  0
    0.9340    1.8270    0.1634 H   0  0  0  0  0  0  0  0  0  0  0  0
   -0.5688    1.8089    0.7995 H   0  0  0  0  0  0  0  0  0  0  0  0
   -0.3915    1.9549   -0.8705 H   0  0  0  0  0  0  0  0  0  0  0  0
    0.0000    0.0000    0.0000 C   0  0  0  0  0  0  0  0  0  0  0  0
   -1.0852   -0.5793   -0.0000 O   0  0  0  0  0  1  0  0  0  0  0  0
    1.0852   -0.6127   -0.0000 O   0  0  0  0  0  0  0  0  0  0  0  0
   -3.7569   -1.4583    1.7815 C   0  0  0  0  0  0  0  0  0  0  0  0
   -4.3333   -2.2256    2.1510 H   0  0  0  0  0  0  0  0  0  0  0  0
   -3.5676   -1.6461    0.7246 H   0  0  0  0  0  0  0  0  0  0  0  0
   -4.2542   -0.5176    2.0180 H   0  0  0  0  0  0  0  0  0  0  0  0
   -2.4459   -1.5846    2.5786 C   0  0  0  0  0  0  0  0  0  0  0  0
   -1.6845   -1.4716    1.9479 H   0  0  0  0  0  0  0  0  0  0  0  0
   -2.4294   -0.8655    3.2680 H   0  0  0  0  0  0  0  0  0  0  0  0
   -2.2724   -2.9364    3.2960 C   0  0  0  0  0  0  0  0  0  0  0  0
   -1.3750   -2.9574    3.7406 H   0  0  0  0  0  0  0  0  0  0  0  0
   -2.9872   -3.0323    3.9906 H   0  0  0  0  0  0  0  0  0  0  0  0
   -2.3369   -3.7902    2.6214 H   0  0  0  0  0  0  0  0  0  0  0  0
  1  5  1  0
  5  6  1  0
  5  7  2  0
  1  2  1  0
  1  3  1  0
  1  4  1  0
  8 12  1  0
 12 15  1  0
  8  9  1  0
  8 10  1  0
  8 11  1  0
 12 13  1  0
 12 14  1  0
 15 16  1  0
 15 17  1  0
 15 18  1  0
M  CHG  1   6  -1
M  END
>  <PDB_ID>  (40) 
pdb1a0f

>  <RESIDUE_NAME>  (40) 
ASP   LYS

>  <FRAG_NAME>  (40) 
ACET   PRPA

>  <FRAG_ATOM_NUM>  (40) 
fragi: 7  fragj: 11

>  <atom.prop.CHAIN_ID>  (40) 
A A A A A A A Z Z Z Z Z Z Z Z Z Z Z

>  <atom.prop.IS_HEAVY_ATOM>  (40) 
1 0 0 0 1 1 1 1 0 0 0 1 0 0 1 0 0 0

>  <DIFUSE_FUNC_ATOM>  (40) 
atom 6   atom 7   

>  <FINAL_SINGLE_POINT_ENERGY>  (40) 
0

>  <NONCOV_INTER_ENERGY_QM>  (40) 
0

>  <FF_Energy>  (40) 
19.12

>  <QM_Energy>  (40) 
-3.81

>  <Index>  (40) 
3300

$$$$
ACET-pdb2a1i-A-GLU-216:PRPA-pdb2a1i-A-PRO-219
     RDKit          3D

 18 16  0  0  0  0  0  0  0  0999 V2000
   -0.0117    1.5299    0.0080 C   0  0  0  0  0  0  0  0  0  0  0  0
   -0.7738    1.8069    0.5557 H   0  0  0  0  0  0  0  0  0  0  0  0
   -0.0846    1.8194   -0.9237 H   0  0  0  0  0  0  0  0  0  0  0  0
    0.9041    1.9343    0.4392 H   0  0  0  0  0  0  0  0  0  0  0  0
    0.0000    0.0000    0.0000 C   0  0  0  0  0  0  0  0  0  0  0  0
   -1.0977   -0.6127   -0.0000 O   0  0  0  0  0  1  0  0  0  0  0  0
    1.0977   -0.6025    0.0000 O   0  0  0  0  0  0  0  0  0  0  0  0
    3.6757   -0.6472    1.1808 C   0  0  0  0  0  0  0  0  0  0  0  0
    2.6961   -0.5016    1.0047 H   0  0  0  0  0  0  0  0  0  0  0  0
    4.0363    0.0489    1.9381 H   0  0  0  0  0  0  0  0  0  0  0  0
    3.8772   -1.6719    1.4928 H   0  0  0  0  0  0  0  0  0  0  0  0
    4.5550   -0.3247   -0.0377 C   0  0  0  0  0  0  0  0  0  0  0  0
    4.7293   -1.1590   -0.5675 H   0  0  0  0  0  0  0  0  0  0  0  0
    4.0956    0.3445   -0.6272 H   0  0  0  0  0  0  0  0  0  0  0  0
    5.7858    0.2158    0.5479 C   0  0  0  0  0  0  0  0  0  0  0  0
    6.3527   -0.4933    0.9465 H   0  0  0  0  0  0  0  0  0  0  0  0
    6.3033    0.7550   -0.1046 H   0  0  0  0  0  0  0  0  0  0  0  0
    5.4032    0.8638    1.3364 H   0  0  0  0  0  0  0  0  0  0  0  0
  1  5  1  0
  5  6  1  0
  5  7  2  0
  1  2  1  0
  1  3  1  0
  1  4  1  0
  8 12  1  0
 12 15  1  0
  8  9  1  0
  8 10  1  0
  8 11  1  0
 12 13  1  0
 12 14  1  0
 15 16  1  0
 15 17  1  0
 15 18  1  0
M  CHG  1   6  -1
M  END
>  <PDB_ID>  (41) 
pdb2a1i

>  <RESIDUE_NAME>  (41) 
GLU   PRO

>  <FRAG_NAME>  (41) 
ACET   PRPA

>  <FRAG_ATOM_NUM>  (41) 
fragi: 7  fragj: 11

>  <atom.prop.CHAIN_ID>  (41) 
A A A A A A A Z Z Z Z Z Z Z Z Z Z Z

>  <atom.prop.IS_HEAVY_ATOM>  (41) 
1 0 0 0 1 1 1 1 0 0 0 1 0 0 1 0 0 0

>  <DIFUSE_FUNC_ATOM>  (41) 
atom 6   atom 7   

>  <FINAL_SINGLE_POINT_ENERGY>  (41) 
0

>  <NONCOV_INTER_ENERGY_QM>  (41) 
0

>  <FF_Energy>  (41) 
10.2

>  <QM_Energy>  (41) 
-1.26

>  <Index>  (41) 
3326

$$$$
ACET-pdb1a2c-H-GLU-61:PRPA-pdb1a2c-H-LYS-87
     RDKit          3D

 18 16  0  0  0  0  0  0  0  0999 V2000
    0.2009    1.4841    0.0126 C   0  0  0  0  0  0  0  0  0  0  0  0
    0.1575    1.8119   -0.9295 H   0  0  0  0  0  0  0  0  0  0  0  0
    1.1049    1.6719    0.3923 H   0  0  0  0  0  0  0  0  0  0  0  0
   -0.5168    2.0693    0.5876 H   0  0  0  0  0  0  0  0  0  0  0  0
    0.0000    0.0000    0.0000 C   0  0  0  0  0  0  0  0  0  0  0  0
   -1.0772   -0.5978   -0.0000 O   0  0  0  0  0  1  0  0  0  0  0  0
    1.0772   -0.6554    0.0000 O   0  0  0  0  0  0  0  0  0  0  0  0
   -2.3996   -2.4965    1.2649 C   0  0  0  0  0  0  0  0  0  0  0  0
   -1.5173   -2.0422    1.1165 H   0  0  0  0  0  0  0  0  0  0  0  0
   -2.8757   -2.0597    2.1429 H   0  0  0  0  0  0  0  0  0  0  0  0
   -3.0277   -2.3441    0.3872 H   0  0  0  0  0  0  0  0  0  0  0  0
   -2.2084   -4.0006    1.4137 C   0  0  0  0  0  0  0  0  0  0  0  0
   -2.9471   -4.3632    1.9801 H   0  0  0  0  0  0  0  0  0  0  0  0
   -2.2462   -4.4188    0.5070 H   0  0  0  0  0  0  0  0  0  0  0  0
   -0.8718   -4.4195    2.0661 C   0  0  0  0  0  0  0  0  0  0  0  0
   -0.8002   -3.9901    2.9396 H   0  0  0  0  0  0  0  0  0  0  0  0
   -0.8321   -5.3939    2.1054 H   0  0  0  0  0  0  0  0  0  0  0  0
   -0.0832   -4.0480    1.4117 H   0  0  0  0  0  0  0  0  0  0  0  0
  1  5  1  0
  5  6  1  0
  5  7  2  0
  1  2  1  0
  1  3  1  0
  1  4  1  0
  8 12  1  0
 12 15  1  0
  8  9  1  0
  8 10  1  0
  8 11  1  0
 12 13  1  0
 12 14  1  0
 15 16  1  0
 15 17  1  0
 15 18  1  0
M  CHG  1   6  -1
M  END
>  <PDB_ID>  (42) 
pdb1a2c

>  <RESIDUE_NAME>  (42) 
GLU   LYS

>  <FRAG_NAME>  (42) 
ACET   PRPA

>  <FRAG_ATOM_NUM>  (42) 
fragi: 7  fragj: 11

>  <atom.prop.CHAIN_ID>  (42) 
A A A A A A A Z Z Z Z Z Z Z Z Z Z Z

>  <atom.prop.IS_HEAVY_ATOM>  (42) 
1 0 0 0 1 1 1 1 0 0 0 1 0 0 1 0 0 0

>  <DIFUSE_FUNC_ATOM>  (42) 
atom 6   atom 7   

>  <FINAL_SINGLE_POINT_ENERGY>  (42) 
0

>  <NONCOV_INTER_ENERGY_QM>  (42) 
0

>  <FF_Energy>  (42) 
28.31

>  <QM_Energy>  (42) 
2.23

>  <Index>  (42) 
3390

$$$$
ACET-pdb2a2f-X-GLU-47:PRPA-pdb2a2f-X-VAL-42
     RDKit          3D

 18 16  0  0  0  0  0  0  0  0999 V2000
   -0.0018    1.5143    0.0132 C   0  0  0  0  0  0  0  0  0  0  0  0
   -0.1686    1.8030    0.9368 H   0  0  0  0  0  0  0  0  0  0  0  0
   -0.7014    1.8146   -0.6063 H   0  0  0  0  0  0  0  0  0  0  0  0
    0.9516    1.9306   -0.3118 H   0  0  0  0  0  0  0  0  0  0  0  0
    0.0000    0.0000    0.0000 C   0  0  0  0  0  0  0  0  0  0  0  0
   -1.0968   -0.5993   -0.0000 O   0  0  0  0  0  1  0  0  0  0  0  0
    1.0968   -0.5946    0.0000 O   0  0  0  0  0  0  0  0  0  0  0  0
    2.1435    0.0331   -2.5569 C   0  0  0  0  0  0  0  0  0  0  0  0
    2.0666    0.6056   -3.3744 H   0  0  0  0  0  0  0  0  0  0  0  0
    1.3977   -0.6343   -2.5495 H   0  0  0  0  0  0  0  0  0  0  0  0
    2.0779    0.6114   -1.7419 H   0  0  0  0  0  0  0  0  0  0  0  0
    3.4760   -0.6899   -2.5636 C   0  0  0  0  0  0  0  0  0  0  0  0
    4.1499   -0.0674   -2.9467 H   0  0  0  0  0  0  0  0  0  0  0  0
    3.4302   -1.5609   -3.2174 H   0  0  0  0  0  0  0  0  0  0  0  0
    3.8418   -1.1177   -1.1466 C   0  0  0  0  0  0  0  0  0  0  0  0
    4.8157   -0.9517   -0.9944 H   0  0  0  0  0  0  0  0  0  0  0  0
    3.3026   -0.5872   -0.4930 H   0  0  0  0  0  0  0  0  0  0  0  0
    3.6441   -2.0910   -1.0360 H   0  0  0  0  0  0  0  0  0  0  0  0
  1  5  1  0
  5  6  1  0
  5  7  2  0
  1  2  1  0
  1  3  1  0
  1  4  1  0
  8 12  1  0
 12 15  1  0
  8  9  1  0
  8 10  1  0
  8 11  1  0
 12 13  1  0
 12 14  1  0
 15 16  1  0
 15 17  1  0
 15 18  1  0
M  CHG  1   6  -1
M  END
>  <PDB_ID>  (43) 
pdb2a2f

>  <RESIDUE_NAME>  (43) 
GLU   VAL

>  <FRAG_NAME>  (43) 
ACET   PRPA

>  <FRAG_ATOM_NUM>  (43) 
fragi: 7  fragj: 11

>  <atom.prop.CHAIN_ID>  (43) 
A A A A A A A Z Z Z Z Z Z Z Z Z Z Z

>  <atom.prop.IS_HEAVY_ATOM>  (43) 
1 0 0 0 1 1 1 1 0 0 0 1 0 0 1 0 0 0

>  <DIFUSE_FUNC_ATOM>  (43) 
atom 6   atom 7   

>  <FINAL_SINGLE_POINT_ENERGY>  (43) 
0

>  <NONCOV_INTER_ENERGY_QM>  (43) 
0

>  <FF_Energy>  (43) 
4.01

>  <QM_Energy>  (43) 
-1.63

>  <Index>  (43) 
3595

$$$$
ACET-pdb2a46-A-ASP-91:PRPA-pdb2a46-A-LYS-187
     RDKit          3D

 18 16  0  0  0  0  0  0  0  0999 V2000
    0.1977    1.4567   -0.2205 C   0  0  0  0  0  0  0  0  0  0  0  0
    1.0851    1.7115    0.0648 H   0  0  0  0  0  0  0  0  0  0  0  0
   -0.5256    1.9487    0.1888 H   0  0  0  0  0  0  0  0  0  0  0  0
    0.1323    1.5767   -1.3020 H   0  0  0  0  0  0  0  0  0  0  0  0
    0.0000    0.0000    0.0000 C   0  0  0  0  0  0  0  0  0  0  0  0
   -1.1239   -0.4428    0.0000 O   0  0  0  0  0  1  0  0  0  0  0  0
    1.1239   -0.6996   -0.0000 O   0  0  0  0  0  0  0  0  0  0  0  0
    1.1526    2.0117    4.8444 C   0  0  0  0  0  0  0  0  0  0  0  0
    0.4865    2.3080    5.5303 H   0  0  0  0  0  0  0  0  0  0  0  0
    1.2520    2.7897    4.0875 H   0  0  0  0  0  0  0  0  0  0  0  0
    2.1137    1.8560    5.3345 H   0  0  0  0  0  0  0  0  0  0  0  0
    0.5481    0.7148    4.3154 C   0  0  0  0  0  0  0  0  0  0  0  0
    1.2858    0.1144    4.0409 H   0  0  0  0  0  0  0  0  0  0  0  0
    0.0072    0.3053    5.0375 H   0  0  0  0  0  0  0  0  0  0  0  0
   -0.3499    0.9540    3.1160 C   0  0  0  0  0  0  0  0  0  0  0  0
   -0.2031    1.8939    2.7777 H   0  0  0  0  0  0  0  0  0  0  0  0
   -0.0916    0.3141    2.3794 H   0  0  0  0  0  0  0  0  0  0  0  0
   -1.4107    0.8255    3.3315 H   0  0  0  0  0  0  0  0  0  0  0  0
  1  5  1  0
  5  6  1  0
  5  7  2  0
  1  2  1  0
  1  3  1  0
  1  4  1  0
  8 12  1  0
 12 15  1  0
  8  9  1  0
  8 10  1  0
  8 11  1  0
 12 13  1  0
 12 14  1  0
 15 16  1  0
 15 17  1  0
 15 18  1  0
M  CHG  1   6  -1
M  END
>  <PDB_ID>  (44) 
pdb2a46

>  <RESIDUE_NAME>  (44) 
ASP   LYS

>  <FRAG_NAME>  (44) 
ACET   PRPA

>  <FRAG_ATOM_NUM>  (44) 
fragi: 7  fragj: 11

>  <atom.prop.CHAIN_ID>  (44) 
A A A A A A A Z Z Z Z Z Z Z Z Z Z Z

>  <atom.prop.IS_HEAVY_ATOM>  (44) 
1 0 0 0 1 1 1 1 0 0 0 1 0 0 1 0 0 0

>  <DIFUSE_FUNC_ATOM>  (44) 
atom 6   atom 7   

>  <FINAL_SINGLE_POINT_ENERGY>  (44) 
0

>  <NONCOV_INTER_ENERGY_QM>  (44) 
0

>  <FF_Energy>  (44) 
3.45

>  <QM_Energy>  (44) 
-2.51

>  <Index>  (44) 
3597

$$$$
ACET-pdb2a46-A-ASP-91:PRPA-pdb2a46-A-LYS-187
     RDKit          3D

 18 16  0  0  0  0  0  0  0  0999 V2000
    0.1977    1.4567   -0.2205 C   0  0  0  0  0  0  0  0  0  0  0  0
    1.0851    1.7115    0.0648 H   0  0  0  0  0  0  0  0  0  0  0  0
   -0.5256    1.9487    0.1888 H   0  0  0  0  0  0  0  0  0  0  0  0
    0.1323    1.5767   -1.3020 H   0  0  0  0  0  0  0  0  0  0  0  0
    0.0000    0.0000    0.0000 C   0  0  0  0  0  0  0  0  0  0  0  0
   -1.1239   -0.4428    0.0000 O   0  0  0  0  0  1  0  0  0  0  0  0
    1.1239   -0.6996   -0.0000 O   0  0  0  0  0  0  0  0  0  0  0  0
   -0.3499    0.9540    3.1160 C   0  0  0  0  0  0  0  0  0  0  0  0
   -0.2031    1.8939    2.7777 H   0  0  0  0  0  0  0  0  0  0  0  0
   -0.0916    0.3141    2.3794 H   0  0  0  0  0  0  0  0  0  0  0  0
    0.2952    0.7822    3.9776 H   0  0  0  0  0  0  0  0  0  0  0  0
   -1.8319    0.7744    3.4171 C   0  0  0  0  0  0  0  0  0  0  0  0
   -2.0834   -0.1783    3.2429 H   0  0  0  0  0  0  0  0  0  0  0  0
   -1.9947    0.9900    4.3799 H   0  0  0  0  0  0  0  0  0  0  0  0
   -2.7286    1.6713    2.5668 C   0  0  0  0  0  0  0  0  0  0  0  0
   -3.6944    1.5155    2.8478 H   0  0  0  0  0  0  0  0  0  0  0  0
   -2.5138    2.6409    2.7902 H   0  0  0  0  0  0  0  0  0  0  0  0
   -2.6411    1.5246    1.4902 H   0  0  0  0  0  0  0  0  0  0  0  0
  1  5  1  0
  5  6  1  0
  5  7  2  0
  1  2  1  0
  1  3  1  0
  1  4  1  0
  8 12  1  0
 12 15  1  0
  8  9  1  0
  8 10  1  0
  8 11  1  0
 12 13  1  0
 12 14  1  0
 15 16  1  0
 15 17  1  0
 15 18  1  0
M  CHG  1   6  -1
M  END
>  <PDB_ID>  (45) 
pdb2a46

>  <RESIDUE_NAME>  (45) 
ASP   LYS

>  <FRAG_NAME>  (45) 
ACET   PRPA

>  <FRAG_ATOM_NUM>  (45) 
fragi: 7  fragj: 11

>  <atom.prop.CHAIN_ID>  (45) 
A A A A A A A Z Z Z Z Z Z Z Z Z Z Z

>  <atom.prop.IS_HEAVY_ATOM>  (45) 
1 0 0 0 1 1 1 1 0 0 0 1 0 0 1 0 0 0

>  <DIFUSE_FUNC_ATOM>  (45) 
atom 6   atom 7   

>  <FINAL_SINGLE_POINT_ENERGY>  (45) 
0

>  <NONCOV_INTER_ENERGY_QM>  (45) 
0

>  <FF_Energy>  (45) 
9.43

>  <QM_Energy>  (45) 
-3.91

>  <Index>  (45) 
3614

$$$$
ACET-pdb1a0p-A-GLU-132:PRPA-pdb1a0p-A-LEU-126
     RDKit          3D

 18 16  0  0  0  0  0  0  0  0999 V2000
    0.0954    1.5397    0.0209 C   0  0  0  0  0  0  0  0  0  0  0  0
    0.4191    1.8234   -0.8598 H   0  0  0  0  0  0  0  0  0  0  0  0
    0.7085    1.7834    0.7467 H   0  0  0  0  0  0  0  0  0  0  0  0
   -0.8601    2.0314    0.2043 H   0  0  0  0  0  0  0  0  0  0  0  0
    0.0000    0.0000    0.0000 C   0  0  0  0  0  0  0  0  0  0  0  0
   -1.0917   -0.5777   -0.0000 O   0  0  0  0  0  1  0  0  0  0  0  0
    1.0917   -0.5566   -0.0000 O   0  0  0  0  0  0  0  0  0  0  0  0
   -3.8350   -0.5015    2.4676 C   0  0  0  0  0  0  0  0  0  0  0  0
   -4.6402   -1.0211    2.6541 H   0  0  0  0  0  0  0  0  0  0  0  0
   -3.7437   -0.3971    1.3864 H   0  0  0  0  0  0  0  0  0  0  0  0
   -3.9766    0.5158    2.8327 H   0  0  0  0  0  0  0  0  0  0  0  0
   -2.5167   -1.2051    2.8011 C   0  0  0  0  0  0  0  0  0  0  0  0
   -1.9621   -1.2333    1.9451 H   0  0  0  0  0  0  0  0  0  0  0  0
   -2.0092   -0.6078    3.4527 H   0  0  0  0  0  0  0  0  0  0  0  0
   -2.4863   -2.6232    3.3899 C   0  0  0  0  0  0  0  0  0  0  0  0
   -2.2657   -2.5411    4.4022 H   0  0  0  0  0  0  0  0  0  0  0  0
   -3.3572   -3.2684    3.2741 H   0  0  0  0  0  0  0  0  0  0  0  0
   -1.6067   -3.1678    3.0467 H   0  0  0  0  0  0  0  0  0  0  0  0
  1  5  1  0
  5  6  1  0
  5  7  2  0
  1  2  1  0
  1  3  1  0
  1  4  1  0
  8 12  1  0
 12 15  1  0
  8  9  1  0
  8 10  1  0
  8 11  1  0
 12 13  1  0
 12 14  1  0
 15 16  1  0
 15 17  1  0
 15 18  1  0
M  CHG  1   6  -1
M  END
>  <PDB_ID>  (46) 
pdb1a0p

>  <RESIDUE_NAME>  (46) 
GLU   LEU

>  <FRAG_NAME>  (46) 
ACET   PRPA

>  <FRAG_ATOM_NUM>  (46) 
fragi: 7  fragj: 11

>  <atom.prop.CHAIN_ID>  (46) 
A A A A A A A Z Z Z Z Z Z Z Z Z Z Z

>  <atom.prop.IS_HEAVY_ATOM>  (46) 
1 0 0 0 1 1 1 1 0 0 0 1 0 0 1 0 0 0

>  <DIFUSE_FUNC_ATOM>  (46) 
atom 6   atom 7   

>  <FINAL_SINGLE_POINT_ENERGY>  (46) 
0

>  <NONCOV_INTER_ENERGY_QM>  (46) 
0

>  <FF_Energy>  (46) 
38.85

>  <QM_Energy>  (46) 
-4.45

>  <Index>  (46) 
3618

$$$$
ACET-pdb1a2c-H-ASP-49:PRPA-pdb1a2c-H-PRO-111
     RDKit          3D

 18 16  0  0  0  0  0  0  0  0999 V2000
   -0.2130    1.5083   -0.1060 C   0  0  0  0  0  0  0  0  0  0  0  0
    0.5695    1.9081   -0.5020 H   0  0  0  0  0  0  0  0  0  0  0  0
   -0.4688    1.8503    0.7571 H   0  0  0  0  0  0  0  0  0  0  0  0
   -1.0507    1.6375   -0.7913 H   0  0  0  0  0  0  0  0  0  0  0  0
    0.0000    0.0000    0.0000 C   0  0  0  0  0  0  0  0  0  0  0  0
   -1.0931   -0.5915   -0.0000 O   0  0  0  0  0  1  0  0  0  0  0  0
    1.0931   -0.5564    0.0000 O   0  0  0  0  0  0  0  0  0  0  0  0
    2.7522    0.4446   -3.2708 C   0  0  0  0  0  0  0  0  0  0  0  0
    1.8003    0.4693   -3.5459 H   0  0  0  0  0  0  0  0  0  0  0  0
    3.3710    0.0176   -4.0601 H   0  0  0  0  0  0  0  0  0  0  0  0
    3.1399    1.4419   -3.0636 H   0  0  0  0  0  0  0  0  0  0  0  0
    2.8296   -0.5395   -2.1026 C   0  0  0  0  0  0  0  0  0  0  0  0
    3.2066   -0.0979   -1.2795 H   0  0  0  0  0  0  0  0  0  0  0  0
    1.9206   -0.9077   -1.8760 H   0  0  0  0  0  0  0  0  0  0  0  0
    3.7538   -1.6746   -2.5525 C   0  0  0  0  0  0  0  0  0  0  0  0
    4.5343   -1.7516   -1.9055 H   0  0  0  0  0  0  0  0  0  0  0  0
    3.2493   -2.5553   -2.5124 H   0  0  0  0  0  0  0  0  0  0  0  0
    4.1067   -1.4750   -3.5643 H   0  0  0  0  0  0  0  0  0  0  0  0
  1  5  1  0
  5  6  1  0
  5  7  2  0
  1  2  1  0
  1  3  1  0
  1  4  1  0
  8 12  1  0
 12 15  1  0
  8  9  1  0
  8 10  1  0
  8 11  1  0
 12 13  1  0
 12 14  1  0
 15 16  1  0
 15 17  1  0
 15 18  1  0
M  CHG  1   6  -1
M  END
>  <PDB_ID>  (47) 
pdb1a2c

>  <RESIDUE_NAME>  (47) 
ASP   PRO

>  <FRAG_NAME>  (47) 
ACET   PRPA

>  <FRAG_ATOM_NUM>  (47) 
fragi: 7  fragj: 11

>  <atom.prop.CHAIN_ID>  (47) 
A A A A A A A Z Z Z Z Z Z Z Z Z Z Z

>  <atom.prop.IS_HEAVY_ATOM>  (47) 
1 0 0 0 1 1 1 1 0 0 0 1 0 0 1 0 0 0

>  <DIFUSE_FUNC_ATOM>  (47) 
atom 6   atom 7   

>  <FINAL_SINGLE_POINT_ENERGY>  (47) 
0

>  <NONCOV_INTER_ENERGY_QM>  (47) 
0

>  <FF_Energy>  (47) 
23.11

>  <QM_Energy>  (47) 
-0.36

>  <Index>  (47) 
3746

$$$$
ACET-pdb2a2c-A-GLU-457:PRPA-pdb2a2c-A-VAL-13
     RDKit          3D

 18 16  0  0  0  0  0  0  0  0999 V2000
    0.2495    1.4602   -0.0741 C   0  0  0  0  0  0  0  0  0  0  0  0
    0.9398    1.6936    0.5703 H   0  0  0  0  0  0  0  0  0  0  0  0
   -0.5925    1.9287    0.0614 H   0  0  0  0  0  0  0  0  0  0  0  0
    0.6201    1.7184   -1.0661 H   0  0  0  0  0  0  0  0  0  0  0  0
    0.0000    0.0000    0.0000 C   0  0  0  0  0  0  0  0  0  0  0  0
   -1.1226   -0.4749    0.0000 O   0  0  0  0  0  1  0  0  0  0  0  0
    1.1226   -0.6869   -0.0000 O   0  0  0  0  0  0  0  0  0  0  0  0
    1.8162    2.1843    4.7327 C   0  0  0  0  0  0  0  0  0  0  0  0
    1.3265    3.0570    4.8913 H   0  0  0  0  0  0  0  0  0  0  0  0
    2.6378    2.3730    4.0416 H   0  0  0  0  0  0  0  0  0  0  0  0
    2.1635    1.8195    5.6993 H   0  0  0  0  0  0  0  0  0  0  0  0
    0.7104    1.3861    4.0224 C   0  0  0  0  0  0  0  0  0  0  0  0
    1.1072    0.5141    3.7204 H   0  0  0  0  0  0  0  0  0  0  0  0
   -0.1259    1.1388    4.6762 H   0  0  0  0  0  0  0  0  0  0  0  0
    0.1827    2.2533    2.8793 C   0  0  0  0  0  0  0  0  0  0  0  0
    0.3409    3.2150    3.0989 H   0  0  0  0  0  0  0  0  0  0  0  0
    0.6647    2.0140    2.0377 H   0  0  0  0  0  0  0  0  0  0  0  0
   -0.7956    2.0875    2.7682 H   0  0  0  0  0  0  0  0  0  0  0  0
  1  5  1  0
  5  6  1  0
  5  7  2  0
  1  2  1  0
  1  3  1  0
  1  4  1  0
  8 12  1  0
 12 15  1  0
  8  9  1  0
  8 10  1  0
  8 11  1  0
 12 13  1  0
 12 14  1  0
 15 16  1  0
 15 17  1  0
 15 18  1  0
M  CHG  1   6  -1
M  END
>  <PDB_ID>  (48) 
pdb2a2c

>  <RESIDUE_NAME>  (48) 
GLU   VAL

>  <FRAG_NAME>  (48) 
ACET   PRPA

>  <FRAG_ATOM_NUM>  (48) 
fragi: 7  fragj: 11

>  <atom.prop.CHAIN_ID>  (48) 
A A A A A A A Z Z Z Z Z Z Z Z Z Z Z

>  <atom.prop.IS_HEAVY_ATOM>  (48) 
1 0 0 0 1 1 1 1 0 0 0 1 0 0 1 0 0 0

>  <DIFUSE_FUNC_ATOM>  (48) 
atom 6   atom 7   

>  <FINAL_SINGLE_POINT_ENERGY>  (48) 
0

>  <NONCOV_INTER_ENERGY_QM>  (48) 
0

>  <FF_Energy>  (48) 
48.41

>  <QM_Energy>  (48) 
3.81

>  <Index>  (48) 
3849

$$$$
ACET-pdb2a2c-A-GLU-457:PRPA-pdb2a2c-A-VAL-13
     RDKit          3D

 18 16  0  0  0  0  0  0  0  0999 V2000
    0.2495    1.4602   -0.0741 C   0  0  0  0  0  0  0  0  0  0  0  0
    0.9398    1.6936    0.5703 H   0  0  0  0  0  0  0  0  0  0  0  0
   -0.5925    1.9287    0.0614 H   0  0  0  0  0  0  0  0  0  0  0  0
    0.6201    1.7184   -1.0661 H   0  0  0  0  0  0  0  0  0  0  0  0
    0.0000    0.0000    0.0000 C   0  0  0  0  0  0  0  0  0  0  0  0
   -1.1226   -0.4749    0.0000 O   0  0  0  0  0  1  0  0  0  0  0  0
    1.1226   -0.6869   -0.0000 O   0  0  0  0  0  0  0  0  0  0  0  0
   -0.4633    1.0391    4.9400 C   0  0  0  0  0  0  0  0  0  0  0  0
   -1.2893    0.9255    4.3910 H   0  0  0  0  0  0  0  0  0  0  0  0
   -0.2636    0.1889    5.4250 H   0  0  0  0  0  0  0  0  0  0  0  0
   -0.5971    1.7781    5.5987 H   0  0  0  0  0  0  0  0  0  0  0  0
    0.7104    1.3861    4.0224 C   0  0  0  0  0  0  0  0  0  0  0  0
    1.1072    0.5141    3.7204 H   0  0  0  0  0  0  0  0  0  0  0  0
    1.4942    1.9519    4.5259 H   0  0  0  0  0  0  0  0  0  0  0  0
    0.1827    2.2533    2.8793 C   0  0  0  0  0  0  0  0  0  0  0  0
    0.3409    3.2150    3.0989 H   0  0  0  0  0  0  0  0  0  0  0  0
    0.6647    2.0140    2.0377 H   0  0  0  0  0  0  0  0  0  0  0  0
   -0.7956    2.0875    2.7682 H   0  0  0  0  0  0  0  0  0  0  0  0
  1  5  1  0
  5  6  1  0
  5  7  2  0
  1  2  1  0
  1  3  1  0
  1  4  1  0
  8 12  1  0
 12 15  1  0
  8  9  1  0
  8 10  1  0
  8 11  1  0
 12 13  1  0
 12 14  1  0
 15 16  1  0
 15 17  1  0
 15 18  1  0
M  CHG  1   6  -1
M  END
>  <PDB_ID>  (49) 
pdb2a2c

>  <RESIDUE_NAME>  (49) 
GLU   VAL

>  <FRAG_NAME>  (49) 
ACET   PRPA

>  <FRAG_ATOM_NUM>  (49) 
fragi: 7  fragj: 11

>  <atom.prop.CHAIN_ID>  (49) 
A A A A A A A Z Z Z Z Z Z Z Z Z Z Z

>  <atom.prop.IS_HEAVY_ATOM>  (49) 
1 0 0 0 1 1 1 1 0 0 0 1 0 0 1 0 0 0

>  <DIFUSE_FUNC_ATOM>  (49) 
atom 6   atom 7   

>  <FINAL_SINGLE_POINT_ENERGY>  (49) 
0

>  <NONCOV_INTER_ENERGY_QM>  (49) 
0

>  <FF_Energy>  (49) 
48.44

>  <QM_Energy>  (49) 
3.84

>  <Index>  (49) 
3855

$$$$
ACET-pdb1a44-A-ASP-173:PRPA-pdb1a44-A-PRO-42
     RDKit          3D

 18 16  0  0  0  0  0  0  0  0999 V2000
    0.0396    1.5127   -0.0471 C   0  0  0  0  0  0  0  0  0  0  0  0
    0.5455    1.7884   -0.8885 H   0  0  0  0  0  0  0  0  0  0  0  0
    0.5946    1.8379    0.7431 H   0  0  0  0  0  0  0  0  0  0  0  0
   -0.9071    2.0528   -0.0351 H   0  0  0  0  0  0  0  0  0  0  0  0
    0.0000    0.0000    0.0000 C   0  0  0  0  0  0  0  0  0  0  0  0
   -1.0963   -0.5718   -0.0000 O   0  0  0  0  0  1  0  0  0  0  0  0
    1.0963   -0.6247    0.0000 O   0  0  0  0  0  0  0  0  0  0  0  0
   -1.0221   -1.7591    3.1091 C   0  0  0  0  0  0  0  0  0  0  0  0
   -1.1215   -1.7007    2.1210 H   0  0  0  0  0  0  0  0  0  0  0  0
   -1.8273   -2.1794    3.5124 H   0  0  0  0  0  0  0  0  0  0  0  0
   -0.1192   -2.3075    3.3778 H   0  0  0  0  0  0  0  0  0  0  0  0
   -0.7634   -0.4144    3.7034 C   0  0  0  0  0  0  0  0  0  0  0  0
   -1.3307    0.2846    3.2630 H   0  0  0  0  0  0  0  0  0  0  0  0
   -0.9521   -0.4183    4.6874 H   0  0  0  0  0  0  0  0  0  0  0  0
    0.7066   -0.1495    3.4440 C   0  0  0  0  0  0  0  0  0  0  0  0
    0.8547    0.2068    2.5308 H   0  0  0  0  0  0  0  0  0  0  0  0
    1.0916    0.4608    4.1260 H   0  0  0  0  0  0  0  0  0  0  0  0
    1.1340   -1.1477    3.5393 H   0  0  0  0  0  0  0  0  0  0  0  0
  1  5  1  0
  5  6  1  0
  5  7  2  0
  1  2  1  0
  1  3  1  0
  1  4  1  0
  8 12  1  0
 12 15  1  0
  8  9  1  0
  8 10  1  0
  8 11  1  0
 12 13  1  0
 12 14  1  0
 15 16  1  0
 15 17  1  0
 15 18  1  0
M  CHG  1   6  -1
M  END
>  <PDB_ID>  (50) 
pdb1a44

>  <RESIDUE_NAME>  (50) 
ASP   PRO

>  <FRAG_NAME>  (50) 
ACET   PRPA

>  <FRAG_ATOM_NUM>  (50) 
fragi: 7  fragj: 11

>  <atom.prop.CHAIN_ID>  (50) 
A A A A A A A Z Z Z Z Z Z Z Z Z Z Z

>  <atom.prop.IS_HEAVY_ATOM>  (50) 
1 0 0 0 1 1 1 1 0 0 0 1 0 0 1 0 0 0

>  <DIFUSE_FUNC_ATOM>  (50) 
atom 6   atom 7   

>  <FINAL_SINGLE_POINT_ENERGY>  (50) 
0

>  <NONCOV_INTER_ENERGY_QM>  (50) 
0

>  <FF_Energy>  (50) 
0.34

>  <QM_Energy>  (50) 
-5.23

>  <Index>  (50) 
3888

$$$$
ACET-pdb1a14-H-GLU-10:PRPA-pdb1a14-H-VAL-18
     RDKit          3D

 18 16  0  0  0  0  0  0  0  0999 V2000
    0.0164    1.5210    0.0114 C   0  0  0  0  0  0  0  0  0  0  0  0
    0.7669    1.8171   -0.5539 H   0  0  0  0  0  0  0  0  0  0  0  0
    0.1239    1.8121    0.9463 H   0  0  0  0  0  0  0  0  0  0  0  0
   -0.8940    1.9762   -0.3786 H   0  0  0  0  0  0  0  0  0  0  0  0
    0.0000    0.0000    0.0000 C   0  0  0  0  0  0  0  0  0  0  0  0
   -1.0992   -0.5955   -0.0000 O   0  0  0  0  0  1  0  0  0  0  0  0
    1.0992   -0.6004    0.0000 O   0  0  0  0  0  0  0  0  0  0  0  0
   -1.8430    1.3658    5.2562 C   0  0  0  0  0  0  0  0  0  0  0  0
   -2.1973    0.4717    4.9933 H   0  0  0  0  0  0  0  0  0  0  0  0
   -2.5812    1.8481    5.8968 H   0  0  0  0  0  0  0  0  0  0  0  0
   -0.9287    1.2131    5.8295 H   0  0  0  0  0  0  0  0  0  0  0  0
   -1.4981    2.2179    4.0294 C   0  0  0  0  0  0  0  0  0  0  0  0
   -2.2891    2.2197    3.4250 H   0  0  0  0  0  0  0  0  0  0  0  0
   -1.3200    3.2533    4.3201 H   0  0  0  0  0  0  0  0  0  0  0  0
   -0.2723    1.6680    3.3623 C   0  0  0  0  0  0  0  0  0  0  0  0
   -0.1980    2.0331    2.4311 H   0  0  0  0  0  0  0  0  0  0  0  0
    0.5455    1.9288    3.8825 H   0  0  0  0  0  0  0  0  0  0  0  0
   -0.3283    0.6667    3.3186 H   0  0  0  0  0  0  0  0  0  0  0  0
  1  5  1  0
  5  6  1  0
  5  7  2  0
  1  2  1  0
  1  3  1  0
  1  4  1  0
  8 12  1  0
 12 15  1  0
  8  9  1  0
  8 10  1  0
  8 11  1  0
 12 13  1  0
 12 14  1  0
 15 16  1  0
 15 17  1  0
 15 18  1  0
M  CHG  1   6  -1
M  END
>  <PDB_ID>  (51) 
pdb1a14

>  <RESIDUE_NAME>  (51) 
GLU   VAL

>  <FRAG_NAME>  (51) 
ACET   PRPA

>  <FRAG_ATOM_NUM>  (51) 
fragi: 7  fragj: 11

>  <atom.prop.CHAIN_ID>  (51) 
A A A A A A A Z Z Z Z Z Z Z Z Z Z Z

>  <atom.prop.IS_HEAVY_ATOM>  (51) 
1 0 0 0 1 1 1 1 0 0 0 1 0 0 1 0 0 0

>  <DIFUSE_FUNC_ATOM>  (51) 
atom 6   atom 7   

>  <FINAL_SINGLE_POINT_ENERGY>  (51) 
0

>  <NONCOV_INTER_ENERGY_QM>  (51) 
0

>  <FF_Energy>  (51) 
21.37

>  <QM_Energy>  (51) 
2.25

>  <Index>  (51) 
3983

$$$$
ACET-pdb1a14-H-GLU-10:PRPA-pdb1a14-H-VAL-18
     RDKit          3D

 18 16  0  0  0  0  0  0  0  0999 V2000
    0.0164    1.5210    0.0114 C   0  0  0  0  0  0  0  0  0  0  0  0
    0.7669    1.8171   -0.5539 H   0  0  0  0  0  0  0  0  0  0  0  0
    0.1239    1.8121    0.9463 H   0  0  0  0  0  0  0  0  0  0  0  0
   -0.8940    1.9762   -0.3786 H   0  0  0  0  0  0  0  0  0  0  0  0
    0.0000    0.0000    0.0000 C   0  0  0  0  0  0  0  0  0  0  0  0
   -1.0992   -0.5955   -0.0000 O   0  0  0  0  0  1  0  0  0  0  0  0
    1.0992   -0.6004    0.0000 O   0  0  0  0  0  0  0  0  0  0  0  0
   -1.2493    3.6645    4.4356 C   0  0  0  0  0  0  0  0  0  0  0  0
   -1.6178    4.2758    3.7356 H   0  0  0  0  0  0  0  0  0  0  0  0
   -1.7000    3.8482    5.3083 H   0  0  0  0  0  0  0  0  0  0  0  0
   -0.2659    3.8200    4.5286 H   0  0  0  0  0  0  0  0  0  0  0  0
   -1.4981    2.2179    4.0294 C   0  0  0  0  0  0  0  0  0  0  0  0
   -2.2891    2.2197    3.4250 H   0  0  0  0  0  0  0  0  0  0  0  0
   -1.7433    1.6120    4.9017 H   0  0  0  0  0  0  0  0  0  0  0  0
   -0.2723    1.6680    3.3623 C   0  0  0  0  0  0  0  0  0  0  0  0
   -0.1980    2.0331    2.4311 H   0  0  0  0  0  0  0  0  0  0  0  0
    0.5455    1.9288    3.8825 H   0  0  0  0  0  0  0  0  0  0  0  0
   -0.3283    0.6667    3.3186 H   0  0  0  0  0  0  0  0  0  0  0  0
  1  5  1  0
  5  6  1  0
  5  7  2  0
  1  2  1  0
  1  3  1  0
  1  4  1  0
  8 12  1  0
 12 15  1  0
  8  9  1  0
  8 10  1  0
  8 11  1  0
 12 13  1  0
 12 14  1  0
 15 16  1  0
 15 17  1  0
 15 18  1  0
M  CHG  1   6  -1
M  END
>  <PDB_ID>  (52) 
pdb1a14

>  <RESIDUE_NAME>  (52) 
GLU   VAL

>  <FRAG_NAME>  (52) 
ACET   PRPA

>  <FRAG_ATOM_NUM>  (52) 
fragi: 7  fragj: 11

>  <atom.prop.CHAIN_ID>  (52) 
A A A A A A A Z Z Z Z Z Z Z Z Z Z Z

>  <atom.prop.IS_HEAVY_ATOM>  (52) 
1 0 0 0 1 1 1 1 0 0 0 1 0 0 1 0 0 0

>  <DIFUSE_FUNC_ATOM>  (52) 
atom 6   atom 7   

>  <FINAL_SINGLE_POINT_ENERGY>  (52) 
0

>  <NONCOV_INTER_ENERGY_QM>  (52) 
0

>  <FF_Energy>  (52) 
40.89

>  <QM_Energy>  (52) 
2.51

>  <Index>  (52) 
3985

$$$$
ACET-pdb10gs-A-GLU-130:PRPA-pdb10gs-A-LEU-175
     RDKit          3D

 18 16  0  0  0  0  0  0  0  0999 V2000
    0.0089    1.5258   -0.0160 C   0  0  0  0  0  0  0  0  0  0  0  0
    0.3557    1.8116   -0.8926 H   0  0  0  0  0  0  0  0  0  0  0  0
    0.5869    1.8264    0.7235 H   0  0  0  0  0  0  0  0  0  0  0  0
   -0.9742    1.9769    0.1193 H   0  0  0  0  0  0  0  0  0  0  0  0
    0.0000    0.0000    0.0000 C   0  0  0  0  0  0  0  0  0  0  0  0
   -1.0954   -0.5985   -0.0000 O   0  0  0  0  0  1  0  0  0  0  0  0
    1.0954   -0.6038    0.0000 O   0  0  0  0  0  0  0  0  0  0  0  0
    0.4873   -2.2490    2.6448 C   0  0  0  0  0  0  0  0  0  0  0  0
    0.5368   -1.5287    1.9447 H   0  0  0  0  0  0  0  0  0  0  0  0
   -0.2776   -2.0425    3.2640 H   0  0  0  0  0  0  0  0  0  0  0  0
    0.2616   -3.1880    2.1394 H   0  0  0  0  0  0  0  0  0  0  0  0
    1.7750   -2.1568    3.4748 C   0  0  0  0  0  0  0  0  0  0  0  0
    1.5559   -2.3738    4.4330 H   0  0  0  0  0  0  0  0  0  0  0  0
    2.5445   -2.8393    3.1140 H   0  0  0  0  0  0  0  0  0  0  0  0
    2.2722   -0.7315    3.4703 C   0  0  0  0  0  0  0  0  0  0  0  0
    1.5768   -0.1271    3.8671 H   0  0  0  0  0  0  0  0  0  0  0  0
    3.1144   -0.6628    4.0111 H   0  0  0  0  0  0  0  0  0  0  0  0
    2.4616   -0.4400    2.5304 H   0  0  0  0  0  0  0  0  0  0  0  0
  1  5  1  0
  5  6  1  0
  5  7  2  0
  1  2  1  0
  1  3  1  0
  1  4  1  0
  8 12  1  0
 12 15  1  0
  8  9  1  0
  8 10  1  0
  8 11  1  0
 12 13  1  0
 12 14  1  0
 15 16  1  0
 15 17  1  0
 15 18  1  0
M  CHG  1   6  -1
M  END
>  <PDB_ID>  (53) 
pdb10gs

>  <RESIDUE_NAME>  (53) 
GLU   LEU

>  <FRAG_NAME>  (53) 
ACET   PRPA

>  <FRAG_ATOM_NUM>  (53) 
fragi: 7  fragj: 11

>  <atom.prop.CHAIN_ID>  (53) 
A A A A A A A Z Z Z Z Z Z Z Z Z Z Z

>  <atom.prop.IS_HEAVY_ATOM>  (53) 
1 0 0 0 1 1 1 1 0 0 0 1 0 0 1 0 0 0

>  <DIFUSE_FUNC_ATOM>  (53) 
atom 6   atom 7   

>  <FINAL_SINGLE_POINT_ENERGY>  (53) 
0

>  <NONCOV_INTER_ENERGY_QM>  (53) 
0

>  <FF_Energy>  (53) 
8.17

>  <QM_Energy>  (53) 
-3.68

>  <Index>  (53) 
4156

$$$$
ACET-pdb2a4o-A-GLU-138:PRPA-pdb2a4o-A-ARG-162
     RDKit          3D

 18 16  0  0  0  0  0  0  0  0999 V2000
   -0.0052    1.5246    0.0002 C   0  0  0  0  0  0  0  0  0  0  0  0
   -0.8996    1.8133    0.3000 H   0  0  0  0  0  0  0  0  0  0  0  0
    0.1813    1.8170   -0.9232 H   0  0  0  0  0  0  0  0  0  0  0  0
    0.7409    1.9650    0.6617 H   0  0  0  0  0  0  0  0  0  0  0  0
    0.0000    0.0000    0.0000 C   0  0  0  0  0  0  0  0  0  0  0  0
   -1.1002   -0.6066    0.0000 O   0  0  0  0  0  1  0  0  0  0  0  0
    1.1002   -0.5912    0.0000 O   0  0  0  0  0  0  0  0  0  0  0  0
   -3.5829    2.8047   -1.7961 C   0  0  0  0  0  0  0  0  0  0  0  0
   -3.5975    2.2942   -0.9358 H   0  0  0  0  0  0  0  0  0  0  0  0
   -3.9971    2.2508   -2.5179 H   0  0  0  0  0  0  0  0  0  0  0  0
   -4.1985    3.6947   -1.6647 H   0  0  0  0  0  0  0  0  0  0  0  0
   -2.1572    3.0811   -2.1646 C   0  0  0  0  0  0  0  0  0  0  0  0
   -2.1136    3.6817   -2.9557 H   0  0  0  0  0  0  0  0  0  0  0  0
   -1.6735    3.4854   -1.3957 H   0  0  0  0  0  0  0  0  0  0  0  0
   -1.4307    1.7798   -2.5328 C   0  0  0  0  0  0  0  0  0  0  0  0
   -0.4449    1.9842   -2.5790 H   0  0  0  0  0  0  0  0  0  0  0  0
   -1.5840    1.1244   -1.7831 H   0  0  0  0  0  0  0  0  0  0  0  0
   -1.7449    1.3260   -3.4727 H   0  0  0  0  0  0  0  0  0  0  0  0
  1  5  1  0
  5  6  1  0
  5  7  2  0
  1  2  1  0
  1  3  1  0
  1  4  1  0
  8 12  1  0
 12 15  1  0
  8  9  1  0
  8 10  1  0
  8 11  1  0
 12 13  1  0
 12 14  1  0
 15 16  1  0
 15 17  1  0
 15 18  1  0
M  CHG  1   6  -1
M  END
>  <PDB_ID>  (54) 
pdb2a4o

>  <RESIDUE_NAME>  (54) 
GLU   ARG

>  <FRAG_NAME>  (54) 
ACET   PRPA

>  <FRAG_ATOM_NUM>  (54) 
fragi: 7  fragj: 11

>  <atom.prop.CHAIN_ID>  (54) 
A A A A A A A Z Z Z Z Z Z Z Z Z Z Z

>  <atom.prop.IS_HEAVY_ATOM>  (54) 
1 0 0 0 1 1 1 1 0 0 0 1 0 0 1 0 0 0

>  <DIFUSE_FUNC_ATOM>  (54) 
atom 6   atom 7   

>  <FINAL_SINGLE_POINT_ENERGY>  (54) 
0

>  <NONCOV_INTER_ENERGY_QM>  (54) 
0

>  <FF_Energy>  (54) 
15.01

>  <QM_Energy>  (54) 
1.33

>  <Index>  (54) 
4341

$$$$
ACET-pdb2a3q-A-ASP-76:PRPA-pdb2a3q-B-ARG-54
     RDKit          3D

 18 16  0  0  0  0  0  0  0  0999 V2000
   -0.0781    1.5374   -0.0222 C   0  0  0  0  0  0  0  0  0  0  0  0
    0.7498    1.8860   -0.4274 H   0  0  0  0  0  0  0  0  0  0  0  0
   -0.1977    1.8580    0.9015 H   0  0  0  0  0  0  0  0  0  0  0  0
   -0.9221    1.8884   -0.6161 H   0  0  0  0  0  0  0  0  0  0  0  0
    0.0000    0.0000    0.0000 C   0  0  0  0  0  0  0  0  0  0  0  0
   -1.0802   -0.6135   -0.0000 O   0  0  0  0  0  1  0  0  0  0  0  0
    1.0802   -0.6397   -0.0000 O   0  0  0  0  0  0  0  0  0  0  0  0
   -1.2960   -4.2697    0.5527 C   0  0  0  0  0  0  0  0  0  0  0  0
   -0.9315   -3.4554    1.0248 H   0  0  0  0  0  0  0  0  0  0  0  0
   -0.5138   -4.8366    0.2622 H   0  0  0  0  0  0  0  0  0  0  0  0
   -1.8910   -4.8425    1.2641 H   0  0  0  0  0  0  0  0  0  0  0  0
   -2.0249   -3.8332   -0.6370 C   0  0  0  0  0  0  0  0  0  0  0  0
   -2.1917   -4.5547   -1.2418 H   0  0  0  0  0  0  0  0  0  0  0  0
   -2.7635   -3.2663   -0.4179 H   0  0  0  0  0  0  0  0  0  0  0  0
   -0.9467   -2.9293   -1.2993 C   0  0  0  0  0  0  0  0  0  0  0  0
   -1.2304   -2.0050   -1.1595 H   0  0  0  0  0  0  0  0  0  0  0  0
   -0.0972   -3.1448   -0.8673 H   0  0  0  0  0  0  0  0  0  0  0  0
   -0.9357   -3.1891   -2.3579 H   0  0  0  0  0  0  0  0  0  0  0  0
  1  5  1  0
  5  6  1  0
  5  7  2  0
  1  2  1  0
  1  3  1  0
  1  4  1  0
  8 12  1  0
 12 15  1  0
  8  9  1  0
  8 10  1  0
  8 11  1  0
 12 13  1  0
 12 14  1  0
 15 16  1  0
 15 17  1  0
 15 18  1  0
M  CHG  1   6  -1
M  END
>  <PDB_ID>  (55) 
pdb2a3q

>  <RESIDUE_NAME>  (55) 
ASP   ARG

>  <FRAG_NAME>  (55) 
ACET   PRPA

>  <FRAG_ATOM_NUM>  (55) 
fragi: 7  fragj: 11

>  <atom.prop.CHAIN_ID>  (55) 
A A A A A A A Z Z Z Z Z Z Z Z Z Z Z

>  <atom.prop.IS_HEAVY_ATOM>  (55) 
1 0 0 0 1 1 1 1 0 0 0 1 0 0 1 0 0 0

>  <DIFUSE_FUNC_ATOM>  (55) 
atom 6   atom 7   

>  <FINAL_SINGLE_POINT_ENERGY>  (55) 
0

>  <NONCOV_INTER_ENERGY_QM>  (55) 
0

>  <FF_Energy>  (55) 
41.89

>  <QM_Energy>  (55) 
0.6

>  <Index>  (55) 
4450

$$$$
ACET-pdb2a8e-A-GLU-112:PRPA-pdb2a8e-A-ILE-109
     RDKit          3D

 18 16  0  0  0  0  0  0  0  0999 V2000
    0.0009    1.5164    0.0025 C   0  0  0  0  0  0  0  0  0  0  0  0
    0.9358    1.8141   -0.0375 H   0  0  0  0  0  0  0  0  0  0  0  0
   -0.4515    1.8122    0.8223 H   0  0  0  0  0  0  0  0  0  0  0  0
   -0.5284    1.9374   -0.8523 H   0  0  0  0  0  0  0  0  0  0  0  0
    0.0000    0.0000    0.0000 C   0  0  0  0  0  0  0  0  0  0  0  0
   -1.1021   -0.5937    0.0000 O   0  0  0  0  0  1  0  0  0  0  0  0
    1.1021   -0.5968   -0.0000 O   0  0  0  0  0  0  0  0  0  0  0  0
   -0.4398   -2.5172   -3.9213 C   0  0  0  0  0  0  0  0  0  0  0  0
   -0.5948   -2.8603   -2.9846 H   0  0  0  0  0  0  0  0  0  0  0  0
   -0.4266   -3.3896   -4.5746 H   0  0  0  0  0  0  0  0  0  0  0  0
   -1.2720   -1.8484   -4.1410 H   0  0  0  0  0  0  0  0  0  0  0  0
    0.9248   -1.7889   -4.0304 C   0  0  0  0  0  0  0  0  0  0  0  0
    1.6393   -2.4582   -3.8509 H   0  0  0  0  0  0  0  0  0  0  0  0
    1.0561   -1.3936   -5.0376 H   0  0  0  0  0  0  0  0  0  0  0  0
    1.0356   -0.6789   -2.9857 C   0  0  0  0  0  0  0  0  0  0  0  0
    0.4080    0.0533   -3.2316 H   0  0  0  0  0  0  0  0  0  0  0  0
    0.7715   -1.0518   -2.1006 H   0  0  0  0  0  0  0  0  0  0  0  0
    2.0414   -0.2669   -2.9024 H   0  0  0  0  0  0  0  0  0  0  0  0
  1  5  1  0
  5  6  1  0
  5  7  2  0
  1  2  1  0
  1  3  1  0
  1  4  1  0
  8 12  1  0
 12 15  1  0
  8  9  1  0
  8 10  1  0
  8 11  1  0
 12 13  1  0
 12 14  1  0
 15 16  1  0
 15 17  1  0
 15 18  1  0
M  CHG  1   6  -1
M  END
>  <PDB_ID>  (56) 
pdb2a8e

>  <RESIDUE_NAME>  (56) 
GLU   ILE

>  <FRAG_NAME>  (56) 
ACET   PRPA

>  <FRAG_ATOM_NUM>  (56) 
fragi: 7  fragj: 11

>  <atom.prop.CHAIN_ID>  (56) 
A A A A A A A Z Z Z Z Z Z Z Z Z Z Z

>  <atom.prop.IS_HEAVY_ATOM>  (56) 
1 0 0 0 1 1 1 1 0 0 0 1 0 0 1 0 0 0

>  <DIFUSE_FUNC_ATOM>  (56) 
atom 6   atom 7   

>  <FINAL_SINGLE_POINT_ENERGY>  (56) 
0

>  <NONCOV_INTER_ENERGY_QM>  (56) 
0

>  <FF_Energy>  (56) 
4.41

>  <QM_Energy>  (56) 
-2.47

>  <Index>  (56) 
4453

$$$$
ACET-pdb2a1k-A-GLU-30:PRPA-pdb2a1k-A-ARG-138
     RDKit          3D

 18 16  0  0  0  0  0  0  0  0999 V2000
    0.0160    1.5239    0.0254 C   0  0  0  0  0  0  0  0  0  0  0  0
    0.8467    1.8193   -0.4179 H   0  0  0  0  0  0  0  0  0  0  0  0
   -0.0105    1.8050    0.9712 H   0  0  0  0  0  0  0  0  0  0  0  0
   -0.8245    1.9894   -0.4894 H   0  0  0  0  0  0  0  0  0  0  0  0
    0.0000    0.0000    0.0000 C   0  0  0  0  0  0  0  0  0  0  0  0
   -1.0921   -0.6044    0.0000 O   0  0  0  0  0  1  0  0  0  0  0  0
    1.0921   -0.5981   -0.0000 O   0  0  0  0  0  0  0  0  0  0  0  0
    3.4272   -1.2530    3.7099 C   0  0  0  0  0  0  0  0  0  0  0  0
    3.5429   -1.9521    4.4125 H   0  0  0  0  0  0  0  0  0  0  0  0
    2.4910   -0.9078    3.7300 H   0  0  0  0  0  0  0  0  0  0  0  0
    4.0964   -0.4252    3.9450 H   0  0  0  0  0  0  0  0  0  0  0  0
    3.6593   -1.9086    2.3497 C   0  0  0  0  0  0  0  0  0  0  0  0
    4.1262   -1.2708    1.7475 H   0  0  0  0  0  0  0  0  0  0  0  0
    4.1978   -2.7350    2.4662 H   0  0  0  0  0  0  0  0  0  0  0  0
    2.3321   -2.3011    1.6848 C   0  0  0  0  0  0  0  0  0  0  0  0
    1.7152   -1.5245    1.7619 H   0  0  0  0  0  0  0  0  0  0  0  0
    2.5218   -2.4968    0.7275 H   0  0  0  0  0  0  0  0  0  0  0  0
    1.8838   -3.1751    2.1574 H   0  0  0  0  0  0  0  0  0  0  0  0
  1  5  1  0
  5  6  1  0
  5  7  2  0
  1  2  1  0
  1  3  1  0
  1  4  1  0
  8 12  1  0
 12 15  1  0
  8  9  1  0
  8 10  1  0
  8 11  1  0
 12 13  1  0
 12 14  1  0
 15 16  1  0
 15 17  1  0
 15 18  1  0
M  CHG  1   6  -1
M  END
>  <PDB_ID>  (57) 
pdb2a1k

>  <RESIDUE_NAME>  (57) 
GLU   ARG

>  <FRAG_NAME>  (57) 
ACET   PRPA

>  <FRAG_ATOM_NUM>  (57) 
fragi: 7  fragj: 11

>  <atom.prop.CHAIN_ID>  (57) 
A A A A A A A Z Z Z Z Z Z Z Z Z Z Z

>  <atom.prop.IS_HEAVY_ATOM>  (57) 
1 0 0 0 1 1 1 1 0 0 0 1 0 0 1 0 0 0

>  <DIFUSE_FUNC_ATOM>  (57) 
atom 6   atom 7   

>  <FINAL_SINGLE_POINT_ENERGY>  (57) 
0

>  <NONCOV_INTER_ENERGY_QM>  (57) 
0

>  <FF_Energy>  (57) 
3.76

>  <QM_Energy>  (57) 
0.5

>  <Index>  (57) 
4479

$$$$
ACET-pdb1a45-A-GLU-96:PRPA-pdb1a45-A-ARG-153
     RDKit          3D

 18 16  0  0  0  0  0  0  0  0999 V2000
    0.0083    1.5287    0.0002 C   0  0  0  0  0  0  0  0  0  0  0  0
    0.8759    1.8220   -0.3645 H   0  0  0  0  0  0  0  0  0  0  0  0
   -0.1163    1.8265    0.9319 H   0  0  0  0  0  0  0  0  0  0  0  0
   -0.7777    1.9817   -0.6040 H   0  0  0  0  0  0  0  0  0  0  0  0
    0.0000    0.0000    0.0000 C   0  0  0  0  0  0  0  0  0  0  0  0
   -1.1037   -0.5994    0.0000 O   0  0  0  0  0  1  0  0  0  0  0  0
    1.1037   -0.6007   -0.0000 O   0  0  0  0  0  0  0  0  0  0  0  0
    2.2574   -1.4166   -3.5856 C   0  0  0  0  0  0  0  0  0  0  0  0
    2.7858   -1.8501   -4.3160 H   0  0  0  0  0  0  0  0  0  0  0  0
    2.2830   -1.9929   -2.7687 H   0  0  0  0  0  0  0  0  0  0  0  0
    2.7430   -0.4720   -3.3406 H   0  0  0  0  0  0  0  0  0  0  0  0
    0.8262   -1.2939   -4.0388 C   0  0  0  0  0  0  0  0  0  0  0  0
    0.6893   -0.4074   -4.4684 H   0  0  0  0  0  0  0  0  0  0  0  0
    0.6181   -2.0250   -4.6797 H   0  0  0  0  0  0  0  0  0  0  0  0
   -0.0854   -1.4080   -2.8664 C   0  0  0  0  0  0  0  0  0  0  0  0
   -0.1251   -2.3730   -2.5801 H   0  0  0  0  0  0  0  0  0  0  0  0
    0.2978   -0.8686   -2.1060 H   0  0  0  0  0  0  0  0  0  0  0  0
   -1.1008   -1.0616   -3.0590 H   0  0  0  0  0  0  0  0  0  0  0  0
  1  5  1  0
  5  6  1  0
  5  7  2  0
  1  2  1  0
  1  3  1  0
  1  4  1  0
  8 12  1  0
 12 15  1  0
  8  9  1  0
  8 10  1  0
  8 11  1  0
 12 13  1  0
 12 14  1  0
 15 16  1  0
 15 17  1  0
 15 18  1  0
M  CHG  1   6  -1
M  END
>  <PDB_ID>  (58) 
pdb1a45

>  <RESIDUE_NAME>  (58) 
GLU   ARG

>  <FRAG_NAME>  (58) 
ACET   PRPA

>  <FRAG_ATOM_NUM>  (58) 
fragi: 7  fragj: 11

>  <atom.prop.CHAIN_ID>  (58) 
A A A A A A A Z Z Z Z Z Z Z Z Z Z Z

>  <atom.prop.IS_HEAVY_ATOM>  (58) 
1 0 0 0 1 1 1 1 0 0 0 1 0 0 1 0 0 0

>  <DIFUSE_FUNC_ATOM>  (58) 
atom 6   atom 7   

>  <FINAL_SINGLE_POINT_ENERGY>  (58) 
0

>  <NONCOV_INTER_ENERGY_QM>  (58) 
0

>  <FF_Energy>  (58) 
29.06

>  <QM_Energy>  (58) 
-1.76

>  <Index>  (58) 
4576

$$$$
ACET-pdb2a3q-B-ASP-98:PRPA-pdb2a3q-B-GLH-63
     RDKit          3D

 18 16  0  0  0  0  0  0  0  0999 V2000
    0.0162    1.5068    0.0240 C   0  0  0  0  0  0  0  0  0  0  0  0
    0.9477    1.8180   -0.1255 H   0  0  0  0  0  0  0  0  0  0  0  0
   -0.3167    1.8162    0.9064 H   0  0  0  0  0  0  0  0  0  0  0  0
   -0.6182    1.9337   -0.7527 H   0  0  0  0  0  0  0  0  0  0  0  0
    0.0000    0.0000    0.0000 C   0  0  0  0  0  0  0  0  0  0  0  0
   -1.1318   -0.6045   -0.0000 O   0  0  0  0  0  1  0  0  0  0  0  0
    1.1318   -0.5703    0.0000 O   0  0  0  0  0  0  0  0  0  0  0  0
    2.1054    5.0772    3.7398 C   0  0  0  0  0  0  0  0  0  0  0  0
    2.6415    4.2133    3.7815 H   0  0  0  0  0  0  0  0  0  0  0  0
    1.7810    5.3454    4.7452 H   0  0  0  0  0  0  0  0  0  0  0  0
    2.7022    5.8526    3.2595 H   0  0  0  0  0  0  0  0  0  0  0  0
    0.9059    4.6253    2.9093 C   0  0  0  0  0  0  0  0  0  0  0  0
    0.2166    4.3524    3.5377 H   0  0  0  0  0  0  0  0  0  0  0  0
    0.6572    5.3748    2.3436 H   0  0  0  0  0  0  0  0  0  0  0  0
    1.3022    3.5004    2.0936 C   0  0  0  0  0  0  0  0  0  0  0  0
    0.5469    3.2371    1.5008 H   0  0  0  0  0  0  0  0  0  0  0  0
    2.0962    3.7480    1.5448 H   0  0  0  0  0  0  0  0  0  0  0  0
    1.5755    2.6224    2.6788 H   0  0  0  0  0  0  0  0  0  0  0  0
  1  5  1  0
  5  6  1  0
  5  7  2  0
  1  2  1  0
  1  3  1  0
  1  4  1  0
  8 12  1  0
 12 15  1  0
  8  9  1  0
  8 10  1  0
  8 11  1  0
 12 13  1  0
 12 14  1  0
 15 16  1  0
 15 17  1  0
 15 18  1  0
M  CHG  1   6  -1
M  END
>  <PDB_ID>  (59) 
pdb2a3q

>  <RESIDUE_NAME>  (59) 
ASP   GLH

>  <FRAG_NAME>  (59) 
ACET   PRPA

>  <FRAG_ATOM_NUM>  (59) 
fragi: 7  fragj: 11

>  <atom.prop.CHAIN_ID>  (59) 
A A A A A A A Z Z Z Z Z Z Z Z Z Z Z

>  <atom.prop.IS_HEAVY_ATOM>  (59) 
1 0 0 0 1 1 1 1 0 0 0 1 0 0 1 0 0 0

>  <DIFUSE_FUNC_ATOM>  (59) 
atom 6   atom 7   

>  <FINAL_SINGLE_POINT_ENERGY>  (59) 
0

>  <NONCOV_INTER_ENERGY_QM>  (59) 
0

>  <FF_Energy>  (59) 
9.86

>  <QM_Energy>  (59) 
2.34

>  <Index>  (59) 
4762

$$$$
ACET-pdb2a83-A-GLU-154:PRPA-pdb2a83-A-ARG-151
     RDKit          3D

 18 16  0  0  0  0  0  0  0  0999 V2000
    0.0060    1.5043   -0.0127 C   0  0  0  0  0  0  0  0  0  0  0  0
   -0.4282    1.7982   -0.8425 H   0  0  0  0  0  0  0  0  0  0  0  0
    0.9411    1.8000    0.0462 H   0  0  0  0  0  0  0  0  0  0  0  0
   -0.5441    1.9201    0.8315 H   0  0  0  0  0  0  0  0  0  0  0  0
    0.0000    0.0000    0.0000 C   0  0  0  0  0  0  0  0  0  0  0  0
   -1.0949   -0.6066   -0.0000 O   0  0  0  0  0  1  0  0  0  0  0  0
    1.0949   -0.5597   -0.0000 O   0  0  0  0  0  0  0  0  0  0  0  0
    1.6193   -1.5144    3.3983 C   0  0  0  0  0  0  0  0  0  0  0  0
    1.1229   -1.9902    4.1091 H   0  0  0  0  0  0  0  0  0  0  0  0
    1.0152   -0.9519    2.8536 H   0  0  0  0  0  0  0  0  0  0  0  0
    2.3683   -0.8739    3.8640 H   0  0  0  0  0  0  0  0  0  0  0  0
    2.2303   -2.5831    2.4614 C   0  0  0  0  0  0  0  0  0  0  0  0
    2.8708   -2.1375    1.8452 H   0  0  0  0  0  0  0  0  0  0  0  0
    2.6989   -3.2624    3.0162 H   0  0  0  0  0  0  0  0  0  0  0  0
    1.1632   -3.2740    1.6430 C   0  0  0  0  0  0  0  0  0  0  0  0
    0.5143   -3.7115    2.2801 H   0  0  0  0  0  0  0  0  0  0  0  0
    0.6647   -2.5684    1.1226 H   0  0  0  0  0  0  0  0  0  0  0  0
    1.5375   -4.0266    0.9488 H   0  0  0  0  0  0  0  0  0  0  0  0
  1  5  1  0
  5  6  1  0
  5  7  2  0
  1  2  1  0
  1  3  1  0
  1  4  1  0
  8 12  1  0
 12 15  1  0
  8  9  1  0
  8 10  1  0
  8 11  1  0
 12 13  1  0
 12 14  1  0
 15 16  1  0
 15 17  1  0
 15 18  1  0
M  CHG  1   6  -1
M  END
>  <PDB_ID>  (60) 
pdb2a83

>  <RESIDUE_NAME>  (60) 
GLU   ARG

>  <FRAG_NAME>  (60) 
ACET   PRPA

>  <FRAG_ATOM_NUM>  (60) 
fragi: 7  fragj: 11

>  <atom.prop.CHAIN_ID>  (60) 
A A A A A A A Z Z Z Z Z Z Z Z Z Z Z

>  <atom.prop.IS_HEAVY_ATOM>  (60) 
1 0 0 0 1 1 1 1 0 0 0 1 0 0 1 0 0 0

>  <DIFUSE_FUNC_ATOM>  (60) 
atom 6   atom 7   

>  <FINAL_SINGLE_POINT_ENERGY>  (60) 
0

>  <NONCOV_INTER_ENERGY_QM>  (60) 
0

>  <FF_Energy>  (60) 
0.43

>  <QM_Energy>  (60) 
-5.28

>  <Index>  (60) 
4777

$$$$
ACET-pdb1a3c-A-GLU-160:PRPA-pdb1a3c-A-ILE-177
     RDKit          3D

 18 16  0  0  0  0  0  0  0  0999 V2000
    0.0186    1.5253   -0.0040 C   0  0  0  0  0  0  0  0  0  0  0  0
    0.8625    1.8126   -0.4155 H   0  0  0  0  0  0  0  0  0  0  0  0
   -0.0668    1.8275    0.9270 H   0  0  0  0  0  0  0  0  0  0  0  0
   -0.7984    1.9651   -0.5760 H   0  0  0  0  0  0  0  0  0  0  0  0
    0.0000    0.0000    0.0000 C   0  0  0  0  0  0  0  0  0  0  0  0
   -1.0891   -0.6133   -0.0000 O   0  0  0  0  0  1  0  0  0  0  0  0
    1.0891   -0.6154    0.0000 O   0  0  0  0  0  0  0  0  0  0  0  0
    0.0302   -0.4998   -5.4160 C   0  0  0  0  0  0  0  0  0  0  0  0
   -0.7604   -1.0314   -5.6893 H   0  0  0  0  0  0  0  0  0  0  0  0
    0.1796    0.2887   -6.1537 H   0  0  0  0  0  0  0  0  0  0  0  0
    0.8727   -1.1907   -5.3859 H   0  0  0  0  0  0  0  0  0  0  0  0
   -0.2678    0.1244   -4.0498 C   0  0  0  0  0  0  0  0  0  0  0  0
    0.5691    0.5670   -3.7232 H   0  0  0  0  0  0  0  0  0  0  0  0
   -0.9633    0.8339   -4.1839 H   0  0  0  0  0  0  0  0  0  0  0  0
   -0.7467   -0.8508   -3.0351 C   0  0  0  0  0  0  0  0  0  0  0  0
   -0.0535   -1.5613   -2.8860 H   0  0  0  0  0  0  0  0  0  0  0  0
   -0.9237   -0.3834   -2.1649 H   0  0  0  0  0  0  0  0  0  0  0  0
   -1.5946   -1.2855   -3.3484 H   0  0  0  0  0  0  0  0  0  0  0  0
  1  5  1  0
  5  6  1  0
  5  7  2  0
  1  2  1  0
  1  3  1  0
  1  4  1  0
  8 12  1  0
 12 15  1  0
  8  9  1  0
  8 10  1  0
  8 11  1  0
 12 13  1  0
 12 14  1  0
 15 16  1  0
 15 17  1  0
 15 18  1  0
M  CHG  1   6  -1
M  END
>  <PDB_ID>  (61) 
pdb1a3c

>  <RESIDUE_NAME>  (61) 
GLU   ILE

>  <FRAG_NAME>  (61) 
ACET   PRPA

>  <FRAG_ATOM_NUM>  (61) 
fragi: 7  fragj: 11

>  <atom.prop.CHAIN_ID>  (61) 
A A A A A A A Z Z Z Z Z Z Z Z Z Z Z

>  <atom.prop.IS_HEAVY_ATOM>  (61) 
1 0 0 0 1 1 1 1 0 0 0 1 0 0 1 0 0 0

>  <DIFUSE_FUNC_ATOM>  (61) 
atom 6   atom 7   

>  <FINAL_SINGLE_POINT_ENERGY>  (61) 
0

>  <NONCOV_INTER_ENERGY_QM>  (61) 
0

>  <FF_Energy>  (61) 
7.22

>  <QM_Energy>  (61) 
-2.07

>  <Index>  (61) 
4838

$$$$
ACET-pdb2a2u-A-GLU-60:PRPA-pdb2a2u-A-ARG-65
     RDKit          3D

 18 16  0  0  0  0  0  0  0  0999 V2000
   -0.0032    1.5189    0.0191 C   0  0  0  0  0  0  0  0  0  0  0  0
    0.6484    1.8269   -0.6446 H   0  0  0  0  0  0  0  0  0  0  0  0
    0.2160    1.8060    0.9291 H   0  0  0  0  0  0  0  0  0  0  0  0
   -0.9768    1.9327   -0.2434 H   0  0  0  0  0  0  0  0  0  0  0  0
    0.0000    0.0000    0.0000 C   0  0  0  0  0  0  0  0  0  0  0  0
   -1.0906   -0.6057   -0.0000 O   0  0  0  0  0  1  0  0  0  0  0  0
    1.0906   -0.6001    0.0000 O   0  0  0  0  0  0  0  0  0  0  0  0
   -0.6050   -1.2756    3.0860 C   0  0  0  0  0  0  0  0  0  0  0  0
   -1.5259   -1.2504    2.6829 H   0  0  0  0  0  0  0  0  0  0  0  0
   -0.0961   -0.4686    2.7703 H   0  0  0  0  0  0  0  0  0  0  0  0
   -0.7131   -1.1993    4.1680 H   0  0  0  0  0  0  0  0  0  0  0  0
    0.1055   -2.5147    2.5558 C   0  0  0  0  0  0  0  0  0  0  0  0
    1.0096   -2.2642    2.2214 H   0  0  0  0  0  0  0  0  0  0  0  0
    0.1850   -3.1906    3.2832 H   0  0  0  0  0  0  0  0  0  0  0  0
   -0.6622   -3.1619    1.3962 C   0  0  0  0  0  0  0  0  0  0  0  0
   -1.5799   -3.3743    1.7202 H   0  0  0  0  0  0  0  0  0  0  0  0
   -0.7071   -2.4977    0.6546 H   0  0  0  0  0  0  0  0  0  0  0  0
   -0.1832   -4.0735    1.0389 H   0  0  0  0  0  0  0  0  0  0  0  0
  1  5  1  0
  5  6  1  0
  5  7  2  0
  1  2  1  0
  1  3  1  0
  1  4  1  0
  8 12  1  0
 12 15  1  0
  8  9  1  0
  8 10  1  0
  8 11  1  0
 12 13  1  0
 12 14  1  0
 15 16  1  0
 15 17  1  0
 15 18  1  0
M  CHG  1   6  -1
M  END
>  <PDB_ID>  (62) 
pdb2a2u

>  <RESIDUE_NAME>  (62) 
GLU   ARG

>  <FRAG_NAME>  (62) 
ACET   PRPA

>  <FRAG_ATOM_NUM>  (62) 
fragi: 7  fragj: 11

>  <atom.prop.CHAIN_ID>  (62) 
A A A A A A A Z Z Z Z Z Z Z Z Z Z Z

>  <atom.prop.IS_HEAVY_ATOM>  (62) 
1 0 0 0 1 1 1 1 0 0 0 1 0 0 1 0 0 0

>  <DIFUSE_FUNC_ATOM>  (62) 
atom 6   atom 7   

>  <FINAL_SINGLE_POINT_ENERGY>  (62) 
0

>  <NONCOV_INTER_ENERGY_QM>  (62) 
0

>  <FF_Energy>  (62) 
10.13

>  <QM_Energy>  (62) 
-4.83

>  <Index>  (62) 
5112

$$$$
ACET-pdb13pk-A-ASP-418:PRPA-pdb13pk-A-LYS-6
     RDKit          3D

 18 16  0  0  0  0  0  0  0  0999 V2000
    0.0410    1.5364    0.0014 C   0  0  0  0  0  0  0  0  0  0  0  0
    0.8253    1.8298   -0.5347 H   0  0  0  0  0  0  0  0  0  0  0  0
    0.1294    1.8476    0.9409 H   0  0  0  0  0  0  0  0  0  0  0  0
   -0.8488    2.0002   -0.4243 H   0  0  0  0  0  0  0  0  0  0  0  0
    0.0000    0.0000    0.0000 C   0  0  0  0  0  0  0  0  0  0  0  0
   -1.0976   -0.6043   -0.0000 O   0  0  0  0  0  1  0  0  0  0  0  0
    1.0976   -0.6047    0.0000 O   0  0  0  0  0  0  0  0  0  0  0  0
   -0.1984    5.3784    1.9831 C   0  0  0  0  0  0  0  0  0  0  0  0
    0.7955    5.3951    1.8524 H   0  0  0  0  0  0  0  0  0  0  0  0
   -0.4212    5.7985    2.8651 H   0  0  0  0  0  0  0  0  0  0  0  0
   -0.6687    5.9558    1.1872 H   0  0  0  0  0  0  0  0  0  0  0  0
   -0.6758    3.9589    1.9746 C   0  0  0  0  0  0  0  0  0  0  0  0
   -1.6206    3.9288    2.2991 H   0  0  0  0  0  0  0  0  0  0  0  0
   -0.6296    3.6020    1.0424 H   0  0  0  0  0  0  0  0  0  0  0  0
    0.1658    3.0900    2.8637 C   0  0  0  0  0  0  0  0  0  0  0  0
    1.1281    3.1342    2.5662 H   0  0  0  0  0  0  0  0  0  0  0  0
    0.1162    3.4280    3.8126 H   0  0  0  0  0  0  0  0  0  0  0  0
   -0.1471    2.0459    2.8568 H   0  0  0  0  0  0  0  0  0  0  0  0
  1  5  1  0
  5  6  1  0
  5  7  2  0
  1  2  1  0
  1  3  1  0
  1  4  1  0
  8 12  1  0
 12 15  1  0
  8  9  1  0
  8 10  1  0
  8 11  1  0
 12 13  1  0
 12 14  1  0
 15 16  1  0
 15 17  1  0
 15 18  1  0
M  CHG  1   6  -1
M  END
>  <PDB_ID>  (63) 
pdb13pk

>  <RESIDUE_NAME>  (63) 
ASP   LYS

>  <FRAG_NAME>  (63) 
ACET   PRPA

>  <FRAG_ATOM_NUM>  (63) 
fragi: 7  fragj: 11

>  <atom.prop.CHAIN_ID>  (63) 
A A A A A A A Z Z Z Z Z Z Z Z Z Z Z

>  <atom.prop.IS_HEAVY_ATOM>  (63) 
1 0 0 0 1 1 1 1 0 0 0 1 0 0 1 0 0 0

>  <DIFUSE_FUNC_ATOM>  (63) 
atom 6   atom 7   

>  <FINAL_SINGLE_POINT_ENERGY>  (63) 
0

>  <NONCOV_INTER_ENERGY_QM>  (63) 
0

>  <FF_Energy>  (63) 
10.66

>  <QM_Energy>  (63) 
2.2

>  <Index>  (63) 
5146

$$$$
ACET-pdb1a68-A-GLU-66:PRPA-pdb1a68-A-LYS-82
     RDKit          3D

 18 16  0  0  0  0  0  0  0  0999 V2000
    0.0011    1.5233   -0.0088 C   0  0  0  0  0  0  0  0  0  0  0  0
   -0.5494    1.8175   -0.7690 H   0  0  0  0  0  0  0  0  0  0  0  0
    0.9354    1.8197   -0.0892 H   0  0  0  0  0  0  0  0  0  0  0  0
   -0.4158    1.9621    0.8977 H   0  0  0  0  0  0  0  0  0  0  0  0
    0.0000    0.0000    0.0000 C   0  0  0  0  0  0  0  0  0  0  0  0
   -1.1027   -0.5937   -0.0000 O   0  0  0  0  0  1  0  0  0  0  0  0
    1.1027   -0.5954   -0.0000 O   0  0  0  0  0  0  0  0  0  0  0  0
    1.2046   -3.3826   -1.2008 C   0  0  0  0  0  0  0  0  0  0  0  0
    1.2759   -2.7309   -0.4347 H   0  0  0  0  0  0  0  0  0  0  0  0
    0.8569   -2.8839   -2.0052 H   0  0  0  0  0  0  0  0  0  0  0  0
    2.1983   -3.7689   -1.4275 H   0  0  0  0  0  0  0  0  0  0  0  0
    0.1952   -4.4660   -0.8254 C   0  0  0  0  0  0  0  0  0  0  0  0
    0.1043   -5.0959   -1.5849 H   0  0  0  0  0  0  0  0  0  0  0  0
    0.5133   -4.9334   -0.0121 H   0  0  0  0  0  0  0  0  0  0  0  0
   -1.1759   -3.8566   -0.5316 C   0  0  0  0  0  0  0  0  0  0  0  0
   -1.8318   -4.5988   -0.3693 H   0  0  0  0  0  0  0  0  0  0  0  0
   -1.1092   -3.2956    0.2977 H   0  0  0  0  0  0  0  0  0  0  0  0
   -1.5358   -3.2364   -1.3524 H   0  0  0  0  0  0  0  0  0  0  0  0
  1  5  1  0
  5  6  1  0
  5  7  2  0
  1  2  1  0
  1  3  1  0
  1  4  1  0
  8 12  1  0
 12 15  1  0
  8  9  1  0
  8 10  1  0
  8 11  1  0
 12 13  1  0
 12 14  1  0
 15 16  1  0
 15 17  1  0
 15 18  1  0
M  CHG  1   6  -1
M  END
>  <PDB_ID>  (64) 
pdb1a68

>  <RESIDUE_NAME>  (64) 
GLU   LYS

>  <FRAG_NAME>  (64) 
ACET   PRPA

>  <FRAG_ATOM_NUM>  (64) 
fragi: 7  fragj: 11

>  <atom.prop.CHAIN_ID>  (64) 
A A A A A A A Z Z Z Z Z Z Z Z Z Z Z

>  <atom.prop.IS_HEAVY_ATOM>  (64) 
1 0 0 0 1 1 1 1 0 0 0 1 0 0 1 0 0 0

>  <DIFUSE_FUNC_ATOM>  (64) 
atom 6   atom 7   

>  <FINAL_SINGLE_POINT_ENERGY>  (64) 
0

>  <NONCOV_INTER_ENERGY_QM>  (64) 
0

>  <FF_Energy>  (64) 
2.27

>  <QM_Energy>  (64) 
-2.86

>  <Index>  (64) 
5226

$$$$
ACET-pdb1a2o-A-GLU-169:PRPA-pdb1a2o-A-GLH-98
     RDKit          3D

 18 16  0  0  0  0  0  0  0  0999 V2000
   -0.0173    1.5206   -0.0051 C   0  0  0  0  0  0  0  0  0  0  0  0
    0.0061    1.8093   -0.9363 H   0  0  0  0  0  0  0  0  0  0  0  0
    0.7491    1.8223    0.5179 H   0  0  0  0  0  0  0  0  0  0  0  0
   -0.9304    1.8962    0.4567 H   0  0  0  0  0  0  0  0  0  0  0  0
    0.0000    0.0000    0.0000 C   0  0  0  0  0  0  0  0  0  0  0  0
   -1.0819   -0.6160    0.0000 O   0  0  0  0  0  1  0  0  0  0  0  0
    1.0819   -0.6021    0.0000 O   0  0  0  0  0  0  0  0  0  0  0  0
   -2.5511   -2.9584   -1.6731 C   0  0  0  0  0  0  0  0  0  0  0  0
   -2.2002   -2.1866   -1.1486 H   0  0  0  0  0  0  0  0  0  0  0  0
   -3.6252   -2.8451   -1.8208 H   0  0  0  0  0  0  0  0  0  0  0  0
   -2.0655   -2.9905   -2.6484 H   0  0  0  0  0  0  0  0  0  0  0  0
   -2.1614   -4.1409   -0.7984 C   0  0  0  0  0  0  0  0  0  0  0  0
   -2.1085   -4.9563   -1.4065 H   0  0  0  0  0  0  0  0  0  0  0  0
   -1.2150   -3.9657   -0.4650 H   0  0  0  0  0  0  0  0  0  0  0  0
   -2.9850   -4.5417    0.4036 C   0  0  0  0  0  0  0  0  0  0  0  0
   -3.9632   -4.4663    0.1472 H   0  0  0  0  0  0  0  0  0  0  0  0
   -2.7991   -5.5198    0.5959 H   0  0  0  0  0  0  0  0  0  0  0  0
   -2.8615   -4.0053    1.3444 H   0  0  0  0  0  0  0  0  0  0  0  0
  1  5  1  0
  5  6  1  0
  5  7  2  0
  1  2  1  0
  1  3  1  0
  1  4  1  0
  8 12  1  0
 12 15  1  0
  8  9  1  0
  8 10  1  0
  8 11  1  0
 12 13  1  0
 12 14  1  0
 15 16  1  0
 15 17  1  0
 15 18  1  0
M  CHG  1   6  -1
M  END
>  <PDB_ID>  (65) 
pdb1a2o

>  <RESIDUE_NAME>  (65) 
GLU   GLH

>  <FRAG_NAME>  (65) 
ACET   PRPA

>  <FRAG_ATOM_NUM>  (65) 
fragi: 7  fragj: 11

>  <atom.prop.CHAIN_ID>  (65) 
A A A A A A A Z Z Z Z Z Z Z Z Z Z Z

>  <atom.prop.IS_HEAVY_ATOM>  (65) 
1 0 0 0 1 1 1 1 0 0 0 1 0 0 1 0 0 0

>  <DIFUSE_FUNC_ATOM>  (65) 
atom 6   atom 7   

>  <FINAL_SINGLE_POINT_ENERGY>  (65) 
0

>  <NONCOV_INTER_ENERGY_QM>  (65) 
0

>  <FF_Energy>  (65) 
1.53

>  <QM_Energy>  (65) 
-4.11

>  <Index>  (65) 
5326

$$$$
ACET-pdb11as-C-GLU-148:PRPA-pdb11as-C-LEU-161
     RDKit          3D

 18 16  0  0  0  0  0  0  0  0999 V2000
   -0.0013    1.5023    0.0642 C   0  0  0  0  0  0  0  0  0  0  0  0
    0.9199    1.8100   -0.0986 H   0  0  0  0  0  0  0  0  0  0  0  0
   -0.3242    1.7630    0.9575 H   0  0  0  0  0  0  0  0  0  0  0  0
   -0.6529    1.9517   -0.6852 H   0  0  0  0  0  0  0  0  0  0  0  0
    0.0000    0.0000    0.0000 C   0  0  0  0  0  0  0  0  0  0  0  0
   -1.0948   -0.5889   -0.0000 O   0  0  0  0  0  1  0  0  0  0  0  0
    1.0948   -0.5933    0.0000 O   0  0  0  0  0  0  0  0  0  0  0  0
    0.1865   -4.4186    0.0543 C   0  0  0  0  0  0  0  0  0  0  0  0
   -0.2373   -5.2008    0.5224 H   0  0  0  0  0  0  0  0  0  0  0  0
    0.7880   -3.8626    0.7736 H   0  0  0  0  0  0  0  0  0  0  0  0
    0.8105   -4.8010   -0.7535 H   0  0  0  0  0  0  0  0  0  0  0  0
   -0.9159   -3.5424   -0.5226 C   0  0  0  0  0  0  0  0  0  0  0  0
   -0.5682   -2.6043   -0.5782 H   0  0  0  0  0  0  0  0  0  0  0  0
   -1.1223   -3.8724   -1.4455 H   0  0  0  0  0  0  0  0  0  0  0  0
   -2.2408   -3.4857    0.2424 C   0  0  0  0  0  0  0  0  0  0  0  0
   -2.0665   -3.1549    1.1663 H   0  0  0  0  0  0  0  0  0  0  0  0
   -2.9314   -2.8109   -0.2634 H   0  0  0  0  0  0  0  0  0  0  0  0
   -2.6875   -4.4767    0.3222 H   0  0  0  0  0  0  0  0  0  0  0  0
  1  5  1  0
  5  6  1  0
  5  7  2  0
  1  2  1  0
  1  3  1  0
  1  4  1  0
  8 12  1  0
 12 15  1  0
  8  9  1  0
  8 10  1  0
  8 11  1  0
 12 13  1  0
 12 14  1  0
 15 16  1  0
 15 17  1  0
 15 18  1  0
M  CHG  1   6  -1
M  END
>  <PDB_ID>  (66) 
pdb11as

>  <RESIDUE_NAME>  (66) 
GLU   LEU

>  <FRAG_NAME>  (66) 
ACET   PRPA

>  <FRAG_ATOM_NUM>  (66) 
fragi: 7  fragj: 11

>  <atom.prop.CHAIN_ID>  (66) 
A A A A A A A Z Z Z Z Z Z Z Z Z Z Z

>  <atom.prop.IS_HEAVY_ATOM>  (66) 
1 0 0 0 1 1 1 1 0 0 0 1 0 0 1 0 0 0

>  <DIFUSE_FUNC_ATOM>  (66) 
atom 6   atom 7   

>  <FINAL_SINGLE_POINT_ENERGY>  (66) 
0

>  <NONCOV_INTER_ENERGY_QM>  (66) 
0

>  <FF_Energy>  (66) 
4.28

>  <QM_Energy>  (66) 
-4.57

>  <Index>  (66) 
5807

$$$$
ACET-pdb11as-C-GLU-148:PRPA-pdb11as-C-LEU-161
     RDKit          3D

 18 16  0  0  0  0  0  0  0  0999 V2000
   -0.0013    1.5023    0.0642 C   0  0  0  0  0  0  0  0  0  0  0  0
    0.9199    1.8100   -0.0986 H   0  0  0  0  0  0  0  0  0  0  0  0
   -0.3242    1.7630    0.9575 H   0  0  0  0  0  0  0  0  0  0  0  0
   -0.6529    1.9517   -0.6852 H   0  0  0  0  0  0  0  0  0  0  0  0
    0.0000    0.0000    0.0000 C   0  0  0  0  0  0  0  0  0  0  0  0
   -1.0948   -0.5889   -0.0000 O   0  0  0  0  0  1  0  0  0  0  0  0
    1.0948   -0.5933    0.0000 O   0  0  0  0  0  0  0  0  0  0  0  0
   -0.9159   -3.5424   -0.5226 C   0  0  0  0  0  0  0  0  0  0  0  0
   -0.5682   -2.6043   -0.5782 H   0  0  0  0  0  0  0  0  0  0  0  0
   -1.1223   -3.8724   -1.4455 H   0  0  0  0  0  0  0  0  0  0  0  0
   -0.1263   -4.1700   -0.1095 H   0  0  0  0  0  0  0  0  0  0  0  0
   -2.2408   -3.4857    0.2424 C   0  0  0  0  0  0  0  0  0  0  0  0
   -2.0665   -3.1549    1.1663 H   0  0  0  0  0  0  0  0  0  0  0  0
   -2.6875   -4.4767    0.3222 H   0  0  0  0  0  0  0  0  0  0  0  0
   -3.2028   -2.5458   -0.4622 C   0  0  0  0  0  0  0  0  0  0  0  0
   -3.3732   -2.8739   -1.3924 H   0  0  0  0  0  0  0  0  0  0  0  0
   -4.0678   -2.5116    0.0403 H   0  0  0  0  0  0  0  0  0  0  0  0
   -2.8068   -1.6272   -0.5028 H   0  0  0  0  0  0  0  0  0  0  0  0
  1  5  1  0
  5  6  1  0
  5  7  2  0
  1  2  1  0
  1  3  1  0
  1  4  1  0
  8 12  1  0
 12 15  1  0
  8  9  1  0
  8 10  1  0
  8 11  1  0
 12 13  1  0
 12 14  1  0
 15 16  1  0
 15 17  1  0
 15 18  1  0
M  CHG  1   6  -1
M  END
>  <PDB_ID>  (67) 
pdb11as

>  <RESIDUE_NAME>  (67) 
GLU   LEU

>  <FRAG_NAME>  (67) 
ACET   PRPA

>  <FRAG_ATOM_NUM>  (67) 
fragi: 7  fragj: 11

>  <atom.prop.CHAIN_ID>  (67) 
A A A A A A A Z Z Z Z Z Z Z Z Z Z Z

>  <atom.prop.IS_HEAVY_ATOM>  (67) 
1 0 0 0 1 1 1 1 0 0 0 1 0 0 1 0 0 0

>  <DIFUSE_FUNC_ATOM>  (67) 
atom 6   atom 7   

>  <FINAL_SINGLE_POINT_ENERGY>  (67) 
0

>  <NONCOV_INTER_ENERGY_QM>  (67) 
0

>  <FF_Energy>  (67) 
12.5

>  <QM_Energy>  (67) 
-3.96

>  <Index>  (67) 
5820

$$$$
ACET-pdb1a3g-A-GLU-37:PRPA-pdb1a3g-A-ARG-59
     RDKit          3D

 18 16  0  0  0  0  0  0  0  0999 V2000
    0.0642    1.5575    0.0076 C   0  0  0  0  0  0  0  0  0  0  0  0
    0.8406    1.7962   -0.5571 H   0  0  0  0  0  0  0  0  0  0  0  0
    0.2160    1.8138    0.9507 H   0  0  0  0  0  0  0  0  0  0  0  0
   -0.8352    2.0428   -0.3713 H   0  0  0  0  0  0  0  0  0  0  0  0
    0.0000    0.0000    0.0000 C   0  0  0  0  0  0  0  0  0  0  0  0
   -1.0969   -0.6069    0.0000 O   0  0  0  0  0  1  0  0  0  0  0  0
    1.0969   -0.6199    0.0000 O   0  0  0  0  0  0  0  0  0  0  0  0
    3.6525   -1.3898    2.9153 C   0  0  0  0  0  0  0  0  0  0  0  0
    4.4092   -2.0180    3.0600 H   0  0  0  0  0  0  0  0  0  0  0  0
    3.2874   -1.0572    3.8869 H   0  0  0  0  0  0  0  0  0  0  0  0
    4.0023   -0.4938    2.4027 H   0  0  0  0  0  0  0  0  0  0  0  0
    2.6091   -2.1076    2.0732 C   0  0  0  0  0  0  0  0  0  0  0  0
    2.1172   -2.7281    2.6503 H   0  0  0  0  0  0  0  0  0  0  0  0
    2.0297   -1.4366    1.6565 H   0  0  0  0  0  0  0  0  0  0  0  0
    3.2916   -2.8949    0.9882 C   0  0  0  0  0  0  0  0  0  0  0  0
    3.6001   -2.2775    0.2667 H   0  0  0  0  0  0  0  0  0  0  0  0
    4.0729   -3.3855    1.3697 H   0  0  0  0  0  0  0  0  0  0  0  0
    2.6137   -3.6251    0.5463 H   0  0  0  0  0  0  0  0  0  0  0  0
  1  5  1  0
  5  6  1  0
  5  7  2  0
  1  2  1  0
  1  3  1  0
  1  4  1  0
  8 12  1  0
 12 15  1  0
  8  9  1  0
  8 10  1  0
  8 11  1  0
 12 13  1  0
 12 14  1  0
 15 16  1  0
 15 17  1  0
 15 18  1  0
M  CHG  1   6  -1
M  END
>  <PDB_ID>  (68) 
pdb1a3g

>  <RESIDUE_NAME>  (68) 
GLU   ARG

>  <FRAG_NAME>  (68) 
ACET   PRPA

>  <FRAG_ATOM_NUM>  (68) 
fragi: 7  fragj: 11

>  <atom.prop.CHAIN_ID>  (68) 
A A A A A A A Z Z Z Z Z Z Z Z Z Z Z

>  <atom.prop.IS_HEAVY_ATOM>  (68) 
1 0 0 0 1 1 1 1 0 0 0 1 0 0 1 0 0 0

>  <DIFUSE_FUNC_ATOM>  (68) 
atom 6   atom 7   

>  <FINAL_SINGLE_POINT_ENERGY>  (68) 
0

>  <NONCOV_INTER_ENERGY_QM>  (68) 
0

>  <FF_Energy>  (68) 
6.87

>  <QM_Energy>  (68) 
-3.4

>  <Index>  (68) 
5861

$$$$
ACET-pdb2aao-A-GLU-19:PRPA-pdb2aao-A-ARG-15
     RDKit          3D

 18 16  0  0  0  0  0  0  0  0999 V2000
    0.0098    1.5133    0.0094 C   0  0  0  0  0  0  0  0  0  0  0  0
    0.8850    1.8093   -0.3316 H   0  0  0  0  0  0  0  0  0  0  0  0
   -0.1425    1.8073    0.9366 H   0  0  0  0  0  0  0  0  0  0  0  0
   -0.7651    1.9522   -0.6192 H   0  0  0  0  0  0  0  0  0  0  0  0
    0.0000    0.0000    0.0000 C   0  0  0  0  0  0  0  0  0  0  0  0
   -1.0971   -0.5962    0.0000 O   0  0  0  0  0  1  0  0  0  0  0  0
    1.0971   -0.5915   -0.0000 O   0  0  0  0  0  0  0  0  0  0  0  0
    0.5135   -3.0836   -3.7009 C   0  0  0  0  0  0  0  0  0  0  0  0
    0.6772   -4.0623   -3.7033 H   0  0  0  0  0  0  0  0  0  0  0  0
    0.8711   -2.6666   -4.5276 H   0  0  0  0  0  0  0  0  0  0  0  0
   -0.5635   -2.9185   -3.6750 H   0  0  0  0  0  0  0  0  0  0  0  0
    1.2320   -2.4828   -2.5145 C   0  0  0  0  0  0  0  0  0  0  0  0
    2.2231   -2.6357   -2.6065 H   0  0  0  0  0  0  0  0  0  0  0  0
    1.0668   -1.4891   -2.4873 H   0  0  0  0  0  0  0  0  0  0  0  0
    0.7974   -3.0597   -1.1685 C   0  0  0  0  0  0  0  0  0  0  0  0
   -0.0801   -2.6604   -0.9333 H   0  0  0  0  0  0  0  0  0  0  0  0
    0.7197   -4.0446   -1.2685 H   0  0  0  0  0  0  0  0  0  0  0  0
    1.5224   -2.8300   -0.3877 H   0  0  0  0  0  0  0  0  0  0  0  0
  1  5  1  0
  5  6  1  0
  5  7  2  0
  1  2  1  0
  1  3  1  0
  1  4  1  0
  8 12  1  0
 12 15  1  0
  8  9  1  0
  8 10  1  0
  8 11  1  0
 12 13  1  0
 12 14  1  0
 15 16  1  0
 15 17  1  0
 15 18  1  0
M  CHG  1   6  -1
M  END
>  <PDB_ID>  (69) 
pdb2aao

>  <RESIDUE_NAME>  (69) 
GLU   ARG

>  <FRAG_NAME>  (69) 
ACET   PRPA

>  <FRAG_ATOM_NUM>  (69) 
fragi: 7  fragj: 11

>  <atom.prop.CHAIN_ID>  (69) 
A A A A A A A Z Z Z Z Z Z Z Z Z Z Z

>  <atom.prop.IS_HEAVY_ATOM>  (69) 
1 0 0 0 1 1 1 1 0 0 0 1 0 0 1 0 0 0

>  <DIFUSE_FUNC_ATOM>  (69) 
atom 6   atom 7   

>  <FINAL_SINGLE_POINT_ENERGY>  (69) 
0

>  <NONCOV_INTER_ENERGY_QM>  (69) 
0

>  <FF_Energy>  (69) 
4.28

>  <QM_Energy>  (69) 
-1.63

>  <Index>  (69) 
5997

$$$$
ACET-pdb1a62-A-GLU-108:PRPA-pdb1a62-A-LYS-105
     RDKit          3D

 18 16  0  0  0  0  0  0  0  0999 V2000
   -0.0028    1.5120    0.0054 C   0  0  0  0  0  0  0  0  0  0  0  0
   -0.6917    1.8113   -0.6246 H   0  0  0  0  0  0  0  0  0  0  0  0
    0.8965    1.8125   -0.2459 H   0  0  0  0  0  0  0  0  0  0  0  0
   -0.2391    1.9160    0.9897 H   0  0  0  0  0  0  0  0  0  0  0  0
    0.0000    0.0000    0.0000 C   0  0  0  0  0  0  0  0  0  0  0  0
   -1.0954   -0.5974   -0.0000 O   0  0  0  0  0  1  0  0  0  0  0  0
    1.0954   -0.5910    0.0000 O   0  0  0  0  0  0  0  0  0  0  0  0
    3.3725    1.0235    1.7067 C   0  0  0  0  0  0  0  0  0  0  0  0
    4.1044    0.6936    2.3023 H   0  0  0  0  0  0  0  0  0  0  0  0
    2.4272    0.5918    2.0356 H   0  0  0  0  0  0  0  0  0  0  0  0
    3.3144    2.1089    1.7875 H   0  0  0  0  0  0  0  0  0  0  0  0
    3.6673    0.6208    0.2561 C   0  0  0  0  0  0  0  0  0  0  0  0
    2.8020    0.5678   -0.2347 H   0  0  0  0  0  0  0  0  0  0  0  0
    4.2471    1.3218   -0.1501 H   0  0  0  0  0  0  0  0  0  0  0  0
    4.3770   -0.7254    0.1199 C   0  0  0  0  0  0  0  0  0  0  0  0
    5.3167   -0.6308    0.4504 H   0  0  0  0  0  0  0  0  0  0  0  0
    3.8953   -1.4041    0.6747 H   0  0  0  0  0  0  0  0  0  0  0  0
    4.3998   -1.0667   -0.9150 H   0  0  0  0  0  0  0  0  0  0  0  0
  1  5  1  0
  5  6  1  0
  5  7  2  0
  1  2  1  0
  1  3  1  0
  1  4  1  0
  8 12  1  0
 12 15  1  0
  8  9  1  0
  8 10  1  0
  8 11  1  0
 12 13  1  0
 12 14  1  0
 15 16  1  0
 15 17  1  0
 15 18  1  0
M  CHG  1   6  -1
M  END
>  <PDB_ID>  (70) 
pdb1a62

>  <RESIDUE_NAME>  (70) 
GLU   LYS

>  <FRAG_NAME>  (70) 
ACET   PRPA

>  <FRAG_ATOM_NUM>  (70) 
fragi: 7  fragj: 11

>  <atom.prop.CHAIN_ID>  (70) 
A A A A A A A Z Z Z Z Z Z Z Z Z Z Z

>  <atom.prop.IS_HEAVY_ATOM>  (70) 
1 0 0 0 1 1 1 1 0 0 0 1 0 0 1 0 0 0

>  <DIFUSE_FUNC_ATOM>  (70) 
atom 6   atom 7   

>  <FINAL_SINGLE_POINT_ENERGY>  (70) 
0

>  <NONCOV_INTER_ENERGY_QM>  (70) 
0

>  <FF_Energy>  (70) 
7.57

>  <QM_Energy>  (70) 
-3.01

>  <Index>  (70) 
6144

$$$$
ACET-pdb1a62-A-GLU-108:PRPA-pdb1a62-A-LYS-105
     RDKit          3D

 18 16  0  0  0  0  0  0  0  0999 V2000
   -0.0028    1.5120    0.0054 C   0  0  0  0  0  0  0  0  0  0  0  0
   -0.6917    1.8113   -0.6246 H   0  0  0  0  0  0  0  0  0  0  0  0
    0.8965    1.8125   -0.2459 H   0  0  0  0  0  0  0  0  0  0  0  0
   -0.2391    1.9160    0.9897 H   0  0  0  0  0  0  0  0  0  0  0  0
    0.0000    0.0000    0.0000 C   0  0  0  0  0  0  0  0  0  0  0  0
   -1.0954   -0.5974   -0.0000 O   0  0  0  0  0  1  0  0  0  0  0  0
    1.0954   -0.5910    0.0000 O   0  0  0  0  0  0  0  0  0  0  0  0
    3.6673    0.6208    0.2561 C   0  0  0  0  0  0  0  0  0  0  0  0
    2.8020    0.5678   -0.2347 H   0  0  0  0  0  0  0  0  0  0  0  0
    4.2471    1.3218   -0.1501 H   0  0  0  0  0  0  0  0  0  0  0  0
    3.4578    0.9069    1.2868 H   0  0  0  0  0  0  0  0  0  0  0  0
    4.3770   -0.7254    0.1199 C   0  0  0  0  0  0  0  0  0  0  0  0
    5.3167   -0.6308    0.4504 H   0  0  0  0  0  0  0  0  0  0  0  0
    3.8953   -1.4041    0.6747 H   0  0  0  0  0  0  0  0  0  0  0  0
    4.4090   -1.2022   -1.3262 C   0  0  0  0  0  0  0  0  0  0  0  0
    4.3945   -0.4088   -1.9274 H   0  0  0  0  0  0  0  0  0  0  0  0
    5.2383   -1.7318   -1.4734 H   0  0  0  0  0  0  0  0  0  0  0  0
    3.5505   -1.8309   -1.5624 H   0  0  0  0  0  0  0  0  0  0  0  0
  1  5  1  0
  5  6  1  0
  5  7  2  0
  1  2  1  0
  1  3  1  0
  1  4  1  0
  8 12  1  0
 12 15  1  0
  8  9  1  0
  8 10  1  0
  8 11  1  0
 12 13  1  0
 12 14  1  0
 15 16  1  0
 15 17  1  0
 15 18  1  0
M  CHG  1   6  -1
M  END
>  <PDB_ID>  (71) 
pdb1a62

>  <RESIDUE_NAME>  (71) 
GLU   LYS

>  <FRAG_NAME>  (71) 
ACET   PRPA

>  <FRAG_ATOM_NUM>  (71) 
fragi: 7  fragj: 11

>  <atom.prop.CHAIN_ID>  (71) 
A A A A A A A Z Z Z Z Z Z Z Z Z Z Z

>  <atom.prop.IS_HEAVY_ATOM>  (71) 
1 0 0 0 1 1 1 1 0 0 0 1 0 0 1 0 0 0

>  <DIFUSE_FUNC_ATOM>  (71) 
atom 6   atom 7   

>  <FINAL_SINGLE_POINT_ENERGY>  (71) 
0

>  <NONCOV_INTER_ENERGY_QM>  (71) 
0

>  <FF_Energy>  (71) 
7.64

>  <QM_Energy>  (71) 
-1.74

>  <Index>  (71) 
6158

$$$$
ACET-pdb1a62-A-GLU-108:PRPA-pdb1a62-A-LYS-105
     RDKit          3D

 18 16  0  0  0  0  0  0  0  0999 V2000
   -0.0028    1.5120    0.0054 C   0  0  0  0  0  0  0  0  0  0  0  0
   -0.6917    1.8113   -0.6246 H   0  0  0  0  0  0  0  0  0  0  0  0
    0.8965    1.8125   -0.2459 H   0  0  0  0  0  0  0  0  0  0  0  0
   -0.2391    1.9160    0.9897 H   0  0  0  0  0  0  0  0  0  0  0  0
    0.0000    0.0000    0.0000 C   0  0  0  0  0  0  0  0  0  0  0  0
   -1.0954   -0.5974   -0.0000 O   0  0  0  0  0  1  0  0  0  0  0  0
    1.0954   -0.5910    0.0000 O   0  0  0  0  0  0  0  0  0  0  0  0
    4.3770   -0.7254    0.1199 C   0  0  0  0  0  0  0  0  0  0  0  0
    5.3167   -0.6308    0.4504 H   0  0  0  0  0  0  0  0  0  0  0  0
    3.8953   -1.4041    0.6747 H   0  0  0  0  0  0  0  0  0  0  0  0
    3.8707    0.2350    0.2171 H   0  0  0  0  0  0  0  0  0  0  0  0
    4.4090   -1.2022   -1.3262 C   0  0  0  0  0  0  0  0  0  0  0  0
    4.3945   -0.4088   -1.9274 H   0  0  0  0  0  0  0  0  0  0  0  0
    5.2383   -1.7318   -1.4734 H   0  0  0  0  0  0  0  0  0  0  0  0
    3.2079   -2.0819   -1.6567 C   0  0  0  0  0  0  0  0  0  0  0  0
    3.5051   -3.0391   -1.6880 H   0  0  0  0  0  0  0  0  0  0  0  0
    2.5199   -1.9766   -0.9353 H   0  0  0  0  0  0  0  0  0  0  0  0
    2.7616   -1.8165   -2.6151 H   0  0  0  0  0  0  0  0  0  0  0  0
  1  5  1  0
  5  6  1  0
  5  7  2  0
  1  2  1  0
  1  3  1  0
  1  4  1  0
  8 12  1  0
 12 15  1  0
  8  9  1  0
  8 10  1  0
  8 11  1  0
 12 13  1  0
 12 14  1  0
 15 16  1  0
 15 17  1  0
 15 18  1  0
M  CHG  1   6  -1
M  END
>  <PDB_ID>  (72) 
pdb1a62

>  <RESIDUE_NAME>  (72) 
GLU   LYS

>  <FRAG_NAME>  (72) 
ACET   PRPA

>  <FRAG_ATOM_NUM>  (72) 
fragi: 7  fragj: 11

>  <atom.prop.CHAIN_ID>  (72) 
A A A A A A A Z Z Z Z Z Z Z Z Z Z Z

>  <atom.prop.IS_HEAVY_ATOM>  (72) 
1 0 0 0 1 1 1 1 0 0 0 1 0 0 1 0 0 0

>  <DIFUSE_FUNC_ATOM>  (72) 
atom 6   atom 7   

>  <FINAL_SINGLE_POINT_ENERGY>  (72) 
0

>  <NONCOV_INTER_ENERGY_QM>  (72) 
0

>  <FF_Energy>  (72) 
2.48

>  <QM_Energy>  (72) 
-3.25

>  <Index>  (72) 
6168

$$$$
ACET-pdb1a6i-A-GLU-58:PRPA-pdb1a6i-A-ARG-62
     RDKit          3D

 18 16  0  0  0  0  0  0  0  0999 V2000
    0.0138    1.5231   -0.0076 C   0  0  0  0  0  0  0  0  0  0  0  0
    0.2638    1.8138   -0.9131 H   0  0  0  0  0  0  0  0  0  0  0  0
    0.6621    1.8175    0.6700 H   0  0  0  0  0  0  0  0  0  0  0  0
   -0.9538    1.9632    0.2336 H   0  0  0  0  0  0  0  0  0  0  0  0
    0.0000    0.0000    0.0000 C   0  0  0  0  0  0  0  0  0  0  0  0
   -1.0994   -0.6044   -0.0000 O   0  0  0  0  0  1  0  0  0  0  0  0
    1.0994   -0.5967    0.0000 O   0  0  0  0  0  0  0  0  0  0  0  0
    2.5569   -0.1719    3.6583 C   0  0  0  0  0  0  0  0  0  0  0  0
    1.8205   -0.2290    2.9900 H   0  0  0  0  0  0  0  0  0  0  0  0
    2.7543    0.7818    3.8694 H   0  0  0  0  0  0  0  0  0  0  0  0
    2.2185   -0.6567    4.5740 H   0  0  0  0  0  0  0  0  0  0  0  0
    3.7992   -0.7905    3.0508 C   0  0  0  0  0  0  0  0  0  0  0  0
    4.5874   -0.2099    3.2426 H   0  0  0  0  0  0  0  0  0  0  0  0
    3.9448   -1.6976    3.4427 H   0  0  0  0  0  0  0  0  0  0  0  0
    3.6688   -0.9368    1.5529 C   0  0  0  0  0  0  0  0  0  0  0  0
    4.2522   -1.6972    1.2604 H   0  0  0  0  0  0  0  0  0  0  0  0
    2.7133   -1.1539    1.3425 H   0  0  0  0  0  0  0  0  0  0  0  0
    3.9579   -0.0359    1.0116 H   0  0  0  0  0  0  0  0  0  0  0  0
  1  5  1  0
  5  6  1  0
  5  7  2  0
  1  2  1  0
  1  3  1  0
  1  4  1  0
  8 12  1  0
 12 15  1  0
  8  9  1  0
  8 10  1  0
  8 11  1  0
 12 13  1  0
 12 14  1  0
 15 16  1  0
 15 17  1  0
 15 18  1  0
M  CHG  1   6  -1
M  END
>  <PDB_ID>  (73) 
pdb1a6i

>  <RESIDUE_NAME>  (73) 
GLU   ARG

>  <FRAG_NAME>  (73) 
ACET   PRPA

>  <FRAG_ATOM_NUM>  (73) 
fragi: 7  fragj: 11

>  <atom.prop.CHAIN_ID>  (73) 
A A A A A A A Z Z Z Z Z Z Z Z Z Z Z

>  <atom.prop.IS_HEAVY_ATOM>  (73) 
1 0 0 0 1 1 1 1 0 0 0 1 0 0 1 0 0 0

>  <DIFUSE_FUNC_ATOM>  (73) 
atom 6   atom 7   

>  <FINAL_SINGLE_POINT_ENERGY>  (73) 
0

>  <NONCOV_INTER_ENERGY_QM>  (73) 
0

>  <FF_Energy>  (73) 
2.53

>  <QM_Energy>  (73) 
-2.61

>  <Index>  (73) 
6305

$$$$
ACET-pdb1a2v-A-GLU-32:PRPA-pdb1a2v-A-PRO-18
     RDKit          3D

 18 16  0  0  0  0  0  0  0  0999 V2000
    0.0100    1.4862    0.0042 C   0  0  0  0  0  0  0  0  0  0  0  0
    0.9314    1.7871   -0.1780 H   0  0  0  0  0  0  0  0  0  0  0  0
   -0.3054    1.7910    0.8876 H   0  0  0  0  0  0  0  0  0  0  0  0
   -0.6447    1.9068   -0.7591 H   0  0  0  0  0  0  0  0  0  0  0  0
    0.0000    0.0000    0.0000 C   0  0  0  0  0  0  0  0  0  0  0  0
   -1.1067   -0.5831   -0.0000 O   0  0  0  0  0  1  0  0  0  0  0  0
    1.1067   -0.5804    0.0000 O   0  0  0  0  0  0  0  0  0  0  0  0
    3.3267    4.4082    2.3229 C   0  0  0  0  0  0  0  0  0  0  0  0
    3.1242    5.2231    2.8771 H   0  0  0  0  0  0  0  0  0  0  0  0
    4.0101    4.6634    1.5130 H   0  0  0  0  0  0  0  0  0  0  0  0
    3.7201    3.6035    2.9440 H   0  0  0  0  0  0  0  0  0  0  0  0
    1.9897    3.9986    1.7183 C   0  0  0  0  0  0  0  0  0  0  0  0
    1.7006    3.1041    2.0488 H   0  0  0  0  0  0  0  0  0  0  0  0
    1.2836    4.6760    1.9045 H   0  0  0  0  0  0  0  0  0  0  0  0
    2.2761    3.9367    0.2221 C   0  0  0  0  0  0  0  0  0  0  0  0
    2.3054    2.9649   -0.0837 H   0  0  0  0  0  0  0  0  0  0  0  0
    1.5152    4.3783   -0.2926 H   0  0  0  0  0  0  0  0  0  0  0  0
    3.2208    4.4306   -0.0052 H   0  0  0  0  0  0  0  0  0  0  0  0
  1  5  1  0
  5  6  1  0
  5  7  2  0
  1  2  1  0
  1  3  1  0
  1  4  1  0
  8 12  1  0
 12 15  1  0
  8  9  1  0
  8 10  1  0
  8 11  1  0
 12 13  1  0
 12 14  1  0
 15 16  1  0
 15 17  1  0
 15 18  1  0
M  CHG  1   6  -1
M  END
>  <PDB_ID>  (74) 
pdb1a2v

>  <RESIDUE_NAME>  (74) 
GLU   PRO

>  <FRAG_NAME>  (74) 
ACET   PRPA

>  <FRAG_ATOM_NUM>  (74) 
fragi: 7  fragj: 11

>  <atom.prop.CHAIN_ID>  (74) 
A A A A A A A Z Z Z Z Z Z Z Z Z Z Z

>  <atom.prop.IS_HEAVY_ATOM>  (74) 
1 0 0 0 1 1 1 1 0 0 0 1 0 0 1 0 0 0

>  <DIFUSE_FUNC_ATOM>  (74) 
atom 6   atom 7   

>  <FINAL_SINGLE_POINT_ENERGY>  (74) 
0

>  <NONCOV_INTER_ENERGY_QM>  (74) 
0

>  <FF_Energy>  (74) 
4.83

>  <QM_Energy>  (74) 
-0.42

>  <Index>  (74) 
6341

$$$$
ACET-pdb1a2v-A-GLU-32:PRPA-pdb1a2v-A-PRO-18
     RDKit          3D

 18 16  0  0  0  0  0  0  0  0999 V2000
    0.0100    1.4862    0.0042 C   0  0  0  0  0  0  0  0  0  0  0  0
    0.9314    1.7871   -0.1780 H   0  0  0  0  0  0  0  0  0  0  0  0
   -0.3054    1.7910    0.8876 H   0  0  0  0  0  0  0  0  0  0  0  0
   -0.6447    1.9068   -0.7591 H   0  0  0  0  0  0  0  0  0  0  0  0
    0.0000    0.0000    0.0000 C   0  0  0  0  0  0  0  0  0  0  0  0
   -1.1067   -0.5831   -0.0000 O   0  0  0  0  0  1  0  0  0  0  0  0
    1.1067   -0.5804    0.0000 O   0  0  0  0  0  0  0  0  0  0  0  0
    1.9897    3.9986    1.7183 C   0  0  0  0  0  0  0  0  0  0  0  0
    1.7006    3.1041    2.0488 H   0  0  0  0  0  0  0  0  0  0  0  0
    1.2836    4.6760    1.9045 H   0  0  0  0  0  0  0  0  0  0  0  0
    2.9463    4.2917    2.1509 H   0  0  0  0  0  0  0  0  0  0  0  0
    2.2761    3.9367    0.2221 C   0  0  0  0  0  0  0  0  0  0  0  0
    2.3054    2.9649   -0.0837 H   0  0  0  0  0  0  0  0  0  0  0  0
    1.5152    4.3783   -0.2926 H   0  0  0  0  0  0  0  0  0  0  0  0
    3.6058    4.6319   -0.0978 C   0  0  0  0  0  0  0  0  0  0  0  0
    4.1548    4.0753   -0.7187 H   0  0  0  0  0  0  0  0  0  0  0  0
    3.4459    5.5305   -0.5043 H   0  0  0  0  0  0  0  0  0  0  0  0
    4.0899    4.7242    0.8744 H   0  0  0  0  0  0  0  0  0  0  0  0
  1  5  1  0
  5  6  1  0
  5  7  2  0
  1  2  1  0
  1  3  1  0
  1  4  1  0
  8 12  1  0
 12 15  1  0
  8  9  1  0
  8 10  1  0
  8 11  1  0
 12 13  1  0
 12 14  1  0
 15 16  1  0
 15 17  1  0
 15 18  1  0
M  CHG  1   6  -1
M  END
>  <PDB_ID>  (75) 
pdb1a2v

>  <RESIDUE_NAME>  (75) 
GLU   PRO

>  <FRAG_NAME>  (75) 
ACET   PRPA

>  <FRAG_ATOM_NUM>  (75) 
fragi: 7  fragj: 11

>  <atom.prop.CHAIN_ID>  (75) 
A A A A A A A Z Z Z Z Z Z Z Z Z Z Z

>  <atom.prop.IS_HEAVY_ATOM>  (75) 
1 0 0 0 1 1 1 1 0 0 0 1 0 0 1 0 0 0

>  <DIFUSE_FUNC_ATOM>  (75) 
atom 6   atom 7   

>  <FINAL_SINGLE_POINT_ENERGY>  (75) 
0

>  <NONCOV_INTER_ENERGY_QM>  (75) 
0

>  <FF_Energy>  (75) 
4.77

>  <QM_Energy>  (75) 
-0.42

>  <Index>  (75) 
6352

$$$$
ACET-pdb1a64-B-ASP-28:PRPA-pdb1a64-B-LYS-45
     RDKit          3D

 18 16  0  0  0  0  0  0  0  0999 V2000
   -0.0163    1.5253    0.0451 C   0  0  0  0  0  0  0  0  0  0  0  0
   -0.3590    1.8633   -0.8219 H   0  0  0  0  0  0  0  0  0  0  0  0
    0.9078    1.8464    0.2075 H   0  0  0  0  0  0  0  0  0  0  0  0
   -0.6560    1.9137    0.8376 H   0  0  0  0  0  0  0  0  0  0  0  0
    0.0000    0.0000    0.0000 C   0  0  0  0  0  0  0  0  0  0  0  0
   -1.1058   -0.5915    0.0000 O   0  0  0  0  0  1  0  0  0  0  0  0
    1.1058   -0.6028    0.0000 O   0  0  0  0  0  0  0  0  0  0  0  0
   -3.3209   -3.4248   -1.3585 C   0  0  0  0  0  0  0  0  0  0  0  0
   -4.2466   -3.7223   -1.6014 H   0  0  0  0  0  0  0  0  0  0  0  0
   -3.3728   -2.7684   -0.4898 H   0  0  0  0  0  0  0  0  0  0  0  0
   -2.7232   -4.3029   -1.1136 H   0  0  0  0  0  0  0  0  0  0  0  0
   -2.7898   -2.6873   -2.5896 C   0  0  0  0  0  0  0  0  0  0  0  0
   -2.7867   -3.3372   -3.3581 H   0  0  0  0  0  0  0  0  0  0  0  0
   -3.4357   -1.9450   -2.8032 H   0  0  0  0  0  0  0  0  0  0  0  0
   -1.4140   -2.1024   -2.4490 C   0  0  0  0  0  0  0  0  0  0  0  0
   -1.2642   -1.8188   -1.4995 H   0  0  0  0  0  0  0  0  0  0  0  0
   -0.7283   -2.7889   -2.6989 H   0  0  0  0  0  0  0  0  0  0  0  0
   -1.2798   -1.2325   -3.0920 H   0  0  0  0  0  0  0  0  0  0  0  0
  1  5  1  0
  5  6  1  0
  5  7  2  0
  1  2  1  0
  1  3  1  0
  1  4  1  0
  8 12  1  0
 12 15  1  0
  8  9  1  0
  8 10  1  0
  8 11  1  0
 12 13  1  0
 12 14  1  0
 15 16  1  0
 15 17  1  0
 15 18  1  0
M  CHG  1   6  -1
M  END
>  <PDB_ID>  (76) 
pdb1a64

>  <RESIDUE_NAME>  (76) 
ASP   LYS

>  <FRAG_NAME>  (76) 
ACET   PRPA

>  <FRAG_ATOM_NUM>  (76) 
fragi: 7  fragj: 11

>  <atom.prop.CHAIN_ID>  (76) 
A A A A A A A Z Z Z Z Z Z Z Z Z Z Z

>  <atom.prop.IS_HEAVY_ATOM>  (76) 
1 0 0 0 1 1 1 1 0 0 0 1 0 0 1 0 0 0

>  <DIFUSE_FUNC_ATOM>  (76) 
atom 6   atom 7   

>  <FINAL_SINGLE_POINT_ENERGY>  (76) 
0

>  <NONCOV_INTER_ENERGY_QM>  (76) 
0

>  <FF_Energy>  (76) 
16.73

>  <QM_Energy>  (76) 
-1.48

>  <Index>  (76) 
6380

$$$$
ACET-pdb1a64-B-ASP-28:PRPA-pdb1a64-B-LYS-45
     RDKit          3D

 18 16  0  0  0  0  0  0  0  0999 V2000
   -0.0163    1.5253    0.0451 C   0  0  0  0  0  0  0  0  0  0  0  0
   -0.3590    1.8633   -0.8219 H   0  0  0  0  0  0  0  0  0  0  0  0
    0.9078    1.8464    0.2075 H   0  0  0  0  0  0  0  0  0  0  0  0
   -0.6560    1.9137    0.8376 H   0  0  0  0  0  0  0  0  0  0  0  0
    0.0000    0.0000    0.0000 C   0  0  0  0  0  0  0  0  0  0  0  0
   -1.1058   -0.5915    0.0000 O   0  0  0  0  0  1  0  0  0  0  0  0
    1.1058   -0.6028    0.0000 O   0  0  0  0  0  0  0  0  0  0  0  0
   -1.4140   -2.1024   -2.4490 C   0  0  0  0  0  0  0  0  0  0  0  0
   -1.2642   -1.8188   -1.4995 H   0  0  0  0  0  0  0  0  0  0  0  0
   -0.7283   -2.7889   -2.6989 H   0  0  0  0  0  0  0  0  0  0  0  0
   -2.4126   -2.5269   -2.5510 H   0  0  0  0  0  0  0  0  0  0  0  0
   -1.2259   -0.8828   -3.3506 C   0  0  0  0  0  0  0  0  0  0  0  0
   -1.8737   -0.1816   -3.0756 H   0  0  0  0  0  0  0  0  0  0  0  0
   -0.2931   -0.5547   -3.2517 H   0  0  0  0  0  0  0  0  0  0  0  0
   -1.4704   -1.2325   -4.8050 C   0  0  0  0  0  0  0  0  0  0  0  0
   -0.7893   -1.9200   -5.0968 H   0  0  0  0  0  0  0  0  0  0  0  0
   -2.3868   -1.6502   -4.8929 H   0  0  0  0  0  0  0  0  0  0  0  0
   -1.4108   -0.3740   -5.4739 H   0  0  0  0  0  0  0  0  0  0  0  0
  1  5  1  0
  5  6  1  0
  5  7  2  0
  1  2  1  0
  1  3  1  0
  1  4  1  0
  8 12  1  0
 12 15  1  0
  8  9  1  0
  8 10  1  0
  8 11  1  0
 12 13  1  0
 12 14  1  0
 15 16  1  0
 15 17  1  0
 15 18  1  0
M  CHG  1   6  -1
M  END
>  <PDB_ID>  (77) 
pdb1a64

>  <RESIDUE_NAME>  (77) 
ASP   LYS

>  <FRAG_NAME>  (77) 
ACET   PRPA

>  <FRAG_ATOM_NUM>  (77) 
fragi: 7  fragj: 11

>  <atom.prop.CHAIN_ID>  (77) 
A A A A A A A Z Z Z Z Z Z Z Z Z Z Z

>  <atom.prop.IS_HEAVY_ATOM>  (77) 
1 0 0 0 1 1 1 1 0 0 0 1 0 0 1 0 0 0

>  <DIFUSE_FUNC_ATOM>  (77) 
atom 6   atom 7   

>  <FINAL_SINGLE_POINT_ENERGY>  (77) 
0

>  <NONCOV_INTER_ENERGY_QM>  (77) 
0

>  <FF_Energy>  (77) 
5.17

>  <QM_Energy>  (77) 
-2.96

>  <Index>  (77) 
6411

$$$$
ACET-pdb1a6u-H-ASP-390:PRPA-pdb1a6u-H-LYS-367
     RDKit          3D

 18 16  0  0  0  0  0  0  0  0999 V2000
   -0.0025    1.5290   -0.0003 C   0  0  0  0  0  0  0  0  0  0  0  0
    0.8900    1.8410   -0.2817 H   0  0  0  0  0  0  0  0  0  0  0  0
   -0.2288    1.8404    0.9077 H   0  0  0  0  0  0  0  0  0  0  0  0
   -0.7441    1.9186   -0.6977 H   0  0  0  0  0  0  0  0  0  0  0  0
    0.0000    0.0000    0.0000 C   0  0  0  0  0  0  0  0  0  0  0  0
   -1.1173   -0.6461   -0.0000 O   0  0  0  0  0  1  0  0  0  0  0  0
    1.1173   -0.6446    0.0000 O   0  0  0  0  0  0  0  0  0  0  0  0
   -1.9660   -4.2876    2.4697 C   0  0  0  0  0  0  0  0  0  0  0  0
   -2.7501   -3.8497    2.0200 H   0  0  0  0  0  0  0  0  0  0  0  0
   -1.7725   -3.8025    3.3269 H   0  0  0  0  0  0  0  0  0  0  0  0
   -2.2218   -5.3223    2.6976 H   0  0  0  0  0  0  0  0  0  0  0  0
   -0.7609   -4.1857    1.5643 C   0  0  0  0  0  0  0  0  0  0  0  0
   -0.1689   -4.9842    1.7200 H   0  0  0  0  0  0  0  0  0  0  0  0
   -1.0706   -4.1986    0.6076 H   0  0  0  0  0  0  0  0  0  0  0  0
    0.0611   -2.9326    1.7834 C   0  0  0  0  0  0  0  0  0  0  0  0
   -0.5010   -2.1310    1.5412 H   0  0  0  0  0  0  0  0  0  0  0  0
    0.2939   -2.8659    2.7629 H   0  0  0  0  0  0  0  0  0  0  0  0
    0.9762   -2.9266    1.1911 H   0  0  0  0  0  0  0  0  0  0  0  0
  1  5  1  0
  5  6  1  0
  5  7  2  0
  1  2  1  0
  1  3  1  0
  1  4  1  0
  8 12  1  0
 12 15  1  0
  8  9  1  0
  8 10  1  0
  8 11  1  0
 12 13  1  0
 12 14  1  0
 15 16  1  0
 15 17  1  0
 15 18  1  0
M  CHG  1   6  -1
M  END
>  <PDB_ID>  (78) 
pdb1a6u

>  <RESIDUE_NAME>  (78) 
ASP   LYS

>  <FRAG_NAME>  (78) 
ACET   PRPA

>  <FRAG_ATOM_NUM>  (78) 
fragi: 7  fragj: 11

>  <atom.prop.CHAIN_ID>  (78) 
A A A A A A A Z Z Z Z Z Z Z Z Z Z Z

>  <atom.prop.IS_HEAVY_ATOM>  (78) 
1 0 0 0 1 1 1 1 0 0 0 1 0 0 1 0 0 0

>  <DIFUSE_FUNC_ATOM>  (78) 
atom 6   atom 7   

>  <FINAL_SINGLE_POINT_ENERGY>  (78) 
0

>  <NONCOV_INTER_ENERGY_QM>  (78) 
0

>  <FF_Energy>  (78) 
3.14

>  <QM_Energy>  (78) 
-2.88

>  <Index>  (78) 
6475

$$$$
ACET-pdb2acy-A-GLU-66:PRPA-pdb2acy-A-GLU-63
     RDKit          3D

 18 16  0  0  0  0  0  0  0  0999 V2000
   -0.0221    1.5093    0.0140 C   0  0  0  0  0  0  0  0  0  0  0  0
    0.6092    1.8164   -0.6630 H   0  0  0  0  0  0  0  0  0  0  0  0
    0.2035    1.7957    0.9188 H   0  0  0  0  0  0  0  0  0  0  0  0
   -1.0212    1.8648   -0.2383 H   0  0  0  0  0  0  0  0  0  0  0  0
    0.0000    0.0000    0.0000 C   0  0  0  0  0  0  0  0  0  0  0  0
   -1.0944   -0.6045   -0.0000 O   0  0  0  0  0  1  0  0  0  0  0  0
    1.0944   -0.5782    0.0000 O   0  0  0  0  0  0  0  0  0  0  0  0
   -3.7750   -1.2104    1.5433 C   0  0  0  0  0  0  0  0  0  0  0  0
   -3.0434   -1.0764    0.8766 H   0  0  0  0  0  0  0  0  0  0  0  0
   -3.3595   -1.4351    2.5256 H   0  0  0  0  0  0  0  0  0  0  0  0
   -4.3648   -0.2963    1.6107 H   0  0  0  0  0  0  0  0  0  0  0  0
   -4.6029   -2.4286    1.1205 C   0  0  0  0  0  0  0  0  0  0  0  0
   -5.0467   -2.7797    1.9067 H   0  0  0  0  0  0  0  0  0  0  0  0
   -5.1975   -2.1576    0.4056 H   0  0  0  0  0  0  0  0  0  0  0  0
   -3.6957   -3.5425    0.5681 C   0  0  0  0  0  0  0  0  0  0  0  0
   -3.4992   -3.3338   -0.3804 H   0  0  0  0  0  0  0  0  0  0  0  0
   -2.8652   -3.5576    1.1076 H   0  0  0  0  0  0  0  0  0  0  0  0
   -4.1150   -4.5483    0.5964 H   0  0  0  0  0  0  0  0  0  0  0  0
  1  5  1  0
  5  6  1  0
  5  7  2  0
  1  2  1  0
  1  3  1  0
  1  4  1  0
  8 12  1  0
 12 15  1  0
  8  9  1  0
  8 10  1  0
  8 11  1  0
 12 13  1  0
 12 14  1  0
 15 16  1  0
 15 17  1  0
 15 18  1  0
M  CHG  1   6  -1
M  END
>  <PDB_ID>  (79) 
pdb2acy

>  <RESIDUE_NAME>  (79) 
GLU   GLU

>  <FRAG_NAME>  (79) 
ACET   PRPA

>  <FRAG_ATOM_NUM>  (79) 
fragi: 7  fragj: 11

>  <atom.prop.CHAIN_ID>  (79) 
A A A A A A A Z Z Z Z Z Z Z Z Z Z Z

>  <atom.prop.IS_HEAVY_ATOM>  (79) 
1 0 0 0 1 1 1 1 0 0 0 1 0 0 1 0 0 0

>  <DIFUSE_FUNC_ATOM>  (79) 
atom 6   atom 7   

>  <FINAL_SINGLE_POINT_ENERGY>  (79) 
0

>  <NONCOV_INTER_ENERGY_QM>  (79) 
0

>  <FF_Energy>  (79) 
18.72

>  <QM_Energy>  (79) 
-3.13

>  <Index>  (79) 
6509

$$$$
ACET-pdb1a76-A-ASP-295:PRPA-pdb1a76-A-ARG-50
     RDKit          3D

 18 16  0  0  0  0  0  0  0  0999 V2000
   -0.0134    1.5128   -0.0155 C   0  0  0  0  0  0  0  0  0  0  0  0
    0.9220    1.8417   -0.0366 H   0  0  0  0  0  0  0  0  0  0  0  0
   -0.4827    1.8373    0.7943 H   0  0  0  0  0  0  0  0  0  0  0  0
   -0.5311    1.9097   -0.8888 H   0  0  0  0  0  0  0  0  0  0  0  0
    0.0000    0.0000    0.0000 C   0  0  0  0  0  0  0  0  0  0  0  0
   -1.0959   -0.5951    0.0000 O   0  0  0  0  0  1  0  0  0  0  0  0
    1.0959   -0.5962    0.0000 O   0  0  0  0  0  0  0  0  0  0  0  0
    2.7964   -2.1478    2.4529 C   0  0  0  0  0  0  0  0  0  0  0  0
    2.9318   -1.7858    3.4082 H   0  0  0  0  0  0  0  0  0  0  0  0
    2.9231   -1.3199    1.7553 H   0  0  0  0  0  0  0  0  0  0  0  0
    3.4586   -3.0022    2.3133 H   0  0  0  0  0  0  0  0  0  0  0  0
    1.3473   -2.6126    2.4228 C   0  0  0  0  0  0  0  0  0  0  0  0
    1.1548   -2.9697    1.5197 H   0  0  0  0  0  0  0  0  0  0  0  0
    1.2307   -3.3121    3.1141 H   0  0  0  0  0  0  0  0  0  0  0  0
    0.3894   -1.4918    2.7099 C   0  0  0  0  0  0  0  0  0  0  0  0
    0.8249   -0.6150    2.4968 H   0  0  0  0  0  0  0  0  0  0  0  0
   -0.4301   -1.5987    2.1445 H   0  0  0  0  0  0  0  0  0  0  0  0
    0.0862   -1.4808    3.7568 H   0  0  0  0  0  0  0  0  0  0  0  0
  1  5  1  0
  5  6  1  0
  5  7  2  0
  1  2  1  0
  1  3  1  0
  1  4  1  0
  8 12  1  0
 12 15  1  0
  8  9  1  0
  8 10  1  0
  8 11  1  0
 12 13  1  0
 12 14  1  0
 15 16  1  0
 15 17  1  0
 15 18  1  0
M  CHG  1   6  -1
M  END
>  <PDB_ID>  (80) 
pdb1a76

>  <RESIDUE_NAME>  (80) 
ASP   ARG

>  <FRAG_NAME>  (80) 
ACET   PRPA

>  <FRAG_ATOM_NUM>  (80) 
fragi: 7  fragj: 11

>  <atom.prop.CHAIN_ID>  (80) 
A A A A A A A Z Z Z Z Z Z Z Z Z Z Z

>  <atom.prop.IS_HEAVY_ATOM>  (80) 
1 0 0 0 1 1 1 1 0 0 0 1 0 0 1 0 0 0

>  <DIFUSE_FUNC_ATOM>  (80) 
atom 6   atom 7   

>  <FINAL_SINGLE_POINT_ENERGY>  (80) 
0

>  <NONCOV_INTER_ENERGY_QM>  (80) 
0

>  <FF_Energy>  (80) 
3.89

>  <QM_Energy>  (80) 
-5.31

>  <Index>  (80) 
6781

$$$$
ACET-pdb1a76-A-ASP-295:PRPA-pdb1a76-A-ARG-50
     RDKit          3D

 18 16  0  0  0  0  0  0  0  0999 V2000
   -0.0134    1.5128   -0.0155 C   0  0  0  0  0  0  0  0  0  0  0  0
    0.9220    1.8417   -0.0366 H   0  0  0  0  0  0  0  0  0  0  0  0
   -0.4827    1.8373    0.7943 H   0  0  0  0  0  0  0  0  0  0  0  0
   -0.5311    1.9097   -0.8888 H   0  0  0  0  0  0  0  0  0  0  0  0
    0.0000    0.0000    0.0000 C   0  0  0  0  0  0  0  0  0  0  0  0
   -1.0959   -0.5951    0.0000 O   0  0  0  0  0  1  0  0  0  0  0  0
    1.0959   -0.5962    0.0000 O   0  0  0  0  0  0  0  0  0  0  0  0
    1.3473   -2.6126    2.4228 C   0  0  0  0  0  0  0  0  0  0  0  0
    1.1548   -2.9697    1.5197 H   0  0  0  0  0  0  0  0  0  0  0  0
    1.2307   -3.3121    3.1141 H   0  0  0  0  0  0  0  0  0  0  0  0
    2.3850   -2.2798    2.4444 H   0  0  0  0  0  0  0  0  0  0  0  0
    0.3894   -1.4918    2.7099 C   0  0  0  0  0  0  0  0  0  0  0  0
    0.8249   -0.6150    2.4968 H   0  0  0  0  0  0  0  0  0  0  0  0
   -0.4301   -1.5987    2.1445 H   0  0  0  0  0  0  0  0  0  0  0  0
   -0.0271   -1.4766    4.1482 C   0  0  0  0  0  0  0  0  0  0  0  0
    0.4827   -2.1723    4.6353 H   0  0  0  0  0  0  0  0  0  0  0  0
    0.1509   -0.5765    4.5212 H   0  0  0  0  0  0  0  0  0  0  0  0
   -1.0928   -1.6925    4.2247 H   0  0  0  0  0  0  0  0  0  0  0  0
  1  5  1  0
  5  6  1  0
  5  7  2  0
  1  2  1  0
  1  3  1  0
  1  4  1  0
  8 12  1  0
 12 15  1  0
  8  9  1  0
  8 10  1  0
  8 11  1  0
 12 13  1  0
 12 14  1  0
 15 16  1  0
 15 17  1  0
 15 18  1  0
M  CHG  1   6  -1
M  END
>  <PDB_ID>  (81) 
pdb1a76

>  <RESIDUE_NAME>  (81) 
ASP   ARG

>  <FRAG_NAME>  (81) 
ACET   PRPA

>  <FRAG_ATOM_NUM>  (81) 
fragi: 7  fragj: 11

>  <atom.prop.CHAIN_ID>  (81) 
A A A A A A A Z Z Z Z Z Z Z Z Z Z Z

>  <atom.prop.IS_HEAVY_ATOM>  (81) 
1 0 0 0 1 1 1 1 0 0 0 1 0 0 1 0 0 0

>  <DIFUSE_FUNC_ATOM>  (81) 
atom 6   atom 7   

>  <FINAL_SINGLE_POINT_ENERGY>  (81) 
0

>  <NONCOV_INTER_ENERGY_QM>  (81) 
0

>  <FF_Energy>  (81) 
17.21

>  <QM_Energy>  (81) 
-3.66

>  <Index>  (81) 
6785

$$$$
ACET-pdb2af0-A-ASP-138:PRPA-pdb2af0-A-LYS-134
     RDKit          3D

 18 16  0  0  0  0  0  0  0  0999 V2000
    0.0089    1.4830    0.0373 C   0  0  0  0  0  0  0  0  0  0  0  0
    0.8930    1.8176   -0.2850 H   0  0  0  0  0  0  0  0  0  0  0  0
   -0.1463    1.7926    0.9734 H   0  0  0  0  0  0  0  0  0  0  0  0
   -0.7634    1.9248   -0.5922 H   0  0  0  0  0  0  0  0  0  0  0  0
    0.0000    0.0000    0.0000 C   0  0  0  0  0  0  0  0  0  0  0  0
   -1.1037   -0.5877    0.0000 O   0  0  0  0  0  1  0  0  0  0  0  0
    1.1037   -0.5844   -0.0000 O   0  0  0  0  0  0  0  0  0  0  0  0
    3.3620   -2.2468   -2.0560 C   0  0  0  0  0  0  0  0  0  0  0  0
    4.0945   -2.6451   -1.5014 H   0  0  0  0  0  0  0  0  0  0  0  0
    3.0368   -1.4068   -1.6199 H   0  0  0  0  0  0  0  0  0  0  0  0
    3.7623   -1.9996   -3.0392 H   0  0  0  0  0  0  0  0  0  0  0  0
    2.1808   -3.2613   -2.1077 C   0  0  0  0  0  0  0  0  0  0  0  0
    2.3135   -3.8612   -2.8903 H   0  0  0  0  0  0  0  0  0  0  0  0
    2.1785   -3.7887   -1.2644 H   0  0  0  0  0  0  0  0  0  0  0  0
    0.7793   -2.5812   -2.2541 C   0  0  0  0  0  0  0  0  0  0  0  0
    0.4294   -2.4028   -1.3270 H   0  0  0  0  0  0  0  0  0  0  0  0
    0.9165   -1.6968   -2.7151 H   0  0  0  0  0  0  0  0  0  0  0  0
    0.0603   -3.1810   -2.8120 H   0  0  0  0  0  0  0  0  0  0  0  0
  1  5  1  0
  5  6  1  0
  5  7  2  0
  1  2  1  0
  1  3  1  0
  1  4  1  0
  8 12  1  0
 12 15  1  0
  8  9  1  0
  8 10  1  0
  8 11  1  0
 12 13  1  0
 12 14  1  0
 15 16  1  0
 15 17  1  0
 15 18  1  0
M  CHG  1   6  -1
M  END
>  <PDB_ID>  (82) 
pdb2af0

>  <RESIDUE_NAME>  (82) 
ASP   LYS

>  <FRAG_NAME>  (82) 
ACET   PRPA

>  <FRAG_ATOM_NUM>  (82) 
fragi: 7  fragj: 11

>  <atom.prop.CHAIN_ID>  (82) 
A A A A A A A Z Z Z Z Z Z Z Z Z Z Z

>  <atom.prop.IS_HEAVY_ATOM>  (82) 
1 0 0 0 1 1 1 1 0 0 0 1 0 0 1 0 0 0

>  <DIFUSE_FUNC_ATOM>  (82) 
atom 6   atom 7   

>  <FINAL_SINGLE_POINT_ENERGY>  (82) 
0

>  <NONCOV_INTER_ENERGY_QM>  (82) 
0

>  <FF_Energy>  (82) 
1.17

>  <QM_Energy>  (82) 
-4.63

>  <Index>  (82) 
6867

$$$$
ACET-pdb2af0-A-GLU-111:PRPA-pdb2af0-A-LYS-146
     RDKit          3D

 18 16  0  0  0  0  0  0  0  0999 V2000
   -0.0226    1.5217    0.0036 C   0  0  0  0  0  0  0  0  0  0  0  0
    0.3952    1.8252   -0.8294 H   0  0  0  0  0  0  0  0  0  0  0  0
    0.4608    1.8209    0.8022 H   0  0  0  0  0  0  0  0  0  0  0  0
   -1.0375    1.9174    0.0438 H   0  0  0  0  0  0  0  0  0  0  0  0
    0.0000    0.0000    0.0000 C   0  0  0  0  0  0  0  0  0  0  0  0
   -1.0823   -0.6125    0.0000 O   0  0  0  0  0  1  0  0  0  0  0  0
    1.0823   -0.5945    0.0000 O   0  0  0  0  0  0  0  0  0  0  0  0
   -3.6958   -2.8666    0.7739 C   0  0  0  0  0  0  0  0  0  0  0  0
   -4.0864   -3.6879    0.3614 H   0  0  0  0  0  0  0  0  0  0  0  0
   -3.5147   -2.1876    0.0655 H   0  0  0  0  0  0  0  0  0  0  0  0
   -4.4201   -2.4528    1.4755 H   0  0  0  0  0  0  0  0  0  0  0  0
   -2.3732   -3.2360    1.4601 C   0  0  0  0  0  0  0  0  0  0  0  0
   -2.0542   -2.4559    1.9848 H   0  0  0  0  0  0  0  0  0  0  0  0
   -2.5241   -4.0186    2.0524 H   0  0  0  0  0  0  0  0  0  0  0  0
   -1.2735   -3.6113    0.4386 C   0  0  0  0  0  0  0  0  0  0  0  0
   -1.6816   -3.5850   -0.4823 H   0  0  0  0  0  0  0  0  0  0  0  0
   -0.5531   -2.9090    0.4848 H   0  0  0  0  0  0  0  0  0  0  0  0
   -0.8387   -4.5944    0.6190 H   0  0  0  0  0  0  0  0  0  0  0  0
  1  5  1  0
  5  6  1  0
  5  7  2  0
  1  2  1  0
  1  3  1  0
  1  4  1  0
  8 12  1  0
 12 15  1  0
  8  9  1  0
  8 10  1  0
  8 11  1  0
 12 13  1  0
 12 14  1  0
 15 16  1  0
 15 17  1  0
 15 18  1  0
M  CHG  1   6  -1
M  END
>  <PDB_ID>  (83) 
pdb2af0

>  <RESIDUE_NAME>  (83) 
GLU   LYS

>  <FRAG_NAME>  (83) 
ACET   PRPA

>  <FRAG_ATOM_NUM>  (83) 
fragi: 7  fragj: 11

>  <atom.prop.CHAIN_ID>  (83) 
A A A A A A A Z Z Z Z Z Z Z Z Z Z Z

>  <atom.prop.IS_HEAVY_ATOM>  (83) 
1 0 0 0 1 1 1 1 0 0 0 1 0 0 1 0 0 0

>  <DIFUSE_FUNC_ATOM>  (83) 
atom 6   atom 7   

>  <FINAL_SINGLE_POINT_ENERGY>  (83) 
0

>  <NONCOV_INTER_ENERGY_QM>  (83) 
0

>  <FF_Energy>  (83) 
0.52

>  <QM_Energy>  (83) 
-5.26

>  <Index>  (83) 
6982

$$$$
ACET-pdb1a76-A-ASP-113:PRPA-pdb1a76-A-ILE-109
     RDKit          3D

 18 16  0  0  0  0  0  0  0  0999 V2000
    0.0006    1.5025    0.0050 C   0  0  0  0  0  0  0  0  0  0  0  0
    0.9142    1.8269    0.2269 H   0  0  0  0  0  0  0  0  0  0  0  0
   -0.6540    1.8257    0.6791 H   0  0  0  0  0  0  0  0  0  0  0  0
   -0.2778    1.9241   -0.9608 H   0  0  0  0  0  0  0  0  0  0  0  0
    0.0000    0.0000    0.0000 C   0  0  0  0  0  0  0  0  0  0  0  0
   -1.0995   -0.5892    0.0000 O   0  0  0  0  0  1  0  0  0  0  0  0
    1.0995   -0.5949    0.0000 O   0  0  0  0  0  0  0  0  0  0  0  0
    0.9456    0.4112    2.8513 C   0  0  0  0  0  0  0  0  0  0  0  0
    1.0901    0.4849    1.8617 H   0  0  0  0  0  0  0  0  0  0  0  0
    1.8505    0.7898    3.3267 H   0  0  0  0  0  0  0  0  0  0  0  0
    0.0916    1.0480    3.0827 H   0  0  0  0  0  0  0  0  0  0  0  0
    0.6778   -1.0677    3.2897 C   0  0  0  0  0  0  0  0  0  0  0  0
    1.4661   -1.6028    3.0182 H   0  0  0  0  0  0  0  0  0  0  0  0
    0.5669   -1.1331    4.3720 H   0  0  0  0  0  0  0  0  0  0  0  0
   -0.5538   -1.6183    2.5719 C   0  0  0  0  0  0  0  0  0  0  0  0
   -1.2212   -1.9016    3.2564 H   0  0  0  0  0  0  0  0  0  0  0  0
   -0.9491   -0.8882    2.0184 H   0  0  0  0  0  0  0  0  0  0  0  0
   -0.3380   -2.4658    1.9214 H   0  0  0  0  0  0  0  0  0  0  0  0
  1  5  1  0
  5  6  1  0
  5  7  2  0
  1  2  1  0
  1  3  1  0
  1  4  1  0
  8 12  1  0
 12 15  1  0
  8  9  1  0
  8 10  1  0
  8 11  1  0
 12 13  1  0
 12 14  1  0
 15 16  1  0
 15 17  1  0
 15 18  1  0
M  CHG  1   6  -1
M  END
>  <PDB_ID>  (84) 
pdb1a76

>  <RESIDUE_NAME>  (84) 
ASP   ILE

>  <FRAG_NAME>  (84) 
ACET   PRPA

>  <FRAG_ATOM_NUM>  (84) 
fragi: 7  fragj: 11

>  <atom.prop.CHAIN_ID>  (84) 
A A A A A A A Z Z Z Z Z Z Z Z Z Z Z

>  <atom.prop.IS_HEAVY_ATOM>  (84) 
1 0 0 0 1 1 1 1 0 0 0 1 0 0 1 0 0 0

>  <DIFUSE_FUNC_ATOM>  (84) 
atom 6   atom 7   

>  <FINAL_SINGLE_POINT_ENERGY>  (84) 
0

>  <NONCOV_INTER_ENERGY_QM>  (84) 
0

>  <FF_Energy>  (84) 
36.19

>  <QM_Energy>  (84) 
1.95

>  <Index>  (84) 
7187

$$$$
ACET-pdb1a76-A-ASP-113:PRPA-pdb1a76-A-ILE-109
     RDKit          3D

 18 16  0  0  0  0  0  0  0  0999 V2000
    0.0006    1.5025    0.0050 C   0  0  0  0  0  0  0  0  0  0  0  0
    0.9142    1.8269    0.2269 H   0  0  0  0  0  0  0  0  0  0  0  0
   -0.6540    1.8257    0.6791 H   0  0  0  0  0  0  0  0  0  0  0  0
   -0.2778    1.9241   -0.9608 H   0  0  0  0  0  0  0  0  0  0  0  0
    0.0000    0.0000    0.0000 C   0  0  0  0  0  0  0  0  0  0  0  0
   -1.0995   -0.5892    0.0000 O   0  0  0  0  0  1  0  0  0  0  0  0
    1.0995   -0.5949    0.0000 O   0  0  0  0  0  0  0  0  0  0  0  0
    0.9456    0.4112    2.8513 C   0  0  0  0  0  0  0  0  0  0  0  0
    1.0901    0.4849    1.8617 H   0  0  0  0  0  0  0  0  0  0  0  0
    1.8505    0.7898    3.3267 H   0  0  0  0  0  0  0  0  0  0  0  0
    0.0916    1.0480    3.0827 H   0  0  0  0  0  0  0  0  0  0  0  0
    0.6778   -1.0677    3.2897 C   0  0  0  0  0  0  0  0  0  0  0  0
    1.4661   -1.6028    3.0182 H   0  0  0  0  0  0  0  0  0  0  0  0
   -0.2007   -1.4604    2.7777 H   0  0  0  0  0  0  0  0  0  0  0  0
    0.5229   -1.1590    4.8017 C   0  0  0  0  0  0  0  0  0  0  0  0
    0.4010   -2.1141    5.0669 H   0  0  0  0  0  0  0  0  0  0  0  0
    1.3406   -0.7929    5.2426 H   0  0  0  0  0  0  0  0  0  0  0  0
   -0.2743   -0.6295    5.0878 H   0  0  0  0  0  0  0  0  0  0  0  0
  1  5  1  0
  5  6  1  0
  5  7  2  0
  1  2  1  0
  1  3  1  0
  1  4  1  0
  8 12  1  0
 12 15  1  0
  8  9  1  0
  8 10  1  0
  8 11  1  0
 12 13  1  0
 12 14  1  0
 15 16  1  0
 15 17  1  0
 15 18  1  0
M  CHG  1   6  -1
M  END
>  <PDB_ID>  (85) 
pdb1a76

>  <RESIDUE_NAME>  (85) 
ASP   ILE

>  <FRAG_NAME>  (85) 
ACET   PRPA

>  <FRAG_ATOM_NUM>  (85) 
fragi: 7  fragj: 11

>  <atom.prop.CHAIN_ID>  (85) 
A A A A A A A Z Z Z Z Z Z Z Z Z Z Z

>  <atom.prop.IS_HEAVY_ATOM>  (85) 
1 0 0 0 1 1 1 1 0 0 0 1 0 0 1 0 0 0

>  <DIFUSE_FUNC_ATOM>  (85) 
atom 6   atom 7   

>  <FINAL_SINGLE_POINT_ENERGY>  (85) 
0

>  <NONCOV_INTER_ENERGY_QM>  (85) 
0

>  <FF_Energy>  (85) 
20.52

>  <QM_Energy>  (85) 
-0.84

>  <Index>  (85) 
7191

$$$$
ACET-pdb1a76-A-ASP-113:PRPA-pdb1a76-A-ILE-109
     RDKit          3D

 18 16  0  0  0  0  0  0  0  0999 V2000
    0.0006    1.5025    0.0050 C   0  0  0  0  0  0  0  0  0  0  0  0
    0.9142    1.8269    0.2269 H   0  0  0  0  0  0  0  0  0  0  0  0
   -0.6540    1.8257    0.6791 H   0  0  0  0  0  0  0  0  0  0  0  0
   -0.2778    1.9241   -0.9608 H   0  0  0  0  0  0  0  0  0  0  0  0
    0.0000    0.0000    0.0000 C   0  0  0  0  0  0  0  0  0  0  0  0
   -1.0995   -0.5892    0.0000 O   0  0  0  0  0  1  0  0  0  0  0  0
    1.0995   -0.5949    0.0000 O   0  0  0  0  0  0  0  0  0  0  0  0
    0.6778   -1.0677    3.2897 C   0  0  0  0  0  0  0  0  0  0  0  0
    1.4661   -1.6028    3.0182 H   0  0  0  0  0  0  0  0  0  0  0  0
    0.8643   -0.0380    2.9845 H   0  0  0  0  0  0  0  0  0  0  0  0
    0.5669   -1.1331    4.3720 H   0  0  0  0  0  0  0  0  0  0  0  0
   -0.5538   -1.6183    2.5719 C   0  0  0  0  0  0  0  0  0  0  0  0
   -1.2212   -1.9016    3.2564 H   0  0  0  0  0  0  0  0  0  0  0  0
   -0.9491   -0.8882    2.0184 H   0  0  0  0  0  0  0  0  0  0  0  0
   -0.2524   -2.8018    1.6635 C   0  0  0  0  0  0  0  0  0  0  0  0
    0.1339   -3.5423    2.2085 H   0  0  0  0  0  0  0  0  0  0  0  0
   -1.0988   -3.1063    1.2315 H   0  0  0  0  0  0  0  0  0  0  0  0
    0.4014   -2.5191    0.9652 H   0  0  0  0  0  0  0  0  0  0  0  0
  1  5  1  0
  5  6  1  0
  5  7  2  0
  1  2  1  0
  1  3  1  0
  1  4  1  0
  8 12  1  0
 12 15  1  0
  8  9  1  0
  8 10  1  0
  8 11  1  0
 12 13  1  0
 12 14  1  0
 15 16  1  0
 15 17  1  0
 15 18  1  0
M  CHG  1   6  -1
M  END
>  <PDB_ID>  (86) 
pdb1a76

>  <RESIDUE_NAME>  (86) 
ASP   ILE

>  <FRAG_NAME>  (86) 
ACET   PRPA

>  <FRAG_ATOM_NUM>  (86) 
fragi: 7  fragj: 11

>  <atom.prop.CHAIN_ID>  (86) 
A A A A A A A Z Z Z Z Z Z Z Z Z Z Z

>  <atom.prop.IS_HEAVY_ATOM>  (86) 
1 0 0 0 1 1 1 1 0 0 0 1 0 0 1 0 0 0

>  <DIFUSE_FUNC_ATOM>  (86) 
atom 6   atom 7   

>  <FINAL_SINGLE_POINT_ENERGY>  (86) 
0

>  <NONCOV_INTER_ENERGY_QM>  (86) 
0

>  <FF_Energy>  (86) 
19.15

>  <QM_Energy>  (86) 
-1.88

>  <Index>  (86) 
7195

$$$$
ACET-pdb1a76-A-ASP-113:PRPA-pdb1a76-A-ILE-109
     RDKit          3D

 18 16  0  0  0  0  0  0  0  0999 V2000
    0.0006    1.5025    0.0050 C   0  0  0  0  0  0  0  0  0  0  0  0
    0.9142    1.8269    0.2269 H   0  0  0  0  0  0  0  0  0  0  0  0
   -0.6540    1.8257    0.6791 H   0  0  0  0  0  0  0  0  0  0  0  0
   -0.2778    1.9241   -0.9608 H   0  0  0  0  0  0  0  0  0  0  0  0
    0.0000    0.0000    0.0000 C   0  0  0  0  0  0  0  0  0  0  0  0
   -1.0995   -0.5892    0.0000 O   0  0  0  0  0  1  0  0  0  0  0  0
    1.0995   -0.5949    0.0000 O   0  0  0  0  0  0  0  0  0  0  0  0
   -0.5538   -1.6183    2.5719 C   0  0  0  0  0  0  0  0  0  0  0  0
   -1.2212   -1.9016    3.2564 H   0  0  0  0  0  0  0  0  0  0  0  0
   -0.9491   -0.8882    2.0184 H   0  0  0  0  0  0  0  0  0  0  0  0
   -0.3380   -2.4658    1.9214 H   0  0  0  0  0  0  0  0  0  0  0  0
    0.6778   -1.0677    3.2897 C   0  0  0  0  0  0  0  0  0  0  0  0
    1.4661   -1.6028    3.0182 H   0  0  0  0  0  0  0  0  0  0  0  0
    0.8643   -0.0380    2.9845 H   0  0  0  0  0  0  0  0  0  0  0  0
    0.5229   -1.1590    4.8017 C   0  0  0  0  0  0  0  0  0  0  0  0
    0.4010   -2.1141    5.0669 H   0  0  0  0  0  0  0  0  0  0  0  0
    1.3406   -0.7929    5.2426 H   0  0  0  0  0  0  0  0  0  0  0  0
   -0.2743   -0.6295    5.0878 H   0  0  0  0  0  0  0  0  0  0  0  0
  1  5  1  0
  5  6  1  0
  5  7  2  0
  1  2  1  0
  1  3  1  0
  1  4  1  0
  8 12  1  0
 12 15  1  0
  8  9  1  0
  8 10  1  0
  8 11  1  0
 12 13  1  0
 12 14  1  0
 15 16  1  0
 15 17  1  0
 15 18  1  0
M  CHG  1   6  -1
M  END
>  <PDB_ID>  (87) 
pdb1a76

>  <RESIDUE_NAME>  (87) 
ASP   ILE

>  <FRAG_NAME>  (87) 
ACET   PRPA

>  <FRAG_ATOM_NUM>  (87) 
fragi: 7  fragj: 11

>  <atom.prop.CHAIN_ID>  (87) 
A A A A A A A Z Z Z Z Z Z Z Z Z Z Z

>  <atom.prop.IS_HEAVY_ATOM>  (87) 
1 0 0 0 1 1 1 1 0 0 0 1 0 0 1 0 0 0

>  <DIFUSE_FUNC_ATOM>  (87) 
atom 6   atom 7   

>  <FINAL_SINGLE_POINT_ENERGY>  (87) 
0

>  <NONCOV_INTER_ENERGY_QM>  (87) 
0

>  <FF_Energy>  (87) 
2.85

>  <QM_Energy>  (87) 
-0.05

>  <Index>  (87) 
7200

$$$$
ACET-pdb2ab0-A-ASP-117:PRPA-pdb2ab0-A-PRO-120
     RDKit          3D

 18 16  0  0  0  0  0  0  0  0999 V2000
    0.0886    1.5038    0.0312 C   0  0  0  0  0  0  0  0  0  0  0  0
    0.1013    1.8491   -0.8948 H   0  0  0  0  0  0  0  0  0  0  0  0
    0.9001    1.7727    0.5265 H   0  0  0  0  0  0  0  0  0  0  0  0
   -0.7706    1.9439    0.5374 H   0  0  0  0  0  0  0  0  0  0  0  0
    0.0000    0.0000    0.0000 C   0  0  0  0  0  0  0  0  0  0  0  0
   -1.1245   -0.5526    0.0000 O   0  0  0  0  0  1  0  0  0  0  0  0
    1.1245   -0.5660   -0.0000 O   0  0  0  0  0  0  0  0  0  0  0  0
   -2.7075   -2.3996    2.9414 C   0  0  0  0  0  0  0  0  0  0  0  0
   -3.1912   -1.9709    2.1447 H   0  0  0  0  0  0  0  0  0  0  0  0
   -2.6346   -1.6875    3.7634 H   0  0  0  0  0  0  0  0  0  0  0  0
   -3.1710   -3.3494    3.2080 H   0  0  0  0  0  0  0  0  0  0  0  0
   -1.2494   -2.5978    2.5001 C   0  0  0  0  0  0  0  0  0  0  0  0
   -1.0928   -3.5709    2.2540 H   0  0  0  0  0  0  0  0  0  0  0  0
   -1.0627   -2.0461    1.6691 H   0  0  0  0  0  0  0  0  0  0  0  0
   -0.4109   -2.1836    3.6242 C   0  0  0  0  0  0  0  0  0  0  0  0
   -0.1225   -2.9858    4.1822 H   0  0  0  0  0  0  0  0  0  0  0  0
    0.4427   -1.7339    3.2983 H   0  0  0  0  0  0  0  0  0  0  0  0
   -0.9919   -1.4913    4.2334 H   0  0  0  0  0  0  0  0  0  0  0  0
  1  5  1  0
  5  6  1  0
  5  7  2  0
  1  2  1  0
  1  3  1  0
  1  4  1  0
  8 12  1  0
 12 15  1  0
  8  9  1  0
  8 10  1  0
  8 11  1  0
 12 13  1  0
 12 14  1  0
 15 16  1  0
 15 17  1  0
 15 18  1  0
M  CHG  1   6  -1
M  END
>  <PDB_ID>  (88) 
pdb2ab0

>  <RESIDUE_NAME>  (88) 
ASP   PRO

>  <FRAG_NAME>  (88) 
ACET   PRPA

>  <FRAG_ATOM_NUM>  (88) 
fragi: 7  fragj: 11

>  <atom.prop.CHAIN_ID>  (88) 
A A A A A A A Z Z Z Z Z Z Z Z Z Z Z

>  <atom.prop.IS_HEAVY_ATOM>  (88) 
1 0 0 0 1 1 1 1 0 0 0 1 0 0 1 0 0 0

>  <DIFUSE_FUNC_ATOM>  (88) 
atom 6   atom 7   

>  <FINAL_SINGLE_POINT_ENERGY>  (88) 
0

>  <NONCOV_INTER_ENERGY_QM>  (88) 
0

>  <FF_Energy>  (88) 
1.15

>  <QM_Energy>  (88) 
-5.03

>  <Index>  (88) 
7256

$$$$
ACET-pdb2a9f-A-GLU-137:PRPA-pdb2a9f-A-LYS-95
     RDKit          3D

 18 16  0  0  0  0  0  0  0  0999 V2000
    0.0002    1.5266   -0.0345 C   0  0  0  0  0  0  0  0  0  0  0  0
   -0.1154    1.7998   -0.9706 H   0  0  0  0  0  0  0  0  0  0  0  0
    0.8553    1.8289    0.3413 H   0  0  0  0  0  0  0  0  0  0  0  0
   -0.8071    1.9654    0.5519 H   0  0  0  0  0  0  0  0  0  0  0  0
    0.0000    0.0000    0.0000 C   0  0  0  0  0  0  0  0  0  0  0  0
   -1.1010   -0.5981    0.0000 O   0  0  0  0  0  1  0  0  0  0  0  0
    1.1010   -0.5956   -0.0000 O   0  0  0  0  0  0  0  0  0  0  0  0
   -2.2302   -0.4472   -3.9778 C   0  0  0  0  0  0  0  0  0  0  0  0
   -2.3625    0.0046   -3.0959 H   0  0  0  0  0  0  0  0  0  0  0  0
   -3.0767   -0.9012   -4.2513 H   0  0  0  0  0  0  0  0  0  0  0  0
   -1.9738    0.3043   -4.7245 H   0  0  0  0  0  0  0  0  0  0  0  0
   -1.1328   -1.4865   -3.8410 C   0  0  0  0  0  0  0  0  0  0  0  0
   -1.1783   -2.1094   -4.6143 H   0  0  0  0  0  0  0  0  0  0  0  0
   -0.2512   -1.0275   -3.8159 H   0  0  0  0  0  0  0  0  0  0  0  0
   -1.2913   -2.2963   -2.5585 C   0  0  0  0  0  0  0  0  0  0  0  0
   -1.5511   -1.6865   -1.8195 H   0  0  0  0  0  0  0  0  0  0  0  0
   -1.9851   -2.9923   -2.6973 H   0  0  0  0  0  0  0  0  0  0  0  0
   -0.3440   -2.7762   -2.3129 H   0  0  0  0  0  0  0  0  0  0  0  0
  1  5  1  0
  5  6  1  0
  5  7  2  0
  1  2  1  0
  1  3  1  0
  1  4  1  0
  8 12  1  0
 12 15  1  0
  8  9  1  0
  8 10  1  0
  8 11  1  0
 12 13  1  0
 12 14  1  0
 15 16  1  0
 15 17  1  0
 15 18  1  0
M  CHG  1   6  -1
M  END
>  <PDB_ID>  (89) 
pdb2a9f

>  <RESIDUE_NAME>  (89) 
GLU   LYS

>  <FRAG_NAME>  (89) 
ACET   PRPA

>  <FRAG_ATOM_NUM>  (89) 
fragi: 7  fragj: 11

>  <atom.prop.CHAIN_ID>  (89) 
A A A A A A A Z Z Z Z Z Z Z Z Z Z Z

>  <atom.prop.IS_HEAVY_ATOM>  (89) 
1 0 0 0 1 1 1 1 0 0 0 1 0 0 1 0 0 0

>  <DIFUSE_FUNC_ATOM>  (89) 
atom 6   atom 7   

>  <FINAL_SINGLE_POINT_ENERGY>  (89) 
0

>  <NONCOV_INTER_ENERGY_QM>  (89) 
0

>  <FF_Energy>  (89) 
1.17

>  <QM_Energy>  (89) 
-3.37

>  <Index>  (89) 
7332

$$$$
ACET-pdb1a85-A-ASP-233:PRPA-pdb1a85-A-PRO-230
     RDKit          3D

 18 16  0  0  0  0  0  0  0  0999 V2000
   -0.0442    1.4753    0.1076 C   0  0  0  0  0  0  0  0  0  0  0  0
    0.8585    1.8194    0.3524 H   0  0  0  0  0  0  0  0  0  0  0  0
   -0.7095    1.7408    0.8008 H   0  0  0  0  0  0  0  0  0  0  0  0
   -0.3355    1.9503   -0.8293 H   0  0  0  0  0  0  0  0  0  0  0  0
    0.0000    0.0000    0.0000 C   0  0  0  0  0  0  0  0  0  0  0  0
   -1.0904   -0.5206   -0.0000 O   0  0  0  0  0  1  0  0  0  0  0  0
    1.0904   -0.6004   -0.0000 O   0  0  0  0  0  0  0  0  0  0  0  0
    4.1569   -0.8317   -0.7961 C   0  0  0  0  0  0  0  0  0  0  0  0
    3.1998   -0.7014   -0.9717 H   0  0  0  0  0  0  0  0  0  0  0  0
    4.5994   -1.3604   -1.4936 H   0  0  0  0  0  0  0  0  0  0  0  0
    4.6692    0.1131   -0.6145 H   0  0  0  0  0  0  0  0  0  0  0  0
    4.3479   -1.5126    0.5756 C   0  0  0  0  0  0  0  0  0  0  0  0
    3.7703   -2.3023    0.6298 H   0  0  0  0  0  0  0  0  0  0  0  0
    5.2956   -1.7256    0.7032 H   0  0  0  0  0  0  0  0  0  0  0  0
    3.8893   -0.4145    1.4799 C   0  0  0  0  0  0  0  0  0  0  0  0
    2.9012   -0.3146    1.4713 H   0  0  0  0  0  0  0  0  0  0  0  0
    4.2192   -0.5364    2.4100 H   0  0  0  0  0  0  0  0  0  0  0  0
    4.3615    0.4542    1.0212 H   0  0  0  0  0  0  0  0  0  0  0  0
  1  5  1  0
  5  6  1  0
  5  7  2  0
  1  2  1  0
  1  3  1  0
  1  4  1  0
  8 12  1  0
 12 15  1  0
  8  9  1  0
  8 10  1  0
  8 11  1  0
 12 13  1  0
 12 14  1  0
 15 16  1  0
 15 17  1  0
 15 18  1  0
M  CHG  1   6  -1
M  END
>  <PDB_ID>  (90) 
pdb1a85

>  <RESIDUE_NAME>  (90) 
ASP   PRO

>  <FRAG_NAME>  (90) 
ACET   PRPA

>  <FRAG_ATOM_NUM>  (90) 
fragi: 7  fragj: 11

>  <atom.prop.CHAIN_ID>  (90) 
A A A A A A A Z Z Z Z Z Z Z Z Z Z Z

>  <atom.prop.IS_HEAVY_ATOM>  (90) 
1 0 0 0 1 1 1 1 0 0 0 1 0 0 1 0 0 0

>  <DIFUSE_FUNC_ATOM>  (90) 
atom 6   atom 7   

>  <FINAL_SINGLE_POINT_ENERGY>  (90) 
0

>  <NONCOV_INTER_ENERGY_QM>  (90) 
0

>  <FF_Energy>  (90) 
1.75

>  <QM_Energy>  (90) 
-5.36

>  <Index>  (90) 
7359

$$$$
ACET-pdb1a69-C-ASP-21:PRPA-pdb1a69-A-ARG-43
     RDKit          3D

 18 16  0  0  0  0  0  0  0  0999 V2000
    0.2440    1.4872   -0.0163 C   0  0  0  0  0  0  0  0  0  0  0  0
    0.8269    1.7148   -0.7934 H   0  0  0  0  0  0  0  0  0  0  0  0
    0.6928    1.7551    0.8332 H   0  0  0  0  0  0  0  0  0  0  0  0
   -0.6656    2.0811   -0.1063 H   0  0  0  0  0  0  0  0  0  0  0  0
    0.0000    0.0000    0.0000 C   0  0  0  0  0  0  0  0  0  0  0  0
   -1.1149   -0.5019   -0.0000 O   0  0  0  0  0  1  0  0  0  0  0  0
    1.1149   -0.6817    0.0000 O   0  0  0  0  0  0  0  0  0  0  0  0
   -1.2620   -2.0569   -2.8411 C   0  0  0  0  0  0  0  0  0  0  0  0
   -1.0073   -1.5901   -1.9717 H   0  0  0  0  0  0  0  0  0  0  0  0
   -0.6060   -2.9169   -2.9762 H   0  0  0  0  0  0  0  0  0  0  0  0
   -2.3193   -2.3185   -2.7998 H   0  0  0  0  0  0  0  0  0  0  0  0
   -1.0150   -0.9741   -3.8874 C   0  0  0  0  0  0  0  0  0  0  0  0
   -1.0779   -1.3862   -4.7857 H   0  0  0  0  0  0  0  0  0  0  0  0
   -1.6979   -0.2663   -3.7730 H   0  0  0  0  0  0  0  0  0  0  0  0
    0.3574   -0.3317   -3.7567 C   0  0  0  0  0  0  0  0  0  0  0  0
    0.4224    0.1381   -2.8719 H   0  0  0  0  0  0  0  0  0  0  0  0
    1.0634   -1.0442   -3.7975 H   0  0  0  0  0  0  0  0  0  0  0  0
    0.5690    0.3955   -4.5406 H   0  0  0  0  0  0  0  0  0  0  0  0
  1  5  1  0
  5  6  1  0
  5  7  2  0
  1  2  1  0
  1  3  1  0
  1  4  1  0
  8 12  1  0
 12 15  1  0
  8  9  1  0
  8 10  1  0
  8 11  1  0
 12 13  1  0
 12 14  1  0
 15 16  1  0
 15 17  1  0
 15 18  1  0
M  CHG  1   6  -1
M  END
>  <PDB_ID>  (91) 
pdb1a69

>  <RESIDUE_NAME>  (91) 
ASP   ARG

>  <FRAG_NAME>  (91) 
ACET   PRPA

>  <FRAG_ATOM_NUM>  (91) 
fragi: 7  fragj: 11

>  <atom.prop.CHAIN_ID>  (91) 
A A A A A A A Z Z Z Z Z Z Z Z Z Z Z

>  <atom.prop.IS_HEAVY_ATOM>  (91) 
1 0 0 0 1 1 1 1 0 0 0 1 0 0 1 0 0 0

>  <DIFUSE_FUNC_ATOM>  (91) 
atom 6   atom 7   

>  <FINAL_SINGLE_POINT_ENERGY>  (91) 
0

>  <NONCOV_INTER_ENERGY_QM>  (91) 
0

>  <FF_Energy>  (91) 
5.58

>  <QM_Energy>  (91) 
-4.29

>  <Index>  (91) 
7400

$$$$
ACET-pdb1aa2-A-ASP-6:PRPA-pdb1aa2-A-LYS-2
     RDKit          3D

 18 16  0  0  0  0  0  0  0  0999 V2000
   -0.0893    1.4706   -0.1584 C   0  0  0  0  0  0  0  0  0  0  0  0
    0.6276    1.7851   -0.7721 H   0  0  0  0  0  0  0  0  0  0  0  0
   -0.0010    1.9089    0.7292 H   0  0  0  0  0  0  0  0  0  0  0  0
   -1.0450    1.7769   -0.5836 H   0  0  0  0  0  0  0  0  0  0  0  0
    0.0000    0.0000    0.0000 C   0  0  0  0  0  0  0  0  0  0  0  0
   -1.1096   -0.6475    0.0000 O   0  0  0  0  0  1  0  0  0  0  0  0
    1.1096   -0.5322   -0.0000 O   0  0  0  0  0  0  0  0  0  0  0  0
    2.4039   -2.3016   -3.3120 C   0  0  0  0  0  0  0  0  0  0  0  0
    1.8434   -3.0922   -3.1061 H   0  0  0  0  0  0  0  0  0  0  0  0
    3.1822   -2.5542   -3.8713 H   0  0  0  0  0  0  0  0  0  0  0  0
    1.7958   -1.5998   -3.8826 H   0  0  0  0  0  0  0  0  0  0  0  0
    2.9192   -1.7147   -1.9969 C   0  0  0  0  0  0  0  0  0  0  0  0
    2.2379   -1.0661   -1.6420 H   0  0  0  0  0  0  0  0  0  0  0  0
    3.0341   -2.4586   -1.3311 H   0  0  0  0  0  0  0  0  0  0  0  0
    4.2551   -0.9849   -2.1504 C   0  0  0  0  0  0  0  0  0  0  0  0
    4.9804   -1.6640   -2.2587 H   0  0  0  0  0  0  0  0  0  0  0  0
    4.2134   -0.4058   -2.9632 H   0  0  0  0  0  0  0  0  0  0  0  0
    4.4984   -0.3568   -1.2934 H   0  0  0  0  0  0  0  0  0  0  0  0
  1  5  1  0
  5  6  1  0
  5  7  2  0
  1  2  1  0
  1  3  1  0
  1  4  1  0
  8 12  1  0
 12 15  1  0
  8  9  1  0
  8 10  1  0
  8 11  1  0
 12 13  1  0
 12 14  1  0
 15 16  1  0
 15 17  1  0
 15 18  1  0
M  CHG  1   6  -1
M  END
>  <PDB_ID>  (92) 
pdb1aa2

>  <RESIDUE_NAME>  (92) 
ASP   LYS

>  <FRAG_NAME>  (92) 
ACET   PRPA

>  <FRAG_ATOM_NUM>  (92) 
fragi: 7  fragj: 11

>  <atom.prop.CHAIN_ID>  (92) 
A A A A A A A Z Z Z Z Z Z Z Z Z Z Z

>  <atom.prop.IS_HEAVY_ATOM>  (92) 
1 0 0 0 1 1 1 1 0 0 0 1 0 0 1 0 0 0

>  <DIFUSE_FUNC_ATOM>  (92) 
atom 6   atom 7   

>  <FINAL_SINGLE_POINT_ENERGY>  (92) 
0

>  <NONCOV_INTER_ENERGY_QM>  (92) 
0

>  <FF_Energy>  (92) 
6.84

>  <QM_Energy>  (92) 
-1.66

>  <Index>  (92) 
7432

$$$$
ACET-pdb2a9f-A-ASP-82:PRPA-pdb2a9f-A-LYS-115
     RDKit          3D

 18 16  0  0  0  0  0  0  0  0999 V2000
    0.0191    1.5198   -0.0177 C   0  0  0  0  0  0  0  0  0  0  0  0
    0.0387    1.8263   -0.9627 H   0  0  0  0  0  0  0  0  0  0  0  0
    0.8268    1.8341    0.4676 H   0  0  0  0  0  0  0  0  0  0  0  0
   -0.8561    1.9581    0.4621 H   0  0  0  0  0  0  0  0  0  0  0  0
    0.0000    0.0000    0.0000 C   0  0  0  0  0  0  0  0  0  0  0  0
   -1.1031   -0.5998    0.0000 O   0  0  0  0  0  1  0  0  0  0  0  0
    1.1031   -0.5914    0.0000 O   0  0  0  0  0  0  0  0  0  0  0  0
    0.3672   -4.4493   -3.3014 C   0  0  0  0  0  0  0  0  0  0  0  0
   -0.5457   -4.0497   -3.3493 H   0  0  0  0  0  0  0  0  0  0  0  0
    0.3430   -5.2842   -2.7569 H   0  0  0  0  0  0  0  0  0  0  0  0
    0.7087   -4.6858   -4.3092 H   0  0  0  0  0  0  0  0  0  0  0  0
    1.3045   -3.4667   -2.6597 C   0  0  0  0  0  0  0  0  0  0  0  0
    2.1872   -3.9096   -2.5145 H   0  0  0  0  0  0  0  0  0  0  0  0
    1.4150   -2.6811   -3.2653 H   0  0  0  0  0  0  0  0  0  0  0  0
    0.7719   -2.9987   -1.3471 C   0  0  0  0  0  0  0  0  0  0  0  0
    1.3525   -2.2652   -0.9956 H   0  0  0  0  0  0  0  0  0  0  0  0
   -0.1599   -2.6571   -1.4684 H   0  0  0  0  0  0  0  0  0  0  0  0
    0.7660   -3.8289   -0.6408 H   0  0  0  0  0  0  0  0  0  0  0  0
  1  5  1  0
  5  6  1  0
  5  7  2  0
  1  2  1  0
  1  3  1  0
  1  4  1  0
  8 12  1  0
 12 15  1  0
  8  9  1  0
  8 10  1  0
  8 11  1  0
 12 13  1  0
 12 14  1  0
 15 16  1  0
 15 17  1  0
 15 18  1  0
M  CHG  1   6  -1
M  END
>  <PDB_ID>  (93) 
pdb2a9f

>  <RESIDUE_NAME>  (93) 
ASP   LYS

>  <FRAG_NAME>  (93) 
ACET   PRPA

>  <FRAG_ATOM_NUM>  (93) 
fragi: 7  fragj: 11

>  <atom.prop.CHAIN_ID>  (93) 
A A A A A A A Z Z Z Z Z Z Z Z Z Z Z

>  <atom.prop.IS_HEAVY_ATOM>  (93) 
1 0 0 0 1 1 1 1 0 0 0 1 0 0 1 0 0 0

>  <DIFUSE_FUNC_ATOM>  (93) 
atom 6   atom 7   

>  <FINAL_SINGLE_POINT_ENERGY>  (93) 
0

>  <NONCOV_INTER_ENERGY_QM>  (93) 
0

>  <FF_Energy>  (93) 
12.93

>  <QM_Energy>  (93) 
0.25

>  <Index>  (93) 
7444

$$$$
ACET-pdb1a49-A-GLU-383:PRPA-pdb1a49-A-PRO-38
     RDKit          3D

 18 16  0  0  0  0  0  0  0  0999 V2000
   -0.2353    1.4767    0.0509 C   0  0  0  0  0  0  0  0  0  0  0  0
   -0.5333    1.7740   -0.8410 H   0  0  0  0  0  0  0  0  0  0  0  0
    0.6073    1.9145    0.3176 H   0  0  0  0  0  0  0  0  0  0  0  0
   -1.0019    1.7690    0.7684 H   0  0  0  0  0  0  0  0  0  0  0  0
    0.0000    0.0000    0.0000 C   0  0  0  0  0  0  0  0  0  0  0  0
   -1.1173   -0.6853    0.0000 O   0  0  0  0  0  1  0  0  0  0  0  0
    1.1173   -0.5053   -0.0000 O   0  0  0  0  0  0  0  0  0  0  0  0
    0.7306   -2.0969    4.0928 C   0  0  0  0  0  0  0  0  0  0  0  0
    0.0296   -2.6172    4.6131 H   0  0  0  0  0  0  0  0  0  0  0  0
    0.6379   -1.1222    4.3629 H   0  0  0  0  0  0  0  0  0  0  0  0
    1.7326   -2.4695    4.3053 H   0  0  0  0  0  0  0  0  0  0  0  0
    0.4892   -2.2475    2.6085 C   0  0  0  0  0  0  0  0  0  0  0  0
   -0.3095   -2.8508    2.4493 H   0  0  0  0  0  0  0  0  0  0  0  0
    0.2720   -1.3452    2.2030 H   0  0  0  0  0  0  0  0  0  0  0  0
    1.7330   -2.8279    1.9984 C   0  0  0  0  0  0  0  0  0  0  0  0
    1.5500   -3.7152    1.5644 H   0  0  0  0  0  0  0  0  0  0  0  0
    2.1289   -2.2095    1.3109 H   0  0  0  0  0  0  0  0  0  0  0  0
    2.4178   -2.9501    2.8375 H   0  0  0  0  0  0  0  0  0  0  0  0
  1  5  1  0
  5  6  1  0
  5  7  2  0
  1  2  1  0
  1  3  1  0
  1  4  1  0
  8 12  1  0
 12 15  1  0
  8  9  1  0
  8 10  1  0
  8 11  1  0
 12 13  1  0
 12 14  1  0
 15 16  1  0
 15 17  1  0
 15 18  1  0
M  CHG  1   6  -1
M  END
>  <PDB_ID>  (94) 
pdb1a49

>  <RESIDUE_NAME>  (94) 
GLU   PRO

>  <FRAG_NAME>  (94) 
ACET   PRPA

>  <FRAG_ATOM_NUM>  (94) 
fragi: 7  fragj: 11

>  <atom.prop.CHAIN_ID>  (94) 
A A A A A A A Z Z Z Z Z Z Z Z Z Z Z

>  <atom.prop.IS_HEAVY_ATOM>  (94) 
1 0 0 0 1 1 1 1 0 0 0 1 0 0 1 0 0 0

>  <DIFUSE_FUNC_ATOM>  (94) 
atom 6   atom 7   

>  <FINAL_SINGLE_POINT_ENERGY>  (94) 
0

>  <NONCOV_INTER_ENERGY_QM>  (94) 
0

>  <FF_Energy>  (94) 
2.11

>  <QM_Energy>  (94) 
-4.38

>  <Index>  (94) 
7495

$$$$
ACET-pdb2a8x-A-ASP-78:PRPA-pdb2a8x-A-ILE-81
     RDKit          3D

 18 16  0  0  0  0  0  0  0  0999 V2000
   -0.0087    1.5137   -0.0063 C   0  0  0  0  0  0  0  0  0  0  0  0
   -0.0690    1.8312   -0.9453 H   0  0  0  0  0  0  0  0  0  0  0  0
    0.8241    1.8429    0.4210 H   0  0  0  0  0  0  0  0  0  0  0  0
   -0.8531    1.9308    0.5423 H   0  0  0  0  0  0  0  0  0  0  0  0
    0.0000    0.0000    0.0000 C   0  0  0  0  0  0  0  0  0  0  0  0
   -1.0923   -0.6015   -0.0000 O   0  0  0  0  0  1  0  0  0  0  0  0
    1.0923   -0.5974   -0.0000 O   0  0  0  0  0  0  0  0  0  0  0  0
    3.3287    0.4652    1.6158 C   0  0  0  0  0  0  0  0  0  0  0  0
    2.4853    0.1168    1.2063 H   0  0  0  0  0  0  0  0  0  0  0  0
    3.6187    1.2737    1.1021 H   0  0  0  0  0  0  0  0  0  0  0  0
    4.1036   -0.2974    1.5376 H   0  0  0  0  0  0  0  0  0  0  0  0
    3.0247    0.8972    3.0508 C   0  0  0  0  0  0  0  0  0  0  0  0
    2.2608    1.5292    3.0331 H   0  0  0  0  0  0  0  0  0  0  0  0
    2.7223    0.0377    3.6490 H   0  0  0  0  0  0  0  0  0  0  0  0
    4.2546    1.5633    3.6545 C   0  0  0  0  0  0  0  0  0  0  0  0
    4.4998    2.3642    3.1112 H   0  0  0  0  0  0  0  0  0  0  0  0
    4.0542    1.8447    4.5909 H   0  0  0  0  0  0  0  0  0  0  0  0
    5.0156    0.9176    3.6569 H   0  0  0  0  0  0  0  0  0  0  0  0
  1  5  1  0
  5  6  1  0
  5  7  2  0
  1  2  1  0
  1  3  1  0
  1  4  1  0
  8 12  1  0
 12 15  1  0
  8  9  1  0
  8 10  1  0
  8 11  1  0
 12 13  1  0
 12 14  1  0
 15 16  1  0
 15 17  1  0
 15 18  1  0
M  CHG  1   6  -1
M  END
>  <PDB_ID>  (95) 
pdb2a8x

>  <RESIDUE_NAME>  (95) 
ASP   ILE

>  <FRAG_NAME>  (95) 
ACET   PRPA

>  <FRAG_ATOM_NUM>  (95) 
fragi: 7  fragj: 11

>  <atom.prop.CHAIN_ID>  (95) 
A A A A A A A Z Z Z Z Z Z Z Z Z Z Z

>  <atom.prop.IS_HEAVY_ATOM>  (95) 
1 0 0 0 1 1 1 1 0 0 0 1 0 0 1 0 0 0

>  <DIFUSE_FUNC_ATOM>  (95) 
atom 6   atom 7   

>  <FINAL_SINGLE_POINT_ENERGY>  (95) 
0

>  <NONCOV_INTER_ENERGY_QM>  (95) 
0

>  <FF_Energy>  (95) 
12.4

>  <QM_Energy>  (95) 
-1.46

>  <Index>  (95) 
7737

$$$$
ACET-pdb2afc-A-ASP-88:PRPA-pdb2afc-A-LEU-92
     RDKit          3D

 18 16  0  0  0  0  0  0  0  0999 V2000
   -0.0143    1.5117    0.0116 C   0  0  0  0  0  0  0  0  0  0  0  0
   -0.3540    1.8246    0.8921 H   0  0  0  0  0  0  0  0  0  0  0  0
   -0.6027    1.8349   -0.7218 H   0  0  0  0  0  0  0  0  0  0  0  0
    0.9744    1.9457   -0.1375 H   0  0  0  0  0  0  0  0  0  0  0  0
    0.0000    0.0000    0.0000 C   0  0  0  0  0  0  0  0  0  0  0  0
   -1.0984   -0.5891    0.0000 O   0  0  0  0  0  1  0  0  0  0  0  0
    1.0984   -0.5993    0.0000 O   0  0  0  0  0  0  0  0  0  0  0  0
    1.7787   -3.2158   -1.9869 C   0  0  0  0  0  0  0  0  0  0  0  0
    2.0244   -4.1801   -2.1562 H   0  0  0  0  0  0  0  0  0  0  0  0
    2.4786   -2.8035   -1.2602 H   0  0  0  0  0  0  0  0  0  0  0  0
    1.8192   -2.6782   -2.9343 H   0  0  0  0  0  0  0  0  0  0  0  0
    0.3547   -3.1539   -1.4309 C   0  0  0  0  0  0  0  0  0  0  0  0
    0.3481   -3.6497   -0.5558 H   0  0  0  0  0  0  0  0  0  0  0  0
    0.1382   -2.1886   -1.2551 H   0  0  0  0  0  0  0  0  0  0  0  0
   -0.7782   -3.7247   -2.2811 C   0  0  0  0  0  0  0  0  0  0  0  0
   -0.7739   -3.2800   -3.1730 H   0  0  0  0  0  0  0  0  0  0  0  0
   -0.6399   -4.7979   -2.4124 H   0  0  0  0  0  0  0  0  0  0  0  0
   -1.7284   -3.5158   -1.7893 H   0  0  0  0  0  0  0  0  0  0  0  0
  1  5  1  0
  5  6  1  0
  5  7  2  0
  1  2  1  0
  1  3  1  0
  1  4  1  0
  8 12  1  0
 12 15  1  0
  8  9  1  0
  8 10  1  0
  8 11  1  0
 12 13  1  0
 12 14  1  0
 15 16  1  0
 15 17  1  0
 15 18  1  0
M  CHG  1   6  -1
M  END
>  <PDB_ID>  (96) 
pdb2afc

>  <RESIDUE_NAME>  (96) 
ASP   LEU

>  <FRAG_NAME>  (96) 
ACET   PRPA

>  <FRAG_ATOM_NUM>  (96) 
fragi: 7  fragj: 11

>  <atom.prop.CHAIN_ID>  (96) 
A A A A A A A Z Z Z Z Z Z Z Z Z Z Z

>  <atom.prop.IS_HEAVY_ATOM>  (96) 
1 0 0 0 1 1 1 1 0 0 0 1 0 0 1 0 0 0

>  <DIFUSE_FUNC_ATOM>  (96) 
atom 6   atom 7   

>  <FINAL_SINGLE_POINT_ENERGY>  (96) 
0

>  <NONCOV_INTER_ENERGY_QM>  (96) 
0

>  <FF_Energy>  (96) 
4.48

>  <QM_Energy>  (96) 
-3.61

>  <Index>  (96) 
7768

$$$$
ACET-pdb2afc-A-ASP-88:PRPA-pdb2afc-A-LEU-92
     RDKit          3D

 18 16  0  0  0  0  0  0  0  0999 V2000
   -0.0143    1.5117    0.0116 C   0  0  0  0  0  0  0  0  0  0  0  0
   -0.3540    1.8246    0.8921 H   0  0  0  0  0  0  0  0  0  0  0  0
   -0.6027    1.8349   -0.7218 H   0  0  0  0  0  0  0  0  0  0  0  0
    0.9744    1.9457   -0.1375 H   0  0  0  0  0  0  0  0  0  0  0  0
    0.0000    0.0000    0.0000 C   0  0  0  0  0  0  0  0  0  0  0  0
   -1.0984   -0.5891    0.0000 O   0  0  0  0  0  1  0  0  0  0  0  0
    1.0984   -0.5993    0.0000 O   0  0  0  0  0  0  0  0  0  0  0  0
    0.3547   -3.1539   -1.4309 C   0  0  0  0  0  0  0  0  0  0  0  0
    0.3481   -3.6497   -0.5558 H   0  0  0  0  0  0  0  0  0  0  0  0
    0.1382   -2.1886   -1.2551 H   0  0  0  0  0  0  0  0  0  0  0  0
    1.3693   -3.1979   -1.8270 H   0  0  0  0  0  0  0  0  0  0  0  0
   -0.7782   -3.7247   -2.2811 C   0  0  0  0  0  0  0  0  0  0  0  0
   -0.7739   -3.2800   -3.1730 H   0  0  0  0  0  0  0  0  0  0  0  0
   -1.7284   -3.5158   -1.7893 H   0  0  0  0  0  0  0  0  0  0  0  0
   -0.5846   -5.2263   -2.4648 C   0  0  0  0  0  0  0  0  0  0  0  0
   -0.5851   -5.6736   -1.5711 H   0  0  0  0  0  0  0  0  0  0  0  0
   -1.3296   -5.5921   -3.0221 H   0  0  0  0  0  0  0  0  0  0  0  0
    0.2881   -5.3955   -2.9213 H   0  0  0  0  0  0  0  0  0  0  0  0
  1  5  1  0
  5  6  1  0
  5  7  2  0
  1  2  1  0
  1  3  1  0
  1  4  1  0
  8 12  1  0
 12 15  1  0
  8  9  1  0
  8 10  1  0
  8 11  1  0
 12 13  1  0
 12 14  1  0
 15 16  1  0
 15 17  1  0
 15 18  1  0
M  CHG  1   6  -1
M  END
>  <PDB_ID>  (97) 
pdb2afc

>  <RESIDUE_NAME>  (97) 
ASP   LEU

>  <FRAG_NAME>  (97) 
ACET   PRPA

>  <FRAG_ATOM_NUM>  (97) 
fragi: 7  fragj: 11

>  <atom.prop.CHAIN_ID>  (97) 
A A A A A A A Z Z Z Z Z Z Z Z Z Z Z

>  <atom.prop.IS_HEAVY_ATOM>  (97) 
1 0 0 0 1 1 1 1 0 0 0 1 0 0 1 0 0 0

>  <DIFUSE_FUNC_ATOM>  (97) 
atom 6   atom 7   

>  <FINAL_SINGLE_POINT_ENERGY>  (97) 
0

>  <NONCOV_INTER_ENERGY_QM>  (97) 
0

>  <FF_Energy>  (97) 
1.98

>  <QM_Energy>  (97) 
-2.12

>  <Index>  (97) 
7775

$$$$
ACET-pdb2abq-A-GLU-29:PRPA-pdb2abq-A-VAL-17
     RDKit          3D

 18 16  0  0  0  0  0  0  0  0999 V2000
    0.0066    1.5165   -0.0081 C   0  0  0  0  0  0  0  0  0  0  0  0
    0.9412    1.8096   -0.0506 H   0  0  0  0  0  0  0  0  0  0  0  0
   -0.4474    1.8197    0.8068 H   0  0  0  0  0  0  0  0  0  0  0  0
   -0.5208    1.9265   -0.8693 H   0  0  0  0  0  0  0  0  0  0  0  0
    0.0000    0.0000    0.0000 C   0  0  0  0  0  0  0  0  0  0  0  0
   -1.1015   -0.5941    0.0000 O   0  0  0  0  0  1  0  0  0  0  0  0
    1.1015   -0.5961    0.0000 O   0  0  0  0  0  0  0  0  0  0  0  0
    3.8069   -0.4786    0.6875 C   0  0  0  0  0  0  0  0  0  0  0  0
    2.9113   -0.2544    0.3035 H   0  0  0  0  0  0  0  0  0  0  0  0
    3.9378    0.0876    1.6097 H   0  0  0  0  0  0  0  0  0  0  0  0
    3.8168   -1.5420    0.9265 H   0  0  0  0  0  0  0  0  0  0  0  0
    4.9085   -0.1600   -0.3586 C   0  0  0  0  0  0  0  0  0  0  0  0
    4.7498   -0.7422   -1.1433 H   0  0  0  0  0  0  0  0  0  0  0  0
    5.9005   -0.3242    0.0623 H   0  0  0  0  0  0  0  0  0  0  0  0
    4.7604    1.2822   -0.8293 C   0  0  0  0  0  0  0  0  0  0  0  0
    3.9296    1.6766   -0.4378 H   0  0  0  0  0  0  0  0  0  0  0  0
    5.5536    1.8129   -0.5312 H   0  0  0  0  0  0  0  0  0  0  0  0
    4.7007    1.3027   -1.8267 H   0  0  0  0  0  0  0  0  0  0  0  0
  1  5  1  0
  5  6  1  0
  5  7  2  0
  1  2  1  0
  1  3  1  0
  1  4  1  0
  8 12  1  0
 12 15  1  0
  8  9  1  0
  8 10  1  0
  8 11  1  0
 12 13  1  0
 12 14  1  0
 15 16  1  0
 15 17  1  0
 15 18  1  0
M  CHG  1   6  -1
M  END
>  <PDB_ID>  (98) 
pdb2abq

>  <RESIDUE_NAME>  (98) 
GLU   VAL

>  <FRAG_NAME>  (98) 
ACET   PRPA

>  <FRAG_ATOM_NUM>  (98) 
fragi: 7  fragj: 11

>  <atom.prop.CHAIN_ID>  (98) 
A A A A A A A Z Z Z Z Z Z Z Z Z Z Z

>  <atom.prop.IS_HEAVY_ATOM>  (98) 
1 0 0 0 1 1 1 1 0 0 0 1 0 0 1 0 0 0

>  <DIFUSE_FUNC_ATOM>  (98) 
atom 6   atom 7   

>  <FINAL_SINGLE_POINT_ENERGY>  (98) 
0

>  <NONCOV_INTER_ENERGY_QM>  (98) 
0

>  <FF_Energy>  (98) 
27.38

>  <QM_Energy>  (98) 
-0.5

>  <Index>  (98) 
7781

$$$$
ACET-pdb2abq-A-GLU-29:PRPA-pdb2abq-A-VAL-17
     RDKit          3D

 18 16  0  0  0  0  0  0  0  0999 V2000
    0.0066    1.5165   -0.0081 C   0  0  0  0  0  0  0  0  0  0  0  0
    0.9412    1.8096   -0.0506 H   0  0  0  0  0  0  0  0  0  0  0  0
   -0.4474    1.8197    0.8068 H   0  0  0  0  0  0  0  0  0  0  0  0
   -0.5208    1.9265   -0.8693 H   0  0  0  0  0  0  0  0  0  0  0  0
    0.0000    0.0000    0.0000 C   0  0  0  0  0  0  0  0  0  0  0  0
   -1.1015   -0.5941    0.0000 O   0  0  0  0  0  1  0  0  0  0  0  0
    1.1015   -0.5961    0.0000 O   0  0  0  0  0  0  0  0  0  0  0  0
    3.8069   -0.4786    0.6875 C   0  0  0  0  0  0  0  0  0  0  0  0
    2.9113   -0.2544    0.3035 H   0  0  0  0  0  0  0  0  0  0  0  0
    3.9378    0.0876    1.6097 H   0  0  0  0  0  0  0  0  0  0  0  0
    3.8168   -1.5420    0.9265 H   0  0  0  0  0  0  0  0  0  0  0  0
    4.9085   -0.1600   -0.3586 C   0  0  0  0  0  0  0  0  0  0  0  0
    4.7498   -0.7422   -1.1433 H   0  0  0  0  0  0  0  0  0  0  0  0
    4.8026    0.8712   -0.6952 H   0  0  0  0  0  0  0  0  0  0  0  0
    6.2916   -0.3890    0.2283 C   0  0  0  0  0  0  0  0  0  0  0  0
    6.2082   -0.9059    1.0799 H   0  0  0  0  0  0  0  0  0  0  0  0
    6.8467   -0.9049   -0.4240 H   0  0  0  0  0  0  0  0  0  0  0  0
    6.7237    0.4938    0.4125 H   0  0  0  0  0  0  0  0  0  0  0  0
  1  5  1  0
  5  6  1  0
  5  7  2  0
  1  2  1  0
  1  3  1  0
  1  4  1  0
  8 12  1  0
 12 15  1  0
  8  9  1  0
  8 10  1  0
  8 11  1  0
 12 13  1  0
 12 14  1  0
 15 16  1  0
 15 17  1  0
 15 18  1  0
M  CHG  1   6  -1
M  END
>  <PDB_ID>  (99) 
pdb2abq

>  <RESIDUE_NAME>  (99) 
GLU   VAL

>  <FRAG_NAME>  (99) 
ACET   PRPA

>  <FRAG_ATOM_NUM>  (99) 
fragi: 7  fragj: 11

>  <atom.prop.CHAIN_ID>  (99) 
A A A A A A A Z Z Z Z Z Z Z Z Z Z Z

>  <atom.prop.IS_HEAVY_ATOM>  (99) 
1 0 0 0 1 1 1 1 0 0 0 1 0 0 1 0 0 0

>  <DIFUSE_FUNC_ATOM>  (99) 
atom 6   atom 7   

>  <FINAL_SINGLE_POINT_ENERGY>  (99) 
0

>  <NONCOV_INTER_ENERGY_QM>  (99) 
0

>  <FF_Energy>  (99) 
27.35

>  <QM_Energy>  (99) 
0.32

>  <Index>  (99) 
7786

$$$$
ACET-pdb2abq-B-GLU-100:PRPA-pdb2abq-A-VAL-25
     RDKit          3D

 18 16  0  0  0  0  0  0  0  0999 V2000
    0.1741    1.4844    0.0143 C   0  0  0  0  0  0  0  0  0  0  0  0
    0.6930    1.7404   -0.8029 H   0  0  0  0  0  0  0  0  0  0  0  0
    0.7048    1.7232    0.8290 H   0  0  0  0  0  0  0  0  0  0  0  0
   -0.7360    2.0842    0.0262 H   0  0  0  0  0  0  0  0  0  0  0  0
    0.0000    0.0000    0.0000 C   0  0  0  0  0  0  0  0  0  0  0  0
   -1.0896   -0.5580   -0.0000 O   0  0  0  0  0  1  0  0  0  0  0  0
    1.0896   -0.6074   -0.0000 O   0  0  0  0  0  0  0  0  0  0  0  0
   -3.9373   -0.5279    1.6720 C   0  0  0  0  0  0  0  0  0  0  0  0
   -3.2806   -0.8465    0.9870 H   0  0  0  0  0  0  0  0  0  0  0  0
   -4.6389   -1.2282    1.8078 H   0  0  0  0  0  0  0  0  0  0  0  0
   -4.3697    0.3141    1.3489 H   0  0  0  0  0  0  0  0  0  0  0  0
   -3.2204   -0.2628    2.9819 C   0  0  0  0  0  0  0  0  0  0  0  0
   -3.7822   -0.6534    3.7055 H   0  0  0  0  0  0  0  0  0  0  0  0
   -3.1427    0.8096    3.1606 H   0  0  0  0  0  0  0  0  0  0  0  0
   -1.8421   -0.8728    2.9776 C   0  0  0  0  0  0  0  0  0  0  0  0
   -1.2683   -0.4139    3.6591 H   0  0  0  0  0  0  0  0  0  0  0  0
   -1.9042   -1.8484    3.2004 H   0  0  0  0  0  0  0  0  0  0  0  0
   -1.4288   -0.7664    2.0704 H   0  0  0  0  0  0  0  0  0  0  0  0
  1  5  1  0
  5  6  1  0
  5  7  2  0
  1  2  1  0
  1  3  1  0
  1  4  1  0
  8 12  1  0
 12 15  1  0
  8  9  1  0
  8 10  1  0
  8 11  1  0
 12 13  1  0
 12 14  1  0
 15 16  1  0
 15 17  1  0
 15 18  1  0
M  CHG  1   6  -1
M  END
>  <PDB_ID>  (100) 
pdb2abq

>  <RESIDUE_NAME>  (100) 
GLU   VAL

>  <FRAG_NAME>  (100) 
ACET   PRPA

>  <FRAG_ATOM_NUM>  (100) 
fragi: 7  fragj: 11

>  <atom.prop.CHAIN_ID>  (100) 
A A A A A A A Z Z Z Z Z Z Z Z Z Z Z

>  <atom.prop.IS_HEAVY_ATOM>  (100) 
1 0 0 0 1 1 1 1 0 0 0 1 0 0 1 0 0 0

>  <DIFUSE_FUNC_ATOM>  (100) 
atom 6   atom 7   

>  <FINAL_SINGLE_POINT_ENERGY>  (100) 
0

>  <NONCOV_INTER_ENERGY_QM>  (100) 
0

>  <FF_Energy>  (100) 
28.63

>  <QM_Energy>  (100) 
-3.74

>  <Index>  (100) 
7850

$$$$
ACET-pdb2ab5-A-ASP-367:PRPA-pdb2ab5-A-LYS-371
     RDKit          3D

 18 16  0  0  0  0  0  0  0  0999 V2000
   -0.0026    1.5220   -0.0038 C   0  0  0  0  0  0  0  0  0  0  0  0
   -0.2167    1.8374   -0.9195 H   0  0  0  0  0  0  0  0  0  0  0  0
    0.8912    1.8429    0.2796 H   0  0  0  0  0  0  0  0  0  0  0  0
   -0.7435    1.9392    0.6783 H   0  0  0  0  0  0  0  0  0  0  0  0
    0.0000    0.0000    0.0000 C   0  0  0  0  0  0  0  0  0  0  0  0
   -1.0931   -0.5993    0.0000 O   0  0  0  0  0  1  0  0  0  0  0  0
    1.0931   -0.6002    0.0000 O   0  0  0  0  0  0  0  0  0  0  0  0
   -2.3462   -2.5632    3.1137 C   0  0  0  0  0  0  0  0  0  0  0  0
   -2.9645   -3.3453    3.0765 H   0  0  0  0  0  0  0  0  0  0  0  0
   -2.7331   -1.7988    2.6042 H   0  0  0  0  0  0  0  0  0  0  0  0
   -2.2040   -2.2675    4.1531 H   0  0  0  0  0  0  0  0  0  0  0  0
   -1.0230   -2.9499    2.4961 C   0  0  0  0  0  0  0  0  0  0  0  0
   -0.3846   -2.1874    2.5921 H   0  0  0  0  0  0  0  0  0  0  0  0
   -0.6626   -3.7515    2.9716 H   0  0  0  0  0  0  0  0  0  0  0  0
   -1.1565   -3.2838    1.0243 C   0  0  0  0  0  0  0  0  0  0  0  0
   -1.6754   -4.1245    0.9244 H   0  0  0  0  0  0  0  0  0  0  0  0
   -1.6113   -2.5345    0.5578 H   0  0  0  0  0  0  0  0  0  0  0  0
   -0.1627   -3.4218    0.5982 H   0  0  0  0  0  0  0  0  0  0  0  0
  1  5  1  0
  5  6  1  0
  5  7  2  0
  1  2  1  0
  1  3  1  0
  1  4  1  0
  8 12  1  0
 12 15  1  0
  8  9  1  0
  8 10  1  0
  8 11  1  0
 12 13  1  0
 12 14  1  0
 15 16  1  0
 15 17  1  0
 15 18  1  0
M  CHG  1   6  -1
M  END
>  <PDB_ID>  (101) 
pdb2ab5

>  <RESIDUE_NAME>  (101) 
ASP   LYS

>  <FRAG_NAME>  (101) 
ACET   PRPA

>  <FRAG_ATOM_NUM>  (101) 
fragi: 7  fragj: 11

>  <atom.prop.CHAIN_ID>  (101) 
A A A A A A A Z Z Z Z Z Z Z Z Z Z Z

>  <atom.prop.IS_HEAVY_ATOM>  (101) 
1 0 0 0 1 1 1 1 0 0 0 1 0 0 1 0 0 0

>  <DIFUSE_FUNC_ATOM>  (101) 
atom 6   atom 7   

>  <FINAL_SINGLE_POINT_ENERGY>  (101) 
0

>  <NONCOV_INTER_ENERGY_QM>  (101) 
0

>  <FF_Energy>  (101) 
6.48

>  <QM_Energy>  (101) 
-2.89

>  <Index>  (101) 
7931

$$$$
ACET-pdb2abq-A-ASP-249:PRPA-pdb2abq-A-LYS-38
     RDKit          3D

 18 16  0  0  0  0  0  0  0  0999 V2000
    0.0071    1.5291    0.0226 C   0  0  0  0  0  0  0  0  0  0  0  0
    0.9113    1.8434   -0.2442 H   0  0  0  0  0  0  0  0  0  0  0  0
   -0.2089    1.8311    0.9431 H   0  0  0  0  0  0  0  0  0  0  0  0
   -0.7206    1.9691   -0.6593 H   0  0  0  0  0  0  0  0  0  0  0  0
    0.0000    0.0000    0.0000 C   0  0  0  0  0  0  0  0  0  0  0  0
   -1.0954   -0.5981   -0.0000 O   0  0  0  0  0  1  0  0  0  0  0  0
    1.0954   -0.6097   -0.0000 O   0  0  0  0  0  0  0  0  0  0  0  0
   -0.5434   -2.4825    3.0382 C   0  0  0  0  0  0  0  0  0  0  0  0
    0.0568   -2.0013    2.3563 H   0  0  0  0  0  0  0  0  0  0  0  0
    0.0211   -3.3065    3.4746 H   0  0  0  0  0  0  0  0  0  0  0  0
   -0.9187   -1.7422    3.7448 H   0  0  0  0  0  0  0  0  0  0  0  0
   -1.6988   -3.0194    2.1876 C   0  0  0  0  0  0  0  0  0  0  0  0
   -2.0900   -3.8066    2.6533 H   0  0  0  0  0  0  0  0  0  0  0  0
   -2.3813   -2.3000    2.0983 H   0  0  0  0  0  0  0  0  0  0  0  0
   -1.2749   -3.4546    0.7859 C   0  0  0  0  0  0  0  0  0  0  0  0
   -0.8248   -2.6893    0.3313 H   0  0  0  0  0  0  0  0  0  0  0  0
   -0.6446   -4.2238    0.8615 H   0  0  0  0  0  0  0  0  0  0  0  0
   -2.1369   -3.7600    0.1929 H   0  0  0  0  0  0  0  0  0  0  0  0
  1  5  1  0
  5  6  1  0
  5  7  2  0
  1  2  1  0
  1  3  1  0
  1  4  1  0
  8 12  1  0
 12 15  1  0
  8  9  1  0
  8 10  1  0
  8 11  1  0
 12 13  1  0
 12 14  1  0
 15 16  1  0
 15 17  1  0
 15 18  1  0
M  CHG  1   6  -1
M  END
>  <PDB_ID>  (102) 
pdb2abq

>  <RESIDUE_NAME>  (102) 
ASP   LYS

>  <FRAG_NAME>  (102) 
ACET   PRPA

>  <FRAG_ATOM_NUM>  (102) 
fragi: 7  fragj: 11

>  <atom.prop.CHAIN_ID>  (102) 
A A A A A A A Z Z Z Z Z Z Z Z Z Z Z

>  <atom.prop.IS_HEAVY_ATOM>  (102) 
1 0 0 0 1 1 1 1 0 0 0 1 0 0 1 0 0 0

>  <DIFUSE_FUNC_ATOM>  (102) 
atom 6   atom 7   

>  <FINAL_SINGLE_POINT_ENERGY>  (102) 
0

>  <NONCOV_INTER_ENERGY_QM>  (102) 
0

>  <FF_Energy>  (102) 
4.3

>  <QM_Energy>  (102) 
-5.07

>  <Index>  (102) 
7974

$$$$
ACET-pdb2abq-A-ASP-249:PRPA-pdb2abq-A-LYS-38
     RDKit          3D

 18 16  0  0  0  0  0  0  0  0999 V2000
    0.0071    1.5291    0.0226 C   0  0  0  0  0  0  0  0  0  0  0  0
    0.9113    1.8434   -0.2442 H   0  0  0  0  0  0  0  0  0  0  0  0
   -0.2089    1.8311    0.9431 H   0  0  0  0  0  0  0  0  0  0  0  0
   -0.7206    1.9691   -0.6593 H   0  0  0  0  0  0  0  0  0  0  0  0
    0.0000    0.0000    0.0000 C   0  0  0  0  0  0  0  0  0  0  0  0
   -1.0954   -0.5981   -0.0000 O   0  0  0  0  0  1  0  0  0  0  0  0
    1.0954   -0.6097   -0.0000 O   0  0  0  0  0  0  0  0  0  0  0  0
   -1.6988   -3.0194    2.1876 C   0  0  0  0  0  0  0  0  0  0  0  0
   -2.0900   -3.8066    2.6533 H   0  0  0  0  0  0  0  0  0  0  0  0
   -2.3813   -2.3000    2.0983 H   0  0  0  0  0  0  0  0  0  0  0  0
   -0.8766   -2.6373    2.7928 H   0  0  0  0  0  0  0  0  0  0  0  0
   -1.2749   -3.4546    0.7859 C   0  0  0  0  0  0  0  0  0  0  0  0
   -0.8248   -2.6893    0.3313 H   0  0  0  0  0  0  0  0  0  0  0  0
   -0.6446   -4.2238    0.8615 H   0  0  0  0  0  0  0  0  0  0  0  0
   -2.4807   -3.8818   -0.0435 C   0  0  0  0  0  0  0  0  0  0  0  0
   -2.6990   -4.8267    0.1743 H   0  0  0  0  0  0  0  0  0  0  0  0
   -3.2461   -3.2874    0.1754 H   0  0  0  0  0  0  0  0  0  0  0  0
   -2.2723   -3.8070   -1.1108 H   0  0  0  0  0  0  0  0  0  0  0  0
  1  5  1  0
  5  6  1  0
  5  7  2  0
  1  2  1  0
  1  3  1  0
  1  4  1  0
  8 12  1  0
 12 15  1  0
  8  9  1  0
  8 10  1  0
  8 11  1  0
 12 13  1  0
 12 14  1  0
 15 16  1  0
 15 17  1  0
 15 18  1  0
M  CHG  1   6  -1
M  END
>  <PDB_ID>  (103) 
pdb2abq

>  <RESIDUE_NAME>  (103) 
ASP   LYS

>  <FRAG_NAME>  (103) 
ACET   PRPA

>  <FRAG_ATOM_NUM>  (103) 
fragi: 7  fragj: 11

>  <atom.prop.CHAIN_ID>  (103) 
A A A A A A A Z Z Z Z Z Z Z Z Z Z Z

>  <atom.prop.IS_HEAVY_ATOM>  (103) 
1 0 0 0 1 1 1 1 0 0 0 1 0 0 1 0 0 0

>  <DIFUSE_FUNC_ATOM>  (103) 
atom 6   atom 7   

>  <FINAL_SINGLE_POINT_ENERGY>  (103) 
0

>  <NONCOV_INTER_ENERGY_QM>  (103) 
0

>  <FF_Energy>  (103) 
4.65

>  <QM_Energy>  (103) 
-3.74

>  <Index>  (103) 
7983

$$$$
ACET-pdb2afc-A-GLU-142:PRPA-pdb2afc-A-LYS-105
     RDKit          3D

 18 16  0  0  0  0  0  0  0  0999 V2000
    0.0096    1.5278    0.0106 C   0  0  0  0  0  0  0  0  0  0  0  0
    0.8720    1.8171   -0.3634 H   0  0  0  0  0  0  0  0  0  0  0  0
   -0.1053    1.8135    0.9448 H   0  0  0  0  0  0  0  0  0  0  0  0
   -0.7897    1.9667   -0.5866 H   0  0  0  0  0  0  0  0  0  0  0  0
    0.0000    0.0000    0.0000 C   0  0  0  0  0  0  0  0  0  0  0  0
   -1.0901   -0.6125   -0.0000 O   0  0  0  0  0  1  0  0  0  0  0  0
    1.0901   -0.5954    0.0000 O   0  0  0  0  0  0  0  0  0  0  0  0
   -3.4925   -2.2181    2.6647 C   0  0  0  0  0  0  0  0  0  0  0  0
   -4.2266   -2.5331    3.2535 H   0  0  0  0  0  0  0  0  0  0  0  0
   -3.7327   -2.3348    1.7090 H   0  0  0  0  0  0  0  0  0  0  0  0
   -3.2847   -1.1674    2.8668 H   0  0  0  0  0  0  0  0  0  0  0  0
   -2.2403   -3.0636    2.9575 C   0  0  0  0  0  0  0  0  0  0  0  0
   -1.8746   -2.7924    3.8367 H   0  0  0  0  0  0  0  0  0  0  0  0
   -2.4956   -4.0192    2.9549 H   0  0  0  0  0  0  0  0  0  0  0  0
   -1.1683   -2.8397    1.8898 C   0  0  0  0  0  0  0  0  0  0  0  0
   -1.4360   -3.3445    1.0554 H   0  0  0  0  0  0  0  0  0  0  0  0
   -1.1462   -1.8551    1.6583 H   0  0  0  0  0  0  0  0  0  0  0  0
   -0.1703   -3.1564    2.1929 H   0  0  0  0  0  0  0  0  0  0  0  0
  1  5  1  0
  5  6  1  0
  5  7  2  0
  1  2  1  0
  1  3  1  0
  1  4  1  0
  8 12  1  0
 12 15  1  0
  8  9  1  0
  8 10  1  0
  8 11  1  0
 12 13  1  0
 12 14  1  0
 15 16  1  0
 15 17  1  0
 15 18  1  0
M  CHG  1   6  -1
M  END
>  <PDB_ID>  (104) 
pdb2afc

>  <RESIDUE_NAME>  (104) 
GLU   LYS

>  <FRAG_NAME>  (104) 
ACET   PRPA

>  <FRAG_ATOM_NUM>  (104) 
fragi: 7  fragj: 11

>  <atom.prop.CHAIN_ID>  (104) 
A A A A A A A Z Z Z Z Z Z Z Z Z Z Z

>  <atom.prop.IS_HEAVY_ATOM>  (104) 
1 0 0 0 1 1 1 1 0 0 0 1 0 0 1 0 0 0

>  <DIFUSE_FUNC_ATOM>  (104) 
atom 6   atom 7   

>  <FINAL_SINGLE_POINT_ENERGY>  (104) 
0

>  <NONCOV_INTER_ENERGY_QM>  (104) 
0

>  <FF_Energy>  (104) 
6.91

>  <QM_Energy>  (104) 
-1.18

>  <Index>  (104) 
8023

$$$$
ACET-pdb1a49-A-GLU-117:PRPA-pdb1a49-A-LYN-114
     RDKit          3D

 18 16  0  0  0  0  0  0  0  0999 V2000
   -0.3716    1.4974   -0.0486 C   0  0  0  0  0  0  0  0  0  0  0  0
   -0.0435    1.8398   -0.9208 H   0  0  0  0  0  0  0  0  0  0  0  0
    0.1130    1.9297    0.7021 H   0  0  0  0  0  0  0  0  0  0  0  0
   -1.4360    1.7149    0.0407 H   0  0  0  0  0  0  0  0  0  0  0  0
    0.0000    0.0000    0.0000 C   0  0  0  0  0  0  0  0  0  0  0  0
   -1.1176   -0.7656   -0.0000 O   0  0  0  0  0  1  0  0  0  0  0  0
    1.1176   -0.4480    0.0000 O   0  0  0  0  0  0  0  0  0  0  0  0
    2.8782   -0.1580   -2.9936 C   0  0  0  0  0  0  0  0  0  0  0  0
    2.5712   -0.8951   -2.3730 H   0  0  0  0  0  0  0  0  0  0  0  0
    3.3055   -0.5941   -3.8966 H   0  0  0  0  0  0  0  0  0  0  0  0
    2.0209    0.4632   -3.2529 H   0  0  0  0  0  0  0  0  0  0  0  0
    3.9092    0.6216   -2.2094 C   0  0  0  0  0  0  0  0  0  0  0  0
    4.7904    0.4750   -2.6138 H   0  0  0  0  0  0  0  0  0  0  0  0
    3.6506    1.5681   -2.2018 H   0  0  0  0  0  0  0  0  0  0  0  0
    3.9356    0.1143   -0.7916 C   0  0  0  0  0  0  0  0  0  0  0  0
    3.0694    0.3713   -0.3311 H   0  0  0  0  0  0  0  0  0  0  0  0
    3.9814   -0.8983   -0.8011 H   0  0  0  0  0  0  0  0  0  0  0  0
    4.7666    0.4904   -0.1950 H   0  0  0  0  0  0  0  0  0  0  0  0
  1  5  1  0
  5  6  1  0
  5  7  2  0
  1  2  1  0
  1  3  1  0
  1  4  1  0
  8 12  1  0
 12 15  1  0
  8  9  1  0
  8 10  1  0
  8 11  1  0
 12 13  1  0
 12 14  1  0
 15 16  1  0
 15 17  1  0
 15 18  1  0
M  CHG  1   6  -1
M  END
>  <PDB_ID>  (105) 
pdb1a49

>  <RESIDUE_NAME>  (105) 
GLU   LYN

>  <FRAG_NAME>  (105) 
ACET   PRPA

>  <FRAG_ATOM_NUM>  (105) 
fragi: 7  fragj: 11

>  <atom.prop.CHAIN_ID>  (105) 
A A A A A A A Z Z Z Z Z Z Z Z Z Z Z

>  <atom.prop.IS_HEAVY_ATOM>  (105) 
1 0 0 0 1 1 1 1 0 0 0 1 0 0 1 0 0 0

>  <DIFUSE_FUNC_ATOM>  (105) 
atom 6   atom 7   

>  <FINAL_SINGLE_POINT_ENERGY>  (105) 
0

>  <NONCOV_INTER_ENERGY_QM>  (105) 
0

>  <FF_Energy>  (105) 
3.5

>  <QM_Energy>  (105) 
-2.58

>  <Index>  (105) 
8054

$$$$
ACET-pdb1a8h-A-GLU-51:PRPA-pdb1a8h-A-VAL-14
     RDKit          3D

 18 16  0  0  0  0  0  0  0  0999 V2000
    0.0025    1.5102    0.0099 C   0  0  0  0  0  0  0  0  0  0  0  0
    0.7696    1.8119   -0.5323 H   0  0  0  0  0  0  0  0  0  0  0  0
    0.0830    1.8034    0.9488 H   0  0  0  0  0  0  0  0  0  0  0  0
   -0.9033    1.9494   -0.4083 H   0  0  0  0  0  0  0  0  0  0  0  0
    0.0000    0.0000    0.0000 C   0  0  0  0  0  0  0  0  0  0  0  0
   -1.0968   -0.5975    0.0000 O   0  0  0  0  0  1  0  0  0  0  0  0
    1.0968   -0.5888   -0.0000 O   0  0  0  0  0  0  0  0  0  0  0  0
    3.2990    3.5893   -3.7543 C   0  0  0  0  0  0  0  0  0  0  0  0
    4.0743    3.0232   -3.3672 H   0  0  0  0  0  0  0  0  0  0  0  0
    3.2771    4.5290   -3.2024 H   0  0  0  0  0  0  0  0  0  0  0  0
    3.4342    3.6373   -4.8348 H   0  0  0  0  0  0  0  0  0  0  0  0
    2.0247    2.7618   -3.5174 C   0  0  0  0  0  0  0  0  0  0  0  0
    1.9585    2.0985   -4.2547 H   0  0  0  0  0  0  0  0  0  0  0  0
    1.1459    3.4065   -3.5153 H   0  0  0  0  0  0  0  0  0  0  0  0
    2.1531    1.9996   -2.2323 C   0  0  0  0  0  0  0  0  0  0  0  0
    1.6484    1.1345   -2.2917 H   0  0  0  0  0  0  0  0  0  0  0  0
    3.1190    1.7989   -2.0449 H   0  0  0  0  0  0  0  0  0  0  0  0
    1.7811    2.5395   -1.4723 H   0  0  0  0  0  0  0  0  0  0  0  0
  1  5  1  0
  5  6  1  0
  5  7  2  0
  1  2  1  0
  1  3  1  0
  1  4  1  0
  8 12  1  0
 12 15  1  0
  8  9  1  0
  8 10  1  0
  8 11  1  0
 12 13  1  0
 12 14  1  0
 15 16  1  0
 15 17  1  0
 15 18  1  0
M  CHG  1   6  -1
M  END
>  <PDB_ID>  (106) 
pdb1a8h

>  <RESIDUE_NAME>  (106) 
GLU   VAL

>  <FRAG_NAME>  (106) 
ACET   PRPA

>  <FRAG_ATOM_NUM>  (106) 
fragi: 7  fragj: 11

>  <atom.prop.CHAIN_ID>  (106) 
A A A A A A A Z Z Z Z Z Z Z Z Z Z Z

>  <atom.prop.IS_HEAVY_ATOM>  (106) 
1 0 0 0 1 1 1 1 0 0 0 1 0 0 1 0 0 0

>  <DIFUSE_FUNC_ATOM>  (106) 
atom 6   atom 7   

>  <FINAL_SINGLE_POINT_ENERGY>  (106) 
0

>  <NONCOV_INTER_ENERGY_QM>  (106) 
0

>  <FF_Energy>  (106) 
1.63

>  <QM_Energy>  (106) 
4.07

>  <Index>  (106) 
8221

$$$$
ACET-pdb1a8y-A-GLU-92:PRPA-pdb1a8y-A-GLU-39
     RDKit          3D

 18 16  0  0  0  0  0  0  0  0999 V2000
    0.0147    1.5350   -0.0197 C   0  0  0  0  0  0  0  0  0  0  0  0
   -0.6917    1.8249   -0.6513 H   0  0  0  0  0  0  0  0  0  0  0  0
    0.9110    1.8132   -0.3396 H   0  0  0  0  0  0  0  0  0  0  0  0
   -0.1692    2.0181    0.9399 H   0  0  0  0  0  0  0  0  0  0  0  0
    0.0000    0.0000    0.0000 C   0  0  0  0  0  0  0  0  0  0  0  0
   -1.0789   -0.5938    0.0000 O   0  0  0  0  0  1  0  0  0  0  0  0
    1.0789   -0.6000    0.0000 O   0  0  0  0  0  0  0  0  0  0  0  0
    2.2274   -1.4986   -3.2817 C   0  0  0  0  0  0  0  0  0  0  0  0
    1.4690   -2.1181   -3.1172 H   0  0  0  0  0  0  0  0  0  0  0  0
    2.7779   -1.3276   -2.3567 H   0  0  0  0  0  0  0  0  0  0  0  0
    2.9145   -1.9467   -3.9995 H   0  0  0  0  0  0  0  0  0  0  0  0
    1.7692   -0.2039   -3.9106 C   0  0  0  0  0  0  0  0  0  0  0  0
    2.5558    0.4318   -3.9052 H   0  0  0  0  0  0  0  0  0  0  0  0
    1.5381   -0.3987   -4.8752 H   0  0  0  0  0  0  0  0  0  0  0  0
    0.5965    0.5409   -3.3172 C   0  0  0  0  0  0  0  0  0  0  0  0
    0.6795    0.5217   -2.3319 H   0  0  0  0  0  0  0  0  0  0  0  0
    0.6065    1.4685   -3.6596 H   0  0  0  0  0  0  0  0  0  0  0  0
   -0.3744    0.1140   -3.5686 H   0  0  0  0  0  0  0  0  0  0  0  0
  1  5  1  0
  5  6  1  0
  5  7  2  0
  1  2  1  0
  1  3  1  0
  1  4  1  0
  8 12  1  0
 12 15  1  0
  8  9  1  0
  8 10  1  0
  8 11  1  0
 12 13  1  0
 12 14  1  0
 15 16  1  0
 15 17  1  0
 15 18  1  0
M  CHG  1   6  -1
M  END
>  <PDB_ID>  (107) 
pdb1a8y

>  <RESIDUE_NAME>  (107) 
GLU   GLU

>  <FRAG_NAME>  (107) 
ACET   PRPA

>  <FRAG_ATOM_NUM>  (107) 
fragi: 7  fragj: 11

>  <atom.prop.CHAIN_ID>  (107) 
A A A A A A A Z Z Z Z Z Z Z Z Z Z Z

>  <atom.prop.IS_HEAVY_ATOM>  (107) 
1 0 0 0 1 1 1 1 0 0 0 1 0 0 1 0 0 0

>  <DIFUSE_FUNC_ATOM>  (107) 
atom 6   atom 7   

>  <FINAL_SINGLE_POINT_ENERGY>  (107) 
0

>  <NONCOV_INTER_ENERGY_QM>  (107) 
0

>  <FF_Energy>  (107) 
2.43

>  <QM_Energy>  (107) 
-3.16

>  <Index>  (107) 
8383

$$$$
ACET-pdb1aac-A-ASP-89:PRPA-pdb1aac-A-LYS-101
     RDKit          3D

 18 16  0  0  0  0  0  0  0  0999 V2000
    0.0380    1.5111   -0.0041 C   0  0  0  0  0  0  0  0  0  0  0  0
    0.8413    1.8032   -0.5397 H   0  0  0  0  0  0  0  0  0  0  0  0
    0.1646    1.8250    0.9456 H   0  0  0  0  0  0  0  0  0  0  0  0
   -0.8452    2.0009   -0.4141 H   0  0  0  0  0  0  0  0  0  0  0  0
    0.0000    0.0000    0.0000 C   0  0  0  0  0  0  0  0  0  0  0  0
   -1.0680   -0.5934   -0.0000 O   0  0  0  0  0  1  0  0  0  0  0  0
    1.0680   -0.5950   -0.0000 O   0  0  0  0  0  0  0  0  0  0  0  0
   -5.0229    1.2610    0.8428 C   0  0  0  0  0  0  0  0  0  0  0  0
   -4.3932    1.8852    0.3908 H   0  0  0  0  0  0  0  0  0  0  0  0
   -5.1607    1.5728    1.8781 H   0  0  0  0  0  0  0  0  0  0  0  0
   -5.9937    1.3233    0.3510 H   0  0  0  0  0  0  0  0  0  0  0  0
   -4.4904   -0.1629    0.7438 C   0  0  0  0  0  0  0  0  0  0  0  0
   -5.1529   -0.7784    1.1688 H   0  0  0  0  0  0  0  0  0  0  0  0
   -4.3921   -0.3958   -0.2239 H   0  0  0  0  0  0  0  0  0  0  0  0
   -3.1404   -0.3776    1.4233 C   0  0  0  0  0  0  0  0  0  0  0  0
   -2.4655    0.2274    1.0008 H   0  0  0  0  0  0  0  0  0  0  0  0
   -3.2263   -0.1552    2.3936 H   0  0  0  0  0  0  0  0  0  0  0  0
   -2.8015   -1.4088    1.3247 H   0  0  0  0  0  0  0  0  0  0  0  0
  1  5  1  0
  5  6  1  0
  5  7  2  0
  1  2  1  0
  1  3  1  0
  1  4  1  0
  8 12  1  0
 12 15  1  0
  8  9  1  0
  8 10  1  0
  8 11  1  0
 12 13  1  0
 12 14  1  0
 15 16  1  0
 15 17  1  0
 15 18  1  0
M  CHG  1   6  -1
M  END
>  <PDB_ID>  (108) 
pdb1aac

>  <RESIDUE_NAME>  (108) 
ASP   LYS

>  <FRAG_NAME>  (108) 
ACET   PRPA

>  <FRAG_ATOM_NUM>  (108) 
fragi: 7  fragj: 11

>  <atom.prop.CHAIN_ID>  (108) 
A A A A A A A Z Z Z Z Z Z Z Z Z Z Z

>  <atom.prop.IS_HEAVY_ATOM>  (108) 
1 0 0 0 1 1 1 1 0 0 0 1 0 0 1 0 0 0

>  <DIFUSE_FUNC_ATOM>  (108) 
atom 6   atom 7   

>  <FINAL_SINGLE_POINT_ENERGY>  (108) 
0

>  <NONCOV_INTER_ENERGY_QM>  (108) 
0

>  <FF_Energy>  (108) 
29.37

>  <QM_Energy>  (108) 
5.89

>  <Index>  (108) 
8508

$$$$
ACET-pdb2a9f-A-ASP-113:PRPA-pdb2a9f-A-PRO-85
     RDKit          3D

 18 16  0  0  0  0  0  0  0  0999 V2000
    0.0086    1.5164   -0.0086 C   0  0  0  0  0  0  0  0  0  0  0  0
   -0.6760    1.8461    0.6309 H   0  0  0  0  0  0  0  0  0  0  0  0
   -0.1916    1.8351   -0.9270 H   0  0  0  0  0  0  0  0  0  0  0  0
    0.9691    1.9380    0.2878 H   0  0  0  0  0  0  0  0  0  0  0  0
    0.0000    0.0000    0.0000 C   0  0  0  0  0  0  0  0  0  0  0  0
   -1.1021   -0.5988    0.0000 O   0  0  0  0  0  1  0  0  0  0  0  0
    1.1021   -0.5906   -0.0000 O   0  0  0  0  0  0  0  0  0  0  0  0
    0.4976    5.7388   -3.9303 C   0  0  0  0  0  0  0  0  0  0  0  0
    1.3048    6.3675   -3.8101 H   0  0  0  0  0  0  0  0  0  0  0  0
   -0.2865    5.9911   -3.2162 H   0  0  0  0  0  0  0  0  0  0  0  0
    0.2078    5.7122   -4.9807 H   0  0  0  0  0  0  0  0  0  0  0  0
    1.0254    4.3952   -3.4045 C   0  0  0  0  0  0  0  0  0  0  0  0
    1.2864    3.7964   -4.1524 H   0  0  0  0  0  0  0  0  0  0  0  0
    1.7860    4.5281   -2.7806 H   0  0  0  0  0  0  0  0  0  0  0  0
   -0.1764    3.8176   -2.6590 C   0  0  0  0  0  0  0  0  0  0  0  0
   -0.8260    3.4481   -3.3080 H   0  0  0  0  0  0  0  0  0  0  0  0
    0.1288    3.1226   -2.0237 H   0  0  0  0  0  0  0  0  0  0  0  0
   -0.5696    4.6947   -2.1450 H   0  0  0  0  0  0  0  0  0  0  0  0
  1  5  1  0
  5  6  1  0
  5  7  2  0
  1  2  1  0
  1  3  1  0
  1  4  1  0
  8 12  1  0
 12 15  1  0
  8  9  1  0
  8 10  1  0
  8 11  1  0
 12 13  1  0
 12 14  1  0
 15 16  1  0
 15 17  1  0
 15 18  1  0
M  CHG  1   6  -1
M  END
>  <PDB_ID>  (109) 
pdb2a9f

>  <RESIDUE_NAME>  (109) 
ASP   PRO

>  <FRAG_NAME>  (109) 
ACET   PRPA

>  <FRAG_ATOM_NUM>  (109) 
fragi: 7  fragj: 11

>  <atom.prop.CHAIN_ID>  (109) 
A A A A A A A Z Z Z Z Z Z Z Z Z Z Z

>  <atom.prop.IS_HEAVY_ATOM>  (109) 
1 0 0 0 1 1 1 1 0 0 0 1 0 0 1 0 0 0

>  <DIFUSE_FUNC_ATOM>  (109) 
atom 6   atom 7   

>  <FINAL_SINGLE_POINT_ENERGY>  (109) 
0

>  <NONCOV_INTER_ENERGY_QM>  (109) 
0

>  <FF_Energy>  (109) 
4.58

>  <QM_Energy>  (109) 
1.15

>  <Index>  (109) 
8556

$$$$
ACET-pdb2abq-A-GLU-98:PRPA-pdb2abq-A-LYS-94
     RDKit          3D

 18 16  0  0  0  0  0  0  0  0999 V2000
    0.0115    1.5233    0.0007 C   0  0  0  0  0  0  0  0  0  0  0  0
   -0.4731    1.8217   -0.8020 H   0  0  0  0  0  0  0  0  0  0  0  0
    0.9530    1.8108   -0.0065 H   0  0  0  0  0  0  0  0  0  0  0  0
   -0.4737    1.9570    0.8751 H   0  0  0  0  0  0  0  0  0  0  0  0
    0.0000    0.0000    0.0000 C   0  0  0  0  0  0  0  0  0  0  0  0
   -1.1005   -0.6002    0.0000 O   0  0  0  0  0  1  0  0  0  0  0  0
    1.1005   -0.5918   -0.0000 O   0  0  0  0  0  0  0  0  0  0  0  0
   -2.8192   -3.8080   -0.1383 C   0  0  0  0  0  0  0  0  0  0  0  0
   -3.5708   -4.3660    0.2258 H   0  0  0  0  0  0  0  0  0  0  0  0
   -2.0995   -4.4168   -0.4820 H   0  0  0  0  0  0  0  0  0  0  0  0
   -3.1979   -3.2113   -0.9681 H   0  0  0  0  0  0  0  0  0  0  0  0
   -2.2496   -2.9541    0.9862 C   0  0  0  0  0  0  0  0  0  0  0  0
   -1.6219   -2.2854    0.5958 H   0  0  0  0  0  0  0  0  0  0  0  0
   -2.9984   -2.4903    1.4507 H   0  0  0  0  0  0  0  0  0  0  0  0
   -1.4913   -3.7910    2.0080 C   0  0  0  0  0  0  0  0  0  0  0  0
   -1.2834   -3.2201    2.8068 H   0  0  0  0  0  0  0  0  0  0  0  0
   -2.0724   -4.5563    2.2983 H   0  0  0  0  0  0  0  0  0  0  0  0
   -0.5599   -4.1876    1.6038 H   0  0  0  0  0  0  0  0  0  0  0  0
  1  5  1  0
  5  6  1  0
  5  7  2  0
  1  2  1  0
  1  3  1  0
  1  4  1  0
  8 12  1  0
 12 15  1  0
  8  9  1  0
  8 10  1  0
  8 11  1  0
 12 13  1  0
 12 14  1  0
 15 16  1  0
 15 17  1  0
 15 18  1  0
M  CHG  1   6  -1
M  END
>  <PDB_ID>  (110) 
pdb2abq

>  <RESIDUE_NAME>  (110) 
GLU   LYS

>  <FRAG_NAME>  (110) 
ACET   PRPA

>  <FRAG_ATOM_NUM>  (110) 
fragi: 7  fragj: 11

>  <atom.prop.CHAIN_ID>  (110) 
A A A A A A A Z Z Z Z Z Z Z Z Z Z Z

>  <atom.prop.IS_HEAVY_ATOM>  (110) 
1 0 0 0 1 1 1 1 0 0 0 1 0 0 1 0 0 0

>  <DIFUSE_FUNC_ATOM>  (110) 
atom 6   atom 7   

>  <FINAL_SINGLE_POINT_ENERGY>  (110) 
0

>  <NONCOV_INTER_ENERGY_QM>  (110) 
0

>  <FF_Energy>  (110) 
28.54

>  <QM_Energy>  (110) 
-0.56

>  <Index>  (110) 
8661

$$$$
ACET-pdb2abq-A-GLU-98:PRPA-pdb2abq-A-LYS-94
     RDKit          3D

 18 16  0  0  0  0  0  0  0  0999 V2000
    0.0115    1.5233    0.0007 C   0  0  0  0  0  0  0  0  0  0  0  0
   -0.4731    1.8217   -0.8020 H   0  0  0  0  0  0  0  0  0  0  0  0
    0.9530    1.8108   -0.0065 H   0  0  0  0  0  0  0  0  0  0  0  0
   -0.4737    1.9570    0.8751 H   0  0  0  0  0  0  0  0  0  0  0  0
    0.0000    0.0000    0.0000 C   0  0  0  0  0  0  0  0  0  0  0  0
   -1.1005   -0.6002    0.0000 O   0  0  0  0  0  1  0  0  0  0  0  0
    1.1005   -0.5918   -0.0000 O   0  0  0  0  0  0  0  0  0  0  0  0
   -3.3520   -2.9686   -1.3058 C   0  0  0  0  0  0  0  0  0  0  0  0
   -4.0779   -3.4926   -1.7585 H   0  0  0  0  0  0  0  0  0  0  0  0
   -2.5994   -2.8273   -1.9555 H   0  0  0  0  0  0  0  0  0  0  0  0
   -3.7561   -1.9918   -1.0402 H   0  0  0  0  0  0  0  0  0  0  0  0
   -2.8192   -3.8080   -0.1383 C   0  0  0  0  0  0  0  0  0  0  0  0
   -3.5708   -4.3660    0.2258 H   0  0  0  0  0  0  0  0  0  0  0  0
   -2.0995   -4.4168   -0.4820 H   0  0  0  0  0  0  0  0  0  0  0  0
   -2.2496   -2.9541    0.9862 C   0  0  0  0  0  0  0  0  0  0  0  0
   -1.6219   -2.2854    0.5958 H   0  0  0  0  0  0  0  0  0  0  0  0
   -2.9984   -2.4903    1.4507 H   0  0  0  0  0  0  0  0  0  0  0  0
   -1.7068   -3.5531    1.7175 H   0  0  0  0  0  0  0  0  0  0  0  0
  1  5  1  0
  5  6  1  0
  5  7  2  0
  1  2  1  0
  1  3  1  0
  1  4  1  0
  8 12  1  0
 12 15  1  0
  8  9  1  0
  8 10  1  0
  8 11  1  0
 12 13  1  0
 12 14  1  0
 15 16  1  0
 15 17  1  0
 15 18  1  0
M  CHG  1   6  -1
M  END
>  <PDB_ID>  (111) 
pdb2abq

>  <RESIDUE_NAME>  (111) 
GLU   LYS

>  <FRAG_NAME>  (111) 
ACET   PRPA

>  <FRAG_ATOM_NUM>  (111) 
fragi: 7  fragj: 11

>  <atom.prop.CHAIN_ID>  (111) 
A A A A A A A Z Z Z Z Z Z Z Z Z Z Z

>  <atom.prop.IS_HEAVY_ATOM>  (111) 
1 0 0 0 1 1 1 1 0 0 0 1 0 0 1 0 0 0

>  <DIFUSE_FUNC_ATOM>  (111) 
atom 6   atom 7   

>  <FINAL_SINGLE_POINT_ENERGY>  (111) 
0

>  <NONCOV_INTER_ENERGY_QM>  (111) 
0

>  <FF_Energy>  (111) 
28.87

>  <QM_Energy>  (111) 
-0.54

>  <Index>  (111) 
8664

$$$$
ACET-pdb2abq-A-GLU-18:PRPA-pdb2abq-A-LYS-96
     RDKit          3D

 18 16  0  0  0  0  0  0  0  0999 V2000
    0.0110    1.5303   -0.0051 C   0  0  0  0  0  0  0  0  0  0  0  0
   -0.3799    1.8263   -0.8563 H   0  0  0  0  0  0  0  0  0  0  0  0
    0.9440    1.8190    0.0991 H   0  0  0  0  0  0  0  0  0  0  0  0
   -0.5716    1.9704    0.8041 H   0  0  0  0  0  0  0  0  0  0  0  0
    0.0000    0.0000    0.0000 C   0  0  0  0  0  0  0  0  0  0  0  0
   -1.0980   -0.6004   -0.0000 O   0  0  0  0  0  1  0  0  0  0  0  0
    1.0980   -0.6005    0.0000 O   0  0  0  0  0  0  0  0  0  0  0  0
    3.4271   -0.4358    3.3822 C   0  0  0  0  0  0  0  0  0  0  0  0
    3.2155   -1.2815    2.8926 H   0  0  0  0  0  0  0  0  0  0  0  0
    2.5064   -0.0203    3.7917 H   0  0  0  0  0  0  0  0  0  0  0  0
    4.1123   -0.6683    4.1973 H   0  0  0  0  0  0  0  0  0  0  0  0
    4.0605    0.5648    2.4116 C   0  0  0  0  0  0  0  0  0  0  0  0
    4.2650    1.4040    2.9196 H   0  0  0  0  0  0  0  0  0  0  0  0
    4.9185    0.1701    2.0735 H   0  0  0  0  0  0  0  0  0  0  0  0
    3.1989    0.9317    1.2118 C   0  0  0  0  0  0  0  0  0  0  0  0
    2.9938    0.0985    0.6928 H   0  0  0  0  0  0  0  0  0  0  0  0
    2.3415    1.3344    1.5382 H   0  0  0  0  0  0  0  0  0  0  0  0
    3.6983    1.6444    0.5554 H   0  0  0  0  0  0  0  0  0  0  0  0
  1  5  1  0
  5  6  1  0
  5  7  2  0
  1  2  1  0
  1  3  1  0
  1  4  1  0
  8 12  1  0
 12 15  1  0
  8  9  1  0
  8 10  1  0
  8 11  1  0
 12 13  1  0
 12 14  1  0
 15 16  1  0
 15 17  1  0
 15 18  1  0
M  CHG  1   6  -1
M  END
>  <PDB_ID>  (112) 
pdb2abq

>  <RESIDUE_NAME>  (112) 
GLU   LYS

>  <FRAG_NAME>  (112) 
ACET   PRPA

>  <FRAG_ATOM_NUM>  (112) 
fragi: 7  fragj: 11

>  <atom.prop.CHAIN_ID>  (112) 
A A A A A A A Z Z Z Z Z Z Z Z Z Z Z

>  <atom.prop.IS_HEAVY_ATOM>  (112) 
1 0 0 0 1 1 1 1 0 0 0 1 0 0 1 0 0 0

>  <DIFUSE_FUNC_ATOM>  (112) 
atom 6   atom 7   

>  <FINAL_SINGLE_POINT_ENERGY>  (112) 
0

>  <NONCOV_INTER_ENERGY_QM>  (112) 
0

>  <FF_Energy>  (112) 
6.09

>  <QM_Energy>  (112) 
0.05

>  <Index>  (112) 
8665

$$$$
ACET-pdb2abq-A-GLU-18:PRPA-pdb2abq-A-LYS-96
     RDKit          3D

 18 16  0  0  0  0  0  0  0  0999 V2000
    0.0110    1.5303   -0.0051 C   0  0  0  0  0  0  0  0  0  0  0  0
   -0.3799    1.8263   -0.8563 H   0  0  0  0  0  0  0  0  0  0  0  0
    0.9440    1.8190    0.0991 H   0  0  0  0  0  0  0  0  0  0  0  0
   -0.5716    1.9704    0.8041 H   0  0  0  0  0  0  0  0  0  0  0  0
    0.0000    0.0000    0.0000 C   0  0  0  0  0  0  0  0  0  0  0  0
   -1.0980   -0.6004   -0.0000 O   0  0  0  0  0  1  0  0  0  0  0  0
    1.0980   -0.6005    0.0000 O   0  0  0  0  0  0  0  0  0  0  0  0
    3.1989    0.9317    1.2118 C   0  0  0  0  0  0  0  0  0  0  0  0
    2.9938    0.0985    0.6928 H   0  0  0  0  0  0  0  0  0  0  0  0
    2.3415    1.3344    1.5382 H   0  0  0  0  0  0  0  0  0  0  0  0
    3.8160    0.6690    2.0710 H   0  0  0  0  0  0  0  0  0  0  0  0
    3.8931    1.9224    0.2994 C   0  0  0  0  0  0  0  0  0  0  0  0
    4.0984    2.7520    0.8225 H   0  0  0  0  0  0  0  0  0  0  0  0
    4.7499    1.5170   -0.0245 H   0  0  0  0  0  0  0  0  0  0  0  0
    3.0545    2.3011   -0.8981 C   0  0  0  0  0  0  0  0  0  0  0  0
    2.8499    1.4772   -1.4294 H   0  0  0  0  0  0  0  0  0  0  0  0
    2.1979    2.7126   -0.5832 H   0  0  0  0  0  0  0  0  0  0  0  0
    3.5830    3.0137   -1.5314 H   0  0  0  0  0  0  0  0  0  0  0  0
  1  5  1  0
  5  6  1  0
  5  7  2  0
  1  2  1  0
  1  3  1  0
  1  4  1  0
  8 12  1  0
 12 15  1  0
  8  9  1  0
  8 10  1  0
  8 11  1  0
 12 13  1  0
 12 14  1  0
 15 16  1  0
 15 17  1  0
 15 18  1  0
M  CHG  1   6  -1
M  END
>  <PDB_ID>  (113) 
pdb2abq

>  <RESIDUE_NAME>  (113) 
GLU   LYS

>  <FRAG_NAME>  (113) 
ACET   PRPA

>  <FRAG_ATOM_NUM>  (113) 
fragi: 7  fragj: 11

>  <atom.prop.CHAIN_ID>  (113) 
A A A A A A A Z Z Z Z Z Z Z Z Z Z Z

>  <atom.prop.IS_HEAVY_ATOM>  (113) 
1 0 0 0 1 1 1 1 0 0 0 1 0 0 1 0 0 0

>  <DIFUSE_FUNC_ATOM>  (113) 
atom 6   atom 7   

>  <FINAL_SINGLE_POINT_ENERGY>  (113) 
0

>  <NONCOV_INTER_ENERGY_QM>  (113) 
0

>  <FF_Energy>  (113) 
21.27

>  <QM_Energy>  (113) 
2.84

>  <Index>  (113) 
8671

$$$$
ACET-pdb1a8l-A-GLU-177:PRPA-pdb1a8l-A-GLH-180
     RDKit          3D

 18 16  0  0  0  0  0  0  0  0999 V2000
   -0.0042    1.5006   -0.0115 C   0  0  0  0  0  0  0  0  0  0  0  0
    0.8572    1.8064    0.3371 H   0  0  0  0  0  0  0  0  0  0  0  0
   -0.7643    1.8033    0.5252 H   0  0  0  0  0  0  0  0  0  0  0  0
   -0.1217    1.8804   -1.0264 H   0  0  0  0  0  0  0  0  0  0  0  0
    0.0000    0.0000    0.0000 C   0  0  0  0  0  0  0  0  0  0  0  0
   -1.1012   -0.5896    0.0000 O   0  0  0  0  0  1  0  0  0  0  0  0
    1.1012   -0.5890    0.0000 O   0  0  0  0  0  0  0  0  0  0  0  0
   -3.0197   -2.3127   -3.2117 C   0  0  0  0  0  0  0  0  0  0  0  0
   -3.6858   -3.0154   -2.8866 H   0  0  0  0  0  0  0  0  0  0  0  0
   -2.0501   -2.4951   -2.7484 H   0  0  0  0  0  0  0  0  0  0  0  0
   -3.0050   -2.3135   -4.3016 H   0  0  0  0  0  0  0  0  0  0  0  0
   -3.5868   -0.9823   -2.7107 C   0  0  0  0  0  0  0  0  0  0  0  0
   -3.0490   -0.2621   -3.1031 H   0  0  0  0  0  0  0  0  0  0  0  0
   -4.5291   -0.9385   -2.9777 H   0  0  0  0  0  0  0  0  0  0  0  0
   -3.5258   -0.8354   -1.1993 C   0  0  0  0  0  0  0  0  0  0  0  0
   -4.2578   -1.3618   -0.8097 H   0  0  0  0  0  0  0  0  0  0  0  0
   -2.6434   -1.1379   -0.8941 H   0  0  0  0  0  0  0  0  0  0  0  0
   -3.6514    0.1975   -0.8746 H   0  0  0  0  0  0  0  0  0  0  0  0
  1  5  1  0
  5  6  1  0
  5  7  2  0
  1  2  1  0
  1  3  1  0
  1  4  1  0
  8 12  1  0
 12 15  1  0
  8  9  1  0
  8 10  1  0
  8 11  1  0
 12 13  1  0
 12 14  1  0
 15 16  1  0
 15 17  1  0
 15 18  1  0
M  CHG  1   6  -1
M  END
>  <PDB_ID>  (114) 
pdb1a8l

>  <RESIDUE_NAME>  (114) 
GLU   GLH

>  <FRAG_NAME>  (114) 
ACET   PRPA

>  <FRAG_ATOM_NUM>  (114) 
fragi: 7  fragj: 11

>  <atom.prop.CHAIN_ID>  (114) 
A A A A A A A Z Z Z Z Z Z Z Z Z Z Z

>  <atom.prop.IS_HEAVY_ATOM>  (114) 
1 0 0 0 1 1 1 1 0 0 0 1 0 0 1 0 0 0

>  <DIFUSE_FUNC_ATOM>  (114) 
atom 6   atom 7   

>  <FINAL_SINGLE_POINT_ENERGY>  (114) 
0

>  <NONCOV_INTER_ENERGY_QM>  (114) 
0

>  <FF_Energy>  (114) 
2.13

>  <QM_Energy>  (114) 
0.77

>  <Index>  (114) 
8699

$$$$
ACET-pdb1aaw-A-ASP-23:PRPA-pdb1aaw-A-LEU-26
     RDKit          3D

 18 16  0  0  0  0  0  0  0  0999 V2000
   -0.0007    1.5282   -0.0424 C   0  0  0  0  0  0  0  0  0  0  0  0
   -0.8051    1.8235   -0.5891 H   0  0  0  0  0  0  0  0  0  0  0  0
    0.8266    1.8258   -0.5514 H   0  0  0  0  0  0  0  0  0  0  0  0
   -0.0237    2.0690    0.9038 H   0  0  0  0  0  0  0  0  0  0  0  0
    0.0000    0.0000    0.0000 C   0  0  0  0  0  0  0  0  0  0  0  0
   -1.0939   -0.5887   -0.0000 O   0  0  0  0  0  1  0  0  0  0  0  0
    1.0939   -0.5807   -0.0000 O   0  0  0  0  0  0  0  0  0  0  0  0
    3.1460    2.5782   -2.6140 C   0  0  0  0  0  0  0  0  0  0  0  0
    3.7697    2.3086   -3.4328 H   0  0  0  0  0  0  0  0  0  0  0  0
    3.5869    2.1233   -1.7270 H   0  0  0  0  0  0  0  0  0  0  0  0
    2.9194    3.6387   -2.7243 H   0  0  0  0  0  0  0  0  0  0  0  0
    1.8360    1.8532   -2.9938 C   0  0  0  0  0  0  0  0  0  0  0  0
    1.2916    1.7564   -2.1386 H   0  0  0  0  0  0  0  0  0  0  0  0
    1.3162    2.4790   -3.6035 H   0  0  0  0  0  0  0  0  0  0  0  0
    1.8540    0.4805   -3.6702 C   0  0  0  0  0  0  0  0  0  0  0  0
    2.2984   -0.1760   -3.0639 H   0  0  0  0  0  0  0  0  0  0  0  0
    0.8380    0.1460   -3.8800 H   0  0  0  0  0  0  0  0  0  0  0  0
    2.4328    0.5645   -4.5900 H   0  0  0  0  0  0  0  0  0  0  0  0
  1  5  1  0
  5  6  1  0
  5  7  2  0
  1  2  1  0
  1  3  1  0
  1  4  1  0
  8 12  1  0
 12 15  1  0
  8  9  1  0
  8 10  1  0
  8 11  1  0
 12 13  1  0
 12 14  1  0
 15 16  1  0
 15 17  1  0
 15 18  1  0
M  CHG  1   6  -1
M  END
>  <PDB_ID>  (115) 
pdb1aaw

>  <RESIDUE_NAME>  (115) 
ASP   LEU

>  <FRAG_NAME>  (115) 
ACET   PRPA

>  <FRAG_ATOM_NUM>  (115) 
fragi: 7  fragj: 11

>  <atom.prop.CHAIN_ID>  (115) 
A A A A A A A Z Z Z Z Z Z Z Z Z Z Z

>  <atom.prop.IS_HEAVY_ATOM>  (115) 
1 0 0 0 1 1 1 1 0 0 0 1 0 0 1 0 0 0

>  <DIFUSE_FUNC_ATOM>  (115) 
atom 6   atom 7   

>  <FINAL_SINGLE_POINT_ENERGY>  (115) 
0

>  <NONCOV_INTER_ENERGY_QM>  (115) 
0

>  <FF_Energy>  (115) 
15.77

>  <QM_Energy>  (115) 
-0.78

>  <Index>  (115) 
8718

$$$$
ACET-pdb1aaw-A-ASP-23:PRPA-pdb1aaw-A-LEU-26
     RDKit          3D

 18 16  0  0  0  0  0  0  0  0999 V2000
   -0.0007    1.5282   -0.0424 C   0  0  0  0  0  0  0  0  0  0  0  0
   -0.8051    1.8235   -0.5891 H   0  0  0  0  0  0  0  0  0  0  0  0
    0.8266    1.8258   -0.5514 H   0  0  0  0  0  0  0  0  0  0  0  0
   -0.0237    2.0690    0.9038 H   0  0  0  0  0  0  0  0  0  0  0  0
    0.0000    0.0000    0.0000 C   0  0  0  0  0  0  0  0  0  0  0  0
   -1.0939   -0.5887   -0.0000 O   0  0  0  0  0  1  0  0  0  0  0  0
    1.0939   -0.5807   -0.0000 O   0  0  0  0  0  0  0  0  0  0  0  0
    1.8360    1.8532   -2.9938 C   0  0  0  0  0  0  0  0  0  0  0  0
    1.2916    1.7564   -2.1386 H   0  0  0  0  0  0  0  0  0  0  0  0
    1.3162    2.4790   -3.6035 H   0  0  0  0  0  0  0  0  0  0  0  0
    2.7604    2.3649   -2.7258 H   0  0  0  0  0  0  0  0  0  0  0  0
    1.8540    0.4805   -3.6702 C   0  0  0  0  0  0  0  0  0  0  0  0
    2.2984   -0.1760   -3.0639 H   0  0  0  0  0  0  0  0  0  0  0  0
    0.8380    0.1460   -3.8800 H   0  0  0  0  0  0  0  0  0  0  0  0
    2.6661    0.5983   -4.9606 C   0  0  0  0  0  0  0  0  0  0  0  0
    3.5970    0.8880   -4.7405 H   0  0  0  0  0  0  0  0  0  0  0  0
    2.6900   -0.2899   -5.4186 H   0  0  0  0  0  0  0  0  0  0  0  0
    2.2386    1.2739   -5.5607 H   0  0  0  0  0  0  0  0  0  0  0  0
  1  5  1  0
  5  6  1  0
  5  7  2  0
  1  2  1  0
  1  3  1  0
  1  4  1  0
  8 12  1  0
 12 15  1  0
  8  9  1  0
  8 10  1  0
  8 11  1  0
 12 13  1  0
 12 14  1  0
 15 16  1  0
 15 17  1  0
 15 18  1  0
M  CHG  1   6  -1
M  END
>  <PDB_ID>  (116) 
pdb1aaw

>  <RESIDUE_NAME>  (116) 
ASP   LEU

>  <FRAG_NAME>  (116) 
ACET   PRPA

>  <FRAG_ATOM_NUM>  (116) 
fragi: 7  fragj: 11

>  <atom.prop.CHAIN_ID>  (116) 
A A A A A A A Z Z Z Z Z Z Z Z Z Z Z

>  <atom.prop.IS_HEAVY_ATOM>  (116) 
1 0 0 0 1 1 1 1 0 0 0 1 0 0 1 0 0 0

>  <DIFUSE_FUNC_ATOM>  (116) 
atom 6   atom 7   

>  <FINAL_SINGLE_POINT_ENERGY>  (116) 
0

>  <NONCOV_INTER_ENERGY_QM>  (116) 
0

>  <FF_Energy>  (116) 
15.74

>  <QM_Energy>  (116) 
0.11

>  <Index>  (116) 
8721

$$$$
ACET-pdb2ac1-A-ASP-102:PRPA-pdb2ac1-A-GLN-106
     RDKit          3D

 18 16  0  0  0  0  0  0  0  0999 V2000
    0.0382    1.5180   -0.0316 C   0  0  0  0  0  0  0  0  0  0  0  0
    0.3074    1.8142   -0.9428 H   0  0  0  0  0  0  0  0  0  0  0  0
    0.6980    1.8379    0.6417 H   0  0  0  0  0  0  0  0  0  0  0  0
   -0.9208    1.9830    0.1972 H   0  0  0  0  0  0  0  0  0  0  0  0
    0.0000    0.0000    0.0000 C   0  0  0  0  0  0  0  0  0  0  0  0
   -1.0964   -0.6004   -0.0000 O   0  0  0  0  0  1  0  0  0  0  0  0
    1.0964   -0.5987    0.0000 O   0  0  0  0  0  0  0  0  0  0  0  0
   -1.1295   -2.3317    2.9845 C   0  0  0  0  0  0  0  0  0  0  0  0
   -1.4576   -3.0842    3.5574 H   0  0  0  0  0  0  0  0  0  0  0  0
   -1.9501   -2.0068    2.3449 H   0  0  0  0  0  0  0  0  0  0  0  0
   -0.8385   -1.5145    3.6445 H   0  0  0  0  0  0  0  0  0  0  0  0
    0.0568   -2.7745    2.1289 C   0  0  0  0  0  0  0  0  0  0  0  0
    0.4369   -1.9758    1.6608 H   0  0  0  0  0  0  0  0  0  0  0  0
    0.7580   -3.1728    2.7237 H   0  0  0  0  0  0  0  0  0  0  0  0
   -0.2937   -3.8197    1.0584 C   0  0  0  0  0  0  0  0  0  0  0  0
   -0.6456   -4.6311    1.5164 H   0  0  0  0  0  0  0  0  0  0  0  0
   -0.9908   -3.4340    0.4610 H   0  0  0  0  0  0  0  0  0  0  0  0
    0.5731   -4.0990    0.4594 H   0  0  0  0  0  0  0  0  0  0  0  0
  1  5  1  0
  5  6  1  0
  5  7  2  0
  1  2  1  0
  1  3  1  0
  1  4  1  0
  8 12  1  0
 12 15  1  0
  8  9  1  0
  8 10  1  0
  8 11  1  0
 12 13  1  0
 12 14  1  0
 15 16  1  0
 15 17  1  0
 15 18  1  0
M  CHG  1   6  -1
M  END
>  <PDB_ID>  (117) 
pdb2ac1

>  <RESIDUE_NAME>  (117) 
ASP   GLN

>  <FRAG_NAME>  (117) 
ACET   PRPA

>  <FRAG_ATOM_NUM>  (117) 
fragi: 7  fragj: 11

>  <atom.prop.CHAIN_ID>  (117) 
A A A A A A A Z Z Z Z Z Z Z Z Z Z Z

>  <atom.prop.IS_HEAVY_ATOM>  (117) 
1 0 0 0 1 1 1 1 0 0 0 1 0 0 1 0 0 0

>  <DIFUSE_FUNC_ATOM>  (117) 
atom 6   atom 7   

>  <FINAL_SINGLE_POINT_ENERGY>  (117) 
0

>  <NONCOV_INTER_ENERGY_QM>  (117) 
0

>  <FF_Energy>  (117) 
2.6

>  <QM_Energy>  (117) 
-5.33

>  <Index>  (117) 
8742

$$$$
ACET-pdb2afc-A-ASP-88:PRPA-pdb2afc-A-LEU-92
     RDKit          3D

 18 16  0  0  0  0  0  0  0  0999 V2000
   -0.0143    1.5117    0.0116 C   0  0  0  0  0  0  0  0  0  0  0  0
   -0.3540    1.8246    0.8921 H   0  0  0  0  0  0  0  0  0  0  0  0
   -0.6027    1.8349   -0.7218 H   0  0  0  0  0  0  0  0  0  0  0  0
    0.9744    1.9457   -0.1375 H   0  0  0  0  0  0  0  0  0  0  0  0
    0.0000    0.0000    0.0000 C   0  0  0  0  0  0  0  0  0  0  0  0
   -1.0984   -0.5891    0.0000 O   0  0  0  0  0  1  0  0  0  0  0  0
    1.0984   -0.5993    0.0000 O   0  0  0  0  0  0  0  0  0  0  0  0
    0.3547   -3.1539   -1.4309 C   0  0  0  0  0  0  0  0  0  0  0  0
    0.3481   -3.6497   -0.5558 H   0  0  0  0  0  0  0  0  0  0  0  0
    0.1382   -2.1886   -1.2551 H   0  0  0  0  0  0  0  0  0  0  0  0
    1.3693   -3.1979   -1.8270 H   0  0  0  0  0  0  0  0  0  0  0  0
   -0.7782   -3.7247   -2.2811 C   0  0  0  0  0  0  0  0  0  0  0  0
   -0.7739   -3.2800   -3.1730 H   0  0  0  0  0  0  0  0  0  0  0  0
   -0.6399   -4.7979   -2.4124 H   0  0  0  0  0  0  0  0  0  0  0  0
   -2.1068   -3.4327   -1.5935 C   0  0  0  0  0  0  0  0  0  0  0  0
   -2.2219   -2.4442   -1.4968 H   0  0  0  0  0  0  0  0  0  0  0  0
   -2.8553   -3.8035   -2.1441 H   0  0  0  0  0  0  0  0  0  0  0  0
   -2.1146   -3.8600   -0.6885 H   0  0  0  0  0  0  0  0  0  0  0  0
  1  5  1  0
  5  6  1  0
  5  7  2  0
  1  2  1  0
  1  3  1  0
  1  4  1  0
  8 12  1  0
 12 15  1  0
  8  9  1  0
  8 10  1  0
  8 11  1  0
 12 13  1  0
 12 14  1  0
 15 16  1  0
 15 17  1  0
 15 18  1  0
M  CHG  1   6  -1
M  END
>  <PDB_ID>  (118) 
pdb2afc

>  <RESIDUE_NAME>  (118) 
ASP   LEU

>  <FRAG_NAME>  (118) 
ACET   PRPA

>  <FRAG_ATOM_NUM>  (118) 
fragi: 7  fragj: 11

>  <atom.prop.CHAIN_ID>  (118) 
A A A A A A A Z Z Z Z Z Z Z Z Z Z Z

>  <atom.prop.IS_HEAVY_ATOM>  (118) 
1 0 0 0 1 1 1 1 0 0 0 1 0 0 1 0 0 0

>  <DIFUSE_FUNC_ATOM>  (118) 
atom 6   atom 7   

>  <FINAL_SINGLE_POINT_ENERGY>  (118) 
0

>  <NONCOV_INTER_ENERGY_QM>  (118) 
0

>  <FF_Energy>  (118) 
5.46

>  <QM_Energy>  (118) 
-3.15

>  <Index>  (118) 
8910

$$$$
ACET-pdb1abe-A-ASP-235:PRPA-pdb1abe-A-PRO-15
     RDKit          3D

 18 16  0  0  0  0  0  0  0  0999 V2000
    0.2640    1.4966   -0.0153 C   0  0  0  0  0  0  0  0  0  0  0  0
    0.8156    1.7141   -0.8069 H   0  0  0  0  0  0  0  0  0  0  0  0
    0.7227    1.7477    0.8226 H   0  0  0  0  0  0  0  0  0  0  0  0
   -0.6622    2.0675   -0.0795 H   0  0  0  0  0  0  0  0  0  0  0  0
    0.0000    0.0000    0.0000 C   0  0  0  0  0  0  0  0  0  0  0  0
   -1.0891   -0.5402    0.0000 O   0  0  0  0  0  1  0  0  0  0  0  0
    1.0891   -0.6270    0.0000 O   0  0  0  0  0  0  0  0  0  0  0  0
   -3.9628   -0.0150    1.4381 C   0  0  0  0  0  0  0  0  0  0  0  0
   -3.3722    0.1945    0.6741 H   0  0  0  0  0  0  0  0  0  0  0  0
   -4.8852    0.2992    1.2783 H   0  0  0  0  0  0  0  0  0  0  0  0
   -3.9454   -1.0813    1.6637 H   0  0  0  0  0  0  0  0  0  0  0  0
   -3.4107    0.5705    2.7189 C   0  0  0  0  0  0  0  0  0  0  0  0
   -3.2015    1.5135    2.6130 H   0  0  0  0  0  0  0  0  0  0  0  0
   -3.9895    0.3724    3.4738 H   0  0  0  0  0  0  0  0  0  0  0  0
   -2.0975   -0.2598    2.8193 C   0  0  0  0  0  0  0  0  0  0  0  0
   -1.4716    0.0144    2.1232 H   0  0  0  0  0  0  0  0  0  0  0  0
   -1.7275   -0.1975    3.7214 H   0  0  0  0  0  0  0  0  0  0  0  0
   -2.5178   -1.2457    2.6209 H   0  0  0  0  0  0  0  0  0  0  0  0
  1  5  1  0
  5  6  1  0
  5  7  2  0
  1  2  1  0
  1  3  1  0
  1  4  1  0
  8 12  1  0
 12 15  1  0
  8  9  1  0
  8 10  1  0
  8 11  1  0
 12 13  1  0
 12 14  1  0
 15 16  1  0
 15 17  1  0
 15 18  1  0
M  CHG  1   6  -1
M  END
>  <PDB_ID>  (119) 
pdb1abe

>  <RESIDUE_NAME>  (119) 
ASP   PRO

>  <FRAG_NAME>  (119) 
ACET   PRPA

>  <FRAG_ATOM_NUM>  (119) 
fragi: 7  fragj: 11

>  <atom.prop.CHAIN_ID>  (119) 
A A A A A A A Z Z Z Z Z Z Z Z Z Z Z

>  <atom.prop.IS_HEAVY_ATOM>  (119) 
1 0 0 0 1 1 1 1 0 0 0 1 0 0 1 0 0 0

>  <DIFUSE_FUNC_ATOM>  (119) 
atom 6   atom 7   

>  <FINAL_SINGLE_POINT_ENERGY>  (119) 
0

>  <NONCOV_INTER_ENERGY_QM>  (119) 
0

>  <FF_Energy>  (119) 
3.48

>  <QM_Energy>  (119) 
-2.67

>  <Index>  (119) 
9086

$$$$
ACET-pdb1ab8-A-GLU-910:PRPA-pdb1ab8-A-LYS-906
     RDKit          3D

 18 16  0  0  0  0  0  0  0  0999 V2000
    0.0200    1.5211    0.0038 C   0  0  0  0  0  0  0  0  0  0  0  0
    0.8939    1.8065   -0.3513 H   0  0  0  0  0  0  0  0  0  0  0  0
   -0.1089    1.8153    0.9359 H   0  0  0  0  0  0  0  0  0  0  0  0
   -0.7612    1.9702   -0.6095 H   0  0  0  0  0  0  0  0  0  0  0  0
    0.0000    0.0000    0.0000 C   0  0  0  0  0  0  0  0  0  0  0  0
   -1.0991   -0.6013   -0.0000 O   0  0  0  0  0  1  0  0  0  0  0  0
    1.0991   -0.5979    0.0000 O   0  0  0  0  0  0  0  0  0  0  0  0
    4.2192    1.8248   -0.0712 C   0  0  0  0  0  0  0  0  0  0  0  0
    5.1984    1.9897   -0.2071 H   0  0  0  0  0  0  0  0  0  0  0  0
    3.9906    1.9820    0.8918 H   0  0  0  0  0  0  0  0  0  0  0  0
    3.6466    2.5099   -0.6965 H   0  0  0  0  0  0  0  0  0  0  0  0
    3.9172    0.3815   -0.4136 C   0  0  0  0  0  0  0  0  0  0  0  0
    3.0229    0.1440   -0.0471 H   0  0  0  0  0  0  0  0  0  0  0  0
    3.9229    0.2761   -1.4032 H   0  0  0  0  0  0  0  0  0  0  0  0
    4.9484   -0.5463    0.1807 C   0  0  0  0  0  0  0  0  0  0  0  0
    5.8425   -0.3520   -0.2325 H   0  0  0  0  0  0  0  0  0  0  0  0
    5.0072   -0.3822    1.1700 H   0  0  0  0  0  0  0  0  0  0  0  0
    4.6938   -1.5917    0.0062 H   0  0  0  0  0  0  0  0  0  0  0  0
  1  5  1  0
  5  6  1  0
  5  7  2  0
  1  2  1  0
  1  3  1  0
  1  4  1  0
  8 12  1  0
 12 15  1  0
  8  9  1  0
  8 10  1  0
  8 11  1  0
 12 13  1  0
 12 14  1  0
 15 16  1  0
 15 17  1  0
 15 18  1  0
M  CHG  1   6  -1
M  END
>  <PDB_ID>  (120) 
pdb1ab8

>  <RESIDUE_NAME>  (120) 
GLU   LYS

>  <FRAG_NAME>  (120) 
ACET   PRPA

>  <FRAG_ATOM_NUM>  (120) 
fragi: 7  fragj: 11

>  <atom.prop.CHAIN_ID>  (120) 
A A A A A A A Z Z Z Z Z Z Z Z Z Z Z

>  <atom.prop.IS_HEAVY_ATOM>  (120) 
1 0 0 0 1 1 1 1 0 0 0 1 0 0 1 0 0 0

>  <DIFUSE_FUNC_ATOM>  (120) 
atom 6   atom 7   

>  <FINAL_SINGLE_POINT_ENERGY>  (120) 
0

>  <NONCOV_INTER_ENERGY_QM>  (120) 
0

>  <FF_Energy>  (120) 
6.31

>  <QM_Energy>  (120) 
-2.42

>  <Index>  (120) 
9118

$$$$
ACET-pdb2a96-A-GLU-102:PRPA-pdb2a96-A-LYS-228
     RDKit          3D

 18 16  0  0  0  0  0  0  0  0999 V2000
    0.0031    1.5275   -0.0129 C   0  0  0  0  0  0  0  0  0  0  0  0
   -0.2728    1.8171   -0.9080 H   0  0  0  0  0  0  0  0  0  0  0  0
    0.9095    1.8233    0.2175 H   0  0  0  0  0  0  0  0  0  0  0  0
   -0.6890    1.9596    0.7100 H   0  0  0  0  0  0  0  0  0  0  0  0
    0.0000    0.0000    0.0000 C   0  0  0  0  0  0  0  0  0  0  0  0
   -1.0968   -0.6031    0.0000 O   0  0  0  0  0  1  0  0  0  0  0  0
    1.0968   -0.6021   -0.0000 O   0  0  0  0  0  0  0  0  0  0  0  0
   -0.8370    4.5919   -3.2795 C   0  0  0  0  0  0  0  0  0  0  0  0
   -1.6491    5.0444   -3.6726 H   0  0  0  0  0  0  0  0  0  0  0  0
   -0.0612    4.5328   -4.0429 H   0  0  0  0  0  0  0  0  0  0  0  0
   -0.5033    5.1674   -2.4161 H   0  0  0  0  0  0  0  0  0  0  0  0
   -1.2599    3.1861   -2.8410 C   0  0  0  0  0  0  0  0  0  0  0  0
   -1.5009    2.6622   -3.6570 H   0  0  0  0  0  0  0  0  0  0  0  0
   -0.4827    2.7534   -2.3839 H   0  0  0  0  0  0  0  0  0  0  0  0
   -2.4560    3.1483   -1.8830 C   0  0  0  0  0  0  0  0  0  0  0  0
   -2.5144    2.2340   -1.4759 H   0  0  0  0  0  0  0  0  0  0  0  0
   -2.3105    3.8233   -1.1575 H   0  0  0  0  0  0  0  0  0  0  0  0
   -3.3973    3.3700   -2.3860 H   0  0  0  0  0  0  0  0  0  0  0  0
  1  5  1  0
  5  6  1  0
  5  7  2  0
  1  2  1  0
  1  3  1  0
  1  4  1  0
  8 12  1  0
 12 15  1  0
  8  9  1  0
  8 10  1  0
  8 11  1  0
 12 13  1  0
 12 14  1  0
 15 16  1  0
 15 17  1  0
 15 18  1  0
M  CHG  1   6  -1
M  END
>  <PDB_ID>  (121) 
pdb2a96

>  <RESIDUE_NAME>  (121) 
GLU   LYS

>  <FRAG_NAME>  (121) 
ACET   PRPA

>  <FRAG_ATOM_NUM>  (121) 
fragi: 7  fragj: 11

>  <atom.prop.CHAIN_ID>  (121) 
A A A A A A A Z Z Z Z Z Z Z Z Z Z Z

>  <atom.prop.IS_HEAVY_ATOM>  (121) 
1 0 0 0 1 1 1 1 0 0 0 1 0 0 1 0 0 0

>  <DIFUSE_FUNC_ATOM>  (121) 
atom 6   atom 7   

>  <FINAL_SINGLE_POINT_ENERGY>  (121) 
0

>  <NONCOV_INTER_ENERGY_QM>  (121) 
0

>  <FF_Energy>  (121) 
7.17

>  <QM_Energy>  (121) 
-0.67

>  <Index>  (121) 
9170

$$$$
ACET-pdb2a96-A-GLU-102:PRPA-pdb2a96-A-LYS-228
     RDKit          3D

 18 16  0  0  0  0  0  0  0  0999 V2000
    0.0031    1.5275   -0.0129 C   0  0  0  0  0  0  0  0  0  0  0  0
   -0.2728    1.8171   -0.9080 H   0  0  0  0  0  0  0  0  0  0  0  0
    0.9095    1.8233    0.2175 H   0  0  0  0  0  0  0  0  0  0  0  0
   -0.6890    1.9596    0.7100 H   0  0  0  0  0  0  0  0  0  0  0  0
    0.0000    0.0000    0.0000 C   0  0  0  0  0  0  0  0  0  0  0  0
   -1.0968   -0.6031    0.0000 O   0  0  0  0  0  1  0  0  0  0  0  0
    1.0968   -0.6021   -0.0000 O   0  0  0  0  0  0  0  0  0  0  0  0
   -1.2599    3.1861   -2.8410 C   0  0  0  0  0  0  0  0  0  0  0  0
   -1.5009    2.6622   -3.6570 H   0  0  0  0  0  0  0  0  0  0  0  0
   -0.4827    2.7534   -2.3839 H   0  0  0  0  0  0  0  0  0  0  0  0
   -0.9590    4.1863   -3.1529 H   0  0  0  0  0  0  0  0  0  0  0  0
   -2.4560    3.1483   -1.8830 C   0  0  0  0  0  0  0  0  0  0  0  0
   -2.5144    2.2340   -1.4759 H   0  0  0  0  0  0  0  0  0  0  0  0
   -2.3105    3.8233   -1.1575 H   0  0  0  0  0  0  0  0  0  0  0  0
   -3.7751    3.4590   -2.5879 C   0  0  0  0  0  0  0  0  0  0  0  0
   -3.7831    4.4163   -2.8451 H   0  0  0  0  0  0  0  0  0  0  0  0
   -3.8572    2.8767   -3.3864 H   0  0  0  0  0  0  0  0  0  0  0  0
   -4.6241    3.2692   -1.9312 H   0  0  0  0  0  0  0  0  0  0  0  0
  1  5  1  0
  5  6  1  0
  5  7  2  0
  1  2  1  0
  1  3  1  0
  1  4  1  0
  8 12  1  0
 12 15  1  0
  8  9  1  0
  8 10  1  0
  8 11  1  0
 12 13  1  0
 12 14  1  0
 15 16  1  0
 15 17  1  0
 15 18  1  0
M  CHG  1   6  -1
M  END
>  <PDB_ID>  (122) 
pdb2a96

>  <RESIDUE_NAME>  (122) 
GLU   LYS

>  <FRAG_NAME>  (122) 
ACET   PRPA

>  <FRAG_ATOM_NUM>  (122) 
fragi: 7  fragj: 11

>  <atom.prop.CHAIN_ID>  (122) 
A A A A A A A Z Z Z Z Z Z Z Z Z Z Z

>  <atom.prop.IS_HEAVY_ATOM>  (122) 
1 0 0 0 1 1 1 1 0 0 0 1 0 0 1 0 0 0

>  <DIFUSE_FUNC_ATOM>  (122) 
atom 6   atom 7   

>  <FINAL_SINGLE_POINT_ENERGY>  (122) 
0

>  <NONCOV_INTER_ENERGY_QM>  (122) 
0

>  <FF_Energy>  (122) 
7.23

>  <QM_Energy>  (122) 
-0.56

>  <Index>  (122) 
9174

$$$$
ACET-pdb2a8y-A-GLU-158:PRPA-pdb2a8y-A-LYS-150
     RDKit          3D

 18 16  0  0  0  0  0  0  0  0999 V2000
    0.0391    1.5427   -0.0115 C   0  0  0  0  0  0  0  0  0  0  0  0
    0.4355    1.8168   -0.8748 H   0  0  0  0  0  0  0  0  0  0  0  0
    0.6052    1.8236    0.7493 H   0  0  0  0  0  0  0  0  0  0  0  0
   -0.9290    2.0338    0.0867 H   0  0  0  0  0  0  0  0  0  0  0  0
    0.0000    0.0000    0.0000 C   0  0  0  0  0  0  0  0  0  0  0  0
   -1.1053   -0.5785    0.0000 O   0  0  0  0  0  1  0  0  0  0  0  0
    1.1053   -0.6211   -0.0000 O   0  0  0  0  0  0  0  0  0  0  0  0
    3.6965   -2.8614   -2.3114 C   0  0  0  0  0  0  0  0  0  0  0  0
    4.0252   -3.0681   -1.3971 H   0  0  0  0  0  0  0  0  0  0  0  0
    3.5754   -1.8829   -2.4267 H   0  0  0  0  0  0  0  0  0  0  0  0
    4.4237   -3.2197   -3.0401 H   0  0  0  0  0  0  0  0  0  0  0  0
    2.3623   -3.5559   -2.5286 C   0  0  0  0  0  0  0  0  0  0  0  0
    1.9805   -3.2540   -3.3963 H   0  0  0  0  0  0  0  0  0  0  0  0
    2.5096   -4.5398   -2.5405 H   0  0  0  0  0  0  0  0  0  0  0  0
    1.3790   -3.2245   -1.4238 C   0  0  0  0  0  0  0  0  0  0  0  0
    1.6840   -3.6523   -0.5752 H   0  0  0  0  0  0  0  0  0  0  0  0
    1.3406   -2.2333   -1.3066 H   0  0  0  0  0  0  0  0  0  0  0  0
    0.3852   -3.5949   -1.6752 H   0  0  0  0  0  0  0  0  0  0  0  0
  1  5  1  0
  5  6  1  0
  5  7  2  0
  1  2  1  0
  1  3  1  0
  1  4  1  0
  8 12  1  0
 12 15  1  0
  8  9  1  0
  8 10  1  0
  8 11  1  0
 12 13  1  0
 12 14  1  0
 15 16  1  0
 15 17  1  0
 15 18  1  0
M  CHG  1   6  -1
M  END
>  <PDB_ID>  (123) 
pdb2a8y

>  <RESIDUE_NAME>  (123) 
GLU   LYS

>  <FRAG_NAME>  (123) 
ACET   PRPA

>  <FRAG_ATOM_NUM>  (123) 
fragi: 7  fragj: 11

>  <atom.prop.CHAIN_ID>  (123) 
A A A A A A A Z Z Z Z Z Z Z Z Z Z Z

>  <atom.prop.IS_HEAVY_ATOM>  (123) 
1 0 0 0 1 1 1 1 0 0 0 1 0 0 1 0 0 0

>  <DIFUSE_FUNC_ATOM>  (123) 
atom 6   atom 7   

>  <FINAL_SINGLE_POINT_ENERGY>  (123) 
0

>  <NONCOV_INTER_ENERGY_QM>  (123) 
0

>  <FF_Energy>  (123) 
5.8

>  <QM_Energy>  (123) 
-1.89

>  <Index>  (123) 
9188

$$$$
ACET-pdb1a4m-A-GLU-141:PRPA-pdb1a4m-A-LYS-147
     RDKit          3D

 18 16  0  0  0  0  0  0  0  0999 V2000
    0.0195    1.5324    0.0055 C   0  0  0  0  0  0  0  0  0  0  0  0
    0.3664    1.8188   -0.8665 H   0  0  0  0  0  0  0  0  0  0  0  0
    0.5964    1.8102    0.7492 H   0  0  0  0  0  0  0  0  0  0  0  0
   -0.9714    1.9634    0.1478 H   0  0  0  0  0  0  0  0  0  0  0  0
    0.0000    0.0000    0.0000 C   0  0  0  0  0  0  0  0  0  0  0  0
   -1.0997   -0.6106    0.0000 O   0  0  0  0  0  1  0  0  0  0  0  0
    1.0997   -0.5943    0.0000 O   0  0  0  0  0  0  0  0  0  0  0  0
    2.9041    0.0400    2.5929 C   0  0  0  0  0  0  0  0  0  0  0  0
    2.3612    0.1871    1.7678 H   0  0  0  0  0  0  0  0  0  0  0  0
    3.2721    0.9978    2.9604 H   0  0  0  0  0  0  0  0  0  0  0  0
    2.2617   -0.4073    3.3515 H   0  0  0  0  0  0  0  0  0  0  0  0
    4.0954   -0.8619    2.2144 C   0  0  0  0  0  0  0  0  0  0  0  0
    4.7482   -0.3077    1.7025 H   0  0  0  0  0  0  0  0  0  0  0  0
    4.5166   -1.1826    3.0612 H   0  0  0  0  0  0  0  0  0  0  0  0
    3.7191   -2.0665    1.3739 C   0  0  0  0  0  0  0  0  0  0  0  0
    3.8823   -2.9046    1.9065 H   0  0  0  0  0  0  0  0  0  0  0  0
    2.7405   -2.0184    1.1467 H   0  0  0  0  0  0  0  0  0  0  0  0
    4.2874   -2.1312    0.4461 H   0  0  0  0  0  0  0  0  0  0  0  0
  1  5  1  0
  5  6  1  0
  5  7  2  0
  1  2  1  0
  1  3  1  0
  1  4  1  0
  8 12  1  0
 12 15  1  0
  8  9  1  0
  8 10  1  0
  8 11  1  0
 12 13  1  0
 12 14  1  0
 15 16  1  0
 15 17  1  0
 15 18  1  0
M  CHG  1   6  -1
M  END
>  <PDB_ID>  (124) 
pdb1a4m

>  <RESIDUE_NAME>  (124) 
GLU   LYS

>  <FRAG_NAME>  (124) 
ACET   PRPA

>  <FRAG_ATOM_NUM>  (124) 
fragi: 7  fragj: 11

>  <atom.prop.CHAIN_ID>  (124) 
A A A A A A A Z Z Z Z Z Z Z Z Z Z Z

>  <atom.prop.IS_HEAVY_ATOM>  (124) 
1 0 0 0 1 1 1 1 0 0 0 1 0 0 1 0 0 0

>  <DIFUSE_FUNC_ATOM>  (124) 
atom 6   atom 7   

>  <FINAL_SINGLE_POINT_ENERGY>  (124) 
0

>  <NONCOV_INTER_ENERGY_QM>  (124) 
0

>  <FF_Energy>  (124) 
1.15

>  <QM_Energy>  (124) 
-4.46

>  <Index>  (124) 
9216

$$$$
ACET-pdb2ak5-A-GLU-22:PRPA-pdb2ak5-B-GLU-40
     RDKit          3D

 18 16  0  0  0  0  0  0  0  0999 V2000
    0.2241    1.5115    0.0177 C   0  0  0  0  0  0  0  0  0  0  0  0
    0.7324    1.7413   -0.7988 H   0  0  0  0  0  0  0  0  0  0  0  0
    0.7435    1.7199    0.8330 H   0  0  0  0  0  0  0  0  0  0  0  0
   -0.6900    2.1052    0.0306 H   0  0  0  0  0  0  0  0  0  0  0  0
    0.0000    0.0000    0.0000 C   0  0  0  0  0  0  0  0  0  0  0  0
   -1.0873   -0.5297    0.0000 O   0  0  0  0  0  1  0  0  0  0  0  0
    1.0873   -0.6184    0.0000 O   0  0  0  0  0  0  0  0  0  0  0  0
   -3.4724   -1.4998    1.0380 C   0  0  0  0  0  0  0  0  0  0  0  0
   -2.8056   -1.8531    0.3955 H   0  0  0  0  0  0  0  0  0  0  0  0
   -3.9416   -0.5993    0.6417 H   0  0  0  0  0  0  0  0  0  0  0  0
   -4.2656   -2.2342    1.1780 H   0  0  0  0  0  0  0  0  0  0  0  0
   -2.7981   -1.1975    2.3732 C   0  0  0  0  0  0  0  0  0  0  0  0
   -2.3047   -1.9999    2.6484 H   0  0  0  0  0  0  0  0  0  0  0  0
   -2.2138   -0.4202    2.2455 H   0  0  0  0  0  0  0  0  0  0  0  0
   -3.7833   -0.8608    3.4754 C   0  0  0  0  0  0  0  0  0  0  0  0
   -4.2887   -0.0554    3.2115 H   0  0  0  0  0  0  0  0  0  0  0  0
   -4.3797   -1.6344    3.6156 H   0  0  0  0  0  0  0  0  0  0  0  0
   -3.3201   -0.6421    4.4376 H   0  0  0  0  0  0  0  0  0  0  0  0
  1  5  1  0
  5  6  1  0
  5  7  2  0
  1  2  1  0
  1  3  1  0
  1  4  1  0
  8 12  1  0
 12 15  1  0
  8  9  1  0
  8 10  1  0
  8 11  1  0
 12 13  1  0
 12 14  1  0
 15 16  1  0
 15 17  1  0
 15 18  1  0
M  CHG  1   6  -1
M  END
>  <PDB_ID>  (125) 
pdb2ak5

>  <RESIDUE_NAME>  (125) 
GLU   GLU

>  <FRAG_NAME>  (125) 
ACET   PRPA

>  <FRAG_ATOM_NUM>  (125) 
fragi: 7  fragj: 11

>  <atom.prop.CHAIN_ID>  (125) 
A A A A A A A Z Z Z Z Z Z Z Z Z Z Z

>  <atom.prop.IS_HEAVY_ATOM>  (125) 
1 0 0 0 1 1 1 1 0 0 0 1 0 0 1 0 0 0

>  <DIFUSE_FUNC_ATOM>  (125) 
atom 6   atom 7   

>  <FINAL_SINGLE_POINT_ENERGY>  (125) 
0

>  <NONCOV_INTER_ENERGY_QM>  (125) 
0

>  <FF_Energy>  (125) 
3.81

>  <QM_Energy>  (125) 
-2.4

>  <Index>  (125) 
9319

$$$$
ACET-pdb1aaw-A-ASP-124:PRPA-pdb1aaw-A-ARG-120
     RDKit          3D

 18 16  0  0  0  0  0  0  0  0999 V2000
   -0.0273    1.5358    0.0529 C   0  0  0  0  0  0  0  0  0  0  0  0
    0.7183    1.8739   -0.5197 H   0  0  0  0  0  0  0  0  0  0  0  0
    0.1265    1.8114    1.0008 H   0  0  0  0  0  0  0  0  0  0  0  0
   -0.9623    1.9759   -0.2937 H   0  0  0  0  0  0  0  0  0  0  0  0
    0.0000    0.0000    0.0000 C   0  0  0  0  0  0  0  0  0  0  0  0
   -1.0760   -0.5895    0.0000 O   0  0  0  0  0  1  0  0  0  0  0  0
    1.0760   -0.6212   -0.0000 O   0  0  0  0  0  0  0  0  0  0  0  0
    1.5864   -2.6754   -4.2425 C   0  0  0  0  0  0  0  0  0  0  0  0
    1.2517   -3.4936   -4.7080 H   0  0  0  0  0  0  0  0  0  0  0  0
    2.5630   -2.5638   -4.4235 H   0  0  0  0  0  0  0  0  0  0  0  0
    1.0654   -1.8139   -4.6602 H   0  0  0  0  0  0  0  0  0  0  0  0
    1.4188   -2.9038   -2.7172 C   0  0  0  0  0  0  0  0  0  0  0  0
    1.8253   -3.7985   -2.4747 H   0  0  0  0  0  0  0  0  0  0  0  0
    1.9373   -2.1895   -2.2218 H   0  0  0  0  0  0  0  0  0  0  0  0
   -0.0320   -2.8882   -2.1693 C   0  0  0  0  0  0  0  0  0  0  0  0
   -0.0167   -2.3817   -1.3192 H   0  0  0  0  0  0  0  0  0  0  0  0
   -0.5928   -2.4336   -2.8462 H   0  0  0  0  0  0  0  0  0  0  0  0
   -0.3876   -3.9046   -2.0002 H   0  0  0  0  0  0  0  0  0  0  0  0
  1  5  1  0
  5  6  1  0
  5  7  2  0
  1  2  1  0
  1  3  1  0
  1  4  1  0
  8 12  1  0
 12 15  1  0
  8  9  1  0
  8 10  1  0
  8 11  1  0
 12 13  1  0
 12 14  1  0
 15 16  1  0
 15 17  1  0
 15 18  1  0
M  CHG  1   6  -1
M  END
>  <PDB_ID>  (126) 
pdb1aaw

>  <RESIDUE_NAME>  (126) 
ASP   ARG

>  <FRAG_NAME>  (126) 
ACET   PRPA

>  <FRAG_ATOM_NUM>  (126) 
fragi: 7  fragj: 11

>  <atom.prop.CHAIN_ID>  (126) 
A A A A A A A Z Z Z Z Z Z Z Z Z Z Z

>  <atom.prop.IS_HEAVY_ATOM>  (126) 
1 0 0 0 1 1 1 1 0 0 0 1 0 0 1 0 0 0

>  <DIFUSE_FUNC_ATOM>  (126) 
atom 6   atom 7   

>  <FINAL_SINGLE_POINT_ENERGY>  (126) 
0

>  <NONCOV_INTER_ENERGY_QM>  (126) 
0

>  <FF_Energy>  (126) 
5.52

>  <QM_Energy>  (126) 
-4.84

>  <Index>  (126) 
9449

$$$$
ACET-pdb1a4y-A-GLU-41:PRPA-pdb1a4y-A-VAL-70
     RDKit          3D

 18 16  0  0  0  0  0  0  0  0999 V2000
   -0.0059    1.5170   -0.0017 C   0  0  0  0  0  0  0  0  0  0  0  0
    0.6216    1.8155   -0.6923 H   0  0  0  0  0  0  0  0  0  0  0  0
    0.2463    1.8149    0.8968 H   0  0  0  0  0  0  0  0  0  0  0  0
   -0.9911    1.9210   -0.2352 H   0  0  0  0  0  0  0  0  0  0  0  0
    0.0000    0.0000    0.0000 C   0  0  0  0  0  0  0  0  0  0  0  0
   -1.1050   -0.5940   -0.0000 O   0  0  0  0  0  1  0  0  0  0  0  0
    1.1050   -0.5935    0.0000 O   0  0  0  0  0  0  0  0  0  0  0  0
   -0.9637   -3.7959    3.9739 C   0  0  0  0  0  0  0  0  0  0  0  0
   -1.4690   -3.9998    4.8087 H   0  0  0  0  0  0  0  0  0  0  0  0
   -1.4128   -4.2215    3.1923 H   0  0  0  0  0  0  0  0  0  0  0  0
   -0.0282   -4.1318    4.0523 H   0  0  0  0  0  0  0  0  0  0  0  0
   -0.9335   -2.2693    3.7657 C   0  0  0  0  0  0  0  0  0  0  0  0
    0.0221   -2.0144    3.7206 H   0  0  0  0  0  0  0  0  0  0  0  0
   -1.3827   -1.7811    4.6305 H   0  0  0  0  0  0  0  0  0  0  0  0
   -1.6946   -1.8888    2.5134 C   0  0  0  0  0  0  0  0  0  0  0  0
   -2.4117   -2.5657    2.3395 H   0  0  0  0  0  0  0  0  0  0  0  0
   -2.1105   -0.9868    2.6364 H   0  0  0  0  0  0  0  0  0  0  0  0
   -1.0654   -1.8626    1.7346 H   0  0  0  0  0  0  0  0  0  0  0  0
  1  5  1  0
  5  6  1  0
  5  7  2  0
  1  2  1  0
  1  3  1  0
  1  4  1  0
  8 12  1  0
 12 15  1  0
  8  9  1  0
  8 10  1  0
  8 11  1  0
 12 13  1  0
 12 14  1  0
 15 16  1  0
 15 17  1  0
 15 18  1  0
M  CHG  1   6  -1
M  END
>  <PDB_ID>  (127) 
pdb1a4y

>  <RESIDUE_NAME>  (127) 
GLU   VAL

>  <FRAG_NAME>  (127) 
ACET   PRPA

>  <FRAG_ATOM_NUM>  (127) 
fragi: 7  fragj: 11

>  <atom.prop.CHAIN_ID>  (127) 
A A A A A A A Z Z Z Z Z Z Z Z Z Z Z

>  <atom.prop.IS_HEAVY_ATOM>  (127) 
1 0 0 0 1 1 1 1 0 0 0 1 0 0 1 0 0 0

>  <DIFUSE_FUNC_ATOM>  (127) 
atom 6   atom 7   

>  <FINAL_SINGLE_POINT_ENERGY>  (127) 
0

>  <NONCOV_INTER_ENERGY_QM>  (127) 
0

>  <FF_Energy>  (127) 
4.5

>  <QM_Energy>  (127) 
-1.55

>  <Index>  (127) 
9578

$$$$
ACET-pdb2amu-A-GLU-31:PRPA-pdb2amu-A-LYS-28
     RDKit          3D

 18 16  0  0  0  0  0  0  0  0999 V2000
    0.0105    1.5114    0.0104 C   0  0  0  0  0  0  0  0  0  0  0  0
   -0.1152    1.8271   -0.9148 H   0  0  0  0  0  0  0  0  0  0  0  0
    0.8700    1.8113    0.3871 H   0  0  0  0  0  0  0  0  0  0  0  0
   -0.7802    1.9581    0.6132 H   0  0  0  0  0  0  0  0  0  0  0  0
    0.0000    0.0000    0.0000 C   0  0  0  0  0  0  0  0  0  0  0  0
   -1.0982   -0.6005   -0.0000 O   0  0  0  0  0  1  0  0  0  0  0  0
    1.0982   -0.5902    0.0000 O   0  0  0  0  0  0  0  0  0  0  0  0
    1.2108   -0.6448    3.3090 C   0  0  0  0  0  0  0  0  0  0  0  0
    0.4989   -0.2578    2.7170 H   0  0  0  0  0  0  0  0  0  0  0  0
    2.1095   -0.3521    2.9683 H   0  0  0  0  0  0  0  0  0  0  0  0
    1.0797   -0.2269    4.3071 H   0  0  0  0  0  0  0  0  0  0  0  0
    1.1346   -2.1583    3.2206 C   0  0  0  0  0  0  0  0  0  0  0  0
    1.8472   -2.5549    3.8064 H   0  0  0  0  0  0  0  0  0  0  0  0
    0.2372   -2.4598    3.5531 H   0  0  0  0  0  0  0  0  0  0  0  0
    1.3281   -2.6557    1.8063 C   0  0  0  0  0  0  0  0  0  0  0  0
    0.6151   -2.2580    1.2232 H   0  0  0  0  0  0  0  0  0  0  0  0
    2.2250   -2.3539    1.4762 H   0  0  0  0  0  0  0  0  0  0  0  0
    1.2756   -3.7415    1.7262 H   0  0  0  0  0  0  0  0  0  0  0  0
  1  5  1  0
  5  6  1  0
  5  7  2  0
  1  2  1  0
  1  3  1  0
  1  4  1  0
  8 12  1  0
 12 15  1  0
  8  9  1  0
  8 10  1  0
  8 11  1  0
 12 13  1  0
 12 14  1  0
 15 16  1  0
 15 17  1  0
 15 18  1  0
M  CHG  1   6  -1
M  END
>  <PDB_ID>  (128) 
pdb2amu

>  <RESIDUE_NAME>  (128) 
GLU   LYS

>  <FRAG_NAME>  (128) 
ACET   PRPA

>  <FRAG_ATOM_NUM>  (128) 
fragi: 7  fragj: 11

>  <atom.prop.CHAIN_ID>  (128) 
A A A A A A A Z Z Z Z Z Z Z Z Z Z Z

>  <atom.prop.IS_HEAVY_ATOM>  (128) 
1 0 0 0 1 1 1 1 0 0 0 1 0 0 1 0 0 0

>  <DIFUSE_FUNC_ATOM>  (128) 
atom 6   atom 7   

>  <FINAL_SINGLE_POINT_ENERGY>  (128) 
0

>  <NONCOV_INTER_ENERGY_QM>  (128) 
0

>  <FF_Energy>  (128) 
1.4

>  <QM_Energy>  (128) 
-1.81

>  <Index>  (128) 
9598

$$$$
ACET-pdb2amu-A-GLU-31:PRPA-pdb2amu-A-LYS-28
     RDKit          3D

 18 16  0  0  0  0  0  0  0  0999 V2000
    0.0105    1.5114    0.0104 C   0  0  0  0  0  0  0  0  0  0  0  0
   -0.1152    1.8271   -0.9148 H   0  0  0  0  0  0  0  0  0  0  0  0
    0.8700    1.8113    0.3871 H   0  0  0  0  0  0  0  0  0  0  0  0
   -0.7802    1.9581    0.6132 H   0  0  0  0  0  0  0  0  0  0  0  0
    0.0000    0.0000    0.0000 C   0  0  0  0  0  0  0  0  0  0  0  0
   -1.0982   -0.6005   -0.0000 O   0  0  0  0  0  1  0  0  0  0  0  0
    1.0982   -0.5902    0.0000 O   0  0  0  0  0  0  0  0  0  0  0  0
    1.1346   -2.1583    3.2206 C   0  0  0  0  0  0  0  0  0  0  0  0
    1.8472   -2.5549    3.8064 H   0  0  0  0  0  0  0  0  0  0  0  0
    0.2372   -2.4598    3.5531 H   0  0  0  0  0  0  0  0  0  0  0  0
    1.1893   -1.0715    3.2841 H   0  0  0  0  0  0  0  0  0  0  0  0
    1.3281   -2.6557    1.8063 C   0  0  0  0  0  0  0  0  0  0  0  0
    0.6151   -2.2580    1.2232 H   0  0  0  0  0  0  0  0  0  0  0  0
    2.2250   -2.3539    1.4762 H   0  0  0  0  0  0  0  0  0  0  0  0
    1.2553   -4.1607    1.6953 C   0  0  0  0  0  0  0  0  0  0  0  0
    1.9682   -4.5665    2.2686 H   0  0  0  0  0  0  0  0  0  0  0  0
    0.3584   -4.4705    2.0156 H   0  0  0  0  0  0  0  0  0  0  0  0
    1.3979   -4.4827    0.6637 H   0  0  0  0  0  0  0  0  0  0  0  0
  1  5  1  0
  5  6  1  0
  5  7  2  0
  1  2  1  0
  1  3  1  0
  1  4  1  0
  8 12  1  0
 12 15  1  0
  8  9  1  0
  8 10  1  0
  8 11  1  0
 12 13  1  0
 12 14  1  0
 15 16  1  0
 15 17  1  0
 15 18  1  0
M  CHG  1   6  -1
M  END
>  <PDB_ID>  (129) 
pdb2amu

>  <RESIDUE_NAME>  (129) 
GLU   LYS

>  <FRAG_NAME>  (129) 
ACET   PRPA

>  <FRAG_ATOM_NUM>  (129) 
fragi: 7  fragj: 11

>  <atom.prop.CHAIN_ID>  (129) 
A A A A A A A Z Z Z Z Z Z Z Z Z Z Z

>  <atom.prop.IS_HEAVY_ATOM>  (129) 
1 0 0 0 1 1 1 1 0 0 0 1 0 0 1 0 0 0

>  <DIFUSE_FUNC_ATOM>  (129) 
atom 6   atom 7   

>  <FINAL_SINGLE_POINT_ENERGY>  (129) 
0

>  <NONCOV_INTER_ENERGY_QM>  (129) 
0

>  <FF_Energy>  (129) 
7.09

>  <QM_Energy>  (129) 
-0.95

>  <Index>  (129) 
9600

$$$$
ACET-pdb2ac1-A-ASP-182:PRPA-pdb2ac1-A-LYS-185
     RDKit          3D

 18 16  0  0  0  0  0  0  0  0999 V2000
    0.0169    1.5196   -0.0137 C   0  0  0  0  0  0  0  0  0  0  0  0
    0.3807    1.8267   -0.8860 H   0  0  0  0  0  0  0  0  0  0  0  0
    0.5864    1.8394    0.7343 H   0  0  0  0  0  0  0  0  0  0  0  0
   -0.9748    1.9552    0.1086 H   0  0  0  0  0  0  0  0  0  0  0  0
    0.0000    0.0000    0.0000 C   0  0  0  0  0  0  0  0  0  0  0  0
   -1.0973   -0.5981   -0.0000 O   0  0  0  0  0  1  0  0  0  0  0  0
    1.0973   -0.5996   -0.0000 O   0  0  0  0  0  0  0  0  0  0  0  0
   -0.6524   -4.2172    1.2983 C   0  0  0  0  0  0  0  0  0  0  0  0
   -0.8056   -3.3590    1.7834 H   0  0  0  0  0  0  0  0  0  0  0  0
   -0.6833   -4.9795    1.9419 H   0  0  0  0  0  0  0  0  0  0  0  0
   -1.4602   -4.3491    0.5784 H   0  0  0  0  0  0  0  0  0  0  0  0
    0.7236   -4.1738    0.6679 C   0  0  0  0  0  0  0  0  0  0  0  0
    1.1367   -5.0871    0.7116 H   0  0  0  0  0  0  0  0  0  0  0  0
    0.6399   -3.8987   -0.2928 H   0  0  0  0  0  0  0  0  0  0  0  0
    1.6487   -3.1880    1.3767 C   0  0  0  0  0  0  0  0  0  0  0  0
    2.5297   -3.1849    0.9058 H   0  0  0  0  0  0  0  0  0  0  0  0
    1.2396   -2.2777    1.3314 H   0  0  0  0  0  0  0  0  0  0  0  0
    1.8111   -3.4477    2.4228 H   0  0  0  0  0  0  0  0  0  0  0  0
  1  5  1  0
  5  6  1  0
  5  7  2  0
  1  2  1  0
  1  3  1  0
  1  4  1  0
  8 12  1  0
 12 15  1  0
  8  9  1  0
  8 10  1  0
  8 11  1  0
 12 13  1  0
 12 14  1  0
 15 16  1  0
 15 17  1  0
 15 18  1  0
M  CHG  1   6  -1
M  END
>  <PDB_ID>  (130) 
pdb2ac1

>  <RESIDUE_NAME>  (130) 
ASP   LYS

>  <FRAG_NAME>  (130) 
ACET   PRPA

>  <FRAG_ATOM_NUM>  (130) 
fragi: 7  fragj: 11

>  <atom.prop.CHAIN_ID>  (130) 
A A A A A A A Z Z Z Z Z Z Z Z Z Z Z

>  <atom.prop.IS_HEAVY_ATOM>  (130) 
1 0 0 0 1 1 1 1 0 0 0 1 0 0 1 0 0 0

>  <DIFUSE_FUNC_ATOM>  (130) 
atom 6   atom 7   

>  <FINAL_SINGLE_POINT_ENERGY>  (130) 
0

>  <NONCOV_INTER_ENERGY_QM>  (130) 
0

>  <FF_Energy>  (130) 
3.93

>  <QM_Energy>  (130) 
-3.78

>  <Index>  (130) 
9635

$$$$
ACET-pdb1ad6-A-ASP-507:PRPA-pdb1ad6-A-ILE-441
     RDKit          3D

 18 16  0  0  0  0  0  0  0  0999 V2000
    0.0078    1.5113   -0.0593 C   0  0  0  0  0  0  0  0  0  0  0  0
    0.1613    1.7962   -0.9994 H   0  0  0  0  0  0  0  0  0  0  0  0
    0.7324    1.8531    0.5284 H   0  0  0  0  0  0  0  0  0  0  0  0
   -0.9308    1.9536    0.2747 H   0  0  0  0  0  0  0  0  0  0  0  0
    0.0000    0.0000    0.0000 C   0  0  0  0  0  0  0  0  0  0  0  0
   -1.1024   -0.5934   -0.0000 O   0  0  0  0  0  1  0  0  0  0  0  0
    1.1024   -0.5915   -0.0000 O   0  0  0  0  0  0  0  0  0  0  0  0
    3.6173    4.1339   -1.8531 C   0  0  0  0  0  0  0  0  0  0  0  0
    3.9064    3.9488   -0.9158 H   0  0  0  0  0  0  0  0  0  0  0  0
    4.5141    4.1301   -2.4726 H   0  0  0  0  0  0  0  0  0  0  0  0
    3.1069    5.0959   -1.8989 H   0  0  0  0  0  0  0  0  0  0  0  0
    2.6331    3.0542   -2.2788 C   0  0  0  0  0  0  0  0  0  0  0  0
    2.7349    2.9034   -3.2561 H   0  0  0  0  0  0  0  0  0  0  0  0
    2.8587    2.2177   -1.7903 H   0  0  0  0  0  0  0  0  0  0  0  0
    1.2194    3.4338   -1.9772 C   0  0  0  0  0  0  0  0  0  0  0  0
    0.9828    4.2776   -2.4634 H   0  0  0  0  0  0  0  0  0  0  0  0
    0.6009    2.7020   -2.2701 H   0  0  0  0  0  0  0  0  0  0  0  0
    1.1088    3.5818   -0.9921 H   0  0  0  0  0  0  0  0  0  0  0  0
  1  5  1  0
  5  6  1  0
  5  7  2  0
  1  2  1  0
  1  3  1  0
  1  4  1  0
  8 12  1  0
 12 15  1  0
  8  9  1  0
  8 10  1  0
  8 11  1  0
 12 13  1  0
 12 14  1  0
 15 16  1  0
 15 17  1  0
 15 18  1  0
M  CHG  1   6  -1
M  END
>  <PDB_ID>  (131) 
pdb1ad6

>  <RESIDUE_NAME>  (131) 
ASP   ILE

>  <FRAG_NAME>  (131) 
ACET   PRPA

>  <FRAG_ATOM_NUM>  (131) 
fragi: 7  fragj: 11

>  <atom.prop.CHAIN_ID>  (131) 
A A A A A A A Z Z Z Z Z Z Z Z Z Z Z

>  <atom.prop.IS_HEAVY_ATOM>  (131) 
1 0 0 0 1 1 1 1 0 0 0 1 0 0 1 0 0 0

>  <DIFUSE_FUNC_ATOM>  (131) 
atom 6   atom 7   

>  <FINAL_SINGLE_POINT_ENERGY>  (131) 
0

>  <NONCOV_INTER_ENERGY_QM>  (131) 
0

>  <FF_Energy>  (131) 
29.7

>  <QM_Energy>  (131) 
5.17

>  <Index>  (131) 
9636

$$$$
ACET-pdb1aa7-A-GLU-152:PRPA-pdb1aa7-A-LYS-113
     RDKit          3D

 18 16  0  0  0  0  0  0  0  0999 V2000
   -0.0099    1.5100    0.0010 C   0  0  0  0  0  0  0  0  0  0  0  0
    0.6489    1.8080   -0.6609 H   0  0  0  0  0  0  0  0  0  0  0  0
    0.2068    1.8044    0.9104 H   0  0  0  0  0  0  0  0  0  0  0  0
   -0.9901    1.8993   -0.2741 H   0  0  0  0  0  0  0  0  0  0  0  0
    0.0000    0.0000    0.0000 C   0  0  0  0  0  0  0  0  0  0  0  0
   -1.0911   -0.5958    0.0000 O   0  0  0  0  0  1  0  0  0  0  0  0
    1.0911   -0.6001    0.0000 O   0  0  0  0  0  0  0  0  0  0  0  0
   -4.0181   -3.3233   -1.4324 C   0  0  0  0  0  0  0  0  0  0  0  0
   -3.1710   -3.3511   -1.9700 H   0  0  0  0  0  0  0  0  0  0  0  0
   -4.5095   -2.4747   -1.6432 H   0  0  0  0  0  0  0  0  0  0  0  0
   -4.6421   -4.1709   -1.7158 H   0  0  0  0  0  0  0  0  0  0  0  0
   -3.6769   -3.3485    0.0299 C   0  0  0  0  0  0  0  0  0  0  0  0
   -4.0544   -2.5508    0.4672 H   0  0  0  0  0  0  0  0  0  0  0  0
   -4.0116   -4.1833    0.4303 H   0  0  0  0  0  0  0  0  0  0  0  0
   -2.1752   -3.3122    0.1642 C   0  0  0  0  0  0  0  0  0  0  0  0
   -1.7666   -3.1533   -0.7682 H   0  0  0  0  0  0  0  0  0  0  0  0
   -1.9148   -2.4778    0.7107 H   0  0  0  0  0  0  0  0  0  0  0  0
   -1.6854   -4.1784    0.6090 H   0  0  0  0  0  0  0  0  0  0  0  0
  1  5  1  0
  5  6  1  0
  5  7  2  0
  1  2  1  0
  1  3  1  0
  1  4  1  0
  8 12  1  0
 12 15  1  0
  8  9  1  0
  8 10  1  0
  8 11  1  0
 12 13  1  0
 12 14  1  0
 15 16  1  0
 15 17  1  0
 15 18  1  0
M  CHG  1   6  -1
M  END
>  <PDB_ID>  (132) 
pdb1aa7

>  <RESIDUE_NAME>  (132) 
GLU   LYS

>  <FRAG_NAME>  (132) 
ACET   PRPA

>  <FRAG_ATOM_NUM>  (132) 
fragi: 7  fragj: 11

>  <atom.prop.CHAIN_ID>  (132) 
A A A A A A A Z Z Z Z Z Z Z Z Z Z Z

>  <atom.prop.IS_HEAVY_ATOM>  (132) 
1 0 0 0 1 1 1 1 0 0 0 1 0 0 1 0 0 0

>  <DIFUSE_FUNC_ATOM>  (132) 
atom 6   atom 7   

>  <FINAL_SINGLE_POINT_ENERGY>  (132) 
0

>  <NONCOV_INTER_ENERGY_QM>  (132) 
0

>  <FF_Energy>  (132) 
3.18

>  <QM_Energy>  (132) 
-1.94

>  <Index>  (132) 
9710

$$$$
ACET-pdb1a8m-A-GLU-116:PRPA-pdb1a8m-A-LYS-98
     RDKit          3D

 18 16  0  0  0  0  0  0  0  0999 V2000
   -0.0551    1.4928   -0.0528 C   0  0  0  0  0  0  0  0  0  0  0  0
    0.8624    1.8289   -0.1292 H   0  0  0  0  0  0  0  0  0  0  0  0
   -0.5096    1.8094    0.7553 H   0  0  0  0  0  0  0  0  0  0  0  0
   -0.6186    1.8350   -0.9208 H   0  0  0  0  0  0  0  0  0  0  0  0
    0.0000    0.0000    0.0000 C   0  0  0  0  0  0  0  0  0  0  0  0
   -1.0943   -0.5704   -0.0000 O   0  0  0  0  0  1  0  0  0  0  0  0
    1.0943   -0.6117    0.0000 O   0  0  0  0  0  0  0  0  0  0  0  0
   -3.1432   -3.2000   -0.7619 C   0  0  0  0  0  0  0  0  0  0  0  0
   -2.6338   -3.8080   -0.1469 H   0  0  0  0  0  0  0  0  0  0  0  0
   -3.7985   -3.7456   -1.2899 H   0  0  0  0  0  0  0  0  0  0  0  0
   -3.6949   -2.4789   -0.1589 H   0  0  0  0  0  0  0  0  0  0  0  0
   -2.1560   -2.5403   -1.7319 C   0  0  0  0  0  0  0  0  0  0  0  0
   -2.6533   -2.2509   -2.5447 H   0  0  0  0  0  0  0  0  0  0  0  0
   -1.7441   -1.7528   -1.2827 H   0  0  0  0  0  0  0  0  0  0  0  0
   -1.0372   -3.4930   -2.1616 C   0  0  0  0  0  0  0  0  0  0  0  0
   -1.0114   -4.2680   -1.5315 H   0  0  0  0  0  0  0  0  0  0  0  0
   -1.2257   -3.8189   -3.0864 H   0  0  0  0  0  0  0  0  0  0  0  0
   -0.0678   -2.9949   -2.1516 H   0  0  0  0  0  0  0  0  0  0  0  0
  1  5  1  0
  5  6  1  0
  5  7  2  0
  1  2  1  0
  1  3  1  0
  1  4  1  0
  8 12  1  0
 12 15  1  0
  8  9  1  0
  8 10  1  0
  8 11  1  0
 12 13  1  0
 12 14  1  0
 15 16  1  0
 15 17  1  0
 15 18  1  0
M  CHG  1   6  -1
M  END
>  <PDB_ID>  (133) 
pdb1a8m

>  <RESIDUE_NAME>  (133) 
GLU   LYS

>  <FRAG_NAME>  (133) 
ACET   PRPA

>  <FRAG_ATOM_NUM>  (133) 
fragi: 7  fragj: 11

>  <atom.prop.CHAIN_ID>  (133) 
A A A A A A A Z Z Z Z Z Z Z Z Z Z Z

>  <atom.prop.IS_HEAVY_ATOM>  (133) 
1 0 0 0 1 1 1 1 0 0 0 1 0 0 1 0 0 0

>  <DIFUSE_FUNC_ATOM>  (133) 
atom 6   atom 7   

>  <FINAL_SINGLE_POINT_ENERGY>  (133) 
0

>  <NONCOV_INTER_ENERGY_QM>  (133) 
0

>  <FF_Energy>  (133) 
12.36

>  <QM_Energy>  (133) 
-1.74

>  <Index>  (133) 
9742

$$$$
ACET-pdb1ae7-A-ASP-119:PRPA-pdb1ae7-A-LYS-122
     RDKit          3D

 18 16  0  0  0  0  0  0  0  0999 V2000
    0.0370    1.5237   -0.0044 C   0  0  0  0  0  0  0  0  0  0  0  0
    0.8252    1.8170   -0.5511 H   0  0  0  0  0  0  0  0  0  0  0  0
    0.1602    1.8380    0.9398 H   0  0  0  0  0  0  0  0  0  0  0  0
   -0.8541    2.0041   -0.4086 H   0  0  0  0  0  0  0  0  0  0  0  0
    0.0000    0.0000    0.0000 C   0  0  0  0  0  0  0  0  0  0  0  0
   -1.0784   -0.5972   -0.0000 O   0  0  0  0  0  1  0  0  0  0  0  0
    1.0784   -0.5924    0.0000 O   0  0  0  0  0  0  0  0  0  0  0  0
   -0.3936   -0.3509    3.5800 C   0  0  0  0  0  0  0  0  0  0  0  0
   -0.4310   -1.2534    3.0633 H   0  0  0  0  0  0  0  0  0  0  0  0
   -0.4234    0.3620    2.8218 H   0  0  0  0  0  0  0  0  0  0  0  0
   -1.3142   -0.2598    4.1566 H   0  0  0  0  0  0  0  0  0  0  0  0
    0.9757   -0.2634    4.2160 C   0  0  0  0  0  0  0  0  0  0  0  0
    1.0414    0.5411    4.7422 H   0  0  0  0  0  0  0  0  0  0  0  0
    1.1776   -1.0855    4.6748 H   0  0  0  0  0  0  0  0  0  0  0  0
    1.8832   -0.1361    2.9955 C   0  0  0  0  0  0  0  0  0  0  0  0
    1.3598   -0.4222    2.1764 H   0  0  0  0  0  0  0  0  0  0  0  0
    2.1239    0.8401    2.8756 H   0  0  0  0  0  0  0  0  0  0  0  0
    2.8079   -0.7125    3.0257 H   0  0  0  0  0  0  0  0  0  0  0  0
  1  5  1  0
  5  6  1  0
  5  7  2  0
  1  2  1  0
  1  3  1  0
  1  4  1  0
  8 12  1  0
 12 15  1  0
  8  9  1  0
  8 10  1  0
  8 11  1  0
 12 13  1  0
 12 14  1  0
 15 16  1  0
 15 17  1  0
 15 18  1  0
M  CHG  1   6  -1
M  END
>  <PDB_ID>  (134) 
pdb1ae7

>  <RESIDUE_NAME>  (134) 
ASP   LYS

>  <FRAG_NAME>  (134) 
ACET   PRPA

>  <FRAG_ATOM_NUM>  (134) 
fragi: 7  fragj: 11

>  <atom.prop.CHAIN_ID>  (134) 
A A A A A A A Z Z Z Z Z Z Z Z Z Z Z

>  <atom.prop.IS_HEAVY_ATOM>  (134) 
1 0 0 0 1 1 1 1 0 0 0 1 0 0 1 0 0 0

>  <DIFUSE_FUNC_ATOM>  (134) 
atom 6   atom 7   

>  <FINAL_SINGLE_POINT_ENERGY>  (134) 
0

>  <NONCOV_INTER_ENERGY_QM>  (134) 
0

>  <FF_Energy>  (134) 
2.17

>  <QM_Energy>  (134) 
-3.46

>  <Index>  (134) 
9744

$$$$
ACET-pdb1ab8-A-ASP-883:PRPA-pdb1ab8-A-PRO-1004
     RDKit          3D

 18 16  0  0  0  0  0  0  0  0999 V2000
   -0.0051    1.5211   -0.0535 C   0  0  0  0  0  0  0  0  0  0  0  0
    0.9141    1.8310   -0.2468 H   0  0  0  0  0  0  0  0  0  0  0  0
   -0.3222    1.8646    0.8183 H   0  0  0  0  0  0  0  0  0  0  0  0
   -0.6675    1.8931   -0.8352 H   0  0  0  0  0  0  0  0  0  0  0  0
    0.0000    0.0000    0.0000 C   0  0  0  0  0  0  0  0  0  0  0  0
   -1.1002   -0.6059   -0.0000 O   0  0  0  0  0  1  0  0  0  0  0  0
    1.1002   -0.5957   -0.0000 O   0  0  0  0  0  0  0  0  0  0  0  0
   -1.2858   -0.6487   -3.8711 C   0  0  0  0  0  0  0  0  0  0  0  0
   -1.2676    0.1971   -3.3456 H   0  0  0  0  0  0  0  0  0  0  0  0
   -2.1158   -1.2837   -3.5611 H   0  0  0  0  0  0  0  0  0  0  0  0
   -1.3828   -0.4454   -4.9376 H   0  0  0  0  0  0  0  0  0  0  0  0
   -0.0693   -1.5229   -3.5954 C   0  0  0  0  0  0  0  0  0  0  0  0
    0.2435   -1.9748   -4.4319 H   0  0  0  0  0  0  0  0  0  0  0  0
    0.6791   -0.9838   -3.2094 H   0  0  0  0  0  0  0  0  0  0  0  0
   -0.5680   -2.5283   -2.6026 C   0  0  0  0  0  0  0  0  0  0  0  0
    0.0213   -3.3325   -2.5994 H   0  0  0  0  0  0  0  0  0  0  0  0
   -0.5987   -2.1257   -1.6907 H   0  0  0  0  0  0  0  0  0  0  0  0
   -1.5657   -2.7609   -2.9748 H   0  0  0  0  0  0  0  0  0  0  0  0
  1  5  1  0
  5  6  1  0
  5  7  2  0
  1  2  1  0
  1  3  1  0
  1  4  1  0
  8 12  1  0
 12 15  1  0
  8  9  1  0
  8 10  1  0
  8 11  1  0
 12 13  1  0
 12 14  1  0
 15 16  1  0
 15 17  1  0
 15 18  1  0
M  CHG  1   6  -1
M  END
>  <PDB_ID>  (135) 
pdb1ab8

>  <RESIDUE_NAME>  (135) 
ASP   PRO

>  <FRAG_NAME>  (135) 
ACET   PRPA

>  <FRAG_ATOM_NUM>  (135) 
fragi: 7  fragj: 11

>  <atom.prop.CHAIN_ID>  (135) 
A A A A A A A Z Z Z Z Z Z Z Z Z Z Z

>  <atom.prop.IS_HEAVY_ATOM>  (135) 
1 0 0 0 1 1 1 1 0 0 0 1 0 0 1 0 0 0

>  <DIFUSE_FUNC_ATOM>  (135) 
atom 6   atom 7   

>  <FINAL_SINGLE_POINT_ENERGY>  (135) 
0

>  <NONCOV_INTER_ENERGY_QM>  (135) 
0

>  <FF_Energy>  (135) 
0.35

>  <QM_Energy>  (135) 
-5.66

>  <Index>  (135) 
9813

$$$$
ACET-pdb1a8i-A-ASP-109:PRPA-pdb1a8i-A-ARG-10
     RDKit          3D

 18 16  0  0  0  0  0  0  0  0999 V2000
    0.0458    1.5106    0.0232 C   0  0  0  0  0  0  0  0  0  0  0  0
    0.4528    1.8347   -0.8086 H   0  0  0  0  0  0  0  0  0  0  0  0
    0.5303    1.8081    0.8223 H   0  0  0  0  0  0  0  0  0  0  0  0
   -0.9672    1.9094    0.0774 H   0  0  0  0  0  0  0  0  0  0  0  0
    0.0000    0.0000    0.0000 C   0  0  0  0  0  0  0  0  0  0  0  0
   -1.0710   -0.6349    0.0000 O   0  0  0  0  0  1  0  0  0  0  0  0
    1.0710   -0.6357    0.0000 O   0  0  0  0  0  0  0  0  0  0  0  0
    3.4182   -2.1676    0.1800 C   0  0  0  0  0  0  0  0  0  0  0  0
    2.9198   -1.6615    0.9387 H   0  0  0  0  0  0  0  0  0  0  0  0
    3.2654   -1.5674   -0.6542 H   0  0  0  0  0  0  0  0  0  0  0  0
    4.4825   -2.1338    0.4134 H   0  0  0  0  0  0  0  0  0  0  0  0
    2.6694   -3.4536   -0.0592 C   0  0  0  0  0  0  0  0  0  0  0  0
    3.3474   -4.2108   -0.2128 H   0  0  0  0  0  0  0  0  0  0  0  0
    2.1676   -3.7110    0.7997 H   0  0  0  0  0  0  0  0  0  0  0  0
    1.6771   -3.4939   -1.1937 C   0  0  0  0  0  0  0  0  0  0  0  0
    2.1480   -3.1096   -2.0296 H   0  0  0  0  0  0  0  0  0  0  0  0
    1.5145   -4.4881   -1.4248 H   0  0  0  0  0  0  0  0  0  0  0  0
    0.7098   -3.0027   -1.0882 H   0  0  0  0  0  0  0  0  0  0  0  0
  1  5  1  0
  5  6  1  0
  5  7  2  0
  1  2  1  0
  1  3  1  0
  1  4  1  0
  8 12  1  0
 12 15  1  0
  8  9  1  0
  8 10  1  0
  8 11  1  0
 12 13  1  0
 12 14  1  0
 15 16  1  0
 15 17  1  0
 15 18  1  0
M  CHG  1   6  -1
M  END
>  <PDB_ID>  (136) 
pdb1a8i

>  <RESIDUE_NAME>  (136) 
ASP   ARG

>  <FRAG_NAME>  (136) 
ACET   PRPA

>  <FRAG_ATOM_NUM>  (136) 
fragi: 7  fragj: 11

>  <atom.prop.CHAIN_ID>  (136) 
A A A A A A A Z Z Z Z Z Z Z Z Z Z Z

>  <atom.prop.IS_HEAVY_ATOM>  (136) 
1 0 0 0 1 1 1 1 0 0 0 1 0 0 1 0 0 0

>  <DIFUSE_FUNC_ATOM>  (136) 
atom 6   atom 7   

>  <FINAL_SINGLE_POINT_ENERGY>  (136) 
0

>  <NONCOV_INTER_ENERGY_QM>  (136) 
0

>  <FF_Energy>  (136) 
3.48

>  <QM_Energy>  (136) 
-3.02

>  <Index>  (136) 
9926

$$$$
ACET-pdb2acv-A-GLU-76:PRPA-pdb2acv-A-LYS-48
     RDKit          3D

 18 16  0  0  0  0  0  0  0  0999 V2000
    0.0043    1.5124    0.0052 C   0  0  0  0  0  0  0  0  0  0  0  0
    0.9410    1.8078   -0.0366 H   0  0  0  0  0  0  0  0  0  0  0  0
   -0.4426    1.8085    0.8299 H   0  0  0  0  0  0  0  0  0  0  0  0
   -0.5272    1.9369   -0.8465 H   0  0  0  0  0  0  0  0  0  0  0  0
    0.0000    0.0000    0.0000 C   0  0  0  0  0  0  0  0  0  0  0  0
   -1.0973   -0.5954    0.0000 O   0  0  0  0  0  1  0  0  0  0  0  0
    1.0973   -0.5955   -0.0000 O   0  0  0  0  0  0  0  0  0  0  0  0
    3.7926    2.2226    0.8458 C   0  0  0  0  0  0  0  0  0  0  0  0
    3.5847    2.1166    1.8143 H   0  0  0  0  0  0  0  0  0  0  0  0
    3.1158    2.8127    0.4145 H   0  0  0  0  0  0  0  0  0  0  0  0
    4.7677    2.7015    0.7564 H   0  0  0  0  0  0  0  0  0  0  0  0
    3.7150    0.8438    0.1866 C   0  0  0  0  0  0  0  0  0  0  0  0
    2.7809    0.4951    0.2755 H   0  0  0  0  0  0  0  0  0  0  0  0
    3.9454    0.9346   -0.7826 H   0  0  0  0  0  0  0  0  0  0  0  0
    4.6753   -0.1507    0.8313 C   0  0  0  0  0  0  0  0  0  0  0  0
    5.5340    0.3123    1.0283 H   0  0  0  0  0  0  0  0  0  0  0  0
    4.2687   -0.4933    1.6731 H   0  0  0  0  0  0  0  0  0  0  0  0
    4.8842   -0.9996    0.1803 H   0  0  0  0  0  0  0  0  0  0  0  0
  1  5  1  0
  5  6  1  0
  5  7  2  0
  1  2  1  0
  1  3  1  0
  1  4  1  0
  8 12  1  0
 12 15  1  0
  8  9  1  0
  8 10  1  0
  8 11  1  0
 12 13  1  0
 12 14  1  0
 15 16  1  0
 15 17  1  0
 15 18  1  0
M  CHG  1   6  -1
M  END
>  <PDB_ID>  (137) 
pdb2acv

>  <RESIDUE_NAME>  (137) 
GLU   LYS

>  <FRAG_NAME>  (137) 
ACET   PRPA

>  <FRAG_ATOM_NUM>  (137) 
fragi: 7  fragj: 11

>  <atom.prop.CHAIN_ID>  (137) 
A A A A A A A Z Z Z Z Z Z Z Z Z Z Z

>  <atom.prop.IS_HEAVY_ATOM>  (137) 
1 0 0 0 1 1 1 1 0 0 0 1 0 0 1 0 0 0

>  <DIFUSE_FUNC_ATOM>  (137) 
atom 6   atom 7   

>  <FINAL_SINGLE_POINT_ENERGY>  (137) 
0

>  <NONCOV_INTER_ENERGY_QM>  (137) 
0

>  <FF_Energy>  (137) 
8.92

>  <QM_Energy>  (137) 
-2.62

>  <Index>  (137) 
10049

$$$$
ACET-pdb2acv-A-GLU-76:PRPA-pdb2acv-A-LYS-48
     RDKit          3D

 18 16  0  0  0  0  0  0  0  0999 V2000
    0.0043    1.5124    0.0052 C   0  0  0  0  0  0  0  0  0  0  0  0
    0.9410    1.8078   -0.0366 H   0  0  0  0  0  0  0  0  0  0  0  0
   -0.4426    1.8085    0.8299 H   0  0  0  0  0  0  0  0  0  0  0  0
   -0.5272    1.9369   -0.8465 H   0  0  0  0  0  0  0  0  0  0  0  0
    0.0000    0.0000    0.0000 C   0  0  0  0  0  0  0  0  0  0  0  0
   -1.0973   -0.5954    0.0000 O   0  0  0  0  0  1  0  0  0  0  0  0
    1.0973   -0.5955   -0.0000 O   0  0  0  0  0  0  0  0  0  0  0  0
    3.7150    0.8438    0.1866 C   0  0  0  0  0  0  0  0  0  0  0  0
    2.7809    0.4951    0.2755 H   0  0  0  0  0  0  0  0  0  0  0  0
    3.9454    0.9346   -0.7826 H   0  0  0  0  0  0  0  0  0  0  0  0
    3.7703    1.8259    0.6560 H   0  0  0  0  0  0  0  0  0  0  0  0
    4.6753   -0.1507    0.8313 C   0  0  0  0  0  0  0  0  0  0  0  0
    5.5340    0.3123    1.0283 H   0  0  0  0  0  0  0  0  0  0  0  0
    4.2687   -0.4933    1.6731 H   0  0  0  0  0  0  0  0  0  0  0  0
    4.9687   -1.3428   -0.0829 C   0  0  0  0  0  0  0  0  0  0  0  0
    5.3947   -0.9969   -0.9325 H   0  0  0  0  0  0  0  0  0  0  0  0
    5.6448   -1.9394    0.3759 H   0  0  0  0  0  0  0  0  0  0  0  0
    4.0882   -1.9324   -0.3387 H   0  0  0  0  0  0  0  0  0  0  0  0
  1  5  1  0
  5  6  1  0
  5  7  2  0
  1  2  1  0
  1  3  1  0
  1  4  1  0
  8 12  1  0
 12 15  1  0
  8  9  1  0
  8 10  1  0
  8 11  1  0
 12 13  1  0
 12 14  1  0
 15 16  1  0
 15 17  1  0
 15 18  1  0
M  CHG  1   6  -1
M  END
>  <PDB_ID>  (138) 
pdb2acv

>  <RESIDUE_NAME>  (138) 
GLU   LYS

>  <FRAG_NAME>  (138) 
ACET   PRPA

>  <FRAG_ATOM_NUM>  (138) 
fragi: 7  fragj: 11

>  <atom.prop.CHAIN_ID>  (138) 
A A A A A A A Z Z Z Z Z Z Z Z Z Z Z

>  <atom.prop.IS_HEAVY_ATOM>  (138) 
1 0 0 0 1 1 1 1 0 0 0 1 0 0 1 0 0 0

>  <DIFUSE_FUNC_ATOM>  (138) 
atom 6   atom 7   

>  <FINAL_SINGLE_POINT_ENERGY>  (138) 
0

>  <NONCOV_INTER_ENERGY_QM>  (138) 
0

>  <FF_Energy>  (138) 
9.3

>  <QM_Energy>  (138) 
-2.36

>  <Index>  (138) 
10054

$$$$
ACET-pdb1ad8-H-GLU-80:PRPA-pdb1ad8-H-ARG-67
     RDKit          3D

 18 16  0  0  0  0  0  0  0  0999 V2000
   -0.0227    1.5085   -0.0262 C   0  0  0  0  0  0  0  0  0  0  0  0
    0.8402    1.8291    0.3128 H   0  0  0  0  0  0  0  0  0  0  0  0
   -0.7785    1.8081    0.5220 H   0  0  0  0  0  0  0  0  0  0  0  0
   -0.1574    1.8998   -1.0346 H   0  0  0  0  0  0  0  0  0  0  0  0
    0.0000    0.0000    0.0000 C   0  0  0  0  0  0  0  0  0  0  0  0
   -1.0951   -0.5892    0.0000 O   0  0  0  0  0  1  0  0  0  0  0  0
    1.0951   -0.5959    0.0000 O   0  0  0  0  0  0  0  0  0  0  0  0
   -3.0215   -2.5720   -2.7281 C   0  0  0  0  0  0  0  0  0  0  0  0
   -2.6150   -3.1142   -3.4485 H   0  0  0  0  0  0  0  0  0  0  0  0
   -2.3657   -1.9387   -2.3433 H   0  0  0  0  0  0  0  0  0  0  0  0
   -3.8482   -2.0007   -3.1504 H   0  0  0  0  0  0  0  0  0  0  0  0
   -3.4713   -3.5161   -1.6218 C   0  0  0  0  0  0  0  0  0  0  0  0
   -4.3964   -3.2743   -1.3410 H   0  0  0  0  0  0  0  0  0  0  0  0
   -3.4518   -4.4522   -1.9622 H   0  0  0  0  0  0  0  0  0  0  0  0
   -2.5645   -3.4224   -0.4238 C   0  0  0  0  0  0  0  0  0  0  0  0
   -2.1687   -2.4963   -0.3987 H   0  0  0  0  0  0  0  0  0  0  0  0
   -3.1227   -3.5513    0.4040 H   0  0  0  0  0  0  0  0  0  0  0  0
   -1.7548   -4.1520   -0.4209 H   0  0  0  0  0  0  0  0  0  0  0  0
  1  5  1  0
  5  6  1  0
  5  7  2  0
  1  2  1  0
  1  3  1  0
  1  4  1  0
  8 12  1  0
 12 15  1  0
  8  9  1  0
  8 10  1  0
  8 11  1  0
 12 13  1  0
 12 14  1  0
 15 16  1  0
 15 17  1  0
 15 18  1  0
M  CHG  1   6  -1
M  END
>  <PDB_ID>  (139) 
pdb1ad8

>  <RESIDUE_NAME>  (139) 
GLU   ARG

>  <FRAG_NAME>  (139) 
ACET   PRPA

>  <FRAG_ATOM_NUM>  (139) 
fragi: 7  fragj: 11

>  <atom.prop.CHAIN_ID>  (139) 
A A A A A A A Z Z Z Z Z Z Z Z Z Z Z

>  <atom.prop.IS_HEAVY_ATOM>  (139) 
1 0 0 0 1 1 1 1 0 0 0 1 0 0 1 0 0 0

>  <DIFUSE_FUNC_ATOM>  (139) 
atom 6   atom 7   

>  <FINAL_SINGLE_POINT_ENERGY>  (139) 
0

>  <NONCOV_INTER_ENERGY_QM>  (139) 
0

>  <FF_Energy>  (139) 
1.36

>  <QM_Energy>  (139) 
-3.9

>  <Index>  (139) 
10146

$$$$
ACET-pdb2alr-A-GLU-54:PRPA-pdb2alr-A-PRO-25
     RDKit          3D

 18 16  0  0  0  0  0  0  0  0999 V2000
    0.1413    1.5113   -0.0067 C   0  0  0  0  0  0  0  0  0  0  0  0
    0.2153    1.8039   -0.9530 H   0  0  0  0  0  0  0  0  0  0  0  0
    0.9696    1.7394    0.4930 H   0  0  0  0  0  0  0  0  0  0  0  0
   -0.6783    2.0708    0.4443 H   0  0  0  0  0  0  0  0  0  0  0  0
    0.0000    0.0000    0.0000 C   0  0  0  0  0  0  0  0  0  0  0  0
   -1.0997   -0.6026    0.0000 O   0  0  0  0  0  1  0  0  0  0  0  0
    1.0997   -0.6086    0.0000 O   0  0  0  0  0  0  0  0  0  0  0  0
   -1.2910    1.3992   -3.6216 C   0  0  0  0  0  0  0  0  0  0  0  0
   -2.0191    1.4234   -2.9118 H   0  0  0  0  0  0  0  0  0  0  0  0
   -1.7186    1.2553   -4.6139 H   0  0  0  0  0  0  0  0  0  0  0  0
   -0.6706    2.2932   -3.5581 H   0  0  0  0  0  0  0  0  0  0  0  0
   -0.4892    0.1388   -3.2860 C   0  0  0  0  0  0  0  0  0  0  0  0
    0.4992    0.3054   -3.3815 H   0  0  0  0  0  0  0  0  0  0  0  0
   -0.6702   -0.1622   -2.3425 H   0  0  0  0  0  0  0  0  0  0  0  0
   -0.9391   -0.9245   -4.2717 C   0  0  0  0  0  0  0  0  0  0  0  0
   -0.1461   -1.4360   -4.6138 H   0  0  0  0  0  0  0  0  0  0  0  0
   -1.5696   -1.5648   -3.8240 H   0  0  0  0  0  0  0  0  0  0  0  0
   -1.4378   -0.3974   -5.0852 H   0  0  0  0  0  0  0  0  0  0  0  0
  1  5  1  0
  5  6  1  0
  5  7  2  0
  1  2  1  0
  1  3  1  0
  1  4  1  0
  8 12  1  0
 12 15  1  0
  8  9  1  0
  8 10  1  0
  8 11  1  0
 12 13  1  0
 12 14  1  0
 15 16  1  0
 15 17  1  0
 15 18  1  0
M  CHG  1   6  -1
M  END
>  <PDB_ID>  (140) 
pdb2alr

>  <RESIDUE_NAME>  (140) 
GLU   PRO

>  <FRAG_NAME>  (140) 
ACET   PRPA

>  <FRAG_ATOM_NUM>  (140) 
fragi: 7  fragj: 11

>  <atom.prop.CHAIN_ID>  (140) 
A A A A A A A Z Z Z Z Z Z Z Z Z Z Z

>  <atom.prop.IS_HEAVY_ATOM>  (140) 
1 0 0 0 1 1 1 1 0 0 0 1 0 0 1 0 0 0

>  <DIFUSE_FUNC_ATOM>  (140) 
atom 6   atom 7   

>  <FINAL_SINGLE_POINT_ENERGY>  (140) 
0

>  <NONCOV_INTER_ENERGY_QM>  (140) 
0

>  <FF_Energy>  (140) 
2.67

>  <QM_Energy>  (140) 
-4.56

>  <Index>  (140) 
10223

$$$$
ACET-pdb2alr-A-GLU-54:PRPA-pdb2alr-A-PRO-25
     RDKit          3D

 18 16  0  0  0  0  0  0  0  0999 V2000
    0.1413    1.5113   -0.0067 C   0  0  0  0  0  0  0  0  0  0  0  0
    0.2153    1.8039   -0.9530 H   0  0  0  0  0  0  0  0  0  0  0  0
    0.9696    1.7394    0.4930 H   0  0  0  0  0  0  0  0  0  0  0  0
   -0.6783    2.0708    0.4443 H   0  0  0  0  0  0  0  0  0  0  0  0
    0.0000    0.0000    0.0000 C   0  0  0  0  0  0  0  0  0  0  0  0
   -1.0997   -0.6026    0.0000 O   0  0  0  0  0  1  0  0  0  0  0  0
    1.0997   -0.6086    0.0000 O   0  0  0  0  0  0  0  0  0  0  0  0
   -0.4892    0.1388   -3.2860 C   0  0  0  0  0  0  0  0  0  0  0  0
    0.4992    0.3054   -3.3815 H   0  0  0  0  0  0  0  0  0  0  0  0
   -0.6702   -0.1622   -2.3425 H   0  0  0  0  0  0  0  0  0  0  0  0
   -1.0601    1.0361   -3.5250 H   0  0  0  0  0  0  0  0  0  0  0  0
   -0.9391   -0.9245   -4.2717 C   0  0  0  0  0  0  0  0  0  0  0  0
   -0.1461   -1.4360   -4.6138 H   0  0  0  0  0  0  0  0  0  0  0  0
   -1.5696   -1.5648   -3.8240 H   0  0  0  0  0  0  0  0  0  0  0  0
   -1.6356   -0.1883   -5.4080 C   0  0  0  0  0  0  0  0  0  0  0  0
   -1.0671   -0.1870   -6.2421 H   0  0  0  0  0  0  0  0  0  0  0  0
   -2.5186   -0.6238   -5.6356 H   0  0  0  0  0  0  0  0  0  0  0  0
   -1.7989    0.8333   -5.0650 H   0  0  0  0  0  0  0  0  0  0  0  0
  1  5  1  0
  5  6  1  0
  5  7  2  0
  1  2  1  0
  1  3  1  0
  1  4  1  0
  8 12  1  0
 12 15  1  0
  8  9  1  0
  8 10  1  0
  8 11  1  0
 12 13  1  0
 12 14  1  0
 15 16  1  0
 15 17  1  0
 15 18  1  0
M  CHG  1   6  -1
M  END
>  <PDB_ID>  (141) 
pdb2alr

>  <RESIDUE_NAME>  (141) 
GLU   PRO

>  <FRAG_NAME>  (141) 
ACET   PRPA

>  <FRAG_ATOM_NUM>  (141) 
fragi: 7  fragj: 11

>  <atom.prop.CHAIN_ID>  (141) 
A A A A A A A Z Z Z Z Z Z Z Z Z Z Z

>  <atom.prop.IS_HEAVY_ATOM>  (141) 
1 0 0 0 1 1 1 1 0 0 0 1 0 0 1 0 0 0

>  <DIFUSE_FUNC_ATOM>  (141) 
atom 6   atom 7   

>  <FINAL_SINGLE_POINT_ENERGY>  (141) 
0

>  <NONCOV_INTER_ENERGY_QM>  (141) 
0

>  <FF_Energy>  (141) 
3.05

>  <QM_Energy>  (141) 
-3.05

>  <Index>  (141) 
10238

$$$$
ACET-pdb1ac5-A-GLU-50:PRPA-pdb1ac5-A-PRO-35
     RDKit          3D

 18 16  0  0  0  0  0  0  0  0999 V2000
   -0.0053    1.5077   -0.0109 C   0  0  0  0  0  0  0  0  0  0  0  0
   -0.7997    1.8022   -0.5103 H   0  0  0  0  0  0  0  0  0  0  0  0
    0.8299    1.8076   -0.4351 H   0  0  0  0  0  0  0  0  0  0  0  0
   -0.0540    1.9366    0.9899 H   0  0  0  0  0  0  0  0  0  0  0  0
    0.0000    0.0000    0.0000 C   0  0  0  0  0  0  0  0  0  0  0  0
   -1.1019   -0.5932    0.0000 O   0  0  0  0  0  1  0  0  0  0  0  0
    1.1019   -0.5906   -0.0000 O   0  0  0  0  0  0  0  0  0  0  0  0
   -2.7874    2.2282   -1.9915 C   0  0  0  0  0  0  0  0  0  0  0  0
   -1.9140    2.3928   -1.5096 H   0  0  0  0  0  0  0  0  0  0  0  0
   -3.4322    1.5783   -1.4000 H   0  0  0  0  0  0  0  0  0  0  0  0
   -3.2736    3.1707   -2.2431 H   0  0  0  0  0  0  0  0  0  0  0  0
   -2.5429    1.4063   -3.2616 C   0  0  0  0  0  0  0  0  0  0  0  0
   -3.2001    1.6602   -3.9748 H   0  0  0  0  0  0  0  0  0  0  0  0
   -1.6139    1.5564   -3.6023 H   0  0  0  0  0  0  0  0  0  0  0  0
   -2.7379    0.0041   -2.8220 C   0  0  0  0  0  0  0  0  0  0  0  0
   -2.9219   -0.5914   -3.5969 H   0  0  0  0  0  0  0  0  0  0  0  0
   -1.9472   -0.3238   -2.3148 H   0  0  0  0  0  0  0  0  0  0  0  0
   -3.6112    0.0798   -2.1741 H   0  0  0  0  0  0  0  0  0  0  0  0
  1  5  1  0
  5  6  1  0
  5  7  2  0
  1  2  1  0
  1  3  1  0
  1  4  1  0
  8 12  1  0
 12 15  1  0
  8  9  1  0
  8 10  1  0
  8 11  1  0
 12 13  1  0
 12 14  1  0
 15 16  1  0
 15 17  1  0
 15 18  1  0
M  CHG  1   6  -1
M  END
>  <PDB_ID>  (142) 
pdb1ac5

>  <RESIDUE_NAME>  (142) 
GLU   PRO

>  <FRAG_NAME>  (142) 
ACET   PRPA

>  <FRAG_ATOM_NUM>  (142) 
fragi: 7  fragj: 11

>  <atom.prop.CHAIN_ID>  (142) 
A A A A A A A Z Z Z Z Z Z Z Z Z Z Z

>  <atom.prop.IS_HEAVY_ATOM>  (142) 
1 0 0 0 1 1 1 1 0 0 0 1 0 0 1 0 0 0

>  <DIFUSE_FUNC_ATOM>  (142) 
atom 6   atom 7   

>  <FINAL_SINGLE_POINT_ENERGY>  (142) 
0

>  <NONCOV_INTER_ENERGY_QM>  (142) 
0

>  <FF_Energy>  (142) 
22.47

>  <QM_Energy>  (142) 
-0.39

>  <Index>  (142) 
10333

$$$$
ACET-pdb2am1-A-GLU-7:PRPA-pdb2am1-A-LEU-3
     RDKit          3D

 18 16  0  0  0  0  0  0  0  0999 V2000
   -0.0039    1.5267   -0.0003 C   0  0  0  0  0  0  0  0  0  0  0  0
   -0.4512    1.8196    0.8224 H   0  0  0  0  0  0  0  0  0  0  0  0
   -0.4747    1.8190   -0.8106 H   0  0  0  0  0  0  0  0  0  0  0  0
    0.9999    1.9514   -0.0140 H   0  0  0  0  0  0  0  0  0  0  0  0
    0.0000    0.0000    0.0000 C   0  0  0  0  0  0  0  0  0  0  0  0
   -1.1015   -0.6011   -0.0000 O   0  0  0  0  0  1  0  0  0  0  0  0
    1.1015   -0.6011    0.0000 O   0  0  0  0  0  0  0  0  0  0  0  0
    2.2774   -1.5300    3.5322 C   0  0  0  0  0  0  0  0  0  0  0  0
    2.8846   -1.8354    4.2847 H   0  0  0  0  0  0  0  0  0  0  0  0
    2.4354   -0.5383    3.3998 H   0  0  0  0  0  0  0  0  0  0  0  0
    2.6057   -2.0357    2.6242 H   0  0  0  0  0  0  0  0  0  0  0  0
    0.8421   -1.6944    4.0217 C   0  0  0  0  0  0  0  0  0  0  0  0
    0.5281   -2.6148    3.8088 H   0  0  0  0  0  0  0  0  0  0  0  0
    0.8058   -1.5389    5.0999 H   0  0  0  0  0  0  0  0  0  0  0  0
   -0.0610   -0.7123    3.2939 C   0  0  0  0  0  0  0  0  0  0  0  0
   -0.0239   -0.8888    2.3091 H   0  0  0  0  0  0  0  0  0  0  0  0
   -1.0030   -0.8205    3.6161 H   0  0  0  0  0  0  0  0  0  0  0  0
    0.2456    0.2231    3.4749 H   0  0  0  0  0  0  0  0  0  0  0  0
  1  5  1  0
  5  6  1  0
  5  7  2  0
  1  2  1  0
  1  3  1  0
  1  4  1  0
  8 12  1  0
 12 15  1  0
  8  9  1  0
  8 10  1  0
  8 11  1  0
 12 13  1  0
 12 14  1  0
 15 16  1  0
 15 17  1  0
 15 18  1  0
M  CHG  1   6  -1
M  END
>  <PDB_ID>  (143) 
pdb2am1

>  <RESIDUE_NAME>  (143) 
GLU   LEU

>  <FRAG_NAME>  (143) 
ACET   PRPA

>  <FRAG_ATOM_NUM>  (143) 
fragi: 7  fragj: 11

>  <atom.prop.CHAIN_ID>  (143) 
A A A A A A A Z Z Z Z Z Z Z Z Z Z Z

>  <atom.prop.IS_HEAVY_ATOM>  (143) 
1 0 0 0 1 1 1 1 0 0 0 1 0 0 1 0 0 0

>  <DIFUSE_FUNC_ATOM>  (143) 
atom 6   atom 7   

>  <FINAL_SINGLE_POINT_ENERGY>  (143) 
0

>  <NONCOV_INTER_ENERGY_QM>  (143) 
0

>  <FF_Energy>  (143) 
2.11

>  <QM_Energy>  (143) 
-3.69

>  <Index>  (143) 
10418

$$$$
ACET-pdb2ae7-A-ASP-150:PRPA-pdb2ae7-A-LEU-153
     RDKit          3D

 18 16  0  0  0  0  0  0  0  0999 V2000
   -0.0317    1.5309   -0.0011 C   0  0  0  0  0  0  0  0  0  0  0  0
   -0.5160    1.8354    0.8109 H   0  0  0  0  0  0  0  0  0  0  0  0
   -0.5011    1.8348   -0.8214 H   0  0  0  0  0  0  0  0  0  0  0  0
    0.9617    1.9792    0.0083 H   0  0  0  0  0  0  0  0  0  0  0  0
    0.0000    0.0000    0.0000 C   0  0  0  0  0  0  0  0  0  0  0  0
   -1.0964   -0.6005   -0.0000 O   0  0  0  0  0  1  0  0  0  0  0  0
    1.0964   -0.6107   -0.0000 O   0  0  0  0  0  0  0  0  0  0  0  0
   -1.1468    0.9521   -3.9498 C   0  0  0  0  0  0  0  0  0  0  0  0
   -0.6349    1.3341   -3.1792 H   0  0  0  0  0  0  0  0  0  0  0  0
   -1.3689    1.6819   -4.5954 H   0  0  0  0  0  0  0  0  0  0  0  0
   -0.4979    0.2408   -4.4606 H   0  0  0  0  0  0  0  0  0  0  0  0
   -2.4711    0.4194   -3.3931 C   0  0  0  0  0  0  0  0  0  0  0  0
   -3.0746    0.1896   -4.1555 H   0  0  0  0  0  0  0  0  0  0  0  0
   -2.9644    1.2035   -2.8186 H   0  0  0  0  0  0  0  0  0  0  0  0
   -2.2319   -0.8232   -2.5445 C   0  0  0  0  0  0  0  0  0  0  0  0
   -1.6274   -0.5942   -1.7816 H   0  0  0  0  0  0  0  0  0  0  0  0
   -3.1050   -1.1577   -2.1889 H   0  0  0  0  0  0  0  0  0  0  0  0
   -1.8066   -1.5338   -3.1054 H   0  0  0  0  0  0  0  0  0  0  0  0
  1  5  1  0
  5  6  1  0
  5  7  2  0
  1  2  1  0
  1  3  1  0
  1  4  1  0
  8 12  1  0
 12 15  1  0
  8  9  1  0
  8 10  1  0
  8 11  1  0
 12 13  1  0
 12 14  1  0
 15 16  1  0
 15 17  1  0
 15 18  1  0
M  CHG  1   6  -1
M  END
>  <PDB_ID>  (144) 
pdb2ae7

>  <RESIDUE_NAME>  (144) 
ASP   LEU

>  <FRAG_NAME>  (144) 
ACET   PRPA

>  <FRAG_ATOM_NUM>  (144) 
fragi: 7  fragj: 11

>  <atom.prop.CHAIN_ID>  (144) 
A A A A A A A Z Z Z Z Z Z Z Z Z Z Z

>  <atom.prop.IS_HEAVY_ATOM>  (144) 
1 0 0 0 1 1 1 1 0 0 0 1 0 0 1 0 0 0

>  <DIFUSE_FUNC_ATOM>  (144) 
atom 6   atom 7   

>  <FINAL_SINGLE_POINT_ENERGY>  (144) 
0

>  <NONCOV_INTER_ENERGY_QM>  (144) 
0

>  <FF_Energy>  (144) 
30.99

>  <QM_Energy>  (144) 
0.59

>  <Index>  (144) 
10484

$$$$
ACET-pdb2ae7-A-ASP-150:PRPA-pdb2ae7-A-LEU-153
     RDKit          3D

 18 16  0  0  0  0  0  0  0  0999 V2000
   -0.0317    1.5309   -0.0011 C   0  0  0  0  0  0  0  0  0  0  0  0
   -0.5160    1.8354    0.8109 H   0  0  0  0  0  0  0  0  0  0  0  0
   -0.5011    1.8348   -0.8214 H   0  0  0  0  0  0  0  0  0  0  0  0
    0.9617    1.9792    0.0083 H   0  0  0  0  0  0  0  0  0  0  0  0
    0.0000    0.0000    0.0000 C   0  0  0  0  0  0  0  0  0  0  0  0
   -1.0964   -0.6005   -0.0000 O   0  0  0  0  0  1  0  0  0  0  0  0
    1.0964   -0.6107   -0.0000 O   0  0  0  0  0  0  0  0  0  0  0  0
   -2.2319   -0.8232   -2.5445 C   0  0  0  0  0  0  0  0  0  0  0  0
   -1.6274   -0.5942   -1.7816 H   0  0  0  0  0  0  0  0  0  0  0  0
   -3.1050   -1.1577   -2.1889 H   0  0  0  0  0  0  0  0  0  0  0  0
   -1.8066   -1.5338   -3.1054 H   0  0  0  0  0  0  0  0  0  0  0  0
   -2.4711    0.4194   -3.3931 C   0  0  0  0  0  0  0  0  0  0  0  0
   -3.0746    0.1896   -4.1555 H   0  0  0  0  0  0  0  0  0  0  0  0
   -1.5290    0.7984   -3.7891 H   0  0  0  0  0  0  0  0  0  0  0  0
   -3.1610    1.5159   -2.5897 C   0  0  0  0  0  0  0  0  0  0  0  0
   -3.3399    2.3011   -3.1823 H   0  0  0  0  0  0  0  0  0  0  0  0
   -4.0252    1.1689   -2.2257 H   0  0  0  0  0  0  0  0  0  0  0  0
   -2.5702    1.7972   -1.8332 H   0  0  0  0  0  0  0  0  0  0  0  0
  1  5  1  0
  5  6  1  0
  5  7  2  0
  1  2  1  0
  1  3  1  0
  1  4  1  0
  8 12  1  0
 12 15  1  0
  8  9  1  0
  8 10  1  0
  8 11  1  0
 12 13  1  0
 12 14  1  0
 15 16  1  0
 15 17  1  0
 15 18  1  0
M  CHG  1   6  -1
M  END
>  <PDB_ID>  (145) 
pdb2ae7

>  <RESIDUE_NAME>  (145) 
ASP   LEU

>  <FRAG_NAME>  (145) 
ACET   PRPA

>  <FRAG_ATOM_NUM>  (145) 
fragi: 7  fragj: 11

>  <atom.prop.CHAIN_ID>  (145) 
A A A A A A A Z Z Z Z Z Z Z Z Z Z Z

>  <atom.prop.IS_HEAVY_ATOM>  (145) 
1 0 0 0 1 1 1 1 0 0 0 1 0 0 1 0 0 0

>  <DIFUSE_FUNC_ATOM>  (145) 
atom 6   atom 7   

>  <FINAL_SINGLE_POINT_ENERGY>  (145) 
0

>  <NONCOV_INTER_ENERGY_QM>  (145) 
0

>  <FF_Energy>  (145) 
31.08

>  <QM_Energy>  (145) 
0.58

>  <Index>  (145) 
10493

$$$$
ACET-pdb2am1-A-ASP-17:PRPA-pdb2am1-A-ILE-20
     RDKit          3D

 18 16  0  0  0  0  0  0  0  0999 V2000
    0.0018    1.5037    0.0028 C   0  0  0  0  0  0  0  0  0  0  0  0
    0.9171    1.8287   -0.2106 H   0  0  0  0  0  0  0  0  0  0  0  0
   -0.2808    1.8287    0.8987 H   0  0  0  0  0  0  0  0  0  0  0  0
   -0.6817    1.9235   -0.7353 H   0  0  0  0  0  0  0  0  0  0  0  0
    0.0000    0.0000    0.0000 C   0  0  0  0  0  0  0  0  0  0  0  0
   -1.1026   -0.5913    0.0000 O   0  0  0  0  0  1  0  0  0  0  0  0
    1.1026   -0.5880    0.0000 O   0  0  0  0  0  0  0  0  0  0  0  0
    1.6490   -4.3232   -1.3788 C   0  0  0  0  0  0  0  0  0  0  0  0
    2.5209   -4.6870   -1.0194 H   0  0  0  0  0  0  0  0  0  0  0  0
    1.8654   -3.3230   -1.7541 H   0  0  0  0  0  0  0  0  0  0  0  0
    1.3313   -5.0053   -2.1674 H   0  0  0  0  0  0  0  0  0  0  0  0
    0.5406   -4.2734   -0.2988 C   0  0  0  0  0  0  0  0  0  0  0  0
   -0.2348   -3.7894   -0.6821 H   0  0  0  0  0  0  0  0  0  0  0  0
    0.2451   -5.2825   -0.0118 H   0  0  0  0  0  0  0  0  0  0  0  0
    1.0365   -3.4933    0.9211 C   0  0  0  0  0  0  0  0  0  0  0  0
    1.8313   -3.9674    1.2973 H   0  0  0  0  0  0  0  0  0  0  0  0
    1.3224   -2.5847    0.6161 H   0  0  0  0  0  0  0  0  0  0  0  0
    0.2886   -3.3779    1.7056 H   0  0  0  0  0  0  0  0  0  0  0  0
  1  5  1  0
  5  6  1  0
  5  7  2  0
  1  2  1  0
  1  3  1  0
  1  4  1  0
  8 12  1  0
 12 15  1  0
  8  9  1  0
  8 10  1  0
  8 11  1  0
 12 13  1  0
 12 14  1  0
 15 16  1  0
 15 17  1  0
 15 18  1  0
M  CHG  1   6  -1
M  END
>  <PDB_ID>  (146) 
pdb2am1

>  <RESIDUE_NAME>  (146) 
ASP   ILE

>  <FRAG_NAME>  (146) 
ACET   PRPA

>  <FRAG_ATOM_NUM>  (146) 
fragi: 7  fragj: 11

>  <atom.prop.CHAIN_ID>  (146) 
A A A A A A A Z Z Z Z Z Z Z Z Z Z Z

>  <atom.prop.IS_HEAVY_ATOM>  (146) 
1 0 0 0 1 1 1 1 0 0 0 1 0 0 1 0 0 0

>  <DIFUSE_FUNC_ATOM>  (146) 
atom 6   atom 7   

>  <FINAL_SINGLE_POINT_ENERGY>  (146) 
0

>  <NONCOV_INTER_ENERGY_QM>  (146) 
0

>  <FF_Energy>  (146) 
6.08

>  <QM_Energy>  (146) 
-4.16

>  <Index>  (146) 
10574

$$$$
ACET-pdb2am1-A-ASP-40:PRPA-pdb2am1-A-GLU-27
     RDKit          3D

 18 16  0  0  0  0  0  0  0  0999 V2000
    0.0032    1.5167   -0.0068 C   0  0  0  0  0  0  0  0  0  0  0  0
    0.2919    1.8321   -0.9035 H   0  0  0  0  0  0  0  0  0  0  0  0
    0.6285    1.8391    0.6937 H   0  0  0  0  0  0  0  0  0  0  0  0
   -0.9800    1.9397    0.1988 H   0  0  0  0  0  0  0  0  0  0  0  0
    0.0000    0.0000    0.0000 C   0  0  0  0  0  0  0  0  0  0  0  0
   -1.1016   -0.5994    0.0000 O   0  0  0  0  0  1  0  0  0  0  0  0
    1.1016   -0.5953    0.0000 O   0  0  0  0  0  0  0  0  0  0  0  0
   -4.4994   -0.8572    2.3418 C   0  0  0  0  0  0  0  0  0  0  0  0
   -5.2670   -1.4922    2.5041 H   0  0  0  0  0  0  0  0  0  0  0  0
   -4.8599    0.1710    2.3708 H   0  0  0  0  0  0  0  0  0  0  0  0
   -3.7262   -1.0305    3.0904 H   0  0  0  0  0  0  0  0  0  0  0  0
   -3.9664   -1.1764    0.9473 C   0  0  0  0  0  0  0  0  0  0  0  0
   -4.5301   -0.7015    0.2956 H   0  0  0  0  0  0  0  0  0  0  0  0
   -3.0283   -0.8836    0.9097 H   0  0  0  0  0  0  0  0  0  0  0  0
   -4.0044   -2.6520    0.6021 C   0  0  0  0  0  0  0  0  0  0  0  0
   -3.7520   -2.7578   -0.3398 H   0  0  0  0  0  0  0  0  0  0  0  0
   -3.4015   -3.1309    1.2097 H   0  0  0  0  0  0  0  0  0  0  0  0
   -4.9988   -3.0812    0.7244 H   0  0  0  0  0  0  0  0  0  0  0  0
  1  5  1  0
  5  6  1  0
  5  7  2  0
  1  2  1  0
  1  3  1  0
  1  4  1  0
  8 12  1  0
 12 15  1  0
  8  9  1  0
  8 10  1  0
  8 11  1  0
 12 13  1  0
 12 14  1  0
 15 16  1  0
 15 17  1  0
 15 18  1  0
M  CHG  1   6  -1
M  END
>  <PDB_ID>  (147) 
pdb2am1

>  <RESIDUE_NAME>  (147) 
ASP   GLU

>  <FRAG_NAME>  (147) 
ACET   PRPA

>  <FRAG_ATOM_NUM>  (147) 
fragi: 7  fragj: 11

>  <atom.prop.CHAIN_ID>  (147) 
A A A A A A A Z Z Z Z Z Z Z Z Z Z Z

>  <atom.prop.IS_HEAVY_ATOM>  (147) 
1 0 0 0 1 1 1 1 0 0 0 1 0 0 1 0 0 0

>  <DIFUSE_FUNC_ATOM>  (147) 
atom 6   atom 7   

>  <FINAL_SINGLE_POINT_ENERGY>  (147) 
0

>  <NONCOV_INTER_ENERGY_QM>  (147) 
0

>  <FF_Energy>  (147) 
15.82

>  <QM_Energy>  (147) 
-3.49

>  <Index>  (147) 
10664

$$$$
ACET-pdb2anw-A-ASP-65:PRPA-pdb2anw-A-LEU-61
     RDKit          3D

 18 16  0  0  0  0  0  0  0  0999 V2000
    0.0393    1.5260   -0.0002 C   0  0  0  0  0  0  0  0  0  0  0  0
   -0.8115    1.8631   -0.4164 H   0  0  0  0  0  0  0  0  0  0  0  0
    0.8129    1.8222   -0.5673 H   0  0  0  0  0  0  0  0  0  0  0  0
    0.1421    1.9972    0.9773 H   0  0  0  0  0  0  0  0  0  0  0  0
    0.0000    0.0000    0.0000 C   0  0  0  0  0  0  0  0  0  0  0  0
   -1.0837   -0.5969    0.0000 O   0  0  0  0  0  1  0  0  0  0  0  0
    1.0837   -0.5919   -0.0000 O   0  0  0  0  0  0  0  0  0  0  0  0
    0.9921   -2.8214    2.3030 C   0  0  0  0  0  0  0  0  0  0  0  0
    0.0699   -3.0380    2.6499 H   0  0  0  0  0  0  0  0  0  0  0  0
    0.9394   -1.9532    1.7929 H   0  0  0  0  0  0  0  0  0  0  0  0
    1.6295   -2.6477    3.1700 H   0  0  0  0  0  0  0  0  0  0  0  0
    1.3558   -3.9293    1.2711 C   0  0  0  0  0  0  0  0  0  0  0  0
    1.3300   -4.8092    1.7302 H   0  0  0  0  0  0  0  0  0  0  0  0
    0.6383   -3.9253    0.4507 H   0  0  0  0  0  0  0  0  0  0  0  0
    2.7921   -3.7033    0.7543 C   0  0  0  0  0  0  0  0  0  0  0  0
    3.4235   -3.7417    1.5252 H   0  0  0  0  0  0  0  0  0  0  0  0
    3.0155   -4.4174    0.0944 H   0  0  0  0  0  0  0  0  0  0  0  0
    2.8421   -2.8077    0.3171 H   0  0  0  0  0  0  0  0  0  0  0  0
  1  5  1  0
  5  6  1  0
  5  7  2  0
  1  2  1  0
  1  3  1  0
  1  4  1  0
  8 12  1  0
 12 15  1  0
  8  9  1  0
  8 10  1  0
  8 11  1  0
 12 13  1  0
 12 14  1  0
 15 16  1  0
 15 17  1  0
 15 18  1  0
M  CHG  1   6  -1
M  END
>  <PDB_ID>  (148) 
pdb2anw

>  <RESIDUE_NAME>  (148) 
ASP   LEU

>  <FRAG_NAME>  (148) 
ACET   PRPA

>  <FRAG_ATOM_NUM>  (148) 
fragi: 7  fragj: 11

>  <atom.prop.CHAIN_ID>  (148) 
A A A A A A A Z Z Z Z Z Z Z Z Z Z Z

>  <atom.prop.IS_HEAVY_ATOM>  (148) 
1 0 0 0 1 1 1 1 0 0 0 1 0 0 1 0 0 0

>  <DIFUSE_FUNC_ATOM>  (148) 
atom 6   atom 7   

>  <FINAL_SINGLE_POINT_ENERGY>  (148) 
0

>  <NONCOV_INTER_ENERGY_QM>  (148) 
0

>  <FF_Energy>  (148) 
1.36

>  <QM_Energy>  (148) 
-4.93

>  <Index>  (148) 
10699

$$$$
ACET-pdb2ahj-B-ASP-195:PRPA-pdb2ahj-A-GLU-139
     RDKit          3D

 18 16  0  0  0  0  0  0  0  0999 V2000
    0.0565    1.5251   -0.0400 C   0  0  0  0  0  0  0  0  0  0  0  0
    0.3033    1.8031   -0.9714 H   0  0  0  0  0  0  0  0  0  0  0  0
    0.7747    1.8267    0.5914 H   0  0  0  0  0  0  0  0  0  0  0  0
   -0.8736    2.0238    0.2329 H   0  0  0  0  0  0  0  0  0  0  0  0
    0.0000    0.0000    0.0000 C   0  0  0  0  0  0  0  0  0  0  0  0
   -1.0669   -0.6143   -0.0000 O   0  0  0  0  0  1  0  0  0  0  0  0
    1.0669   -0.5937   -0.0000 O   0  0  0  0  0  0  0  0  0  0  0  0
   -1.2213   -2.6557    2.1926 C   0  0  0  0  0  0  0  0  0  0  0  0
   -1.3511   -1.6855    1.9051 H   0  0  0  0  0  0  0  0  0  0  0  0
   -1.9973   -2.9371    2.9046 H   0  0  0  0  0  0  0  0  0  0  0  0
   -1.1951   -3.2848    1.3029 H   0  0  0  0  0  0  0  0  0  0  0  0
    0.1742   -2.6551    2.8562 C   0  0  0  0  0  0  0  0  0  0  0  0
    0.8474   -2.6227    2.1290 H   0  0  0  0  0  0  0  0  0  0  0  0
    0.2308   -1.8471    3.4267 H   0  0  0  0  0  0  0  0  0  0  0  0
    0.5082   -3.8632    3.7368 C   0  0  0  0  0  0  0  0  0  0  0  0
   -0.1734   -3.9285    4.4366 H   0  0  0  0  0  0  0  0  0  0  0  0
    0.5474   -4.6570    3.1654 H   0  0  0  0  0  0  0  0  0  0  0  0
    1.4761   -3.7625    4.2278 H   0  0  0  0  0  0  0  0  0  0  0  0
  1  5  1  0
  5  6  1  0
  5  7  2  0
  1  2  1  0
  1  3  1  0
  1  4  1  0
  8 12  1  0
 12 15  1  0
  8  9  1  0
  8 10  1  0
  8 11  1  0
 12 13  1  0
 12 14  1  0
 15 16  1  0
 15 17  1  0
 15 18  1  0
M  CHG  1   6  -1
M  END
>  <PDB_ID>  (149) 
pdb2ahj

>  <RESIDUE_NAME>  (149) 
ASP   GLU

>  <FRAG_NAME>  (149) 
ACET   PRPA

>  <FRAG_ATOM_NUM>  (149) 
fragi: 7  fragj: 11

>  <atom.prop.CHAIN_ID>  (149) 
A A A A A A A Z Z Z Z Z Z Z Z Z Z Z

>  <atom.prop.IS_HEAVY_ATOM>  (149) 
1 0 0 0 1 1 1 1 0 0 0 1 0 0 1 0 0 0

>  <DIFUSE_FUNC_ATOM>  (149) 
atom 6   atom 7   

>  <FINAL_SINGLE_POINT_ENERGY>  (149) 
0

>  <NONCOV_INTER_ENERGY_QM>  (149) 
0

>  <FF_Energy>  (149) 
2.08

>  <QM_Energy>  (149) 
-3.48

>  <Index>  (149) 
10817

$$$$
ACET-pdb1ac5-A-ASP-340:PRPA-pdb1ac5-A-LYS-130
     RDKit          3D

 18 16  0  0  0  0  0  0  0  0999 V2000
    0.0117    1.5252    0.0121 C   0  0  0  0  0  0  0  0  0  0  0  0
    0.6714    1.8439   -0.6585 H   0  0  0  0  0  0  0  0  0  0  0  0
    0.2616    1.8352    0.9214 H   0  0  0  0  0  0  0  0  0  0  0  0
   -0.9555    1.9620   -0.2362 H   0  0  0  0  0  0  0  0  0  0  0  0
    0.0000    0.0000    0.0000 C   0  0  0  0  0  0  0  0  0  0  0  0
   -1.0936   -0.5971    0.0000 O   0  0  0  0  0  1  0  0  0  0  0  0
    1.0936   -0.6068    0.0000 O   0  0  0  0  0  0  0  0  0  0  0  0
    0.0781   -0.0940    3.4022 C   0  0  0  0  0  0  0  0  0  0  0  0
    0.2430   -0.1665    2.4127 H   0  0  0  0  0  0  0  0  0  0  0  0
   -0.7595    0.4417    3.5481 H   0  0  0  0  0  0  0  0  0  0  0  0
   -0.0625   -1.0939    3.8126 H   0  0  0  0  0  0  0  0  0  0  0  0
    1.2505    0.6531    4.0375 C   0  0  0  0  0  0  0  0  0  0  0  0
    0.9831    0.9661    4.9351 H   0  0  0  0  0  0  0  0  0  0  0  0
    2.0305    0.0493    4.0821 H   0  0  0  0  0  0  0  0  0  0  0  0
    1.6274    1.8725    3.1896 C   0  0  0  0  0  0  0  0  0  0  0  0
    1.8861    1.5505    2.2632 H   0  0  0  0  0  0  0  0  0  0  0  0
    0.8051    2.4573    3.0855 H   0  0  0  0  0  0  0  0  0  0  0  0
    2.4405    2.4742    3.5957 H   0  0  0  0  0  0  0  0  0  0  0  0
  1  5  1  0
  5  6  1  0
  5  7  2  0
  1  2  1  0
  1  3  1  0
  1  4  1  0
  8 12  1  0
 12 15  1  0
  8  9  1  0
  8 10  1  0
  8 11  1  0
 12 13  1  0
 12 14  1  0
 15 16  1  0
 15 17  1  0
 15 18  1  0
M  CHG  1   6  -1
M  END
>  <PDB_ID>  (150) 
pdb1ac5

>  <RESIDUE_NAME>  (150) 
ASP   LYS

>  <FRAG_NAME>  (150) 
ACET   PRPA

>  <FRAG_ATOM_NUM>  (150) 
fragi: 7  fragj: 11

>  <atom.prop.CHAIN_ID>  (150) 
A A A A A A A Z Z Z Z Z Z Z Z Z Z Z

>  <atom.prop.IS_HEAVY_ATOM>  (150) 
1 0 0 0 1 1 1 1 0 0 0 1 0 0 1 0 0 0

>  <DIFUSE_FUNC_ATOM>  (150) 
atom 6   atom 7   

>  <FINAL_SINGLE_POINT_ENERGY>  (150) 
0

>  <NONCOV_INTER_ENERGY_QM>  (150) 
0

>  <FF_Energy>  (150) 
3.22

>  <QM_Energy>  (150) 
-3.07

>  <Index>  (150) 
10858

$$$$
ACET-pdb2aaz-A-GLU-111:PRPA-pdb2aaz-A-LYS-107
     RDKit          3D

 18 16  0  0  0  0  0  0  0  0999 V2000
   -0.0082    1.5194   -0.0024 C   0  0  0  0  0  0  0  0  0  0  0  0
   -0.3966    1.8165   -0.8510 H   0  0  0  0  0  0  0  0  0  0  0  0
    0.9152    1.8247    0.1205 H   0  0  0  0  0  0  0  0  0  0  0  0
   -0.6101    1.9355    0.8054 H   0  0  0  0  0  0  0  0  0  0  0  0
    0.0000    0.0000    0.0000 C   0  0  0  0  0  0  0  0  0  0  0  0
   -1.0969   -0.5954   -0.0000 O   0  0  0  0  0  1  0  0  0  0  0  0
    1.0969   -0.5969    0.0000 O   0  0  0  0  0  0  0  0  0  0  0  0
    4.7540    0.4600    0.8034 C   0  0  0  0  0  0  0  0  0  0  0  0
    5.6293    0.4231    0.3293 H   0  0  0  0  0  0  0  0  0  0  0  0
    4.7258   -0.2300    1.5228 H   0  0  0  0  0  0  0  0  0  0  0  0
    4.6609    1.4408    1.2697 H   0  0  0  0  0  0  0  0  0  0  0  0
    3.6540    0.1624   -0.1934 C   0  0  0  0  0  0  0  0  0  0  0  0
    3.7237   -0.7935   -0.4933 H   0  0  0  0  0  0  0  0  0  0  0  0
    2.7603    0.2994    0.2427 H   0  0  0  0  0  0  0  0  0  0  0  0
    3.7193    1.0623   -1.4444 C   0  0  0  0  0  0  0  0  0  0  0  0
    3.5409    1.9940   -1.1759 H   0  0  0  0  0  0  0  0  0  0  0  0
    4.6055    0.9624   -1.8633 H   0  0  0  0  0  0  0  0  0  0  0  0
    2.9618    0.7628   -2.1686 H   0  0  0  0  0  0  0  0  0  0  0  0
  1  5  1  0
  5  6  1  0
  5  7  2  0
  1  2  1  0
  1  3  1  0
  1  4  1  0
  8 12  1  0
 12 15  1  0
  8  9  1  0
  8 10  1  0
  8 11  1  0
 12 13  1  0
 12 14  1  0
 15 16  1  0
 15 17  1  0
 15 18  1  0
M  CHG  1   6  -1
M  END
>  <PDB_ID>  (151) 
pdb2aaz

>  <RESIDUE_NAME>  (151) 
GLU   LYS

>  <FRAG_NAME>  (151) 
ACET   PRPA

>  <FRAG_ATOM_NUM>  (151) 
fragi: 7  fragj: 11

>  <atom.prop.CHAIN_ID>  (151) 
A A A A A A A Z Z Z Z Z Z Z Z Z Z Z

>  <atom.prop.IS_HEAVY_ATOM>  (151) 
1 0 0 0 1 1 1 1 0 0 0 1 0 0 1 0 0 0

>  <DIFUSE_FUNC_ATOM>  (151) 
atom 6   atom 7   

>  <FINAL_SINGLE_POINT_ENERGY>  (151) 
0

>  <NONCOV_INTER_ENERGY_QM>  (151) 
0

>  <FF_Energy>  (151) 
23.0

>  <QM_Energy>  (151) 
1.87

>  <Index>  (151) 
11021

$$$$
ACET-pdb2aaz-A-GLU-111:PRPA-pdb2aaz-A-LYS-107
     RDKit          3D

 18 16  0  0  0  0  0  0  0  0999 V2000
   -0.0082    1.5194   -0.0024 C   0  0  0  0  0  0  0  0  0  0  0  0
   -0.3966    1.8165   -0.8510 H   0  0  0  0  0  0  0  0  0  0  0  0
    0.9152    1.8247    0.1205 H   0  0  0  0  0  0  0  0  0  0  0  0
   -0.6101    1.9355    0.8054 H   0  0  0  0  0  0  0  0  0  0  0  0
    0.0000    0.0000    0.0000 C   0  0  0  0  0  0  0  0  0  0  0  0
   -1.0969   -0.5954   -0.0000 O   0  0  0  0  0  1  0  0  0  0  0  0
    1.0969   -0.5969    0.0000 O   0  0  0  0  0  0  0  0  0  0  0  0
    3.6540    0.1624   -0.1934 C   0  0  0  0  0  0  0  0  0  0  0  0
    3.7237   -0.7935   -0.4933 H   0  0  0  0  0  0  0  0  0  0  0  0
    2.7603    0.2994    0.2427 H   0  0  0  0  0  0  0  0  0  0  0  0
    4.4459    0.3766    0.5242 H   0  0  0  0  0  0  0  0  0  0  0  0
    3.7193    1.0623   -1.4444 C   0  0  0  0  0  0  0  0  0  0  0  0
    3.5409    1.9940   -1.1759 H   0  0  0  0  0  0  0  0  0  0  0  0
    4.6055    0.9624   -1.8633 H   0  0  0  0  0  0  0  0  0  0  0  0
    2.6444    0.6373   -2.4720 C   0  0  0  0  0  0  0  0  0  0  0  0
    2.6850   -0.3692   -2.5749 H   0  0  0  0  0  0  0  0  0  0  0  0
    1.7335    0.8659   -2.0915 H   0  0  0  0  0  0  0  0  0  0  0  0
    2.7411    1.0971   -3.4555 H   0  0  0  0  0  0  0  0  0  0  0  0
  1  5  1  0
  5  6  1  0
  5  7  2  0
  1  2  1  0
  1  3  1  0
  1  4  1  0
  8 12  1  0
 12 15  1  0
  8  9  1  0
  8 10  1  0
  8 11  1  0
 12 13  1  0
 12 14  1  0
 15 16  1  0
 15 17  1  0
 15 18  1  0
M  CHG  1   6  -1
M  END
>  <PDB_ID>  (152) 
pdb2aaz

>  <RESIDUE_NAME>  (152) 
GLU   LYS

>  <FRAG_NAME>  (152) 
ACET   PRPA

>  <FRAG_ATOM_NUM>  (152) 
fragi: 7  fragj: 11

>  <atom.prop.CHAIN_ID>  (152) 
A A A A A A A Z Z Z Z Z Z Z Z Z Z Z

>  <atom.prop.IS_HEAVY_ATOM>  (152) 
1 0 0 0 1 1 1 1 0 0 0 1 0 0 1 0 0 0

>  <DIFUSE_FUNC_ATOM>  (152) 
atom 6   atom 7   

>  <FINAL_SINGLE_POINT_ENERGY>  (152) 
0

>  <NONCOV_INTER_ENERGY_QM>  (152) 
0

>  <FF_Energy>  (152) 
-0.49

>  <QM_Energy>  (152) 
1.21

>  <Index>  (152) 
11029

$$$$
ACET-pdb2aps-A-ASP-23:PRPA-pdb2aps-A-LYS-26
     RDKit          3D

 18 16  0  0  0  0  0  0  0  0999 V2000
    0.0268    1.5298   -0.0244 C   0  0  0  0  0  0  0  0  0  0  0  0
    0.0006    1.8313   -0.9698 H   0  0  0  0  0  0  0  0  0  0  0  0
    0.8592    1.8382    0.4184 H   0  0  0  0  0  0  0  0  0  0  0  0
   -0.8185    1.9802    0.4959 H   0  0  0  0  0  0  0  0  0  0  0  0
    0.0000    0.0000    0.0000 C   0  0  0  0  0  0  0  0  0  0  0  0
   -1.1013   -0.6082    0.0000 O   0  0  0  0  0  1  0  0  0  0  0  0
    1.1013   -0.5896   -0.0000 O   0  0  0  0  0  0  0  0  0  0  0  0
    2.3975   -2.1743    3.0403 C   0  0  0  0  0  0  0  0  0  0  0  0
    2.7502   -2.9337    3.6197 H   0  0  0  0  0  0  0  0  0  0  0  0
    1.3138   -2.1286    3.1484 H   0  0  0  0  0  0  0  0  0  0  0  0
    2.9104   -1.2568    3.3286 H   0  0  0  0  0  0  0  0  0  0  0  0
    2.7703   -2.5710    1.6068 C   0  0  0  0  0  0  0  0  0  0  0  0
    2.5521   -1.8048    1.0055 H   0  0  0  0  0  0  0  0  0  0  0  0
    3.7518   -2.7517    1.5795 H   0  0  0  0  0  0  0  0  0  0  0  0
    2.0408   -3.8063    1.0916 C   0  0  0  0  0  0  0  0  0  0  0  0
    2.2146   -4.5687    1.7164 H   0  0  0  0  0  0  0  0  0  0  0  0
    1.0594   -3.6162    1.0650 H   0  0  0  0  0  0  0  0  0  0  0  0
    2.3771   -4.0820    0.0921 H   0  0  0  0  0  0  0  0  0  0  0  0
  1  5  1  0
  5  6  1  0
  5  7  2  0
  1  2  1  0
  1  3  1  0
  1  4  1  0
  8 12  1  0
 12 15  1  0
  8  9  1  0
  8 10  1  0
  8 11  1  0
 12 13  1  0
 12 14  1  0
 15 16  1  0
 15 17  1  0
 15 18  1  0
M  CHG  1   6  -1
M  END
>  <PDB_ID>  (153) 
pdb2aps

>  <RESIDUE_NAME>  (153) 
ASP   LYS

>  <FRAG_NAME>  (153) 
ACET   PRPA

>  <FRAG_ATOM_NUM>  (153) 
fragi: 7  fragj: 11

>  <atom.prop.CHAIN_ID>  (153) 
A A A A A A A Z Z Z Z Z Z Z Z Z Z Z

>  <atom.prop.IS_HEAVY_ATOM>  (153) 
1 0 0 0 1 1 1 1 0 0 0 1 0 0 1 0 0 0

>  <DIFUSE_FUNC_ATOM>  (153) 
atom 6   atom 7   

>  <FINAL_SINGLE_POINT_ENERGY>  (153) 
0

>  <NONCOV_INTER_ENERGY_QM>  (153) 
0

>  <FF_Energy>  (153) 
3.83

>  <QM_Energy>  (153) 
-3.84

>  <Index>  (153) 
11220

$$$$
ACET-pdb1a0s-R-GLU-394:PRPA-pdb1a0s-R-LEU-111
     RDKit          3D

 18 16  0  0  0  0  0  0  0  0999 V2000
    0.0021    1.5266   -0.0159 C   0  0  0  0  0  0  0  0  0  0  0  0
   -0.5617    1.8161   -0.7666 H   0  0  0  0  0  0  0  0  0  0  0  0
    0.9354    1.8199   -0.1145 H   0  0  0  0  0  0  0  0  0  0  0  0
   -0.3981    1.9690    0.8964 H   0  0  0  0  0  0  0  0  0  0  0  0
    0.0000    0.0000    0.0000 C   0  0  0  0  0  0  0  0  0  0  0  0
   -1.1088   -0.6033   -0.0000 O   0  0  0  0  0  1  0  0  0  0  0  0
    1.1088   -0.5858   -0.0000 O   0  0  0  0  0  0  0  0  0  0  0  0
   -2.8618   -2.5258    2.2536 C   0  0  0  0  0  0  0  0  0  0  0  0
   -2.7079   -3.2722    2.9181 H   0  0  0  0  0  0  0  0  0  0  0  0
   -2.4947   -2.8504    1.2800 H   0  0  0  0  0  0  0  0  0  0  0  0
   -3.9269   -2.2946    2.2385 H   0  0  0  0  0  0  0  0  0  0  0  0
   -2.0817   -1.3051    2.7580 C   0  0  0  0  0  0  0  0  0  0  0  0
   -1.2794   -1.1850    2.1560 H   0  0  0  0  0  0  0  0  0  0  0  0
   -2.6755   -0.4968    2.6491 H   0  0  0  0  0  0  0  0  0  0  0  0
   -1.5573   -1.2820    4.2074 C   0  0  0  0  0  0  0  0  0  0  0  0
   -0.6777   -1.7382    4.2358 H   0  0  0  0  0  0  0  0  0  0  0  0
   -1.4443   -0.2457    4.5259 H   0  0  0  0  0  0  0  0  0  0  0  0
   -2.2127   -1.8164    4.8952 H   0  0  0  0  0  0  0  0  0  0  0  0
  1  5  1  0
  5  6  1  0
  5  7  2  0
  1  2  1  0
  1  3  1  0
  1  4  1  0
  8 12  1  0
 12 15  1  0
  8  9  1  0
  8 10  1  0
  8 11  1  0
 12 13  1  0
 12 14  1  0
 15 16  1  0
 15 17  1  0
 15 18  1  0
M  CHG  1   6  -1
M  END
>  <PDB_ID>  (154) 
pdb1a0s

>  <RESIDUE_NAME>  (154) 
GLU   LEU

>  <FRAG_NAME>  (154) 
ACET   PRPA

>  <FRAG_ATOM_NUM>  (154) 
fragi: 7  fragj: 11

>  <atom.prop.CHAIN_ID>  (154) 
A A A A A A A Z Z Z Z Z Z Z Z Z Z Z

>  <atom.prop.IS_HEAVY_ATOM>  (154) 
1 0 0 0 1 1 1 1 0 0 0 1 0 0 1 0 0 0

>  <DIFUSE_FUNC_ATOM>  (154) 
atom 6   atom 7   

>  <FINAL_SINGLE_POINT_ENERGY>  (154) 
0

>  <NONCOV_INTER_ENERGY_QM>  (154) 
0

>  <FF_Energy>  (154) 
1.62

>  <QM_Energy>  (154) 
-3.46

>  <Index>  (154) 
11227

$$$$
ACET-pdb1acc-A-GLU-49:PRPA-pdb1acc-A-ILE-45
     RDKit          3D

 18 16  0  0  0  0  0  0  0  0999 V2000
    0.0231    1.5172   -0.0176 C   0  0  0  0  0  0  0  0  0  0  0  0
    0.1108    1.8020   -0.9572 H   0  0  0  0  0  0  0  0  0  0  0  0
    0.7940    1.8083    0.5249 H   0  0  0  0  0  0  0  0  0  0  0  0
   -0.8772    1.9733    0.3942 H   0  0  0  0  0  0  0  0  0  0  0  0
    0.0000    0.0000    0.0000 C   0  0  0  0  0  0  0  0  0  0  0  0
   -1.0948   -0.6020    0.0000 O   0  0  0  0  0  1  0  0  0  0  0  0
    1.0948   -0.5923    0.0000 O   0  0  0  0  0  0  0  0  0  0  0  0
    4.5657   -1.2029    0.3312 C   0  0  0  0  0  0  0  0  0  0  0  0
    3.6429   -1.5777    0.3580 H   0  0  0  0  0  0  0  0  0  0  0  0
    5.1909   -1.9069    0.0020 H   0  0  0  0  0  0  0  0  0  0  0  0
    4.8612   -0.9203    1.3417 H   0  0  0  0  0  0  0  0  0  0  0  0
    4.5898   -0.0381   -0.6579 C   0  0  0  0  0  0  0  0  0  0  0  0
    5.5386    0.1868   -0.8536 H   0  0  0  0  0  0  0  0  0  0  0  0
    4.1184   -0.3203   -1.5994 H   0  0  0  0  0  0  0  0  0  0  0  0
    3.8236    1.1283   -0.0160 C   0  0  0  0  0  0  0  0  0  0  0  0
    4.2712    1.3833    0.8364 H   0  0  0  0  0  0  0  0  0  0  0  0
    3.8242    1.9037   -0.6421 H   0  0  0  0  0  0  0  0  0  0  0  0
    2.8872    0.8423    0.1661 H   0  0  0  0  0  0  0  0  0  0  0  0
  1  5  1  0
  5  6  1  0
  5  7  2  0
  1  2  1  0
  1  3  1  0
  1  4  1  0
  8 12  1  0
 12 15  1  0
  8  9  1  0
  8 10  1  0
  8 11  1  0
 12 13  1  0
 12 14  1  0
 15 16  1  0
 15 17  1  0
 15 18  1  0
M  CHG  1   6  -1
M  END
>  <PDB_ID>  (155) 
pdb1acc

>  <RESIDUE_NAME>  (155) 
GLU   ILE

>  <FRAG_NAME>  (155) 
ACET   PRPA

>  <FRAG_ATOM_NUM>  (155) 
fragi: 7  fragj: 11

>  <atom.prop.CHAIN_ID>  (155) 
A A A A A A A Z Z Z Z Z Z Z Z Z Z Z

>  <atom.prop.IS_HEAVY_ATOM>  (155) 
1 0 0 0 1 1 1 1 0 0 0 1 0 0 1 0 0 0

>  <DIFUSE_FUNC_ATOM>  (155) 
atom 6   atom 7   

>  <FINAL_SINGLE_POINT_ENERGY>  (155) 
0

>  <NONCOV_INTER_ENERGY_QM>  (155) 
0

>  <FF_Energy>  (155) 
0.75

>  <QM_Energy>  (155) 
-4.39

>  <Index>  (155) 
11228

$$$$
ACET-pdb2acv-A-GLU-162:PRPA-pdb2acv-A-ARG-158
     RDKit          3D

 18 16  0  0  0  0  0  0  0  0999 V2000
   -0.0003    1.5195   -0.0084 C   0  0  0  0  0  0  0  0  0  0  0  0
    0.9335    1.8130    0.0368 H   0  0  0  0  0  0  0  0  0  0  0  0
   -0.5296    1.8157    0.7608 H   0  0  0  0  0  0  0  0  0  0  0  0
   -0.4486    1.9189   -0.9182 H   0  0  0  0  0  0  0  0  0  0  0  0
    0.0000    0.0000    0.0000 C   0  0  0  0  0  0  0  0  0  0  0  0
   -1.0998   -0.5997    0.0000 O   0  0  0  0  0  1  0  0  0  0  0  0
    1.0998   -0.5977    0.0000 O   0  0  0  0  0  0  0  0  0  0  0  0
    1.7726   -0.7642    3.2691 C   0  0  0  0  0  0  0  0  0  0  0  0
    1.7554   -1.4822    2.5481 H   0  0  0  0  0  0  0  0  0  0  0  0
    1.9510   -1.2411    4.2329 H   0  0  0  0  0  0  0  0  0  0  0  0
    2.5317   -0.0285    3.0035 H   0  0  0  0  0  0  0  0  0  0  0  0
    0.3669   -0.1424    3.2361 C   0  0  0  0  0  0  0  0  0  0  0  0
    0.2968    0.4162    2.4045 H   0  0  0  0  0  0  0  0  0  0  0  0
   -0.2991   -0.8911    3.1779 H   0  0  0  0  0  0  0  0  0  0  0  0
   -0.0103    0.7311    4.4216 C   0  0  0  0  0  0  0  0  0  0  0  0
    0.3050    0.3123    5.2630 H   0  0  0  0  0  0  0  0  0  0  0  0
    0.3787    1.6359    4.3099 H   0  0  0  0  0  0  0  0  0  0  0  0
   -1.0926    0.8408    4.4901 H   0  0  0  0  0  0  0  0  0  0  0  0
  1  5  1  0
  5  6  1  0
  5  7  2  0
  1  2  1  0
  1  3  1  0
  1  4  1  0
  8 12  1  0
 12 15  1  0
  8  9  1  0
  8 10  1  0
  8 11  1  0
 12 13  1  0
 12 14  1  0
 15 16  1  0
 15 17  1  0
 15 18  1  0
M  CHG  1   6  -1
M  END
>  <PDB_ID>  (156) 
pdb2acv

>  <RESIDUE_NAME>  (156) 
GLU   ARG

>  <FRAG_NAME>  (156) 
ACET   PRPA

>  <FRAG_ATOM_NUM>  (156) 
fragi: 7  fragj: 11

>  <atom.prop.CHAIN_ID>  (156) 
A A A A A A A Z Z Z Z Z Z Z Z Z Z Z

>  <atom.prop.IS_HEAVY_ATOM>  (156) 
1 0 0 0 1 1 1 1 0 0 0 1 0 0 1 0 0 0

>  <DIFUSE_FUNC_ATOM>  (156) 
atom 6   atom 7   

>  <FINAL_SINGLE_POINT_ENERGY>  (156) 
0

>  <NONCOV_INTER_ENERGY_QM>  (156) 
0

>  <FF_Energy>  (156) 
2.44

>  <QM_Energy>  (156) 
-3.87

>  <Index>  (156) 
11249

$$$$
ACET-pdb2aj4-A-GLU-27:PRPA-pdb2aj4-A-ARG-23
     RDKit          3D

 18 16  0  0  0  0  0  0  0  0999 V2000
    0.2506    1.4922    0.0326 C   0  0  0  0  0  0  0  0  0  0  0  0
    0.7857    1.7285   -0.7554 H   0  0  0  0  0  0  0  0  0  0  0  0
    0.7074    1.7051    0.8746 H   0  0  0  0  0  0  0  0  0  0  0  0
   -0.6677    2.0782   -0.0044 H   0  0  0  0  0  0  0  0  0  0  0  0
    0.0000    0.0000    0.0000 C   0  0  0  0  0  0  0  0  0  0  0  0
   -1.1204   -0.5097    0.0000 O   0  0  0  0  0  1  0  0  0  0  0  0
    1.1204   -0.7036   -0.0000 O   0  0  0  0  0  0  0  0  0  0  0  0
    0.6368   -1.1323    4.1124 C   0  0  0  0  0  0  0  0  0  0  0  0
    1.0152   -1.6706    4.8458 H   0  0  0  0  0  0  0  0  0  0  0  0
   -0.1885   -1.5312    3.7515 H   0  0  0  0  0  0  0  0  0  0  0  0
    0.4142   -0.1324    4.4850 H   0  0  0  0  0  0  0  0  0  0  0  0
    1.6639   -1.0823    2.9882 C   0  0  0  0  0  0  0  0  0  0  0  0
    1.2022   -0.8788    2.1238 H   0  0  0  0  0  0  0  0  0  0  0  0
    2.3351   -0.3657    3.1820 H   0  0  0  0  0  0  0  0  0  0  0  0
    2.4213   -2.4007    2.8178 C   0  0  0  0  0  0  0  0  0  0  0  0
    1.8061   -3.0542    2.3687 H   0  0  0  0  0  0  0  0  0  0  0  0
    3.2070   -2.2280    2.2164 H   0  0  0  0  0  0  0  0  0  0  0  0
    2.7787   -2.8358    3.7510 H   0  0  0  0  0  0  0  0  0  0  0  0
  1  5  1  0
  5  6  1  0
  5  7  2  0
  1  2  1  0
  1  3  1  0
  1  4  1  0
  8 12  1  0
 12 15  1  0
  8  9  1  0
  8 10  1  0
  8 11  1  0
 12 13  1  0
 12 14  1  0
 15 16  1  0
 15 17  1  0
 15 18  1  0
M  CHG  1   6  -1
M  END
>  <PDB_ID>  (157) 
pdb2aj4

>  <RESIDUE_NAME>  (157) 
GLU   ARG

>  <FRAG_NAME>  (157) 
ACET   PRPA

>  <FRAG_ATOM_NUM>  (157) 
fragi: 7  fragj: 11

>  <atom.prop.CHAIN_ID>  (157) 
A A A A A A A Z Z Z Z Z Z Z Z Z Z Z

>  <atom.prop.IS_HEAVY_ATOM>  (157) 
1 0 0 0 1 1 1 1 0 0 0 1 0 0 1 0 0 0

>  <DIFUSE_FUNC_ATOM>  (157) 
atom 6   atom 7   

>  <FINAL_SINGLE_POINT_ENERGY>  (157) 
0

>  <NONCOV_INTER_ENERGY_QM>  (157) 
0

>  <FF_Energy>  (157) 
4.93

>  <QM_Energy>  (157) 
-3.87

>  <Index>  (157) 
11293

$$$$
ACET-pdb1ahr-A-GLU-104:PRPA-pdb1ahr-A-ILE-100
     RDKit          3D

 18 16  0  0  0  0  0  0  0  0999 V2000
    0.0060    1.5092   -0.0260 C   0  0  0  0  0  0  0  0  0  0  0  0
    0.9226    1.7941   -0.2637 H   0  0  0  0  0  0  0  0  0  0  0  0
   -0.2423    1.8182    0.8802 H   0  0  0  0  0  0  0  0  0  0  0  0
   -0.6938    1.9283   -0.7491 H   0  0  0  0  0  0  0  0  0  0  0  0
    0.0000    0.0000    0.0000 C   0  0  0  0  0  0  0  0  0  0  0  0
   -1.0974   -0.5917    0.0000 O   0  0  0  0  0  1  0  0  0  0  0  0
    1.0974   -0.5952   -0.0000 O   0  0  0  0  0  0  0  0  0  0  0  0
   -3.7007   -1.6160   -1.2970 C   0  0  0  0  0  0  0  0  0  0  0  0
   -2.7721   -1.4077   -1.0826 H   0  0  0  0  0  0  0  0  0  0  0  0
   -3.8913   -2.5937   -0.8546 H   0  0  0  0  0  0  0  0  0  0  0  0
   -4.3224   -0.9466   -0.7024 H   0  0  0  0  0  0  0  0  0  0  0  0
   -4.2558   -1.4329   -2.7629 C   0  0  0  0  0  0  0  0  0  0  0  0
   -5.2181   -1.6842   -2.7441 H   0  0  0  0  0  0  0  0  0  0  0  0
   -4.1750   -0.3919   -3.0757 H   0  0  0  0  0  0  0  0  0  0  0  0
   -3.5345   -2.3486   -3.7670 C   0  0  0  0  0  0  0  0  0  0  0  0
   -2.6825   -1.9147   -4.0338 H   0  0  0  0  0  0  0  0  0  0  0  0
   -3.3398   -3.2132   -3.3168 H   0  0  0  0  0  0  0  0  0  0  0  0
   -4.1236   -2.5487   -4.6620 H   0  0  0  0  0  0  0  0  0  0  0  0
  1  5  1  0
  5  6  1  0
  5  7  2  0
  1  2  1  0
  1  3  1  0
  1  4  1  0
  8 12  1  0
 12 15  1  0
  8  9  1  0
  8 10  1  0
  8 11  1  0
 12 13  1  0
 12 14  1  0
 15 16  1  0
 15 17  1  0
 15 18  1  0
M  CHG  1   6  -1
M  END
>  <PDB_ID>  (158) 
pdb1ahr

>  <RESIDUE_NAME>  (158) 
GLU   ILE

>  <FRAG_NAME>  (158) 
ACET   PRPA

>  <FRAG_ATOM_NUM>  (158) 
fragi: 7  fragj: 11

>  <atom.prop.CHAIN_ID>  (158) 
A A A A A A A Z Z Z Z Z Z Z Z Z Z Z

>  <atom.prop.IS_HEAVY_ATOM>  (158) 
1 0 0 0 1 1 1 1 0 0 0 1 0 0 1 0 0 0

>  <DIFUSE_FUNC_ATOM>  (158) 
atom 6   atom 7   

>  <FINAL_SINGLE_POINT_ENERGY>  (158) 
0

>  <NONCOV_INTER_ENERGY_QM>  (158) 
0

>  <FF_Energy>  (158) 
13.6

>  <QM_Energy>  (158) 
-3.15

>  <Index>  (158) 
11307

$$$$
ACET-pdb1ahr-A-GLU-104:PRPA-pdb1ahr-A-ILE-100
     RDKit          3D

 18 16  0  0  0  0  0  0  0  0999 V2000
    0.0060    1.5092   -0.0260 C   0  0  0  0  0  0  0  0  0  0  0  0
    0.9226    1.7941   -0.2637 H   0  0  0  0  0  0  0  0  0  0  0  0
   -0.2423    1.8182    0.8802 H   0  0  0  0  0  0  0  0  0  0  0  0
   -0.6938    1.9283   -0.7491 H   0  0  0  0  0  0  0  0  0  0  0  0
    0.0000    0.0000    0.0000 C   0  0  0  0  0  0  0  0  0  0  0  0
   -1.0974   -0.5917    0.0000 O   0  0  0  0  0  1  0  0  0  0  0  0
    1.0974   -0.5952   -0.0000 O   0  0  0  0  0  0  0  0  0  0  0  0
   -3.7007   -1.6160   -1.2970 C   0  0  0  0  0  0  0  0  0  0  0  0
   -2.7721   -1.4077   -1.0826 H   0  0  0  0  0  0  0  0  0  0  0  0
   -3.8913   -2.5937   -0.8546 H   0  0  0  0  0  0  0  0  0  0  0  0
   -4.3224   -0.9466   -0.7024 H   0  0  0  0  0  0  0  0  0  0  0  0
   -4.2558   -1.4329   -2.7629 C   0  0  0  0  0  0  0  0  0  0  0  0
   -5.2181   -1.6842   -2.7441 H   0  0  0  0  0  0  0  0  0  0  0  0
   -3.7448   -2.0816   -3.4743 H   0  0  0  0  0  0  0  0  0  0  0  0
   -4.1423    0.0288   -3.2020 C   0  0  0  0  0  0  0  0  0  0  0  0
   -4.5596    0.1364   -4.1009 H   0  0  0  0  0  0  0  0  0  0  0  0
   -4.6139    0.6087   -2.5415 H   0  0  0  0  0  0  0  0  0  0  0  0
   -3.1793    0.2855   -3.2461 H   0  0  0  0  0  0  0  0  0  0  0  0
  1  5  1  0
  5  6  1  0
  5  7  2  0
  1  2  1  0
  1  3  1  0
  1  4  1  0
  8 12  1  0
 12 15  1  0
  8  9  1  0
  8 10  1  0
  8 11  1  0
 12 13  1  0
 12 14  1  0
 15 16  1  0
 15 17  1  0
 15 18  1  0
M  CHG  1   6  -1
M  END
>  <PDB_ID>  (159) 
pdb1ahr

>  <RESIDUE_NAME>  (159) 
GLU   ILE

>  <FRAG_NAME>  (159) 
ACET   PRPA

>  <FRAG_ATOM_NUM>  (159) 
fragi: 7  fragj: 11

>  <atom.prop.CHAIN_ID>  (159) 
A A A A A A A Z Z Z Z Z Z Z Z Z Z Z

>  <atom.prop.IS_HEAVY_ATOM>  (159) 
1 0 0 0 1 1 1 1 0 0 0 1 0 0 1 0 0 0

>  <DIFUSE_FUNC_ATOM>  (159) 
atom 6   atom 7   

>  <FINAL_SINGLE_POINT_ENERGY>  (159) 
0

>  <NONCOV_INTER_ENERGY_QM>  (159) 
0

>  <FF_Energy>  (159) 
3.31

>  <QM_Energy>  (159) 
-3.1

>  <Index>  (159) 
11315

$$$$
ACET-pdb2ars-A-ASP-229:PRPA-pdb2ars-A-ARG-4
     RDKit          3D

 18 16  0  0  0  0  0  0  0  0999 V2000
   -0.0124    1.5192    0.0164 C   0  0  0  0  0  0  0  0  0  0  0  0
   -0.0861    1.8276    0.9581 H   0  0  0  0  0  0  0  0  0  0  0  0
   -0.7877    1.8382   -0.5158 H   0  0  0  0  0  0  0  0  0  0  0  0
    0.8910    1.9549   -0.4102 H   0  0  0  0  0  0  0  0  0  0  0  0
    0.0000    0.0000    0.0000 C   0  0  0  0  0  0  0  0  0  0  0  0
   -1.0919   -0.5924   -0.0000 O   0  0  0  0  0  1  0  0  0  0  0  0
    1.0919   -0.6081   -0.0000 O   0  0  0  0  0  0  0  0  0  0  0  0
   -4.1152    2.2695    0.4514 C   0  0  0  0  0  0  0  0  0  0  0  0
   -5.0233    2.3101    0.0340 H   0  0  0  0  0  0  0  0  0  0  0  0
   -3.4209    2.2178   -0.2665 H   0  0  0  0  0  0  0  0  0  0  0  0
   -3.9577    3.1934    1.0080 H   0  0  0  0  0  0  0  0  0  0  0  0
   -4.0322    1.0059    1.2796 C   0  0  0  0  0  0  0  0  0  0  0  0
   -3.3110    1.0924    1.9521 H   0  0  0  0  0  0  0  0  0  0  0  0
   -4.9049    0.8312    1.7130 H   0  0  0  0  0  0  0  0  0  0  0  0
   -3.7055   -0.1764    0.3812 C   0  0  0  0  0  0  0  0  0  0  0  0
   -2.9733    0.1047   -0.2410 H   0  0  0  0  0  0  0  0  0  0  0  0
   -3.3772   -0.9217    0.9645 H   0  0  0  0  0  0  0  0  0  0  0  0
   -4.5648   -0.5165   -0.1967 H   0  0  0  0  0  0  0  0  0  0  0  0
  1  5  1  0
  5  6  1  0
  5  7  2  0
  1  2  1  0
  1  3  1  0
  1  4  1  0
  8 12  1  0
 12 15  1  0
  8  9  1  0
  8 10  1  0
  8 11  1  0
 12 13  1  0
 12 14  1  0
 15 16  1  0
 15 17  1  0
 15 18  1  0
M  CHG  1   6  -1
M  END
>  <PDB_ID>  (160) 
pdb2ars

>  <RESIDUE_NAME>  (160) 
ASP   ARG

>  <FRAG_NAME>  (160) 
ACET   PRPA

>  <FRAG_ATOM_NUM>  (160) 
fragi: 7  fragj: 11

>  <atom.prop.CHAIN_ID>  (160) 
A A A A A A A Z Z Z Z Z Z Z Z Z Z Z

>  <atom.prop.IS_HEAVY_ATOM>  (160) 
1 0 0 0 1 1 1 1 0 0 0 1 0 0 1 0 0 0

>  <DIFUSE_FUNC_ATOM>  (160) 
atom 6   atom 7   

>  <FINAL_SINGLE_POINT_ENERGY>  (160) 
0

>  <NONCOV_INTER_ENERGY_QM>  (160) 
0

>  <FF_Energy>  (160) 
11.92

>  <QM_Energy>  (160) 
0.71

>  <Index>  (160) 
11406

$$$$
ACET-pdb1ad1-A-GLU-141:PRPA-pdb1ad1-A-PRO-138
     RDKit          3D

 18 16  0  0  0  0  0  0  0  0999 V2000
    0.0214    1.5317    0.0005 C   0  0  0  0  0  0  0  0  0  0  0  0
    0.5719    1.8169   -0.7628 H   0  0  0  0  0  0  0  0  0  0  0  0
    0.4037    1.8171    0.8602 H   0  0  0  0  0  0  0  0  0  0  0  0
   -0.9665    1.9803   -0.1032 H   0  0  0  0  0  0  0  0  0  0  0  0
    0.0000    0.0000    0.0000 C   0  0  0  0  0  0  0  0  0  0  0  0
   -1.1030   -0.6104    0.0000 O   0  0  0  0  0  1  0  0  0  0  0  0
    1.1030   -0.5950   -0.0000 O   0  0  0  0  0  0  0  0  0  0  0  0
   -0.9255    0.3188    3.5521 C   0  0  0  0  0  0  0  0  0  0  0  0
   -0.8220    0.8067    2.6891 H   0  0  0  0  0  0  0  0  0  0  0  0
   -0.1109    0.4393    4.1116 H   0  0  0  0  0  0  0  0  0  0  0  0
   -1.8175    0.6512    4.0833 H   0  0  0  0  0  0  0  0  0  0  0  0
   -1.2012   -1.1343    3.3150 C   0  0  0  0  0  0  0  0  0  0  0  0
   -0.6055   -1.4927    2.6117 H   0  0  0  0  0  0  0  0  0  0  0  0
   -1.1137   -1.6483    4.1556 H   0  0  0  0  0  0  0  0  0  0  0  0
   -2.6310   -1.0939    2.8484 C   0  0  0  0  0  0  0  0  0  0  0  0
   -2.6997   -0.7832    1.9063 H   0  0  0  0  0  0  0  0  0  0  0  0
   -3.0757   -1.9778    2.9534 H   0  0  0  0  0  0  0  0  0  0  0  0
   -3.0682   -0.3615    3.5270 H   0  0  0  0  0  0  0  0  0  0  0  0
  1  5  1  0
  5  6  1  0
  5  7  2  0
  1  2  1  0
  1  3  1  0
  1  4  1  0
  8 12  1  0
 12 15  1  0
  8  9  1  0
  8 10  1  0
  8 11  1  0
 12 13  1  0
 12 14  1  0
 15 16  1  0
 15 17  1  0
 15 18  1  0
M  CHG  1   6  -1
M  END
>  <PDB_ID>  (161) 
pdb1ad1

>  <RESIDUE_NAME>  (161) 
GLU   PRO

>  <FRAG_NAME>  (161) 
ACET   PRPA

>  <FRAG_ATOM_NUM>  (161) 
fragi: 7  fragj: 11

>  <atom.prop.CHAIN_ID>  (161) 
A A A A A A A Z Z Z Z Z Z Z Z Z Z Z

>  <atom.prop.IS_HEAVY_ATOM>  (161) 
1 0 0 0 1 1 1 1 0 0 0 1 0 0 1 0 0 0

>  <DIFUSE_FUNC_ATOM>  (161) 
atom 6   atom 7   

>  <FINAL_SINGLE_POINT_ENERGY>  (161) 
0

>  <NONCOV_INTER_ENERGY_QM>  (161) 
0

>  <FF_Energy>  (161) 
9.77

>  <QM_Energy>  (161) 
-6.0

>  <Index>  (161) 
11461

$$$$
ACET-pdb2aps-A-GLU-71:PRPA-pdb2aps-A-LEU-76
     RDKit          3D

 18 16  0  0  0  0  0  0  0  0999 V2000
    0.1687    1.4854    0.0165 C   0  0  0  0  0  0  0  0  0  0  0  0
    0.6872    1.7444   -0.8005 H   0  0  0  0  0  0  0  0  0  0  0  0
    0.6994    1.7249    0.8312 H   0  0  0  0  0  0  0  0  0  0  0  0
   -0.7422    2.0839    0.0289 H   0  0  0  0  0  0  0  0  0  0  0  0
    0.0000    0.0000    0.0000 C   0  0  0  0  0  0  0  0  0  0  0  0
   -1.0897   -0.5590    0.0000 O   0  0  0  0  0  1  0  0  0  0  0  0
    1.0897   -0.6048    0.0000 O   0  0  0  0  0  0  0  0  0  0  0  0
   -4.9673    2.8465    0.5056 C   0  0  0  0  0  0  0  0  0  0  0  0
   -5.9335    2.9412    0.7193 H   0  0  0  0  0  0  0  0  0  0  0  0
   -4.7757    3.1925   -0.4046 H   0  0  0  0  0  0  0  0  0  0  0  0
   -4.4093    3.4563    1.2162 H   0  0  0  0  0  0  0  0  0  0  0  0
   -4.6375    1.3568    0.5132 C   0  0  0  0  0  0  0  0  0  0  0  0
   -4.8329    0.9812    1.4146 H   0  0  0  0  0  0  0  0  0  0  0  0
   -5.2455    0.8391   -0.2287 H   0  0  0  0  0  0  0  0  0  0  0  0
   -3.1601    1.1856    0.1951 C   0  0  0  0  0  0  0  0  0  0  0  0
   -2.6117    1.6599    0.8853 H   0  0  0  0  0  0  0  0  0  0  0  0
   -2.9273    0.2121    0.1963 H   0  0  0  0  0  0  0  0  0  0  0  0
   -2.9645    1.5726   -0.7068 H   0  0  0  0  0  0  0  0  0  0  0  0
  1  5  1  0
  5  6  1  0
  5  7  2  0
  1  2  1  0
  1  3  1  0
  1  4  1  0
  8 12  1  0
 12 15  1  0
  8  9  1  0
  8 10  1  0
  8 11  1  0
 12 13  1  0
 12 14  1  0
 15 16  1  0
 15 17  1  0
 15 18  1  0
M  CHG  1   6  -1
M  END
>  <PDB_ID>  (162) 
pdb2aps

>  <RESIDUE_NAME>  (162) 
GLU   LEU

>  <FRAG_NAME>  (162) 
ACET   PRPA

>  <FRAG_ATOM_NUM>  (162) 
fragi: 7  fragj: 11

>  <atom.prop.CHAIN_ID>  (162) 
A A A A A A A Z Z Z Z Z Z Z Z Z Z Z

>  <atom.prop.IS_HEAVY_ATOM>  (162) 
1 0 0 0 1 1 1 1 0 0 0 1 0 0 1 0 0 0

>  <DIFUSE_FUNC_ATOM>  (162) 
atom 6   atom 7   

>  <FINAL_SINGLE_POINT_ENERGY>  (162) 
0

>  <NONCOV_INTER_ENERGY_QM>  (162) 
0

>  <FF_Energy>  (162) 
3.79

>  <QM_Energy>  (162) 
3.13

>  <Index>  (162) 
11717

$$$$
ACET-pdb2aps-A-GLU-71:PRPA-pdb2aps-A-LEU-76
     RDKit          3D

 18 16  0  0  0  0  0  0  0  0999 V2000
    0.1687    1.4854    0.0165 C   0  0  0  0  0  0  0  0  0  0  0  0
    0.6872    1.7444   -0.8005 H   0  0  0  0  0  0  0  0  0  0  0  0
    0.6994    1.7249    0.8312 H   0  0  0  0  0  0  0  0  0  0  0  0
   -0.7422    2.0839    0.0289 H   0  0  0  0  0  0  0  0  0  0  0  0
    0.0000    0.0000    0.0000 C   0  0  0  0  0  0  0  0  0  0  0  0
   -1.0897   -0.5590    0.0000 O   0  0  0  0  0  1  0  0  0  0  0  0
    1.0897   -0.6048    0.0000 O   0  0  0  0  0  0  0  0  0  0  0  0
   -5.4930    0.6284   -0.5306 C   0  0  0  0  0  0  0  0  0  0  0  0
   -5.3010    1.0066   -1.4347 H   0  0  0  0  0  0  0  0  0  0  0  0
   -5.2697   -0.3443   -0.5182 H   0  0  0  0  0  0  0  0  0  0  0  0
   -6.4584    0.7560   -0.3102 H   0  0  0  0  0  0  0  0  0  0  0  0
   -4.6375    1.3568    0.5132 C   0  0  0  0  0  0  0  0  0  0  0  0
   -4.8329    0.9812    1.4146 H   0  0  0  0  0  0  0  0  0  0  0  0
   -4.8731    2.4210    0.5078 H   0  0  0  0  0  0  0  0  0  0  0  0
   -3.1601    1.1856    0.1951 C   0  0  0  0  0  0  0  0  0  0  0  0
   -2.6117    1.6599    0.8853 H   0  0  0  0  0  0  0  0  0  0  0  0
   -2.9273    0.2121    0.1963 H   0  0  0  0  0  0  0  0  0  0  0  0
   -2.9645    1.5726   -0.7068 H   0  0  0  0  0  0  0  0  0  0  0  0
  1  5  1  0
  5  6  1  0
  5  7  2  0
  1  2  1  0
  1  3  1  0
  1  4  1  0
  8 12  1  0
 12 15  1  0
  8  9  1  0
  8 10  1  0
  8 11  1  0
 12 13  1  0
 12 14  1  0
 15 16  1  0
 15 17  1  0
 15 18  1  0
M  CHG  1   6  -1
M  END
>  <PDB_ID>  (163) 
pdb2aps

>  <RESIDUE_NAME>  (163) 
GLU   LEU

>  <FRAG_NAME>  (163) 
ACET   PRPA

>  <FRAG_ATOM_NUM>  (163) 
fragi: 7  fragj: 11

>  <atom.prop.CHAIN_ID>  (163) 
A A A A A A A Z Z Z Z Z Z Z Z Z Z Z

>  <atom.prop.IS_HEAVY_ATOM>  (163) 
1 0 0 0 1 1 1 1 0 0 0 1 0 0 1 0 0 0

>  <DIFUSE_FUNC_ATOM>  (163) 
atom 6   atom 7   

>  <FINAL_SINGLE_POINT_ENERGY>  (163) 
0

>  <NONCOV_INTER_ENERGY_QM>  (163) 
0

>  <FF_Energy>  (163) 
14.19

>  <QM_Energy>  (163) 
2.75

>  <Index>  (163) 
11724

$$$$
ACET-pdb2a7k-B-GLU-29:PRPA-pdb2a7k-B-ARG-82
     RDKit          3D

 18 16  0  0  0  0  0  0  0  0999 V2000
    0.0177    1.5144   -0.0316 C   0  0  0  0  0  0  0  0  0  0  0  0
    0.3825    1.7789   -0.9069 H   0  0  0  0  0  0  0  0  0  0  0  0
    0.5918    1.8096    0.7114 H   0  0  0  0  0  0  0  0  0  0  0  0
   -0.9806    1.9353    0.0886 H   0  0  0  0  0  0  0  0  0  0  0  0
    0.0000    0.0000    0.0000 C   0  0  0  0  0  0  0  0  0  0  0  0
   -1.0970   -0.6113   -0.0000 O   0  0  0  0  0  1  0  0  0  0  0  0
    1.0970   -0.5876   -0.0000 O   0  0  0  0  0  0  0  0  0  0  0  0
   -1.1282   -3.2509   -2.3291 C   0  0  0  0  0  0  0  0  0  0  0  0
   -0.3862   -3.9111   -2.4151 H   0  0  0  0  0  0  0  0  0  0  0  0
   -0.7666   -2.3732   -2.0247 H   0  0  0  0  0  0  0  0  0  0  0  0
   -1.5896   -3.1168   -3.3076 H   0  0  0  0  0  0  0  0  0  0  0  0
   -2.0814   -3.7556   -1.2679 C   0  0  0  0  0  0  0  0  0  0  0  0
   -2.9758   -3.3592   -1.3998 H   0  0  0  0  0  0  0  0  0  0  0  0
   -2.1148   -4.7418   -1.2837 H   0  0  0  0  0  0  0  0  0  0  0  0
   -1.5750   -3.3254    0.1146 C   0  0  0  0  0  0  0  0  0  0  0  0
   -1.1800   -2.4067    0.0174 H   0  0  0  0  0  0  0  0  0  0  0  0
   -2.3739   -3.2688    0.7221 H   0  0  0  0  0  0  0  0  0  0  0  0
   -0.8341   -3.9986    0.5461 H   0  0  0  0  0  0  0  0  0  0  0  0
  1  5  1  0
  5  6  1  0
  5  7  2  0
  1  2  1  0
  1  3  1  0
  1  4  1  0
  8 12  1  0
 12 15  1  0
  8  9  1  0
  8 10  1  0
  8 11  1  0
 12 13  1  0
 12 14  1  0
 15 16  1  0
 15 17  1  0
 15 18  1  0
M  CHG  1   6  -1
M  END
>  <PDB_ID>  (164) 
pdb2a7k

>  <RESIDUE_NAME>  (164) 
GLU   ARG

>  <FRAG_NAME>  (164) 
ACET   PRPA

>  <FRAG_ATOM_NUM>  (164) 
fragi: 7  fragj: 11

>  <atom.prop.CHAIN_ID>  (164) 
A A A A A A A Z Z Z Z Z Z Z Z Z Z Z

>  <atom.prop.IS_HEAVY_ATOM>  (164) 
1 0 0 0 1 1 1 1 0 0 0 1 0 0 1 0 0 0

>  <DIFUSE_FUNC_ATOM>  (164) 
atom 6   atom 7   

>  <FINAL_SINGLE_POINT_ENERGY>  (164) 
0

>  <NONCOV_INTER_ENERGY_QM>  (164) 
0

>  <FF_Energy>  (164) 
44.82

>  <QM_Energy>  (164) 
-0.53

>  <Index>  (164) 
11809

$$$$
ACET-pdb1ad1-A-GLU-124:PRPA-pdb1ad1-A-LYS-163
     RDKit          3D

 18 16  0  0  0  0  0  0  0  0999 V2000
    0.0207    1.5057   -0.0021 C   0  0  0  0  0  0  0  0  0  0  0  0
   -0.2840    1.8055   -0.8907 H   0  0  0  0  0  0  0  0  0  0  0  0
    0.9468    1.7899    0.1809 H   0  0  0  0  0  0  0  0  0  0  0  0
   -0.6342    1.9371    0.7550 H   0  0  0  0  0  0  0  0  0  0  0  0
    0.0000    0.0000    0.0000 C   0  0  0  0  0  0  0  0  0  0  0  0
   -1.0912   -0.6055   -0.0000 O   0  0  0  0  0  1  0  0  0  0  0  0
    1.0912   -0.5944   -0.0000 O   0  0  0  0  0  0  0  0  0  0  0  0
   -3.1421    2.0857   -2.7706 C   0  0  0  0  0  0  0  0  0  0  0  0
   -2.8160    1.2090   -2.4047 H   0  0  0  0  0  0  0  0  0  0  0  0
   -3.6592    1.9062   -3.7132 H   0  0  0  0  0  0  0  0  0  0  0  0
   -3.8224    2.5341   -2.0466 H   0  0  0  0  0  0  0  0  0  0  0  0
   -1.9108    2.9750   -2.9857 C   0  0  0  0  0  0  0  0  0  0  0  0
   -2.1263    3.6326   -3.6981 H   0  0  0  0  0  0  0  0  0  0  0  0
   -1.7139    3.4401   -2.1304 H   0  0  0  0  0  0  0  0  0  0  0  0
   -0.6880    2.1892   -3.4043 C   0  0  0  0  0  0  0  0  0  0  0  0
   -0.4789    1.5097   -2.6972 H   0  0  0  0  0  0  0  0  0  0  0  0
   -0.8822    1.7157   -4.2661 H   0  0  0  0  0  0  0  0  0  0  0  0
    0.1766    2.8388   -3.5411 H   0  0  0  0  0  0  0  0  0  0  0  0
  1  5  1  0
  5  6  1  0
  5  7  2  0
  1  2  1  0
  1  3  1  0
  1  4  1  0
  8 12  1  0
 12 15  1  0
  8  9  1  0
  8 10  1  0
  8 11  1  0
 12 13  1  0
 12 14  1  0
 15 16  1  0
 15 17  1  0
 15 18  1  0
M  CHG  1   6  -1
M  END
>  <PDB_ID>  (165) 
pdb1ad1

>  <RESIDUE_NAME>  (165) 
GLU   LYS

>  <FRAG_NAME>  (165) 
ACET   PRPA

>  <FRAG_ATOM_NUM>  (165) 
fragi: 7  fragj: 11

>  <atom.prop.CHAIN_ID>  (165) 
A A A A A A A Z Z Z Z Z Z Z Z Z Z Z

>  <atom.prop.IS_HEAVY_ATOM>  (165) 
1 0 0 0 1 1 1 1 0 0 0 1 0 0 1 0 0 0

>  <DIFUSE_FUNC_ATOM>  (165) 
atom 6   atom 7   

>  <FINAL_SINGLE_POINT_ENERGY>  (165) 
0

>  <NONCOV_INTER_ENERGY_QM>  (165) 
0

>  <FF_Energy>  (165) 
3.55

>  <QM_Energy>  (165) 
-1.73

>  <Index>  (165) 
11819

$$$$
ACET-pdb2ars-A-GLU-55:PRPA-pdb2ars-A-VAL-52
     RDKit          3D

 18 16  0  0  0  0  0  0  0  0999 V2000
   -0.0084    1.5134   -0.0058 C   0  0  0  0  0  0  0  0  0  0  0  0
   -0.6362    1.8125    0.6908 H   0  0  0  0  0  0  0  0  0  0  0  0
   -0.2858    1.8080   -0.9031 H   0  0  0  0  0  0  0  0  0  0  0  0
    0.9678    1.9485    0.2084 H   0  0  0  0  0  0  0  0  0  0  0  0
    0.0000    0.0000    0.0000 C   0  0  0  0  0  0  0  0  0  0  0  0
   -1.0994   -0.5968    0.0000 O   0  0  0  0  0  1  0  0  0  0  0  0
    1.0994   -0.5931    0.0000 O   0  0  0  0  0  0  0  0  0  0  0  0
    2.5741   -1.9444    3.1424 C   0  0  0  0  0  0  0  0  0  0  0  0
    2.8858   -2.7917    3.5400 H   0  0  0  0  0  0  0  0  0  0  0  0
    2.6039   -1.1700    3.9088 H   0  0  0  0  0  0  0  0  0  0  0  0
    3.3010   -1.6359    2.3911 H   0  0  0  0  0  0  0  0  0  0  0  0
    1.1688   -2.0719    2.5100 C   0  0  0  0  0  0  0  0  0  0  0  0
    0.9633   -1.2116    2.0589 H   0  0  0  0  0  0  0  0  0  0  0  0
    1.1734   -2.8438    1.7404 H   0  0  0  0  0  0  0  0  0  0  0  0
    0.1472   -2.4201    3.5843 C   0  0  0  0  0  0  0  0  0  0  0  0
    0.1532   -1.7098    4.2872 H   0  0  0  0  0  0  0  0  0  0  0  0
   -0.7603   -2.4764    3.1696 H   0  0  0  0  0  0  0  0  0  0  0  0
    0.3861   -3.3001    3.9932 H   0  0  0  0  0  0  0  0  0  0  0  0
  1  5  1  0
  5  6  1  0
  5  7  2  0
  1  2  1  0
  1  3  1  0
  1  4  1  0
  8 12  1  0
 12 15  1  0
  8  9  1  0
  8 10  1  0
  8 11  1  0
 12 13  1  0
 12 14  1  0
 15 16  1  0
 15 17  1  0
 15 18  1  0
M  CHG  1   6  -1
M  END
>  <PDB_ID>  (166) 
pdb2ars

>  <RESIDUE_NAME>  (166) 
GLU   VAL

>  <FRAG_NAME>  (166) 
ACET   PRPA

>  <FRAG_ATOM_NUM>  (166) 
fragi: 7  fragj: 11

>  <atom.prop.CHAIN_ID>  (166) 
A A A A A A A Z Z Z Z Z Z Z Z Z Z Z

>  <atom.prop.IS_HEAVY_ATOM>  (166) 
1 0 0 0 1 1 1 1 0 0 0 1 0 0 1 0 0 0

>  <DIFUSE_FUNC_ATOM>  (166) 
atom 6   atom 7   

>  <FINAL_SINGLE_POINT_ENERGY>  (166) 
0

>  <NONCOV_INTER_ENERGY_QM>  (166) 
0

>  <FF_Energy>  (166) 
5.07

>  <QM_Energy>  (166) 
-2.18

>  <Index>  (166) 
12000

$$$$
ACET-pdb2anw-A-GLU-223:PRPA-pdb2anw-A-LYS-185
     RDKit          3D

 18 16  0  0  0  0  0  0  0  0999 V2000
    0.0262    1.5266   -0.0280 C   0  0  0  0  0  0  0  0  0  0  0  0
   -0.0322    1.8027   -0.9882 H   0  0  0  0  0  0  0  0  0  0  0  0
    0.9103    1.8097    0.3447 H   0  0  0  0  0  0  0  0  0  0  0  0
   -0.7568    2.0493    0.5213 H   0  0  0  0  0  0  0  0  0  0  0  0
    0.0000    0.0000    0.0000 C   0  0  0  0  0  0  0  0  0  0  0  0
   -1.0794   -0.6010   -0.0000 O   0  0  0  0  0  1  0  0  0  0  0  0
    1.0794   -0.5925    0.0000 O   0  0  0  0  0  0  0  0  0  0  0  0
    0.1343   -2.2721   -2.5316 C   0  0  0  0  0  0  0  0  0  0  0  0
    0.9482   -2.2929   -3.0614 H   0  0  0  0  0  0  0  0  0  0  0  0
    0.0970   -1.5527   -1.8804 H   0  0  0  0  0  0  0  0  0  0  0  0
   -0.7325   -2.2184   -3.1904 H   0  0  0  0  0  0  0  0  0  0  0  0
   -0.0313   -3.6028   -1.8189 C   0  0  0  0  0  0  0  0  0  0  0  0
   -0.7656   -3.5143   -1.1416 H   0  0  0  0  0  0  0  0  0  0  0  0
   -0.2898   -4.2984   -2.4930 H   0  0  0  0  0  0  0  0  0  0  0  0
    1.2251   -4.0570   -1.1131 C   0  0  0  0  0  0  0  0  0  0  0  0
    1.9615   -4.1258   -1.7832 H   0  0  0  0  0  0  0  0  0  0  0  0
    1.4649   -3.3805   -0.4191 H   0  0  0  0  0  0  0  0  0  0  0  0
    1.0456   -5.0266   -0.6484 H   0  0  0  0  0  0  0  0  0  0  0  0
  1  5  1  0
  5  6  1  0
  5  7  2  0
  1  2  1  0
  1  3  1  0
  1  4  1  0
  8 12  1  0
 12 15  1  0
  8  9  1  0
  8 10  1  0
  8 11  1  0
 12 13  1  0
 12 14  1  0
 15 16  1  0
 15 17  1  0
 15 18  1  0
M  CHG  1   6  -1
M  END
>  <PDB_ID>  (167) 
pdb2anw

>  <RESIDUE_NAME>  (167) 
GLU   LYS

>  <FRAG_NAME>  (167) 
ACET   PRPA

>  <FRAG_ATOM_NUM>  (167) 
fragi: 7  fragj: 11

>  <atom.prop.CHAIN_ID>  (167) 
A A A A A A A Z Z Z Z Z Z Z Z Z Z Z

>  <atom.prop.IS_HEAVY_ATOM>  (167) 
1 0 0 0 1 1 1 1 0 0 0 1 0 0 1 0 0 0

>  <DIFUSE_FUNC_ATOM>  (167) 
atom 6   atom 7   

>  <FINAL_SINGLE_POINT_ENERGY>  (167) 
0

>  <NONCOV_INTER_ENERGY_QM>  (167) 
0

>  <FF_Energy>  (167) 
4.83

>  <QM_Energy>  (167) 
-5.44

>  <Index>  (167) 
12018

$$$$
ACET-pdb2anw-A-GLU-223:PRPA-pdb2anw-A-LYS-185
     RDKit          3D

 18 16  0  0  0  0  0  0  0  0999 V2000
    0.0262    1.5266   -0.0280 C   0  0  0  0  0  0  0  0  0  0  0  0
   -0.0322    1.8027   -0.9882 H   0  0  0  0  0  0  0  0  0  0  0  0
    0.9103    1.8097    0.3447 H   0  0  0  0  0  0  0  0  0  0  0  0
   -0.7568    2.0493    0.5213 H   0  0  0  0  0  0  0  0  0  0  0  0
    0.0000    0.0000    0.0000 C   0  0  0  0  0  0  0  0  0  0  0  0
   -1.0794   -0.6010   -0.0000 O   0  0  0  0  0  1  0  0  0  0  0  0
    1.0794   -0.5925    0.0000 O   0  0  0  0  0  0  0  0  0  0  0  0
   -2.1701   -1.2026   -3.3037 C   0  0  0  0  0  0  0  0  0  0  0  0
   -2.4184   -1.0354   -2.3563 H   0  0  0  0  0  0  0  0  0  0  0  0
   -3.0443   -1.5800   -3.8343 H   0  0  0  0  0  0  0  0  0  0  0  0
   -1.8770   -0.2595   -3.7649 H   0  0  0  0  0  0  0  0  0  0  0  0
   -1.0675   -2.1976   -3.4450 C   0  0  0  0  0  0  0  0  0  0  0  0
   -1.5005   -3.1537   -3.4479 H   0  0  0  0  0  0  0  0  0  0  0  0
   -0.6958   -2.1228   -4.4245 H   0  0  0  0  0  0  0  0  0  0  0  0
    0.1343   -2.2721   -2.5316 C   0  0  0  0  0  0  0  0  0  0  0  0
    0.9482   -2.2929   -3.0614 H   0  0  0  0  0  0  0  0  0  0  0  0
    0.0970   -1.5527   -1.8804 H   0  0  0  0  0  0  0  0  0  0  0  0
    0.0155   -3.2272   -2.0200 H   0  0  0  0  0  0  0  0  0  0  0  0
  1  5  1  0
  5  6  1  0
  5  7  2  0
  1  2  1  0
  1  3  1  0
  1  4  1  0
  8 12  1  0
 12 15  1  0
  8  9  1  0
  8 10  1  0
  8 11  1  0
 12 13  1  0
 12 14  1  0
 15 16  1  0
 15 17  1  0
 15 18  1  0
M  CHG  1   6  -1
M  END
>  <PDB_ID>  (168) 
pdb2anw

>  <RESIDUE_NAME>  (168) 
GLU   LYS

>  <FRAG_NAME>  (168) 
ACET   PRPA

>  <FRAG_ATOM_NUM>  (168) 
fragi: 7  fragj: 11

>  <atom.prop.CHAIN_ID>  (168) 
A A A A A A A Z Z Z Z Z Z Z Z Z Z Z

>  <atom.prop.IS_HEAVY_ATOM>  (168) 
1 0 0 0 1 1 1 1 0 0 0 1 0 0 1 0 0 0

>  <DIFUSE_FUNC_ATOM>  (168) 
atom 6   atom 7   

>  <FINAL_SINGLE_POINT_ENERGY>  (168) 
0

>  <NONCOV_INTER_ENERGY_QM>  (168) 
0

>  <FF_Energy>  (168) 
3.1

>  <QM_Energy>  (168) 
-3.83

>  <Index>  (168) 
12022

$$$$
ACET-pdb2anw-A-GLU-223:PRPA-pdb2anw-A-LYS-185
     RDKit          3D

 18 16  0  0  0  0  0  0  0  0999 V2000
    0.0262    1.5266   -0.0280 C   0  0  0  0  0  0  0  0  0  0  0  0
   -0.0322    1.8027   -0.9882 H   0  0  0  0  0  0  0  0  0  0  0  0
    0.9103    1.8097    0.3447 H   0  0  0  0  0  0  0  0  0  0  0  0
   -0.7568    2.0493    0.5213 H   0  0  0  0  0  0  0  0  0  0  0  0
    0.0000    0.0000    0.0000 C   0  0  0  0  0  0  0  0  0  0  0  0
   -1.0794   -0.6010   -0.0000 O   0  0  0  0  0  1  0  0  0  0  0  0
    1.0794   -0.5925    0.0000 O   0  0  0  0  0  0  0  0  0  0  0  0
   -1.0675   -2.1976   -3.4450 C   0  0  0  0  0  0  0  0  0  0  0  0
   -1.5005   -3.1537   -3.4479 H   0  0  0  0  0  0  0  0  0  0  0  0
   -0.6958   -2.1228   -4.4245 H   0  0  0  0  0  0  0  0  0  0  0  0
   -1.8731   -1.4707   -3.3418 H   0  0  0  0  0  0  0  0  0  0  0  0
    0.1343   -2.2721   -2.5316 C   0  0  0  0  0  0  0  0  0  0  0  0
    0.9482   -2.2929   -3.0614 H   0  0  0  0  0  0  0  0  0  0  0  0
    0.0970   -1.5527   -1.8804 H   0  0  0  0  0  0  0  0  0  0  0  0
   -0.0313   -3.6028   -1.8189 C   0  0  0  0  0  0  0  0  0  0  0  0
   -0.7656   -3.5143   -1.1416 H   0  0  0  0  0  0  0  0  0  0  0  0
   -0.2898   -4.2984   -2.4930 H   0  0  0  0  0  0  0  0  0  0  0  0
    0.8750   -3.9305   -1.3097 H   0  0  0  0  0  0  0  0  0  0  0  0
  1  5  1  0
  5  6  1  0
  5  7  2  0
  1  2  1  0
  1  3  1  0
  1  4  1  0
  8 12  1  0
 12 15  1  0
  8  9  1  0
  8 10  1  0
  8 11  1  0
 12 13  1  0
 12 14  1  0
 15 16  1  0
 15 17  1  0
 15 18  1  0
M  CHG  1   6  -1
M  END
>  <PDB_ID>  (169) 
pdb2anw

>  <RESIDUE_NAME>  (169) 
GLU   LYS

>  <FRAG_NAME>  (169) 
ACET   PRPA

>  <FRAG_ATOM_NUM>  (169) 
fragi: 7  fragj: 11

>  <atom.prop.CHAIN_ID>  (169) 
A A A A A A A Z Z Z Z Z Z Z Z Z Z Z

>  <atom.prop.IS_HEAVY_ATOM>  (169) 
1 0 0 0 1 1 1 1 0 0 0 1 0 0 1 0 0 0

>  <DIFUSE_FUNC_ATOM>  (169) 
atom 6   atom 7   

>  <FINAL_SINGLE_POINT_ENERGY>  (169) 
0

>  <NONCOV_INTER_ENERGY_QM>  (169) 
0

>  <FF_Energy>  (169) 
5.1

>  <QM_Energy>  (169) 
-4.44

>  <Index>  (169) 
12023

$$$$
ACET-pdb2aj4-A-GLU-86:PRPA-pdb2aj4-A-PRO-89
     RDKit          3D

 18 16  0  0  0  0  0  0  0  0999 V2000
    0.2354    1.5045   -0.0389 C   0  0  0  0  0  0  0  0  0  0  0  0
    1.1593    1.6690    0.2033 H   0  0  0  0  0  0  0  0  0  0  0  0
   -0.4159    1.9235    0.5443 H   0  0  0  0  0  0  0  0  0  0  0  0
    0.0795    1.8849   -1.0484 H   0  0  0  0  0  0  0  0  0  0  0  0
    0.0000    0.0000    0.0000 C   0  0  0  0  0  0  0  0  0  0  0  0
   -1.1095   -0.5169    0.0000 O   0  0  0  0  0  1  0  0  0  0  0  0
    1.1095   -0.7017   -0.0000 O   0  0  0  0  0  0  0  0  0  0  0  0
   -1.8251   -1.3040   -2.8201 C   0  0  0  0  0  0  0  0  0  0  0  0
   -1.6087   -0.7571   -1.9674 H   0  0  0  0  0  0  0  0  0  0  0  0
   -1.3656   -0.8345   -3.6899 H   0  0  0  0  0  0  0  0  0  0  0  0
   -1.5954   -2.3578   -2.6621 H   0  0  0  0  0  0  0  0  0  0  0  0
   -3.3376   -1.2122   -2.9977 C   0  0  0  0  0  0  0  0  0  0  0  0
   -3.7445   -2.1331   -3.1062 H   0  0  0  0  0  0  0  0  0  0  0  0
   -3.7709   -0.7808   -2.1913 H   0  0  0  0  0  0  0  0  0  0  0  0
   -3.5933   -0.3807   -4.2351 C   0  0  0  0  0  0  0  0  0  0  0  0
   -4.1892   -0.8818   -4.8746 H   0  0  0  0  0  0  0  0  0  0  0  0
   -4.0527    0.4814   -3.9868 H   0  0  0  0  0  0  0  0  0  0  0  0
   -2.6250   -0.1796   -4.6933 H   0  0  0  0  0  0  0  0  0  0  0  0
  1  5  1  0
  5  6  1  0
  5  7  2  0
  1  2  1  0
  1  3  1  0
  1  4  1  0
  8 12  1  0
 12 15  1  0
  8  9  1  0
  8 10  1  0
  8 11  1  0
 12 13  1  0
 12 14  1  0
 15 16  1  0
 15 17  1  0
 15 18  1  0
M  CHG  1   6  -1
M  END
>  <PDB_ID>  (170) 
pdb2aj4

>  <RESIDUE_NAME>  (170) 
GLU   PRO

>  <FRAG_NAME>  (170) 
ACET   PRPA

>  <FRAG_ATOM_NUM>  (170) 
fragi: 7  fragj: 11

>  <atom.prop.CHAIN_ID>  (170) 
A A A A A A A Z Z Z Z Z Z Z Z Z Z Z

>  <atom.prop.IS_HEAVY_ATOM>  (170) 
1 0 0 0 1 1 1 1 0 0 0 1 0 0 1 0 0 0

>  <DIFUSE_FUNC_ATOM>  (170) 
atom 6   atom 7   

>  <FINAL_SINGLE_POINT_ENERGY>  (170) 
0

>  <NONCOV_INTER_ENERGY_QM>  (170) 
0

>  <FF_Energy>  (170) 
8.5

>  <QM_Energy>  (170) 
-1.8

>  <Index>  (170) 
12289

$$$$
ACET-pdb1aer-B-GLU-431:PRPA-pdb1aer-A-PRO-608
     RDKit          3D

 18 16  0  0  0  0  0  0  0  0999 V2000
    0.0183    1.4916   -0.0053 C   0  0  0  0  0  0  0  0  0  0  0  0
    0.7817    1.7787   -0.5649 H   0  0  0  0  0  0  0  0  0  0  0  0
    0.1293    1.7915    0.9311 H   0  0  0  0  0  0  0  0  0  0  0  0
   -0.8980    1.9218   -0.4096 H   0  0  0  0  0  0  0  0  0  0  0  0
    0.0000    0.0000    0.0000 C   0  0  0  0  0  0  0  0  0  0  0  0
   -1.1198   -0.5799   -0.0000 O   0  0  0  0  0  1  0  0  0  0  0  0
    1.1198   -0.5793   -0.0000 O   0  0  0  0  0  0  0  0  0  0  0  0
    3.4420    2.3197   -4.4575 C   0  0  0  0  0  0  0  0  0  0  0  0
    2.9805    2.5768   -5.3424 H   0  0  0  0  0  0  0  0  0  0  0  0
    3.1862    1.2952   -4.1872 H   0  0  0  0  0  0  0  0  0  0  0  0
    4.5032    2.5625   -4.5123 H   0  0  0  0  0  0  0  0  0  0  0  0
    2.7177    3.1433   -3.3840 C   0  0  0  0  0  0  0  0  0  0  0  0
    3.2731    3.9221   -3.1001 H   0  0  0  0  0  0  0  0  0  0  0  0
    1.8337    3.4614   -3.7170 H   0  0  0  0  0  0  0  0  0  0  0  0
    2.5407    2.1704   -2.2447 C   0  0  0  0  0  0  0  0  0  0  0  0
    3.3954    2.0496   -1.7624 H   0  0  0  0  0  0  0  0  0  0  0  0
    1.8263    2.4828   -1.6363 H   0  0  0  0  0  0  0  0  0  0  0  0
    2.2481    1.2662   -2.7784 H   0  0  0  0  0  0  0  0  0  0  0  0
  1  5  1  0
  5  6  1  0
  5  7  2  0
  1  2  1  0
  1  3  1  0
  1  4  1  0
  8 12  1  0
 12 15  1  0
  8  9  1  0
  8 10  1  0
  8 11  1  0
 12 13  1  0
 12 14  1  0
 15 16  1  0
 15 17  1  0
 15 18  1  0
M  CHG  1   6  -1
M  END
>  <PDB_ID>  (171) 
pdb1aer

>  <RESIDUE_NAME>  (171) 
GLU   PRO

>  <FRAG_NAME>  (171) 
ACET   PRPA

>  <FRAG_ATOM_NUM>  (171) 
fragi: 7  fragj: 11

>  <atom.prop.CHAIN_ID>  (171) 
A A A A A A A Z Z Z Z Z Z Z Z Z Z Z

>  <atom.prop.IS_HEAVY_ATOM>  (171) 
1 0 0 0 1 1 1 1 0 0 0 1 0 0 1 0 0 0

>  <DIFUSE_FUNC_ATOM>  (171) 
atom 6   atom 7   

>  <FINAL_SINGLE_POINT_ENERGY>  (171) 
0

>  <NONCOV_INTER_ENERGY_QM>  (171) 
0

>  <FF_Energy>  (171) 
43.58

>  <QM_Energy>  (171) 
1.82

>  <Index>  (171) 
12329

$$$$
ACET-pdb2apg-A-GLU-69:PRPA-pdb2apg-A-ILE-65
     RDKit          3D

 18 16  0  0  0  0  0  0  0  0999 V2000
    0.0016    1.5058   -0.0325 C   0  0  0  0  0  0  0  0  0  0  0  0
    0.8903    1.8021   -0.3265 H   0  0  0  0  0  0  0  0  0  0  0  0
   -0.2242    1.8284    0.8669 H   0  0  0  0  0  0  0  0  0  0  0  0
   -0.7347    1.9054   -0.7298 H   0  0  0  0  0  0  0  0  0  0  0  0
    0.0000    0.0000    0.0000 C   0  0  0  0  0  0  0  0  0  0  0  0
   -1.0918   -0.5878    0.0000 O   0  0  0  0  0  1  0  0  0  0  0  0
    1.0918   -0.6100   -0.0000 O   0  0  0  0  0  0  0  0  0  0  0  0
   -1.4509   -2.1930   -3.7943 C   0  0  0  0  0  0  0  0  0  0  0  0
   -1.7487   -2.1091   -2.8383 H   0  0  0  0  0  0  0  0  0  0  0  0
   -1.6859   -3.2121   -4.1011 H   0  0  0  0  0  0  0  0  0  0  0  0
   -2.0294   -1.4633   -4.3608 H   0  0  0  0  0  0  0  0  0  0  0  0
    0.0443   -1.8864   -3.9315 C   0  0  0  0  0  0  0  0  0  0  0  0
    0.2731   -1.8829   -4.9015 H   0  0  0  0  0  0  0  0  0  0  0  0
    0.6467   -2.6556   -3.4483 H   0  0  0  0  0  0  0  0  0  0  0  0
    0.3515   -0.4927   -3.3930 C   0  0  0  0  0  0  0  0  0  0  0  0
    1.3131   -0.2801   -3.5527 H   0  0  0  0  0  0  0  0  0  0  0  0
   -0.2208    0.1773   -3.8615 H   0  0  0  0  0  0  0  0  0  0  0  0
    0.1622   -0.4664   -2.4139 H   0  0  0  0  0  0  0  0  0  0  0  0
  1  5  1  0
  5  6  1  0
  5  7  2  0
  1  2  1  0
  1  3  1  0
  1  4  1  0
  8 12  1  0
 12 15  1  0
  8  9  1  0
  8 10  1  0
  8 11  1  0
 12 13  1  0
 12 14  1  0
 15 16  1  0
 15 17  1  0
 15 18  1  0
M  CHG  1   6  -1
M  END
>  <PDB_ID>  (172) 
pdb2apg

>  <RESIDUE_NAME>  (172) 
GLU   ILE

>  <FRAG_NAME>  (172) 
ACET   PRPA

>  <FRAG_ATOM_NUM>  (172) 
fragi: 7  fragj: 11

>  <atom.prop.CHAIN_ID>  (172) 
A A A A A A A Z Z Z Z Z Z Z Z Z Z Z

>  <atom.prop.IS_HEAVY_ATOM>  (172) 
1 0 0 0 1 1 1 1 0 0 0 1 0 0 1 0 0 0

>  <DIFUSE_FUNC_ATOM>  (172) 
atom 6   atom 7   

>  <FINAL_SINGLE_POINT_ENERGY>  (172) 
0

>  <NONCOV_INTER_ENERGY_QM>  (172) 
0

>  <FF_Energy>  (172) 
2.05

>  <QM_Energy>  (172) 
-3.83

>  <Index>  (172) 
12403

$$$$
ACET-pdb1af0-A-ASP-201:PRPA-pdb1af0-A-PRO-197
     RDKit          3D

 18 16  0  0  0  0  0  0  0  0999 V2000
   -0.0142    1.5196   -0.0053 C   0  0  0  0  0  0  0  0  0  0  0  0
    0.8355    1.8472   -0.3858 H   0  0  0  0  0  0  0  0  0  0  0  0
   -0.1474    1.8430    0.9171 H   0  0  0  0  0  0  0  0  0  0  0  0
   -0.8268    1.9106   -0.6176 H   0  0  0  0  0  0  0  0  0  0  0  0
    0.0000    0.0000    0.0000 C   0  0  0  0  0  0  0  0  0  0  0  0
   -1.1017   -0.5942   -0.0000 O   0  0  0  0  0  1  0  0  0  0  0  0
    1.1017   -0.5899    0.0000 O   0  0  0  0  0  0  0  0  0  0  0  0
    3.8573   -0.9778    0.3120 C   0  0  0  0  0  0  0  0  0  0  0  0
    2.8795   -1.0619    0.5470 H   0  0  0  0  0  0  0  0  0  0  0  0
    4.4382   -1.7577    0.8045 H   0  0  0  0  0  0  0  0  0  0  0  0
    3.9976   -0.9933   -0.7688 H   0  0  0  0  0  0  0  0  0  0  0  0
    4.4963    0.3045    0.8627 C   0  0  0  0  0  0  0  0  0  0  0  0
    4.4103    1.0504    0.2063 H   0  0  0  0  0  0  0  0  0  0  0  0
    4.0769    0.5627    1.7287 H   0  0  0  0  0  0  0  0  0  0  0  0
    5.9300   -0.0813    1.0522 C   0  0  0  0  0  0  0  0  0  0  0  0
    6.4297   -0.0154    0.1854 H   0  0  0  0  0  0  0  0  0  0  0  0
    6.3682    0.5172    1.7268 H   0  0  0  0  0  0  0  0  0  0  0  0
    5.9017   -1.1115    1.4072 H   0  0  0  0  0  0  0  0  0  0  0  0
  1  5  1  0
  5  6  1  0
  5  7  2  0
  1  2  1  0
  1  3  1  0
  1  4  1  0
  8 12  1  0
 12 15  1  0
  8  9  1  0
  8 10  1  0
  8 11  1  0
 12 13  1  0
 12 14  1  0
 15 16  1  0
 15 17  1  0
 15 18  1  0
M  CHG  1   6  -1
M  END
>  <PDB_ID>  (173) 
pdb1af0

>  <RESIDUE_NAME>  (173) 
ASP   PRO

>  <FRAG_NAME>  (173) 
ACET   PRPA

>  <FRAG_ATOM_NUM>  (173) 
fragi: 7  fragj: 11

>  <atom.prop.CHAIN_ID>  (173) 
A A A A A A A Z Z Z Z Z Z Z Z Z Z Z

>  <atom.prop.IS_HEAVY_ATOM>  (173) 
1 0 0 0 1 1 1 1 0 0 0 1 0 0 1 0 0 0

>  <DIFUSE_FUNC_ATOM>  (173) 
atom 6   atom 7   

>  <FINAL_SINGLE_POINT_ENERGY>  (173) 
0

>  <NONCOV_INTER_ENERGY_QM>  (173) 
0

>  <FF_Energy>  (173) 
7.7

>  <QM_Energy>  (173) 
-0.38

>  <Index>  (173) 
12612

$$$$
ACET-pdb1agq-B-ASP-111:PRPA-pdb1agq-B-ARG-125
     RDKit          3D

 18 16  0  0  0  0  0  0  0  0999 V2000
    0.0311    1.5244    0.0057 C   0  0  0  0  0  0  0  0  0  0  0  0
    0.5951    1.8329   -0.7509 H   0  0  0  0  0  0  0  0  0  0  0  0
    0.4074    1.8310    0.8712 H   0  0  0  0  0  0  0  0  0  0  0  0
   -0.9580    1.9680   -0.1084 H   0  0  0  0  0  0  0  0  0  0  0  0
    0.0000    0.0000    0.0000 C   0  0  0  0  0  0  0  0  0  0  0  0
   -1.0953   -0.5820    0.0000 O   0  0  0  0  0  1  0  0  0  0  0  0
    1.0953   -0.6222   -0.0000 O   0  0  0  0  0  0  0  0  0  0  0  0
   -2.7368   -0.9668    3.0205 C   0  0  0  0  0  0  0  0  0  0  0  0
   -2.6135   -0.4536    2.1723 H   0  0  0  0  0  0  0  0  0  0  0  0
   -2.7022   -0.2761    3.8630 H   0  0  0  0  0  0  0  0  0  0  0  0
   -3.7100   -1.4566    2.9857 H   0  0  0  0  0  0  0  0  0  0  0  0
   -1.6619   -2.0483    3.1962 C   0  0  0  0  0  0  0  0  0  0  0  0
   -1.8252   -2.5041    4.0826 H   0  0  0  0  0  0  0  0  0  0  0  0
   -1.7911   -2.7329    2.4666 H   0  0  0  0  0  0  0  0  0  0  0  0
   -0.2097   -1.6009    3.1622 C   0  0  0  0  0  0  0  0  0  0  0  0
    0.0264   -1.2996    2.2561 H   0  0  0  0  0  0  0  0  0  0  0  0
   -0.0594   -0.9008    3.8368 H   0  0  0  0  0  0  0  0  0  0  0  0
    0.4236   -2.4520    3.4123 H   0  0  0  0  0  0  0  0  0  0  0  0
  1  5  1  0
  5  6  1  0
  5  7  2  0
  1  2  1  0
  1  3  1  0
  1  4  1  0
  8 12  1  0
 12 15  1  0
  8  9  1  0
  8 10  1  0
  8 11  1  0
 12 13  1  0
 12 14  1  0
 15 16  1  0
 15 17  1  0
 15 18  1  0
M  CHG  1   6  -1
M  END
>  <PDB_ID>  (174) 
pdb1agq

>  <RESIDUE_NAME>  (174) 
ASP   ARG

>  <FRAG_NAME>  (174) 
ACET   PRPA

>  <FRAG_ATOM_NUM>  (174) 
fragi: 7  fragj: 11

>  <atom.prop.CHAIN_ID>  (174) 
A A A A A A A Z Z Z Z Z Z Z Z Z Z Z

>  <atom.prop.IS_HEAVY_ATOM>  (174) 
1 0 0 0 1 1 1 1 0 0 0 1 0 0 1 0 0 0

>  <DIFUSE_FUNC_ATOM>  (174) 
atom 6   atom 7   

>  <FINAL_SINGLE_POINT_ENERGY>  (174) 
0

>  <NONCOV_INTER_ENERGY_QM>  (174) 
0

>  <FF_Energy>  (174) 
0.79

>  <QM_Energy>  (174) 
-5.46

>  <Index>  (174) 
12653

$$$$
ACET-pdb2amj-A-ASP-187:PRPA-pdb2amj-A-ARG-190
     RDKit          3D

 18 16  0  0  0  0  0  0  0  0999 V2000
    0.0016    1.5252    0.0222 C   0  0  0  0  0  0  0  0  0  0  0  0
   -0.8119    1.8488   -0.4413 H   0  0  0  0  0  0  0  0  0  0  0  0
    0.8205    1.8468   -0.4323 H   0  0  0  0  0  0  0  0  0  0  0  0
   -0.0041    1.9244    1.0365 H   0  0  0  0  0  0  0  0  0  0  0  0
    0.0000    0.0000    0.0000 C   0  0  0  0  0  0  0  0  0  0  0  0
   -1.0965   -0.6017    0.0000 O   0  0  0  0  0  1  0  0  0  0  0  0
    1.0965   -0.6000    0.0000 O   0  0  0  0  0  0  0  0  0  0  0  0
    3.5145    0.9745   -1.0148 C   0  0  0  0  0  0  0  0  0  0  0  0
    3.3289    0.2275   -0.4003 H   0  0  0  0  0  0  0  0  0  0  0  0
    2.8753    1.7151   -0.8965 H   0  0  0  0  0  0  0  0  0  0  0  0
    4.5195    1.3469   -0.8163 H   0  0  0  0  0  0  0  0  0  0  0  0
    3.3737    0.4536   -2.4479 C   0  0  0  0  0  0  0  0  0  0  0  0
    3.4134    1.2254   -3.0837 H   0  0  0  0  0  0  0  0  0  0  0  0
    4.1257   -0.1764   -2.6432 H   0  0  0  0  0  0  0  0  0  0  0  0
    2.0623   -0.2874   -2.6820 C   0  0  0  0  0  0  0  0  0  0  0  0
    2.2134   -0.9576   -3.4091 H   0  0  0  0  0  0  0  0  0  0  0  0
    1.8227   -0.7621   -1.8349 H   0  0  0  0  0  0  0  0  0  0  0  0
    1.2454    0.3757   -2.9667 H   0  0  0  0  0  0  0  0  0  0  0  0
  1  5  1  0
  5  6  1  0
  5  7  2  0
  1  2  1  0
  1  3  1  0
  1  4  1  0
  8 12  1  0
 12 15  1  0
  8  9  1  0
  8 10  1  0
  8 11  1  0
 12 13  1  0
 12 14  1  0
 15 16  1  0
 15 17  1  0
 15 18  1  0
M  CHG  1   6  -1
M  END
>  <PDB_ID>  (175) 
pdb2amj

>  <RESIDUE_NAME>  (175) 
ASP   ARG

>  <FRAG_NAME>  (175) 
ACET   PRPA

>  <FRAG_ATOM_NUM>  (175) 
fragi: 7  fragj: 11

>  <atom.prop.CHAIN_ID>  (175) 
A A A A A A A Z Z Z Z Z Z Z Z Z Z Z

>  <atom.prop.IS_HEAVY_ATOM>  (175) 
1 0 0 0 1 1 1 1 0 0 0 1 0 0 1 0 0 0

>  <DIFUSE_FUNC_ATOM>  (175) 
atom 6   atom 7   

>  <FINAL_SINGLE_POINT_ENERGY>  (175) 
0

>  <NONCOV_INTER_ENERGY_QM>  (175) 
0

>  <FF_Energy>  (175) 
14.92

>  <QM_Energy>  (175) 
-1.15

>  <Index>  (175) 
12662

$$$$
ACET-pdb1akq-A-GLU-32:PRPA-pdb1akq-A-LYS-3
     RDKit          3D

 18 16  0  0  0  0  0  0  0  0999 V2000
   -0.0144    1.5261    0.0016 C   0  0  0  0  0  0  0  0  0  0  0  0
    0.8004    1.8249    0.4495 H   0  0  0  0  0  0  0  0  0  0  0  0
   -0.8318    1.8090    0.4569 H   0  0  0  0  0  0  0  0  0  0  0  0
   -0.0221    1.9271   -1.0120 H   0  0  0  0  0  0  0  0  0  0  0  0
    0.0000    0.0000    0.0000 C   0  0  0  0  0  0  0  0  0  0  0  0
   -1.1164   -0.5633    0.0000 O   0  0  0  0  0  1  0  0  0  0  0  0
    1.1164   -0.5692   -0.0000 O   0  0  0  0  0  0  0  0  0  0  0  0
   -3.4494    2.4949    0.9458 C   0  0  0  0  0  0  0  0  0  0  0  0
   -3.7131    3.2664    0.3567 H   0  0  0  0  0  0  0  0  0  0  0  0
   -2.6398    2.0513    0.5479 H   0  0  0  0  0  0  0  0  0  0  0  0
   -3.2031    2.8694    1.9394 H   0  0  0  0  0  0  0  0  0  0  0  0
   -4.5932    1.4887    0.9658 C   0  0  0  0  0  0  0  0  0  0  0  0
   -4.2723    0.6435    1.3561 H   0  0  0  0  0  0  0  0  0  0  0  0
   -5.3480    1.8665    1.4720 H   0  0  0  0  0  0  0  0  0  0  0  0
   -5.0568    1.2173   -0.4675 C   0  0  0  0  0  0  0  0  0  0  0  0
   -5.8472    0.6116   -0.4413 H   0  0  0  0  0  0  0  0  0  0  0  0
   -5.3047    2.0827   -0.8960 H   0  0  0  0  0  0  0  0  0  0  0  0
   -4.2619    0.7453   -1.0450 H   0  0  0  0  0  0  0  0  0  0  0  0
  1  5  1  0
  5  6  1  0
  5  7  2  0
  1  2  1  0
  1  3  1  0
  1  4  1  0
  8 12  1  0
 12 15  1  0
  8  9  1  0
  8 10  1  0
  8 11  1  0
 12 13  1  0
 12 14  1  0
 15 16  1  0
 15 17  1  0
 15 18  1  0
M  CHG  1   6  -1
M  END
>  <PDB_ID>  (176) 
pdb1akq

>  <RESIDUE_NAME>  (176) 
GLU   LYS

>  <FRAG_NAME>  (176) 
ACET   PRPA

>  <FRAG_ATOM_NUM>  (176) 
fragi: 7  fragj: 11

>  <atom.prop.CHAIN_ID>  (176) 
A A A A A A A Z Z Z Z Z Z Z Z Z Z Z

>  <atom.prop.IS_HEAVY_ATOM>  (176) 
1 0 0 0 1 1 1 1 0 0 0 1 0 0 1 0 0 0

>  <DIFUSE_FUNC_ATOM>  (176) 
atom 6   atom 7   

>  <FINAL_SINGLE_POINT_ENERGY>  (176) 
0

>  <NONCOV_INTER_ENERGY_QM>  (176) 
0

>  <FF_Energy>  (176) 
3.7

>  <QM_Energy>  (176) 
-1.79

>  <Index>  (176) 
12880

$$$$
ACET-pdb2ars-A-ASP-58:PRPA-pdb2ars-A-LYS-178
     RDKit          3D

 18 16  0  0  0  0  0  0  0  0999 V2000
    0.0065    1.5166    0.0032 C   0  0  0  0  0  0  0  0  0  0  0  0
    0.9431    1.8319   -0.0982 H   0  0  0  0  0  0  0  0  0  0  0  0
   -0.3781    1.8365    0.8604 H   0  0  0  0  0  0  0  0  0  0  0  0
   -0.5823    1.9404   -0.8103 H   0  0  0  0  0  0  0  0  0  0  0  0
    0.0000    0.0000    0.0000 C   0  0  0  0  0  0  0  0  0  0  0  0
   -1.0986   -0.5954    0.0000 O   0  0  0  0  0  1  0  0  0  0  0  0
    1.0986   -0.5942   -0.0000 O   0  0  0  0  0  0  0  0  0  0  0  0
    3.2905    4.7039   -0.9463 C   0  0  0  0  0  0  0  0  0  0  0  0
    3.8116    4.1529   -0.2998 H   0  0  0  0  0  0  0  0  0  0  0  0
    2.3914    4.9128   -0.5715 H   0  0  0  0  0  0  0  0  0  0  0  0
    3.8254    5.6342   -1.1377 H   0  0  0  0  0  0  0  0  0  0  0  0
    3.1150    3.9131   -2.2365 C   0  0  0  0  0  0  0  0  0  0  0  0
    2.4900    4.4069   -2.8330 H   0  0  0  0  0  0  0  0  0  0  0  0
    4.0022    3.8110   -2.6749 H   0  0  0  0  0  0  0  0  0  0  0  0
    2.5428    2.5284   -1.9728 C   0  0  0  0  0  0  0  0  0  0  0  0
    3.1383    2.0489   -1.3202 H   0  0  0  0  0  0  0  0  0  0  0  0
    1.6310    2.6257   -1.5614 H   0  0  0  0  0  0  0  0  0  0  0  0
    2.4609    1.9342   -2.8829 H   0  0  0  0  0  0  0  0  0  0  0  0
  1  5  1  0
  5  6  1  0
  5  7  2  0
  1  2  1  0
  1  3  1  0
  1  4  1  0
  8 12  1  0
 12 15  1  0
  8  9  1  0
  8 10  1  0
  8 11  1  0
 12 13  1  0
 12 14  1  0
 15 16  1  0
 15 17  1  0
 15 18  1  0
M  CHG  1   6  -1
M  END
>  <PDB_ID>  (177) 
pdb2ars

>  <RESIDUE_NAME>  (177) 
ASP   LYS

>  <FRAG_NAME>  (177) 
ACET   PRPA

>  <FRAG_ATOM_NUM>  (177) 
fragi: 7  fragj: 11

>  <atom.prop.CHAIN_ID>  (177) 
A A A A A A A Z Z Z Z Z Z Z Z Z Z Z

>  <atom.prop.IS_HEAVY_ATOM>  (177) 
1 0 0 0 1 1 1 1 0 0 0 1 0 0 1 0 0 0

>  <DIFUSE_FUNC_ATOM>  (177) 
atom 6   atom 7   

>  <FINAL_SINGLE_POINT_ENERGY>  (177) 
0

>  <NONCOV_INTER_ENERGY_QM>  (177) 
0

>  <FF_Energy>  (177) 
5.92

>  <QM_Energy>  (177) 
0.73

>  <Index>  (177) 
13158

$$$$
ACET-pdb2aqr-A-GLU-57:PRPA-pdb2aqr-A-LEU-149
     RDKit          3D

 18 16  0  0  0  0  0  0  0  0999 V2000
   -0.0066    1.5217    0.0158 C   0  0  0  0  0  0  0  0  0  0  0  0
    0.8575    1.8223   -0.3365 H   0  0  0  0  0  0  0  0  0  0  0  0
   -0.1548    1.8039    0.9432 H   0  0  0  0  0  0  0  0  0  0  0  0
   -0.7991    1.9367   -0.6069 H   0  0  0  0  0  0  0  0  0  0  0  0
    0.0000    0.0000    0.0000 C   0  0  0  0  0  0  0  0  0  0  0  0
   -1.0971   -0.5992    0.0000 O   0  0  0  0  0  1  0  0  0  0  0  0
    1.0971   -0.5976   -0.0000 O   0  0  0  0  0  0  0  0  0  0  0  0
    3.0848    0.8415    2.8364 C   0  0  0  0  0  0  0  0  0  0  0  0
    2.6974   -0.0868    2.8392 H   0  0  0  0  0  0  0  0  0  0  0  0
    3.5259    1.0089    3.7225 H   0  0  0  0  0  0  0  0  0  0  0  0
    3.8601    0.8725    2.0708 H   0  0  0  0  0  0  0  0  0  0  0  0
    1.9174    1.8181    2.7191 C   0  0  0  0  0  0  0  0  0  0  0  0
    1.4540    1.6681    1.8529 H   0  0  0  0  0  0  0  0  0  0  0  0
    2.2842    2.8443    2.7423 H   0  0  0  0  0  0  0  0  0  0  0  0
    0.9522    1.5685    3.8632 C   0  0  0  0  0  0  0  0  0  0  0  0
    1.4225    1.7076    4.7363 H   0  0  0  0  0  0  0  0  0  0  0  0
    0.1809    2.2038    3.7971 H   0  0  0  0  0  0  0  0  0  0  0  0
    0.6116    0.6283    3.8165 H   0  0  0  0  0  0  0  0  0  0  0  0
  1  5  1  0
  5  6  1  0
  5  7  2  0
  1  2  1  0
  1  3  1  0
  1  4  1  0
  8 12  1  0
 12 15  1  0
  8  9  1  0
  8 10  1  0
  8 11  1  0
 12 13  1  0
 12 14  1  0
 15 16  1  0
 15 17  1  0
 15 18  1  0
M  CHG  1   6  -1
M  END
>  <PDB_ID>  (178) 
pdb2aqr

>  <RESIDUE_NAME>  (178) 
GLU   LEU

>  <FRAG_NAME>  (178) 
ACET   PRPA

>  <FRAG_ATOM_NUM>  (178) 
fragi: 7  fragj: 11

>  <atom.prop.CHAIN_ID>  (178) 
A A A A A A A Z Z Z Z Z Z Z Z Z Z Z

>  <atom.prop.IS_HEAVY_ATOM>  (178) 
1 0 0 0 1 1 1 1 0 0 0 1 0 0 1 0 0 0

>  <DIFUSE_FUNC_ATOM>  (178) 
atom 6   atom 7   

>  <FINAL_SINGLE_POINT_ENERGY>  (178) 
0

>  <NONCOV_INTER_ENERGY_QM>  (178) 
0

>  <FF_Energy>  (178) 
6.42

>  <QM_Energy>  (178) 
-1.45

>  <Index>  (178) 
13197

$$$$
ACET-pdb2aqr-A-GLU-57:PRPA-pdb2aqr-A-LEU-149
     RDKit          3D

 18 16  0  0  0  0  0  0  0  0999 V2000
   -0.0066    1.5217    0.0158 C   0  0  0  0  0  0  0  0  0  0  0  0
    0.8575    1.8223   -0.3365 H   0  0  0  0  0  0  0  0  0  0  0  0
   -0.1548    1.8039    0.9432 H   0  0  0  0  0  0  0  0  0  0  0  0
   -0.7991    1.9367   -0.6069 H   0  0  0  0  0  0  0  0  0  0  0  0
    0.0000    0.0000    0.0000 C   0  0  0  0  0  0  0  0  0  0  0  0
   -1.0971   -0.5992    0.0000 O   0  0  0  0  0  1  0  0  0  0  0  0
    1.0971   -0.5976   -0.0000 O   0  0  0  0  0  0  0  0  0  0  0  0
    3.0848    0.8415    2.8364 C   0  0  0  0  0  0  0  0  0  0  0  0
    2.6974   -0.0868    2.8392 H   0  0  0  0  0  0  0  0  0  0  0  0
    3.5259    1.0089    3.7225 H   0  0  0  0  0  0  0  0  0  0  0  0
    3.8601    0.8725    2.0708 H   0  0  0  0  0  0  0  0  0  0  0  0
    1.9174    1.8181    2.7191 C   0  0  0  0  0  0  0  0  0  0  0  0
    1.4540    1.6681    1.8529 H   0  0  0  0  0  0  0  0  0  0  0  0
    1.2241    1.6389    3.5409 H   0  0  0  0  0  0  0  0  0  0  0  0
    2.4313    3.2556    2.7516 C   0  0  0  0  0  0  0  0  0  0  0  0
    3.0597    3.4012    1.9882 H   0  0  0  0  0  0  0  0  0  0  0  0
    1.6588    3.8864    2.6743 H   0  0  0  0  0  0  0  0  0  0  0  0
    2.9105    3.4174    3.6143 H   0  0  0  0  0  0  0  0  0  0  0  0
  1  5  1  0
  5  6  1  0
  5  7  2  0
  1  2  1  0
  1  3  1  0
  1  4  1  0
  8 12  1  0
 12 15  1  0
  8  9  1  0
  8 10  1  0
  8 11  1  0
 12 13  1  0
 12 14  1  0
 15 16  1  0
 15 17  1  0
 15 18  1  0
M  CHG  1   6  -1
M  END
>  <PDB_ID>  (179) 
pdb2aqr

>  <RESIDUE_NAME>  (179) 
GLU   LEU

>  <FRAG_NAME>  (179) 
ACET   PRPA

>  <FRAG_ATOM_NUM>  (179) 
fragi: 7  fragj: 11

>  <atom.prop.CHAIN_ID>  (179) 
A A A A A A A Z Z Z Z Z Z Z Z Z Z Z

>  <atom.prop.IS_HEAVY_ATOM>  (179) 
1 0 0 0 1 1 1 1 0 0 0 1 0 0 1 0 0 0

>  <DIFUSE_FUNC_ATOM>  (179) 
atom 6   atom 7   

>  <FINAL_SINGLE_POINT_ENERGY>  (179) 
0

>  <NONCOV_INTER_ENERGY_QM>  (179) 
0

>  <FF_Energy>  (179) 
3.49

>  <QM_Energy>  (179) 
-1.06

>  <Index>  (179) 
13204

$$$$
ACET-pdb2aqr-A-GLU-57:PRPA-pdb2aqr-A-LEU-149
     RDKit          3D

 18 16  0  0  0  0  0  0  0  0999 V2000
   -0.0066    1.5217    0.0158 C   0  0  0  0  0  0  0  0  0  0  0  0
    0.8575    1.8223   -0.3365 H   0  0  0  0  0  0  0  0  0  0  0  0
   -0.1548    1.8039    0.9432 H   0  0  0  0  0  0  0  0  0  0  0  0
   -0.7991    1.9367   -0.6069 H   0  0  0  0  0  0  0  0  0  0  0  0
    0.0000    0.0000    0.0000 C   0  0  0  0  0  0  0  0  0  0  0  0
   -1.0971   -0.5992    0.0000 O   0  0  0  0  0  1  0  0  0  0  0  0
    1.0971   -0.5976   -0.0000 O   0  0  0  0  0  0  0  0  0  0  0  0
    0.9522    1.5685    3.8632 C   0  0  0  0  0  0  0  0  0  0  0  0
    1.4225    1.7076    4.7363 H   0  0  0  0  0  0  0  0  0  0  0  0
    0.1809    2.2038    3.7971 H   0  0  0  0  0  0  0  0  0  0  0  0
    0.6116    0.6283    3.8165 H   0  0  0  0  0  0  0  0  0  0  0  0
    1.9174    1.8181    2.7191 C   0  0  0  0  0  0  0  0  0  0  0  0
    1.4540    1.6681    1.8529 H   0  0  0  0  0  0  0  0  0  0  0  0
    2.7510    1.1208    2.8029 H   0  0  0  0  0  0  0  0  0  0  0  0
    2.4313    3.2556    2.7516 C   0  0  0  0  0  0  0  0  0  0  0  0
    3.0597    3.4012    1.9882 H   0  0  0  0  0  0  0  0  0  0  0  0
    1.6588    3.8864    2.6743 H   0  0  0  0  0  0  0  0  0  0  0  0
    2.9105    3.4174    3.6143 H   0  0  0  0  0  0  0  0  0  0  0  0
  1  5  1  0
  5  6  1  0
  5  7  2  0
  1  2  1  0
  1  3  1  0
  1  4  1  0
  8 12  1  0
 12 15  1  0
  8  9  1  0
  8 10  1  0
  8 11  1  0
 12 13  1  0
 12 14  1  0
 15 16  1  0
 15 17  1  0
 15 18  1  0
M  CHG  1   6  -1
M  END
>  <PDB_ID>  (180) 
pdb2aqr

>  <RESIDUE_NAME>  (180) 
GLU   LEU

>  <FRAG_NAME>  (180) 
ACET   PRPA

>  <FRAG_ATOM_NUM>  (180) 
fragi: 7  fragj: 11

>  <atom.prop.CHAIN_ID>  (180) 
A A A A A A A Z Z Z Z Z Z Z Z Z Z Z

>  <atom.prop.IS_HEAVY_ATOM>  (180) 
1 0 0 0 1 1 1 1 0 0 0 1 0 0 1 0 0 0

>  <DIFUSE_FUNC_ATOM>  (180) 
atom 6   atom 7   

>  <FINAL_SINGLE_POINT_ENERGY>  (180) 
0

>  <NONCOV_INTER_ENERGY_QM>  (180) 
0

>  <FF_Energy>  (180) 
5.32

>  <QM_Energy>  (180) 
-0.82

>  <Index>  (180) 
13211

$$$$
ACET-pdb1aiq-A-GLU-6:PRPA-pdb1aiq-A-LYS-2
     RDKit          3D

 18 16  0  0  0  0  0  0  0  0999 V2000
    0.0073    1.5214   -0.0159 C   0  0  0  0  0  0  0  0  0  0  0  0
    0.3790    1.8104   -0.8792 H   0  0  0  0  0  0  0  0  0  0  0  0
    0.5536    1.8264    0.7435 H   0  0  0  0  0  0  0  0  0  0  0  0
   -0.9839    1.9635    0.0853 H   0  0  0  0  0  0  0  0  0  0  0  0
    0.0000    0.0000    0.0000 C   0  0  0  0  0  0  0  0  0  0  0  0
   -1.0972   -0.5959    0.0000 O   0  0  0  0  0  1  0  0  0  0  0  0
    1.0972   -0.5970   -0.0000 O   0  0  0  0  0  0  0  0  0  0  0  0
    0.2763   -1.7945    4.4202 C   0  0  0  0  0  0  0  0  0  0  0  0
    1.2270   -1.8966    4.6973 H   0  0  0  0  0  0  0  0  0  0  0  0
   -0.2803   -2.5058    4.8405 H   0  0  0  0  0  0  0  0  0  0  0  0
   -0.0819   -0.8268    4.7713 H   0  0  0  0  0  0  0  0  0  0  0  0
    0.2008   -1.9621    2.9034 C   0  0  0  0  0  0  0  0  0  0  0  0
   -0.3781   -2.7508    2.6929 H   0  0  0  0  0  0  0  0  0  0  0  0
   -0.2042   -1.1383    2.5053 H   0  0  0  0  0  0  0  0  0  0  0  0
    1.5771   -2.1836    2.2856 C   0  0  0  0  0  0  0  0  0  0  0  0
    1.9354   -3.0566    2.6007 H   0  0  0  0  0  0  0  0  0  0  0  0
    1.4906   -2.1813    1.2950 H   0  0  0  0  0  0  0  0  0  0  0  0
    2.2792   -1.4003    2.5712 H   0  0  0  0  0  0  0  0  0  0  0  0
  1  5  1  0
  5  6  1  0
  5  7  2  0
  1  2  1  0
  1  3  1  0
  1  4  1  0
  8 12  1  0
 12 15  1  0
  8  9  1  0
  8 10  1  0
  8 11  1  0
 12 13  1  0
 12 14  1  0
 15 16  1  0
 15 17  1  0
 15 18  1  0
M  CHG  1   6  -1
M  END
>  <PDB_ID>  (181) 
pdb1aiq

>  <RESIDUE_NAME>  (181) 
GLU   LYS

>  <FRAG_NAME>  (181) 
ACET   PRPA

>  <FRAG_ATOM_NUM>  (181) 
fragi: 7  fragj: 11

>  <atom.prop.CHAIN_ID>  (181) 
A A A A A A A Z Z Z Z Z Z Z Z Z Z Z

>  <atom.prop.IS_HEAVY_ATOM>  (181) 
1 0 0 0 1 1 1 1 0 0 0 1 0 0 1 0 0 0

>  <DIFUSE_FUNC_ATOM>  (181) 
atom 6   atom 7   

>  <FINAL_SINGLE_POINT_ENERGY>  (181) 
0

>  <NONCOV_INTER_ENERGY_QM>  (181) 
0

>  <FF_Energy>  (181) 
5.7

>  <QM_Energy>  (181) 
-2.4

>  <Index>  (181) 
13249

$$$$
ACET-pdb1aiq-A-GLU-6:PRPA-pdb1aiq-A-LYS-2
     RDKit          3D

 18 16  0  0  0  0  0  0  0  0999 V2000
    0.0073    1.5214   -0.0159 C   0  0  0  0  0  0  0  0  0  0  0  0
    0.3790    1.8104   -0.8792 H   0  0  0  0  0  0  0  0  0  0  0  0
    0.5536    1.8264    0.7435 H   0  0  0  0  0  0  0  0  0  0  0  0
   -0.9839    1.9635    0.0853 H   0  0  0  0  0  0  0  0  0  0  0  0
    0.0000    0.0000    0.0000 C   0  0  0  0  0  0  0  0  0  0  0  0
   -1.0972   -0.5959    0.0000 O   0  0  0  0  0  1  0  0  0  0  0  0
    1.0972   -0.5970   -0.0000 O   0  0  0  0  0  0  0  0  0  0  0  0
    0.2008   -1.9621    2.9034 C   0  0  0  0  0  0  0  0  0  0  0  0
   -0.3781   -2.7508    2.6929 H   0  0  0  0  0  0  0  0  0  0  0  0
   -0.2042   -1.1383    2.5053 H   0  0  0  0  0  0  0  0  0  0  0  0
    0.2547   -1.8425    3.9855 H   0  0  0  0  0  0  0  0  0  0  0  0
    1.5771   -2.1836    2.2856 C   0  0  0  0  0  0  0  0  0  0  0  0
    1.9354   -3.0566    2.6007 H   0  0  0  0  0  0  0  0  0  0  0  0
    1.4906   -2.1813    1.2950 H   0  0  0  0  0  0  0  0  0  0  0  0
    2.5626   -1.0843    2.6864 C   0  0  0  0  0  0  0  0  0  0  0  0
    2.7976   -1.2012    3.6578 H   0  0  0  0  0  0  0  0  0  0  0  0
    3.4020   -1.1898    2.1415 H   0  0  0  0  0  0  0  0  0  0  0  0
    2.1611   -0.0824    2.5342 H   0  0  0  0  0  0  0  0  0  0  0  0
  1  5  1  0
  5  6  1  0
  5  7  2  0
  1  2  1  0
  1  3  1  0
  1  4  1  0
  8 12  1  0
 12 15  1  0
  8  9  1  0
  8 10  1  0
  8 11  1  0
 12 13  1  0
 12 14  1  0
 15 16  1  0
 15 17  1  0
 15 18  1  0
M  CHG  1   6  -1
M  END
>  <PDB_ID>  (182) 
pdb1aiq

>  <RESIDUE_NAME>  (182) 
GLU   LYS

>  <FRAG_NAME>  (182) 
ACET   PRPA

>  <FRAG_ATOM_NUM>  (182) 
fragi: 7  fragj: 11

>  <atom.prop.CHAIN_ID>  (182) 
A A A A A A A Z Z Z Z Z Z Z Z Z Z Z

>  <atom.prop.IS_HEAVY_ATOM>  (182) 
1 0 0 0 1 1 1 1 0 0 0 1 0 0 1 0 0 0

>  <DIFUSE_FUNC_ATOM>  (182) 
atom 6   atom 7   

>  <FINAL_SINGLE_POINT_ENERGY>  (182) 
0

>  <NONCOV_INTER_ENERGY_QM>  (182) 
0

>  <FF_Energy>  (182) 
8.15

>  <QM_Energy>  (182) 
-3.55

>  <Index>  (182) 
13259

$$$$
ACET-pdb1ag1-O-GLU-133:PRPA-pdb1ag1-O-GLU-129
     RDKit          3D

 18 16  0  0  0  0  0  0  0  0999 V2000
   -0.2102    1.4786    0.0190 C   0  0  0  0  0  0  0  0  0  0  0  0
    0.6706    1.9172    0.0716 H   0  0  0  0  0  0  0  0  0  0  0  0
   -0.7772    1.7009    0.7937 H   0  0  0  0  0  0  0  0  0  0  0  0
   -0.7104    1.8499   -0.8754 H   0  0  0  0  0  0  0  0  0  0  0  0
    0.0000    0.0000    0.0000 C   0  0  0  0  0  0  0  0  0  0  0  0
   -1.1008   -0.6972   -0.0000 O   0  0  0  0  0  1  0  0  0  0  0  0
    1.1008   -0.5003    0.0000 O   0  0  0  0  0  0  0  0  0  0  0  0
   -3.7312   -1.9448   -1.1135 C   0  0  0  0  0  0  0  0  0  0  0  0
   -2.8047   -2.1864   -0.8004 H   0  0  0  0  0  0  0  0  0  0  0  0
   -4.2479   -2.8410   -1.4570 H   0  0  0  0  0  0  0  0  0  0  0  0
   -4.2767   -1.4676   -0.2993 H   0  0  0  0  0  0  0  0  0  0  0  0
   -3.4360   -0.9596   -2.2603 C   0  0  0  0  0  0  0  0  0  0  0  0
   -2.6322   -0.4462   -2.0161 H   0  0  0  0  0  0  0  0  0  0  0  0
   -3.3038   -1.4844   -3.0817 H   0  0  0  0  0  0  0  0  0  0  0  0
   -4.5592    0.0610   -2.5469 C   0  0  0  0  0  0  0  0  0  0  0  0
   -4.8793    0.3992   -1.6816 H   0  0  0  0  0  0  0  0  0  0  0  0
   -4.1792    0.7721   -3.1083 H   0  0  0  0  0  0  0  0  0  0  0  0
   -5.4067   -0.3734   -3.0772 H   0  0  0  0  0  0  0  0  0  0  0  0
  1  5  1  0
  5  6  1  0
  5  7  2  0
  1  2  1  0
  1  3  1  0
  1  4  1  0
  8 12  1  0
 12 15  1  0
  8  9  1  0
  8 10  1  0
  8 11  1  0
 12 13  1  0
 12 14  1  0
 15 16  1  0
 15 17  1  0
 15 18  1  0
M  CHG  1   6  -1
M  END
>  <PDB_ID>  (183) 
pdb1ag1

>  <RESIDUE_NAME>  (183) 
GLU   GLU

>  <FRAG_NAME>  (183) 
ACET   PRPA

>  <FRAG_ATOM_NUM>  (183) 
fragi: 7  fragj: 11

>  <atom.prop.CHAIN_ID>  (183) 
A A A A A A A Z Z Z Z Z Z Z Z Z Z Z

>  <atom.prop.IS_HEAVY_ATOM>  (183) 
1 0 0 0 1 1 1 1 0 0 0 1 0 0 1 0 0 0

>  <DIFUSE_FUNC_ATOM>  (183) 
atom 6   atom 7   

>  <FINAL_SINGLE_POINT_ENERGY>  (183) 
0

>  <NONCOV_INTER_ENERGY_QM>  (183) 
0

>  <FF_Energy>  (183) 
0.22

>  <QM_Energy>  (183) 
-5.34

>  <Index>  (183) 
13363

$$$$
ACET-pdb2ap6-A-GLU-25:PRPA-pdb2ap6-A-LYS-82
     RDKit          3D

 18 16  0  0  0  0  0  0  0  0999 V2000
    0.0167    1.5058    0.0011 C   0  0  0  0  0  0  0  0  0  0  0  0
   -0.5046    1.8118    0.7716 H   0  0  0  0  0  0  0  0  0  0  0  0
   -0.3538    1.8106   -0.8533 H   0  0  0  0  0  0  0  0  0  0  0  0
    1.0295    1.8973    0.0959 H   0  0  0  0  0  0  0  0  0  0  0  0
    0.0000    0.0000    0.0000 C   0  0  0  0  0  0  0  0  0  0  0  0
   -1.1072   -0.5968    0.0000 O   0  0  0  0  0  1  0  0  0  0  0  0
    1.1072   -0.5839   -0.0000 O   0  0  0  0  0  0  0  0  0  0  0  0
    3.2107   -3.3839   -2.7238 C   0  0  0  0  0  0  0  0  0  0  0  0
    2.5960   -4.1341   -2.9679 H   0  0  0  0  0  0  0  0  0  0  0  0
    4.0228   -3.7513   -2.2726 H   0  0  0  0  0  0  0  0  0  0  0  0
    3.5174   -2.8721   -3.6361 H   0  0  0  0  0  0  0  0  0  0  0  0
    2.4945   -2.4443   -1.7720 C   0  0  0  0  0  0  0  0  0  0  0  0
    3.0082   -1.5931   -1.7112 H   0  0  0  0  0  0  0  0  0  0  0  0
    1.5781   -2.2675   -2.1199 H   0  0  0  0  0  0  0  0  0  0  0  0
    2.3784   -3.0400   -0.3823 C   0  0  0  0  0  0  0  0  0  0  0  0
    3.3004   -3.2471   -0.0394 H   0  0  0  0  0  0  0  0  0  0  0  0
    1.9536   -2.3629    0.2276 H   0  0  0  0  0  0  0  0  0  0  0  0
    1.7804   -3.9514   -0.3805 H   0  0  0  0  0  0  0  0  0  0  0  0
  1  5  1  0
  5  6  1  0
  5  7  2  0
  1  2  1  0
  1  3  1  0
  1  4  1  0
  8 12  1  0
 12 15  1  0
  8  9  1  0
  8 10  1  0
  8 11  1  0
 12 13  1  0
 12 14  1  0
 15 16  1  0
 15 17  1  0
 15 18  1  0
M  CHG  1   6  -1
M  END
>  <PDB_ID>  (184) 
pdb2ap6

>  <RESIDUE_NAME>  (184) 
GLU   LYS

>  <FRAG_NAME>  (184) 
ACET   PRPA

>  <FRAG_ATOM_NUM>  (184) 
fragi: 7  fragj: 11

>  <atom.prop.CHAIN_ID>  (184) 
A A A A A A A Z Z Z Z Z Z Z Z Z Z Z

>  <atom.prop.IS_HEAVY_ATOM>  (184) 
1 0 0 0 1 1 1 1 0 0 0 1 0 0 1 0 0 0

>  <DIFUSE_FUNC_ATOM>  (184) 
atom 6   atom 7   

>  <FINAL_SINGLE_POINT_ENERGY>  (184) 
0

>  <NONCOV_INTER_ENERGY_QM>  (184) 
0

>  <FF_Energy>  (184) 
13.99

>  <QM_Energy>  (184) 
-1.72

>  <Index>  (184) 
13438

$$$$
ACET-pdb2a7k-C-GLU-29:PRPA-pdb2a7k-C-ARG-82
     RDKit          3D

 18 16  0  0  0  0  0  0  0  0999 V2000
    0.0003    1.5266    0.0103 C   0  0  0  0  0  0  0  0  0  0  0  0
    0.3557    1.8259   -0.8473 H   0  0  0  0  0  0  0  0  0  0  0  0
    0.5316    1.8142    0.7763 H   0  0  0  0  0  0  0  0  0  0  0  0
   -1.0097    1.9210    0.1215 H   0  0  0  0  0  0  0  0  0  0  0  0
    0.0000    0.0000    0.0000 C   0  0  0  0  0  0  0  0  0  0  0  0
   -1.1021   -0.5978    0.0000 O   0  0  0  0  0  1  0  0  0  0  0  0
    1.1021   -0.5985    0.0000 O   0  0  0  0  0  0  0  0  0  0  0  0
   -1.3999   -3.4276   -2.2551 C   0  0  0  0  0  0  0  0  0  0  0  0
   -0.6922   -4.1273   -2.3313 H   0  0  0  0  0  0  0  0  0  0  0  0
   -0.9949   -2.5711   -1.9428 H   0  0  0  0  0  0  0  0  0  0  0  0
   -1.8393   -3.2670   -3.2395 H   0  0  0  0  0  0  0  0  0  0  0  0
   -2.3927   -3.8839   -1.2001 C   0  0  0  0  0  0  0  0  0  0  0  0
   -3.3005   -3.5801   -1.4663 H   0  0  0  0  0  0  0  0  0  0  0  0
   -2.3606   -4.8759   -1.1431 H   0  0  0  0  0  0  0  0  0  0  0  0
   -2.0258   -3.2995    0.0791 C   0  0  0  0  0  0  0  0  0  0  0  0
   -1.4547   -2.4821   -0.0782 H   0  0  0  0  0  0  0  0  0  0  0  0
   -2.8619   -3.0067    0.5635 H   0  0  0  0  0  0  0  0  0  0  0  0
   -1.4761   -3.9905    0.7183 H   0  0  0  0  0  0  0  0  0  0  0  0
  1  5  1  0
  5  6  1  0
  5  7  2  0
  1  2  1  0
  1  3  1  0
  1  4  1  0
  8 12  1  0
 12 15  1  0
  8  9  1  0
  8 10  1  0
  8 11  1  0
 12 13  1  0
 12 14  1  0
 15 16  1  0
 15 17  1  0
 15 18  1  0
M  CHG  1   6  -1
M  END
>  <PDB_ID>  (185) 
pdb2a7k

>  <RESIDUE_NAME>  (185) 
GLU   ARG

>  <FRAG_NAME>  (185) 
ACET   PRPA

>  <FRAG_ATOM_NUM>  (185) 
fragi: 7  fragj: 11

>  <atom.prop.CHAIN_ID>  (185) 
A A A A A A A Z Z Z Z Z Z Z Z Z Z Z

>  <atom.prop.IS_HEAVY_ATOM>  (185) 
1 0 0 0 1 1 1 1 0 0 0 1 0 0 1 0 0 0

>  <DIFUSE_FUNC_ATOM>  (185) 
atom 6   atom 7   

>  <FINAL_SINGLE_POINT_ENERGY>  (185) 
0

>  <NONCOV_INTER_ENERGY_QM>  (185) 
0

>  <FF_Energy>  (185) 
18.87

>  <QM_Energy>  (185) 
-2.18

>  <Index>  (185) 
13978

$$$$
ACET-pdb1a4y-A-ASP-36:PRPA-pdb1a4y-B-ARG-32
     RDKit          3D

 18 16  0  0  0  0  0  0  0  0999 V2000
    0.0167    1.4838   -0.0025 C   0  0  0  0  0  0  0  0  0  0  0  0
    0.4260    1.8093   -0.8535 H   0  0  0  0  0  0  0  0  0  0  0  0
    0.5516    1.8111    0.7741 H   0  0  0  0  0  0  0  0  0  0  0  0
   -0.9801    1.9182    0.0737 H   0  0  0  0  0  0  0  0  0  0  0  0
    0.0000    0.0000    0.0000 C   0  0  0  0  0  0  0  0  0  0  0  0
   -1.1004   -0.5805    0.0000 O   0  0  0  0  0  1  0  0  0  0  0  0
    1.1004   -0.5825    0.0000 O   0  0  0  0  0  0  0  0  0  0  0  0
    4.6897   -3.3122    2.2867 C   0  0  0  0  0  0  0  0  0  0  0  0
    5.1555   -4.1831    2.1190 H   0  0  0  0  0  0  0  0  0  0  0  0
    4.2245   -3.3537    3.1729 H   0  0  0  0  0  0  0  0  0  0  0  0
    5.4510   -2.5344    2.3463 H   0  0  0  0  0  0  0  0  0  0  0  0
    3.6622   -3.1066    1.2174 C   0  0  0  0  0  0  0  0  0  0  0  0
    3.9602   -2.3871    0.5948 H   0  0  0  0  0  0  0  0  0  0  0  0
    3.5217   -3.9562    0.7144 H   0  0  0  0  0  0  0  0  0  0  0  0
    2.3470   -2.6943    1.8208 C   0  0  0  0  0  0  0  0  0  0  0  0
    2.5061   -2.4087    2.7638 H   0  0  0  0  0  0  0  0  0  0  0  0
    1.9829   -1.9304    1.2924 H   0  0  0  0  0  0  0  0  0  0  0  0
    1.6226   -3.5087    1.8139 H   0  0  0  0  0  0  0  0  0  0  0  0
  1  5  1  0
  5  6  1  0
  5  7  2  0
  1  2  1  0
  1  3  1  0
  1  4  1  0
  8 12  1  0
 12 15  1  0
  8  9  1  0
  8 10  1  0
  8 11  1  0
 12 13  1  0
 12 14  1  0
 15 16  1  0
 15 17  1  0
 15 18  1  0
M  CHG  1   6  -1
M  END
>  <PDB_ID>  (186) 
pdb1a4y

>  <RESIDUE_NAME>  (186) 
ASP   ARG

>  <FRAG_NAME>  (186) 
ACET   PRPA

>  <FRAG_ATOM_NUM>  (186) 
fragi: 7  fragj: 11

>  <atom.prop.CHAIN_ID>  (186) 
A A A A A A A Z Z Z Z Z Z Z Z Z Z Z

>  <atom.prop.IS_HEAVY_ATOM>  (186) 
1 0 0 0 1 1 1 1 0 0 0 1 0 0 1 0 0 0

>  <DIFUSE_FUNC_ATOM>  (186) 
atom 6   atom 7   

>  <FINAL_SINGLE_POINT_ENERGY>  (186) 
0

>  <NONCOV_INTER_ENERGY_QM>  (186) 
0

>  <FF_Energy>  (186) 
6.4

>  <QM_Energy>  (186) 
-2.71

>  <Index>  (186) 
14080

$$$$
ACET-pdb1al8-A-GLU-8:PRPA-pdb1al8-A-ILE-3
     RDKit          3D

 18 16  0  0  0  0  0  0  0  0999 V2000
    0.0210    1.5002   -0.0009 C   0  0  0  0  0  0  0  0  0  0  0  0
    0.5392    1.7958   -0.7868 H   0  0  0  0  0  0  0  0  0  0  0  0
    0.4387    1.7974    0.8425 H   0  0  0  0  0  0  0  0  0  0  0  0
   -0.9728    1.9435   -0.0632 H   0  0  0  0  0  0  0  0  0  0  0  0
    0.0000    0.0000    0.0000 C   0  0  0  0  0  0  0  0  0  0  0  0
   -1.0997   -0.5892   -0.0000 O   0  0  0  0  0  1  0  0  0  0  0  0
    1.0997   -0.5900    0.0000 O   0  0  0  0  0  0  0  0  0  0  0  0
   -3.9941   -1.5929    0.4141 C   0  0  0  0  0  0  0  0  0  0  0  0
   -3.1987   -1.1476   -0.0037 H   0  0  0  0  0  0  0  0  0  0  0  0
   -4.4112   -2.2549   -0.3448 H   0  0  0  0  0  0  0  0  0  0  0  0
   -3.6200   -2.1754    1.2560 H   0  0  0  0  0  0  0  0  0  0  0  0
   -5.0336   -0.5722    0.9366 C   0  0  0  0  0  0  0  0  0  0  0  0
   -5.7546   -1.0808    1.3933 H   0  0  0  0  0  0  0  0  0  0  0  0
   -5.4782   -0.0210    0.1079 H   0  0  0  0  0  0  0  0  0  0  0  0
   -4.3702    0.4043    1.8942 C   0  0  0  0  0  0  0  0  0  0  0  0
   -5.0527    1.0431    2.2471 H   0  0  0  0  0  0  0  0  0  0  0  0
   -3.9618   -0.0979    2.6549 H   0  0  0  0  0  0  0  0  0  0  0  0
   -3.6582    0.9130    1.4126 H   0  0  0  0  0  0  0  0  0  0  0  0
  1  5  1  0
  5  6  1  0
  5  7  2  0
  1  2  1  0
  1  3  1  0
  1  4  1  0
  8 12  1  0
 12 15  1  0
  8  9  1  0
  8 10  1  0
  8 11  1  0
 12 13  1  0
 12 14  1  0
 15 16  1  0
 15 17  1  0
 15 18  1  0
M  CHG  1   6  -1
M  END
>  <PDB_ID>  (187) 
pdb1al8

>  <RESIDUE_NAME>  (187) 
GLU   ILE

>  <FRAG_NAME>  (187) 
ACET   PRPA

>  <FRAG_ATOM_NUM>  (187) 
fragi: 7  fragj: 11

>  <atom.prop.CHAIN_ID>  (187) 
A A A A A A A Z Z Z Z Z Z Z Z Z Z Z

>  <atom.prop.IS_HEAVY_ATOM>  (187) 
1 0 0 0 1 1 1 1 0 0 0 1 0 0 1 0 0 0

>  <DIFUSE_FUNC_ATOM>  (187) 
atom 6   atom 7   

>  <FINAL_SINGLE_POINT_ENERGY>  (187) 
0

>  <NONCOV_INTER_ENERGY_QM>  (187) 
0

>  <FF_Energy>  (187) 
2.68

>  <QM_Energy>  (187) 
-3.31

>  <Index>  (187) 
14218

$$$$
ACET-pdb2as0-A-ASP-37:PRPA-pdb2as0-A-LYS-34
     RDKit          3D

 18 16  0  0  0  0  0  0  0  0999 V2000
    0.0207    1.5138    0.0135 C   0  0  0  0  0  0  0  0  0  0  0  0
    0.5835    1.8343   -0.7427 H   0  0  0  0  0  0  0  0  0  0  0  0
    0.4012    1.8228    0.8789 H   0  0  0  0  0  0  0  0  0  0  0  0
   -0.9685    1.9584   -0.0947 H   0  0  0  0  0  0  0  0  0  0  0  0
    0.0000    0.0000    0.0000 C   0  0  0  0  0  0  0  0  0  0  0  0
   -1.1002   -0.5910    0.0000 O   0  0  0  0  0  1  0  0  0  0  0  0
    1.1002   -0.5981   -0.0000 O   0  0  0  0  0  0  0  0  0  0  0  0
    0.8118   -2.7584   -3.3253 C   0  0  0  0  0  0  0  0  0  0  0  0
    0.3739   -3.1968   -4.1118 H   0  0  0  0  0  0  0  0  0  0  0  0
    1.5217   -3.3645   -2.9625 H   0  0  0  0  0  0  0  0  0  0  0  0
    1.2937   -1.8449   -3.6734 H   0  0  0  0  0  0  0  0  0  0  0  0
   -0.2332   -2.5465   -2.2512 C   0  0  0  0  0  0  0  0  0  0  0  0
    0.1979   -2.1405   -1.4465 H   0  0  0  0  0  0  0  0  0  0  0  0
   -0.9441   -1.9364   -2.5972 H   0  0  0  0  0  0  0  0  0  0  0  0
   -0.8740   -3.8671   -1.8490 C   0  0  0  0  0  0  0  0  0  0  0  0
   -1.3365   -4.2540   -2.6386 H   0  0  0  0  0  0  0  0  0  0  0  0
   -0.1661   -4.4823   -1.5232 H   0  0  0  0  0  0  0  0  0  0  0  0
   -1.6046   -3.7237   -1.0529 H   0  0  0  0  0  0  0  0  0  0  0  0
  1  5  1  0
  5  6  1  0
  5  7  2  0
  1  2  1  0
  1  3  1  0
  1  4  1  0
  8 12  1  0
 12 15  1  0
  8  9  1  0
  8 10  1  0
  8 11  1  0
 12 13  1  0
 12 14  1  0
 15 16  1  0
 15 17  1  0
 15 18  1  0
M  CHG  1   6  -1
M  END
>  <PDB_ID>  (188) 
pdb2as0

>  <RESIDUE_NAME>  (188) 
ASP   LYS

>  <FRAG_NAME>  (188) 
ACET   PRPA

>  <FRAG_ATOM_NUM>  (188) 
fragi: 7  fragj: 11

>  <atom.prop.CHAIN_ID>  (188) 
A A A A A A A Z Z Z Z Z Z Z Z Z Z Z

>  <atom.prop.IS_HEAVY_ATOM>  (188) 
1 0 0 0 1 1 1 1 0 0 0 1 0 0 1 0 0 0

>  <DIFUSE_FUNC_ATOM>  (188) 
atom 6   atom 7   

>  <FINAL_SINGLE_POINT_ENERGY>  (188) 
0

>  <NONCOV_INTER_ENERGY_QM>  (188) 
0

>  <FF_Energy>  (188) 
22.69

>  <QM_Energy>  (188) 
-3.77

>  <Index>  (188) 
14299

$$$$
ACET-pdb2as0-A-ASP-37:PRPA-pdb2as0-A-LYS-34
     RDKit          3D

 18 16  0  0  0  0  0  0  0  0999 V2000
    0.0207    1.5138    0.0135 C   0  0  0  0  0  0  0  0  0  0  0  0
    0.5835    1.8343   -0.7427 H   0  0  0  0  0  0  0  0  0  0  0  0
    0.4012    1.8228    0.8789 H   0  0  0  0  0  0  0  0  0  0  0  0
   -0.9685    1.9584   -0.0947 H   0  0  0  0  0  0  0  0  0  0  0  0
    0.0000    0.0000    0.0000 C   0  0  0  0  0  0  0  0  0  0  0  0
   -1.1002   -0.5910    0.0000 O   0  0  0  0  0  1  0  0  0  0  0  0
    1.1002   -0.5981   -0.0000 O   0  0  0  0  0  0  0  0  0  0  0  0
   -0.2332   -2.5465   -2.2512 C   0  0  0  0  0  0  0  0  0  0  0  0
    0.1979   -2.1405   -1.4465 H   0  0  0  0  0  0  0  0  0  0  0  0
   -0.9441   -1.9364   -2.5972 H   0  0  0  0  0  0  0  0  0  0  0  0
    0.5194   -2.6991   -3.0247 H   0  0  0  0  0  0  0  0  0  0  0  0
   -0.8740   -3.8671   -1.8490 C   0  0  0  0  0  0  0  0  0  0  0  0
   -1.3365   -4.2540   -2.6386 H   0  0  0  0  0  0  0  0  0  0  0  0
   -0.1661   -4.4823   -1.5232 H   0  0  0  0  0  0  0  0  0  0  0  0
   -1.8935   -3.6670   -0.7383 C   0  0  0  0  0  0  0  0  0  0  0  0
   -1.4366   -3.2474    0.0500 H   0  0  0  0  0  0  0  0  0  0  0  0
   -2.6120   -3.0473   -1.0641 H   0  0  0  0  0  0  0  0  0  0  0  0
   -2.3466   -4.6091   -0.4296 H   0  0  0  0  0  0  0  0  0  0  0  0
  1  5  1  0
  5  6  1  0
  5  7  2  0
  1  2  1  0
  1  3  1  0
  1  4  1  0
  8 12  1  0
 12 15  1  0
  8  9  1  0
  8 10  1  0
  8 11  1  0
 12 13  1  0
 12 14  1  0
 15 16  1  0
 15 17  1  0
 15 18  1  0
M  CHG  1   6  -1
M  END
>  <PDB_ID>  (189) 
pdb2as0

>  <RESIDUE_NAME>  (189) 
ASP   LYS

>  <FRAG_NAME>  (189) 
ACET   PRPA

>  <FRAG_ATOM_NUM>  (189) 
fragi: 7  fragj: 11

>  <atom.prop.CHAIN_ID>  (189) 
A A A A A A A Z Z Z Z Z Z Z Z Z Z Z

>  <atom.prop.IS_HEAVY_ATOM>  (189) 
1 0 0 0 1 1 1 1 0 0 0 1 0 0 1 0 0 0

>  <DIFUSE_FUNC_ATOM>  (189) 
atom 6   atom 7   

>  <FINAL_SINGLE_POINT_ENERGY>  (189) 
0

>  <NONCOV_INTER_ENERGY_QM>  (189) 
0

>  <FF_Energy>  (189) 
2.95

>  <QM_Energy>  (189) 
-4.44

>  <Index>  (189) 
14310

$$$$
ACET-pdb1alc-A-ASP-102:PRPA-pdb1alc-A-LYS-108
     RDKit          3D

 18 16  0  0  0  0  0  0  0  0999 V2000
    0.0699    1.5236   -0.0150 C   0  0  0  0  0  0  0  0  0  0  0  0
    0.9905    1.7914   -0.2441 H   0  0  0  0  0  0  0  0  0  0  0  0
   -0.1973    1.8575    0.8723 H   0  0  0  0  0  0  0  0  0  0  0  0
   -0.6095    1.9343   -0.7618 H   0  0  0  0  0  0  0  0  0  0  0  0
    0.0000    0.0000    0.0000 C   0  0  0  0  0  0  0  0  0  0  0  0
   -1.0934   -0.5852   -0.0000 O   0  0  0  0  0  1  0  0  0  0  0  0
    1.0934   -0.6018    0.0000 O   0  0  0  0  0  0  0  0  0  0  0  0
   -3.3726   -0.9782    2.0946 C   0  0  0  0  0  0  0  0  0  0  0  0
   -2.6202   -0.9947    1.4430 H   0  0  0  0  0  0  0  0  0  0  0  0
   -4.2116   -0.6907    1.6436 H   0  0  0  0  0  0  0  0  0  0  0  0
   -3.5156   -1.9857    2.4855 H   0  0  0  0  0  0  0  0  0  0  0  0
   -3.0432    0.0020    3.2156 C   0  0  0  0  0  0  0  0  0  0  0  0
   -3.8187    0.0411    3.8425 H   0  0  0  0  0  0  0  0  0  0  0  0
   -2.2329   -0.3235    3.6973 H   0  0  0  0  0  0  0  0  0  0  0  0
   -2.7701    1.3955    2.6904 C   0  0  0  0  0  0  0  0  0  0  0  0
   -2.0434    1.3482    1.9986 H   0  0  0  0  0  0  0  0  0  0  0  0
   -3.6038    1.7521    2.2586 H   0  0  0  0  0  0  0  0  0  0  0  0
   -2.4619    2.0752    3.4849 H   0  0  0  0  0  0  0  0  0  0  0  0
  1  5  1  0
  5  6  1  0
  5  7  2  0
  1  2  1  0
  1  3  1  0
  1  4  1  0
  8 12  1  0
 12 15  1  0
  8  9  1  0
  8 10  1  0
  8 11  1  0
 12 13  1  0
 12 14  1  0
 15 16  1  0
 15 17  1  0
 15 18  1  0
M  CHG  1   6  -1
M  END
>  <PDB_ID>  (190) 
pdb1alc

>  <RESIDUE_NAME>  (190) 
ASP   LYS

>  <FRAG_NAME>  (190) 
ACET   PRPA

>  <FRAG_ATOM_NUM>  (190) 
fragi: 7  fragj: 11

>  <atom.prop.CHAIN_ID>  (190) 
A A A A A A A Z Z Z Z Z Z Z Z Z Z Z

>  <atom.prop.IS_HEAVY_ATOM>  (190) 
1 0 0 0 1 1 1 1 0 0 0 1 0 0 1 0 0 0

>  <DIFUSE_FUNC_ATOM>  (190) 
atom 6   atom 7   

>  <FINAL_SINGLE_POINT_ENERGY>  (190) 
0

>  <NONCOV_INTER_ENERGY_QM>  (190) 
0

>  <FF_Energy>  (190) 
3.49

>  <QM_Energy>  (190) 
-4.0

>  <Index>  (190) 
14368

$$$$
ACET-pdb2au1-A-GLU-234:PRPA-pdb2au1-A-LYS-230
     RDKit          3D

 18 16  0  0  0  0  0  0  0  0999 V2000
   -0.0044    1.5206   -0.0154 C   0  0  0  0  0  0  0  0  0  0  0  0
   -0.0810    1.8045   -0.9520 H   0  0  0  0  0  0  0  0  0  0  0  0
    0.8310    1.8204    0.4018 H   0  0  0  0  0  0  0  0  0  0  0  0
   -0.8423    1.9376    0.5433 H   0  0  0  0  0  0  0  0  0  0  0  0
    0.0000    0.0000    0.0000 C   0  0  0  0  0  0  0  0  0  0  0  0
   -1.1026   -0.5960    0.0000 O   0  0  0  0  0  1  0  0  0  0  0  0
    1.1026   -0.5945   -0.0000 O   0  0  0  0  0  0  0  0  0  0  0  0
   -1.7126   -2.2430    3.0150 C   0  0  0  0  0  0  0  0  0  0  0  0
   -1.0440   -2.6545    2.4550 H   0  0  0  0  0  0  0  0  0  0  0  0
   -2.1881   -2.9995    3.6392 H   0  0  0  0  0  0  0  0  0  0  0  0
   -1.2133   -1.6671    3.7942 H   0  0  0  0  0  0  0  0  0  0  0  0
   -2.7586   -1.3880    2.3000 C   0  0  0  0  0  0  0  0  0  0  0  0
   -3.3258   -0.9466    2.9903 H   0  0  0  0  0  0  0  0  0  0  0  0
   -2.2816   -0.6991    1.7595 H   0  0  0  0  0  0  0  0  0  0  0  0
   -3.6633   -2.1827    1.3733 C   0  0  0  0  0  0  0  0  0  0  0  0
   -3.1626   -2.9791    1.0305 H   0  0  0  0  0  0  0  0  0  0  0  0
   -4.4667   -2.4926    1.8847 H   0  0  0  0  0  0  0  0  0  0  0  0
   -3.9968   -1.5866    0.5238 H   0  0  0  0  0  0  0  0  0  0  0  0
  1  5  1  0
  5  6  1  0
  5  7  2  0
  1  2  1  0
  1  3  1  0
  1  4  1  0
  8 12  1  0
 12 15  1  0
  8  9  1  0
  8 10  1  0
  8 11  1  0
 12 13  1  0
 12 14  1  0
 15 16  1  0
 15 17  1  0
 15 18  1  0
M  CHG  1   6  -1
M  END
>  <PDB_ID>  (191) 
pdb2au1

>  <RESIDUE_NAME>  (191) 
GLU   LYS

>  <FRAG_NAME>  (191) 
ACET   PRPA

>  <FRAG_ATOM_NUM>  (191) 
fragi: 7  fragj: 11

>  <atom.prop.CHAIN_ID>  (191) 
A A A A A A A Z Z Z Z Z Z Z Z Z Z Z

>  <atom.prop.IS_HEAVY_ATOM>  (191) 
1 0 0 0 1 1 1 1 0 0 0 1 0 0 1 0 0 0

>  <DIFUSE_FUNC_ATOM>  (191) 
atom 6   atom 7   

>  <FINAL_SINGLE_POINT_ENERGY>  (191) 
0

>  <NONCOV_INTER_ENERGY_QM>  (191) 
0

>  <FF_Energy>  (191) 
5.46

>  <QM_Energy>  (191) 
-3.75

>  <Index>  (191) 
14498

$$$$
ACET-pdb1agw-A-ASP-652:PRPA-pdb1agw-A-LYS-655
     RDKit          3D

 18 16  0  0  0  0  0  0  0  0999 V2000
    0.0105    1.5224   -0.0018 C   0  0  0  0  0  0  0  0  0  0  0  0
   -0.3010    1.8406   -0.8891 H   0  0  0  0  0  0  0  0  0  0  0  0
    0.9359    1.8341    0.1769 H   0  0  0  0  0  0  0  0  0  0  0  0
   -0.6432    1.9488    0.7591 H   0  0  0  0  0  0  0  0  0  0  0  0
    0.0000    0.0000    0.0000 C   0  0  0  0  0  0  0  0  0  0  0  0
   -1.0973   -0.6057   -0.0000 O   0  0  0  0  0  1  0  0  0  0  0  0
    1.0973   -0.5916    0.0000 O   0  0  0  0  0  0  0  0  0  0  0  0
    3.4618    0.1633    1.7728 C   0  0  0  0  0  0  0  0  0  0  0  0
    2.6270    0.1014    1.2170 H   0  0  0  0  0  0  0  0  0  0  0  0
    3.3593    0.9219    2.4243 H   0  0  0  0  0  0  0  0  0  0  0  0
    3.5565   -0.7607    2.3432 H   0  0  0  0  0  0  0  0  0  0  0  0
    4.6239    0.4793    0.8530 C   0  0  0  0  0  0  0  0  0  0  0  0
    5.4639    0.4970    1.3817 H   0  0  0  0  0  0  0  0  0  0  0  0
    4.6724   -0.2076    0.1387 H   0  0  0  0  0  0  0  0  0  0  0  0
    4.4077    1.8385    0.2212 C   0  0  0  0  0  0  0  0  0  0  0  0
    3.6055    1.7940   -0.3737 H   0  0  0  0  0  0  0  0  0  0  0  0
    4.2510    2.5102    0.9440 H   0  0  0  0  0  0  0  0  0  0  0  0
    5.2643    2.1585   -0.3721 H   0  0  0  0  0  0  0  0  0  0  0  0
  1  5  1  0
  5  6  1  0
  5  7  2  0
  1  2  1  0
  1  3  1  0
  1  4  1  0
  8 12  1  0
 12 15  1  0
  8  9  1  0
  8 10  1  0
  8 11  1  0
 12 13  1  0
 12 14  1  0
 15 16  1  0
 15 17  1  0
 15 18  1  0
M  CHG  1   6  -1
M  END
>  <PDB_ID>  (192) 
pdb1agw

>  <RESIDUE_NAME>  (192) 
ASP   LYS

>  <FRAG_NAME>  (192) 
ACET   PRPA

>  <FRAG_ATOM_NUM>  (192) 
fragi: 7  fragj: 11

>  <atom.prop.CHAIN_ID>  (192) 
A A A A A A A Z Z Z Z Z Z Z Z Z Z Z

>  <atom.prop.IS_HEAVY_ATOM>  (192) 
1 0 0 0 1 1 1 1 0 0 0 1 0 0 1 0 0 0

>  <DIFUSE_FUNC_ATOM>  (192) 
atom 6   atom 7   

>  <FINAL_SINGLE_POINT_ENERGY>  (192) 
0

>  <NONCOV_INTER_ENERGY_QM>  (192) 
0

>  <FF_Energy>  (192) 
5.84

>  <QM_Energy>  (192) 
-3.24

>  <Index>  (192) 
14529

$$$$
ACET-pdb2ap6-B-GLU-25:PRPA-pdb2ap6-B-LYS-82
     RDKit          3D

 18 16  0  0  0  0  0  0  0  0999 V2000
    0.0203    1.5031   -0.0024 C   0  0  0  0  0  0  0  0  0  0  0  0
   -0.4777    1.8127    0.7848 H   0  0  0  0  0  0  0  0  0  0  0  0
   -0.3805    1.8076   -0.8450 H   0  0  0  0  0  0  0  0  0  0  0  0
    1.0356    1.8949    0.0581 H   0  0  0  0  0  0  0  0  0  0  0  0
    0.0000    0.0000    0.0000 C   0  0  0  0  0  0  0  0  0  0  0  0
   -1.1101   -0.5945   -0.0000 O   0  0  0  0  0  1  0  0  0  0  0  0
    1.1101   -0.5888    0.0000 O   0  0  0  0  0  0  0  0  0  0  0  0
    3.3740   -3.4397   -2.3402 C   0  0  0  0  0  0  0  0  0  0  0  0
    2.8263   -4.2557   -2.5407 H   0  0  0  0  0  0  0  0  0  0  0  0
    4.1907   -3.7111   -1.8264 H   0  0  0  0  0  0  0  0  0  0  0  0
    3.6859   -2.9878   -3.2817 H   0  0  0  0  0  0  0  0  0  0  0  0
    2.5501   -2.4875   -1.4938 C   0  0  0  0  0  0  0  0  0  0  0  0
    3.0028   -1.6037   -1.4577 H   0  0  0  0  0  0  0  0  0  0  0  0
    1.6416   -2.3983   -1.8862 H   0  0  0  0  0  0  0  0  0  0  0  0
    2.3933   -3.0002   -0.0470 C   0  0  0  0  0  0  0  0  0  0  0  0
    3.3138   -3.0830    0.3617 H   0  0  0  0  0  0  0  0  0  0  0  0
    1.8826   -2.3070    0.4817 H   0  0  0  0  0  0  0  0  0  0  0  0
    1.8802   -3.9585    0.0338 H   0  0  0  0  0  0  0  0  0  0  0  0
  1  5  1  0
  5  6  1  0
  5  7  2  0
  1  2  1  0
  1  3  1  0
  1  4  1  0
  8 12  1  0
 12 15  1  0
  8  9  1  0
  8 10  1  0
  8 11  1  0
 12 13  1  0
 12 14  1  0
 15 16  1  0
 15 17  1  0
 15 18  1  0
M  CHG  1   6  -1
M  END
>  <PDB_ID>  (193) 
pdb2ap6

>  <RESIDUE_NAME>  (193) 
GLU   LYS

>  <FRAG_NAME>  (193) 
ACET   PRPA

>  <FRAG_ATOM_NUM>  (193) 
fragi: 7  fragj: 11

>  <atom.prop.CHAIN_ID>  (193) 
A A A A A A A Z Z Z Z Z Z Z Z Z Z Z

>  <atom.prop.IS_HEAVY_ATOM>  (193) 
1 0 0 0 1 1 1 1 0 0 0 1 0 0 1 0 0 0

>  <DIFUSE_FUNC_ATOM>  (193) 
atom 6   atom 7   

>  <FINAL_SINGLE_POINT_ENERGY>  (193) 
0

>  <NONCOV_INTER_ENERGY_QM>  (193) 
0

>  <FF_Energy>  (193) 
19.27

>  <QM_Energy>  (193) 
-0.6

>  <Index>  (193) 
14621

$$$$
ACET-pdb2aka-A-GLU-212:PRPA-pdb2aka-A-GLN-194
     RDKit          3D

 18 16  0  0  0  0  0  0  0  0999 V2000
   -0.0289    1.5245   -0.0186 C   0  0  0  0  0  0  0  0  0  0  0  0
   -0.7670    1.8054    0.5654 H   0  0  0  0  0  0  0  0  0  0  0  0
   -0.1652    1.7978   -0.9525 H   0  0  0  0  0  0  0  0  0  0  0  0
    0.9008    1.9588    0.3488 H   0  0  0  0  0  0  0  0  0  0  0  0
    0.0000    0.0000    0.0000 C   0  0  0  0  0  0  0  0  0  0  0  0
   -1.1039   -0.5761    0.0000 O   0  0  0  0  0  1  0  0  0  0  0  0
    1.1039   -0.6081   -0.0000 O   0  0  0  0  0  0  0  0  0  0  0  0
    0.4572   -2.5725   -3.7139 C   0  0  0  0  0  0  0  0  0  0  0  0
    0.8677   -2.1182   -2.9109 H   0  0  0  0  0  0  0  0  0  0  0  0
    0.3063   -1.8121   -4.4801 H   0  0  0  0  0  0  0  0  0  0  0  0
    1.1400   -3.3540   -4.0471 H   0  0  0  0  0  0  0  0  0  0  0  0
   -0.8939   -3.1691   -3.2893 C   0  0  0  0  0  0  0  0  0  0  0  0
   -1.4072   -3.3954   -4.0885 H   0  0  0  0  0  0  0  0  0  0  0  0
   -0.7339   -3.9323   -2.7003 H   0  0  0  0  0  0  0  0  0  0  0  0
   -1.6590   -2.1053   -2.5067 C   0  0  0  0  0  0  0  0  0  0  0  0
   -1.0514   -1.7250   -1.8099 H   0  0  0  0  0  0  0  0  0  0  0  0
   -1.9358   -1.3826   -3.1399 H   0  0  0  0  0  0  0  0  0  0  0  0
   -2.5484   -2.5003   -2.0158 H   0  0  0  0  0  0  0  0  0  0  0  0
  1  5  1  0
  5  6  1  0
  5  7  2  0
  1  2  1  0
  1  3  1  0
  1  4  1  0
  8 12  1  0
 12 15  1  0
  8  9  1  0
  8 10  1  0
  8 11  1  0
 12 13  1  0
 12 14  1  0
 15 16  1  0
 15 17  1  0
 15 18  1  0
M  CHG  1   6  -1
M  END
>  <PDB_ID>  (194) 
pdb2aka

>  <RESIDUE_NAME>  (194) 
GLU   GLN

>  <FRAG_NAME>  (194) 
ACET   PRPA

>  <FRAG_ATOM_NUM>  (194) 
fragi: 7  fragj: 11

>  <atom.prop.CHAIN_ID>  (194) 
A A A A A A A Z Z Z Z Z Z Z Z Z Z Z

>  <atom.prop.IS_HEAVY_ATOM>  (194) 
1 0 0 0 1 1 1 1 0 0 0 1 0 0 1 0 0 0

>  <DIFUSE_FUNC_ATOM>  (194) 
atom 6   atom 7   

>  <FINAL_SINGLE_POINT_ENERGY>  (194) 
0

>  <NONCOV_INTER_ENERGY_QM>  (194) 
0

>  <FF_Energy>  (194) 
3.96

>  <QM_Energy>  (194) 
-2.91

>  <Index>  (194) 
14634

$$$$
ACET-pdb2as0-A-GLU-40:PRPA-pdb2as0-A-LYS-69
     RDKit          3D

 18 16  0  0  0  0  0  0  0  0999 V2000
    0.0106    1.5069    0.0139 C   0  0  0  0  0  0  0  0  0  0  0  0
    0.9385    1.8010   -0.1417 H   0  0  0  0  0  0  0  0  0  0  0  0
   -0.3228    1.7993    0.8936 H   0  0  0  0  0  0  0  0  0  0  0  0
   -0.6228    1.9434   -0.7583 H   0  0  0  0  0  0  0  0  0  0  0  0
    0.0000    0.0000    0.0000 C   0  0  0  0  0  0  0  0  0  0  0  0
   -1.0993   -0.5918    0.0000 O   0  0  0  0  0  1  0  0  0  0  0  0
    1.0993   -0.5879    0.0000 O   0  0  0  0  0  0  0  0  0  0  0  0
    3.6609   -3.5294   -1.9834 C   0  0  0  0  0  0  0  0  0  0  0  0
    3.1056   -4.2146   -2.4631 H   0  0  0  0  0  0  0  0  0  0  0  0
    4.1843   -3.9852   -1.2590 H   0  0  0  0  0  0  0  0  0  0  0  0
    4.3551   -3.0774   -2.6918 H   0  0  0  0  0  0  0  0  0  0  0  0
    2.7430   -2.5044   -1.3576 C   0  0  0  0  0  0  0  0  0  0  0  0
    3.2365   -2.0134   -0.6512 H   0  0  0  0  0  0  0  0  0  0  0  0
    2.4192   -1.8832   -2.0601 H   0  0  0  0  0  0  0  0  0  0  0  0
    1.5398   -3.1837   -0.7221 C   0  0  0  0  0  0  0  0  0  0  0  0
    1.8608   -3.8909   -0.0911 H   0  0  0  0  0  0  0  0  0  0  0  0
    1.0126   -2.5022   -0.2139 H   0  0  0  0  0  0  0  0  0  0  0  0
    0.9014   -3.6407   -1.4781 H   0  0  0  0  0  0  0  0  0  0  0  0
  1  5  1  0
  5  6  1  0
  5  7  2  0
  1  2  1  0
  1  3  1  0
  1  4  1  0
  8 12  1  0
 12 15  1  0
  8  9  1  0
  8 10  1  0
  8 11  1  0
 12 13  1  0
 12 14  1  0
 15 16  1  0
 15 17  1  0
 15 18  1  0
M  CHG  1   6  -1
M  END
>  <PDB_ID>  (195) 
pdb2as0

>  <RESIDUE_NAME>  (195) 
GLU   LYS

>  <FRAG_NAME>  (195) 
ACET   PRPA

>  <FRAG_ATOM_NUM>  (195) 
fragi: 7  fragj: 11

>  <atom.prop.CHAIN_ID>  (195) 
A A A A A A A Z Z Z Z Z Z Z Z Z Z Z

>  <atom.prop.IS_HEAVY_ATOM>  (195) 
1 0 0 0 1 1 1 1 0 0 0 1 0 0 1 0 0 0

>  <DIFUSE_FUNC_ATOM>  (195) 
atom 6   atom 7   

>  <FINAL_SINGLE_POINT_ENERGY>  (195) 
0

>  <NONCOV_INTER_ENERGY_QM>  (195) 
0

>  <FF_Energy>  (195) 
21.23

>  <QM_Energy>  (195) 
-0.38

>  <Index>  (195) 
14650

$$$$
ACET-pdb2ai0-I-ASP-73:PRPA-pdb2ai0-I-LYS-76
     RDKit          3D

 18 16  0  0  0  0  0  0  0  0999 V2000
    0.0331    1.5370    0.0246 C   0  0  0  0  0  0  0  0  0  0  0  0
    0.7731    1.8417   -0.5619 H   0  0  0  0  0  0  0  0  0  0  0  0
    0.1823    1.8306    0.9598 H   0  0  0  0  0  0  0  0  0  0  0  0
   -0.8919    1.9907   -0.3313 H   0  0  0  0  0  0  0  0  0  0  0  0
    0.0000    0.0000    0.0000 C   0  0  0  0  0  0  0  0  0  0  0  0
   -1.0951   -0.6065   -0.0000 O   0  0  0  0  0  1  0  0  0  0  0  0
    1.0951   -0.6057   -0.0000 O   0  0  0  0  0  0  0  0  0  0  0  0
    0.0463    0.1477    3.5865 C   0  0  0  0  0  0  0  0  0  0  0  0
   -0.0874    0.6547    2.7393 H   0  0  0  0  0  0  0  0  0  0  0  0
    0.5996    0.6822    4.2197 H   0  0  0  0  0  0  0  0  0  0  0  0
   -0.9291   -0.0222    4.0426 H   0  0  0  0  0  0  0  0  0  0  0  0
    0.8159   -1.1407    3.2531 C   0  0  0  0  0  0  0  0  0  0  0  0
    0.6116   -1.8266    3.9527 H   0  0  0  0  0  0  0  0  0  0  0  0
    0.5115   -1.4765    2.3607 H   0  0  0  0  0  0  0  0  0  0  0  0
    2.3298   -0.9188    3.2067 C   0  0  0  0  0  0  0  0  0  0  0  0
    2.7291   -1.5707    2.5750 H   0  0  0  0  0  0  0  0  0  0  0  0
    2.5085    0.0118    2.9136 H   0  0  0  0  0  0  0  0  0  0  0  0
    2.7810   -1.0658    4.1879 H   0  0  0  0  0  0  0  0  0  0  0  0
  1  5  1  0
  5  6  1  0
  5  7  2  0
  1  2  1  0
  1  3  1  0
  1  4  1  0
  8 12  1  0
 12 15  1  0
  8  9  1  0
  8 10  1  0
  8 11  1  0
 12 13  1  0
 12 14  1  0
 15 16  1  0
 15 17  1  0
 15 18  1  0
M  CHG  1   6  -1
M  END
>  <PDB_ID>  (196) 
pdb2ai0

>  <RESIDUE_NAME>  (196) 
ASP   LYS

>  <FRAG_NAME>  (196) 
ACET   PRPA

>  <FRAG_ATOM_NUM>  (196) 
fragi: 7  fragj: 11

>  <atom.prop.CHAIN_ID>  (196) 
A A A A A A A Z Z Z Z Z Z Z Z Z Z Z

>  <atom.prop.IS_HEAVY_ATOM>  (196) 
1 0 0 0 1 1 1 1 0 0 0 1 0 0 1 0 0 0

>  <DIFUSE_FUNC_ATOM>  (196) 
atom 6   atom 7   

>  <FINAL_SINGLE_POINT_ENERGY>  (196) 
0

>  <NONCOV_INTER_ENERGY_QM>  (196) 
0

>  <FF_Energy>  (196) 
2.01

>  <QM_Energy>  (196) 
-5.3

>  <Index>  (196) 
14809

$$$$
ACET-pdb1ala-A-GLU-144:PRPA-pdb1ala-A-ILE-100
     RDKit          3D

 18 16  0  0  0  0  0  0  0  0999 V2000
    0.1731    1.5185   -0.0882 C   0  0  0  0  0  0  0  0  0  0  0  0
    1.0519    1.7231    0.2115 H   0  0  0  0  0  0  0  0  0  0  0  0
   -0.5611    1.9158    0.3680 H   0  0  0  0  0  0  0  0  0  0  0  0
    0.0976    1.7426   -1.1523 H   0  0  0  0  0  0  0  0  0  0  0  0
    0.0000    0.0000    0.0000 C   0  0  0  0  0  0  0  0  0  0  0  0
   -1.1637   -0.4374    0.0000 O   0  0  0  0  0  1  0  0  0  0  0  0
    1.1637   -0.4911    0.0000 O   0  0  0  0  0  0  0  0  0  0  0  0
   -2.6128    0.1338    2.6571 C   0  0  0  0  0  0  0  0  0  0  0  0
   -2.6236    0.1604    1.6418 H   0  0  0  0  0  0  0  0  0  0  0  0
   -3.6469    0.2320    2.9874 H   0  0  0  0  0  0  0  0  0  0  0  0
   -2.1748   -0.8243    2.9368 H   0  0  0  0  0  0  0  0  0  0  0  0
   -1.7246    1.2997    3.2204 C   0  0  0  0  0  0  0  0  0  0  0  0
   -2.0077    1.4688    4.1650 H   0  0  0  0  0  0  0  0  0  0  0  0
   -0.6637    1.0555    3.2751 H   0  0  0  0  0  0  0  0  0  0  0  0
   -1.8810    2.6549    2.4359 C   0  0  0  0  0  0  0  0  0  0  0  0
   -1.5505    2.5434    1.5586 H   0  0  0  0  0  0  0  0  0  0  0  0
   -2.7668    2.9701    2.5453 H   0  0  0  0  0  0  0  0  0  0  0  0
   -1.2157    3.3360    2.9666 H   0  0  0  0  0  0  0  0  0  0  0  0
  1  5  1  0
  5  6  1  0
  5  7  2  0
  1  2  1  0
  1  3  1  0
  1  4  1  0
  8 12  1  0
 12 15  1  0
  8  9  1  0
  8 10  1  0
  8 11  1  0
 12 13  1  0
 12 14  1  0
 15 16  1  0
 15 17  1  0
 15 18  1  0
M  CHG  1   6  -1
M  END
>  <PDB_ID>  (197) 
pdb1ala

>  <RESIDUE_NAME>  (197) 
GLU   ILE

>  <FRAG_NAME>  (197) 
ACET   PRPA

>  <FRAG_ATOM_NUM>  (197) 
fragi: 7  fragj: 11

>  <atom.prop.CHAIN_ID>  (197) 
A A A A A A A Z Z Z Z Z Z Z Z Z Z Z

>  <atom.prop.IS_HEAVY_ATOM>  (197) 
1 0 0 0 1 1 1 1 0 0 0 1 0 0 1 0 0 0

>  <DIFUSE_FUNC_ATOM>  (197) 
atom 6   atom 7   

>  <FINAL_SINGLE_POINT_ENERGY>  (197) 
0

>  <NONCOV_INTER_ENERGY_QM>  (197) 
0

>  <FF_Energy>  (197) 
15.86

>  <QM_Energy>  (197) 
-0.91

>  <Index>  (197) 
15036

$$$$
ACET-pdb1ala-A-GLU-144:PRPA-pdb1ala-A-ILE-100
     RDKit          3D

 18 16  0  0  0  0  0  0  0  0999 V2000
    0.1731    1.5185   -0.0882 C   0  0  0  0  0  0  0  0  0  0  0  0
    1.0519    1.7231    0.2115 H   0  0  0  0  0  0  0  0  0  0  0  0
   -0.5611    1.9158    0.3680 H   0  0  0  0  0  0  0  0  0  0  0  0
    0.0976    1.7426   -1.1523 H   0  0  0  0  0  0  0  0  0  0  0  0
    0.0000    0.0000    0.0000 C   0  0  0  0  0  0  0  0  0  0  0  0
   -1.1637   -0.4374    0.0000 O   0  0  0  0  0  1  0  0  0  0  0  0
    1.1637   -0.4911    0.0000 O   0  0  0  0  0  0  0  0  0  0  0  0
   -2.6128    0.1338    2.6571 C   0  0  0  0  0  0  0  0  0  0  0  0
   -2.6236    0.1604    1.6418 H   0  0  0  0  0  0  0  0  0  0  0  0
   -3.6469    0.2320    2.9874 H   0  0  0  0  0  0  0  0  0  0  0  0
   -2.1748   -0.8243    2.9368 H   0  0  0  0  0  0  0  0  0  0  0  0
   -1.7246    1.2997    3.2204 C   0  0  0  0  0  0  0  0  0  0  0  0
   -2.0077    1.4688    4.1650 H   0  0  0  0  0  0  0  0  0  0  0  0
   -1.8329    2.2384    2.6770 H   0  0  0  0  0  0  0  0  0  0  0  0
   -0.2160    0.9525    3.2982 C   0  0  0  0  0  0  0  0  0  0  0  0
    0.2566    1.6851    3.7749 H   0  0  0  0  0  0  0  0  0  0  0  0
   -0.1105    0.0969    3.7926 H   0  0  0  0  0  0  0  0  0  0  0  0
    0.1389    0.8607    2.3738 H   0  0  0  0  0  0  0  0  0  0  0  0
  1  5  1  0
  5  6  1  0
  5  7  2  0
  1  2  1  0
  1  3  1  0
  1  4  1  0
  8 12  1  0
 12 15  1  0
  8  9  1  0
  8 10  1  0
  8 11  1  0
 12 13  1  0
 12 14  1  0
 15 16  1  0
 15 17  1  0
 15 18  1  0
M  CHG  1   6  -1
M  END
>  <PDB_ID>  (198) 
pdb1ala

>  <RESIDUE_NAME>  (198) 
GLU   ILE

>  <FRAG_NAME>  (198) 
ACET   PRPA

>  <FRAG_ATOM_NUM>  (198) 
fragi: 7  fragj: 11

>  <atom.prop.CHAIN_ID>  (198) 
A A A A A A A Z Z Z Z Z Z Z Z Z Z Z

>  <atom.prop.IS_HEAVY_ATOM>  (198) 
1 0 0 0 1 1 1 1 0 0 0 1 0 0 1 0 0 0

>  <DIFUSE_FUNC_ATOM>  (198) 
atom 6   atom 7   

>  <FINAL_SINGLE_POINT_ENERGY>  (198) 
0

>  <NONCOV_INTER_ENERGY_QM>  (198) 
0

>  <FF_Energy>  (198) 
3.62

>  <QM_Energy>  (198) 
-3.34

>  <Index>  (198) 
15043

$$$$
ACET-pdb2aka-A-ASP-454:PRPA-pdb2aka-A-LYS-241
     RDKit          3D

 18 16  0  0  0  0  0  0  0  0999 V2000
    0.0145    1.4665   -0.0064 C   0  0  0  0  0  0  0  0  0  0  0  0
    0.9187    1.7980    0.2616 H   0  0  0  0  0  0  0  0  0  0  0  0
   -0.6707    1.8162    0.6309 H   0  0  0  0  0  0  0  0  0  0  0  0
   -0.2087    1.8831   -0.9886 H   0  0  0  0  0  0  0  0  0  0  0  0
    0.0000    0.0000    0.0000 C   0  0  0  0  0  0  0  0  0  0  0  0
   -1.1218   -0.5643   -0.0000 O   0  0  0  0  0  1  0  0  0  0  0  0
    1.1218   -0.5909    0.0000 O   0  0  0  0  0  0  0  0  0  0  0  0
   -2.6897   -2.6620   -1.2582 C   0  0  0  0  0  0  0  0  0  0  0  0
   -1.7018   -2.6538   -1.4468 H   0  0  0  0  0  0  0  0  0  0  0  0
   -2.9727   -1.7351   -0.9908 H   0  0  0  0  0  0  0  0  0  0  0  0
   -3.2412   -2.9885   -2.1399 H   0  0  0  0  0  0  0  0  0  0  0  0
   -2.9285   -3.5891   -0.0572 C   0  0  0  0  0  0  0  0  0  0  0  0
   -3.8814   -3.5674    0.1831 H   0  0  0  0  0  0  0  0  0  0  0  0
   -2.6201   -4.4954   -0.2809 H   0  0  0  0  0  0  0  0  0  0  0  0
   -2.1101   -3.0907    1.1685 C   0  0  0  0  0  0  0  0  0  0  0  0
   -1.1448   -3.2004    0.9596 H   0  0  0  0  0  0  0  0  0  0  0  0
   -2.3256   -2.1307    1.3136 H   0  0  0  0  0  0  0  0  0  0  0  0
   -2.3672   -3.6686    2.0561 H   0  0  0  0  0  0  0  0  0  0  0  0
  1  5  1  0
  5  6  1  0
  5  7  2  0
  1  2  1  0
  1  3  1  0
  1  4  1  0
  8 12  1  0
 12 15  1  0
  8  9  1  0
  8 10  1  0
  8 11  1  0
 12 13  1  0
 12 14  1  0
 15 16  1  0
 15 17  1  0
 15 18  1  0
M  CHG  1   6  -1
M  END
>  <PDB_ID>  (199) 
pdb2aka

>  <RESIDUE_NAME>  (199) 
ASP   LYS

>  <FRAG_NAME>  (199) 
ACET   PRPA

>  <FRAG_ATOM_NUM>  (199) 
fragi: 7  fragj: 11

>  <atom.prop.CHAIN_ID>  (199) 
A A A A A A A Z Z Z Z Z Z Z Z Z Z Z

>  <atom.prop.IS_HEAVY_ATOM>  (199) 
1 0 0 0 1 1 1 1 0 0 0 1 0 0 1 0 0 0

>  <DIFUSE_FUNC_ATOM>  (199) 
atom 6   atom 7   

>  <FINAL_SINGLE_POINT_ENERGY>  (199) 
0

>  <NONCOV_INTER_ENERGY_QM>  (199) 
0

>  <FF_Energy>  (199) 
2.61

>  <QM_Energy>  (199) 
-2.77

>  <Index>  (199) 
15062

$$$$
ACET-pdb1ala-A-GLU-144:PRPA-pdb1ala-A-ILE-100
     RDKit          3D

 18 16  0  0  0  0  0  0  0  0999 V2000
    0.1731    1.5185   -0.0882 C   0  0  0  0  0  0  0  0  0  0  0  0
    1.0519    1.7231    0.2115 H   0  0  0  0  0  0  0  0  0  0  0  0
   -0.5611    1.9158    0.3680 H   0  0  0  0  0  0  0  0  0  0  0  0
    0.0976    1.7426   -1.1523 H   0  0  0  0  0  0  0  0  0  0  0  0
    0.0000    0.0000    0.0000 C   0  0  0  0  0  0  0  0  0  0  0  0
   -1.1637   -0.4374    0.0000 O   0  0  0  0  0  1  0  0  0  0  0  0
    1.1637   -0.4911    0.0000 O   0  0  0  0  0  0  0  0  0  0  0  0
   -1.8810    2.6549    2.4359 C   0  0  0  0  0  0  0  0  0  0  0  0
   -1.5505    2.5434    1.5586 H   0  0  0  0  0  0  0  0  0  0  0  0
   -2.7668    2.9701    2.5453 H   0  0  0  0  0  0  0  0  0  0  0  0
   -1.2157    3.3360    2.9666 H   0  0  0  0  0  0  0  0  0  0  0  0
   -1.7246    1.2997    3.2204 C   0  0  0  0  0  0  0  0  0  0  0  0
   -2.0077    1.4688    4.1650 H   0  0  0  0  0  0  0  0  0  0  0  0
   -2.3412    0.4904    2.8293 H   0  0  0  0  0  0  0  0  0  0  0  0
   -0.2160    0.9525    3.2982 C   0  0  0  0  0  0  0  0  0  0  0  0
    0.2566    1.6851    3.7749 H   0  0  0  0  0  0  0  0  0  0  0  0
   -0.1105    0.0969    3.7926 H   0  0  0  0  0  0  0  0  0  0  0  0
    0.1389    0.8607    2.3738 H   0  0  0  0  0  0  0  0  0  0  0  0
  1  5  1  0
  5  6  1  0
  5  7  2  0
  1  2  1  0
  1  3  1  0
  1  4  1  0
  8 12  1  0
 12 15  1  0
  8  9  1  0
  8 10  1  0
  8 11  1  0
 12 13  1  0
 12 14  1  0
 15 16  1  0
 15 17  1  0
 15 18  1  0
M  CHG  1   6  -1
M  END
>  <PDB_ID>  (200) 
pdb1ala

>  <RESIDUE_NAME>  (200) 
GLU   ILE

>  <FRAG_NAME>  (200) 
ACET   PRPA

>  <FRAG_ATOM_NUM>  (200) 
fragi: 7  fragj: 11

>  <atom.prop.CHAIN_ID>  (200) 
A A A A A A A Z Z Z Z Z Z Z Z Z Z Z

>  <atom.prop.IS_HEAVY_ATOM>  (200) 
1 0 0 0 1 1 1 1 0 0 0 1 0 0 1 0 0 0

>  <DIFUSE_FUNC_ATOM>  (200) 
atom 6   atom 7   

>  <FINAL_SINGLE_POINT_ENERGY>  (200) 
0

>  <NONCOV_INTER_ENERGY_QM>  (200) 
0

>  <FF_Energy>  (200) 
25.74

>  <QM_Energy>  (200) 
-0.76

>  <Index>  (200) 
15066

$$$$
ACET-pdb1amm-A-ASP-38:PRPA-pdb1amm-A-LYS-2
     RDKit          3D

 18 16  0  0  0  0  0  0  0  0999 V2000
    0.0745    1.5174    0.1873 C   0  0  0  0  0  0  0  0  0  0  0  0
    1.0218    1.7991    0.0548 H   0  0  0  0  0  0  0  0  0  0  0  0
   -0.2176    1.7290    1.1156 H   0  0  0  0  0  0  0  0  0  0  0  0
   -0.5536    2.0713   -0.5104 H   0  0  0  0  0  0  0  0  0  0  0  0
    0.0000    0.0000    0.0000 C   0  0  0  0  0  0  0  0  0  0  0  0
   -1.0878   -0.6511   -0.0000 O   0  0  0  0  0  1  0  0  0  0  0  0
    1.0878   -0.6648    0.0000 O   0  0  0  0  0  0  0  0  0  0  0  0
    4.2442    1.6155    0.3453 C   0  0  0  0  0  0  0  0  0  0  0  0
    3.6037    1.1665   -0.2739 H   0  0  0  0  0  0  0  0  0  0  0  0
    5.1638    1.5865   -0.0393 H   0  0  0  0  0  0  0  0  0  0  0  0
    3.9436    2.6547    0.4783 H   0  0  0  0  0  0  0  0  0  0  0  0
    4.2433    0.8760    1.6744 C   0  0  0  0  0  0  0  0  0  0  0  0
    5.1704    0.5877    1.8829 H   0  0  0  0  0  0  0  0  0  0  0  0
    3.8985    1.4828    2.3812 H   0  0  0  0  0  0  0  0  0  0  0  0
    3.3535   -0.3562    1.6158 C   0  0  0  0  0  0  0  0  0  0  0  0
    2.3967   -0.0630    1.5725 H   0  0  0  0  0  0  0  0  0  0  0  0
    3.5752   -0.8765    0.7889 H   0  0  0  0  0  0  0  0  0  0  0  0
    3.4972   -0.9907    2.4903 H   0  0  0  0  0  0  0  0  0  0  0  0
  1  5  1  0
  5  6  1  0
  5  7  2  0
  1  2  1  0
  1  3  1  0
  1  4  1  0
  8 12  1  0
 12 15  1  0
  8  9  1  0
  8 10  1  0
  8 11  1  0
 12 13  1  0
 12 14  1  0
 15 16  1  0
 15 17  1  0
 15 18  1  0
M  CHG  1   6  -1
M  END
>  <PDB_ID>  (201) 
pdb1amm

>  <RESIDUE_NAME>  (201) 
ASP   LYS

>  <FRAG_NAME>  (201) 
ACET   PRPA

>  <FRAG_ATOM_NUM>  (201) 
fragi: 7  fragj: 11

>  <atom.prop.CHAIN_ID>  (201) 
A A A A A A A Z Z Z Z Z Z Z Z Z Z Z

>  <atom.prop.IS_HEAVY_ATOM>  (201) 
1 0 0 0 1 1 1 1 0 0 0 1 0 0 1 0 0 0

>  <DIFUSE_FUNC_ATOM>  (201) 
atom 6   atom 7   

>  <FINAL_SINGLE_POINT_ENERGY>  (201) 
0

>  <NONCOV_INTER_ENERGY_QM>  (201) 
0

>  <FF_Energy>  (201) 
5.1

>  <QM_Energy>  (201) 
-0.72

>  <Index>  (201) 
15082

$$$$
ACET-pdb2as0-A-ASP-115:PRPA-pdb2as0-A-ARG-100
     RDKit          3D

 18 16  0  0  0  0  0  0  0  0999 V2000
    0.0096    1.5172    0.0347 C   0  0  0  0  0  0  0  0  0  0  0  0
    0.8143    1.8440   -0.4503 H   0  0  0  0  0  0  0  0  0  0  0  0
    0.0305    1.8166    0.9819 H   0  0  0  0  0  0  0  0  0  0  0  0
   -0.8673    1.9609   -0.4367 H   0  0  0  0  0  0  0  0  0  0  0  0
    0.0000    0.0000    0.0000 C   0  0  0  0  0  0  0  0  0  0  0  0
   -1.0952   -0.5988    0.0000 O   0  0  0  0  0  1  0  0  0  0  0  0
    1.0952   -0.6012    0.0000 O   0  0  0  0  0  0  0  0  0  0  0  0
   -4.1794   -0.5001    0.5408 C   0  0  0  0  0  0  0  0  0  0  0  0
   -3.4570    0.1172    0.3257 H   0  0  0  0  0  0  0  0  0  0  0  0
   -4.4857   -0.3560    1.5768 H   0  0  0  0  0  0  0  0  0  0  0  0
   -5.0731   -0.2011   -0.0069 H   0  0  0  0  0  0  0  0  0  0  0  0
   -3.8527   -1.9598    0.2416 C   0  0  0  0  0  0  0  0  0  0  0  0
   -2.9694   -2.1731    0.6337 H   0  0  0  0  0  0  0  0  0  0  0  0
   -4.5624   -2.5293    0.6320 H   0  0  0  0  0  0  0  0  0  0  0  0
   -3.7851   -2.2563   -1.2574 C   0  0  0  0  0  0  0  0  0  0  0  0
   -4.6900   -2.5180   -1.5821 H   0  0  0  0  0  0  0  0  0  0  0  0
   -3.4726   -1.4418   -1.7399 H   0  0  0  0  0  0  0  0  0  0  0  0
   -3.0941   -3.0698   -1.4784 H   0  0  0  0  0  0  0  0  0  0  0  0
  1  5  1  0
  5  6  1  0
  5  7  2  0
  1  2  1  0
  1  3  1  0
  1  4  1  0
  8 12  1  0
 12 15  1  0
  8  9  1  0
  8 10  1  0
  8 11  1  0
 12 13  1  0
 12 14  1  0
 15 16  1  0
 15 17  1  0
 15 18  1  0
M  CHG  1   6  -1
M  END
>  <PDB_ID>  (202) 
pdb2as0

>  <RESIDUE_NAME>  (202) 
ASP   ARG

>  <FRAG_NAME>  (202) 
ACET   PRPA

>  <FRAG_ATOM_NUM>  (202) 
fragi: 7  fragj: 11

>  <atom.prop.CHAIN_ID>  (202) 
A A A A A A A Z Z Z Z Z Z Z Z Z Z Z

>  <atom.prop.IS_HEAVY_ATOM>  (202) 
1 0 0 0 1 1 1 1 0 0 0 1 0 0 1 0 0 0

>  <DIFUSE_FUNC_ATOM>  (202) 
atom 6   atom 7   

>  <FINAL_SINGLE_POINT_ENERGY>  (202) 
0

>  <NONCOV_INTER_ENERGY_QM>  (202) 
0

>  <FF_Energy>  (202) 
13.51

>  <QM_Energy>  (202) 
-4.78

>  <Index>  (202) 
15120

$$$$
ACET-pdb2a1f-D-ASP-143:PRPA-pdb2a1f-D-LYS-160
     RDKit          3D

 18 16  0  0  0  0  0  0  0  0999 V2000
    0.0169    1.5077    0.0132 C   0  0  0  0  0  0  0  0  0  0  0  0
    0.5511    1.8314   -0.7626 H   0  0  0  0  0  0  0  0  0  0  0  0
    0.4269    1.8196    0.8648 H   0  0  0  0  0  0  0  0  0  0  0  0
   -0.9785    1.9460   -0.0599 H   0  0  0  0  0  0  0  0  0  0  0  0
    0.0000    0.0000    0.0000 C   0  0  0  0  0  0  0  0  0  0  0  0
   -1.0989   -0.6095    0.0000 O   0  0  0  0  0  1  0  0  0  0  0  0
    1.0989   -0.5929    0.0000 O   0  0  0  0  0  0  0  0  0  0  0  0
   -1.1726   -4.1223    3.1861 C   0  0  0  0  0  0  0  0  0  0  0  0
   -0.8071   -5.0519    3.1686 H   0  0  0  0  0  0  0  0  0  0  0  0
   -1.9119   -4.0399    2.5206 H   0  0  0  0  0  0  0  0  0  0  0  0
   -1.5772   -3.9288    4.1795 H   0  0  0  0  0  0  0  0  0  0  0  0
   -0.0833   -3.1469    2.8535 C   0  0  0  0  0  0  0  0  0  0  0  0
   -0.4141   -2.2170    3.0085 H   0  0  0  0  0  0  0  0  0  0  0  0
    0.7091   -3.3235    3.4352 H   0  0  0  0  0  0  0  0  0  0  0  0
    0.3532   -3.2626    1.4057 C   0  0  0  0  0  0  0  0  0  0  0  0
   -0.4624   -3.1906    0.8183 H   0  0  0  0  0  0  0  0  0  0  0  0
    0.9644   -2.4906    1.1926 H   0  0  0  0  0  0  0  0  0  0  0  0
    0.8668   -4.2035    1.2083 H   0  0  0  0  0  0  0  0  0  0  0  0
  1  5  1  0
  5  6  1  0
  5  7  2  0
  1  2  1  0
  1  3  1  0
  1  4  1  0
  8 12  1  0
 12 15  1  0
  8  9  1  0
  8 10  1  0
  8 11  1  0
 12 13  1  0
 12 14  1  0
 15 16  1  0
 15 17  1  0
 15 18  1  0
M  CHG  1   6  -1
M  END
>  <PDB_ID>  (203) 
pdb2a1f

>  <RESIDUE_NAME>  (203) 
ASP   LYS

>  <FRAG_NAME>  (203) 
ACET   PRPA

>  <FRAG_ATOM_NUM>  (203) 
fragi: 7  fragj: 11

>  <atom.prop.CHAIN_ID>  (203) 
A A A A A A A Z Z Z Z Z Z Z Z Z Z Z

>  <atom.prop.IS_HEAVY_ATOM>  (203) 
1 0 0 0 1 1 1 1 0 0 0 1 0 0 1 0 0 0

>  <DIFUSE_FUNC_ATOM>  (203) 
atom 6   atom 7   

>  <FINAL_SINGLE_POINT_ENERGY>  (203) 
0

>  <NONCOV_INTER_ENERGY_QM>  (203) 
0

>  <FF_Energy>  (203) 
2.7

>  <QM_Energy>  (203) 
-3.86

>  <Index>  (203) 
15139

$$$$
ACET-pdb2anu-A-ASP-176:PRPA-pdb2anu-A-ARG-143
     RDKit          3D

 18 16  0  0  0  0  0  0  0  0999 V2000
   -0.0100    1.4925   -0.0829 C   0  0  0  0  0  0  0  0  0  0  0  0
    0.9080    1.8346    0.0760 H   0  0  0  0  0  0  0  0  0  0  0  0
   -0.6395    1.8537    0.5929 H   0  0  0  0  0  0  0  0  0  0  0  0
   -0.3337    1.8381   -1.0646 H   0  0  0  0  0  0  0  0  0  0  0  0
    0.0000    0.0000    0.0000 C   0  0  0  0  0  0  0  0  0  0  0  0
   -1.1127   -0.5742    0.0000 O   0  0  0  0  0  1  0  0  0  0  0  0
    1.1127   -0.5897   -0.0000 O   0  0  0  0  0  0  0  0  0  0  0  0
    2.0967   -1.2117    4.3378 C   0  0  0  0  0  0  0  0  0  0  0  0
    1.7771   -0.5985    5.0823 H   0  0  0  0  0  0  0  0  0  0  0  0
    2.9468   -0.7427    3.8423 H   0  0  0  0  0  0  0  0  0  0  0  0
    2.3278   -2.1845    4.7718 H   0  0  0  0  0  0  0  0  0  0  0  0
    0.8919   -1.3488    3.3810 C   0  0  0  0  0  0  0  0  0  0  0  0
    0.1189   -1.6912    3.9112 H   0  0  0  0  0  0  0  0  0  0  0  0
    0.6813   -0.4420    3.0240 H   0  0  0  0  0  0  0  0  0  0  0  0
    1.1131   -2.2843    2.2026 C   0  0  0  0  0  0  0  0  0  0  0  0
    1.8835   -1.9486    1.6611 H   0  0  0  0  0  0  0  0  0  0  0  0
    1.3205   -3.1991    2.5484 H   0  0  0  0  0  0  0  0  0  0  0  0
    0.2300   -2.3394    1.5661 H   0  0  0  0  0  0  0  0  0  0  0  0
  1  5  1  0
  5  6  1  0
  5  7  2  0
  1  2  1  0
  1  3  1  0
  1  4  1  0
  8 12  1  0
 12 15  1  0
  8  9  1  0
  8 10  1  0
  8 11  1  0
 12 13  1  0
 12 14  1  0
 15 16  1  0
 15 17  1  0
 15 18  1  0
M  CHG  1   6  -1
M  END
>  <PDB_ID>  (204) 
pdb2anu

>  <RESIDUE_NAME>  (204) 
ASP   ARG

>  <FRAG_NAME>  (204) 
ACET   PRPA

>  <FRAG_ATOM_NUM>  (204) 
fragi: 7  fragj: 11

>  <atom.prop.CHAIN_ID>  (204) 
A A A A A A A Z Z Z Z Z Z Z Z Z Z Z

>  <atom.prop.IS_HEAVY_ATOM>  (204) 
1 0 0 0 1 1 1 1 0 0 0 1 0 0 1 0 0 0

>  <DIFUSE_FUNC_ATOM>  (204) 
atom 6   atom 7   

>  <FINAL_SINGLE_POINT_ENERGY>  (204) 
0

>  <NONCOV_INTER_ENERGY_QM>  (204) 
0

>  <FF_Energy>  (204) 
12.52

>  <QM_Energy>  (204) 
-1.87

>  <Index>  (204) 
15176

$$$$
ACET-pdb1ako-A-ASP-160:PRPA-pdb1ako-A-PRO-156
     RDKit          3D

 18 16  0  0  0  0  0  0  0  0999 V2000
    0.0028    1.5094   -0.0336 C   0  0  0  0  0  0  0  0  0  0  0  0
    0.9054    1.8243   -0.3062 H   0  0  0  0  0  0  0  0  0  0  0  0
   -0.2265    1.8533    0.8692 H   0  0  0  0  0  0  0  0  0  0  0  0
   -0.7207    1.9152   -0.7408 H   0  0  0  0  0  0  0  0  0  0  0  0
    0.0000    0.0000    0.0000 C   0  0  0  0  0  0  0  0  0  0  0  0
   -1.0936   -0.6015   -0.0000 O   0  0  0  0  0  1  0  0  0  0  0  0
    1.0936   -0.5885    0.0000 O   0  0  0  0  0  0  0  0  0  0  0  0
    4.1799   -2.0363    1.2556 C   0  0  0  0  0  0  0  0  0  0  0  0
    3.4584   -2.3169    0.6283 H   0  0  0  0  0  0  0  0  0  0  0  0
    4.8652   -2.7548    1.3307 H   0  0  0  0  0  0  0  0  0  0  0  0
    4.6344   -1.1009    0.9288 H   0  0  0  0  0  0  0  0  0  0  0  0
    3.6144   -1.6907    2.6024 C   0  0  0  0  0  0  0  0  0  0  0  0
    2.9172   -2.3462    2.8686 H   0  0  0  0  0  0  0  0  0  0  0  0
    4.3351   -1.6515    3.2842 H   0  0  0  0  0  0  0  0  0  0  0  0
    3.0127   -0.3252    2.3699 C   0  0  0  0  0  0  0  0  0  0  0  0
    2.1142   -0.3906    1.9458 H   0  0  0  0  0  0  0  0  0  0  0  0
    2.9538    0.1966    3.2170 H   0  0  0  0  0  0  0  0  0  0  0  0
    3.7258    0.1347    1.6857 H   0  0  0  0  0  0  0  0  0  0  0  0
  1  5  1  0
  5  6  1  0
  5  7  2  0
  1  2  1  0
  1  3  1  0
  1  4  1  0
  8 12  1  0
 12 15  1  0
  8  9  1  0
  8 10  1  0
  8 11  1  0
 12 13  1  0
 12 14  1  0
 15 16  1  0
 15 17  1  0
 15 18  1  0
M  CHG  1   6  -1
M  END
>  <PDB_ID>  (205) 
pdb1ako

>  <RESIDUE_NAME>  (205) 
ASP   PRO

>  <FRAG_NAME>  (205) 
ACET   PRPA

>  <FRAG_ATOM_NUM>  (205) 
fragi: 7  fragj: 11

>  <atom.prop.CHAIN_ID>  (205) 
A A A A A A A Z Z Z Z Z Z Z Z Z Z Z

>  <atom.prop.IS_HEAVY_ATOM>  (205) 
1 0 0 0 1 1 1 1 0 0 0 1 0 0 1 0 0 0

>  <DIFUSE_FUNC_ATOM>  (205) 
atom 6   atom 7   

>  <FINAL_SINGLE_POINT_ENERGY>  (205) 
0

>  <NONCOV_INTER_ENERGY_QM>  (205) 
0

>  <FF_Energy>  (205) 
2.3

>  <QM_Energy>  (205) 
-3.13

>  <Index>  (205) 
15238

$$$$
ACET-pdb2anu-C-GLU-27:PRPA-pdb2anu-A-ARG-161
     RDKit          3D

 18 16  0  0  0  0  0  0  0  0999 V2000
    0.0032    1.5023    0.0448 C   0  0  0  0  0  0  0  0  0  0  0  0
    0.9443    1.7807    0.2024 H   0  0  0  0  0  0  0  0  0  0  0  0
   -0.5689    1.7651    0.8145 H   0  0  0  0  0  0  0  0  0  0  0  0
   -0.3709    1.9614   -0.8704 H   0  0  0  0  0  0  0  0  0  0  0  0
    0.0000    0.0000    0.0000 C   0  0  0  0  0  0  0  0  0  0  0  0
   -1.0962   -0.5781   -0.0000 O   0  0  0  0  0  1  0  0  0  0  0  0
    1.0962   -0.5948    0.0000 O   0  0  0  0  0  0  0  0  0  0  0  0
   -0.4598    2.3785    3.2219 C   0  0  0  0  0  0  0  0  0  0  0  0
   -0.9310    2.4758    2.3308 H   0  0  0  0  0  0  0  0  0  0  0  0
    0.6053    2.2325    3.0416 H   0  0  0  0  0  0  0  0  0  0  0  0
   -0.6739    3.2666    3.8165 H   0  0  0  0  0  0  0  0  0  0  0  0
   -0.9533    1.1074    3.9121 C   0  0  0  0  0  0  0  0  0  0  0  0
   -0.7912    0.3296    3.2775 H   0  0  0  0  0  0  0  0  0  0  0  0
   -0.3641    0.9504    4.7255 H   0  0  0  0  0  0  0  0  0  0  0  0
   -2.3915    1.0443    4.3632 C   0  0  0  0  0  0  0  0  0  0  0  0
   -2.5208    1.6002    5.1608 H   0  0  0  0  0  0  0  0  0  0  0  0
   -2.9884    1.2949    3.6263 H   0  0  0  0  0  0  0  0  0  0  0  0
   -2.6041    0.0099    4.6335 H   0  0  0  0  0  0  0  0  0  0  0  0
  1  5  1  0
  5  6  1  0
  5  7  2  0
  1  2  1  0
  1  3  1  0
  1  4  1  0
  8 12  1  0
 12 15  1  0
  8  9  1  0
  8 10  1  0
  8 11  1  0
 12 13  1  0
 12 14  1  0
 15 16  1  0
 15 17  1  0
 15 18  1  0
M  CHG  1   6  -1
M  END
>  <PDB_ID>  (206) 
pdb2anu

>  <RESIDUE_NAME>  (206) 
GLU   ARG

>  <FRAG_NAME>  (206) 
ACET   PRPA

>  <FRAG_ATOM_NUM>  (206) 
fragi: 7  fragj: 11

>  <atom.prop.CHAIN_ID>  (206) 
A A A A A A A Z Z Z Z Z Z Z Z Z Z Z

>  <atom.prop.IS_HEAVY_ATOM>  (206) 
1 0 0 0 1 1 1 1 0 0 0 1 0 0 1 0 0 0

>  <DIFUSE_FUNC_ATOM>  (206) 
atom 6   atom 7   

>  <FINAL_SINGLE_POINT_ENERGY>  (206) 
0

>  <NONCOV_INTER_ENERGY_QM>  (206) 
0

>  <FF_Energy>  (206) 
3.75

>  <QM_Energy>  (206) 
-0.11

>  <Index>  (206) 
15261

$$$$
ACET-pdb2ax3-A-GLU-11:PRPA-pdb2ax3-A-LEU-7
     RDKit          3D

 18 16  0  0  0  0  0  0  0  0999 V2000
   -0.0182    1.5140    0.0087 C   0  0  0  0  0  0  0  0  0  0  0  0
    0.4233    1.8279   -0.8075 H   0  0  0  0  0  0  0  0  0  0  0  0
    0.4288    1.8183    0.8246 H   0  0  0  0  0  0  0  0  0  0  0  0
   -1.0307    1.9174    0.0140 H   0  0  0  0  0  0  0  0  0  0  0  0
    0.0000    0.0000    0.0000 C   0  0  0  0  0  0  0  0  0  0  0  0
   -1.1080   -0.5996    0.0000 O   0  0  0  0  0  1  0  0  0  0  0  0
    1.1080   -0.5866    0.0000 O   0  0  0  0  0  0  0  0  0  0  0  0
   -3.6329   -0.3281    3.3401 C   0  0  0  0  0  0  0  0  0  0  0  0
   -4.5222   -0.5905    3.7247 H   0  0  0  0  0  0  0  0  0  0  0  0
   -3.6938   -0.3378    2.3395 H   0  0  0  0  0  0  0  0  0  0  0  0
   -3.4227    0.6946    3.6532 H   0  0  0  0  0  0  0  0  0  0  0  0
   -2.6306   -1.4164    3.7408 C   0  0  0  0  0  0  0  0  0  0  0  0
   -2.4331   -1.3296    4.7167 H   0  0  0  0  0  0  0  0  0  0  0  0
   -3.0373   -2.4074    3.5389 H   0  0  0  0  0  0  0  0  0  0  0  0
   -1.3313   -1.2419    2.9981 C   0  0  0  0  0  0  0  0  0  0  0  0
   -0.9339   -0.3457    3.2109 H   0  0  0  0  0  0  0  0  0  0  0  0
   -0.6837   -1.9590    3.2685 H   0  0  0  0  0  0  0  0  0  0  0  0
   -1.4918   -1.3026    2.0093 H   0  0  0  0  0  0  0  0  0  0  0  0
  1  5  1  0
  5  6  1  0
  5  7  2  0
  1  2  1  0
  1  3  1  0
  1  4  1  0
  8 12  1  0
 12 15  1  0
  8  9  1  0
  8 10  1  0
  8 11  1  0
 12 13  1  0
 12 14  1  0
 15 16  1  0
 15 17  1  0
 15 18  1  0
M  CHG  1   6  -1
M  END
>  <PDB_ID>  (207) 
pdb2ax3

>  <RESIDUE_NAME>  (207) 
GLU   LEU

>  <FRAG_NAME>  (207) 
ACET   PRPA

>  <FRAG_ATOM_NUM>  (207) 
fragi: 7  fragj: 11

>  <atom.prop.CHAIN_ID>  (207) 
A A A A A A A Z Z Z Z Z Z Z Z Z Z Z

>  <atom.prop.IS_HEAVY_ATOM>  (207) 
1 0 0 0 1 1 1 1 0 0 0 1 0 0 1 0 0 0

>  <DIFUSE_FUNC_ATOM>  (207) 
atom 6   atom 7   

>  <FINAL_SINGLE_POINT_ENERGY>  (207) 
0

>  <NONCOV_INTER_ENERGY_QM>  (207) 
0

>  <FF_Energy>  (207) 
4.7

>  <QM_Energy>  (207) 
-2.63

>  <Index>  (207) 
15269

$$$$
ACET-pdb1al8-A-ASP-133:PRPA-pdb1al8-A-VAL-136
     RDKit          3D

 18 16  0  0  0  0  0  0  0  0999 V2000
    0.0069    1.5251   -0.0061 C   0  0  0  0  0  0  0  0  0  0  0  0
   -0.1972    1.8401   -0.9248 H   0  0  0  0  0  0  0  0  0  0  0  0
    0.9025    1.8398    0.2814 H   0  0  0  0  0  0  0  0  0  0  0  0
   -0.7338    1.9540    0.6688 H   0  0  0  0  0  0  0  0  0  0  0  0
    0.0000    0.0000    0.0000 C   0  0  0  0  0  0  0  0  0  0  0  0
   -1.0937   -0.6013   -0.0000 O   0  0  0  0  0  1  0  0  0  0  0  0
    1.0937   -0.6043   -0.0000 O   0  0  0  0  0  0  0  0  0  0  0  0
    5.1325    1.6543    2.7357 C   0  0  0  0  0  0  0  0  0  0  0  0
    4.9658    2.5647    3.1167 H   0  0  0  0  0  0  0  0  0  0  0  0
    5.6625    1.1135    3.3897 H   0  0  0  0  0  0  0  0  0  0  0  0
    5.6505    1.7419    1.8844 H   0  0  0  0  0  0  0  0  0  0  0  0
    3.8089    0.9676    2.4594 C   0  0  0  0  0  0  0  0  0  0  0  0
    3.0941    1.6599    2.5173 H   0  0  0  0  0  0  0  0  0  0  0  0
    3.5871    0.2159    3.2169 H   0  0  0  0  0  0  0  0  0  0  0  0
    3.8571    0.3150    1.0925 C   0  0  0  0  0  0  0  0  0  0  0  0
    2.9325    0.2669    0.7135 H   0  0  0  0  0  0  0  0  0  0  0  0
    4.4387    0.8567    0.4846 H   0  0  0  0  0  0  0  0  0  0  0  0
    4.2327   -0.6092    1.1774 H   0  0  0  0  0  0  0  0  0  0  0  0
  1  5  1  0
  5  6  1  0
  5  7  2  0
  1  2  1  0
  1  3  1  0
  1  4  1  0
  8 12  1  0
 12 15  1  0
  8  9  1  0
  8 10  1  0
  8 11  1  0
 12 13  1  0
 12 14  1  0
 15 16  1  0
 15 17  1  0
 15 18  1  0
M  CHG  1   6  -1
M  END
>  <PDB_ID>  (208) 
pdb1al8

>  <RESIDUE_NAME>  (208) 
ASP   VAL

>  <FRAG_NAME>  (208) 
ACET   PRPA

>  <FRAG_ATOM_NUM>  (208) 
fragi: 7  fragj: 11

>  <atom.prop.CHAIN_ID>  (208) 
A A A A A A A Z Z Z Z Z Z Z Z Z Z Z

>  <atom.prop.IS_HEAVY_ATOM>  (208) 
1 0 0 0 1 1 1 1 0 0 0 1 0 0 1 0 0 0

>  <DIFUSE_FUNC_ATOM>  (208) 
atom 6   atom 7   

>  <FINAL_SINGLE_POINT_ENERGY>  (208) 
0

>  <NONCOV_INTER_ENERGY_QM>  (208) 
0

>  <FF_Energy>  (208) 
32.42

>  <QM_Energy>  (208) 
-2.36

>  <Index>  (208) 
15310

$$$$
ACET-pdb1al8-A-ASP-133:PRPA-pdb1al8-A-VAL-136
     RDKit          3D

 18 16  0  0  0  0  0  0  0  0999 V2000
    0.0069    1.5251   -0.0061 C   0  0  0  0  0  0  0  0  0  0  0  0
   -0.1972    1.8401   -0.9248 H   0  0  0  0  0  0  0  0  0  0  0  0
    0.9025    1.8398    0.2814 H   0  0  0  0  0  0  0  0  0  0  0  0
   -0.7338    1.9540    0.6688 H   0  0  0  0  0  0  0  0  0  0  0  0
    0.0000    0.0000    0.0000 C   0  0  0  0  0  0  0  0  0  0  0  0
   -1.0937   -0.6013   -0.0000 O   0  0  0  0  0  1  0  0  0  0  0  0
    1.0937   -0.6043   -0.0000 O   0  0  0  0  0  0  0  0  0  0  0  0
    3.4909   -0.1101    3.5456 C   0  0  0  0  0  0  0  0  0  0  0  0
    4.1311   -0.8718    3.4395 H   0  0  0  0  0  0  0  0  0  0  0  0
    2.4781   -0.4936    3.4218 H   0  0  0  0  0  0  0  0  0  0  0  0
    3.6172    0.2916    4.5509 H   0  0  0  0  0  0  0  0  0  0  0  0
    3.8089    0.9676    2.4594 C   0  0  0  0  0  0  0  0  0  0  0  0
    3.0941    1.6599    2.5173 H   0  0  0  0  0  0  0  0  0  0  0  0
    4.7602    1.4612    2.6580 H   0  0  0  0  0  0  0  0  0  0  0  0
    3.8571    0.3150    1.0925 C   0  0  0  0  0  0  0  0  0  0  0  0
    2.9325    0.2669    0.7135 H   0  0  0  0  0  0  0  0  0  0  0  0
    4.4387    0.8567    0.4846 H   0  0  0  0  0  0  0  0  0  0  0  0
    4.2327   -0.6092    1.1774 H   0  0  0  0  0  0  0  0  0  0  0  0
  1  5  1  0
  5  6  1  0
  5  7  2  0
  1  2  1  0
  1  3  1  0
  1  4  1  0
  8 12  1  0
 12 15  1  0
  8  9  1  0
  8 10  1  0
  8 11  1  0
 12 13  1  0
 12 14  1  0
 15 16  1  0
 15 17  1  0
 15 18  1  0
M  CHG  1   6  -1
M  END
>  <PDB_ID>  (209) 
pdb1al8

>  <RESIDUE_NAME>  (209) 
ASP   VAL

>  <FRAG_NAME>  (209) 
ACET   PRPA

>  <FRAG_ATOM_NUM>  (209) 
fragi: 7  fragj: 11

>  <atom.prop.CHAIN_ID>  (209) 
A A A A A A A Z Z Z Z Z Z Z Z Z Z Z

>  <atom.prop.IS_HEAVY_ATOM>  (209) 
1 0 0 0 1 1 1 1 0 0 0 1 0 0 1 0 0 0

>  <DIFUSE_FUNC_ATOM>  (209) 
atom 6   atom 7   

>  <FINAL_SINGLE_POINT_ENERGY>  (209) 
0

>  <NONCOV_INTER_ENERGY_QM>  (209) 
0

>  <FF_Energy>  (209) 
2.97

>  <QM_Energy>  (209) 
-3.17

>  <Index>  (209) 
15315

$$$$
ACET-pdb1am5-A-GLU-103:PRPA-pdb1am5-A-PRO-58
     RDKit          3D

 18 16  0  0  0  0  0  0  0  0999 V2000
   -0.2038    1.4884    0.0173 C   0  0  0  0  0  0  0  0  0  0  0  0
   -1.0420    1.6830   -0.4062 H   0  0  0  0  0  0  0  0  0  0  0  0
    0.5744    1.9030   -0.3599 H   0  0  0  0  0  0  0  0  0  0  0  0
   -0.2744    1.7748    1.0666 H   0  0  0  0  0  0  0  0  0  0  0  0
    0.0000    0.0000    0.0000 C   0  0  0  0  0  0  0  0  0  0  0  0
   -1.1097   -0.5990    0.0000 O   0  0  0  0  0  1  0  0  0  0  0  0
    1.1097   -0.5660   -0.0000 O   0  0  0  0  0  0  0  0  0  0  0  0
   -2.4462   -4.8125   -1.4463 C   0  0  0  0  0  0  0  0  0  0  0  0
   -2.5910   -4.1592   -2.2603 H   0  0  0  0  0  0  0  0  0  0  0  0
   -3.1716   -4.5792   -0.6669 H   0  0  0  0  0  0  0  0  0  0  0  0
   -2.3401   -5.8342   -1.8111 H   0  0  0  0  0  0  0  0  0  0  0  0
   -1.0684   -4.3493   -0.9195 C   0  0  0  0  0  0  0  0  0  0  0  0
   -0.4918   -5.1377   -0.7129 H   0  0  0  0  0  0  0  0  0  0  0  0
   -0.6154   -3.7679   -1.5925 H   0  0  0  0  0  0  0  0  0  0  0  0
   -1.3954   -3.5795    0.3266 C   0  0  0  0  0  0  0  0  0  0  0  0
   -0.7260   -3.8095    1.0636 H   0  0  0  0  0  0  0  0  0  0  0  0
   -1.2914   -2.5774    0.1538 H   0  0  0  0  0  0  0  0  0  0  0  0
   -2.4119   -3.8109    0.6449 H   0  0  0  0  0  0  0  0  0  0  0  0
  1  5  1  0
  5  6  1  0
  5  7  2  0
  1  2  1  0
  1  3  1  0
  1  4  1  0
  8 12  1  0
 12 15  1  0
  8  9  1  0
  8 10  1  0
  8 11  1  0
 12 13  1  0
 12 14  1  0
 15 16  1  0
 15 17  1  0
 15 18  1  0
M  CHG  1   6  -1
M  END
>  <PDB_ID>  (210) 
pdb1am5

>  <RESIDUE_NAME>  (210) 
GLU   PRO

>  <FRAG_NAME>  (210) 
ACET   PRPA

>  <FRAG_ATOM_NUM>  (210) 
fragi: 7  fragj: 11

>  <atom.prop.CHAIN_ID>  (210) 
A A A A A A A Z Z Z Z Z Z Z Z Z Z Z

>  <atom.prop.IS_HEAVY_ATOM>  (210) 
1 0 0 0 1 1 1 1 0 0 0 1 0 0 1 0 0 0

>  <DIFUSE_FUNC_ATOM>  (210) 
atom 6   atom 7   

>  <FINAL_SINGLE_POINT_ENERGY>  (210) 
0

>  <NONCOV_INTER_ENERGY_QM>  (210) 
0

>  <FF_Energy>  (210) 
10.83

>  <QM_Energy>  (210) 
-3.39

>  <Index>  (210) 
15365

$$$$
ACET-pdb1al3-A-ASP-157:PRPA-pdb1al3-A-ARG-276
     RDKit          3D

 18 16  0  0  0  0  0  0  0  0999 V2000
    0.0377    1.5274    0.0064 C   0  0  0  0  0  0  0  0  0  0  0  0
    0.1880    1.8416   -0.9246 H   0  0  0  0  0  0  0  0  0  0  0  0
    0.7819    1.8209    0.5954 H   0  0  0  0  0  0  0  0  0  0  0  0
   -0.8853    1.9768    0.3727 H   0  0  0  0  0  0  0  0  0  0  0  0
    0.0000    0.0000    0.0000 C   0  0  0  0  0  0  0  0  0  0  0  0
   -1.1115   -0.5528    0.0000 O   0  0  0  0  0  1  0  0  0  0  0  0
    1.1115   -0.5649   -0.0000 O   0  0  0  0  0  0  0  0  0  0  0  0
    1.0356   -1.6416    3.1717 C   0  0  0  0  0  0  0  0  0  0  0  0
    0.3037   -1.0903    2.8378 H   0  0  0  0  0  0  0  0  0  0  0  0
    1.8936   -1.4488    2.7507 H   0  0  0  0  0  0  0  0  0  0  0  0
    1.1394   -1.4384    4.2376 H   0  0  0  0  0  0  0  0  0  0  0  0
    0.6943   -3.1050    2.9540 C   0  0  0  0  0  0  0  0  0  0  0  0
    1.5176   -3.6426    2.9252 H   0  0  0  0  0  0  0  0  0  0  0  0
    0.0732   -3.4135    3.6517 H   0  0  0  0  0  0  0  0  0  0  0  0
   -0.0143   -3.2526    1.5943 C   0  0  0  0  0  0  0  0  0  0  0  0
   -0.1894   -2.3523    1.2468 H   0  0  0  0  0  0  0  0  0  0  0  0
    0.5703   -3.7781    1.0063 H   0  0  0  0  0  0  0  0  0  0  0  0
   -0.9569   -3.7794    1.7434 H   0  0  0  0  0  0  0  0  0  0  0  0
  1  5  1  0
  5  6  1  0
  5  7  2  0
  1  2  1  0
  1  3  1  0
  1  4  1  0
  8 12  1  0
 12 15  1  0
  8  9  1  0
  8 10  1  0
  8 11  1  0
 12 13  1  0
 12 14  1  0
 15 16  1  0
 15 17  1  0
 15 18  1  0
M  CHG  1   6  -1
M  END
>  <PDB_ID>  (211) 
pdb1al3

>  <RESIDUE_NAME>  (211) 
ASP   ARG

>  <FRAG_NAME>  (211) 
ACET   PRPA

>  <FRAG_ATOM_NUM>  (211) 
fragi: 7  fragj: 11

>  <atom.prop.CHAIN_ID>  (211) 
A A A A A A A Z Z Z Z Z Z Z Z Z Z Z

>  <atom.prop.IS_HEAVY_ATOM>  (211) 
1 0 0 0 1 1 1 1 0 0 0 1 0 0 1 0 0 0

>  <DIFUSE_FUNC_ATOM>  (211) 
atom 6   atom 7   

>  <FINAL_SINGLE_POINT_ENERGY>  (211) 
0

>  <NONCOV_INTER_ENERGY_QM>  (211) 
0

>  <FF_Energy>  (211) 
4.91

>  <QM_Energy>  (211) 
-4.33

>  <Index>  (211) 
15393

$$$$
ACET-pdb1ajr-B-GLU-69:PRPA-pdb1ajr-A-PRO-47
     RDKit          3D

 18 16  0  0  0  0  0  0  0  0999 V2000
    0.1844    1.4956   -0.0320 C   0  0  0  0  0  0  0  0  0  0  0  0
    1.1483    1.6878   -0.1303 H   0  0  0  0  0  0  0  0  0  0  0  0
   -0.1747    1.8707    0.8087 H   0  0  0  0  0  0  0  0  0  0  0  0
   -0.3274    1.9978   -0.8529 H   0  0  0  0  0  0  0  0  0  0  0  0
    0.0000    0.0000    0.0000 C   0  0  0  0  0  0  0  0  0  0  0  0
   -1.0823   -0.5517    0.0000 O   0  0  0  0  0  1  0  0  0  0  0  0
    1.0823   -0.6219   -0.0000 O   0  0  0  0  0  0  0  0  0  0  0  0
    2.4020   -0.7638    3.6909 C   0  0  0  0  0  0  0  0  0  0  0  0
    1.7865   -1.4848    3.4712 H   0  0  0  0  0  0  0  0  0  0  0  0
    2.2307   -0.3894    4.7002 H   0  0  0  0  0  0  0  0  0  0  0  0
    3.4333   -1.1162    3.7109 H   0  0  0  0  0  0  0  0  0  0  0  0
    2.2574    0.4852    2.8194 C   0  0  0  0  0  0  0  0  0  0  0  0
    3.1418    0.9102    2.6499 H   0  0  0  0  0  0  0  0  0  0  0  0
    1.8064    0.2738    1.9586 H   0  0  0  0  0  0  0  0  0  0  0  0
    1.3826    1.4066    3.6612 C   0  0  0  0  0  0  0  0  0  0  0  0
    1.4736    2.3334    3.3656 H   0  0  0  0  0  0  0  0  0  0  0  0
    0.4574    1.0917    3.6683 H   0  0  0  0  0  0  0  0  0  0  0  0
    1.8395    1.2713    4.6416 H   0  0  0  0  0  0  0  0  0  0  0  0
  1  5  1  0
  5  6  1  0
  5  7  2  0
  1  2  1  0
  1  3  1  0
  1  4  1  0
  8 12  1  0
 12 15  1  0
  8  9  1  0
  8 10  1  0
  8 11  1  0
 12 13  1  0
 12 14  1  0
 15 16  1  0
 15 17  1  0
 15 18  1  0
M  CHG  1   6  -1
M  END
>  <PDB_ID>  (212) 
pdb1ajr

>  <RESIDUE_NAME>  (212) 
GLU   PRO

>  <FRAG_NAME>  (212) 
ACET   PRPA

>  <FRAG_ATOM_NUM>  (212) 
fragi: 7  fragj: 11

>  <atom.prop.CHAIN_ID>  (212) 
A A A A A A A Z Z Z Z Z Z Z Z Z Z Z

>  <atom.prop.IS_HEAVY_ATOM>  (212) 
1 0 0 0 1 1 1 1 0 0 0 1 0 0 1 0 0 0

>  <DIFUSE_FUNC_ATOM>  (212) 
atom 6   atom 7   

>  <FINAL_SINGLE_POINT_ENERGY>  (212) 
0

>  <NONCOV_INTER_ENERGY_QM>  (212) 
0

>  <FF_Energy>  (212) 
0.23

>  <QM_Energy>  (212) 
-4.03

>  <Index>  (212) 
15766

$$$$
ACET-pdb1aoj-A-GLU-22:PRPA-pdb1aoj-A-ARG-18
     RDKit          3D

 18 16  0  0  0  0  0  0  0  0999 V2000
   -0.2342    1.4837    0.0321 C   0  0  0  0  0  0  0  0  0  0  0  0
    0.5369    1.9267   -0.3911 H   0  0  0  0  0  0  0  0  0  0  0  0
   -0.3477    1.7570    0.9715 H   0  0  0  0  0  0  0  0  0  0  0  0
   -1.1280    1.7905   -0.5113 H   0  0  0  0  0  0  0  0  0  0  0  0
    0.0000    0.0000    0.0000 C   0  0  0  0  0  0  0  0  0  0  0  0
   -1.1058   -0.6988    0.0000 O   0  0  0  0  0  1  0  0  0  0  0  0
    1.1058   -0.4989    0.0000 O   0  0  0  0  0  0  0  0  0  0  0  0
   -3.5180   -1.3868    2.3486 C   0  0  0  0  0  0  0  0  0  0  0  0
   -4.3020   -1.9939    2.5156 H   0  0  0  0  0  0  0  0  0  0  0  0
   -3.6280   -0.9240    1.3679 H   0  0  0  0  0  0  0  0  0  0  0  0
   -3.4984   -0.6190    3.1221 H   0  0  0  0  0  0  0  0  0  0  0  0
   -2.2298   -2.1933    2.4243 C   0  0  0  0  0  0  0  0  0  0  0  0
   -1.6121   -1.8686    1.7150 H   0  0  0  0  0  0  0  0  0  0  0  0
   -1.8239   -2.0565    3.3225 H   0  0  0  0  0  0  0  0  0  0  0  0
   -2.4303   -3.6878    2.2236 C   0  0  0  0  0  0  0  0  0  0  0  0
   -2.7245   -4.1022    3.0823 H   0  0  0  0  0  0  0  0  0  0  0  0
   -3.1212   -3.8383    1.5202 H   0  0  0  0  0  0  0  0  0  0  0  0
   -1.5112   -4.1805    1.9063 H   0  0  0  0  0  0  0  0  0  0  0  0
  1  5  1  0
  5  6  1  0
  5  7  2  0
  1  2  1  0
  1  3  1  0
  1  4  1  0
  8 12  1  0
 12 15  1  0
  8  9  1  0
  8 10  1  0
  8 11  1  0
 12 13  1  0
 12 14  1  0
 15 16  1  0
 15 17  1  0
 15 18  1  0
M  CHG  1   6  -1
M  END
>  <PDB_ID>  (213) 
pdb1aoj

>  <RESIDUE_NAME>  (213) 
GLU   ARG

>  <FRAG_NAME>  (213) 
ACET   PRPA

>  <FRAG_ATOM_NUM>  (213) 
fragi: 7  fragj: 11

>  <atom.prop.CHAIN_ID>  (213) 
A A A A A A A Z Z Z Z Z Z Z Z Z Z Z

>  <atom.prop.IS_HEAVY_ATOM>  (213) 
1 0 0 0 1 1 1 1 0 0 0 1 0 0 1 0 0 0

>  <DIFUSE_FUNC_ATOM>  (213) 
atom 6   atom 7   

>  <FINAL_SINGLE_POINT_ENERGY>  (213) 
0

>  <NONCOV_INTER_ENERGY_QM>  (213) 
0

>  <FF_Energy>  (213) 
3.81

>  <QM_Energy>  (213) 
-4.29

>  <Index>  (213) 
15775

$$$$
ACET-pdb1aoj-A-GLU-22:PRPA-pdb1aoj-A-ARG-18
     RDKit          3D

 18 16  0  0  0  0  0  0  0  0999 V2000
   -0.2342    1.4837    0.0321 C   0  0  0  0  0  0  0  0  0  0  0  0
    0.5369    1.9267   -0.3911 H   0  0  0  0  0  0  0  0  0  0  0  0
   -0.3477    1.7570    0.9715 H   0  0  0  0  0  0  0  0  0  0  0  0
   -1.1280    1.7905   -0.5113 H   0  0  0  0  0  0  0  0  0  0  0  0
    0.0000    0.0000    0.0000 C   0  0  0  0  0  0  0  0  0  0  0  0
   -1.1058   -0.6988    0.0000 O   0  0  0  0  0  1  0  0  0  0  0  0
    1.1058   -0.4989    0.0000 O   0  0  0  0  0  0  0  0  0  0  0  0
   -2.2298   -2.1933    2.4243 C   0  0  0  0  0  0  0  0  0  0  0  0
   -1.6121   -1.8686    1.7150 H   0  0  0  0  0  0  0  0  0  0  0  0
   -1.8239   -2.0565    3.3225 H   0  0  0  0  0  0  0  0  0  0  0  0
   -3.1525   -1.6156    2.3701 H   0  0  0  0  0  0  0  0  0  0  0  0
   -2.4303   -3.6878    2.2236 C   0  0  0  0  0  0  0  0  0  0  0  0
   -2.7245   -4.1022    3.0823 H   0  0  0  0  0  0  0  0  0  0  0  0
   -3.1212   -3.8383    1.5202 H   0  0  0  0  0  0  0  0  0  0  0  0
   -1.1469   -4.3758    1.7806 C   0  0  0  0  0  0  0  0  0  0  0  0
   -0.6550   -4.6675    2.5980 H   0  0  0  0  0  0  0  0  0  0  0  0
   -1.3976   -5.1725    1.2343 H   0  0  0  0  0  0  0  0  0  0  0  0
   -0.5077   -3.7199    1.1897 H   0  0  0  0  0  0  0  0  0  0  0  0
  1  5  1  0
  5  6  1  0
  5  7  2  0
  1  2  1  0
  1  3  1  0
  1  4  1  0
  8 12  1  0
 12 15  1  0
  8  9  1  0
  8 10  1  0
  8 11  1  0
 12 13  1  0
 12 14  1  0
 15 16  1  0
 15 17  1  0
 15 18  1  0
M  CHG  1   6  -1
M  END
>  <PDB_ID>  (214) 
pdb1aoj

>  <RESIDUE_NAME>  (214) 
GLU   ARG

>  <FRAG_NAME>  (214) 
ACET   PRPA

>  <FRAG_ATOM_NUM>  (214) 
fragi: 7  fragj: 11

>  <atom.prop.CHAIN_ID>  (214) 
A A A A A A A Z Z Z Z Z Z Z Z Z Z Z

>  <atom.prop.IS_HEAVY_ATOM>  (214) 
1 0 0 0 1 1 1 1 0 0 0 1 0 0 1 0 0 0

>  <DIFUSE_FUNC_ATOM>  (214) 
atom 6   atom 7   

>  <FINAL_SINGLE_POINT_ENERGY>  (214) 
0

>  <NONCOV_INTER_ENERGY_QM>  (214) 
0

>  <FF_Energy>  (214) 
3.64

>  <QM_Energy>  (214) 
-3.45

>  <Index>  (214) 
15777

$$$$
ACET-pdb1ala-A-GLU-168:PRPA-pdb1ala-A-LEU-171
     RDKit          3D

 18 16  0  0  0  0  0  0  0  0999 V2000
   -0.0454    1.5139   -0.0042 C   0  0  0  0  0  0  0  0  0  0  0  0
    0.3464    1.8193   -0.8304 H   0  0  0  0  0  0  0  0  0  0  0  0
    0.3844    1.8249    0.8007 H   0  0  0  0  0  0  0  0  0  0  0  0
   -1.0918    1.8182    0.0178 H   0  0  0  0  0  0  0  0  0  0  0  0
    0.0000    0.0000    0.0000 C   0  0  0  0  0  0  0  0  0  0  0  0
   -1.1326   -0.5608    0.0000 O   0  0  0  0  0  1  0  0  0  0  0  0
    1.1326   -0.4826   -0.0000 O   0  0  0  0  0  0  0  0  0  0  0  0
    2.0712    0.8115   -3.5102 C   0  0  0  0  0  0  0  0  0  0  0  0
    2.8605    0.1968   -3.5039 H   0  0  0  0  0  0  0  0  0  0  0  0
    2.2486    1.6188   -2.7996 H   0  0  0  0  0  0  0  0  0  0  0  0
    1.9664    1.2176   -4.5163 H   0  0  0  0  0  0  0  0  0  0  0  0
    0.8580   -0.0048   -3.0916 C   0  0  0  0  0  0  0  0  0  0  0  0
    1.0419   -0.4137   -2.2361 H   0  0  0  0  0  0  0  0  0  0  0  0
    0.0790    0.5631   -3.1224 H   0  0  0  0  0  0  0  0  0  0  0  0
    0.6566   -1.1298   -4.1094 C   0  0  0  0  0  0  0  0  0  0  0  0
    0.5255   -0.7209   -5.0191 H   0  0  0  0  0  0  0  0  0  0  0  0
    1.5073   -1.8107   -4.1336 H   0  0  0  0  0  0  0  0  0  0  0  0
   -0.2659   -1.6221   -3.8017 H   0  0  0  0  0  0  0  0  0  0  0  0
  1  5  1  0
  5  6  1  0
  5  7  2  0
  1  2  1  0
  1  3  1  0
  1  4  1  0
  8 12  1  0
 12 15  1  0
  8  9  1  0
  8 10  1  0
  8 11  1  0
 12 13  1  0
 12 14  1  0
 15 16  1  0
 15 17  1  0
 15 18  1  0
M  CHG  1   6  -1
M  END
>  <PDB_ID>  (215) 
pdb1ala

>  <RESIDUE_NAME>  (215) 
GLU   LEU

>  <FRAG_NAME>  (215) 
ACET   PRPA

>  <FRAG_ATOM_NUM>  (215) 
fragi: 7  fragj: 11

>  <atom.prop.CHAIN_ID>  (215) 
A A A A A A A Z Z Z Z Z Z Z Z Z Z Z

>  <atom.prop.IS_HEAVY_ATOM>  (215) 
1 0 0 0 1 1 1 1 0 0 0 1 0 0 1 0 0 0

>  <DIFUSE_FUNC_ATOM>  (215) 
atom 6   atom 7   

>  <FINAL_SINGLE_POINT_ENERGY>  (215) 
0

>  <NONCOV_INTER_ENERGY_QM>  (215) 
0

>  <FF_Energy>  (215) 
4.09

>  <QM_Energy>  (215) 
-3.68

>  <Index>  (215) 
15946

$$$$
ACET-pdb1ala-A-GLU-168:PRPA-pdb1ala-A-LEU-171
     RDKit          3D

 18 16  0  0  0  0  0  0  0  0999 V2000
   -0.0454    1.5139   -0.0042 C   0  0  0  0  0  0  0  0  0  0  0  0
    0.3464    1.8193   -0.8304 H   0  0  0  0  0  0  0  0  0  0  0  0
    0.3844    1.8249    0.8007 H   0  0  0  0  0  0  0  0  0  0  0  0
   -1.0918    1.8182    0.0178 H   0  0  0  0  0  0  0  0  0  0  0  0
    0.0000    0.0000    0.0000 C   0  0  0  0  0  0  0  0  0  0  0  0
   -1.1326   -0.5608    0.0000 O   0  0  0  0  0  1  0  0  0  0  0  0
    1.1326   -0.4826   -0.0000 O   0  0  0  0  0  0  0  0  0  0  0  0
    0.8580   -0.0048   -3.0916 C   0  0  0  0  0  0  0  0  0  0  0  0
    1.0419   -0.4137   -2.2361 H   0  0  0  0  0  0  0  0  0  0  0  0
    0.0790    0.5631   -3.1224 H   0  0  0  0  0  0  0  0  0  0  0  0
    1.7274    0.5803   -3.3916 H   0  0  0  0  0  0  0  0  0  0  0  0
    0.6566   -1.1298   -4.1094 C   0  0  0  0  0  0  0  0  0  0  0  0
    0.5255   -0.7209   -5.0191 H   0  0  0  0  0  0  0  0  0  0  0  0
   -0.2659   -1.6221   -3.8017 H   0  0  0  0  0  0  0  0  0  0  0  0
    1.8363   -2.0741   -4.1430 C   0  0  0  0  0  0  0  0  0  0  0  0
    1.9638   -2.4899   -3.2401 H   0  0  0  0  0  0  0  0  0  0  0  0
    1.6735   -2.7972   -4.8175 H   0  0  0  0  0  0  0  0  0  0  0  0
    2.6662   -1.5717   -4.3941 H   0  0  0  0  0  0  0  0  0  0  0  0
  1  5  1  0
  5  6  1  0
  5  7  2  0
  1  2  1  0
  1  3  1  0
  1  4  1  0
  8 12  1  0
 12 15  1  0
  8  9  1  0
  8 10  1  0
  8 11  1  0
 12 13  1  0
 12 14  1  0
 15 16  1  0
 15 17  1  0
 15 18  1  0
M  CHG  1   6  -1
M  END
>  <PDB_ID>  (216) 
pdb1ala

>  <RESIDUE_NAME>  (216) 
GLU   LEU

>  <FRAG_NAME>  (216) 
ACET   PRPA

>  <FRAG_ATOM_NUM>  (216) 
fragi: 7  fragj: 11

>  <atom.prop.CHAIN_ID>  (216) 
A A A A A A A Z Z Z Z Z Z Z Z Z Z Z

>  <atom.prop.IS_HEAVY_ATOM>  (216) 
1 0 0 0 1 1 1 1 0 0 0 1 0 0 1 0 0 0

>  <DIFUSE_FUNC_ATOM>  (216) 
atom 6   atom 7   

>  <FINAL_SINGLE_POINT_ENERGY>  (216) 
0

>  <NONCOV_INTER_ENERGY_QM>  (216) 
0

>  <FF_Energy>  (216) 
4.4

>  <QM_Energy>  (216) 
-2.78

>  <Index>  (216) 
15955

$$$$
ACET-pdb1amh-A-ASP-194:PRPA-pdb1amh-A-ILE-16
     RDKit          3D

 18 16  0  0  0  0  0  0  0  0999 V2000
    0.0086    1.5276    0.0040 C   0  0  0  0  0  0  0  0  0  0  0  0
    0.9332    1.8382   -0.2000 H   0  0  0  0  0  0  0  0  0  0  0  0
   -0.2658    1.8424    0.9079 H   0  0  0  0  0  0  0  0  0  0  0  0
   -0.6662    1.9714   -0.7280 H   0  0  0  0  0  0  0  0  0  0  0  0
    0.0000    0.0000    0.0000 C   0  0  0  0  0  0  0  0  0  0  0  0
   -1.0834   -0.6203    0.0000 O   0  0  0  0  0  1  0  0  0  0  0  0
    1.0834   -0.6239   -0.0000 O   0  0  0  0  0  0  0  0  0  0  0  0
    2.1842   -3.5928    1.3879 C   0  0  0  0  0  0  0  0  0  0  0  0
    2.9427   -2.9352    1.3594 H   0  0  0  0  0  0  0  0  0  0  0  0
    1.5935   -3.4009    0.4922 H   0  0  0  0  0  0  0  0  0  0  0  0
    2.6264   -4.5889    1.3703 H   0  0  0  0  0  0  0  0  0  0  0  0
    1.3082   -3.4293    2.6520 C   0  0  0  0  0  0  0  0  0  0  0  0
    0.5483   -4.0558    2.5777 H   0  0  0  0  0  0  0  0  0  0  0  0
    1.8785   -3.6622    3.5513 H   0  0  0  0  0  0  0  0  0  0  0  0
    0.7504   -2.0035    2.6963 C   0  0  0  0  0  0  0  0  0  0  0  0
    1.5259   -1.3654    2.6260 H   0  0  0  0  0  0  0  0  0  0  0  0
    0.1778   -1.8737    1.8782 H   0  0  0  0  0  0  0  0  0  0  0  0
    0.1640   -1.7632    3.5832 H   0  0  0  0  0  0  0  0  0  0  0  0
  1  5  1  0
  5  6  1  0
  5  7  2  0
  1  2  1  0
  1  3  1  0
  1  4  1  0
  8 12  1  0
 12 15  1  0
  8  9  1  0
  8 10  1  0
  8 11  1  0
 12 13  1  0
 12 14  1  0
 15 16  1  0
 15 17  1  0
 15 18  1  0
M  CHG  1   6  -1
M  END
>  <PDB_ID>  (217) 
pdb1amh

>  <RESIDUE_NAME>  (217) 
ASP   ILE

>  <FRAG_NAME>  (217) 
ACET   PRPA

>  <FRAG_ATOM_NUM>  (217) 
fragi: 7  fragj: 11

>  <atom.prop.CHAIN_ID>  (217) 
A A A A A A A Z Z Z Z Z Z Z Z Z Z Z

>  <atom.prop.IS_HEAVY_ATOM>  (217) 
1 0 0 0 1 1 1 1 0 0 0 1 0 0 1 0 0 0

>  <DIFUSE_FUNC_ATOM>  (217) 
atom 6   atom 7   

>  <FINAL_SINGLE_POINT_ENERGY>  (217) 
0

>  <NONCOV_INTER_ENERGY_QM>  (217) 
0

>  <FF_Energy>  (217) 
1.62

>  <QM_Energy>  (217) 
-4.61

>  <Index>  (217) 
15992

$$$$
ACET-pdb1ala-A-GLU-121:PRPA-pdb1ala-A-ARG-117
     RDKit          3D

 18 16  0  0  0  0  0  0  0  0999 V2000
   -0.2290    1.4887    0.0114 C   0  0  0  0  0  0  0  0  0  0  0  0
    0.5547    1.9273   -0.3648 H   0  0  0  0  0  0  0  0  0  0  0  0
   -0.4381    1.7634    0.9213 H   0  0  0  0  0  0  0  0  0  0  0  0
   -1.0804    1.7597   -0.6129 H   0  0  0  0  0  0  0  0  0  0  0  0
    0.0000    0.0000    0.0000 C   0  0  0  0  0  0  0  0  0  0  0  0
   -1.0339   -0.7314    0.0000 O   0  0  0  0  0  1  0  0  0  0  0  0
    1.0339   -0.6140   -0.0000 O   0  0  0  0  0  0  0  0  0  0  0  0
   -3.3719   -2.1998   -1.3088 C   0  0  0  0  0  0  0  0  0  0  0  0
   -2.4392   -2.3761   -0.9874 H   0  0  0  0  0  0  0  0  0  0  0  0
   -3.8098   -3.1307   -1.6692 H   0  0  0  0  0  0  0  0  0  0  0  0
   -3.9574   -1.8180   -0.4724 H   0  0  0  0  0  0  0  0  0  0  0  0
   -3.3040   -1.1770   -2.4625 C   0  0  0  0  0  0  0  0  0  0  0  0
   -4.1175   -1.3041   -3.0365 H   0  0  0  0  0  0  0  0  0  0  0  0
   -3.3298   -0.2578   -2.0618 H   0  0  0  0  0  0  0  0  0  0  0  0
   -2.0720   -1.2557   -3.3739 C   0  0  0  0  0  0  0  0  0  0  0  0
   -2.2921   -0.8512   -4.2545 H   0  0  0  0  0  0  0  0  0  0  0  0
   -1.3188   -0.7689   -2.9455 H   0  0  0  0  0  0  0  0  0  0  0  0
   -1.7682   -2.2901   -3.5343 H   0  0  0  0  0  0  0  0  0  0  0  0
  1  5  1  0
  5  6  1  0
  5  7  2  0
  1  2  1  0
  1  3  1  0
  1  4  1  0
  8 12  1  0
 12 15  1  0
  8  9  1  0
  8 10  1  0
  8 11  1  0
 12 13  1  0
 12 14  1  0
 15 16  1  0
 15 17  1  0
 15 18  1  0
M  CHG  1   6  -1
M  END
>  <PDB_ID>  (218) 
pdb1ala

>  <RESIDUE_NAME>  (218) 
GLU   ARG

>  <FRAG_NAME>  (218) 
ACET   PRPA

>  <FRAG_ATOM_NUM>  (218) 
fragi: 7  fragj: 11

>  <atom.prop.CHAIN_ID>  (218) 
A A A A A A A Z Z Z Z Z Z Z Z Z Z Z

>  <atom.prop.IS_HEAVY_ATOM>  (218) 
1 0 0 0 1 1 1 1 0 0 0 1 0 0 1 0 0 0

>  <DIFUSE_FUNC_ATOM>  (218) 
atom 6   atom 7   

>  <FINAL_SINGLE_POINT_ENERGY>  (218) 
0

>  <NONCOV_INTER_ENERGY_QM>  (218) 
0

>  <FF_Energy>  (218) 
0.53

>  <QM_Energy>  (218) 
-4.93

>  <Index>  (218) 
16208

$$$$
ACET-pdb2a1f-E-ASP-27:PRPA-pdb2a1f-E-ILE-30
     RDKit          3D

 18 16  0  0  0  0  0  0  0  0999 V2000
   -0.0253    1.5216    0.0132 C   0  0  0  0  0  0  0  0  0  0  0  0
   -0.2676    1.8257    0.9293 H   0  0  0  0  0  0  0  0  0  0  0  0
   -0.7039    1.8330   -0.6440 H   0  0  0  0  0  0  0  0  0  0  0  0
    0.9334    1.9685   -0.2501 H   0  0  0  0  0  0  0  0  0  0  0  0
    0.0000    0.0000    0.0000 C   0  0  0  0  0  0  0  0  0  0  0  0
   -1.0985   -0.5928   -0.0000 O   0  0  0  0  0  1  0  0  0  0  0  0
    1.0985   -0.6080    0.0000 O   0  0  0  0  0  0  0  0  0  0  0  0
   -2.4480    0.6762   -3.1099 C   0  0  0  0  0  0  0  0  0  0  0  0
   -1.7502    1.1380   -2.5826 H   0  0  0  0  0  0  0  0  0  0  0  0
   -1.9448    0.0534   -3.8494 H   0  0  0  0  0  0  0  0  0  0  0  0
   -3.1281    1.3856   -3.5812 H   0  0  0  0  0  0  0  0  0  0  0  0
   -3.2566   -0.2099   -2.1697 C   0  0  0  0  0  0  0  0  0  0  0  0
   -4.0573   -0.5525   -2.6725 H   0  0  0  0  0  0  0  0  0  0  0  0
   -2.6889   -1.0058   -1.9286 H   0  0  0  0  0  0  0  0  0  0  0  0
   -3.7151    0.4590   -0.9116 C   0  0  0  0  0  0  0  0  0  0  0  0
   -4.2988    1.2420   -1.1365 H   0  0  0  0  0  0  0  0  0  0  0  0
   -4.2363   -0.1891   -0.3530 H   0  0  0  0  0  0  0  0  0  0  0  0
   -2.9223    0.7793   -0.3896 H   0  0  0  0  0  0  0  0  0  0  0  0
  1  5  1  0
  5  6  1  0
  5  7  2  0
  1  2  1  0
  1  3  1  0
  1  4  1  0
  8 12  1  0
 12 15  1  0
  8  9  1  0
  8 10  1  0
  8 11  1  0
 12 13  1  0
 12 14  1  0
 15 16  1  0
 15 17  1  0
 15 18  1  0
M  CHG  1   6  -1
M  END
>  <PDB_ID>  (219) 
pdb2a1f

>  <RESIDUE_NAME>  (219) 
ASP   ILE

>  <FRAG_NAME>  (219) 
ACET   PRPA

>  <FRAG_ATOM_NUM>  (219) 
fragi: 7  fragj: 11

>  <atom.prop.CHAIN_ID>  (219) 
A A A A A A A Z Z Z Z Z Z Z Z Z Z Z

>  <atom.prop.IS_HEAVY_ATOM>  (219) 
1 0 0 0 1 1 1 1 0 0 0 1 0 0 1 0 0 0

>  <DIFUSE_FUNC_ATOM>  (219) 
atom 6   atom 7   

>  <FINAL_SINGLE_POINT_ENERGY>  (219) 
0

>  <NONCOV_INTER_ENERGY_QM>  (219) 
0

>  <FF_Energy>  (219) 
1.75

>  <QM_Energy>  (219) 
-3.75

>  <Index>  (219) 
16226

$$$$
ACET-pdb1aoj-B-GLU-22:PRPA-pdb1aoj-B-ARG-18
     RDKit          3D

 18 16  0  0  0  0  0  0  0  0999 V2000
    0.2287    1.4786   -0.0111 C   0  0  0  0  0  0  0  0  0  0  0  0
    0.8203    1.6946   -0.7606 H   0  0  0  0  0  0  0  0  0  0  0  0
    0.6022    1.7400    0.8558 H   0  0  0  0  0  0  0  0  0  0  0  0
   -0.7007    2.0300   -0.1534 H   0  0  0  0  0  0  0  0  0  0  0  0
    0.0000    0.0000    0.0000 C   0  0  0  0  0  0  0  0  0  0  0  0
   -1.1140   -0.4862   -0.0000 O   0  0  0  0  0  1  0  0  0  0  0  0
    1.1140   -0.6866    0.0000 O   0  0  0  0  0  0  0  0  0  0  0  0
   -3.0836   -2.0167    3.2422 C   0  0  0  0  0  0  0  0  0  0  0  0
   -3.9167   -2.5576    3.4665 H   0  0  0  0  0  0  0  0  0  0  0  0
   -3.2769   -1.4338    2.3417 H   0  0  0  0  0  0  0  0  0  0  0  0
   -2.8289   -1.3987    4.1031 H   0  0  0  0  0  0  0  0  0  0  0  0
   -1.9738   -3.0276    3.0173 C   0  0  0  0  0  0  0  0  0  0  0  0
   -1.3641   -3.0050    3.7944 H   0  0  0  0  0  0  0  0  0  0  0  0
   -2.3789   -3.9216    2.9026 H   0  0  0  0  0  0  0  0  0  0  0  0
   -1.1667   -2.7121    1.7738 C   0  0  0  0  0  0  0  0  0  0  0  0
   -0.9911   -1.7294    1.7293 H   0  0  0  0  0  0  0  0  0  0  0  0
   -0.2980   -3.2059    1.8051 H   0  0  0  0  0  0  0  0  0  0  0  0
   -1.6874   -3.0043    0.8619 H   0  0  0  0  0  0  0  0  0  0  0  0
  1  5  1  0
  5  6  1  0
  5  7  2  0
  1  2  1  0
  1  3  1  0
  1  4  1  0
  8 12  1  0
 12 15  1  0
  8  9  1  0
  8 10  1  0
  8 11  1  0
 12 13  1  0
 12 14  1  0
 15 16  1  0
 15 17  1  0
 15 18  1  0
M  CHG  1   6  -1
M  END
>  <PDB_ID>  (220) 
pdb1aoj

>  <RESIDUE_NAME>  (220) 
GLU   ARG

>  <FRAG_NAME>  (220) 
ACET   PRPA

>  <FRAG_ATOM_NUM>  (220) 
fragi: 7  fragj: 11

>  <atom.prop.CHAIN_ID>  (220) 
A A A A A A A Z Z Z Z Z Z Z Z Z Z Z

>  <atom.prop.IS_HEAVY_ATOM>  (220) 
1 0 0 0 1 1 1 1 0 0 0 1 0 0 1 0 0 0

>  <DIFUSE_FUNC_ATOM>  (220) 
atom 6   atom 7   

>  <FINAL_SINGLE_POINT_ENERGY>  (220) 
0

>  <NONCOV_INTER_ENERGY_QM>  (220) 
0

>  <FF_Energy>  (220) 
30.16

>  <QM_Energy>  (220) 
-0.31

>  <Index>  (220) 
16347

$$$$
ACET-pdb1anf-A-ASP-58:PRPA-pdb1anf-A-GLH-3
     RDKit          3D

 18 16  0  0  0  0  0  0  0  0999 V2000
    0.1775    1.5226    0.1113 C   0  0  0  0  0  0  0  0  0  0  0  0
   -0.5917    1.9614   -0.3314 H   0  0  0  0  0  0  0  0  0  0  0  0
    1.0297    1.7722   -0.3257 H   0  0  0  0  0  0  0  0  0  0  0  0
    0.2140    1.8673    1.1447 H   0  0  0  0  0  0  0  0  0  0  0  0
    0.0000    0.0000    0.0000 C   0  0  0  0  0  0  0  0  0  0  0  0
   -1.1225   -0.5282   -0.0000 O   0  0  0  0  0  1  0  0  0  0  0  0
    1.1225   -0.5918   -0.0000 O   0  0  0  0  0  0  0  0  0  0  0  0
   -0.4828   -4.9634    1.7495 C   0  0  0  0  0  0  0  0  0  0  0  0
   -1.3314   -4.4274    1.8886 H   0  0  0  0  0  0  0  0  0  0  0  0
   -0.2275   -5.4691    2.6808 H   0  0  0  0  0  0  0  0  0  0  0  0
   -0.6165   -5.6556    0.9182 H   0  0  0  0  0  0  0  0  0  0  0  0
    0.4703   -3.7225    1.6737 C   0  0  0  0  0  0  0  0  0  0  0  0
    1.3104   -3.9870    2.1596 H   0  0  0  0  0  0  0  0  0  0  0  0
    0.6893   -3.5985    0.7005 H   0  0  0  0  0  0  0  0  0  0  0  0
    0.0097   -2.3970    2.2237 C   0  0  0  0  0  0  0  0  0  0  0  0
    0.5617   -2.1967    3.0387 H   0  0  0  0  0  0  0  0  0  0  0  0
    0.1966   -1.6955    1.5285 H   0  0  0  0  0  0  0  0  0  0  0  0
   -1.0408   -2.3165    2.5032 H   0  0  0  0  0  0  0  0  0  0  0  0
  1  5  1  0
  5  6  1  0
  5  7  2  0
  1  2  1  0
  1  3  1  0
  1  4  1  0
  8 12  1  0
 12 15  1  0
  8  9  1  0
  8 10  1  0
  8 11  1  0
 12 13  1  0
 12 14  1  0
 15 16  1  0
 15 17  1  0
 15 18  1  0
M  CHG  1   6  -1
M  END
>  <PDB_ID>  (221) 
pdb1anf

>  <RESIDUE_NAME>  (221) 
ASP   GLH

>  <FRAG_NAME>  (221) 
ACET   PRPA

>  <FRAG_ATOM_NUM>  (221) 
fragi: 7  fragj: 11

>  <atom.prop.CHAIN_ID>  (221) 
A A A A A A A Z Z Z Z Z Z Z Z Z Z Z

>  <atom.prop.IS_HEAVY_ATOM>  (221) 
1 0 0 0 1 1 1 1 0 0 0 1 0 0 1 0 0 0

>  <DIFUSE_FUNC_ATOM>  (221) 
atom 6   atom 7   

>  <FINAL_SINGLE_POINT_ENERGY>  (221) 
0

>  <NONCOV_INTER_ENERGY_QM>  (221) 
0

>  <FF_Energy>  (221) 
14.46

>  <QM_Energy>  (221) 
-3.32

>  <Index>  (221) 
16362

$$$$
ACET-pdb1aj8-A-GLU-327:PRPA-pdb1aj8-A-LYS-143
     RDKit          3D

 18 16  0  0  0  0  0  0  0  0999 V2000
    0.0173    1.5224    0.0063 C   0  0  0  0  0  0  0  0  0  0  0  0
    0.8315    1.8109   -0.4653 H   0  0  0  0  0  0  0  0  0  0  0  0
    0.0115    1.8137    0.9459 H   0  0  0  0  0  0  0  0  0  0  0  0
   -0.8435    1.9643   -0.4955 H   0  0  0  0  0  0  0  0  0  0  0  0
    0.0000    0.0000    0.0000 C   0  0  0  0  0  0  0  0  0  0  0  0
   -1.0972   -0.6004   -0.0000 O   0  0  0  0  0  1  0  0  0  0  0  0
    1.0972   -0.5975   -0.0000 O   0  0  0  0  0  0  0  0  0  0  0  0
    0.2251   -4.7600    3.1836 C   0  0  0  0  0  0  0  0  0  0  0  0
    1.1340   -4.5496    3.5414 H   0  0  0  0  0  0  0  0  0  0  0  0
    0.3091   -5.1771    2.2799 H   0  0  0  0  0  0  0  0  0  0  0  0
   -0.2683   -5.4619    3.8559 H   0  0  0  0  0  0  0  0  0  0  0  0
   -0.5641   -3.4619    3.0547 C   0  0  0  0  0  0  0  0  0  0  0  0
   -1.3642   -3.5163    3.6427 H   0  0  0  0  0  0  0  0  0  0  0  0
    0.0194   -2.7055    3.3287 H   0  0  0  0  0  0  0  0  0  0  0  0
   -1.0189   -3.2381    1.6291 C   0  0  0  0  0  0  0  0  0  0  0  0
   -1.0713   -2.2476    1.4559 H   0  0  0  0  0  0  0  0  0  0  0  0
   -0.3350   -3.6318    1.0022 H   0  0  0  0  0  0  0  0  0  0  0  0
   -1.9906   -3.6897    1.4294 H   0  0  0  0  0  0  0  0  0  0  0  0
  1  5  1  0
  5  6  1  0
  5  7  2  0
  1  2  1  0
  1  3  1  0
  1  4  1  0
  8 12  1  0
 12 15  1  0
  8  9  1  0
  8 10  1  0
  8 11  1  0
 12 13  1  0
 12 14  1  0
 15 16  1  0
 15 17  1  0
 15 18  1  0
M  CHG  1   6  -1
M  END
>  <PDB_ID>  (222) 
pdb1aj8

>  <RESIDUE_NAME>  (222) 
GLU   LYS

>  <FRAG_NAME>  (222) 
ACET   PRPA

>  <FRAG_ATOM_NUM>  (222) 
fragi: 7  fragj: 11

>  <atom.prop.CHAIN_ID>  (222) 
A A A A A A A Z Z Z Z Z Z Z Z Z Z Z

>  <atom.prop.IS_HEAVY_ATOM>  (222) 
1 0 0 0 1 1 1 1 0 0 0 1 0 0 1 0 0 0

>  <DIFUSE_FUNC_ATOM>  (222) 
atom 6   atom 7   

>  <FINAL_SINGLE_POINT_ENERGY>  (222) 
0

>  <NONCOV_INTER_ENERGY_QM>  (222) 
0

>  <FF_Energy>  (222) 
2.22

>  <QM_Energy>  (222) 
-2.86

>  <Index>  (222) 
16464

$$$$
ACET-pdb1a99-B-GLU-291:PRPA-pdb1a99-B-LYS-30
     RDKit          3D

 18 16  0  0  0  0  0  0  0  0999 V2000
    0.0018    1.5210    0.0004 C   0  0  0  0  0  0  0  0  0  0  0  0
    0.9323    1.8159   -0.1135 H   0  0  0  0  0  0  0  0  0  0  0  0
   -0.3804    1.8169    0.8564 H   0  0  0  0  0  0  0  0  0  0  0  0
   -0.5931    1.9488   -0.8065 H   0  0  0  0  0  0  0  0  0  0  0  0
    0.0000    0.0000    0.0000 C   0  0  0  0  0  0  0  0  0  0  0  0
   -1.0917   -0.5942   -0.0000 O   0  0  0  0  0  1  0  0  0  0  0  0
    1.0917   -0.6083   -0.0000 O   0  0  0  0  0  0  0  0  0  0  0  0
    2.8016    0.7938    3.2727 C   0  0  0  0  0  0  0  0  0  0  0  0
    3.4717    0.6835    4.0035 H   0  0  0  0  0  0  0  0  0  0  0  0
    1.9209    1.0605    3.6570 H   0  0  0  0  0  0  0  0  0  0  0  0
    3.1441    1.5683    2.5863 H   0  0  0  0  0  0  0  0  0  0  0  0
    2.6395   -0.5403    2.5509 C   0  0  0  0  0  0  0  0  0  0  0  0
    2.2047   -0.3784    1.6714 H   0  0  0  0  0  0  0  0  0  0  0  0
    3.5379   -0.9478    2.4224 H   0  0  0  0  0  0  0  0  0  0  0  0
    1.7758   -1.5108    3.3478 C   0  0  0  0  0  0  0  0  0  0  0  0
    2.2940   -1.8241    4.1487 H   0  0  0  0  0  0  0  0  0  0  0  0
    0.9526   -1.0293    3.6631 H   0  0  0  0  0  0  0  0  0  0  0  0
    1.4767   -2.3768    2.7573 H   0  0  0  0  0  0  0  0  0  0  0  0
  1  5  1  0
  5  6  1  0
  5  7  2  0
  1  2  1  0
  1  3  1  0
  1  4  1  0
  8 12  1  0
 12 15  1  0
  8  9  1  0
  8 10  1  0
  8 11  1  0
 12 13  1  0
 12 14  1  0
 15 16  1  0
 15 17  1  0
 15 18  1  0
M  CHG  1   6  -1
M  END
>  <PDB_ID>  (223) 
pdb1a99

>  <RESIDUE_NAME>  (223) 
GLU   LYS

>  <FRAG_NAME>  (223) 
ACET   PRPA

>  <FRAG_ATOM_NUM>  (223) 
fragi: 7  fragj: 11

>  <atom.prop.CHAIN_ID>  (223) 
A A A A A A A Z Z Z Z Z Z Z Z Z Z Z

>  <atom.prop.IS_HEAVY_ATOM>  (223) 
1 0 0 0 1 1 1 1 0 0 0 1 0 0 1 0 0 0

>  <DIFUSE_FUNC_ATOM>  (223) 
atom 6   atom 7   

>  <FINAL_SINGLE_POINT_ENERGY>  (223) 
0

>  <NONCOV_INTER_ENERGY_QM>  (223) 
0

>  <FF_Energy>  (223) 
7.03

>  <QM_Energy>  (223) 
-2.63

>  <Index>  (223) 
16545

$$$$
ACET-pdb1anf-A-GLU-28:PRPA-pdb1anf-A-LYS-34
     RDKit          3D

 18 16  0  0  0  0  0  0  0  0999 V2000
   -0.4084    1.4356   -0.0006 C   0  0  0  0  0  0  0  0  0  0  0  0
   -0.1857    1.8211   -0.8516 H   0  0  0  0  0  0  0  0  0  0  0  0
   -0.0362    1.8642    0.7742 H   0  0  0  0  0  0  0  0  0  0  0  0
   -1.4939    1.4535    0.0976 H   0  0  0  0  0  0  0  0  0  0  0  0
    0.0000    0.0000    0.0000 C   0  0  0  0  0  0  0  0  0  0  0  0
   -1.0795   -0.6761   -0.0000 O   0  0  0  0  0  1  0  0  0  0  0  0
    1.0795   -0.4915    0.0000 O   0  0  0  0  0  0  0  0  0  0  0  0
   -1.6389   -1.1061    3.0452 C   0  0  0  0  0  0  0  0  0  0  0  0
   -1.7495   -0.6411    2.1720 H   0  0  0  0  0  0  0  0  0  0  0  0
   -1.6865   -0.3761    3.8534 H   0  0  0  0  0  0  0  0  0  0  0  0
   -2.4605   -1.8132    3.1597 H   0  0  0  0  0  0  0  0  0  0  0  0
   -0.3292   -1.8721    3.0158 C   0  0  0  0  0  0  0  0  0  0  0  0
   -0.0657   -2.0220    2.0877 H   0  0  0  0  0  0  0  0  0  0  0  0
    0.3400   -1.3830    3.5344 H   0  0  0  0  0  0  0  0  0  0  0  0
   -0.5360   -3.2454    3.6793 C   0  0  0  0  0  0  0  0  0  0  0  0
   -1.1804   -3.1212    4.4634 H   0  0  0  0  0  0  0  0  0  0  0  0
   -1.0199   -3.8481    3.0101 H   0  0  0  0  0  0  0  0  0  0  0  0
    0.3581   -3.7573    4.0352 H   0  0  0  0  0  0  0  0  0  0  0  0
  1  5  1  0
  5  6  1  0
  5  7  2  0
  1  2  1  0
  1  3  1  0
  1  4  1  0
  8 12  1  0
 12 15  1  0
  8  9  1  0
  8 10  1  0
  8 11  1  0
 12 13  1  0
 12 14  1  0
 15 16  1  0
 15 17  1  0
 15 18  1  0
M  CHG  1   6  -1
M  END
>  <PDB_ID>  (224) 
pdb1anf

>  <RESIDUE_NAME>  (224) 
GLU   LYS

>  <FRAG_NAME>  (224) 
ACET   PRPA

>  <FRAG_ATOM_NUM>  (224) 
fragi: 7  fragj: 11

>  <atom.prop.CHAIN_ID>  (224) 
A A A A A A A Z Z Z Z Z Z Z Z Z Z Z

>  <atom.prop.IS_HEAVY_ATOM>  (224) 
1 0 0 0 1 1 1 1 0 0 0 1 0 0 1 0 0 0

>  <DIFUSE_FUNC_ATOM>  (224) 
atom 6   atom 7   

>  <FINAL_SINGLE_POINT_ENERGY>  (224) 
0

>  <NONCOV_INTER_ENERGY_QM>  (224) 
0

>  <FF_Energy>  (224) 
1.42

>  <QM_Energy>  (224) 
-5.5

>  <Index>  (224) 
16681

$$$$
ACET-pdb2ash-A-ASP-136:PRPA-pdb2ash-A-PRO-85
     RDKit          3D

 18 16  0  0  0  0  0  0  0  0999 V2000
   -0.0313    1.5004   -0.0001 C   0  0  0  0  0  0  0  0  0  0  0  0
   -0.7276    1.8138   -0.6371 H   0  0  0  0  0  0  0  0  0  0  0  0
    0.8619    1.8472   -0.2652 H   0  0  0  0  0  0  0  0  0  0  0  0
   -0.2701    1.9150    0.9792 H   0  0  0  0  0  0  0  0  0  0  0  0
    0.0000    0.0000    0.0000 C   0  0  0  0  0  0  0  0  0  0  0  0
   -1.1072   -0.6281    0.0000 O   0  0  0  0  0  1  0  0  0  0  0  0
    1.1072   -0.5728   -0.0000 O   0  0  0  0  0  0  0  0  0  0  0  0
   -1.3428   -1.4419   -2.9619 C   0  0  0  0  0  0  0  0  0  0  0  0
   -1.0123   -1.4829   -1.9654 H   0  0  0  0  0  0  0  0  0  0  0  0
   -0.9836   -2.3218   -3.4955 H   0  0  0  0  0  0  0  0  0  0  0  0
   -2.4002   -1.1779   -2.9800 H   0  0  0  0  0  0  0  0  0  0  0  0
   -0.5074   -0.3243   -3.5674 C   0  0  0  0  0  0  0  0  0  0  0  0
   -0.9670    0.0885   -4.3527 H   0  0  0  0  0  0  0  0  0  0  0  0
   -0.2983    0.3810   -2.8918 H   0  0  0  0  0  0  0  0  0  0  0  0
    0.7692   -1.0191   -4.0136 C   0  0  0  0  0  0  0  0  0  0  0  0
    1.2432   -0.4586   -4.6717 H   0  0  0  0  0  0  0  0  0  0  0  0
    1.3317   -1.2208   -3.2305 H   0  0  0  0  0  0  0  0  0  0  0  0
    0.3575   -1.9216   -4.4654 H   0  0  0  0  0  0  0  0  0  0  0  0
  1  5  1  0
  5  6  1  0
  5  7  2  0
  1  2  1  0
  1  3  1  0
  1  4  1  0
  8 12  1  0
 12 15  1  0
  8  9  1  0
  8 10  1  0
  8 11  1  0
 12 13  1  0
 12 14  1  0
 15 16  1  0
 15 17  1  0
 15 18  1  0
M  CHG  1   6  -1
M  END
>  <PDB_ID>  (225) 
pdb2ash

>  <RESIDUE_NAME>  (225) 
ASP   PRO

>  <FRAG_NAME>  (225) 
ACET   PRPA

>  <FRAG_ATOM_NUM>  (225) 
fragi: 7  fragj: 11

>  <atom.prop.CHAIN_ID>  (225) 
A A A A A A A Z Z Z Z Z Z Z Z Z Z Z

>  <atom.prop.IS_HEAVY_ATOM>  (225) 
1 0 0 0 1 1 1 1 0 0 0 1 0 0 1 0 0 0

>  <DIFUSE_FUNC_ATOM>  (225) 
atom 6   atom 7   

>  <FINAL_SINGLE_POINT_ENERGY>  (225) 
0

>  <NONCOV_INTER_ENERGY_QM>  (225) 
0

>  <FF_Energy>  (225) 
3.9

>  <QM_Energy>  (225) 
-5.07

>  <Index>  (225) 
16830

$$$$
ACET-pdb2b2f-A-ASP-381:PRPA-pdb2b2f-A-VAL-37
     RDKit          3D

 18 16  0  0  0  0  0  0  0  0999 V2000
   -0.0080    1.5191   -0.0053 C   0  0  0  0  0  0  0  0  0  0  0  0
    0.4008    1.8380   -0.8514 H   0  0  0  0  0  0  0  0  0  0  0  0
    0.5062    1.8447    0.7773 H   0  0  0  0  0  0  0  0  0  0  0  0
   -1.0153    1.9308    0.0582 H   0  0  0  0  0  0  0  0  0  0  0  0
    0.0000    0.0000    0.0000 C   0  0  0  0  0  0  0  0  0  0  0  0
   -1.0986   -0.5973   -0.0000 O   0  0  0  0  0  1  0  0  0  0  0  0
    1.0986   -0.6022    0.0000 O   0  0  0  0  0  0  0  0  0  0  0  0
   -0.4236   -2.5131    3.0179 C   0  0  0  0  0  0  0  0  0  0  0  0
   -0.0650   -3.1086    3.7482 H   0  0  0  0  0  0  0  0  0  0  0  0
    0.0150   -2.8337    2.0728 H   0  0  0  0  0  0  0  0  0  0  0  0
   -1.5087   -2.6150    3.0039 H   0  0  0  0  0  0  0  0  0  0  0  0
   -0.0517   -1.0497    3.3318 C   0  0  0  0  0  0  0  0  0  0  0  0
   -0.3265   -0.4943    2.5550 H   0  0  0  0  0  0  0  0  0  0  0  0
   -0.6154   -0.6922    4.1935 H   0  0  0  0  0  0  0  0  0  0  0  0
    1.4327   -0.9556    3.5976 C   0  0  0  0  0  0  0  0  0  0  0  0
    1.6065   -1.0759    4.5764 H   0  0  0  0  0  0  0  0  0  0  0  0
    1.9116   -1.6704    3.0843 H   0  0  0  0  0  0  0  0  0  0  0  0
    1.7686   -0.0571    3.3094 H   0  0  0  0  0  0  0  0  0  0  0  0
  1  5  1  0
  5  6  1  0
  5  7  2  0
  1  2  1  0
  1  3  1  0
  1  4  1  0
  8 12  1  0
 12 15  1  0
  8  9  1  0
  8 10  1  0
  8 11  1  0
 12 13  1  0
 12 14  1  0
 15 16  1  0
 15 17  1  0
 15 18  1  0
M  CHG  1   6  -1
M  END
>  <PDB_ID>  (226) 
pdb2b2f

>  <RESIDUE_NAME>  (226) 
ASP   VAL

>  <FRAG_NAME>  (226) 
ACET   PRPA

>  <FRAG_ATOM_NUM>  (226) 
fragi: 7  fragj: 11

>  <atom.prop.CHAIN_ID>  (226) 
A A A A A A A Z Z Z Z Z Z Z Z Z Z Z

>  <atom.prop.IS_HEAVY_ATOM>  (226) 
1 0 0 0 1 1 1 1 0 0 0 1 0 0 1 0 0 0

>  <DIFUSE_FUNC_ATOM>  (226) 
atom 6   atom 7   

>  <FINAL_SINGLE_POINT_ENERGY>  (226) 
0

>  <NONCOV_INTER_ENERGY_QM>  (226) 
0

>  <FF_Energy>  (226) 
0.13

>  <QM_Energy>  (226) 
-4.88

>  <Index>  (226) 
16845

$$$$
ACET-pdb2b4a-A-ASP-114:PRPA-pdb2b4a-A-LEU-26
     RDKit          3D

 18 16  0  0  0  0  0  0  0  0999 V2000
    0.0497    1.5642   -0.0196 C   0  0  0  0  0  0  0  0  0  0  0  0
    0.5349    1.8374   -0.8365 H   0  0  0  0  0  0  0  0  0  0  0  0
    0.5242    1.8584    0.7959 H   0  0  0  0  0  0  0  0  0  0  0  0
   -0.9407    2.0192   -0.0324 H   0  0  0  0  0  0  0  0  0  0  0  0
    0.0000    0.0000    0.0000 C   0  0  0  0  0  0  0  0  0  0  0  0
   -1.0949   -0.5727    0.0000 O   0  0  0  0  0  1  0  0  0  0  0  0
    1.0949   -0.5668   -0.0000 O   0  0  0  0  0  0  0  0  0  0  0  0
   -1.7233   -1.5870   -3.3505 C   0  0  0  0  0  0  0  0  0  0  0  0
   -1.7416   -0.8618   -2.6581 H   0  0  0  0  0  0  0  0  0  0  0  0
   -0.9336   -1.4458   -3.9514 H   0  0  0  0  0  0  0  0  0  0  0  0
   -2.5627   -1.5396   -3.8964 H   0  0  0  0  0  0  0  0  0  0  0  0
   -1.6231   -2.9341   -2.6795 C   0  0  0  0  0  0  0  0  0  0  0  0
   -1.6113   -3.6622   -3.3661 H   0  0  0  0  0  0  0  0  0  0  0  0
   -2.4724   -3.1104   -2.0195 H   0  0  0  0  0  0  0  0  0  0  0  0
   -0.2621   -3.0336   -1.9780 C   0  0  0  0  0  0  0  0  0  0  0  0
   -0.1566   -3.9489   -1.5940 H   0  0  0  0  0  0  0  0  0  0  0  0
    0.4631   -2.8614   -2.6425 H   0  0  0  0  0  0  0  0  0  0  0  0
   -0.2184   -2.3538   -1.2471 H   0  0  0  0  0  0  0  0  0  0  0  0
  1  5  1  0
  5  6  1  0
  5  7  2  0
  1  2  1  0
  1  3  1  0
  1  4  1  0
  8 12  1  0
 12 15  1  0
  8  9  1  0
  8 10  1  0
  8 11  1  0
 12 13  1  0
 12 14  1  0
 15 16  1  0
 15 17  1  0
 15 18  1  0
M  CHG  1   6  -1
M  END
>  <PDB_ID>  (227) 
pdb2b4a

>  <RESIDUE_NAME>  (227) 
ASP   LEU

>  <FRAG_NAME>  (227) 
ACET   PRPA

>  <FRAG_ATOM_NUM>  (227) 
fragi: 7  fragj: 11

>  <atom.prop.CHAIN_ID>  (227) 
A A A A A A A Z Z Z Z Z Z Z Z Z Z Z

>  <atom.prop.IS_HEAVY_ATOM>  (227) 
1 0 0 0 1 1 1 1 0 0 0 1 0 0 1 0 0 0

>  <DIFUSE_FUNC_ATOM>  (227) 
atom 6   atom 7   

>  <FINAL_SINGLE_POINT_ENERGY>  (227) 
0

>  <NONCOV_INTER_ENERGY_QM>  (227) 
0

>  <FF_Energy>  (227) 
1.18

>  <QM_Energy>  (227) 
-4.59

>  <Index>  (227) 
16935

$$$$
ACET-pdb2axn-A-ASP-184:PRPA-pdb2axn-A-LYS-188
     RDKit          3D

 18 16  0  0  0  0  0  0  0  0999 V2000
    0.0066    1.5198   -0.0210 C   0  0  0  0  0  0  0  0  0  0  0  0
    0.7371    1.8453    0.5669 H   0  0  0  0  0  0  0  0  0  0  0  0
   -0.8726    1.8491    0.2967 H   0  0  0  0  0  0  0  0  0  0  0  0
    0.1753    1.9253   -1.0186 H   0  0  0  0  0  0  0  0  0  0  0  0
    0.0000    0.0000    0.0000 C   0  0  0  0  0  0  0  0  0  0  0  0
   -1.1028   -0.5965    0.0000 O   0  0  0  0  0  1  0  0  0  0  0  0
    1.1028   -0.6000   -0.0000 O   0  0  0  0  0  0  0  0  0  0  0  0
   -0.9865   -2.5824   -4.0040 C   0  0  0  0  0  0  0  0  0  0  0  0
   -0.2965   -3.2906   -4.1671 H   0  0  0  0  0  0  0  0  0  0  0  0
   -0.5335   -1.7508   -3.6762 H   0  0  0  0  0  0  0  0  0  0  0  0
   -1.4893   -2.3601   -4.9452 H   0  0  0  0  0  0  0  0  0  0  0  0
   -1.9538   -3.0751   -2.9276 C   0  0  0  0  0  0  0  0  0  0  0  0
   -2.7194   -2.4478   -2.8728 H   0  0  0  0  0  0  0  0  0  0  0  0
   -2.2612   -3.9877   -3.1644 H   0  0  0  0  0  0  0  0  0  0  0  0
   -1.2754   -3.1335   -1.5549 C   0  0  0  0  0  0  0  0  0  0  0  0
   -1.0013   -2.2059   -1.2958 H   0  0  0  0  0  0  0  0  0  0  0  0
   -1.9366   -3.4803   -0.8878 H   0  0  0  0  0  0  0  0  0  0  0  0
   -0.3993   -3.7818   -1.5704 H   0  0  0  0  0  0  0  0  0  0  0  0
  1  5  1  0
  5  6  1  0
  5  7  2  0
  1  2  1  0
  1  3  1  0
  1  4  1  0
  8 12  1  0
 12 15  1  0
  8  9  1  0
  8 10  1  0
  8 11  1  0
 12 13  1  0
 12 14  1  0
 15 16  1  0
 15 17  1  0
 15 18  1  0
M  CHG  1   6  -1
M  END
>  <PDB_ID>  (228) 
pdb2axn

>  <RESIDUE_NAME>  (228) 
ASP   LYS

>  <FRAG_NAME>  (228) 
ACET   PRPA

>  <FRAG_ATOM_NUM>  (228) 
fragi: 7  fragj: 11

>  <atom.prop.CHAIN_ID>  (228) 
A A A A A A A Z Z Z Z Z Z Z Z Z Z Z

>  <atom.prop.IS_HEAVY_ATOM>  (228) 
1 0 0 0 1 1 1 1 0 0 0 1 0 0 1 0 0 0

>  <DIFUSE_FUNC_ATOM>  (228) 
atom 6   atom 7   

>  <FINAL_SINGLE_POINT_ENERGY>  (228) 
0

>  <NONCOV_INTER_ENERGY_QM>  (228) 
0

>  <FF_Energy>  (228) 
6.89

>  <QM_Energy>  (228) 
-2.4

>  <Index>  (228) 
17069

$$$$
ACET-pdb2awd-A-ASP-122:PRPA-pdb2awd-A-LYS-152
     RDKit          3D

 18 16  0  0  0  0  0  0  0  0999 V2000
   -0.0360    1.5294    0.0051 C   0  0  0  0  0  0  0  0  0  0  0  0
   -0.6725    1.8242    0.7099 H   0  0  0  0  0  0  0  0  0  0  0  0
   -0.3434    1.8384   -0.8885 H   0  0  0  0  0  0  0  0  0  0  0  0
    0.9343    1.9819    0.2096 H   0  0  0  0  0  0  0  0  0  0  0  0
    0.0000    0.0000    0.0000 C   0  0  0  0  0  0  0  0  0  0  0  0
   -1.1073   -0.5926    0.0000 O   0  0  0  0  0  1  0  0  0  0  0  0
    1.1073   -0.6123    0.0000 O   0  0  0  0  0  0  0  0  0  0  0  0
    2.7142   -3.6347    0.4207 C   0  0  0  0  0  0  0  0  0  0  0  0
    2.0548   -3.5665   -0.3402 H   0  0  0  0  0  0  0  0  0  0  0  0
    2.9635   -4.6053    0.5329 H   0  0  0  0  0  0  0  0  0  0  0  0
    3.6135   -3.0916    0.1300 H   0  0  0  0  0  0  0  0  0  0  0  0
    2.1190   -3.1138    1.6588 C   0  0  0  0  0  0  0  0  0  0  0  0
    2.7150   -3.3168    2.4378 H   0  0  0  0  0  0  0  0  0  0  0  0
    1.9937   -2.1222    1.5897 H   0  0  0  0  0  0  0  0  0  0  0  0
    0.7684   -3.7350    1.9309 C   0  0  0  0  0  0  0  0  0  0  0  0
    0.8599   -4.7426    1.8927 H   0  0  0  0  0  0  0  0  0  0  0  0
    0.4815   -3.4926    2.8712 H   0  0  0  0  0  0  0  0  0  0  0  0
   -0.0031   -3.4186    1.2290 H   0  0  0  0  0  0  0  0  0  0  0  0
  1  5  1  0
  5  6  1  0
  5  7  2  0
  1  2  1  0
  1  3  1  0
  1  4  1  0
  8 12  1  0
 12 15  1  0
  8  9  1  0
  8 10  1  0
  8 11  1  0
 12 13  1  0
 12 14  1  0
 15 16  1  0
 15 17  1  0
 15 18  1  0
M  CHG  1   6  -1
M  END
>  <PDB_ID>  (229) 
pdb2awd

>  <RESIDUE_NAME>  (229) 
ASP   LYS

>  <FRAG_NAME>  (229) 
ACET   PRPA

>  <FRAG_ATOM_NUM>  (229) 
fragi: 7  fragj: 11

>  <atom.prop.CHAIN_ID>  (229) 
A A A A A A A Z Z Z Z Z Z Z Z Z Z Z

>  <atom.prop.IS_HEAVY_ATOM>  (229) 
1 0 0 0 1 1 1 1 0 0 0 1 0 0 1 0 0 0

>  <DIFUSE_FUNC_ATOM>  (229) 
atom 6   atom 7   

>  <FINAL_SINGLE_POINT_ENERGY>  (229) 
0

>  <NONCOV_INTER_ENERGY_QM>  (229) 
0

>  <FF_Energy>  (229) 
0.28

>  <QM_Energy>  (229) 
-4.73

>  <Index>  (229) 
17229

$$$$
ACET-pdb2abj-G-ASP-27:PRPA-pdb2abj-G-LYS-68
     RDKit          3D

 18 16  0  0  0  0  0  0  0  0999 V2000
    0.0040    1.5101   -0.0420 C   0  0  0  0  0  0  0  0  0  0  0  0
   -0.4210    1.8141   -0.8890 H   0  0  0  0  0  0  0  0  0  0  0  0
    0.9420    1.8366    0.0090 H   0  0  0  0  0  0  0  0  0  0  0  0
   -0.5458    1.9659    0.7815 H   0  0  0  0  0  0  0  0  0  0  0  0
    0.0000    0.0000    0.0000 C   0  0  0  0  0  0  0  0  0  0  0  0
   -1.0985   -0.5945    0.0000 O   0  0  0  0  0  1  0  0  0  0  0  0
    1.0985   -0.5962   -0.0000 O   0  0  0  0  0  0  0  0  0  0  0  0
   -1.9010    0.3833   -3.6992 C   0  0  0  0  0  0  0  0  0  0  0  0
   -1.3858   -0.2307   -3.1166 H   0  0  0  0  0  0  0  0  0  0  0  0
   -1.7960    0.1381   -4.6538 H   0  0  0  0  0  0  0  0  0  0  0  0
   -2.9558    0.3303   -3.4297 H   0  0  0  0  0  0  0  0  0  0  0  0
   -1.3751    1.8143   -3.4949 C   0  0  0  0  0  0  0  0  0  0  0  0
   -2.1034    2.4541   -3.7377 H   0  0  0  0  0  0  0  0  0  0  0  0
   -1.1367    1.9277   -2.5316 H   0  0  0  0  0  0  0  0  0  0  0  0
   -0.1514    2.1220   -4.3412 C   0  0  0  0  0  0  0  0  0  0  0  0
   -0.4294    2.1696   -5.3105 H   0  0  0  0  0  0  0  0  0  0  0  0
    0.2077    3.0292   -4.0777 H   0  0  0  0  0  0  0  0  0  0  0  0
    0.6432    1.3831   -4.2371 H   0  0  0  0  0  0  0  0  0  0  0  0
  1  5  1  0
  5  6  1  0
  5  7  2  0
  1  2  1  0
  1  3  1  0
  1  4  1  0
  8 12  1  0
 12 15  1  0
  8  9  1  0
  8 10  1  0
  8 11  1  0
 12 13  1  0
 12 14  1  0
 15 16  1  0
 15 17  1  0
 15 18  1  0
M  CHG  1   6  -1
M  END
>  <PDB_ID>  (230) 
pdb2abj

>  <RESIDUE_NAME>  (230) 
ASP   LYS

>  <FRAG_NAME>  (230) 
ACET   PRPA

>  <FRAG_ATOM_NUM>  (230) 
fragi: 7  fragj: 11

>  <atom.prop.CHAIN_ID>  (230) 
A A A A A A A Z Z Z Z Z Z Z Z Z Z Z

>  <atom.prop.IS_HEAVY_ATOM>  (230) 
1 0 0 0 1 1 1 1 0 0 0 1 0 0 1 0 0 0

>  <DIFUSE_FUNC_ATOM>  (230) 
atom 6   atom 7   

>  <FINAL_SINGLE_POINT_ENERGY>  (230) 
0

>  <NONCOV_INTER_ENERGY_QM>  (230) 
0

>  <FF_Energy>  (230) 
1.8

>  <QM_Energy>  (230) 
-1.6

>  <Index>  (230) 
17307

$$$$
ACET-pdb2b2t-A-GLU-77:PRPA-pdb2b2t-A-LEU-91
     RDKit          3D

 18 16  0  0  0  0  0  0  0  0999 V2000
    0.0052    1.5204    0.0154 C   0  0  0  0  0  0  0  0  0  0  0  0
    0.9246    1.8119   -0.1693 H   0  0  0  0  0  0  0  0  0  0  0  0
   -0.3087    1.8039    0.9010 H   0  0  0  0  0  0  0  0  0  0  0  0
   -0.6540    1.9423   -0.7432 H   0  0  0  0  0  0  0  0  0  0  0  0
    0.0000    0.0000    0.0000 C   0  0  0  0  0  0  0  0  0  0  0  0
   -1.0996   -0.6039    0.0000 O   0  0  0  0  0  1  0  0  0  0  0  0
    1.0996   -0.5906    0.0000 O   0  0  0  0  0  0  0  0  0  0  0  0
   -4.1762    1.8589    3.1778 C   0  0  0  0  0  0  0  0  0  0  0  0
   -4.1388    2.8505    3.0650 H   0  0  0  0  0  0  0  0  0  0  0  0
   -4.3360    1.4258    2.2923 H   0  0  0  0  0  0  0  0  0  0  0  0
   -4.9132    1.6190    3.8073 H   0  0  0  0  0  0  0  0  0  0  0  0
   -2.8438    1.3652    3.7489 C   0  0  0  0  0  0  0  0  0  0  0  0
   -2.8818    0.3752    3.8633 H   0  0  0  0  0  0  0  0  0  0  0  0
   -2.6530    1.8286    4.7169 H   0  0  0  0  0  0  0  0  0  0  0  0
   -1.7033    1.6729    2.8027 C   0  0  0  0  0  0  0  0  0  0  0  0
   -0.8462    1.3138    3.1772 H   0  0  0  0  0  0  0  0  0  0  0  0
   -1.8777    1.2472    1.9119 H   0  0  0  0  0  0  0  0  0  0  0  0
   -1.6202    2.6642    2.6826 H   0  0  0  0  0  0  0  0  0  0  0  0
  1  5  1  0
  5  6  1  0
  5  7  2  0
  1  2  1  0
  1  3  1  0
  1  4  1  0
  8 12  1  0
 12 15  1  0
  8  9  1  0
  8 10  1  0
  8 11  1  0
 12 13  1  0
 12 14  1  0
 15 16  1  0
 15 17  1  0
 15 18  1  0
M  CHG  1   6  -1
M  END
>  <PDB_ID>  (231) 
pdb2b2t

>  <RESIDUE_NAME>  (231) 
GLU   LEU

>  <FRAG_NAME>  (231) 
ACET   PRPA

>  <FRAG_ATOM_NUM>  (231) 
fragi: 7  fragj: 11

>  <atom.prop.CHAIN_ID>  (231) 
A A A A A A A Z Z Z Z Z Z Z Z Z Z Z

>  <atom.prop.IS_HEAVY_ATOM>  (231) 
1 0 0 0 1 1 1 1 0 0 0 1 0 0 1 0 0 0

>  <DIFUSE_FUNC_ATOM>  (231) 
atom 6   atom 7   

>  <FINAL_SINGLE_POINT_ENERGY>  (231) 
0

>  <NONCOV_INTER_ENERGY_QM>  (231) 
0

>  <FF_Energy>  (231) 
1.92

>  <QM_Energy>  (231) 
-1.24

>  <Index>  (231) 
17309

$$$$
ACET-pdb1amh-A-GLU-169:PRPA-pdb1amh-A-ILE-176
     RDKit          3D

 18 16  0  0  0  0  0  0  0  0999 V2000
   -0.0025    1.5268   -0.0029 C   0  0  0  0  0  0  0  0  0  0  0  0
    0.9316    1.8229   -0.0306 H   0  0  0  0  0  0  0  0  0  0  0  0
   -0.4690    1.8219    0.8075 H   0  0  0  0  0  0  0  0  0  0  0  0
   -0.5186    1.9452   -0.8669 H   0  0  0  0  0  0  0  0  0  0  0  0
    0.0000    0.0000    0.0000 C   0  0  0  0  0  0  0  0  0  0  0  0
   -1.0835   -0.6233    0.0000 O   0  0  0  0  0  1  0  0  0  0  0  0
    1.0835   -0.6224   -0.0000 O   0  0  0  0  0  0  0  0  0  0  0  0
    4.7026   -2.0285   -0.4586 C   0  0  0  0  0  0  0  0  0  0  0  0
    5.5284   -2.3023   -0.9634 H   0  0  0  0  0  0  0  0  0  0  0  0
    3.9481   -2.7820   -0.6844 H   0  0  0  0  0  0  0  0  0  0  0  0
    4.9722   -2.0211    0.5975 H   0  0  0  0  0  0  0  0  0  0  0  0
    4.1842   -0.6361   -0.8154 C   0  0  0  0  0  0  0  0  0  0  0  0
    3.3558   -0.4623   -0.2740 H   0  0  0  0  0  0  0  0  0  0  0  0
    4.9128    0.1494   -0.6148 H   0  0  0  0  0  0  0  0  0  0  0  0
    3.8101   -0.5024   -2.2934 C   0  0  0  0  0  0  0  0  0  0  0  0
    3.0041   -1.0544   -2.4707 H   0  0  0  0  0  0  0  0  0  0  0  0
    3.6049    0.4527   -2.4828 H   0  0  0  0  0  0  0  0  0  0  0  0
    4.6056   -0.8225   -2.9662 H   0  0  0  0  0  0  0  0  0  0  0  0
  1  5  1  0
  5  6  1  0
  5  7  2  0
  1  2  1  0
  1  3  1  0
  1  4  1  0
  8 12  1  0
 12 15  1  0
  8  9  1  0
  8 10  1  0
  8 11  1  0
 12 13  1  0
 12 14  1  0
 15 16  1  0
 15 17  1  0
 15 18  1  0
M  CHG  1   6  -1
M  END
>  <PDB_ID>  (232) 
pdb1amh

>  <RESIDUE_NAME>  (232) 
GLU   ILE

>  <FRAG_NAME>  (232) 
ACET   PRPA

>  <FRAG_ATOM_NUM>  (232) 
fragi: 7  fragj: 11

>  <atom.prop.CHAIN_ID>  (232) 
A A A A A A A Z Z Z Z Z Z Z Z Z Z Z

>  <atom.prop.IS_HEAVY_ATOM>  (232) 
1 0 0 0 1 1 1 1 0 0 0 1 0 0 1 0 0 0

>  <DIFUSE_FUNC_ATOM>  (232) 
atom 6   atom 7   

>  <FINAL_SINGLE_POINT_ENERGY>  (232) 
0

>  <NONCOV_INTER_ENERGY_QM>  (232) 
0

>  <FF_Energy>  (232) 
0.81

>  <QM_Energy>  (232) 
-4.58

>  <Index>  (232) 
17441

$$$$
ACET-pdb1af6-A-ASP-409:PRPA-pdb1af6-A-LYS-371
     RDKit          3D

 18 16  0  0  0  0  0  0  0  0999 V2000
   -0.0967    1.4893    0.0116 C   0  0  0  0  0  0  0  0  0  0  0  0
    0.1329    1.8582   -0.8574 H   0  0  0  0  0  0  0  0  0  0  0  0
    0.4088    1.8639    0.7511 H   0  0  0  0  0  0  0  0  0  0  0  0
   -1.1367    1.7642    0.1881 H   0  0  0  0  0  0  0  0  0  0  0  0
    0.0000    0.0000    0.0000 C   0  0  0  0  0  0  0  0  0  0  0  0
   -1.0971   -0.6259   -0.0000 O   0  0  0  0  0  1  0  0  0  0  0  0
    1.0971   -0.5796   -0.0000 O   0  0  0  0  0  0  0  0  0  0  0  0
   -4.7821   -1.2764    0.2023 C   0  0  0  0  0  0  0  0  0  0  0  0
   -4.2705   -0.4277    0.1160 H   0  0  0  0  0  0  0  0  0  0  0  0
   -5.0493   -1.4353    1.2470 H   0  0  0  0  0  0  0  0  0  0  0  0
   -5.7073   -1.1827   -0.3663 H   0  0  0  0  0  0  0  0  0  0  0  0
   -3.9392   -2.4088   -0.3926 C   0  0  0  0  0  0  0  0  0  0  0  0
   -3.2728   -2.6928    0.2868 H   0  0  0  0  0  0  0  0  0  0  0  0
   -4.5452   -3.1623   -0.6222 H   0  0  0  0  0  0  0  0  0  0  0  0
   -3.1869   -1.9965   -1.6581 C   0  0  0  0  0  0  0  0  0  0  0  0
   -3.2421   -0.9954   -1.7504 H   0  0  0  0  0  0  0  0  0  0  0  0
   -2.2199   -2.2536   -1.5534 H   0  0  0  0  0  0  0  0  0  0  0  0
   -3.5882   -2.4627   -2.5578 H   0  0  0  0  0  0  0  0  0  0  0  0
  1  5  1  0
  5  6  1  0
  5  7  2  0
  1  2  1  0
  1  3  1  0
  1  4  1  0
  8 12  1  0
 12 15  1  0
  8  9  1  0
  8 10  1  0
  8 11  1  0
 12 13  1  0
 12 14  1  0
 15 16  1  0
 15 17  1  0
 15 18  1  0
M  CHG  1   6  -1
M  END
>  <PDB_ID>  (233) 
pdb1af6

>  <RESIDUE_NAME>  (233) 
ASP   LYS

>  <FRAG_NAME>  (233) 
ACET   PRPA

>  <FRAG_ATOM_NUM>  (233) 
fragi: 7  fragj: 11

>  <atom.prop.CHAIN_ID>  (233) 
A A A A A A A Z Z Z Z Z Z Z Z Z Z Z

>  <atom.prop.IS_HEAVY_ATOM>  (233) 
1 0 0 0 1 1 1 1 0 0 0 1 0 0 1 0 0 0

>  <DIFUSE_FUNC_ATOM>  (233) 
atom 6   atom 7   

>  <FINAL_SINGLE_POINT_ENERGY>  (233) 
0

>  <NONCOV_INTER_ENERGY_QM>  (233) 
0

>  <FF_Energy>  (233) 
6.18

>  <QM_Energy>  (233) 
-4.64

>  <Index>  (233) 
17472

$$$$
ACET-pdb1amk-A-GLU-97:PRPA-pdb1amk-A-LYS-13
     RDKit          3D

 18 16  0  0  0  0  0  0  0  0999 V2000
    0.0149    1.5142    0.0618 C   0  0  0  0  0  0  0  0  0  0  0  0
   -0.2011    1.8603   -0.8248 H   0  0  0  0  0  0  0  0  0  0  0  0
    0.8900    1.7995    0.3877 H   0  0  0  0  0  0  0  0  0  0  0  0
   -0.7330    1.9026    0.7532 H   0  0  0  0  0  0  0  0  0  0  0  0
    0.0000    0.0000    0.0000 C   0  0  0  0  0  0  0  0  0  0  0  0
   -1.0970   -0.5838   -0.0000 O   0  0  0  0  0  1  0  0  0  0  0  0
    1.0970   -0.5782   -0.0000 O   0  0  0  0  0  0  0  0  0  0  0  0
   -1.3253   -5.0340   -0.4668 C   0  0  0  0  0  0  0  0  0  0  0  0
   -1.2687   -4.7945    0.5339 H   0  0  0  0  0  0  0  0  0  0  0  0
   -0.9318   -5.9832   -0.5339 H   0  0  0  0  0  0  0  0  0  0  0  0
   -2.3708   -5.0533   -0.7745 H   0  0  0  0  0  0  0  0  0  0  0  0
   -0.3313   -4.0803   -1.2144 C   0  0  0  0  0  0  0  0  0  0  0  0
    0.2586   -4.6348   -1.7689 H   0  0  0  0  0  0  0  0  0  0  0  0
   -0.8603   -3.4453   -1.7424 H   0  0  0  0  0  0  0  0  0  0  0  0
    0.5034   -3.3170   -0.1922 C   0  0  0  0  0  0  0  0  0  0  0  0
    0.1217   -2.3914   -0.0778 H   0  0  0  0  0  0  0  0  0  0  0  0
    0.4540   -3.7901    0.6966 H   0  0  0  0  0  0  0  0  0  0  0  0
    1.5538   -3.2202   -0.4668 H   0  0  0  0  0  0  0  0  0  0  0  0
  1  5  1  0
  5  6  1  0
  5  7  2  0
  1  2  1  0
  1  3  1  0
  1  4  1  0
  8 12  1  0
 12 15  1  0
  8  9  1  0
  8 10  1  0
  8 11  1  0
 12 13  1  0
 12 14  1  0
 15 16  1  0
 15 17  1  0
 15 18  1  0
M  CHG  1   6  -1
M  END
>  <PDB_ID>  (234) 
pdb1amk

>  <RESIDUE_NAME>  (234) 
GLU   LYS

>  <FRAG_NAME>  (234) 
ACET   PRPA

>  <FRAG_ATOM_NUM>  (234) 
fragi: 7  fragj: 11

>  <atom.prop.CHAIN_ID>  (234) 
A A A A A A A Z Z Z Z Z Z Z Z Z Z Z

>  <atom.prop.IS_HEAVY_ATOM>  (234) 
1 0 0 0 1 1 1 1 0 0 0 1 0 0 1 0 0 0

>  <DIFUSE_FUNC_ATOM>  (234) 
atom 6   atom 7   

>  <FINAL_SINGLE_POINT_ENERGY>  (234) 
0

>  <NONCOV_INTER_ENERGY_QM>  (234) 
0

>  <FF_Energy>  (234) 
15.94

>  <QM_Energy>  (234) 
0.05

>  <Index>  (234) 
17548

$$$$
ACET-pdb1anf-A-ASP-136:PRPA-pdb1anf-A-LYS-140
     RDKit          3D

 18 16  0  0  0  0  0  0  0  0999 V2000
   -0.0263    1.4582    0.0488 C   0  0  0  0  0  0  0  0  0  0  0  0
   -0.5892    1.8163   -0.7144 H   0  0  0  0  0  0  0  0  0  0  0  0
    0.9111    1.8220   -0.0721 H   0  0  0  0  0  0  0  0  0  0  0  0
   -0.4215    1.8929    0.9669 H   0  0  0  0  0  0  0  0  0  0  0  0
    0.0000    0.0000    0.0000 C   0  0  0  0  0  0  0  0  0  0  0  0
   -1.0594   -0.5887    0.0000 O   0  0  0  0  0  1  0  0  0  0  0  0
    1.0594   -0.6792    0.0000 O   0  0  0  0  0  0  0  0  0  0  0  0
    0.8192   -2.9702    3.4455 C   0  0  0  0  0  0  0  0  0  0  0  0
    1.7795   -3.0255    3.1004 H   0  0  0  0  0  0  0  0  0  0  0  0
    0.6364   -3.8572    3.9186 H   0  0  0  0  0  0  0  0  0  0  0  0
    0.7848   -2.1815    4.1971 H   0  0  0  0  0  0  0  0  0  0  0  0
   -0.1077   -2.8035    2.3207 C   0  0  0  0  0  0  0  0  0  0  0  0
   -1.0651   -2.9458    2.6358 H   0  0  0  0  0  0  0  0  0  0  0  0
   -0.0554   -1.8510    1.9656 H   0  0  0  0  0  0  0  0  0  0  0  0
    0.1181   -3.7388    1.1339 C   0  0  0  0  0  0  0  0  0  0  0  0
    0.7121   -4.4857    1.4280 H   0  0  0  0  0  0  0  0  0  0  0  0
   -0.7656   -4.1053    0.8465 H   0  0  0  0  0  0  0  0  0  0  0  0
    0.5815   -3.1973    0.3092 H   0  0  0  0  0  0  0  0  0  0  0  0
  1  5  1  0
  5  6  1  0
  5  7  2  0
  1  2  1  0
  1  3  1  0
  1  4  1  0
  8 12  1  0
 12 15  1  0
  8  9  1  0
  8 10  1  0
  8 11  1  0
 12 13  1  0
 12 14  1  0
 15 16  1  0
 15 17  1  0
 15 18  1  0
M  CHG  1   6  -1
M  END
>  <PDB_ID>  (235) 
pdb1anf

>  <RESIDUE_NAME>  (235) 
ASP   LYS

>  <FRAG_NAME>  (235) 
ACET   PRPA

>  <FRAG_ATOM_NUM>  (235) 
fragi: 7  fragj: 11

>  <atom.prop.CHAIN_ID>  (235) 
A A A A A A A Z Z Z Z Z Z Z Z Z Z Z

>  <atom.prop.IS_HEAVY_ATOM>  (235) 
1 0 0 0 1 1 1 1 0 0 0 1 0 0 1 0 0 0

>  <DIFUSE_FUNC_ATOM>  (235) 
atom 6   atom 7   

>  <FINAL_SINGLE_POINT_ENERGY>  (235) 
0

>  <NONCOV_INTER_ENERGY_QM>  (235) 
0

>  <FF_Energy>  (235) 
0.27

>  <QM_Energy>  (235) 
-5.63

>  <Index>  (235) 
17581

$$$$
ACET-pdb1a4y-D-GLU-245:PRPA-pdb1a4y-D-ARG-216
     RDKit          3D

 18 16  0  0  0  0  0  0  0  0999 V2000
   -0.0147    1.5142    0.0072 C   0  0  0  0  0  0  0  0  0  0  0  0
    0.2114    1.8179   -0.8995 H   0  0  0  0  0  0  0  0  0  0  0  0
    0.6392    1.8139    0.6763 H   0  0  0  0  0  0  0  0  0  0  0  0
   -0.9916    1.9187    0.2724 H   0  0  0  0  0  0  0  0  0  0  0  0
    0.0000    0.0000    0.0000 C   0  0  0  0  0  0  0  0  0  0  0  0
   -1.0961   -0.5885   -0.0000 O   0  0  0  0  0  1  0  0  0  0  0  0
    1.0961   -0.6047    0.0000 O   0  0  0  0  0  0  0  0  0  0  0  0
   -5.2515   -0.7715    1.0439 C   0  0  0  0  0  0  0  0  0  0  0  0
   -5.1581    0.0964    0.5689 H   0  0  0  0  0  0  0  0  0  0  0  0
   -4.6666   -0.7409    1.9632 H   0  0  0  0  0  0  0  0  0  0  0  0
   -6.2976   -0.9076    1.3183 H   0  0  0  0  0  0  0  0  0  0  0  0
   -4.7758   -1.9089    0.1310 C   0  0  0  0  0  0  0  0  0  0  0  0
   -4.8991   -2.7728    0.6220 H   0  0  0  0  0  0  0  0  0  0  0  0
   -5.3496   -1.9097   -0.6887 H   0  0  0  0  0  0  0  0  0  0  0  0
   -3.3222   -1.8251   -0.3146 C   0  0  0  0  0  0  0  0  0  0  0  0
   -3.1860   -0.9686   -0.8144 H   0  0  0  0  0  0  0  0  0  0  0  0
   -2.7347   -1.8321    0.4957 H   0  0  0  0  0  0  0  0  0  0  0  0
   -3.0477   -2.6604   -0.9590 H   0  0  0  0  0  0  0  0  0  0  0  0
  1  5  1  0
  5  6  1  0
  5  7  2  0
  1  2  1  0
  1  3  1  0
  1  4  1  0
  8 12  1  0
 12 15  1  0
  8  9  1  0
  8 10  1  0
  8 11  1  0
 12 13  1  0
 12 14  1  0
 15 16  1  0
 15 17  1  0
 15 18  1  0
M  CHG  1   6  -1
M  END
>  <PDB_ID>  (236) 
pdb1a4y

>  <RESIDUE_NAME>  (236) 
GLU   ARG

>  <FRAG_NAME>  (236) 
ACET   PRPA

>  <FRAG_ATOM_NUM>  (236) 
fragi: 7  fragj: 11

>  <atom.prop.CHAIN_ID>  (236) 
A A A A A A A Z Z Z Z Z Z Z Z Z Z Z

>  <atom.prop.IS_HEAVY_ATOM>  (236) 
1 0 0 0 1 1 1 1 0 0 0 1 0 0 1 0 0 0

>  <DIFUSE_FUNC_ATOM>  (236) 
atom 6   atom 7   

>  <FINAL_SINGLE_POINT_ENERGY>  (236) 
0

>  <NONCOV_INTER_ENERGY_QM>  (236) 
0

>  <FF_Energy>  (236) 
12.0

>  <QM_Energy>  (236) 
2.51

>  <Index>  (236) 
17596

$$$$
ACET-pdb1a4y-D-GLU-245:PRPA-pdb1a4y-D-ARG-216
     RDKit          3D

 18 16  0  0  0  0  0  0  0  0999 V2000
   -0.0147    1.5142    0.0072 C   0  0  0  0  0  0  0  0  0  0  0  0
    0.2114    1.8179   -0.8995 H   0  0  0  0  0  0  0  0  0  0  0  0
    0.6392    1.8139    0.6763 H   0  0  0  0  0  0  0  0  0  0  0  0
   -0.9916    1.9187    0.2724 H   0  0  0  0  0  0  0  0  0  0  0  0
    0.0000    0.0000    0.0000 C   0  0  0  0  0  0  0  0  0  0  0  0
   -1.0961   -0.5885   -0.0000 O   0  0  0  0  0  1  0  0  0  0  0  0
    1.0961   -0.6047    0.0000 O   0  0  0  0  0  0  0  0  0  0  0  0
   -4.7758   -1.9089    0.1310 C   0  0  0  0  0  0  0  0  0  0  0  0
   -4.8991   -2.7728    0.6220 H   0  0  0  0  0  0  0  0  0  0  0  0
   -5.3496   -1.9097   -0.6887 H   0  0  0  0  0  0  0  0  0  0  0  0
   -5.1138   -1.1008    0.7797 H   0  0  0  0  0  0  0  0  0  0  0  0
   -3.3222   -1.8251   -0.3146 C   0  0  0  0  0  0  0  0  0  0  0  0
   -3.1860   -0.9686   -0.8144 H   0  0  0  0  0  0  0  0  0  0  0  0
   -2.7347   -1.8321    0.4957 H   0  0  0  0  0  0  0  0  0  0  0  0
   -2.9473   -2.9655   -1.1944 C   0  0  0  0  0  0  0  0  0  0  0  0
   -3.0845   -3.8190   -0.6929 H   0  0  0  0  0  0  0  0  0  0  0  0
   -3.5374   -2.9556   -2.0030 H   0  0  0  0  0  0  0  0  0  0  0  0
   -1.9075   -2.9088   -1.5163 H   0  0  0  0  0  0  0  0  0  0  0  0
  1  5  1  0
  5  6  1  0
  5  7  2  0
  1  2  1  0
  1  3  1  0
  1  4  1  0
  8 12  1  0
 12 15  1  0
  8  9  1  0
  8 10  1  0
  8 11  1  0
 12 13  1  0
 12 14  1  0
 15 16  1  0
 15 17  1  0
 15 18  1  0
M  CHG  1   6  -1
M  END
>  <PDB_ID>  (237) 
pdb1a4y

>  <RESIDUE_NAME>  (237) 
GLU   ARG

>  <FRAG_NAME>  (237) 
ACET   PRPA

>  <FRAG_ATOM_NUM>  (237) 
fragi: 7  fragj: 11

>  <atom.prop.CHAIN_ID>  (237) 
A A A A A A A Z Z Z Z Z Z Z Z Z Z Z

>  <atom.prop.IS_HEAVY_ATOM>  (237) 
1 0 0 0 1 1 1 1 0 0 0 1 0 0 1 0 0 0

>  <DIFUSE_FUNC_ATOM>  (237) 
atom 6   atom 7   

>  <FINAL_SINGLE_POINT_ENERGY>  (237) 
0

>  <NONCOV_INTER_ENERGY_QM>  (237) 
0

>  <FF_Energy>  (237) 
11.85

>  <QM_Energy>  (237) 
1.37

>  <Index>  (237) 
17602

$$$$
ACET-pdb1ado-A-GLU-354:PRPA-pdb1ado-A-ARG-303
     RDKit          3D

 18 16  0  0  0  0  0  0  0  0999 V2000
    0.0000    1.5147    0.0165 C   0  0  0  0  0  0  0  0  0  0  0  0
    0.8097    1.8199   -0.4473 H   0  0  0  0  0  0  0  0  0  0  0  0
   -0.0276    1.8036    0.9541 H   0  0  0  0  0  0  0  0  0  0  0  0
   -0.8631    1.9395   -0.4959 H   0  0  0  0  0  0  0  0  0  0  0  0
    0.0000    0.0000    0.0000 C   0  0  0  0  0  0  0  0  0  0  0  0
   -1.0961   -0.5985    0.0000 O   0  0  0  0  0  1  0  0  0  0  0  0
    1.0961   -0.5977    0.0000 O   0  0  0  0  0  0  0  0  0  0  0  0
    2.2908   -3.1922    2.2433 C   0  0  0  0  0  0  0  0  0  0  0  0
    2.3937   -2.2640    1.8858 H   0  0  0  0  0  0  0  0  0  0  0  0
    2.2702   -3.8408    1.4830 H   0  0  0  0  0  0  0  0  0  0  0  0
    3.1659   -3.4164    2.8531 H   0  0  0  0  0  0  0  0  0  0  0  0
    0.9652   -3.2750    2.9712 C   0  0  0  0  0  0  0  0  0  0  0  0
    0.7882   -4.2186    3.2361 H   0  0  0  0  0  0  0  0  0  0  0  0
    0.9915   -2.6916    3.7784 H   0  0  0  0  0  0  0  0  0  0  0  0
   -0.1726   -2.8081    2.0863 C   0  0  0  0  0  0  0  0  0  0  0  0
    0.1247   -1.9831    1.6043 H   0  0  0  0  0  0  0  0  0  0  0  0
   -0.3669   -3.5302    1.4214 H   0  0  0  0  0  0  0  0  0  0  0  0
   -1.0805   -2.5858    2.6470 H   0  0  0  0  0  0  0  0  0  0  0  0
  1  5  1  0
  5  6  1  0
  5  7  2  0
  1  2  1  0
  1  3  1  0
  1  4  1  0
  8 12  1  0
 12 15  1  0
  8  9  1  0
  8 10  1  0
  8 11  1  0
 12 13  1  0
 12 14  1  0
 15 16  1  0
 15 17  1  0
 15 18  1  0
M  CHG  1   6  -1
M  END
>  <PDB_ID>  (238) 
pdb1ado

>  <RESIDUE_NAME>  (238) 
GLU   ARG

>  <FRAG_NAME>  (238) 
ACET   PRPA

>  <FRAG_ATOM_NUM>  (238) 
fragi: 7  fragj: 11

>  <atom.prop.CHAIN_ID>  (238) 
A A A A A A A Z Z Z Z Z Z Z Z Z Z Z

>  <atom.prop.IS_HEAVY_ATOM>  (238) 
1 0 0 0 1 1 1 1 0 0 0 1 0 0 1 0 0 0

>  <DIFUSE_FUNC_ATOM>  (238) 
atom 6   atom 7   

>  <FINAL_SINGLE_POINT_ENERGY>  (238) 
0

>  <NONCOV_INTER_ENERGY_QM>  (238) 
0

>  <FF_Energy>  (238) 
2.48

>  <QM_Energy>  (238) 
-3.83

>  <Index>  (238) 
17739

$$$$
ACET-pdb1ap9-A-GLU-9:PRPA-pdb1ap9-A-LEU-201
     RDKit          3D

 18 16  0  0  0  0  0  0  0  0999 V2000
   -0.0018    1.5264    0.0060 C   0  0  0  0  0  0  0  0  0  0  0  0
    0.3132    1.8226   -0.8745 H   0  0  0  0  0  0  0  0  0  0  0  0
    0.5897    1.8159    0.7344 H   0  0  0  0  0  0  0  0  0  0  0  0
   -0.9947    1.9425    0.1767 H   0  0  0  0  0  0  0  0  0  0  0  0
    0.0000    0.0000    0.0000 C   0  0  0  0  0  0  0  0  0  0  0  0
   -1.0910   -0.6076   -0.0000 O   0  0  0  0  0  1  0  0  0  0  0  0
    1.0910   -0.6027   -0.0000 O   0  0  0  0  0  0  0  0  0  0  0  0
    3.9157    0.3559   -2.5300 C   0  0  0  0  0  0  0  0  0  0  0  0
    4.4879   -0.2776   -3.0870 H   0  0  0  0  0  0  0  0  0  0  0  0
    4.1429    0.1692   -1.5551 H   0  0  0  0  0  0  0  0  0  0  0  0
    4.2498    1.3698   -2.7502 H   0  0  0  0  0  0  0  0  0  0  0  0
    2.4586   -0.0673   -2.7356 C   0  0  0  0  0  0  0  0  0  0  0  0
    1.8952    0.3631   -2.0281 H   0  0  0  0  0  0  0  0  0  0  0  0
    2.1031    0.2348   -3.7207 H   0  0  0  0  0  0  0  0  0  0  0  0
    2.3481   -1.5784   -2.5630 C   0  0  0  0  0  0  0  0  0  0  0  0
    2.6451   -1.8310   -1.6418 H   0  0  0  0  0  0  0  0  0  0  0  0
    1.3974   -1.8603   -2.6969 H   0  0  0  0  0  0  0  0  0  0  0  0
    2.9290   -2.0338   -3.2378 H   0  0  0  0  0  0  0  0  0  0  0  0
  1  5  1  0
  5  6  1  0
  5  7  2  0
  1  2  1  0
  1  3  1  0
  1  4  1  0
  8 12  1  0
 12 15  1  0
  8  9  1  0
  8 10  1  0
  8 11  1  0
 12 13  1  0
 12 14  1  0
 15 16  1  0
 15 17  1  0
 15 18  1  0
M  CHG  1   6  -1
M  END
>  <PDB_ID>  (239) 
pdb1ap9

>  <RESIDUE_NAME>  (239) 
GLU   LEU

>  <FRAG_NAME>  (239) 
ACET   PRPA

>  <FRAG_ATOM_NUM>  (239) 
fragi: 7  fragj: 11

>  <atom.prop.CHAIN_ID>  (239) 
A A A A A A A Z Z Z Z Z Z Z Z Z Z Z

>  <atom.prop.IS_HEAVY_ATOM>  (239) 
1 0 0 0 1 1 1 1 0 0 0 1 0 0 1 0 0 0

>  <DIFUSE_FUNC_ATOM>  (239) 
atom 6   atom 7   

>  <FINAL_SINGLE_POINT_ENERGY>  (239) 
0

>  <NONCOV_INTER_ENERGY_QM>  (239) 
0

>  <FF_Energy>  (239) 
1.29

>  <QM_Energy>  (239) 
-4.32

>  <Index>  (239) 
17794

$$$$
ACET-pdb1aop-A-GLU-172:PRPA-pdb1aop-A-LYS-176
     RDKit          3D

 18 16  0  0  0  0  0  0  0  0999 V2000
    0.0016    1.5232    0.0019 C   0  0  0  0  0  0  0  0  0  0  0  0
    0.9384    1.8155   -0.0047 H   0  0  0  0  0  0  0  0  0  0  0  0
   -0.4793    1.8152    0.8062 H   0  0  0  0  0  0  0  0  0  0  0  0
   -0.4979    1.9402   -0.8727 H   0  0  0  0  0  0  0  0  0  0  0  0
    0.0000    0.0000    0.0000 C   0  0  0  0  0  0  0  0  0  0  0  0
   -1.1054   -0.5947    0.0000 O   0  0  0  0  0  1  0  0  0  0  0  0
    1.1054   -0.5965   -0.0000 O   0  0  0  0  0  0  0  0  0  0  0  0
    3.7276    3.4922    2.0974 C   0  0  0  0  0  0  0  0  0  0  0  0
    3.7999    3.6970    3.0808 H   0  0  0  0  0  0  0  0  0  0  0  0
    2.7941    3.7130    1.7943 H   0  0  0  0  0  0  0  0  0  0  0  0
    4.4373    4.1136    1.5512 H   0  0  0  0  0  0  0  0  0  0  0  0
    3.9696    2.0099    1.8896 C   0  0  0  0  0  0  0  0  0  0  0  0
    4.9370    1.8207    2.0308 H   0  0  0  0  0  0  0  0  0  0  0  0
    3.4205    1.4995    2.5452 H   0  0  0  0  0  0  0  0  0  0  0  0
    3.5867    1.5863    0.4973 C   0  0  0  0  0  0  0  0  0  0  0  0
    2.6958    1.9820    0.2634 H   0  0  0  0  0  0  0  0  0  0  0  0
    4.2734    1.9190   -0.1518 H   0  0  0  0  0  0  0  0  0  0  0  0
    3.5236    0.5007    0.4219 H   0  0  0  0  0  0  0  0  0  0  0  0
  1  5  1  0
  5  6  1  0
  5  7  2  0
  1  2  1  0
  1  3  1  0
  1  4  1  0
  8 12  1  0
 12 15  1  0
  8  9  1  0
  8 10  1  0
  8 11  1  0
 12 13  1  0
 12 14  1  0
 15 16  1  0
 15 17  1  0
 15 18  1  0
M  CHG  1   6  -1
M  END
>  <PDB_ID>  (240) 
pdb1aop

>  <RESIDUE_NAME>  (240) 
GLU   LYS

>  <FRAG_NAME>  (240) 
ACET   PRPA

>  <FRAG_ATOM_NUM>  (240) 
fragi: 7  fragj: 11

>  <atom.prop.CHAIN_ID>  (240) 
A A A A A A A Z Z Z Z Z Z Z Z Z Z Z

>  <atom.prop.IS_HEAVY_ATOM>  (240) 
1 0 0 0 1 1 1 1 0 0 0 1 0 0 1 0 0 0

>  <DIFUSE_FUNC_ATOM>  (240) 
atom 6   atom 7   

>  <FINAL_SINGLE_POINT_ENERGY>  (240) 
0

>  <NONCOV_INTER_ENERGY_QM>  (240) 
0

>  <FF_Energy>  (240) 
5.05

>  <QM_Energy>  (240) 
-0.7

>  <Index>  (240) 
17858

$$$$
ACET-pdb2b4w-A-GLU-64:PRPA-pdb2b4w-A-LYS-42
     RDKit          3D

 18 16  0  0  0  0  0  0  0  0999 V2000
    0.0239    1.5190    0.0063 C   0  0  0  0  0  0  0  0  0  0  0  0
    0.9549    1.8013   -0.1259 H   0  0  0  0  0  0  0  0  0  0  0  0
   -0.3399    1.8168    0.8678 H   0  0  0  0  0  0  0  0  0  0  0  0
   -0.5815    1.9504   -0.7909 H   0  0  0  0  0  0  0  0  0  0  0  0
    0.0000    0.0000    0.0000 C   0  0  0  0  0  0  0  0  0  0  0  0
   -1.0949   -0.6074   -0.0000 O   0  0  0  0  0  1  0  0  0  0  0  0
    1.0949   -0.6024   -0.0000 O   0  0  0  0  0  0  0  0  0  0  0  0
    1.2142    0.3548    4.0982 C   0  0  0  0  0  0  0  0  0  0  0  0
    1.7615    0.0387    4.8776 H   0  0  0  0  0  0  0  0  0  0  0  0
    0.2416    0.2470    4.3200 H   0  0  0  0  0  0  0  0  0  0  0  0
    1.4265    1.4082    3.9156 H   0  0  0  0  0  0  0  0  0  0  0  0
    1.5384   -0.5115    2.8920 C   0  0  0  0  0  0  0  0  0  0  0  0
    1.2460   -0.0414    2.0670 H   0  0  0  0  0  0  0  0  0  0  0  0
    2.5159   -0.6836    2.8684 H   0  0  0  0  0  0  0  0  0  0  0  0
    0.8137   -1.8570    2.9622 C   0  0  0  0  0  0  0  0  0  0  0  0
    1.0474   -2.3064    3.8229 H   0  0  0  0  0  0  0  0  0  0  0  0
   -0.1717   -1.6969    2.9235 H   0  0  0  0  0  0  0  0  0  0  0  0
    1.1016   -2.5044    2.1339 H   0  0  0  0  0  0  0  0  0  0  0  0
  1  5  1  0
  5  6  1  0
  5  7  2  0
  1  2  1  0
  1  3  1  0
  1  4  1  0
  8 12  1  0
 12 15  1  0
  8  9  1  0
  8 10  1  0
  8 11  1  0
 12 13  1  0
 12 14  1  0
 15 16  1  0
 15 17  1  0
 15 18  1  0
M  CHG  1   6  -1
M  END
>  <PDB_ID>  (241) 
pdb2b4w

>  <RESIDUE_NAME>  (241) 
GLU   LYS

>  <FRAG_NAME>  (241) 
ACET   PRPA

>  <FRAG_ATOM_NUM>  (241) 
fragi: 7  fragj: 11

>  <atom.prop.CHAIN_ID>  (241) 
A A A A A A A Z Z Z Z Z Z Z Z Z Z Z

>  <atom.prop.IS_HEAVY_ATOM>  (241) 
1 0 0 0 1 1 1 1 0 0 0 1 0 0 1 0 0 0

>  <DIFUSE_FUNC_ATOM>  (241) 
atom 6   atom 7   

>  <FINAL_SINGLE_POINT_ENERGY>  (241) 
0

>  <NONCOV_INTER_ENERGY_QM>  (241) 
0

>  <FF_Energy>  (241) 
8.03

>  <QM_Energy>  (241) 
-1.95

>  <Index>  (241) 
17895

$$$$
ACET-pdb2azj-A-GLU-158:PRPA-pdb2azj-A-LYS-190
     RDKit          3D

 18 16  0  0  0  0  0  0  0  0999 V2000
   -0.0062    1.5184    0.0018 C   0  0  0  0  0  0  0  0  0  0  0  0
    0.5618    1.8209   -0.7401 H   0  0  0  0  0  0  0  0  0  0  0  0
    0.3276    1.8172    0.8757 H   0  0  0  0  0  0  0  0  0  0  0  0
   -1.0017    1.9383   -0.1424 H   0  0  0  0  0  0  0  0  0  0  0  0
    0.0000    0.0000    0.0000 C   0  0  0  0  0  0  0  0  0  0  0  0
   -1.1008   -0.5851   -0.0000 O   0  0  0  0  0  1  0  0  0  0  0  0
    1.1008   -0.6074    0.0000 O   0  0  0  0  0  0  0  0  0  0  0  0
    2.6795    1.0339    2.7492 C   0  0  0  0  0  0  0  0  0  0  0  0
    2.1853    1.4410    3.5178 H   0  0  0  0  0  0  0  0  0  0  0  0
    2.2296    1.2846    1.8925 H   0  0  0  0  0  0  0  0  0  0  0  0
    3.7033    1.4082    2.7409 H   0  0  0  0  0  0  0  0  0  0  0  0
    2.6583   -0.4699    2.8942 C   0  0  0  0  0  0  0  0  0  0  0  0
    3.0356   -0.8850    2.0728 H   0  0  0  0  0  0  0  0  0  0  0  0
    3.1910   -0.7322    3.6914 H   0  0  0  0  0  0  0  0  0  0  0  0
    1.2306   -0.9940    3.0808 C   0  0  0  0  0  0  0  0  0  0  0  0
    0.7636   -0.4236    3.7524 H   0  0  0  0  0  0  0  0  0  0  0  0
    0.7537   -0.9484    2.2062 H   0  0  0  0  0  0  0  0  0  0  0  0
    1.2397   -2.0262    3.4309 H   0  0  0  0  0  0  0  0  0  0  0  0
  1  5  1  0
  5  6  1  0
  5  7  2  0
  1  2  1  0
  1  3  1  0
  1  4  1  0
  8 12  1  0
 12 15  1  0
  8  9  1  0
  8 10  1  0
  8 11  1  0
 12 13  1  0
 12 14  1  0
 15 16  1  0
 15 17  1  0
 15 18  1  0
M  CHG  1   6  -1
M  END
>  <PDB_ID>  (242) 
pdb2azj

>  <RESIDUE_NAME>  (242) 
GLU   LYS

>  <FRAG_NAME>  (242) 
ACET   PRPA

>  <FRAG_ATOM_NUM>  (242) 
fragi: 7  fragj: 11

>  <atom.prop.CHAIN_ID>  (242) 
A A A A A A A Z Z Z Z Z Z Z Z Z Z Z

>  <atom.prop.IS_HEAVY_ATOM>  (242) 
1 0 0 0 1 1 1 1 0 0 0 1 0 0 1 0 0 0

>  <DIFUSE_FUNC_ATOM>  (242) 
atom 6   atom 7   

>  <FINAL_SINGLE_POINT_ENERGY>  (242) 
0

>  <NONCOV_INTER_ENERGY_QM>  (242) 
0

>  <FF_Energy>  (242) 
17.01

>  <QM_Energy>  (242) 
-4.72

>  <Index>  (242) 
17945

$$$$
ACET-pdb2b4w-A-ASP-29:PRPA-pdb2b4w-A-ARG-52
     RDKit          3D

 18 16  0  0  0  0  0  0  0  0999 V2000
   -0.0040    1.5088   -0.0077 C   0  0  0  0  0  0  0  0  0  0  0  0
    0.7161    1.8263   -0.6344 H   0  0  0  0  0  0  0  0  0  0  0  0
    0.2130    1.8335    0.9180 H   0  0  0  0  0  0  0  0  0  0  0  0
   -0.9441    1.9671   -0.3148 H   0  0  0  0  0  0  0  0  0  0  0  0
    0.0000    0.0000    0.0000 C   0  0  0  0  0  0  0  0  0  0  0  0
   -1.0970   -0.5851   -0.0000 O   0  0  0  0  0  1  0  0  0  0  0  0
    1.0970   -0.5932   -0.0000 O   0  0  0  0  0  0  0  0  0  0  0  0
    1.8690   -2.3925   -2.4683 C   0  0  0  0  0  0  0  0  0  0  0  0
    1.0655   -2.0047   -2.1239 H   0  0  0  0  0  0  0  0  0  0  0  0
    1.7739   -3.0819   -3.1240 H   0  0  0  0  0  0  0  0  0  0  0  0
    2.4883   -1.5983   -2.8851 H   0  0  0  0  0  0  0  0  0  0  0  0
    2.6820   -2.9455   -1.2971 C   0  0  0  0  0  0  0  0  0  0  0  0
    3.5297   -3.3607   -1.6610 H   0  0  0  0  0  0  0  0  0  0  0  0
    2.9505   -2.1749   -0.7000 H   0  0  0  0  0  0  0  0  0  0  0  0
    1.9674   -3.9647   -0.4684 C   0  0  0  0  0  0  0  0  0  0  0  0
    1.7534   -4.7581   -1.0524 H   0  0  0  0  0  0  0  0  0  0  0  0
    2.5887   -4.2704    0.2645 H   0  0  0  0  0  0  0  0  0  0  0  0
    1.0440   -3.6006   -0.0180 H   0  0  0  0  0  0  0  0  0  0  0  0
  1  5  1  0
  5  6  1  0
  5  7  2  0
  1  2  1  0
  1  3  1  0
  1  4  1  0
  8 12  1  0
 12 15  1  0
  8  9  1  0
  8 10  1  0
  8 11  1  0
 12 13  1  0
 12 14  1  0
 15 16  1  0
 15 17  1  0
 15 18  1  0
M  CHG  1   6  -1
M  END
>  <PDB_ID>  (243) 
pdb2b4w

>  <RESIDUE_NAME>  (243) 
ASP   ARG

>  <FRAG_NAME>  (243) 
ACET   PRPA

>  <FRAG_ATOM_NUM>  (243) 
fragi: 7  fragj: 11

>  <atom.prop.CHAIN_ID>  (243) 
A A A A A A A Z Z Z Z Z Z Z Z Z Z Z

>  <atom.prop.IS_HEAVY_ATOM>  (243) 
1 0 0 0 1 1 1 1 0 0 0 1 0 0 1 0 0 0

>  <DIFUSE_FUNC_ATOM>  (243) 
atom 6   atom 7   

>  <FINAL_SINGLE_POINT_ENERGY>  (243) 
0

>  <NONCOV_INTER_ENERGY_QM>  (243) 
0

>  <FF_Energy>  (243) 
4.64

>  <QM_Energy>  (243) 
-5.05

>  <Index>  (243) 
18042

$$$$
ACET-pdb1apm-E-GLU-107:PRPA-pdb1apm-E-GLU-121
     RDKit          3D

 18 16  0  0  0  0  0  0  0  0999 V2000
   -0.2356    1.4865    0.0102 C   0  0  0  0  0  0  0  0  0  0  0  0
   -0.8733    1.7036   -0.7018 H   0  0  0  0  0  0  0  0  0  0  0  0
    0.6273    1.9371   -0.1053 H   0  0  0  0  0  0  0  0  0  0  0  0
   -0.6641    1.8371    0.9491 H   0  0  0  0  0  0  0  0  0  0  0  0
    0.0000    0.0000    0.0000 C   0  0  0  0  0  0  0  0  0  0  0  0
   -1.1170   -0.6927   -0.0000 O   0  0  0  0  0  1  0  0  0  0  0  0
    1.1170   -0.4977   -0.0000 O   0  0  0  0  0  0  0  0  0  0  0  0
   -4.6313   -2.1401    0.4663 C   0  0  0  0  0  0  0  0  0  0  0  0
   -4.6017   -1.4439   -0.2503 H   0  0  0  0  0  0  0  0  0  0  0  0
   -4.2311   -1.7427    1.3990 H   0  0  0  0  0  0  0  0  0  0  0  0
   -5.6650   -2.4393    0.6396 H   0  0  0  0  0  0  0  0  0  0  0  0
   -3.7651   -3.2758   -0.1395 C   0  0  0  0  0  0  0  0  0  0  0  0
   -3.7572   -4.0170    0.5210 H   0  0  0  0  0  0  0  0  0  0  0  0
   -4.2081   -3.5607   -0.9807 H   0  0  0  0  0  0  0  0  0  0  0  0
   -2.3221   -2.9297   -0.4678 C   0  0  0  0  0  0  0  0  0  0  0  0
   -2.3286   -2.1839   -1.1264 H   0  0  0  0  0  0  0  0  0  0  0  0
   -1.8766   -2.6391    0.3748 H   0  0  0  0  0  0  0  0  0  0  0  0
   -1.7292   -3.7399   -0.8921 H   0  0  0  0  0  0  0  0  0  0  0  0
  1  5  1  0
  5  6  1  0
  5  7  2  0
  1  2  1  0
  1  3  1  0
  1  4  1  0
  8 12  1  0
 12 15  1  0
  8  9  1  0
  8 10  1  0
  8 11  1  0
 12 13  1  0
 12 14  1  0
 15 16  1  0
 15 17  1  0
 15 18  1  0
M  CHG  1   6  -1
M  END
>  <PDB_ID>  (244) 
pdb1apm

>  <RESIDUE_NAME>  (244) 
GLU   GLU

>  <FRAG_NAME>  (244) 
ACET   PRPA

>  <FRAG_ATOM_NUM>  (244) 
fragi: 7  fragj: 11

>  <atom.prop.CHAIN_ID>  (244) 
A A A A A A A Z Z Z Z Z Z Z Z Z Z Z

>  <atom.prop.IS_HEAVY_ATOM>  (244) 
1 0 0 0 1 1 1 1 0 0 0 1 0 0 1 0 0 0

>  <DIFUSE_FUNC_ATOM>  (244) 
atom 6   atom 7   

>  <FINAL_SINGLE_POINT_ENERGY>  (244) 
0

>  <NONCOV_INTER_ENERGY_QM>  (244) 
0

>  <FF_Energy>  (244) 
11.96

>  <QM_Energy>  (244) 
2.75

>  <Index>  (244) 
18059

$$$$
ACET-pdb2b4a-A-ASP-114:PRPA-pdb2b4a-A-LYS-117
     RDKit          3D

 18 16  0  0  0  0  0  0  0  0999 V2000
    0.0497    1.5642   -0.0196 C   0  0  0  0  0  0  0  0  0  0  0  0
    0.5349    1.8374   -0.8365 H   0  0  0  0  0  0  0  0  0  0  0  0
    0.5242    1.8584    0.7959 H   0  0  0  0  0  0  0  0  0  0  0  0
   -0.9407    2.0192   -0.0324 H   0  0  0  0  0  0  0  0  0  0  0  0
    0.0000    0.0000    0.0000 C   0  0  0  0  0  0  0  0  0  0  0  0
   -1.0949   -0.5727    0.0000 O   0  0  0  0  0  1  0  0  0  0  0  0
    1.0949   -0.5668   -0.0000 O   0  0  0  0  0  0  0  0  0  0  0  0
   -4.1701    0.9049    2.8010 C   0  0  0  0  0  0  0  0  0  0  0  0
   -5.1198    0.6471    2.6508 H   0  0  0  0  0  0  0  0  0  0  0  0
   -3.7807    1.2891    1.9697 H   0  0  0  0  0  0  0  0  0  0  0  0
   -4.1073    1.6312    3.6114 H   0  0  0  0  0  0  0  0  0  0  0  0
   -3.3773   -0.3732    3.1562 C   0  0  0  0  0  0  0  0  0  0  0  0
   -2.5067   -0.1056    3.5542 H   0  0  0  0  0  0  0  0  0  0  0  0
   -3.9077   -0.9056    3.8057 H   0  0  0  0  0  0  0  0  0  0  0  0
   -3.0949   -1.2567    1.9205 C   0  0  0  0  0  0  0  0  0  0  0  0
   -3.9634   -1.6614    1.6155 H   0  0  0  0  0  0  0  0  0  0  0  0
   -2.7415   -0.6688    1.1845 H   0  0  0  0  0  0  0  0  0  0  0  0
   -2.3777   -2.0537    2.1170 H   0  0  0  0  0  0  0  0  0  0  0  0
  1  5  1  0
  5  6  1  0
  5  7  2  0
  1  2  1  0
  1  3  1  0
  1  4  1  0
  8 12  1  0
 12 15  1  0
  8  9  1  0
  8 10  1  0
  8 11  1  0
 12 13  1  0
 12 14  1  0
 15 16  1  0
 15 17  1  0
 15 18  1  0
M  CHG  1   6  -1
M  END
>  <PDB_ID>  (245) 
pdb2b4a

>  <RESIDUE_NAME>  (245) 
ASP   LYS

>  <FRAG_NAME>  (245) 
ACET   PRPA

>  <FRAG_ATOM_NUM>  (245) 
fragi: 7  fragj: 11

>  <atom.prop.CHAIN_ID>  (245) 
A A A A A A A Z Z Z Z Z Z Z Z Z Z Z

>  <atom.prop.IS_HEAVY_ATOM>  (245) 
1 0 0 0 1 1 1 1 0 0 0 1 0 0 1 0 0 0

>  <DIFUSE_FUNC_ATOM>  (245) 
atom 6   atom 7   

>  <FINAL_SINGLE_POINT_ENERGY>  (245) 
0

>  <NONCOV_INTER_ENERGY_QM>  (245) 
0

>  <FF_Energy>  (245) 
1.92

>  <QM_Energy>  (245) 
-1.01

>  <Index>  (245) 
18121

$$$$
ACET-pdb2b4j-B-GLU-85:PRPA-pdb2b4j-A-ARG-107
     RDKit          3D

 18 16  0  0  0  0  0  0  0  0999 V2000
    0.0475    1.5205   -0.0923 C   0  0  0  0  0  0  0  0  0  0  0  0
    0.2096    1.7514   -1.0455 H   0  0  0  0  0  0  0  0  0  0  0  0
    0.8082    1.8236    0.4712 H   0  0  0  0  0  0  0  0  0  0  0  0
   -0.8520    2.0408    0.2368 H   0  0  0  0  0  0  0  0  0  0  0  0
    0.0000    0.0000    0.0000 C   0  0  0  0  0  0  0  0  0  0  0  0
   -1.1013   -0.6152   -0.0000 O   0  0  0  0  0  1  0  0  0  0  0  0
    1.1013   -0.5745   -0.0000 O   0  0  0  0  0  0  0  0  0  0  0  0
    2.6381   -1.0180   -4.1680 C   0  0  0  0  0  0  0  0  0  0  0  0
    2.4521   -1.6091   -4.9541 H   0  0  0  0  0  0  0  0  0  0  0  0
    3.1590   -1.5302   -3.4852 H   0  0  0  0  0  0  0  0  0  0  0  0
    3.2728   -0.2034   -4.5169 H   0  0  0  0  0  0  0  0  0  0  0  0
    1.3634   -0.5764   -3.5775 C   0  0  0  0  0  0  0  0  0  0  0  0
    1.4932    0.2068   -2.9964 H   0  0  0  0  0  0  0  0  0  0  0  0
    0.6871   -0.4147   -4.2739 H   0  0  0  0  0  0  0  0  0  0  0  0
    0.8533   -1.7186   -2.7008 C   0  0  0  0  0  0  0  0  0  0  0  0
    1.6384   -2.1298   -2.2521 H   0  0  0  0  0  0  0  0  0  0  0  0
    0.2310   -1.3306   -2.0313 H   0  0  0  0  0  0  0  0  0  0  0  0
    0.3344   -2.4671   -3.2996 H   0  0  0  0  0  0  0  0  0  0  0  0
  1  5  1  0
  5  6  1  0
  5  7  2  0
  1  2  1  0
  1  3  1  0
  1  4  1  0
  8 12  1  0
 12 15  1  0
  8  9  1  0
  8 10  1  0
  8 11  1  0
 12 13  1  0
 12 14  1  0
 15 16  1  0
 15 17  1  0
 15 18  1  0
M  CHG  1   6  -1
M  END
>  <PDB_ID>  (246) 
pdb2b4j

>  <RESIDUE_NAME>  (246) 
GLU   ARG

>  <FRAG_NAME>  (246) 
ACET   PRPA

>  <FRAG_ATOM_NUM>  (246) 
fragi: 7  fragj: 11

>  <atom.prop.CHAIN_ID>  (246) 
A A A A A A A Z Z Z Z Z Z Z Z Z Z Z

>  <atom.prop.IS_HEAVY_ATOM>  (246) 
1 0 0 0 1 1 1 1 0 0 0 1 0 0 1 0 0 0

>  <DIFUSE_FUNC_ATOM>  (246) 
atom 6   atom 7   

>  <FINAL_SINGLE_POINT_ENERGY>  (246) 
0

>  <NONCOV_INTER_ENERGY_QM>  (246) 
0

>  <FF_Energy>  (246) 
4.63

>  <QM_Energy>  (246) 
-3.18

>  <Index>  (246) 
18432

$$$$
ACET-pdb2b4l-A-GLU-130:PRPA-pdb2b4l-A-LYS-151
     RDKit          3D

 18 16  0  0  0  0  0  0  0  0999 V2000
    0.0005    1.5162    0.0011 C   0  0  0  0  0  0  0  0  0  0  0  0
    0.5166    1.8140   -0.7847 H   0  0  0  0  0  0  0  0  0  0  0  0
    0.4164    1.8116    0.8447 H   0  0  0  0  0  0  0  0  0  0  0  0
   -0.9974    1.9507   -0.0604 H   0  0  0  0  0  0  0  0  0  0  0  0
    0.0000    0.0000    0.0000 C   0  0  0  0  0  0  0  0  0  0  0  0
   -1.0988   -0.5931   -0.0000 O   0  0  0  0  0  1  0  0  0  0  0  0
    1.0988   -0.5938    0.0000 O   0  0  0  0  0  0  0  0  0  0  0  0
    3.0346   -4.3198   -0.4780 C   0  0  0  0  0  0  0  0  0  0  0  0
    2.4009   -4.8978    0.0128 H   0  0  0  0  0  0  0  0  0  0  0  0
    3.9704   -4.5138   -0.2285 H   0  0  0  0  0  0  0  0  0  0  0  0
    2.9075   -4.4753   -1.5494 H   0  0  0  0  0  0  0  0  0  0  0  0
    2.7271   -2.8407   -0.1242 C   0  0  0  0  0  0  0  0  0  0  0  0
    3.0991   -2.2646   -0.8511 H   0  0  0  0  0  0  0  0  0  0  0  0
    1.7352   -2.7309   -0.0835 H   0  0  0  0  0  0  0  0  0  0  0  0
    3.3262   -2.3981    1.2094 C   0  0  0  0  0  0  0  0  0  0  0  0
    2.6798   -2.6193    1.9468 H   0  0  0  0  0  0  0  0  0  0  0  0
    4.1801   -2.9058    1.3690 H   0  0  0  0  0  0  0  0  0  0  0  0
    3.5434   -1.3305    1.2439 H   0  0  0  0  0  0  0  0  0  0  0  0
  1  5  1  0
  5  6  1  0
  5  7  2  0
  1  2  1  0
  1  3  1  0
  1  4  1  0
  8 12  1  0
 12 15  1  0
  8  9  1  0
  8 10  1  0
  8 11  1  0
 12 13  1  0
 12 14  1  0
 15 16  1  0
 15 17  1  0
 15 18  1  0
M  CHG  1   6  -1
M  END
>  <PDB_ID>  (247) 
pdb2b4l

>  <RESIDUE_NAME>  (247) 
GLU   LYS

>  <FRAG_NAME>  (247) 
ACET   PRPA

>  <FRAG_ATOM_NUM>  (247) 
fragi: 7  fragj: 11

>  <atom.prop.CHAIN_ID>  (247) 
A A A A A A A Z Z Z Z Z Z Z Z Z Z Z

>  <atom.prop.IS_HEAVY_ATOM>  (247) 
1 0 0 0 1 1 1 1 0 0 0 1 0 0 1 0 0 0

>  <DIFUSE_FUNC_ATOM>  (247) 
atom 6   atom 7   

>  <FINAL_SINGLE_POINT_ENERGY>  (247) 
0

>  <NONCOV_INTER_ENERGY_QM>  (247) 
0

>  <FF_Energy>  (247) 
3.76

>  <QM_Energy>  (247) 
-1.89

>  <Index>  (247) 
18521

$$$$
ACET-pdb1aq2-A-GLU-36:PRPA-pdb1aq2-A-VAL-55
     RDKit          3D

 18 16  0  0  0  0  0  0  0  0999 V2000
    0.0093    1.5131    0.0133 C   0  0  0  0  0  0  0  0  0  0  0  0
    0.5615    1.8155   -0.7421 H   0  0  0  0  0  0  0  0  0  0  0  0
    0.3768    1.8024    0.8794 H   0  0  0  0  0  0  0  0  0  0  0  0
   -0.9849    1.9461   -0.0978 H   0  0  0  0  0  0  0  0  0  0  0  0
    0.0000    0.0000    0.0000 C   0  0  0  0  0  0  0  0  0  0  0  0
   -1.0932   -0.5969    0.0000 O   0  0  0  0  0  1  0  0  0  0  0  0
    1.0932   -0.5911   -0.0000 O   0  0  0  0  0  0  0  0  0  0  0  0
   -5.1084   -2.5504   -2.9914 C   0  0  0  0  0  0  0  0  0  0  0  0
   -6.0037   -2.1506   -3.2071 H   0  0  0  0  0  0  0  0  0  0  0  0
   -5.2684   -3.5185   -2.5166 H   0  0  0  0  0  0  0  0  0  0  0  0
   -4.5652   -2.6701   -3.9288 H   0  0  0  0  0  0  0  0  0  0  0  0
   -4.3517   -1.5764   -2.0566 C   0  0  0  0  0  0  0  0  0  0  0  0
   -4.3334   -0.6891   -2.5044 H   0  0  0  0  0  0  0  0  0  0  0  0
   -4.8951   -1.4575   -1.1192 H   0  0  0  0  0  0  0  0  0  0  0  0
   -2.9702   -2.0931   -1.7725 C   0  0  0  0  0  0  0  0  0  0  0  0
   -2.3788   -1.9382   -2.5679 H   0  0  0  0  0  0  0  0  0  0  0  0
   -2.5856   -1.6154   -0.9787 H   0  0  0  0  0  0  0  0  0  0  0  0
   -3.0086   -3.0765   -1.5781 H   0  0  0  0  0  0  0  0  0  0  0  0
  1  5  1  0
  5  6  1  0
  5  7  2  0
  1  2  1  0
  1  3  1  0
  1  4  1  0
  8 12  1  0
 12 15  1  0
  8  9  1  0
  8 10  1  0
  8 11  1  0
 12 13  1  0
 12 14  1  0
 15 16  1  0
 15 17  1  0
 15 18  1  0
M  CHG  1   6  -1
M  END
>  <PDB_ID>  (248) 
pdb1aq2

>  <RESIDUE_NAME>  (248) 
GLU   VAL

>  <FRAG_NAME>  (248) 
ACET   PRPA

>  <FRAG_ATOM_NUM>  (248) 
fragi: 7  fragj: 11

>  <atom.prop.CHAIN_ID>  (248) 
A A A A A A A Z Z Z Z Z Z Z Z Z Z Z

>  <atom.prop.IS_HEAVY_ATOM>  (248) 
1 0 0 0 1 1 1 1 0 0 0 1 0 0 1 0 0 0

>  <DIFUSE_FUNC_ATOM>  (248) 
atom 6   atom 7   

>  <FINAL_SINGLE_POINT_ENERGY>  (248) 
0

>  <NONCOV_INTER_ENERGY_QM>  (248) 
0

>  <FF_Energy>  (248) 
7.04

>  <QM_Energy>  (248) 
-1.89

>  <Index>  (248) 
18606

$$$$
ACET-pdb1aq2-A-GLU-36:PRPA-pdb1aq2-A-VAL-55
     RDKit          3D

 18 16  0  0  0  0  0  0  0  0999 V2000
    0.0093    1.5131    0.0133 C   0  0  0  0  0  0  0  0  0  0  0  0
    0.5615    1.8155   -0.7421 H   0  0  0  0  0  0  0  0  0  0  0  0
    0.3768    1.8024    0.8794 H   0  0  0  0  0  0  0  0  0  0  0  0
   -0.9849    1.9461   -0.0978 H   0  0  0  0  0  0  0  0  0  0  0  0
    0.0000    0.0000    0.0000 C   0  0  0  0  0  0  0  0  0  0  0  0
   -1.0932   -0.5969    0.0000 O   0  0  0  0  0  1  0  0  0  0  0  0
    1.0932   -0.5911   -0.0000 O   0  0  0  0  0  0  0  0  0  0  0  0
   -5.1057   -1.4114   -0.7557 C   0  0  0  0  0  0  0  0  0  0  0  0
   -4.4582   -1.3495    0.0052 H   0  0  0  0  0  0  0  0  0  0  0  0
   -5.6570   -0.5760   -0.7873 H   0  0  0  0  0  0  0  0  0  0  0  0
   -5.7094   -2.1974   -0.6118 H   0  0  0  0  0  0  0  0  0  0  0  0
   -4.3517   -1.5764   -2.0566 C   0  0  0  0  0  0  0  0  0  0  0  0
   -4.3334   -0.6891   -2.5044 H   0  0  0  0  0  0  0  0  0  0  0  0
   -4.8846   -2.2623   -2.7150 H   0  0  0  0  0  0  0  0  0  0  0  0
   -2.9702   -2.0931   -1.7725 C   0  0  0  0  0  0  0  0  0  0  0  0
   -2.3788   -1.9382   -2.5679 H   0  0  0  0  0  0  0  0  0  0  0  0
   -2.5856   -1.6154   -0.9787 H   0  0  0  0  0  0  0  0  0  0  0  0
   -3.0086   -3.0765   -1.5781 H   0  0  0  0  0  0  0  0  0  0  0  0
  1  5  1  0
  5  6  1  0
  5  7  2  0
  1  2  1  0
  1  3  1  0
  1  4  1  0
  8 12  1  0
 12 15  1  0
  8  9  1  0
  8 10  1  0
  8 11  1  0
 12 13  1  0
 12 14  1  0
 15 16  1  0
 15 17  1  0
 15 18  1  0
M  CHG  1   6  -1
M  END
>  <PDB_ID>  (249) 
pdb1aq2

>  <RESIDUE_NAME>  (249) 
GLU   VAL

>  <FRAG_NAME>  (249) 
ACET   PRPA

>  <FRAG_ATOM_NUM>  (249) 
fragi: 7  fragj: 11

>  <atom.prop.CHAIN_ID>  (249) 
A A A A A A A Z Z Z Z Z Z Z Z Z Z Z

>  <atom.prop.IS_HEAVY_ATOM>  (249) 
1 0 0 0 1 1 1 1 0 0 0 1 0 0 1 0 0 0

>  <DIFUSE_FUNC_ATOM>  (249) 
atom 6   atom 7   

>  <FINAL_SINGLE_POINT_ENERGY>  (249) 
0

>  <NONCOV_INTER_ENERGY_QM>  (249) 
0

>  <FF_Energy>  (249) 
7.08

>  <QM_Energy>  (249) 
-2.51

>  <Index>  (249) 
18609

$$$$
ACET-pdb2b2a-B-GLU-38:PRPA-pdb2b2a-A-LYS-185
     RDKit          3D

 18 16  0  0  0  0  0  0  0  0999 V2000
    0.0004    1.5235    0.0240 C   0  0  0  0  0  0  0  0  0  0  0  0
    0.8660    1.8243   -0.3313 H   0  0  0  0  0  0  0  0  0  0  0  0
   -0.1380    1.8040    0.9554 H   0  0  0  0  0  0  0  0  0  0  0  0
   -0.7897    1.9604   -0.5868 H   0  0  0  0  0  0  0  0  0  0  0  0
    0.0000    0.0000    0.0000 C   0  0  0  0  0  0  0  0  0  0  0  0
   -1.0946   -0.5993   -0.0000 O   0  0  0  0  0  1  0  0  0  0  0  0
    1.0946   -0.6031    0.0000 O   0  0  0  0  0  0  0  0  0  0  0  0
   -3.4295   -2.6530    2.1561 C   0  0  0  0  0  0  0  0  0  0  0  0
   -3.8681   -3.4541    2.5866 H   0  0  0  0  0  0  0  0  0  0  0  0
   -4.0844   -2.2658    1.3755 H   0  0  0  0  0  0  0  0  0  0  0  0
   -3.2455   -1.9021    2.9245 H   0  0  0  0  0  0  0  0  0  0  0  0
   -2.0988   -3.0954    1.5426 C   0  0  0  0  0  0  0  0  0  0  0  0
   -1.6133   -2.2824    1.2330 H   0  0  0  0  0  0  0  0  0  0  0  0
   -1.5699   -3.5595    2.2494 H   0  0  0  0  0  0  0  0  0  0  0  0
   -2.2551   -4.0390    0.3620 C   0  0  0  0  0  0  0  0  0  0  0  0
   -2.8536   -3.6139   -0.3183 H   0  0  0  0  0  0  0  0  0  0  0  0
   -1.3558   -4.2057   -0.0459 H   0  0  0  0  0  0  0  0  0  0  0  0
   -2.6874   -4.9931    0.6636 H   0  0  0  0  0  0  0  0  0  0  0  0
  1  5  1  0
  5  6  1  0
  5  7  2  0
  1  2  1  0
  1  3  1  0
  1  4  1  0
  8 12  1  0
 12 15  1  0
  8  9  1  0
  8 10  1  0
  8 11  1  0
 12 13  1  0
 12 14  1  0
 15 16  1  0
 15 17  1  0
 15 18  1  0
M  CHG  1   6  -1
M  END
>  <PDB_ID>  (250) 
pdb2b2a

>  <RESIDUE_NAME>  (250) 
GLU   LYS

>  <FRAG_NAME>  (250) 
ACET   PRPA

>  <FRAG_ATOM_NUM>  (250) 
fragi: 7  fragj: 11

>  <atom.prop.CHAIN_ID>  (250) 
A A A A A A A Z Z Z Z Z Z Z Z Z Z Z

>  <atom.prop.IS_HEAVY_ATOM>  (250) 
1 0 0 0 1 1 1 1 0 0 0 1 0 0 1 0 0 0

>  <DIFUSE_FUNC_ATOM>  (250) 
atom 6   atom 7   

>  <FINAL_SINGLE_POINT_ENERGY>  (250) 
0

>  <NONCOV_INTER_ENERGY_QM>  (250) 
0

>  <FF_Energy>  (250) 
4.03

>  <QM_Energy>  (250) 
-4.18

>  <Index>  (250) 
18820

$$$$
ACET-pdb1arl-A-ASP-89:PRPA-pdb1arl-A-LYS-85
     RDKit          3D

 18 16  0  0  0  0  0  0  0  0999 V2000
    0.2247    1.5131   -0.0523 C   0  0  0  0  0  0  0  0  0  0  0  0
    0.4994    1.7603   -0.9728 H   0  0  0  0  0  0  0  0  0  0  0  0
    0.9301    1.7507    0.6020 H   0  0  0  0  0  0  0  0  0  0  0  0
   -0.6704    2.0835    0.1955 H   0  0  0  0  0  0  0  0  0  0  0  0
    0.0000    0.0000    0.0000 C   0  0  0  0  0  0  0  0  0  0  0  0
   -1.1144   -0.5014    0.0000 O   0  0  0  0  0  1  0  0  0  0  0  0
    1.1144   -0.6752    0.0000 O   0  0  0  0  0  0  0  0  0  0  0  0
    0.8838   -0.6580   -4.4289 C   0  0  0  0  0  0  0  0  0  0  0  0
    1.7148   -1.1455   -4.7179 H   0  0  0  0  0  0  0  0  0  0  0  0
    1.1545    0.1987   -3.9778 H   0  0  0  0  0  0  0  0  0  0  0  0
    0.3057   -0.4098   -5.3190 H   0  0  0  0  0  0  0  0  0  0  0  0
    0.1137   -1.5115   -3.4630 C   0  0  0  0  0  0  0  0  0  0  0  0
   -0.5054   -0.9333   -2.9316 H   0  0  0  0  0  0  0  0  0  0  0  0
   -0.4172   -2.1910   -3.9704 H   0  0  0  0  0  0  0  0  0  0  0  0
    1.0235   -2.2511   -2.4906 C   0  0  0  0  0  0  0  0  0  0  0  0
    1.7067   -2.7588   -3.0185 H   0  0  0  0  0  0  0  0  0  0  0  0
    1.4901   -1.5757   -1.9156 H   0  0  0  0  0  0  0  0  0  0  0  0
    0.4504   -2.9375   -1.8672 H   0  0  0  0  0  0  0  0  0  0  0  0
  1  5  1  0
  5  6  1  0
  5  7  2  0
  1  2  1  0
  1  3  1  0
  1  4  1  0
  8 12  1  0
 12 15  1  0
  8  9  1  0
  8 10  1  0
  8 11  1  0
 12 13  1  0
 12 14  1  0
 15 16  1  0
 15 17  1  0
 15 18  1  0
M  CHG  1   6  -1
M  END
>  <PDB_ID>  (251) 
pdb1arl

>  <RESIDUE_NAME>  (251) 
ASP   LYS

>  <FRAG_NAME>  (251) 
ACET   PRPA

>  <FRAG_ATOM_NUM>  (251) 
fragi: 7  fragj: 11

>  <atom.prop.CHAIN_ID>  (251) 
A A A A A A A Z Z Z Z Z Z Z Z Z Z Z

>  <atom.prop.IS_HEAVY_ATOM>  (251) 
1 0 0 0 1 1 1 1 0 0 0 1 0 0 1 0 0 0

>  <DIFUSE_FUNC_ATOM>  (251) 
atom 6   atom 7   

>  <FINAL_SINGLE_POINT_ENERGY>  (251) 
0

>  <NONCOV_INTER_ENERGY_QM>  (251) 
0

>  <FF_Energy>  (251) 
3.61

>  <QM_Energy>  (251) 
-2.94

>  <Index>  (251) 
18840

$$$$
ACET-pdb2b59-A-ASP-99:PRPA-pdb2b59-A-LYS-102
     RDKit          3D

 18 16  0  0  0  0  0  0  0  0999 V2000
   -0.0074    1.5179    0.0066 C   0  0  0  0  0  0  0  0  0  0  0  0
    0.7829    1.8420   -0.4985 H   0  0  0  0  0  0  0  0  0  0  0  0
    0.0213    1.8330    0.9462 H   0  0  0  0  0  0  0  0  0  0  0  0
   -0.9016    1.9290   -0.4619 H   0  0  0  0  0  0  0  0  0  0  0  0
    0.0000    0.0000    0.0000 C   0  0  0  0  0  0  0  0  0  0  0  0
   -1.0993   -0.6001   -0.0000 O   0  0  0  0  0  1  0  0  0  0  0  0
    1.0993   -0.5931    0.0000 O   0  0  0  0  0  0  0  0  0  0  0  0
   -0.5920   -0.4965    3.8955 C   0  0  0  0  0  0  0  0  0  0  0  0
   -0.4274    0.2309    3.2318 H   0  0  0  0  0  0  0  0  0  0  0  0
   -0.0393   -0.3359    4.7122 H   0  0  0  0  0  0  0  0  0  0  0  0
   -1.6425   -0.4626    4.1844 H   0  0  0  0  0  0  0  0  0  0  0  0
   -0.1535   -1.8178    3.2740 C   0  0  0  0  0  0  0  0  0  0  0  0
   -0.2845   -2.5506    3.9393 H   0  0  0  0  0  0  0  0  0  0  0  0
   -0.7063   -1.9968    2.4628 H   0  0  0  0  0  0  0  0  0  0  0  0
    1.3176   -1.7797    2.8681 C   0  0  0  0  0  0  0  0  0  0  0  0
    1.4519   -1.0371    2.2215 H   0  0  0  0  0  0  0  0  0  0  0  0
    1.8717   -1.6399    3.6806 H   0  0  0  0  0  0  0  0  0  0  0  0
    1.6240   -2.7125    2.3947 H   0  0  0  0  0  0  0  0  0  0  0  0
  1  5  1  0
  5  6  1  0
  5  7  2  0
  1  2  1  0
  1  3  1  0
  1  4  1  0
  8 12  1  0
 12 15  1  0
  8  9  1  0
  8 10  1  0
  8 11  1  0
 12 13  1  0
 12 14  1  0
 15 16  1  0
 15 17  1  0
 15 18  1  0
M  CHG  1   6  -1
M  END
>  <PDB_ID>  (252) 
pdb2b59

>  <RESIDUE_NAME>  (252) 
ASP   LYS

>  <FRAG_NAME>  (252) 
ACET   PRPA

>  <FRAG_ATOM_NUM>  (252) 
fragi: 7  fragj: 11

>  <atom.prop.CHAIN_ID>  (252) 
A A A A A A A Z Z Z Z Z Z Z Z Z Z Z

>  <atom.prop.IS_HEAVY_ATOM>  (252) 
1 0 0 0 1 1 1 1 0 0 0 1 0 0 1 0 0 0

>  <DIFUSE_FUNC_ATOM>  (252) 
atom 6   atom 7   

>  <FINAL_SINGLE_POINT_ENERGY>  (252) 
0

>  <NONCOV_INTER_ENERGY_QM>  (252) 
0

>  <FF_Energy>  (252) 
0.66

>  <QM_Energy>  (252) 
-4.56

>  <Index>  (252) 
18897

$$$$
ACET-pdb1aq2-A-ASP-22:PRPA-pdb1aq2-A-ARG-117
     RDKit          3D

 18 16  0  0  0  0  0  0  0  0999 V2000
    0.0108    1.5230   -0.0227 C   0  0  0  0  0  0  0  0  0  0  0  0
    0.2520    1.8255   -0.9380 H   0  0  0  0  0  0  0  0  0  0  0  0
    0.6794    1.8463    0.6369 H   0  0  0  0  0  0  0  0  0  0  0  0
   -0.9535    1.9620    0.2334 H   0  0  0  0  0  0  0  0  0  0  0  0
    0.0000    0.0000    0.0000 C   0  0  0  0  0  0  0  0  0  0  0  0
   -1.0978   -0.6005   -0.0000 O   0  0  0  0  0  1  0  0  0  0  0  0
    1.0978   -0.6009    0.0000 O   0  0  0  0  0  0  0  0  0  0  0  0
    2.9921    3.3881    2.2614 C   0  0  0  0  0  0  0  0  0  0  0  0
    3.1763    3.6191    1.3123 H   0  0  0  0  0  0  0  0  0  0  0  0
    3.8039    3.5371    2.8169 H   0  0  0  0  0  0  0  0  0  0  0  0
    2.2042    4.0475    2.6256 H   0  0  0  0  0  0  0  0  0  0  0  0
    2.6242    1.9352    2.3359 C   0  0  0  0  0  0  0  0  0  0  0  0
    2.5937    1.6436    3.2887 H   0  0  0  0  0  0  0  0  0  0  0  0
    1.7359    1.7910    1.9074 H   0  0  0  0  0  0  0  0  0  0  0  0
    3.6387    1.0965    1.6154 C   0  0  0  0  0  0  0  0  0  0  0  0
    3.6414    1.3577    0.6557 H   0  0  0  0  0  0  0  0  0  0  0  0
    4.5324    1.2626    2.0215 H   0  0  0  0  0  0  0  0  0  0  0  0
    3.3983    0.0366    1.6984 H   0  0  0  0  0  0  0  0  0  0  0  0
  1  5  1  0
  5  6  1  0
  5  7  2  0
  1  2  1  0
  1  3  1  0
  1  4  1  0
  8 12  1  0
 12 15  1  0
  8  9  1  0
  8 10  1  0
  8 11  1  0
 12 13  1  0
 12 14  1  0
 15 16  1  0
 15 17  1  0
 15 18  1  0
M  CHG  1   6  -1
M  END
>  <PDB_ID>  (253) 
pdb1aq2

>  <RESIDUE_NAME>  (253) 
ASP   ARG

>  <FRAG_NAME>  (253) 
ACET   PRPA

>  <FRAG_ATOM_NUM>  (253) 
fragi: 7  fragj: 11

>  <atom.prop.CHAIN_ID>  (253) 
A A A A A A A Z Z Z Z Z Z Z Z Z Z Z

>  <atom.prop.IS_HEAVY_ATOM>  (253) 
1 0 0 0 1 1 1 1 0 0 0 1 0 0 1 0 0 0

>  <DIFUSE_FUNC_ATOM>  (253) 
atom 6   atom 7   

>  <FINAL_SINGLE_POINT_ENERGY>  (253) 
0

>  <NONCOV_INTER_ENERGY_QM>  (253) 
0

>  <FF_Energy>  (253) 
15.38

>  <QM_Energy>  (253) 
-0.72

>  <Index>  (253) 
19020

$$$$
ACET-pdb2b5h-A-ASP-108:PRPA-pdb2b5h-A-LYS-120
     RDKit          3D

 18 16  0  0  0  0  0  0  0  0999 V2000
    0.0271    1.5121    0.0383 C   0  0  0  0  0  0  0  0  0  0  0  0
    0.9184    1.8286   -0.2676 H   0  0  0  0  0  0  0  0  0  0  0  0
   -0.1500    1.8168    0.9667 H   0  0  0  0  0  0  0  0  0  0  0  0
   -0.7232    1.9682   -0.6075 H   0  0  0  0  0  0  0  0  0  0  0  0
    0.0000    0.0000    0.0000 C   0  0  0  0  0  0  0  0  0  0  0  0
   -1.0902   -0.6064   -0.0000 O   0  0  0  0  0  1  0  0  0  0  0  0
    1.0902   -0.5886    0.0000 O   0  0  0  0  0  0  0  0  0  0  0  0
    0.3324   -1.2139   -3.5929 C   0  0  0  0  0  0  0  0  0  0  0  0
    0.9073   -1.3799   -2.7911 H   0  0  0  0  0  0  0  0  0  0  0  0
    0.6005   -0.3527   -4.0228 H   0  0  0  0  0  0  0  0  0  0  0  0
    0.4372   -2.0344   -4.3029 H   0  0  0  0  0  0  0  0  0  0  0  0
   -1.1205   -1.0772   -3.1167 C   0  0  0  0  0  0  0  0  0  0  0  0
   -1.2136   -0.2103   -2.6303 H   0  0  0  0  0  0  0  0  0  0  0  0
   -1.7183   -1.0811   -3.9158 H   0  0  0  0  0  0  0  0  0  0  0  0
   -1.5455   -2.2072   -2.1852 C   0  0  0  0  0  0  0  0  0  0  0  0
   -0.8863   -2.2509   -1.4134 H   0  0  0  0  0  0  0  0  0  0  0  0
   -2.4506   -1.9717   -1.7887 H   0  0  0  0  0  0  0  0  0  0  0  0
   -1.6065   -3.1861   -2.6606 H   0  0  0  0  0  0  0  0  0  0  0  0
  1  5  1  0
  5  6  1  0
  5  7  2  0
  1  2  1  0
  1  3  1  0
  1  4  1  0
  8 12  1  0
 12 15  1  0
  8  9  1  0
  8 10  1  0
  8 11  1  0
 12 13  1  0
 12 14  1  0
 15 16  1  0
 15 17  1  0
 15 18  1  0
M  CHG  1   6  -1
M  END
>  <PDB_ID>  (254) 
pdb2b5h

>  <RESIDUE_NAME>  (254) 
ASP   LYS

>  <FRAG_NAME>  (254) 
ACET   PRPA

>  <FRAG_ATOM_NUM>  (254) 
fragi: 7  fragj: 11

>  <atom.prop.CHAIN_ID>  (254) 
A A A A A A A Z Z Z Z Z Z Z Z Z Z Z

>  <atom.prop.IS_HEAVY_ATOM>  (254) 
1 0 0 0 1 1 1 1 0 0 0 1 0 0 1 0 0 0

>  <DIFUSE_FUNC_ATOM>  (254) 
atom 6   atom 7   

>  <FINAL_SINGLE_POINT_ENERGY>  (254) 
0

>  <NONCOV_INTER_ENERGY_QM>  (254) 
0

>  <FF_Energy>  (254) 
5.61

>  <QM_Energy>  (254) 
-3.69

>  <Index>  (254) 
19110

$$$$
ACET-pdb2az1-B-GLU-141:PRPA-pdb2az1-B-LYS-40
     RDKit          3D

 18 16  0  0  0  0  0  0  0  0999 V2000
    0.0319    1.5319    0.0379 C   0  0  0  0  0  0  0  0  0  0  0  0
    0.9628    1.7991    0.1991 H   0  0  0  0  0  0  0  0  0  0  0  0
   -0.5694    1.8162    0.7604 H   0  0  0  0  0  0  0  0  0  0  0  0
   -0.3033    1.9879   -0.8936 H   0  0  0  0  0  0  0  0  0  0  0  0
    0.0000    0.0000    0.0000 C   0  0  0  0  0  0  0  0  0  0  0  0
   -1.0955   -0.6356    0.0000 O   0  0  0  0  0  1  0  0  0  0  0  0
    1.0955   -0.5751   -0.0000 O   0  0  0  0  0  0  0  0  0  0  0  0
    4.4593   -1.0236   -3.6645 C   0  0  0  0  0  0  0  0  0  0  0  0
    4.1928   -1.0595   -4.6302 H   0  0  0  0  0  0  0  0  0  0  0  0
    4.9154   -1.8802   -3.4167 H   0  0  0  0  0  0  0  0  0  0  0  0
    5.1373   -0.1855   -3.5029 H   0  0  0  0  0  0  0  0  0  0  0  0
    3.1873   -0.8944   -2.8200 C   0  0  0  0  0  0  0  0  0  0  0  0
    2.8611    0.0387   -2.8816 H   0  0  0  0  0  0  0  0  0  0  0  0
    2.5119   -1.5323   -3.1636 H   0  0  0  0  0  0  0  0  0  0  0  0
    3.4758   -1.2201   -1.3652 C   0  0  0  0  0  0  0  0  0  0  0  0
    4.4725   -1.1660   -1.2062 H   0  0  0  0  0  0  0  0  0  0  0  0
    3.0321   -0.5279   -0.7771 H   0  0  0  0  0  0  0  0  0  0  0  0
    3.1305   -2.2069   -1.0569 H   0  0  0  0  0  0  0  0  0  0  0  0
  1  5  1  0
  5  6  1  0
  5  7  2  0
  1  2  1  0
  1  3  1  0
  1  4  1  0
  8 12  1  0
 12 15  1  0
  8  9  1  0
  8 10  1  0
  8 11  1  0
 12 13  1  0
 12 14  1  0
 15 16  1  0
 15 17  1  0
 15 18  1  0
M  CHG  1   6  -1
M  END
>  <PDB_ID>  (255) 
pdb2az1

>  <RESIDUE_NAME>  (255) 
GLU   LYS

>  <FRAG_NAME>  (255) 
ACET   PRPA

>  <FRAG_ATOM_NUM>  (255) 
fragi: 7  fragj: 11

>  <atom.prop.CHAIN_ID>  (255) 
A A A A A A A Z Z Z Z Z Z Z Z Z Z Z

>  <atom.prop.IS_HEAVY_ATOM>  (255) 
1 0 0 0 1 1 1 1 0 0 0 1 0 0 1 0 0 0

>  <DIFUSE_FUNC_ATOM>  (255) 
atom 6   atom 7   

>  <FINAL_SINGLE_POINT_ENERGY>  (255) 
0

>  <NONCOV_INTER_ENERGY_QM>  (255) 
0

>  <FF_Energy>  (255) 
6.61

>  <QM_Energy>  (255) 
-0.89

>  <Index>  (255) 
19124

$$$$
ACET-pdb2aw5-A-ASP-80:PRPA-pdb2aw5-A-LYS-119
     RDKit          3D

 18 16  0  0  0  0  0  0  0  0999 V2000
   -0.0270    1.5128   -0.0188 C   0  0  0  0  0  0  0  0  0  0  0  0
    0.6031    1.8541    0.6692 H   0  0  0  0  0  0  0  0  0  0  0  0
   -0.9509    1.8209    0.1724 H   0  0  0  0  0  0  0  0  0  0  0  0
    0.2718    1.9270   -0.9818 H   0  0  0  0  0  0  0  0  0  0  0  0
    0.0000    0.0000    0.0000 C   0  0  0  0  0  0  0  0  0  0  0  0
   -1.1017   -0.6025   -0.0000 O   0  0  0  0  0  1  0  0  0  0  0  0
    1.1017   -0.6047   -0.0000 O   0  0  0  0  0  0  0  0  0  0  0  0
    0.1129   -1.6709    3.5632 C   0  0  0  0  0  0  0  0  0  0  0  0
    0.2092   -0.6802    3.4596 H   0  0  0  0  0  0  0  0  0  0  0  0
    0.6536   -2.1321    2.8581 H   0  0  0  0  0  0  0  0  0  0  0  0
    0.5163   -1.9510    4.5362 H   0  0  0  0  0  0  0  0  0  0  0  0
   -1.3519   -2.0312    3.3534 C   0  0  0  0  0  0  0  0  0  0  0  0
   -1.4587   -3.0227    3.4491 H   0  0  0  0  0  0  0  0  0  0  0  0
   -1.9031   -1.5708    4.0506 H   0  0  0  0  0  0  0  0  0  0  0  0
   -1.8422   -1.6132    1.9802 C   0  0  0  0  0  0  0  0  0  0  0  0
   -1.7311   -0.6227    1.8871 H   0  0  0  0  0  0  0  0  0  0  0  0
   -1.2879   -2.0753    1.2857 H   0  0  0  0  0  0  0  0  0  0  0  0
   -2.8896   -1.8643    1.8134 H   0  0  0  0  0  0  0  0  0  0  0  0
  1  5  1  0
  5  6  1  0
  5  7  2  0
  1  2  1  0
  1  3  1  0
  1  4  1  0
  8 12  1  0
 12 15  1  0
  8  9  1  0
  8 10  1  0
  8 11  1  0
 12 13  1  0
 12 14  1  0
 15 16  1  0
 15 17  1  0
 15 18  1  0
M  CHG  1   6  -1
M  END
>  <PDB_ID>  (256) 
pdb2aw5

>  <RESIDUE_NAME>  (256) 
ASP   LYS

>  <FRAG_NAME>  (256) 
ACET   PRPA

>  <FRAG_ATOM_NUM>  (256) 
fragi: 7  fragj: 11

>  <atom.prop.CHAIN_ID>  (256) 
A A A A A A A Z Z Z Z Z Z Z Z Z Z Z

>  <atom.prop.IS_HEAVY_ATOM>  (256) 
1 0 0 0 1 1 1 1 0 0 0 1 0 0 1 0 0 0

>  <DIFUSE_FUNC_ATOM>  (256) 
atom 6   atom 7   

>  <FINAL_SINGLE_POINT_ENERGY>  (256) 
0

>  <NONCOV_INTER_ENERGY_QM>  (256) 
0

>  <FF_Energy>  (256) 
46.52

>  <QM_Energy>  (256) 
11.31

>  <Index>  (256) 
19409

$$$$
ACET-pdb1ado-B-GLU-187:PRPA-pdb1ado-B-LYS-146
     RDKit          3D

 18 16  0  0  0  0  0  0  0  0999 V2000
    0.0294    1.5249   -0.0277 C   0  0  0  0  0  0  0  0  0  0  0  0
    0.3139    1.8006   -0.9311 H   0  0  0  0  0  0  0  0  0  0  0  0
    0.6703    1.8222    0.6616 H   0  0  0  0  0  0  0  0  0  0  0  0
   -0.9301    1.9989    0.1794 H   0  0  0  0  0  0  0  0  0  0  0  0
    0.0000    0.0000    0.0000 C   0  0  0  0  0  0  0  0  0  0  0  0
   -1.0880   -0.6070   -0.0000 O   0  0  0  0  0  1  0  0  0  0  0  0
    1.0880   -0.5984    0.0000 O   0  0  0  0  0  0  0  0  0  0  0  0
   -5.7439   -1.6678    2.1097 C   0  0  0  0  0  0  0  0  0  0  0  0
   -5.9371   -1.8578    3.0736 H   0  0  0  0  0  0  0  0  0  0  0  0
   -5.8971   -2.4991    1.5731 H   0  0  0  0  0  0  0  0  0  0  0  0
   -6.4495   -0.9110    1.7671 H   0  0  0  0  0  0  0  0  0  0  0  0
   -4.2946   -1.2707    1.9789 C   0  0  0  0  0  0  0  0  0  0  0  0
   -4.2187   -0.2739    2.0460 H   0  0  0  0  0  0  0  0  0  0  0  0
   -3.7676   -1.6913    2.7203 H   0  0  0  0  0  0  0  0  0  0  0  0
   -3.7176   -1.7175    0.6538 C   0  0  0  0  0  0  0  0  0  0  0  0
   -4.3939   -1.5569   -0.0605 H   0  0  0  0  0  0  0  0  0  0  0  0
   -2.8931   -1.1901    0.4685 H   0  0  0  0  0  0  0  0  0  0  0  0
   -3.4648   -2.7776    0.6719 H   0  0  0  0  0  0  0  0  0  0  0  0
  1  5  1  0
  5  6  1  0
  5  7  2  0
  1  2  1  0
  1  3  1  0
  1  4  1  0
  8 12  1  0
 12 15  1  0
  8  9  1  0
  8 10  1  0
  8 11  1  0
 12 13  1  0
 12 14  1  0
 15 16  1  0
 15 17  1  0
 15 18  1  0
M  CHG  1   6  -1
M  END
>  <PDB_ID>  (257) 
pdb1ado

>  <RESIDUE_NAME>  (257) 
GLU   LYS

>  <FRAG_NAME>  (257) 
ACET   PRPA

>  <FRAG_ATOM_NUM>  (257) 
fragi: 7  fragj: 11

>  <atom.prop.CHAIN_ID>  (257) 
A A A A A A A Z Z Z Z Z Z Z Z Z Z Z

>  <atom.prop.IS_HEAVY_ATOM>  (257) 
1 0 0 0 1 1 1 1 0 0 0 1 0 0 1 0 0 0

>  <DIFUSE_FUNC_ATOM>  (257) 
atom 6   atom 7   

>  <FINAL_SINGLE_POINT_ENERGY>  (257) 
0

>  <NONCOV_INTER_ENERGY_QM>  (257) 
0

>  <FF_Energy>  (257) 
14.52

>  <QM_Energy>  (257) 
-1.79

>  <Index>  (257) 
19460

$$$$
ACET-pdb1ass-A-GLU-9:PRPA-pdb1ass-A-ARG-144
     RDKit          3D

 18 16  0  0  0  0  0  0  0  0999 V2000
    0.0362    1.5145    0.0162 C   0  0  0  0  0  0  0  0  0  0  0  0
    0.5186    1.8031   -0.7959 H   0  0  0  0  0  0  0  0  0  0  0  0
    0.5157    1.7850    0.8369 H   0  0  0  0  0  0  0  0  0  0  0  0
   -0.9548    1.9684    0.0182 H   0  0  0  0  0  0  0  0  0  0  0  0
    0.0000    0.0000    0.0000 C   0  0  0  0  0  0  0  0  0  0  0  0
   -1.0998   -0.6049    0.0000 O   0  0  0  0  0  1  0  0  0  0  0  0
    1.0998   -0.5909   -0.0000 O   0  0  0  0  0  0  0  0  0  0  0  0
   -3.9744    0.2904   -1.7450 C   0  0  0  0  0  0  0  0  0  0  0  0
   -2.9998    0.4397   -1.8876 H   0  0  0  0  0  0  0  0  0  0  0  0
   -4.2411    0.6179   -0.8423 H   0  0  0  0  0  0  0  0  0  0  0  0
   -4.5299    0.8462   -2.5003 H   0  0  0  0  0  0  0  0  0  0  0  0
   -4.2245   -1.2085   -1.7855 C   0  0  0  0  0  0  0  0  0  0  0  0
   -5.2055   -1.3879   -1.7920 H   0  0  0  0  0  0  0  0  0  0  0  0
   -3.8024   -1.5993   -2.5997 H   0  0  0  0  0  0  0  0  0  0  0  0
   -3.6278   -1.9326   -0.5602 C   0  0  0  0  0  0  0  0  0  0  0  0
   -2.6845   -1.6358   -0.4673 H   0  0  0  0  0  0  0  0  0  0  0  0
   -4.1593   -1.6618    0.2348 H   0  0  0  0  0  0  0  0  0  0  0  0
   -3.6631   -3.0160   -0.6749 H   0  0  0  0  0  0  0  0  0  0  0  0
  1  5  1  0
  5  6  1  0
  5  7  2  0
  1  2  1  0
  1  3  1  0
  1  4  1  0
  8 12  1  0
 12 15  1  0
  8  9  1  0
  8 10  1  0
  8 11  1  0
 12 13  1  0
 12 14  1  0
 15 16  1  0
 15 17  1  0
 15 18  1  0
M  CHG  1   6  -1
M  END
>  <PDB_ID>  (258) 
pdb1ass

>  <RESIDUE_NAME>  (258) 
GLU   ARG

>  <FRAG_NAME>  (258) 
ACET   PRPA

>  <FRAG_ATOM_NUM>  (258) 
fragi: 7  fragj: 11

>  <atom.prop.CHAIN_ID>  (258) 
A A A A A A A Z Z Z Z Z Z Z Z Z Z Z

>  <atom.prop.IS_HEAVY_ATOM>  (258) 
1 0 0 0 1 1 1 1 0 0 0 1 0 0 1 0 0 0

>  <DIFUSE_FUNC_ATOM>  (258) 
atom 6   atom 7   

>  <FINAL_SINGLE_POINT_ENERGY>  (258) 
0

>  <NONCOV_INTER_ENERGY_QM>  (258) 
0

>  <FF_Energy>  (258) 
15.38

>  <QM_Energy>  (258) 
-2.87

>  <Index>  (258) 
19493

$$$$
ACET-pdb1ass-A-GLU-133:PRPA-pdb1ass-A-LYS-152
     RDKit          3D

 18 16  0  0  0  0  0  0  0  0999 V2000
    0.0444    1.5596    0.0749 C   0  0  0  0  0  0  0  0  0  0  0  0
    0.9703    1.8291   -0.0550 H   0  0  0  0  0  0  0  0  0  0  0  0
   -0.3258    1.8177    0.9369 H   0  0  0  0  0  0  0  0  0  0  0  0
   -0.5532    2.0364   -0.7021 H   0  0  0  0  0  0  0  0  0  0  0  0
    0.0000    0.0000    0.0000 C   0  0  0  0  0  0  0  0  0  0  0  0
   -1.0643   -0.5763    0.0000 O   0  0  0  0  0  1  0  0  0  0  0  0
    1.0643   -0.6332    0.0000 O   0  0  0  0  0  0  0  0  0  0  0  0
    5.0133    2.9345    0.0727 C   0  0  0  0  0  0  0  0  0  0  0  0
    5.1993    2.6661    1.0141 H   0  0  0  0  0  0  0  0  0  0  0  0
    4.2748    3.6028    0.0483 H   0  0  0  0  0  0  0  0  0  0  0  0
    5.9119    3.3818   -0.3525 H   0  0  0  0  0  0  0  0  0  0  0  0
    4.5985    1.7082   -0.7197 C   0  0  0  0  0  0  0  0  0  0  0  0
    4.2899    2.0085   -1.6304 H   0  0  0  0  0  0  0  0  0  0  0  0
    5.4051    1.1176   -0.8363 H   0  0  0  0  0  0  0  0  0  0  0  0
    3.5057    0.9165   -0.0734 C   0  0  0  0  0  0  0  0  0  0  0  0
    3.7948    0.6219    0.8265 H   0  0  0  0  0  0  0  0  0  0  0  0
    2.6818    1.4641   -0.0209 H   0  0  0  0  0  0  0  0  0  0  0  0
    3.3182    0.0421   -0.6965 H   0  0  0  0  0  0  0  0  0  0  0  0
  1  5  1  0
  5  6  1  0
  5  7  2  0
  1  2  1  0
  1  3  1  0
  1  4  1  0
  8 12  1  0
 12 15  1  0
  8  9  1  0
  8 10  1  0
  8 11  1  0
 12 13  1  0
 12 14  1  0
 15 16  1  0
 15 17  1  0
 15 18  1  0
M  CHG  1   6  -1
M  END
>  <PDB_ID>  (259) 
pdb1ass

>  <RESIDUE_NAME>  (259) 
GLU   LYS

>  <FRAG_NAME>  (259) 
ACET   PRPA

>  <FRAG_ATOM_NUM>  (259) 
fragi: 7  fragj: 11

>  <atom.prop.CHAIN_ID>  (259) 
A A A A A A A Z Z Z Z Z Z Z Z Z Z Z

>  <atom.prop.IS_HEAVY_ATOM>  (259) 
1 0 0 0 1 1 1 1 0 0 0 1 0 0 1 0 0 0

>  <DIFUSE_FUNC_ATOM>  (259) 
atom 6   atom 7   

>  <FINAL_SINGLE_POINT_ENERGY>  (259) 
0

>  <NONCOV_INTER_ENERGY_QM>  (259) 
0

>  <FF_Energy>  (259) 
8.84

>  <QM_Energy>  (259) 
1.43

>  <Index>  (259) 
19577

$$$$
ACET-pdb2ash-B-ASP-136:PRPA-pdb2ash-B-PRO-85
     RDKit          3D

 18 16  0  0  0  0  0  0  0  0999 V2000
   -0.0066    1.5264    0.0266 C   0  0  0  0  0  0  0  0  0  0  0  0
   -0.7229    1.8476   -0.5764 H   0  0  0  0  0  0  0  0  0  0  0  0
    0.8801    1.8496   -0.2711 H   0  0  0  0  0  0  0  0  0  0  0  0
   -0.1979    1.9160    1.0264 H   0  0  0  0  0  0  0  0  0  0  0  0
    0.0000    0.0000    0.0000 C   0  0  0  0  0  0  0  0  0  0  0  0
   -1.1050   -0.5827   -0.0000 O   0  0  0  0  0  1  0  0  0  0  0  0
    1.1050   -0.5905    0.0000 O   0  0  0  0  0  0  0  0  0  0  0  0
   -1.3727   -1.1005   -3.0500 C   0  0  0  0  0  0  0  0  0  0  0  0
   -1.0499   -1.1492   -2.0650 H   0  0  0  0  0  0  0  0  0  0  0  0
   -1.1446   -2.0298   -3.5721 H   0  0  0  0  0  0  0  0  0  0  0  0
   -2.4042   -0.7490   -3.0713 H   0  0  0  0  0  0  0  0  0  0  0  0
   -0.4585   -0.0839   -3.7354 C   0  0  0  0  0  0  0  0  0  0  0  0
   -0.9553    0.3721   -4.4845 H   0  0  0  0  0  0  0  0  0  0  0  0
   -0.1719    0.6207   -3.0741 H   0  0  0  0  0  0  0  0  0  0  0  0
    0.6477   -0.8729   -4.2109 C   0  0  0  0  0  0  0  0  0  0  0  0
    1.1326   -0.4121   -4.9763 H   0  0  0  0  0  0  0  0  0  0  0  0
    1.3345   -1.0307   -3.4787 H   0  0  0  0  0  0  0  0  0  0  0  0
    0.2193   -1.8183   -4.5438 H   0  0  0  0  0  0  0  0  0  0  0  0
  1  5  1  0
  5  6  1  0
  5  7  2  0
  1  2  1  0
  1  3  1  0
  1  4  1  0
  8 12  1  0
 12 15  1  0
  8  9  1  0
  8 10  1  0
  8 11  1  0
 12 13  1  0
 12 14  1  0
 15 16  1  0
 15 17  1  0
 15 18  1  0
M  CHG  1   6  -1
M  END
>  <PDB_ID>  (260) 
pdb2ash

>  <RESIDUE_NAME>  (260) 
ASP   PRO

>  <FRAG_NAME>  (260) 
ACET   PRPA

>  <FRAG_ATOM_NUM>  (260) 
fragi: 7  fragj: 11

>  <atom.prop.CHAIN_ID>  (260) 
A A A A A A A Z Z Z Z Z Z Z Z Z Z Z

>  <atom.prop.IS_HEAVY_ATOM>  (260) 
1 0 0 0 1 1 1 1 0 0 0 1 0 0 1 0 0 0

>  <DIFUSE_FUNC_ATOM>  (260) 
atom 6   atom 7   

>  <FINAL_SINGLE_POINT_ENERGY>  (260) 
0

>  <NONCOV_INTER_ENERGY_QM>  (260) 
0

>  <FF_Energy>  (260) 
4.4

>  <QM_Energy>  (260) 
-4.23

>  <Index>  (260) 
19579

$$$$
ACET-pdb2b0o-E-GLU-565:PRPA-pdb2b0o-E-ARG-542
     RDKit          3D

 18 16  0  0  0  0  0  0  0  0999 V2000
   -0.0109    1.5423    0.0273 C   0  0  0  0  0  0  0  0  0  0  0  0
   -0.1284    1.8145    0.9562 H   0  0  0  0  0  0  0  0  0  0  0  0
   -0.7324    1.8367   -0.5600 H   0  0  0  0  0  0  0  0  0  0  0  0
    0.9253    1.9640   -0.3385 H   0  0  0  0  0  0  0  0  0  0  0  0
    0.0000    0.0000    0.0000 C   0  0  0  0  0  0  0  0  0  0  0  0
   -1.0899   -0.6092   -0.0000 O   0  0  0  0  0  1  0  0  0  0  0  0
    1.0899   -0.6169    0.0000 O   0  0  0  0  0  0  0  0  0  0  0  0
   -4.2542    0.5307   -1.6623 C   0  0  0  0  0  0  0  0  0  0  0  0
   -4.5500    0.2327   -2.5541 H   0  0  0  0  0  0  0  0  0  0  0  0
   -3.3991    1.0188   -1.7037 H   0  0  0  0  0  0  0  0  0  0  0  0
   -5.0147    1.1886   -1.2417 H   0  0  0  0  0  0  0  0  0  0  0  0
   -4.0697   -0.6781   -0.7937 C   0  0  0  0  0  0  0  0  0  0  0  0
   -3.3619   -0.4983   -0.1088 H   0  0  0  0  0  0  0  0  0  0  0  0
   -4.9299   -0.8955   -0.3297 H   0  0  0  0  0  0  0  0  0  0  0  0
   -3.6520   -1.8841   -1.5949 C   0  0  0  0  0  0  0  0  0  0  0  0
   -3.4935   -2.6441   -0.9601 H   0  0  0  0  0  0  0  0  0  0  0  0
   -4.4048   -2.1263   -2.2126 H   0  0  0  0  0  0  0  0  0  0  0  0
   -2.7490   -1.7163   -2.1819 H   0  0  0  0  0  0  0  0  0  0  0  0
  1  5  1  0
  5  6  1  0
  5  7  2  0
  1  2  1  0
  1  3  1  0
  1  4  1  0
  8 12  1  0
 12 15  1  0
  8  9  1  0
  8 10  1  0
  8 11  1  0
 12 13  1  0
 12 14  1  0
 15 16  1  0
 15 17  1  0
 15 18  1  0
M  CHG  1   6  -1
M  END
>  <PDB_ID>  (261) 
pdb2b0o

>  <RESIDUE_NAME>  (261) 
GLU   ARG

>  <FRAG_NAME>  (261) 
ACET   PRPA

>  <FRAG_ATOM_NUM>  (261) 
fragi: 7  fragj: 11

>  <atom.prop.CHAIN_ID>  (261) 
A A A A A A A Z Z Z Z Z Z Z Z Z Z Z

>  <atom.prop.IS_HEAVY_ATOM>  (261) 
1 0 0 0 1 1 1 1 0 0 0 1 0 0 1 0 0 0

>  <DIFUSE_FUNC_ATOM>  (261) 
atom 6   atom 7   

>  <FINAL_SINGLE_POINT_ENERGY>  (261) 
0

>  <NONCOV_INTER_ENERGY_QM>  (261) 
0

>  <FF_Energy>  (261) 
0.84

>  <QM_Energy>  (261) 
-4.22

>  <Index>  (261) 
19721

$$$$
ACET-pdb1aua-A-ASP-68:PRPA-pdb1aua-A-LEU-71
     RDKit          3D

 18 16  0  0  0  0  0  0  0  0999 V2000
    0.0029    1.5206   -0.0232 C   0  0  0  0  0  0  0  0  0  0  0  0
   -0.7457    1.8321   -0.5969 H   0  0  0  0  0  0  0  0  0  0  0  0
    0.8727    1.8329   -0.3840 H   0  0  0  0  0  0  0  0  0  0  0  0
   -0.1274    1.9601    0.9656 H   0  0  0  0  0  0  0  0  0  0  0  0
    0.0000    0.0000    0.0000 C   0  0  0  0  0  0  0  0  0  0  0  0
   -1.0937   -0.6008   -0.0000 O   0  0  0  0  0  1  0  0  0  0  0  0
    1.0937   -0.5968    0.0000 O   0  0  0  0  0  0  0  0  0  0  0  0
    3.8621    0.9988   -1.5610 C   0  0  0  0  0  0  0  0  0  0  0  0
    3.2116    1.6498   -1.1738 H   0  0  0  0  0  0  0  0  0  0  0  0
    4.4324    1.4528   -2.2410 H   0  0  0  0  0  0  0  0  0  0  0  0
    4.5125    0.6605   -0.7544 H   0  0  0  0  0  0  0  0  0  0  0  0
    3.0560   -0.0775   -2.2846 C   0  0  0  0  0  0  0  0  0  0  0  0
    2.4431   -0.5192   -1.6345 H   0  0  0  0  0  0  0  0  0  0  0  0
    3.7270   -0.8411   -2.6779 H   0  0  0  0  0  0  0  0  0  0  0  0
    2.2343    0.5558   -3.4027 C   0  0  0  0  0  0  0  0  0  0  0  0
    2.8470    1.0033   -4.0532 H   0  0  0  0  0  0  0  0  0  0  0  0
    1.7094   -0.1540   -3.8721 H   0  0  0  0  0  0  0  0  0  0  0  0
    1.6090    1.2322   -3.0144 H   0  0  0  0  0  0  0  0  0  0  0  0
  1  5  1  0
  5  6  1  0
  5  7  2  0
  1  2  1  0
  1  3  1  0
  1  4  1  0
  8 12  1  0
 12 15  1  0
  8  9  1  0
  8 10  1  0
  8 11  1  0
 12 13  1  0
 12 14  1  0
 15 16  1  0
 15 17  1  0
 15 18  1  0
M  CHG  1   6  -1
M  END
>  <PDB_ID>  (262) 
pdb1aua

>  <RESIDUE_NAME>  (262) 
ASP   LEU

>  <FRAG_NAME>  (262) 
ACET   PRPA

>  <FRAG_ATOM_NUM>  (262) 
fragi: 7  fragj: 11

>  <atom.prop.CHAIN_ID>  (262) 
A A A A A A A Z Z Z Z Z Z Z Z Z Z Z

>  <atom.prop.IS_HEAVY_ATOM>  (262) 
1 0 0 0 1 1 1 1 0 0 0 1 0 0 1 0 0 0

>  <DIFUSE_FUNC_ATOM>  (262) 
atom 6   atom 7   

>  <FINAL_SINGLE_POINT_ENERGY>  (262) 
0

>  <NONCOV_INTER_ENERGY_QM>  (262) 
0

>  <FF_Energy>  (262) 
4.52

>  <QM_Energy>  (262) 
-3.85

>  <Index>  (262) 
19737

$$$$
ACET-pdb2b5v-A-GLU-132:PRPA-pdb2b5v-A-GLU-76
     RDKit          3D

 18 16  0  0  0  0  0  0  0  0999 V2000
   -0.0125    1.5238    0.0031 C   0  0  0  0  0  0  0  0  0  0  0  0
   -0.1657    1.8162   -0.9152 H   0  0  0  0  0  0  0  0  0  0  0  0
    0.8417    1.8218    0.3701 H   0  0  0  0  0  0  0  0  0  0  0  0
   -0.8169    1.9078    0.6305 H   0  0  0  0  0  0  0  0  0  0  0  0
    0.0000    0.0000    0.0000 C   0  0  0  0  0  0  0  0  0  0  0  0
   -1.1036   -0.5984    0.0000 O   0  0  0  0  0  1  0  0  0  0  0  0
    1.1036   -0.5938   -0.0000 O   0  0  0  0  0  0  0  0  0  0  0  0
    2.2540   -3.2480    1.3067 C   0  0  0  0  0  0  0  0  0  0  0  0
    2.3446   -4.1819    1.7071 H   0  0  0  0  0  0  0  0  0  0  0  0
    1.3239   -2.7958    1.6510 H   0  0  0  0  0  0  0  0  0  0  0  0
    3.1433   -2.6667    1.5502 H   0  0  0  0  0  0  0  0  0  0  0  0
    2.2007   -3.4896   -0.1987 C   0  0  0  0  0  0  0  0  0  0  0  0
    1.8173   -2.6861   -0.6158 H   0  0  0  0  0  0  0  0  0  0  0  0
    3.1170   -3.6672   -0.5046 H   0  0  0  0  0  0  0  0  0  0  0  0
    1.3443   -4.6672   -0.5841 C   0  0  0  0  0  0  0  0  0  0  0  0
    1.7746   -5.4865   -0.2575 H   0  0  0  0  0  0  0  0  0  0  0  0
    0.4468   -4.5387   -0.2085 H   0  0  0  0  0  0  0  0  0  0  0  0
    1.2395   -4.7577   -1.6653 H   0  0  0  0  0  0  0  0  0  0  0  0
  1  5  1  0
  5  6  1  0
  5  7  2  0
  1  2  1  0
  1  3  1  0
  1  4  1  0
  8 12  1  0
 12 15  1  0
  8  9  1  0
  8 10  1  0
  8 11  1  0
 12 13  1  0
 12 14  1  0
 15 16  1  0
 15 17  1  0
 15 18  1  0
M  CHG  1   6  -1
M  END
>  <PDB_ID>  (263) 
pdb2b5v

>  <RESIDUE_NAME>  (263) 
GLU   GLU

>  <FRAG_NAME>  (263) 
ACET   PRPA

>  <FRAG_ATOM_NUM>  (263) 
fragi: 7  fragj: 11

>  <atom.prop.CHAIN_ID>  (263) 
A A A A A A A Z Z Z Z Z Z Z Z Z Z Z

>  <atom.prop.IS_HEAVY_ATOM>  (263) 
1 0 0 0 1 1 1 1 0 0 0 1 0 0 1 0 0 0

>  <DIFUSE_FUNC_ATOM>  (263) 
atom 6   atom 7   

>  <FINAL_SINGLE_POINT_ENERGY>  (263) 
0

>  <NONCOV_INTER_ENERGY_QM>  (263) 
0

>  <FF_Energy>  (263) 
18.93

>  <QM_Energy>  (263) 
-4.14

>  <Index>  (263) 
19750

$$$$
ACET-pdb1aua-A-ASP-68:PRPA-pdb1aua-A-LEU-71
     RDKit          3D

 18 16  0  0  0  0  0  0  0  0999 V2000
    0.0029    1.5206   -0.0232 C   0  0  0  0  0  0  0  0  0  0  0  0
   -0.7457    1.8321   -0.5969 H   0  0  0  0  0  0  0  0  0  0  0  0
    0.8727    1.8329   -0.3840 H   0  0  0  0  0  0  0  0  0  0  0  0
   -0.1274    1.9601    0.9656 H   0  0  0  0  0  0  0  0  0  0  0  0
    0.0000    0.0000    0.0000 C   0  0  0  0  0  0  0  0  0  0  0  0
   -1.0937   -0.6008   -0.0000 O   0  0  0  0  0  1  0  0  0  0  0  0
    1.0937   -0.5968    0.0000 O   0  0  0  0  0  0  0  0  0  0  0  0
    2.2343    0.5558   -3.4027 C   0  0  0  0  0  0  0  0  0  0  0  0
    2.8470    1.0033   -4.0532 H   0  0  0  0  0  0  0  0  0  0  0  0
    1.7094   -0.1540   -3.8721 H   0  0  0  0  0  0  0  0  0  0  0  0
    1.6090    1.2322   -3.0144 H   0  0  0  0  0  0  0  0  0  0  0  0
    3.0560   -0.0775   -2.2846 C   0  0  0  0  0  0  0  0  0  0  0  0
    2.4431   -0.5192   -1.6345 H   0  0  0  0  0  0  0  0  0  0  0  0
    3.6313    0.6908   -1.7681 H   0  0  0  0  0  0  0  0  0  0  0  0
    3.9909   -1.1415   -2.8327 C   0  0  0  0  0  0  0  0  0  0  0  0
    4.5006   -1.5618   -2.0801 H   0  0  0  0  0  0  0  0  0  0  0  0
    3.4586   -1.8453   -3.3060 H   0  0  0  0  0  0  0  0  0  0  0  0
    4.6346   -0.7242   -3.4754 H   0  0  0  0  0  0  0  0  0  0  0  0
  1  5  1  0
  5  6  1  0
  5  7  2  0
  1  2  1  0
  1  3  1  0
  1  4  1  0
  8 12  1  0
 12 15  1  0
  8  9  1  0
  8 10  1  0
  8 11  1  0
 12 13  1  0
 12 14  1  0
 15 16  1  0
 15 17  1  0
 15 18  1  0
M  CHG  1   6  -1
M  END
>  <PDB_ID>  (264) 
pdb1aua

>  <RESIDUE_NAME>  (264) 
ASP   LEU

>  <FRAG_NAME>  (264) 
ACET   PRPA

>  <FRAG_ATOM_NUM>  (264) 
fragi: 7  fragj: 11

>  <atom.prop.CHAIN_ID>  (264) 
A A A A A A A Z Z Z Z Z Z Z Z Z Z Z

>  <atom.prop.IS_HEAVY_ATOM>  (264) 
1 0 0 0 1 1 1 1 0 0 0 1 0 0 1 0 0 0

>  <DIFUSE_FUNC_ATOM>  (264) 
atom 6   atom 7   

>  <FINAL_SINGLE_POINT_ENERGY>  (264) 
0

>  <NONCOV_INTER_ENERGY_QM>  (264) 
0

>  <FF_Energy>  (264) 
3.81

>  <QM_Energy>  (264) 
-2.93

>  <Index>  (264) 
19764

$$$$
ACET-pdb1a4y-D-ASP-403:PRPA-pdb1a4y-D-VAL-432
     RDKit          3D

 18 16  0  0  0  0  0  0  0  0999 V2000
    0.0091    1.5280   -0.0051 C   0  0  0  0  0  0  0  0  0  0  0  0
    0.2916    1.8390   -0.9049 H   0  0  0  0  0  0  0  0  0  0  0  0
    0.6438    1.8426    0.6898 H   0  0  0  0  0  0  0  0  0  0  0  0
   -0.9692    1.9580    0.2097 H   0  0  0  0  0  0  0  0  0  0  0  0
    0.0000    0.0000    0.0000 C   0  0  0  0  0  0  0  0  0  0  0  0
   -1.0896   -0.6051    0.0000 O   0  0  0  0  0  1  0  0  0  0  0  0
    1.0896   -0.6066   -0.0000 O   0  0  0  0  0  0  0  0  0  0  0  0
   -3.9351    0.3360   -2.8747 C   0  0  0  0  0  0  0  0  0  0  0  0
   -4.3492   -0.0874   -3.6879 H   0  0  0  0  0  0  0  0  0  0  0  0
   -4.1479    1.4047   -2.9011 H   0  0  0  0  0  0  0  0  0  0  0  0
   -4.3774   -0.1329   -1.9958 H   0  0  0  0  0  0  0  0  0  0  0  0
   -2.3971    0.0639   -2.9008 C   0  0  0  0  0  0  0  0  0  0  0  0
   -2.0552    0.2205   -1.9848 H   0  0  0  0  0  0  0  0  0  0  0  0
   -1.9189    0.7060   -3.6405 H   0  0  0  0  0  0  0  0  0  0  0  0
   -2.1272   -1.4045   -3.2389 C   0  0  0  0  0  0  0  0  0  0  0  0
   -1.4295   -1.4560   -3.9511 H   0  0  0  0  0  0  0  0  0  0  0  0
   -1.8070   -1.8773   -2.4204 H   0  0  0  0  0  0  0  0  0  0  0  0
   -2.9706   -1.8283   -3.5639 H   0  0  0  0  0  0  0  0  0  0  0  0
  1  5  1  0
  5  6  1  0
  5  7  2  0
  1  2  1  0
  1  3  1  0
  1  4  1  0
  8 12  1  0
 12 15  1  0
  8  9  1  0
  8 10  1  0
  8 11  1  0
 12 13  1  0
 12 14  1  0
 15 16  1  0
 15 17  1  0
 15 18  1  0
M  CHG  1   6  -1
M  END
>  <PDB_ID>  (265) 
pdb1a4y

>  <RESIDUE_NAME>  (265) 
ASP   VAL

>  <FRAG_NAME>  (265) 
ACET   PRPA

>  <FRAG_ATOM_NUM>  (265) 
fragi: 7  fragj: 11

>  <atom.prop.CHAIN_ID>  (265) 
A A A A A A A Z Z Z Z Z Z Z Z Z Z Z

>  <atom.prop.IS_HEAVY_ATOM>  (265) 
1 0 0 0 1 1 1 1 0 0 0 1 0 0 1 0 0 0

>  <DIFUSE_FUNC_ATOM>  (265) 
atom 6   atom 7   

>  <FINAL_SINGLE_POINT_ENERGY>  (265) 
0

>  <NONCOV_INTER_ENERGY_QM>  (265) 
0

>  <FF_Energy>  (265) 
0.11

>  <QM_Energy>  (265) 
-4.9

>  <Index>  (265) 
19779

$$$$
ACET-pdb2a7k-F-GLU-29:PRPA-pdb2a7k-F-ARG-82
     RDKit          3D

 18 16  0  0  0  0  0  0  0  0999 V2000
   -0.0220    1.5261    0.0012 C   0  0  0  0  0  0  0  0  0  0  0  0
    0.2366    1.8226   -0.8936 H   0  0  0  0  0  0  0  0  0  0  0  0
    0.5931    1.8260    0.6997 H   0  0  0  0  0  0  0  0  0  0  0  0
   -1.0176    1.9111    0.2218 H   0  0  0  0  0  0  0  0  0  0  0  0
    0.0000    0.0000    0.0000 C   0  0  0  0  0  0  0  0  0  0  0  0
   -1.0975   -0.6076   -0.0000 O   0  0  0  0  0  1  0  0  0  0  0  0
    1.0975   -0.5995   -0.0000 O   0  0  0  0  0  0  0  0  0  0  0  0
   -1.5959   -3.3110   -2.1327 C   0  0  0  0  0  0  0  0  0  0  0  0
   -0.9347   -4.0450   -2.3050 H   0  0  0  0  0  0  0  0  0  0  0  0
   -1.0989   -2.4678   -1.9155 H   0  0  0  0  0  0  0  0  0  0  0  0
   -2.1493   -3.1411   -3.0563 H   0  0  0  0  0  0  0  0  0  0  0  0
   -2.4391   -3.6820   -0.9807 C   0  0  0  0  0  0  0  0  0  0  0  0
   -3.3051   -3.2046   -1.0179 H   0  0  0  0  0  0  0  0  0  0  0  0
   -2.5725   -4.6622   -0.9517 H   0  0  0  0  0  0  0  0  0  0  0  0
   -1.7246   -3.2673    0.2617 C   0  0  0  0  0  0  0  0  0  0  0  0
   -1.1477   -2.4745    0.0453 H   0  0  0  0  0  0  0  0  0  0  0  0
   -2.4102   -2.9929    0.9426 H   0  0  0  0  0  0  0  0  0  0  0  0
   -1.1046   -4.0640    0.6729 H   0  0  0  0  0  0  0  0  0  0  0  0
  1  5  1  0
  5  6  1  0
  5  7  2  0
  1  2  1  0
  1  3  1  0
  1  4  1  0
  8 12  1  0
 12 15  1  0
  8  9  1  0
  8 10  1  0
  8 11  1  0
 12 13  1  0
 12 14  1  0
 15 16  1  0
 15 17  1  0
 15 18  1  0
M  CHG  1   6  -1
M  END
>  <PDB_ID>  (266) 
pdb2a7k

>  <RESIDUE_NAME>  (266) 
GLU   ARG

>  <FRAG_NAME>  (266) 
ACET   PRPA

>  <FRAG_ATOM_NUM>  (266) 
fragi: 7  fragj: 11

>  <atom.prop.CHAIN_ID>  (266) 
A A A A A A A Z Z Z Z Z Z Z Z Z Z Z

>  <atom.prop.IS_HEAVY_ATOM>  (266) 
1 0 0 0 1 1 1 1 0 0 0 1 0 0 1 0 0 0

>  <DIFUSE_FUNC_ATOM>  (266) 
atom 6   atom 7   

>  <FINAL_SINGLE_POINT_ENERGY>  (266) 
0

>  <NONCOV_INTER_ENERGY_QM>  (266) 
0

>  <FF_Energy>  (266) 
28.44

>  <QM_Energy>  (266) 
-0.87

>  <Index>  (266) 
19848

$$$$
ACET-pdb1av5-A-GLU-100:PRPA-pdb1av5-A-GLN-62
     RDKit          3D

 18 16  0  0  0  0  0  0  0  0999 V2000
    0.0095    1.5370    0.0037 C   0  0  0  0  0  0  0  0  0  0  0  0
   -0.1147    1.8341   -0.9120 H   0  0  0  0  0  0  0  0  0  0  0  0
    0.8431    1.8243    0.4099 H   0  0  0  0  0  0  0  0  0  0  0  0
   -0.8128    1.9312    0.6008 H   0  0  0  0  0  0  0  0  0  0  0  0
    0.0000    0.0000    0.0000 C   0  0  0  0  0  0  0  0  0  0  0  0
   -1.1032   -0.6267    0.0000 O   0  0  0  0  0  1  0  0  0  0  0  0
    1.1032   -0.6008   -0.0000 O   0  0  0  0  0  0  0  0  0  0  0  0
   -2.5900   -4.0519    1.1793 C   0  0  0  0  0  0  0  0  0  0  0  0
   -3.0521   -3.7327    1.9845 H   0  0  0  0  0  0  0  0  0  0  0  0
   -2.6042   -5.1418    1.1910 H   0  0  0  0  0  0  0  0  0  0  0  0
   -3.1929   -3.7752    0.3144 H   0  0  0  0  0  0  0  0  0  0  0  0
   -1.1605   -3.5167    1.0112 C   0  0  0  0  0  0  0  0  0  0  0  0
   -1.2135   -2.5477    0.7479 H   0  0  0  0  0  0  0  0  0  0  0  0
   -0.6914   -3.5823    1.8988 H   0  0  0  0  0  0  0  0  0  0  0  0
   -0.3262   -4.2445   -0.0213 C   0  0  0  0  0  0  0  0  0  0  0  0
   -0.7376   -5.1356   -0.2112 H   0  0  0  0  0  0  0  0  0  0  0  0
   -0.2939   -3.7043   -0.8616 H   0  0  0  0  0  0  0  0  0  0  0  0
    0.7004   -4.4167    0.3018 H   0  0  0  0  0  0  0  0  0  0  0  0
  1  5  1  0
  5  6  1  0
  5  7  2  0
  1  2  1  0
  1  3  1  0
  1  4  1  0
  8 12  1  0
 12 15  1  0
  8  9  1  0
  8 10  1  0
  8 11  1  0
 12 13  1  0
 12 14  1  0
 15 16  1  0
 15 17  1  0
 15 18  1  0
M  CHG  1   6  -1
M  END
>  <PDB_ID>  (267) 
pdb1av5

>  <RESIDUE_NAME>  (267) 
GLU   GLN

>  <FRAG_NAME>  (267) 
ACET   PRPA

>  <FRAG_ATOM_NUM>  (267) 
fragi: 7  fragj: 11

>  <atom.prop.CHAIN_ID>  (267) 
A A A A A A A Z Z Z Z Z Z Z Z Z Z Z

>  <atom.prop.IS_HEAVY_ATOM>  (267) 
1 0 0 0 1 1 1 1 0 0 0 1 0 0 1 0 0 0

>  <DIFUSE_FUNC_ATOM>  (267) 
atom 6   atom 7   

>  <FINAL_SINGLE_POINT_ENERGY>  (267) 
0

>  <NONCOV_INTER_ENERGY_QM>  (267) 
0

>  <FF_Energy>  (267) 
6.46

>  <QM_Energy>  (267) 
-4.3

>  <Index>  (267) 
19885

$$$$
ACET-pdb2b0o-E-GLU-586:PRPA-pdb2b0o-E-PRO-576
     RDKit          3D

 18 16  0  0  0  0  0  0  0  0999 V2000
   -0.0143    1.5287    0.0316 C   0  0  0  0  0  0  0  0  0  0  0  0
    0.8383    1.8326   -0.3621 H   0  0  0  0  0  0  0  0  0  0  0  0
   -0.0928    1.7955    0.9785 H   0  0  0  0  0  0  0  0  0  0  0  0
   -0.8378    1.9701   -0.5296 H   0  0  0  0  0  0  0  0  0  0  0  0
    0.0000    0.0000    0.0000 C   0  0  0  0  0  0  0  0  0  0  0  0
   -1.1041   -0.5758    0.0000 O   0  0  0  0  0  1  0  0  0  0  0  0
    1.1041   -0.6227    0.0000 O   0  0  0  0  0  0  0  0  0  0  0  0
    3.3414    3.0708    1.9945 C   0  0  0  0  0  0  0  0  0  0  0  0
    3.0935    3.9864    2.3351 H   0  0  0  0  0  0  0  0  0  0  0  0
    4.4243    2.9477    1.9769 H   0  0  0  0  0  0  0  0  0  0  0  0
    2.8629    2.2943    2.5912 H   0  0  0  0  0  0  0  0  0  0  0  0
    2.9343    2.9163    0.5337 C   0  0  0  0  0  0  0  0  0  0  0  0
    2.5109    2.0017    0.3870 H   0  0  0  0  0  0  0  0  0  0  0  0
    2.2244    3.6060    0.2958 H   0  0  0  0  0  0  0  0  0  0  0  0
    4.1364    3.0857   -0.2555 C   0  0  0  0  0  0  0  0  0  0  0  0
    4.1083    2.5247   -1.1044 H   0  0  0  0  0  0  0  0  0  0  0  0
    4.2569    4.0533   -0.5490 H   0  0  0  0  0  0  0  0  0  0  0  0
    4.9762    2.7779    0.3673 H   0  0  0  0  0  0  0  0  0  0  0  0
  1  5  1  0
  5  6  1  0
  5  7  2  0
  1  2  1  0
  1  3  1  0
  1  4  1  0
  8 12  1  0
 12 15  1  0
  8  9  1  0
  8 10  1  0
  8 11  1  0
 12 13  1  0
 12 14  1  0
 15 16  1  0
 15 17  1  0
 15 18  1  0
M  CHG  1   6  -1
M  END
>  <PDB_ID>  (268) 
pdb2b0o

>  <RESIDUE_NAME>  (268) 
GLU   PRO

>  <FRAG_NAME>  (268) 
ACET   PRPA

>  <FRAG_ATOM_NUM>  (268) 
fragi: 7  fragj: 11

>  <atom.prop.CHAIN_ID>  (268) 
A A A A A A A Z Z Z Z Z Z Z Z Z Z Z

>  <atom.prop.IS_HEAVY_ATOM>  (268) 
1 0 0 0 1 1 1 1 0 0 0 1 0 0 1 0 0 0

>  <DIFUSE_FUNC_ATOM>  (268) 
atom 6   atom 7   

>  <FINAL_SINGLE_POINT_ENERGY>  (268) 
0

>  <NONCOV_INTER_ENERGY_QM>  (268) 
0

>  <FF_Energy>  (268) 
4.44

>  <QM_Energy>  (268) 
-0.67

>  <Index>  (268) 
19940

$$$$
ACET-pdb2b0o-E-GLU-586:PRPA-pdb2b0o-E-PRO-578
     RDKit          3D

 18 16  0  0  0  0  0  0  0  0999 V2000
   -0.0143    1.5287    0.0316 C   0  0  0  0  0  0  0  0  0  0  0  0
    0.8383    1.8326   -0.3621 H   0  0  0  0  0  0  0  0  0  0  0  0
   -0.0928    1.7955    0.9785 H   0  0  0  0  0  0  0  0  0  0  0  0
   -0.8378    1.9701   -0.5296 H   0  0  0  0  0  0  0  0  0  0  0  0
    0.0000    0.0000    0.0000 C   0  0  0  0  0  0  0  0  0  0  0  0
   -1.1041   -0.5758    0.0000 O   0  0  0  0  0  1  0  0  0  0  0  0
    1.1041   -0.6227    0.0000 O   0  0  0  0  0  0  0  0  0  0  0  0
   -1.8143   -2.0791    2.3301 C   0  0  0  0  0  0  0  0  0  0  0  0
   -2.5517   -2.7174    2.5565 H   0  0  0  0  0  0  0  0  0  0  0  0
   -1.7006   -2.0442    1.3370 H   0  0  0  0  0  0  0  0  0  0  0  0
   -2.0232   -1.0879    2.7323 H   0  0  0  0  0  0  0  0  0  0  0  0
   -0.5035   -2.5333    2.9949 C   0  0  0  0  0  0  0  0  0  0  0  0
   -0.6704   -3.3779    3.5230 H   0  0  0  0  0  0  0  0  0  0  0  0
    0.1786   -2.7437    2.2808 H   0  0  0  0  0  0  0  0  0  0  0  0
   -0.0196   -1.4137    3.8973 C   0  0  0  0  0  0  0  0  0  0  0  0
   -0.2092   -1.6142    4.8544 H   0  0  0  0  0  0  0  0  0  0  0  0
    0.9547   -1.2435    3.7706 H   0  0  0  0  0  0  0  0  0  0  0  0
   -0.6067   -0.5599    3.5592 H   0  0  0  0  0  0  0  0  0  0  0  0
  1  5  1  0
  5  6  1  0
  5  7  2  0
  1  2  1  0
  1  3  1  0
  1  4  1  0
  8 12  1  0
 12 15  1  0
  8  9  1  0
  8 10  1  0
  8 11  1  0
 12 13  1  0
 12 14  1  0
 15 16  1  0
 15 17  1  0
 15 18  1  0
M  CHG  1   6  -1
M  END
>  <PDB_ID>  (269) 
pdb2b0o

>  <RESIDUE_NAME>  (269) 
GLU   PRO

>  <FRAG_NAME>  (269) 
ACET   PRPA

>  <FRAG_ATOM_NUM>  (269) 
fragi: 7  fragj: 11

>  <atom.prop.CHAIN_ID>  (269) 
A A A A A A A Z Z Z Z Z Z Z Z Z Z Z

>  <atom.prop.IS_HEAVY_ATOM>  (269) 
1 0 0 0 1 1 1 1 0 0 0 1 0 0 1 0 0 0

>  <DIFUSE_FUNC_ATOM>  (269) 
atom 6   atom 7   

>  <FINAL_SINGLE_POINT_ENERGY>  (269) 
0

>  <NONCOV_INTER_ENERGY_QM>  (269) 
0

>  <FF_Energy>  (269) 
6.56

>  <QM_Energy>  (269) 
-2.67

>  <Index>  (269) 
19969

$$$$
ACET-pdb1au7-B-GLU-41:PRPA-pdb1au7-B-GLU-32
     RDKit          3D

 18 16  0  0  0  0  0  0  0  0999 V2000
    0.0592    1.5436    0.0665 C   0  0  0  0  0  0  0  0  0  0  0  0
    0.7321    1.8359   -0.5939 H   0  0  0  0  0  0  0  0  0  0  0  0
    0.3261    1.7827    0.9867 H   0  0  0  0  0  0  0  0  0  0  0  0
   -0.8795    2.0497   -0.1586 H   0  0  0  0  0  0  0  0  0  0  0  0
    0.0000    0.0000    0.0000 C   0  0  0  0  0  0  0  0  0  0  0  0
   -1.0945   -0.6206    0.0000 O   0  0  0  0  0  1  0  0  0  0  0  0
    1.0945   -0.6064   -0.0000 O   0  0  0  0  0  0  0  0  0  0  0  0
    0.1090    0.6587   -3.6907 C   0  0  0  0  0  0  0  0  0  0  0  0
   -0.3424    0.7726   -2.7897 H   0  0  0  0  0  0  0  0  0  0  0  0
   -0.4286    1.2219   -4.4535 H   0  0  0  0  0  0  0  0  0  0  0  0
    1.1516    0.9616   -3.5938 H   0  0  0  0  0  0  0  0  0  0  0  0
   -0.0612   -0.8273   -3.9901 C   0  0  0  0  0  0  0  0  0  0  0  0
   -1.0143   -0.9796   -4.2294 H   0  0  0  0  0  0  0  0  0  0  0  0
    0.5295   -1.0510   -4.7580 H   0  0  0  0  0  0  0  0  0  0  0  0
    0.2807   -1.7896   -2.8599 C   0  0  0  0  0  0  0  0  0  0  0  0
    1.2569   -1.8945   -2.8246 H   0  0  0  0  0  0  0  0  0  0  0  0
   -0.0863   -1.4316   -2.0217 H   0  0  0  0  0  0  0  0  0  0  0  0
   -0.1451   -2.7834   -2.9977 H   0  0  0  0  0  0  0  0  0  0  0  0
  1  5  1  0
  5  6  1  0
  5  7  2  0
  1  2  1  0
  1  3  1  0
  1  4  1  0
  8 12  1  0
 12 15  1  0
  8  9  1  0
  8 10  1  0
  8 11  1  0
 12 13  1  0
 12 14  1  0
 15 16  1  0
 15 17  1  0
 15 18  1  0
M  CHG  1   6  -1
M  END
>  <PDB_ID>  (270) 
pdb1au7

>  <RESIDUE_NAME>  (270) 
GLU   GLU

>  <FRAG_NAME>  (270) 
ACET   PRPA

>  <FRAG_ATOM_NUM>  (270) 
fragi: 7  fragj: 11

>  <atom.prop.CHAIN_ID>  (270) 
A A A A A A A Z Z Z Z Z Z Z Z Z Z Z

>  <atom.prop.IS_HEAVY_ATOM>  (270) 
1 0 0 0 1 1 1 1 0 0 0 1 0 0 1 0 0 0

>  <DIFUSE_FUNC_ATOM>  (270) 
atom 6   atom 7   

>  <FINAL_SINGLE_POINT_ENERGY>  (270) 
0

>  <NONCOV_INTER_ENERGY_QM>  (270) 
0

>  <FF_Energy>  (270) 
2.84

>  <QM_Energy>  (270) 
-4.11

>  <Index>  (270) 
20034

$$$$
ACET-pdb1a99-C-GLU-69:PRPA-pdb1a99-C-ARG-91
     RDKit          3D

 18 16  0  0  0  0  0  0  0  0999 V2000
    0.0034    1.5114    0.0072 C   0  0  0  0  0  0  0  0  0  0  0  0
   -0.6536    1.8139   -0.6560 H   0  0  0  0  0  0  0  0  0  0  0  0
    0.9148    1.8082   -0.2050 H   0  0  0  0  0  0  0  0  0  0  0  0
   -0.2757    1.9199    0.9785 H   0  0  0  0  0  0  0  0  0  0  0  0
    0.0000    0.0000    0.0000 C   0  0  0  0  0  0  0  0  0  0  0  0
   -1.0969   -0.5987    0.0000 O   0  0  0  0  0  1  0  0  0  0  0  0
    1.0969   -0.5963    0.0000 O   0  0  0  0  0  0  0  0  0  0  0  0
    3.4561   -3.3154   -1.3688 C   0  0  0  0  0  0  0  0  0  0  0  0
    3.3638   -4.2117   -0.9383 H   0  0  0  0  0  0  0  0  0  0  0  0
    3.3360   -2.5998   -0.6826 H   0  0  0  0  0  0  0  0  0  0  0  0
    4.4668   -3.2347   -1.7688 H   0  0  0  0  0  0  0  0  0  0  0  0
    2.3539   -3.1707   -2.3988 C   0  0  0  0  0  0  0  0  0  0  0  0
    2.4817   -2.3287   -2.9096 H   0  0  0  0  0  0  0  0  0  0  0  0
    2.3628   -3.9544   -3.0096 H   0  0  0  0  0  0  0  0  0  0  0  0
    0.9967   -3.1136   -1.7215 C   0  0  0  0  0  0  0  0  0  0  0  0
    0.8862   -2.2089   -1.3220 H   0  0  0  0  0  0  0  0  0  0  0  0
    0.2983   -3.2731   -2.4131 H   0  0  0  0  0  0  0  0  0  0  0  0
    0.9070   -3.8666   -0.9385 H   0  0  0  0  0  0  0  0  0  0  0  0
  1  5  1  0
  5  6  1  0
  5  7  2  0
  1  2  1  0
  1  3  1  0
  1  4  1  0
  8 12  1  0
 12 15  1  0
  8  9  1  0
  8 10  1  0
  8 11  1  0
 12 13  1  0
 12 14  1  0
 15 16  1  0
 15 17  1  0
 15 18  1  0
M  CHG  1   6  -1
M  END
>  <PDB_ID>  (271) 
pdb1a99

>  <RESIDUE_NAME>  (271) 
GLU   ARG

>  <FRAG_NAME>  (271) 
ACET   PRPA

>  <FRAG_ATOM_NUM>  (271) 
fragi: 7  fragj: 11

>  <atom.prop.CHAIN_ID>  (271) 
A A A A A A A Z Z Z Z Z Z Z Z Z Z Z

>  <atom.prop.IS_HEAVY_ATOM>  (271) 
1 0 0 0 1 1 1 1 0 0 0 1 0 0 1 0 0 0

>  <DIFUSE_FUNC_ATOM>  (271) 
atom 6   atom 7   

>  <FINAL_SINGLE_POINT_ENERGY>  (271) 
0

>  <NONCOV_INTER_ENERGY_QM>  (271) 
0

>  <FF_Energy>  (271) 
5.66

>  <QM_Energy>  (271) 
-3.53

>  <Index>  (271) 
20174

$$$$
ACET-pdb2b7u-A-GLU-93:PRPA-pdb2b7u-A-LEU-104
     RDKit          3D

 18 16  0  0  0  0  0  0  0  0999 V2000
   -0.0544    1.5138   -0.0102 C   0  0  0  0  0  0  0  0  0  0  0  0
   -0.7344    1.7854    0.6579 H   0  0  0  0  0  0  0  0  0  0  0  0
   -0.3262    1.7892   -0.9235 H   0  0  0  0  0  0  0  0  0  0  0  0
    0.8919    1.9955    0.2365 H   0  0  0  0  0  0  0  0  0  0  0  0
    0.0000    0.0000    0.0000 C   0  0  0  0  0  0  0  0  0  0  0  0
   -1.1077   -0.5994   -0.0000 O   0  0  0  0  0  1  0  0  0  0  0  0
    1.1077   -0.5816    0.0000 O   0  0  0  0  0  0  0  0  0  0  0  0
   -0.7674   -3.5528   -2.0639 C   0  0  0  0  0  0  0  0  0  0  0  0
   -1.0672   -4.4998   -2.2237 H   0  0  0  0  0  0  0  0  0  0  0  0
   -0.6986   -3.3880   -0.9886 H   0  0  0  0  0  0  0  0  0  0  0  0
    0.1976   -3.4142   -2.5514 H   0  0  0  0  0  0  0  0  0  0  0  0
   -1.8198   -2.6303   -2.6777 C   0  0  0  0  0  0  0  0  0  0  0  0
   -1.3508   -1.8299   -3.0434 H   0  0  0  0  0  0  0  0  0  0  0  0
   -2.2710   -3.1268   -3.4143 H   0  0  0  0  0  0  0  0  0  0  0  0
   -2.9149   -2.1214   -1.7339 C   0  0  0  0  0  0  0  0  0  0  0  0
   -2.4959   -1.8503   -0.8682 H   0  0  0  0  0  0  0  0  0  0  0  0
   -3.4316   -1.2659   -2.1691 H   0  0  0  0  0  0  0  0  0  0  0  0
   -3.6224   -2.9109   -1.4803 H   0  0  0  0  0  0  0  0  0  0  0  0
  1  5  1  0
  5  6  1  0
  5  7  2  0
  1  2  1  0
  1  3  1  0
  1  4  1  0
  8 12  1  0
 12 15  1  0
  8  9  1  0
  8 10  1  0
  8 11  1  0
 12 13  1  0
 12 14  1  0
 15 16  1  0
 15 17  1  0
 15 18  1  0
M  CHG  1   6  -1
M  END
>  <PDB_ID>  (272) 
pdb2b7u

>  <RESIDUE_NAME>  (272) 
GLU   LEU

>  <FRAG_NAME>  (272) 
ACET   PRPA

>  <FRAG_ATOM_NUM>  (272) 
fragi: 7  fragj: 11

>  <atom.prop.CHAIN_ID>  (272) 
A A A A A A A Z Z Z Z Z Z Z Z Z Z Z

>  <atom.prop.IS_HEAVY_ATOM>  (272) 
1 0 0 0 1 1 1 1 0 0 0 1 0 0 1 0 0 0

>  <DIFUSE_FUNC_ATOM>  (272) 
atom 6   atom 7   

>  <FINAL_SINGLE_POINT_ENERGY>  (272) 
0

>  <NONCOV_INTER_ENERGY_QM>  (272) 
0

>  <FF_Energy>  (272) 
7.23

>  <QM_Energy>  (272) 
-3.4

>  <Index>  (272) 
20183

$$$$
ACET-pdb2b7u-A-GLU-93:PRPA-pdb2b7u-A-LEU-104
     RDKit          3D

 18 16  0  0  0  0  0  0  0  0999 V2000
   -0.0544    1.5138   -0.0102 C   0  0  0  0  0  0  0  0  0  0  0  0
   -0.7344    1.7854    0.6579 H   0  0  0  0  0  0  0  0  0  0  0  0
   -0.3262    1.7892   -0.9235 H   0  0  0  0  0  0  0  0  0  0  0  0
    0.8919    1.9955    0.2365 H   0  0  0  0  0  0  0  0  0  0  0  0
    0.0000    0.0000    0.0000 C   0  0  0  0  0  0  0  0  0  0  0  0
   -1.1077   -0.5994   -0.0000 O   0  0  0  0  0  1  0  0  0  0  0  0
    1.1077   -0.5816    0.0000 O   0  0  0  0  0  0  0  0  0  0  0  0
   -1.8198   -2.6303   -2.6777 C   0  0  0  0  0  0  0  0  0  0  0  0
   -1.3508   -1.8299   -3.0434 H   0  0  0  0  0  0  0  0  0  0  0  0
   -2.2710   -3.1268   -3.4143 H   0  0  0  0  0  0  0  0  0  0  0  0
   -1.0691   -3.2883   -2.2399 H   0  0  0  0  0  0  0  0  0  0  0  0
   -2.9149   -2.1214   -1.7339 C   0  0  0  0  0  0  0  0  0  0  0  0
   -2.4959   -1.8503   -0.8682 H   0  0  0  0  0  0  0  0  0  0  0  0
   -3.6224   -2.9109   -1.4803 H   0  0  0  0  0  0  0  0  0  0  0  0
   -3.6374   -0.9250   -2.3423 C   0  0  0  0  0  0  0  0  0  0  0  0
   -4.0578   -1.1950   -3.2090 H   0  0  0  0  0  0  0  0  0  0  0  0
   -4.3468   -0.6090   -1.7123 H   0  0  0  0  0  0  0  0  0  0  0  0
   -2.9829   -0.1876   -2.5051 H   0  0  0  0  0  0  0  0  0  0  0  0
  1  5  1  0
  5  6  1  0
  5  7  2  0
  1  2  1  0
  1  3  1  0
  1  4  1  0
  8 12  1  0
 12 15  1  0
  8  9  1  0
  8 10  1  0
  8 11  1  0
 12 13  1  0
 12 14  1  0
 15 16  1  0
 15 17  1  0
 15 18  1  0
M  CHG  1   6  -1
M  END
>  <PDB_ID>  (273) 
pdb2b7u

>  <RESIDUE_NAME>  (273) 
GLU   LEU

>  <FRAG_NAME>  (273) 
ACET   PRPA

>  <FRAG_ATOM_NUM>  (273) 
fragi: 7  fragj: 11

>  <atom.prop.CHAIN_ID>  (273) 
A A A A A A A Z Z Z Z Z Z Z Z Z Z Z

>  <atom.prop.IS_HEAVY_ATOM>  (273) 
1 0 0 0 1 1 1 1 0 0 0 1 0 0 1 0 0 0

>  <DIFUSE_FUNC_ATOM>  (273) 
atom 6   atom 7   

>  <FINAL_SINGLE_POINT_ENERGY>  (273) 
0

>  <NONCOV_INTER_ENERGY_QM>  (273) 
0

>  <FF_Energy>  (273) 
7.25

>  <QM_Energy>  (273) 
-3.32

>  <Index>  (273) 
20209

$$$$
ACET-pdb2b7u-A-GLU-93:PRPA-pdb2b7u-A-LEU-104
     RDKit          3D

 18 16  0  0  0  0  0  0  0  0999 V2000
   -0.0544    1.5138   -0.0102 C   0  0  0  0  0  0  0  0  0  0  0  0
   -0.7344    1.7854    0.6579 H   0  0  0  0  0  0  0  0  0  0  0  0
   -0.3262    1.7892   -0.9235 H   0  0  0  0  0  0  0  0  0  0  0  0
    0.8919    1.9955    0.2365 H   0  0  0  0  0  0  0  0  0  0  0  0
    0.0000    0.0000    0.0000 C   0  0  0  0  0  0  0  0  0  0  0  0
   -1.1077   -0.5994   -0.0000 O   0  0  0  0  0  1  0  0  0  0  0  0
    1.1077   -0.5816    0.0000 O   0  0  0  0  0  0  0  0  0  0  0  0
   -1.8198   -2.6303   -2.6777 C   0  0  0  0  0  0  0  0  0  0  0  0
   -1.3508   -1.8299   -3.0434 H   0  0  0  0  0  0  0  0  0  0  0  0
   -2.2710   -3.1268   -3.4143 H   0  0  0  0  0  0  0  0  0  0  0  0
   -1.0691   -3.2883   -2.2399 H   0  0  0  0  0  0  0  0  0  0  0  0
   -2.9149   -2.1214   -1.7339 C   0  0  0  0  0  0  0  0  0  0  0  0
   -2.4959   -1.8503   -0.8682 H   0  0  0  0  0  0  0  0  0  0  0  0
   -3.4316   -1.2659   -2.1691 H   0  0  0  0  0  0  0  0  0  0  0  0
   -3.9115   -3.2336   -1.3766 C   0  0  0  0  0  0  0  0  0  0  0  0
   -3.4233   -3.9788   -0.9263 H   0  0  0  0  0  0  0  0  0  0  0  0
   -4.6073   -2.8656   -0.7635 H   0  0  0  0  0  0  0  0  0  0  0  0
   -4.3418   -3.5682   -2.2130 H   0  0  0  0  0  0  0  0  0  0  0  0
  1  5  1  0
  5  6  1  0
  5  7  2  0
  1  2  1  0
  1  3  1  0
  1  4  1  0
  8 12  1  0
 12 15  1  0
  8  9  1  0
  8 10  1  0
  8 11  1  0
 12 13  1  0
 12 14  1  0
 15 16  1  0
 15 17  1  0
 15 18  1  0
M  CHG  1   6  -1
M  END
>  <PDB_ID>  (274) 
pdb2b7u

>  <RESIDUE_NAME>  (274) 
GLU   LEU

>  <FRAG_NAME>  (274) 
ACET   PRPA

>  <FRAG_ATOM_NUM>  (274) 
fragi: 7  fragj: 11

>  <atom.prop.CHAIN_ID>  (274) 
A A A A A A A Z Z Z Z Z Z Z Z Z Z Z

>  <atom.prop.IS_HEAVY_ATOM>  (274) 
1 0 0 0 1 1 1 1 0 0 0 1 0 0 1 0 0 0

>  <DIFUSE_FUNC_ATOM>  (274) 
atom 6   atom 7   

>  <FINAL_SINGLE_POINT_ENERGY>  (274) 
0

>  <NONCOV_INTER_ENERGY_QM>  (274) 
0

>  <FF_Energy>  (274) 
7.07

>  <QM_Energy>  (274) 
-2.34

>  <Index>  (274) 
20226

$$$$
ACET-pdb2b7u-A-GLU-93:PRPA-pdb2b7u-A-LEU-104
     RDKit          3D

 18 16  0  0  0  0  0  0  0  0999 V2000
   -0.0544    1.5138   -0.0102 C   0  0  0  0  0  0  0  0  0  0  0  0
   -0.7344    1.7854    0.6579 H   0  0  0  0  0  0  0  0  0  0  0  0
   -0.3262    1.7892   -0.9235 H   0  0  0  0  0  0  0  0  0  0  0  0
    0.8919    1.9955    0.2365 H   0  0  0  0  0  0  0  0  0  0  0  0
    0.0000    0.0000    0.0000 C   0  0  0  0  0  0  0  0  0  0  0  0
   -1.1077   -0.5994   -0.0000 O   0  0  0  0  0  1  0  0  0  0  0  0
    1.1077   -0.5816    0.0000 O   0  0  0  0  0  0  0  0  0  0  0  0
   -3.6374   -0.9250   -2.3423 C   0  0  0  0  0  0  0  0  0  0  0  0
   -4.0578   -1.1950   -3.2090 H   0  0  0  0  0  0  0  0  0  0  0  0
   -4.3468   -0.6090   -1.7123 H   0  0  0  0  0  0  0  0  0  0  0  0
   -2.9829   -0.1876   -2.5051 H   0  0  0  0  0  0  0  0  0  0  0  0
   -2.9149   -2.1214   -1.7339 C   0  0  0  0  0  0  0  0  0  0  0  0
   -2.4959   -1.8503   -0.8682 H   0  0  0  0  0  0  0  0  0  0  0  0
   -2.1361   -2.4833   -2.4051 H   0  0  0  0  0  0  0  0  0  0  0  0
   -3.9115   -3.2336   -1.3766 C   0  0  0  0  0  0  0  0  0  0  0  0
   -3.4233   -3.9788   -0.9263 H   0  0  0  0  0  0  0  0  0  0  0  0
   -4.6073   -2.8656   -0.7635 H   0  0  0  0  0  0  0  0  0  0  0  0
   -4.3418   -3.5682   -2.2130 H   0  0  0  0  0  0  0  0  0  0  0  0
  1  5  1  0
  5  6  1  0
  5  7  2  0
  1  2  1  0
  1  3  1  0
  1  4  1  0
  8 12  1  0
 12 15  1  0
  8  9  1  0
  8 10  1  0
  8 11  1  0
 12 13  1  0
 12 14  1  0
 15 16  1  0
 15 17  1  0
 15 18  1  0
M  CHG  1   6  -1
M  END
>  <PDB_ID>  (275) 
pdb2b7u

>  <RESIDUE_NAME>  (275) 
GLU   LEU

>  <FRAG_NAME>  (275) 
ACET   PRPA

>  <FRAG_ATOM_NUM>  (275) 
fragi: 7  fragj: 11

>  <atom.prop.CHAIN_ID>  (275) 
A A A A A A A Z Z Z Z Z Z Z Z Z Z Z

>  <atom.prop.IS_HEAVY_ATOM>  (275) 
1 0 0 0 1 1 1 1 0 0 0 1 0 0 1 0 0 0

>  <DIFUSE_FUNC_ATOM>  (275) 
atom 6   atom 7   

>  <FINAL_SINGLE_POINT_ENERGY>  (275) 
0

>  <NONCOV_INTER_ENERGY_QM>  (275) 
0

>  <FF_Energy>  (275) 
1.99

>  <QM_Energy>  (275) 
-2.27

>  <Index>  (275) 
20248

$$$$
ACET-pdb2aka-A-ASP-724:PRPA-pdb2aka-A-LYS-728
     RDKit          3D

 18 16  0  0  0  0  0  0  0  0999 V2000
   -0.0158    1.5149    0.0156 C   0  0  0  0  0  0  0  0  0  0  0  0
   -0.0494    1.8203    0.9619 H   0  0  0  0  0  0  0  0  0  0  0  0
   -0.8217    1.8283   -0.4761 H   0  0  0  0  0  0  0  0  0  0  0  0
    0.8662    1.9488   -0.4556 H   0  0  0  0  0  0  0  0  0  0  0  0
    0.0000    0.0000    0.0000 C   0  0  0  0  0  0  0  0  0  0  0  0
   -1.1029   -0.5629   -0.0000 O   0  0  0  0  0  1  0  0  0  0  0  0
    1.1029   -0.6109    0.0000 O   0  0  0  0  0  0  0  0  0  0  0  0
    1.7006   -2.5276   -3.1029 C   0  0  0  0  0  0  0  0  0  0  0  0
    1.9470   -3.5020   -3.1463 H   0  0  0  0  0  0  0  0  0  0  0  0
    2.2931   -2.0781   -2.4263 H   0  0  0  0  0  0  0  0  0  0  0  0
    1.8863   -2.0798   -4.0791 H   0  0  0  0  0  0  0  0  0  0  0  0
    0.2476   -2.4072   -2.6434 C   0  0  0  0  0  0  0  0  0  0  0  0
    0.0022   -1.4498   -2.5769 H   0  0  0  0  0  0  0  0  0  0  0  0
   -0.3406   -2.8837   -3.2823 H   0  0  0  0  0  0  0  0  0  0  0  0
    0.0347   -3.0488   -1.2353 C   0  0  0  0  0  0  0  0  0  0  0  0
    0.2825   -4.0251   -1.2905 H   0  0  0  0  0  0  0  0  0  0  0  0
    0.6652   -2.6042   -0.5841 H   0  0  0  0  0  0  0  0  0  0  0  0
   -0.9773   -2.9739   -0.8374 H   0  0  0  0  0  0  0  0  0  0  0  0
  1  5  1  0
  5  6  1  0
  5  7  2  0
  1  2  1  0
  1  3  1  0
  1  4  1  0
  8 12  1  0
 12 15  1  0
  8  9  1  0
  8 10  1  0
  8 11  1  0
 12 13  1  0
 12 14  1  0
 15 16  1  0
 15 17  1  0
 15 18  1  0
M  CHG  1   6  -1
M  END
>  <PDB_ID>  (276) 
pdb2aka

>  <RESIDUE_NAME>  (276) 
ASP   LYS

>  <FRAG_NAME>  (276) 
ACET   PRPA

>  <FRAG_ATOM_NUM>  (276) 
fragi: 7  fragj: 11

>  <atom.prop.CHAIN_ID>  (276) 
A A A A A A A Z Z Z Z Z Z Z Z Z Z Z

>  <atom.prop.IS_HEAVY_ATOM>  (276) 
1 0 0 0 1 1 1 1 0 0 0 1 0 0 1 0 0 0

>  <DIFUSE_FUNC_ATOM>  (276) 
atom 6   atom 7   

>  <FINAL_SINGLE_POINT_ENERGY>  (276) 
0

>  <NONCOV_INTER_ENERGY_QM>  (276) 
0

>  <FF_Energy>  (276) 
1.64

>  <QM_Energy>  (276) 
-2.96

>  <Index>  (276) 
20312

$$$$
ACET-pdb1avs-B-GLU-57:PRPA-pdb1avs-B-PRO-53
     RDKit          3D

 18 16  0  0  0  0  0  0  0  0999 V2000
    0.2865    1.4943   -0.0901 C   0  0  0  0  0  0  0  0  0  0  0  0
    0.2710    1.7448   -1.0543 H   0  0  0  0  0  0  0  0  0  0  0  0
    1.1958    1.6468    0.2867 H   0  0  0  0  0  0  0  0  0  0  0  0
   -0.4030    2.1575    0.4323 H   0  0  0  0  0  0  0  0  0  0  0  0
    0.0000    0.0000    0.0000 C   0  0  0  0  0  0  0  0  0  0  0  0
   -1.1277   -0.5186    0.0000 O   0  0  0  0  0  1  0  0  0  0  0  0
    1.1277   -0.6960   -0.0000 O   0  0  0  0  0  0  0  0  0  0  0  0
   -1.3382   -0.4301    3.8153 C   0  0  0  0  0  0  0  0  0  0  0  0
   -0.5091   -0.4607    3.2285 H   0  0  0  0  0  0  0  0  0  0  0  0
   -1.4536   -1.3505    4.3878 H   0  0  0  0  0  0  0  0  0  0  0  0
   -1.3123    0.4472    4.4617 H   0  0  0  0  0  0  0  0  0  0  0  0
   -2.5374   -0.3762    2.8711 C   0  0  0  0  0  0  0  0  0  0  0  0
   -3.0301    0.5025    2.9604 H   0  0  0  0  0  0  0  0  0  0  0  0
   -2.2458   -0.4696    1.9077 H   0  0  0  0  0  0  0  0  0  0  0  0
   -3.4618   -1.5290    3.2480 C   0  0  0  0  0  0  0  0  0  0  0  0
   -4.2428   -1.1823    3.7723 H   0  0  0  0  0  0  0  0  0  0  0  0
   -3.7991   -1.9798    2.4182 H   0  0  0  0  0  0  0  0  0  0  0  0
   -2.8591   -2.2113    3.8474 H   0  0  0  0  0  0  0  0  0  0  0  0
  1  5  1  0
  5  6  1  0
  5  7  2  0
  1  2  1  0
  1  3  1  0
  1  4  1  0
  8 12  1  0
 12 15  1  0
  8  9  1  0
  8 10  1  0
  8 11  1  0
 12 13  1  0
 12 14  1  0
 15 16  1  0
 15 17  1  0
 15 18  1  0
M  CHG  1   6  -1
M  END
>  <PDB_ID>  (277) 
pdb1avs

>  <RESIDUE_NAME>  (277) 
GLU   PRO

>  <FRAG_NAME>  (277) 
ACET   PRPA

>  <FRAG_ATOM_NUM>  (277) 
fragi: 7  fragj: 11

>  <atom.prop.CHAIN_ID>  (277) 
A A A A A A A Z Z Z Z Z Z Z Z Z Z Z

>  <atom.prop.IS_HEAVY_ATOM>  (277) 
1 0 0 0 1 1 1 1 0 0 0 1 0 0 1 0 0 0

>  <DIFUSE_FUNC_ATOM>  (277) 
atom 6   atom 7   

>  <FINAL_SINGLE_POINT_ENERGY>  (277) 
0

>  <NONCOV_INTER_ENERGY_QM>  (277) 
0

>  <FF_Energy>  (277) 
1.5

>  <QM_Energy>  (277) 
-4.21

>  <Index>  (277) 
20424

$$$$
ACET-pdb2b9c-A-ASP-157:PRPA-pdb2b9c-A-LYS-161
     RDKit          3D

 18 16  0  0  0  0  0  0  0  0999 V2000
   -0.0774    1.5254    0.0953 C   0  0  0  0  0  0  0  0  0  0  0  0
    0.8400    1.8629    0.3391 H   0  0  0  0  0  0  0  0  0  0  0  0
   -0.7080    1.7532    0.8455 H   0  0  0  0  0  0  0  0  0  0  0  0
   -0.4091    2.0350   -0.8092 H   0  0  0  0  0  0  0  0  0  0  0  0
    0.0000    0.0000    0.0000 C   0  0  0  0  0  0  0  0  0  0  0  0
   -1.0790   -0.4986   -0.0000 O   0  0  0  0  0  1  0  0  0  0  0  0
    1.0790   -0.6852   -0.0000 O   0  0  0  0  0  0  0  0  0  0  0  0
   -3.3297   -2.0232   -3.0678 C   0  0  0  0  0  0  0  0  0  0  0  0
   -3.2541   -2.7657   -3.7179 H   0  0  0  0  0  0  0  0  0  0  0  0
   -2.5088   -1.4707   -3.0591 H   0  0  0  0  0  0  0  0  0  0  0  0
   -4.2129   -1.4155   -3.2646 H   0  0  0  0  0  0  0  0  0  0  0  0
   -3.3911   -2.7447   -1.5814 C   0  0  0  0  0  0  0  0  0  0  0  0
   -3.9559   -3.5724   -1.7413 H   0  0  0  0  0  0  0  0  0  0  0  0
   -2.4381   -3.0564   -1.4276 H   0  0  0  0  0  0  0  0  0  0  0  0
   -3.8868   -1.9396   -0.5107 C   0  0  0  0  0  0  0  0  0  0  0  0
   -3.2011   -1.2761   -0.1916 H   0  0  0  0  0  0  0  0  0  0  0  0
   -4.7181   -1.4361   -0.7729 H   0  0  0  0  0  0  0  0  0  0  0  0
   -4.1498   -2.5595    0.3464 H   0  0  0  0  0  0  0  0  0  0  0  0
  1  5  1  0
  5  6  1  0
  5  7  2  0
  1  2  1  0
  1  3  1  0
  1  4  1  0
  8 12  1  0
 12 15  1  0
  8  9  1  0
  8 10  1  0
  8 11  1  0
 12 13  1  0
 12 14  1  0
 15 16  1  0
 15 17  1  0
 15 18  1  0
M  CHG  1   6  -1
M  END
>  <PDB_ID>  (278) 
pdb2b9c

>  <RESIDUE_NAME>  (278) 
ASP   LYS

>  <FRAG_NAME>  (278) 
ACET   PRPA

>  <FRAG_ATOM_NUM>  (278) 
fragi: 7  fragj: 11

>  <atom.prop.CHAIN_ID>  (278) 
A A A A A A A Z Z Z Z Z Z Z Z Z Z Z

>  <atom.prop.IS_HEAVY_ATOM>  (278) 
1 0 0 0 1 1 1 1 0 0 0 1 0 0 1 0 0 0

>  <DIFUSE_FUNC_ATOM>  (278) 
atom 6   atom 7   

>  <FINAL_SINGLE_POINT_ENERGY>  (278) 
0

>  <NONCOV_INTER_ENERGY_QM>  (278) 
0

>  <FF_Energy>  (278) 
1.24

>  <QM_Energy>  (278) 
-4.31

>  <Index>  (278) 
20555

$$$$
ACET-pdb1a4y-D-ASP-435:PRPA-pdb1a4y-E-GLN-117
     RDKit          3D

 18 16  0  0  0  0  0  0  0  0999 V2000
    0.0081    1.5181    0.0050 C   0  0  0  0  0  0  0  0  0  0  0  0
    0.9185    1.8316   -0.2386 H   0  0  0  0  0  0  0  0  0  0  0  0
   -0.2382    1.8349    0.9131 H   0  0  0  0  0  0  0  0  0  0  0  0
   -0.6993    1.9433   -0.7069 H   0  0  0  0  0  0  0  0  0  0  0  0
    0.0000    0.0000    0.0000 C   0  0  0  0  0  0  0  0  0  0  0  0
   -1.1016   -0.6004   -0.0000 O   0  0  0  0  0  1  0  0  0  0  0  0
    1.1016   -0.5910   -0.0000 O   0  0  0  0  0  0  0  0  0  0  0  0
    0.0915    0.6342    5.4186 C   0  0  0  0  0  0  0  0  0  0  0  0
   -0.3710   -0.1437    5.8939 H   0  0  0  0  0  0  0  0  0  0  0  0
   -0.6407    1.4351    5.3156 H   0  0  0  0  0  0  0  0  0  0  0  0
    0.9794    0.8955    5.9943 H   0  0  0  0  0  0  0  0  0  0  0  0
    0.5625    0.1537    4.0332 C   0  0  0  0  0  0  0  0  0  0  0  0
    0.8039    0.9655    3.4863 H   0  0  0  0  0  0  0  0  0  0  0  0
    1.3987   -0.3973    4.1615 H   0  0  0  0  0  0  0  0  0  0  0  0
   -0.4356   -0.6634    3.2614 C   0  0  0  0  0  0  0  0  0  0  0  0
   -1.2863   -0.1373    3.1771 H   0  0  0  0  0  0  0  0  0  0  0  0
   -0.0692   -0.8380    2.3434 H   0  0  0  0  0  0  0  0  0  0  0  0
   -0.6559   -1.6167    3.7419 H   0  0  0  0  0  0  0  0  0  0  0  0
  1  5  1  0
  5  6  1  0
  5  7  2  0
  1  2  1  0
  1  3  1  0
  1  4  1  0
  8 12  1  0
 12 15  1  0
  8  9  1  0
  8 10  1  0
  8 11  1  0
 12 13  1  0
 12 14  1  0
 15 16  1  0
 15 17  1  0
 15 18  1  0
M  CHG  1   6  -1
M  END
>  <PDB_ID>  (279) 
pdb1a4y

>  <RESIDUE_NAME>  (279) 
ASP   GLN

>  <FRAG_NAME>  (279) 
ACET   PRPA

>  <FRAG_ATOM_NUM>  (279) 
fragi: 7  fragj: 11

>  <atom.prop.CHAIN_ID>  (279) 
A A A A A A A Z Z Z Z Z Z Z Z Z Z Z

>  <atom.prop.IS_HEAVY_ATOM>  (279) 
1 0 0 0 1 1 1 1 0 0 0 1 0 0 1 0 0 0

>  <DIFUSE_FUNC_ATOM>  (279) 
atom 6   atom 7   

>  <FINAL_SINGLE_POINT_ENERGY>  (279) 
0

>  <NONCOV_INTER_ENERGY_QM>  (279) 
0

>  <FF_Energy>  (279) 
-0.91

>  <QM_Energy>  (279) 
-3.64

>  <Index>  (279) 
20770

$$$$
ACET-pdb1auv-A-ASP-140:PRPA-pdb1auv-A-LYS-134
     RDKit          3D

 18 16  0  0  0  0  0  0  0  0999 V2000
   -0.0070    1.5123   -0.0728 C   0  0  0  0  0  0  0  0  0  0  0  0
    0.8504    1.8529    0.2889 H   0  0  0  0  0  0  0  0  0  0  0  0
   -0.7737    1.8536    0.4528 H   0  0  0  0  0  0  0  0  0  0  0  0
   -0.1099    1.8681   -1.0979 H   0  0  0  0  0  0  0  0  0  0  0  0
    0.0000    0.0000    0.0000 C   0  0  0  0  0  0  0  0  0  0  0  0
   -1.1064   -0.5853   -0.0000 O   0  0  0  0  0  1  0  0  0  0  0  0
    1.1064   -0.5980   -0.0000 O   0  0  0  0  0  0  0  0  0  0  0  0
   -3.0148   -0.9197   -2.9821 C   0  0  0  0  0  0  0  0  0  0  0  0
   -2.9264   -0.1089   -2.3979 H   0  0  0  0  0  0  0  0  0  0  0  0
   -3.9089   -1.3428   -2.8209 H   0  0  0  0  0  0  0  0  0  0  0  0
   -2.9627   -0.6039   -4.0240 H   0  0  0  0  0  0  0  0  0  0  0  0
   -1.9175   -1.9217   -2.6059 C   0  0  0  0  0  0  0  0  0  0  0  0
   -1.0620   -1.6193   -3.0251 H   0  0  0  0  0  0  0  0  0  0  0  0
   -1.8214   -1.9224   -1.6114 H   0  0  0  0  0  0  0  0  0  0  0  0
   -2.2290   -3.3176   -3.0714 C   0  0  0  0  0  0  0  0  0  0  0  0
   -3.0030   -3.6754   -2.5515 H   0  0  0  0  0  0  0  0  0  0  0  0
   -2.4579   -3.3000   -4.0438 H   0  0  0  0  0  0  0  0  0  0  0  0
   -1.3660   -3.9658   -2.9193 H   0  0  0  0  0  0  0  0  0  0  0  0
  1  5  1  0
  5  6  1  0
  5  7  2  0
  1  2  1  0
  1  3  1  0
  1  4  1  0
  8 12  1  0
 12 15  1  0
  8  9  1  0
  8 10  1  0
  8 11  1  0
 12 13  1  0
 12 14  1  0
 15 16  1  0
 15 17  1  0
 15 18  1  0
M  CHG  1   6  -1
M  END
>  <PDB_ID>  (280) 
pdb1auv

>  <RESIDUE_NAME>  (280) 
ASP   LYS

>  <FRAG_NAME>  (280) 
ACET   PRPA

>  <FRAG_ATOM_NUM>  (280) 
fragi: 7  fragj: 11

>  <atom.prop.CHAIN_ID>  (280) 
A A A A A A A Z Z Z Z Z Z Z Z Z Z Z

>  <atom.prop.IS_HEAVY_ATOM>  (280) 
1 0 0 0 1 1 1 1 0 0 0 1 0 0 1 0 0 0

>  <DIFUSE_FUNC_ATOM>  (280) 
atom 6   atom 7   

>  <FINAL_SINGLE_POINT_ENERGY>  (280) 
0

>  <NONCOV_INTER_ENERGY_QM>  (280) 
0

>  <FF_Energy>  (280) 
1.77

>  <QM_Energy>  (280) 
-3.58

>  <Index>  (280) 
20803

$$$$
ACET-pdb1av5-B-GLU-100:PRPA-pdb1av5-B-ILE-63
     RDKit          3D

 18 16  0  0  0  0  0  0  0  0999 V2000
    0.0324    1.5502   -0.0658 C   0  0  0  0  0  0  0  0  0  0  0  0
   -0.5713    1.8257   -0.7944 H   0  0  0  0  0  0  0  0  0  0  0  0
    0.9650    1.8161   -0.2430 H   0  0  0  0  0  0  0  0  0  0  0  0
   -0.2904    2.0652    0.8390 H   0  0  0  0  0  0  0  0  0  0  0  0
    0.0000    0.0000    0.0000 C   0  0  0  0  0  0  0  0  0  0  0  0
   -1.0892   -0.6121   -0.0000 O   0  0  0  0  0  1  0  0  0  0  0  0
    1.0892   -0.6083   -0.0000 O   0  0  0  0  0  0  0  0  0  0  0  0
   -3.9196   -2.0093   -0.0974 C   0  0  0  0  0  0  0  0  0  0  0  0
   -4.6801   -2.6810    0.0455 H   0  0  0  0  0  0  0  0  0  0  0  0
   -3.0765   -2.3848    0.4825 H   0  0  0  0  0  0  0  0  0  0  0  0
   -3.7765   -1.9332   -1.1752 H   0  0  0  0  0  0  0  0  0  0  0  0
   -4.4329   -0.6399    0.4747 C   0  0  0  0  0  0  0  0  0  0  0  0
   -4.1087   -0.5708    1.4072 H   0  0  0  0  0  0  0  0  0  0  0  0
   -5.5227   -0.6211    0.4864 H   0  0  0  0  0  0  0  0  0  0  0  0
   -3.9043    0.5400   -0.3348 C   0  0  0  0  0  0  0  0  0  0  0  0
   -4.2157    1.3931    0.0797 H   0  0  0  0  0  0  0  0  0  0  0  0
   -2.9067    0.5178   -0.3418 H   0  0  0  0  0  0  0  0  0  0  0  0
   -4.2460    0.4804   -1.2704 H   0  0  0  0  0  0  0  0  0  0  0  0
  1  5  1  0
  5  6  1  0
  5  7  2  0
  1  2  1  0
  1  3  1  0
  1  4  1  0
  8 12  1  0
 12 15  1  0
  8  9  1  0
  8 10  1  0
  8 11  1  0
 12 13  1  0
 12 14  1  0
 15 16  1  0
 15 17  1  0
 15 18  1  0
M  CHG  1   6  -1
M  END
>  <PDB_ID>  (281) 
pdb1av5

>  <RESIDUE_NAME>  (281) 
GLU   ILE

>  <FRAG_NAME>  (281) 
ACET   PRPA

>  <FRAG_ATOM_NUM>  (281) 
fragi: 7  fragj: 11

>  <atom.prop.CHAIN_ID>  (281) 
A A A A A A A Z Z Z Z Z Z Z Z Z Z Z

>  <atom.prop.IS_HEAVY_ATOM>  (281) 
1 0 0 0 1 1 1 1 0 0 0 1 0 0 1 0 0 0

>  <DIFUSE_FUNC_ATOM>  (281) 
atom 6   atom 7   

>  <FINAL_SINGLE_POINT_ENERGY>  (281) 
0

>  <NONCOV_INTER_ENERGY_QM>  (281) 
0

>  <FF_Energy>  (281) 
3.96

>  <QM_Energy>  (281) 
-3.24

>  <Index>  (281) 
20889

$$$$
ACET-pdb1azp-A-GLU-14:PRPA-pdb1azp-A-LYS-5
     RDKit          3D

 18 16  0  0  0  0  0  0  0  0999 V2000
   -0.0037    1.5068   -0.0302 C   0  0  0  0  0  0  0  0  0  0  0  0
    0.8801    1.8000   -0.3378 H   0  0  0  0  0  0  0  0  0  0  0  0
   -0.2119    1.8207    0.8757 H   0  0  0  0  0  0  0  0  0  0  0  0
   -0.7582    1.8909   -0.7167 H   0  0  0  0  0  0  0  0  0  0  0  0
    0.0000    0.0000    0.0000 C   0  0  0  0  0  0  0  0  0  0  0  0
   -1.1049   -0.5885    0.0000 O   0  0  0  0  0  1  0  0  0  0  0  0
    1.1049   -0.5931   -0.0000 O   0  0  0  0  0  0  0  0  0  0  0  0
    3.0667    2.8593    0.7967 C   0  0  0  0  0  0  0  0  0  0  0  0
    2.9485    3.1666    1.7445 H   0  0  0  0  0  0  0  0  0  0  0  0
    2.3891    2.1442    0.6020 H   0  0  0  0  0  0  0  0  0  0  0  0
    2.8622    3.7049    0.1400 H   0  0  0  0  0  0  0  0  0  0  0  0
    4.4529    2.2523    0.6625 C   0  0  0  0  0  0  0  0  0  0  0  0
    4.4784    1.6569   -0.1470 H   0  0  0  0  0  0  0  0  0  0  0  0
    5.1290    2.9864    0.5426 H   0  0  0  0  0  0  0  0  0  0  0  0
    4.8705    1.4112    1.8890 C   0  0  0  0  0  0  0  0  0  0  0  0
    5.6922    0.8925    1.6512 H   0  0  0  0  0  0  0  0  0  0  0  0
    5.0782    2.0337    2.6439 H   0  0  0  0  0  0  0  0  0  0  0  0
    4.1069    0.7092    2.2241 H   0  0  0  0  0  0  0  0  0  0  0  0
  1  5  1  0
  5  6  1  0
  5  7  2  0
  1  2  1  0
  1  3  1  0
  1  4  1  0
  8 12  1  0
 12 15  1  0
  8  9  1  0
  8 10  1  0
  8 11  1  0
 12 13  1  0
 12 14  1  0
 15 16  1  0
 15 17  1  0
 15 18  1  0
M  CHG  1   6  -1
M  END
>  <PDB_ID>  (282) 
pdb1azp

>  <RESIDUE_NAME>  (282) 
GLU   LYS

>  <FRAG_NAME>  (282) 
ACET   PRPA

>  <FRAG_ATOM_NUM>  (282) 
fragi: 7  fragj: 11

>  <atom.prop.CHAIN_ID>  (282) 
A A A A A A A Z Z Z Z Z Z Z Z Z Z Z

>  <atom.prop.IS_HEAVY_ATOM>  (282) 
1 0 0 0 1 1 1 1 0 0 0 1 0 0 1 0 0 0

>  <DIFUSE_FUNC_ATOM>  (282) 
atom 6   atom 7   

>  <FINAL_SINGLE_POINT_ENERGY>  (282) 
0

>  <NONCOV_INTER_ENERGY_QM>  (282) 
0

>  <FF_Energy>  (282) 
5.02

>  <QM_Energy>  (282) 
-0.62

>  <Index>  (282) 
21347

$$$$
ACET-pdb2an1-D-ASP-239:PRPA-pdb2an1-D-LYS-155
     RDKit          3D

 18 16  0  0  0  0  0  0  0  0999 V2000
    0.0220    1.5306   -0.0086 C   0  0  0  0  0  0  0  0  0  0  0  0
    0.2970    1.8370   -0.9116 H   0  0  0  0  0  0  0  0  0  0  0  0
    0.6667    1.8409    0.6785 H   0  0  0  0  0  0  0  0  0  0  0  0
   -0.9492    1.9715    0.2159 H   0  0  0  0  0  0  0  0  0  0  0  0
    0.0000    0.0000    0.0000 C   0  0  0  0  0  0  0  0  0  0  0  0
   -1.1057   -0.6049   -0.0000 O   0  0  0  0  0  1  0  0  0  0  0  0
    1.1057   -0.6004    0.0000 O   0  0  0  0  0  0  0  0  0  0  0  0
    2.7869   -3.1312   -2.5868 C   0  0  0  0  0  0  0  0  0  0  0  0
    3.6856   -3.2979   -2.1750 H   0  0  0  0  0  0  0  0  0  0  0  0
    2.5703   -2.1555   -2.5204 H   0  0  0  0  0  0  0  0  0  0  0  0
    2.8323   -3.4063   -3.6404 H   0  0  0  0  0  0  0  0  0  0  0  0
    1.7289   -3.9266   -1.8020 C   0  0  0  0  0  0  0  0  0  0  0  0
    1.5021   -4.7446   -2.3155 H   0  0  0  0  0  0  0  0  0  0  0  0
    2.1025   -4.1619   -0.9132 H   0  0  0  0  0  0  0  0  0  0  0  0
    0.4478   -3.1112   -1.5928 C   0  0  0  0  0  0  0  0  0  0  0  0
    0.6135   -2.4389   -0.8549 H   0  0  0  0  0  0  0  0  0  0  0  0
    0.2564   -2.5927   -2.4407 H   0  0  0  0  0  0  0  0  0  0  0  0
   -0.4252   -3.7118   -1.3375 H   0  0  0  0  0  0  0  0  0  0  0  0
  1  5  1  0
  5  6  1  0
  5  7  2  0
  1  2  1  0
  1  3  1  0
  1  4  1  0
  8 12  1  0
 12 15  1  0
  8  9  1  0
  8 10  1  0
  8 11  1  0
 12 13  1  0
 12 14  1  0
 15 16  1  0
 15 17  1  0
 15 18  1  0
M  CHG  1   6  -1
M  END
>  <PDB_ID>  (283) 
pdb2an1

>  <RESIDUE_NAME>  (283) 
ASP   LYS

>  <FRAG_NAME>  (283) 
ACET   PRPA

>  <FRAG_ATOM_NUM>  (283) 
fragi: 7  fragj: 11

>  <atom.prop.CHAIN_ID>  (283) 
A A A A A A A Z Z Z Z Z Z Z Z Z Z Z

>  <atom.prop.IS_HEAVY_ATOM>  (283) 
1 0 0 0 1 1 1 1 0 0 0 1 0 0 1 0 0 0

>  <DIFUSE_FUNC_ATOM>  (283) 
atom 6   atom 7   

>  <FINAL_SINGLE_POINT_ENERGY>  (283) 
0

>  <NONCOV_INTER_ENERGY_QM>  (283) 
0

>  <FF_Energy>  (283) 
6.45

>  <QM_Energy>  (283) 
-3.21

>  <Index>  (283) 
21497

$$$$
ACET-pdb2b8e-A-ASP-410:PRPA-pdb2b8e-A-GLU-413
     RDKit          3D

 18 16  0  0  0  0  0  0  0  0999 V2000
    0.0306    1.5156   -0.0191 C   0  0  0  0  0  0  0  0  0  0  0  0
    0.5257    1.8140   -0.8367 H   0  0  0  0  0  0  0  0  0  0  0  0
    0.5147    1.8355    0.7957 H   0  0  0  0  0  0  0  0  0  0  0  0
   -0.9530    1.9851   -0.0318 H   0  0  0  0  0  0  0  0  0  0  0  0
    0.0000    0.0000    0.0000 C   0  0  0  0  0  0  0  0  0  0  0  0
   -1.0952   -0.6018   -0.0000 O   0  0  0  0  0  1  0  0  0  0  0  0
    1.0952   -0.5815    0.0000 O   0  0  0  0  0  0  0  0  0  0  0  0
    2.6930    5.1051    0.5580 C   0  0  0  0  0  0  0  0  0  0  0  0
    3.3555    5.3909    1.2442 H   0  0  0  0  0  0  0  0  0  0  0  0
    1.7346    5.5904    0.7422 H   0  0  0  0  0  0  0  0  0  0  0  0
    3.0410    5.4010   -0.4317 H   0  0  0  0  0  0  0  0  0  0  0  0
    2.5432    3.5853    0.6349 C   0  0  0  0  0  0  0  0  0  0  0  0
    1.8921    3.3127   -0.0772 H   0  0  0  0  0  0  0  0  0  0  0  0
    3.4386    3.1855    0.4286 H   0  0  0  0  0  0  0  0  0  0  0  0
    2.0647    2.9709    1.9413 C   0  0  0  0  0  0  0  0  0  0  0  0
    2.7154    3.2362    2.6555 H   0  0  0  0  0  0  0  0  0  0  0  0
    1.1678    3.3631    2.1505 H   0  0  0  0  0  0  0  0  0  0  0  0
    1.9675    1.8855    1.9646 H   0  0  0  0  0  0  0  0  0  0  0  0
  1  5  1  0
  5  6  1  0
  5  7  2  0
  1  2  1  0
  1  3  1  0
  1  4  1  0
  8 12  1  0
 12 15  1  0
  8  9  1  0
  8 10  1  0
  8 11  1  0
 12 13  1  0
 12 14  1  0
 15 16  1  0
 15 17  1  0
 15 18  1  0
M  CHG  1   6  -1
M  END
>  <PDB_ID>  (284) 
pdb2b8e

>  <RESIDUE_NAME>  (284) 
ASP   GLU

>  <FRAG_NAME>  (284) 
ACET   PRPA

>  <FRAG_ATOM_NUM>  (284) 
fragi: 7  fragj: 11

>  <atom.prop.CHAIN_ID>  (284) 
A A A A A A A Z Z Z Z Z Z Z Z Z Z Z

>  <atom.prop.IS_HEAVY_ATOM>  (284) 
1 0 0 0 1 1 1 1 0 0 0 1 0 0 1 0 0 0

>  <DIFUSE_FUNC_ATOM>  (284) 
atom 6   atom 7   

>  <FINAL_SINGLE_POINT_ENERGY>  (284) 
0

>  <NONCOV_INTER_ENERGY_QM>  (284) 
0

>  <FF_Energy>  (284) 
9.73

>  <QM_Energy>  (284) 
1.52

>  <Index>  (284) 
21499

$$$$
ACET-pdb2bcx-A-ASP-64:PRPA-pdb2bcx-A-GLU-67
     RDKit          3D

 18 16  0  0  0  0  0  0  0  0999 V2000
   -0.0069    1.5313   -0.0164 C   0  0  0  0  0  0  0  0  0  0  0  0
   -0.1563    1.8378   -0.9496 H   0  0  0  0  0  0  0  0  0  0  0  0
    0.8688    1.8569    0.3197 H   0  0  0  0  0  0  0  0  0  0  0  0
   -0.7864    1.9703    0.6063 H   0  0  0  0  0  0  0  0  0  0  0  0
    0.0000    0.0000    0.0000 C   0  0  0  0  0  0  0  0  0  0  0  0
   -1.0994   -0.5932   -0.0000 O   0  0  0  0  0  1  0  0  0  0  0  0
    1.0994   -0.6006    0.0000 O   0  0  0  0  0  0  0  0  0  0  0  0
   -3.9703   -2.5229    1.2791 C   0  0  0  0  0  0  0  0  0  0  0  0
   -4.0094   -3.5227    1.1911 H   0  0  0  0  0  0  0  0  0  0  0  0
   -3.6928   -2.0792    0.3230 H   0  0  0  0  0  0  0  0  0  0  0  0
   -4.9416   -2.1496    1.6038 H   0  0  0  0  0  0  0  0  0  0  0  0
   -2.8706   -2.2347    2.3123 C   0  0  0  0  0  0  0  0  0  0  0  0
   -2.8075   -1.2628    2.4176 H   0  0  0  0  0  0  0  0  0  0  0  0
   -3.1113   -2.6947    3.1420 H   0  0  0  0  0  0  0  0  0  0  0  0
   -1.4940   -2.7435    1.8831 C   0  0  0  0  0  0  0  0  0  0  0  0
   -1.4963   -3.7258    1.9431 H   0  0  0  0  0  0  0  0  0  0  0  0
   -1.3203   -2.4296    0.9666 H   0  0  0  0  0  0  0  0  0  0  0  0
   -0.6788   -2.3815    2.5097 H   0  0  0  0  0  0  0  0  0  0  0  0
  1  5  1  0
  5  6  1  0
  5  7  2  0
  1  2  1  0
  1  3  1  0
  1  4  1  0
  8 12  1  0
 12 15  1  0
  8  9  1  0
  8 10  1  0
  8 11  1  0
 12 13  1  0
 12 14  1  0
 15 16  1  0
 15 17  1  0
 15 18  1  0
M  CHG  1   6  -1
M  END
>  <PDB_ID>  (285) 
pdb2bcx

>  <RESIDUE_NAME>  (285) 
ASP   GLU

>  <FRAG_NAME>  (285) 
ACET   PRPA

>  <FRAG_ATOM_NUM>  (285) 
fragi: 7  fragj: 11

>  <atom.prop.CHAIN_ID>  (285) 
A A A A A A A Z Z Z Z Z Z Z Z Z Z Z

>  <atom.prop.IS_HEAVY_ATOM>  (285) 
1 0 0 0 1 1 1 1 0 0 0 1 0 0 1 0 0 0

>  <DIFUSE_FUNC_ATOM>  (285) 
atom 6   atom 7   

>  <FINAL_SINGLE_POINT_ENERGY>  (285) 
0

>  <NONCOV_INTER_ENERGY_QM>  (285) 
0

>  <FF_Energy>  (285) 
0.81

>  <QM_Energy>  (285) 
-3.33

>  <Index>  (285) 
21630

$$$$
ACET-pdb2a7k-G-GLU-29:PRPA-pdb2a7k-G-ARG-82
     RDKit          3D

 18 16  0  0  0  0  0  0  0  0999 V2000
   -0.0069    1.5463   -0.0009 C   0  0  0  0  0  0  0  0  0  0  0  0
    0.3475    1.8324   -0.8672 H   0  0  0  0  0  0  0  0  0  0  0  0
    0.5474    1.8336    0.7532 H   0  0  0  0  0  0  0  0  0  0  0  0
   -1.0079    1.9601    0.1210 H   0  0  0  0  0  0  0  0  0  0  0  0
    0.0000    0.0000    0.0000 C   0  0  0  0  0  0  0  0  0  0  0  0
   -1.0936   -0.6021   -0.0000 O   0  0  0  0  0  1  0  0  0  0  0  0
    1.0936   -0.6104   -0.0000 O   0  0  0  0  0  0  0  0  0  0  0  0
   -1.6840   -3.3982   -2.0768 C   0  0  0  0  0  0  0  0  0  0  0  0
   -0.9325   -4.0512   -2.2112 H   0  0  0  0  0  0  0  0  0  0  0  0
   -1.2965   -2.5200   -1.7809 H   0  0  0  0  0  0  0  0  0  0  0  0
   -2.1799   -3.2468   -3.0355 H   0  0  0  0  0  0  0  0  0  0  0  0
   -2.5566   -3.9264   -0.9355 C   0  0  0  0  0  0  0  0  0  0  0  0
   -3.4867   -3.6166   -1.0683 H   0  0  0  0  0  0  0  0  0  0  0  0
   -2.5054   -4.9140   -0.9199 H   0  0  0  0  0  0  0  0  0  0  0  0
   -2.0468   -3.3921    0.3747 C   0  0  0  0  0  0  0  0  0  0  0  0
   -1.5819   -2.5252    0.2023 H   0  0  0  0  0  0  0  0  0  0  0  0
   -2.8290   -3.2400    0.9774 H   0  0  0  0  0  0  0  0  0  0  0  0
   -1.3524   -4.0818    0.8546 H   0  0  0  0  0  0  0  0  0  0  0  0
  1  5  1  0
  5  6  1  0
  5  7  2  0
  1  2  1  0
  1  3  1  0
  1  4  1  0
  8 12  1  0
 12 15  1  0
  8  9  1  0
  8 10  1  0
  8 11  1  0
 12 13  1  0
 12 14  1  0
 15 16  1  0
 15 17  1  0
 15 18  1  0
M  CHG  1   6  -1
M  END
>  <PDB_ID>  (286) 
pdb2a7k

>  <RESIDUE_NAME>  (286) 
GLU   ARG

>  <FRAG_NAME>  (286) 
ACET   PRPA

>  <FRAG_ATOM_NUM>  (286) 
fragi: 7  fragj: 11

>  <atom.prop.CHAIN_ID>  (286) 
A A A A A A A Z Z Z Z Z Z Z Z Z Z Z

>  <atom.prop.IS_HEAVY_ATOM>  (286) 
1 0 0 0 1 1 1 1 0 0 0 1 0 0 1 0 0 0

>  <DIFUSE_FUNC_ATOM>  (286) 
atom 6   atom 7   

>  <FINAL_SINGLE_POINT_ENERGY>  (286) 
0

>  <NONCOV_INTER_ENERGY_QM>  (286) 
0

>  <FF_Energy>  (286) 
7.12

>  <QM_Energy>  (286) 
-3.7

>  <Index>  (286) 
21653

$$$$
ACET-pdb2ash-C-GLU-347:PRPA-pdb2ash-C-LEU-14
     RDKit          3D

 18 16  0  0  0  0  0  0  0  0999 V2000
    0.1851    1.4882    0.0143 C   0  0  0  0  0  0  0  0  0  0  0  0
    0.7023    1.7377   -0.8029 H   0  0  0  0  0  0  0  0  0  0  0  0
    0.7136    1.7205    0.8296 H   0  0  0  0  0  0  0  0  0  0  0  0
   -0.7263    2.0861    0.0263 H   0  0  0  0  0  0  0  0  0  0  0  0
    0.0000    0.0000    0.0000 C   0  0  0  0  0  0  0  0  0  0  0  0
   -1.0890   -0.5538   -0.0000 O   0  0  0  0  0  1  0  0  0  0  0  0
    1.0890   -0.6118   -0.0000 O   0  0  0  0  0  0  0  0  0  0  0  0
    4.8823    3.5413   -0.2074 C   0  0  0  0  0  0  0  0  0  0  0  0
    4.3107    4.1182    0.3844 H   0  0  0  0  0  0  0  0  0  0  0  0
    4.7479    3.8243   -1.1614 H   0  0  0  0  0  0  0  0  0  0  0  0
    5.9239    3.7311    0.0516 H   0  0  0  0  0  0  0  0  0  0  0  0
    4.3448    2.1022   -0.0855 C   0  0  0  0  0  0  0  0  0  0  0  0
    4.7671    1.5406   -0.7676 H   0  0  0  0  0  0  0  0  0  0  0  0
    4.6335    1.7483    0.9042 H   0  0  0  0  0  0  0  0  0  0  0  0
    2.8402    1.9890   -0.4249 C   0  0  0  0  0  0  0  0  0  0  0  0
    2.6978    2.2924   -1.3633 H   0  0  0  0  0  0  0  0  0  0  0  0
    2.5589    1.0383   -0.3269 H   0  0  0  0  0  0  0  0  0  0  0  0
    2.3241    2.5653    0.2037 H   0  0  0  0  0  0  0  0  0  0  0  0
  1  5  1  0
  5  6  1  0
  5  7  2  0
  1  2  1  0
  1  3  1  0
  1  4  1  0
  8 12  1  0
 12 15  1  0
  8  9  1  0
  8 10  1  0
  8 11  1  0
 12 13  1  0
 12 14  1  0
 15 16  1  0
 15 17  1  0
 15 18  1  0
M  CHG  1   6  -1
M  END
>  <PDB_ID>  (287) 
pdb2ash

>  <RESIDUE_NAME>  (287) 
GLU   LEU

>  <FRAG_NAME>  (287) 
ACET   PRPA

>  <FRAG_ATOM_NUM>  (287) 
fragi: 7  fragj: 11

>  <atom.prop.CHAIN_ID>  (287) 
A A A A A A A Z Z Z Z Z Z Z Z Z Z Z

>  <atom.prop.IS_HEAVY_ATOM>  (287) 
1 0 0 0 1 1 1 1 0 0 0 1 0 0 1 0 0 0

>  <DIFUSE_FUNC_ATOM>  (287) 
atom 6   atom 7   

>  <FINAL_SINGLE_POINT_ENERGY>  (287) 
0

>  <NONCOV_INTER_ENERGY_QM>  (287) 
0

>  <FF_Energy>  (287) 
21.53

>  <QM_Energy>  (287) 
5.3

>  <Index>  (287) 
21696

$$$$
ACET-pdb2ash-C-GLU-347:PRPA-pdb2ash-C-LEU-14
     RDKit          3D

 18 16  0  0  0  0  0  0  0  0999 V2000
    0.1851    1.4882    0.0143 C   0  0  0  0  0  0  0  0  0  0  0  0
    0.7023    1.7377   -0.8029 H   0  0  0  0  0  0  0  0  0  0  0  0
    0.7136    1.7205    0.8296 H   0  0  0  0  0  0  0  0  0  0  0  0
   -0.7263    2.0861    0.0263 H   0  0  0  0  0  0  0  0  0  0  0  0
    0.0000    0.0000    0.0000 C   0  0  0  0  0  0  0  0  0  0  0  0
   -1.0890   -0.5538   -0.0000 O   0  0  0  0  0  1  0  0  0  0  0  0
    1.0890   -0.6118   -0.0000 O   0  0  0  0  0  0  0  0  0  0  0  0
    4.7529    1.6020    1.3133 C   0  0  0  0  0  0  0  0  0  0  0  0
    4.3473    2.1974    2.0028 H   0  0  0  0  0  0  0  0  0  0  0  0
    4.4231    0.6689    1.4341 H   0  0  0  0  0  0  0  0  0  0  0  0
    5.7466    1.6230    1.3883 H   0  0  0  0  0  0  0  0  0  0  0  0
    4.3448    2.1022   -0.0855 C   0  0  0  0  0  0  0  0  0  0  0  0
    4.7671    1.5406   -0.7676 H   0  0  0  0  0  0  0  0  0  0  0  0
    4.7249    3.1200   -0.1717 H   0  0  0  0  0  0  0  0  0  0  0  0
    2.8402    1.9890   -0.4249 C   0  0  0  0  0  0  0  0  0  0  0  0
    2.6978    2.2924   -1.3633 H   0  0  0  0  0  0  0  0  0  0  0  0
    2.5589    1.0383   -0.3269 H   0  0  0  0  0  0  0  0  0  0  0  0
    2.3241    2.5653    0.2037 H   0  0  0  0  0  0  0  0  0  0  0  0
  1  5  1  0
  5  6  1  0
  5  7  2  0
  1  2  1  0
  1  3  1  0
  1  4  1  0
  8 12  1  0
 12 15  1  0
  8  9  1  0
  8 10  1  0
  8 11  1  0
 12 13  1  0
 12 14  1  0
 15 16  1  0
 15 17  1  0
 15 18  1  0
M  CHG  1   6  -1
M  END
>  <PDB_ID>  (288) 
pdb2ash

>  <RESIDUE_NAME>  (288) 
GLU   LEU

>  <FRAG_NAME>  (288) 
ACET   PRPA

>  <FRAG_ATOM_NUM>  (288) 
fragi: 7  fragj: 11

>  <atom.prop.CHAIN_ID>  (288) 
A A A A A A A Z Z Z Z Z Z Z Z Z Z Z

>  <atom.prop.IS_HEAVY_ATOM>  (288) 
1 0 0 0 1 1 1 1 0 0 0 1 0 0 1 0 0 0

>  <DIFUSE_FUNC_ATOM>  (288) 
atom 6   atom 7   

>  <FINAL_SINGLE_POINT_ENERGY>  (288) 
0

>  <NONCOV_INTER_ENERGY_QM>  (288) 
0

>  <FF_Energy>  (288) 
21.6

>  <QM_Energy>  (288) 
5.28

>  <Index>  (288) 
21701

$$$$
ACET-pdb1av4-A-GLU-19:PRPA-pdb1av4-A-ARG-58
     RDKit          3D

 18 16  0  0  0  0  0  0  0  0999 V2000
    0.0064    1.5062   -0.0169 C   0  0  0  0  0  0  0  0  0  0  0  0
    0.9341    1.7996    0.1250 H   0  0  0  0  0  0  0  0  0  0  0  0
   -0.5926    1.8120    0.7012 H   0  0  0  0  0  0  0  0  0  0  0  0
   -0.3476    1.9056   -0.9673 H   0  0  0  0  0  0  0  0  0  0  0  0
    0.0000    0.0000    0.0000 C   0  0  0  0  0  0  0  0  0  0  0  0
   -1.0972   -0.5963    0.0000 O   0  0  0  0  0  1  0  0  0  0  0  0
    1.0972   -0.5881    0.0000 O   0  0  0  0  0  0  0  0  0  0  0  0
    4.5110   -2.6517   -0.8148 C   0  0  0  0  0  0  0  0  0  0  0  0
    4.6899   -2.9205    0.1294 H   0  0  0  0  0  0  0  0  0  0  0  0
    4.7722   -1.6980   -0.9500 H   0  0  0  0  0  0  0  0  0  0  0  0
    5.1330   -3.2677   -1.4642 H   0  0  0  0  0  0  0  0  0  0  0  0
    3.0540   -2.7906   -1.0847 C   0  0  0  0  0  0  0  0  0  0  0  0
    2.5802   -1.9273   -0.8831 H   0  0  0  0  0  0  0  0  0  0  0  0
    2.9010   -3.0208   -2.0516 H   0  0  0  0  0  0  0  0  0  0  0  0
    2.4042   -3.8771   -0.2479 C   0  0  0  0  0  0  0  0  0  0  0  0
    2.4072   -4.7077   -0.7639 H   0  0  0  0  0  0  0  0  0  0  0  0
    2.8890   -3.9446    0.5986 H   0  0  0  0  0  0  0  0  0  0  0  0
    1.3773   -3.5635   -0.0604 H   0  0  0  0  0  0  0  0  0  0  0  0
  1  5  1  0
  5  6  1  0
  5  7  2  0
  1  2  1  0
  1  3  1  0
  1  4  1  0
  8 12  1  0
 12 15  1  0
  8  9  1  0
  8 10  1  0
  8 11  1  0
 12 13  1  0
 12 14  1  0
 15 16  1  0
 15 17  1  0
 15 18  1  0
M  CHG  1   6  -1
M  END
>  <PDB_ID>  (289) 
pdb1av4

>  <RESIDUE_NAME>  (289) 
GLU   ARG

>  <FRAG_NAME>  (289) 
ACET   PRPA

>  <FRAG_ATOM_NUM>  (289) 
fragi: 7  fragj: 11

>  <atom.prop.CHAIN_ID>  (289) 
A A A A A A A Z Z Z Z Z Z Z Z Z Z Z

>  <atom.prop.IS_HEAVY_ATOM>  (289) 
1 0 0 0 1 1 1 1 0 0 0 1 0 0 1 0 0 0

>  <DIFUSE_FUNC_ATOM>  (289) 
atom 6   atom 7   

>  <FINAL_SINGLE_POINT_ENERGY>  (289) 
0

>  <NONCOV_INTER_ENERGY_QM>  (289) 
0

>  <FF_Energy>  (289) 
2.11

>  <QM_Energy>  (289) 
-4.51

>  <Index>  (289) 
21706

$$$$
ACET-pdb1azi-A-ASP-122:PRPA-pdb1azi-A-LYS-16
     RDKit          3D

 18 16  0  0  0  0  0  0  0  0999 V2000
   -0.0865    1.5172    0.0241 C   0  0  0  0  0  0  0  0  0  0  0  0
    0.8330    1.8824    0.1636 H   0  0  0  0  0  0  0  0  0  0  0  0
   -0.6742    1.7865    0.7848 H   0  0  0  0  0  0  0  0  0  0  0  0
   -0.4916    1.9460   -0.8924 H   0  0  0  0  0  0  0  0  0  0  0  0
    0.0000    0.0000    0.0000 C   0  0  0  0  0  0  0  0  0  0  0  0
   -1.1017   -0.5834   -0.0000 O   0  0  0  0  0  1  0  0  0  0  0  0
    1.1017   -0.4783    0.0000 O   0  0  0  0  0  0  0  0  0  0  0  0
    4.0725   -3.7024   -2.8724 C   0  0  0  0  0  0  0  0  0  0  0  0
    4.7675   -3.6449   -2.1528 H   0  0  0  0  0  0  0  0  0  0  0  0
    4.3848   -3.1877   -3.6736 H   0  0  0  0  0  0  0  0  0  0  0  0
    3.9481   -4.7478   -3.1547 H   0  0  0  0  0  0  0  0  0  0  0  0
    2.7808   -3.0938   -2.3638 C   0  0  0  0  0  0  0  0  0  0  0  0
    2.1872   -2.9115   -3.1719 H   0  0  0  0  0  0  0  0  0  0  0  0
    2.3048   -3.8007   -1.8062 H   0  0  0  0  0  0  0  0  0  0  0  0
    2.9293   -1.8690   -1.5783 C   0  0  0  0  0  0  0  0  0  0  0  0
    2.1009   -1.2478   -1.7460 H   0  0  0  0  0  0  0  0  0  0  0  0
    2.8328   -2.0972   -0.5589 H   0  0  0  0  0  0  0  0  0  0  0  0
    3.8192   -1.2481   -1.6819 H   0  0  0  0  0  0  0  0  0  0  0  0
  1  5  1  0
  5  6  1  0
  5  7  2  0
  1  2  1  0
  1  3  1  0
  1  4  1  0
  8 12  1  0
 12 15  1  0
  8  9  1  0
  8 10  1  0
  8 11  1  0
 12 13  1  0
 12 14  1  0
 15 16  1  0
 15 17  1  0
 15 18  1  0
M  CHG  1   6  -1
M  END
>  <PDB_ID>  (290) 
pdb1azi

>  <RESIDUE_NAME>  (290) 
ASP   LYS

>  <FRAG_NAME>  (290) 
ACET   PRPA

>  <FRAG_ATOM_NUM>  (290) 
fragi: 7  fragj: 11

>  <atom.prop.CHAIN_ID>  (290) 
A A A A A A A Z Z Z Z Z Z Z Z Z Z Z

>  <atom.prop.IS_HEAVY_ATOM>  (290) 
1 0 0 0 1 1 1 1 0 0 0 1 0 0 1 0 0 0

>  <DIFUSE_FUNC_ATOM>  (290) 
atom 6   atom 7   

>  <FINAL_SINGLE_POINT_ENERGY>  (290) 
0

>  <NONCOV_INTER_ENERGY_QM>  (290) 
0

>  <FF_Energy>  (290) 
12.74

>  <QM_Energy>  (290) 
-0.21

>  <Index>  (290) 
21728

$$$$
ACET-pdb2bdt-A-GLU-50:PRPA-pdb2bdt-A-PRO-47
     RDKit          3D

 18 16  0  0  0  0  0  0  0  0999 V2000
    0.0098    1.5147    0.0088 C   0  0  0  0  0  0  0  0  0  0  0  0
   -0.2805    1.8060    0.8979 H   0  0  0  0  0  0  0  0  0  0  0  0
   -0.5896    1.8167   -0.7050 H   0  0  0  0  0  0  0  0  0  0  0  0
    1.0074    1.9114   -0.1799 H   0  0  0  0  0  0  0  0  0  0  0  0
    0.0000    0.0000    0.0000 C   0  0  0  0  0  0  0  0  0  0  0  0
   -1.1028   -0.5941    0.0000 O   0  0  0  0  0  1  0  0  0  0  0  0
    1.1028   -0.5969   -0.0000 O   0  0  0  0  0  0  0  0  0  0  0  0
   -0.1856    2.4229   -4.9269 C   0  0  0  0  0  0  0  0  0  0  0  0
   -0.4316    2.5134   -5.9075 H   0  0  0  0  0  0  0  0  0  0  0  0
    0.5665    1.6453   -4.7936 H   0  0  0  0  0  0  0  0  0  0  0  0
    0.1303    3.3820   -4.5166 H   0  0  0  0  0  0  0  0  0  0  0  0
   -1.4112    1.8490   -4.2099 C   0  0  0  0  0  0  0  0  0  0  0  0
   -1.9454    2.5755   -3.7841 H   0  0  0  0  0  0  0  0  0  0  0  0
   -1.9831    1.3332   -4.8420 H   0  0  0  0  0  0  0  0  0  0  0  0
   -0.8116    0.9463   -3.1704 C   0  0  0  0  0  0  0  0  0  0  0  0
   -0.4320    1.4729   -2.4254 H   0  0  0  0  0  0  0  0  0  0  0  0
   -1.4788    0.2923   -2.8482 H   0  0  0  0  0  0  0  0  0  0  0  0
   -0.0239    0.4517   -3.7388 H   0  0  0  0  0  0  0  0  0  0  0  0
  1  5  1  0
  5  6  1  0
  5  7  2  0
  1  2  1  0
  1  3  1  0
  1  4  1  0
  8 12  1  0
 12 15  1  0
  8  9  1  0
  8 10  1  0
  8 11  1  0
 12 13  1  0
 12 14  1  0
 15 16  1  0
 15 17  1  0
 15 18  1  0
M  CHG  1   6  -1
M  END
>  <PDB_ID>  (291) 
pdb2bdt

>  <RESIDUE_NAME>  (291) 
GLU   PRO

>  <FRAG_NAME>  (291) 
ACET   PRPA

>  <FRAG_ATOM_NUM>  (291) 
fragi: 7  fragj: 11

>  <atom.prop.CHAIN_ID>  (291) 
A A A A A A A Z Z Z Z Z Z Z Z Z Z Z

>  <atom.prop.IS_HEAVY_ATOM>  (291) 
1 0 0 0 1 1 1 1 0 0 0 1 0 0 1 0 0 0

>  <DIFUSE_FUNC_ATOM>  (291) 
atom 6   atom 7   

>  <FINAL_SINGLE_POINT_ENERGY>  (291) 
0

>  <NONCOV_INTER_ENERGY_QM>  (291) 
0

>  <FF_Energy>  (291) 
6.94

>  <QM_Energy>  (291) 
0.03

>  <Index>  (291) 
21771

$$$$
ACET-pdb2bdt-A-GLU-50:PRPA-pdb2bdt-A-PRO-47
     RDKit          3D

 18 16  0  0  0  0  0  0  0  0999 V2000
    0.0098    1.5147    0.0088 C   0  0  0  0  0  0  0  0  0  0  0  0
   -0.2805    1.8060    0.8979 H   0  0  0  0  0  0  0  0  0  0  0  0
   -0.5896    1.8167   -0.7050 H   0  0  0  0  0  0  0  0  0  0  0  0
    1.0074    1.9114   -0.1799 H   0  0  0  0  0  0  0  0  0  0  0  0
    0.0000    0.0000    0.0000 C   0  0  0  0  0  0  0  0  0  0  0  0
   -1.1028   -0.5941    0.0000 O   0  0  0  0  0  1  0  0  0  0  0  0
    1.1028   -0.5969   -0.0000 O   0  0  0  0  0  0  0  0  0  0  0  0
   -1.4112    1.8490   -4.2099 C   0  0  0  0  0  0  0  0  0  0  0  0
   -1.9454    2.5755   -3.7841 H   0  0  0  0  0  0  0  0  0  0  0  0
   -1.9831    1.3332   -4.8420 H   0  0  0  0  0  0  0  0  0  0  0  0
   -0.5390    2.2575   -4.7202 H   0  0  0  0  0  0  0  0  0  0  0  0
   -0.8116    0.9463   -3.1704 C   0  0  0  0  0  0  0  0  0  0  0  0
   -0.4320    1.4729   -2.4254 H   0  0  0  0  0  0  0  0  0  0  0  0
   -1.4788    0.2923   -2.8482 H   0  0  0  0  0  0  0  0  0  0  0  0
    0.2835    0.2587   -3.9606 C   0  0  0  0  0  0  0  0  0  0  0  0
    0.9775   -0.1188   -3.3607 H   0  0  0  0  0  0  0  0  0  0  0  0
   -0.0887   -0.4447   -4.5545 H   0  0  0  0  0  0  0  0  0  0  0  0
    0.6841    1.0880   -4.5436 H   0  0  0  0  0  0  0  0  0  0  0  0
  1  5  1  0
  5  6  1  0
  5  7  2  0
  1  2  1  0
  1  3  1  0
  1  4  1  0
  8 12  1  0
 12 15  1  0
  8  9  1  0
  8 10  1  0
  8 11  1  0
 12 13  1  0
 12 14  1  0
 15 16  1  0
 15 17  1  0
 15 18  1  0
M  CHG  1   6  -1
M  END
>  <PDB_ID>  (292) 
pdb2bdt

>  <RESIDUE_NAME>  (292) 
GLU   PRO

>  <FRAG_NAME>  (292) 
ACET   PRPA

>  <FRAG_ATOM_NUM>  (292) 
fragi: 7  fragj: 11

>  <atom.prop.CHAIN_ID>  (292) 
A A A A A A A Z Z Z Z Z Z Z Z Z Z Z

>  <atom.prop.IS_HEAVY_ATOM>  (292) 
1 0 0 0 1 1 1 1 0 0 0 1 0 0 1 0 0 0

>  <DIFUSE_FUNC_ATOM>  (292) 
atom 6   atom 7   

>  <FINAL_SINGLE_POINT_ENERGY>  (292) 
0

>  <NONCOV_INTER_ENERGY_QM>  (292) 
0

>  <FF_Energy>  (292) 
7.91

>  <QM_Energy>  (292) 
-1.44

>  <Index>  (292) 
21780

$$$$
ACET-pdb2b5o-A-ASP-170:PRPA-pdb2b5o-A-LYS-174
     RDKit          3D

 18 16  0  0  0  0  0  0  0  0999 V2000
    0.0574    1.5289   -0.0600 C   0  0  0  0  0  0  0  0  0  0  0  0
   -0.0216    1.8070   -1.0156 H   0  0  0  0  0  0  0  0  0  0  0  0
    0.9381    1.8237    0.3049 H   0  0  0  0  0  0  0  0  0  0  0  0
   -0.7293    2.0281    0.5055 H   0  0  0  0  0  0  0  0  0  0  0  0
    0.0000    0.0000    0.0000 C   0  0  0  0  0  0  0  0  0  0  0  0
   -1.1099   -0.5939    0.0000 O   0  0  0  0  0  1  0  0  0  0  0  0
    1.1099   -0.5957    0.0000 O   0  0  0  0  0  0  0  0  0  0  0  0
    2.2954    3.9162    0.0096 C   0  0  0  0  0  0  0  0  0  0  0  0
    2.4447    3.9324    0.9939 H   0  0  0  0  0  0  0  0  0  0  0  0
    1.3235    3.8280   -0.1884 H   0  0  0  0  0  0  0  0  0  0  0  0
    2.6512    4.8568   -0.4106 H   0  0  0  0  0  0  0  0  0  0  0  0
    3.0404    2.7383   -0.5914 C   0  0  0  0  0  0  0  0  0  0  0  0
    2.3769    2.0977   -0.9741 H   0  0  0  0  0  0  0  0  0  0  0  0
    3.6429    3.0709   -1.3154 H   0  0  0  0  0  0  0  0  0  0  0  0
    3.8848    2.0006    0.4366 C   0  0  0  0  0  0  0  0  0  0  0  0
    4.4434    2.6624    0.9380 H   0  0  0  0  0  0  0  0  0  0  0  0
    3.2809    1.5243    1.0767 H   0  0  0  0  0  0  0  0  0  0  0  0
    4.5428    1.2714   -0.0361 H   0  0  0  0  0  0  0  0  0  0  0  0
  1  5  1  0
  5  6  1  0
  5  7  2  0
  1  2  1  0
  1  3  1  0
  1  4  1  0
  8 12  1  0
 12 15  1  0
  8  9  1  0
  8 10  1  0
  8 11  1  0
 12 13  1  0
 12 14  1  0
 15 16  1  0
 15 17  1  0
 15 18  1  0
M  CHG  1   6  -1
M  END
>  <PDB_ID>  (293) 
pdb2b5o

>  <RESIDUE_NAME>  (293) 
ASP   LYS

>  <FRAG_NAME>  (293) 
ACET   PRPA

>  <FRAG_ATOM_NUM>  (293) 
fragi: 7  fragj: 11

>  <atom.prop.CHAIN_ID>  (293) 
A A A A A A A Z Z Z Z Z Z Z Z Z Z Z

>  <atom.prop.IS_HEAVY_ATOM>  (293) 
1 0 0 0 1 1 1 1 0 0 0 1 0 0 1 0 0 0

>  <DIFUSE_FUNC_ATOM>  (293) 
atom 6   atom 7   

>  <FINAL_SINGLE_POINT_ENERGY>  (293) 
0

>  <NONCOV_INTER_ENERGY_QM>  (293) 
0

>  <FF_Energy>  (293) 
5.15

>  <QM_Energy>  (293) 
-1.21

>  <Index>  (293) 
21822

$$$$
ACET-pdb1axi-A-GLU-56:PRPA-pdb1axi-A-LEU-52
     RDKit          3D

 18 16  0  0  0  0  0  0  0  0999 V2000
   -0.0062    1.5030    0.0227 C   0  0  0  0  0  0  0  0  0  0  0  0
    0.1253    1.8241   -0.9101 H   0  0  0  0  0  0  0  0  0  0  0  0
    0.7477    1.8031    0.5987 H   0  0  0  0  0  0  0  0  0  0  0  0
   -0.9159    1.9674    0.4035 H   0  0  0  0  0  0  0  0  0  0  0  0
    0.0000    0.0000    0.0000 C   0  0  0  0  0  0  0  0  0  0  0  0
   -1.1113   -0.5972   -0.0000 O   0  0  0  0  0  1  0  0  0  0  0  0
    1.1113   -0.5916   -0.0000 O   0  0  0  0  0  0  0  0  0  0  0  0
    3.3443    0.2171    1.8014 C   0  0  0  0  0  0  0  0  0  0  0  0
    2.7002   -0.2859    1.2755 H   0  0  0  0  0  0  0  0  0  0  0  0
    4.3044   -0.2976    1.7656 H   0  0  0  0  0  0  0  0  0  0  0  0
    3.5570    1.1547    1.2879 H   0  0  0  0  0  0  0  0  0  0  0  0
    2.8020    0.3192    3.2113 C   0  0  0  0  0  0  0  0  0  0  0  0
    3.5706    0.4307    3.8364 H   0  0  0  0  0  0  0  0  0  0  0  0
    2.2018    1.1116    3.2601 H   0  0  0  0  0  0  0  0  0  0  0  0
    1.9937   -0.8877    3.7083 C   0  0  0  0  0  0  0  0  0  0  0  0
    2.2652   -1.6979    3.1798 H   0  0  0  0  0  0  0  0  0  0  0  0
    2.1565   -1.0785    4.7690 H   0  0  0  0  0  0  0  0  0  0  0  0
    0.9282   -0.7463    3.5273 H   0  0  0  0  0  0  0  0  0  0  0  0
  1  5  1  0
  5  6  1  0
  5  7  2  0
  1  2  1  0
  1  3  1  0
  1  4  1  0
  8 12  1  0
 12 15  1  0
  8  9  1  0
  8 10  1  0
  8 11  1  0
 12 13  1  0
 12 14  1  0
 15 16  1  0
 15 17  1  0
 15 18  1  0
M  CHG  1   6  -1
M  END
>  <PDB_ID>  (294) 
pdb1axi

>  <RESIDUE_NAME>  (294) 
GLU   LEU

>  <FRAG_NAME>  (294) 
ACET   PRPA

>  <FRAG_ATOM_NUM>  (294) 
fragi: 7  fragj: 11

>  <atom.prop.CHAIN_ID>  (294) 
A A A A A A A Z Z Z Z Z Z Z Z Z Z Z

>  <atom.prop.IS_HEAVY_ATOM>  (294) 
1 0 0 0 1 1 1 1 0 0 0 1 0 0 1 0 0 0

>  <DIFUSE_FUNC_ATOM>  (294) 
atom 6   atom 7   

>  <FINAL_SINGLE_POINT_ENERGY>  (294) 
0

>  <NONCOV_INTER_ENERGY_QM>  (294) 
0

>  <FF_Energy>  (294) 
6.62

>  <QM_Energy>  (294) 
-2.81

>  <Index>  (294) 
21851

$$$$
ACET-pdb2aw5-A-GLU-357:PRPA-pdb2aw5-A-LYS-342
     RDKit          3D

 18 16  0  0  0  0  0  0  0  0999 V2000
    0.1846    1.4883    0.0142 C   0  0  0  0  0  0  0  0  0  0  0  0
    0.7015    1.7394   -0.8028 H   0  0  0  0  0  0  0  0  0  0  0  0
    0.7134    1.7219    0.8294 H   0  0  0  0  0  0  0  0  0  0  0  0
   -0.7267    2.0862    0.0262 H   0  0  0  0  0  0  0  0  0  0  0  0
    0.0000    0.0000    0.0000 C   0  0  0  0  0  0  0  0  0  0  0  0
   -1.0887   -0.5533    0.0000 O   0  0  0  0  0  1  0  0  0  0  0  0
    1.0887   -0.6113   -0.0000 O   0  0  0  0  0  0  0  0  0  0  0  0
    3.5326    3.2998   -2.3115 C   0  0  0  0  0  0  0  0  0  0  0  0
    4.1246    3.4689   -3.0961 H   0  0  0  0  0  0  0  0  0  0  0  0
    4.0689    3.3215   -1.4705 H   0  0  0  0  0  0  0  0  0  0  0  0
    2.7816    4.0884   -2.2664 H   0  0  0  0  0  0  0  0  0  0  0  0
    2.8864    1.9352   -2.4574 C   0  0  0  0  0  0  0  0  0  0  0  0
    2.2887    1.7763   -1.6731 H   0  0  0  0  0  0  0  0  0  0  0  0
    2.3463    1.9226   -3.2983 H   0  0  0  0  0  0  0  0  0  0  0  0
    3.9071    0.8209   -2.5227 C   0  0  0  0  0  0  0  0  0  0  0  0
    4.5069    0.9701   -3.3084 H   0  0  0  0  0  0  0  0  0  0  0  0
    4.4494    0.8230   -1.6837 H   0  0  0  0  0  0  0  0  0  0  0  0
    3.4133   -0.1452   -2.6269 H   0  0  0  0  0  0  0  0  0  0  0  0
  1  5  1  0
  5  6  1  0
  5  7  2  0
  1  2  1  0
  1  3  1  0
  1  4  1  0
  8 12  1  0
 12 15  1  0
  8  9  1  0
  8 10  1  0
  8 11  1  0
 12 13  1  0
 12 14  1  0
 15 16  1  0
 15 17  1  0
 15 18  1  0
M  CHG  1   6  -1
M  END
>  <PDB_ID>  (295) 
pdb2aw5

>  <RESIDUE_NAME>  (295) 
GLU   LYS

>  <FRAG_NAME>  (295) 
ACET   PRPA

>  <FRAG_ATOM_NUM>  (295) 
fragi: 7  fragj: 11

>  <atom.prop.CHAIN_ID>  (295) 
A A A A A A A Z Z Z Z Z Z Z Z Z Z Z

>  <atom.prop.IS_HEAVY_ATOM>  (295) 
1 0 0 0 1 1 1 1 0 0 0 1 0 0 1 0 0 0

>  <DIFUSE_FUNC_ATOM>  (295) 
atom 6   atom 7   

>  <FINAL_SINGLE_POINT_ENERGY>  (295) 
0

>  <NONCOV_INTER_ENERGY_QM>  (295) 
0

>  <FF_Energy>  (295) 
13.54

>  <QM_Energy>  (295) 
-1.32

>  <Index>  (295) 
21964

$$$$
ACET-pdb1azo-A-GLU-68:PRPA-pdb1azo-A-PRO-10
     RDKit          3D

 18 16  0  0  0  0  0  0  0  0999 V2000
   -0.0003    1.5156    0.0051 C   0  0  0  0  0  0  0  0  0  0  0  0
    0.8297    1.8117    0.4455 H   0  0  0  0  0  0  0  0  0  0  0  0
   -0.8019    1.8100    0.4976 H   0  0  0  0  0  0  0  0  0  0  0  0
   -0.0316    1.9501   -0.9941 H   0  0  0  0  0  0  0  0  0  0  0  0
    0.0000    0.0000    0.0000 C   0  0  0  0  0  0  0  0  0  0  0  0
   -1.1004   -0.5923    0.0000 O   0  0  0  0  0  1  0  0  0  0  0  0
    1.1004   -0.6027    0.0000 O   0  0  0  0  0  0  0  0  0  0  0  0
   -1.4176    3.9096    2.5595 C   0  0  0  0  0  0  0  0  0  0  0  0
   -1.6378    3.7673    1.5865 H   0  0  0  0  0  0  0  0  0  0  0  0
   -2.0336    4.6184    2.9220 H   0  0  0  0  0  0  0  0  0  0  0  0
   -1.5469    2.9799    3.1136 H   0  0  0  0  0  0  0  0  0  0  0  0
   -0.0164    4.2554    2.7540 C   0  0  0  0  0  0  0  0  0  0  0  0
    0.3249    4.8441    2.0047 H   0  0  0  0  0  0  0  0  0  0  0  0
    0.1219    4.7561    3.6226 H   0  0  0  0  0  0  0  0  0  0  0  0
    0.7233    2.9556    2.7770 C   0  0  0  0  0  0  0  0  0  0  0  0
    0.9472    2.6439    1.8566 H   0  0  0  0  0  0  0  0  0  0  0  0
    1.5548    3.0144    3.3263 H   0  0  0  0  0  0  0  0  0  0  0  0
   -0.0018    2.2894    3.2443 H   0  0  0  0  0  0  0  0  0  0  0  0
  1  5  1  0
  5  6  1  0
  5  7  2  0
  1  2  1  0
  1  3  1  0
  1  4  1  0
  8 12  1  0
 12 15  1  0
  8  9  1  0
  8 10  1  0
  8 11  1  0
 12 13  1  0
 12 14  1  0
 15 16  1  0
 15 17  1  0
 15 18  1  0
M  CHG  1   6  -1
M  END
>  <PDB_ID>  (296) 
pdb1azo

>  <RESIDUE_NAME>  (296) 
GLU   PRO

>  <FRAG_NAME>  (296) 
ACET   PRPA

>  <FRAG_ATOM_NUM>  (296) 
fragi: 7  fragj: 11

>  <atom.prop.CHAIN_ID>  (296) 
A A A A A A A Z Z Z Z Z Z Z Z Z Z Z

>  <atom.prop.IS_HEAVY_ATOM>  (296) 
1 0 0 0 1 1 1 1 0 0 0 1 0 0 1 0 0 0

>  <DIFUSE_FUNC_ATOM>  (296) 
atom 6   atom 7   

>  <FINAL_SINGLE_POINT_ENERGY>  (296) 
0

>  <NONCOV_INTER_ENERGY_QM>  (296) 
0

>  <FF_Energy>  (296) 
19.05

>  <QM_Energy>  (296) 
2.25

>  <Index>  (296) 
22013

$$$$
ACET-pdb1aui-A-GLU-152:PRPA-pdb1aui-A-VAL-120
     RDKit          3D

 18 16  0  0  0  0  0  0  0  0999 V2000
   -0.0213    1.4998   -0.0288 C   0  0  0  0  0  0  0  0  0  0  0  0
   -0.3649    1.7879   -0.9040 H   0  0  0  0  0  0  0  0  0  0  0  0
    0.8927    1.8257    0.1364 H   0  0  0  0  0  0  0  0  0  0  0  0
   -0.6672    1.9340    0.7344 H   0  0  0  0  0  0  0  0  0  0  0  0
    0.0000    0.0000    0.0000 C   0  0  0  0  0  0  0  0  0  0  0  0
   -1.0643   -0.5941   -0.0000 O   0  0  0  0  0  1  0  0  0  0  0  0
    1.0643   -0.6337   -0.0000 O   0  0  0  0  0  0  0  0  0  0  0  0
    5.5319   -1.3858    0.8192 C   0  0  0  0  0  0  0  0  0  0  0  0
    6.4553   -1.4547    0.3315 H   0  0  0  0  0  0  0  0  0  0  0  0
    4.7610   -1.5868    0.0753 H   0  0  0  0  0  0  0  0  0  0  0  0
    5.6039   -1.9905    1.7233 H   0  0  0  0  0  0  0  0  0  0  0  0
    5.5338    0.0877    1.1872 C   0  0  0  0  0  0  0  0  0  0  0  0
    6.3604    0.2722    1.7066 H   0  0  0  0  0  0  0  0  0  0  0  0
    5.5834    0.6795    0.2731 H   0  0  0  0  0  0  0  0  0  0  0  0
    4.2895    0.4560    2.0243 C   0  0  0  0  0  0  0  0  0  0  0  0
    4.5661    0.5648    2.9748 H   0  0  0  0  0  0  0  0  0  0  0  0
    3.9110    1.3081    1.6754 H   0  0  0  0  0  0  0  0  0  0  0  0
    3.6211   -0.2776    1.9413 H   0  0  0  0  0  0  0  0  0  0  0  0
  1  5  1  0
  5  6  1  0
  5  7  2  0
  1  2  1  0
  1  3  1  0
  1  4  1  0
  8 12  1  0
 12 15  1  0
  8  9  1  0
  8 10  1  0
  8 11  1  0
 12 13  1  0
 12 14  1  0
 15 16  1  0
 15 17  1  0
 15 18  1  0
M  CHG  1   6  -1
M  END
>  <PDB_ID>  (297) 
pdb1aui

>  <RESIDUE_NAME>  (297) 
GLU   VAL

>  <FRAG_NAME>  (297) 
ACET   PRPA

>  <FRAG_ATOM_NUM>  (297) 
fragi: 7  fragj: 11

>  <atom.prop.CHAIN_ID>  (297) 
A A A A A A A Z Z Z Z Z Z Z Z Z Z Z

>  <atom.prop.IS_HEAVY_ATOM>  (297) 
1 0 0 0 1 1 1 1 0 0 0 1 0 0 1 0 0 0

>  <DIFUSE_FUNC_ATOM>  (297) 
atom 6   atom 7   

>  <FINAL_SINGLE_POINT_ENERGY>  (297) 
0

>  <NONCOV_INTER_ENERGY_QM>  (297) 
0

>  <FF_Energy>  (297) 
3.72

>  <QM_Energy>  (297) 
-1.95

>  <Index>  (297) 
22024

$$$$
ACET-pdb1aw5-A-ASP-188:PRPA-pdb1aw5-A-VAL-158
     RDKit          3D

 18 16  0  0  0  0  0  0  0  0999 V2000
   -0.0642    1.5332   -0.0098 C   0  0  0  0  0  0  0  0  0  0  0  0
    0.8176    1.8820   -0.2315 H   0  0  0  0  0  0  0  0  0  0  0  0
   -0.4046    1.8388    0.8493 H   0  0  0  0  0  0  0  0  0  0  0  0
   -0.7619    1.8478   -0.7860 H   0  0  0  0  0  0  0  0  0  0  0  0
    0.0000    0.0000    0.0000 C   0  0  0  0  0  0  0  0  0  0  0  0
   -1.0904   -0.6094    0.0000 O   0  0  0  0  0  1  0  0  0  0  0  0
    1.0904   -0.5908    0.0000 O   0  0  0  0  0  0  0  0  0  0  0  0
    4.4925    2.0518    3.0133 C   0  0  0  0  0  0  0  0  0  0  0  0
    4.8431    2.7547    2.3683 H   0  0  0  0  0  0  0  0  0  0  0  0
    5.2646    1.8554    3.7572 H   0  0  0  0  0  0  0  0  0  0  0  0
    3.5707    2.4335    3.4523 H   0  0  0  0  0  0  0  0  0  0  0  0
    4.2174    0.8190    2.1417 C   0  0  0  0  0  0  0  0  0  0  0  0
    4.0854    0.0430    2.7488 H   0  0  0  0  0  0  0  0  0  0  0  0
    5.0629    0.7144    1.4618 H   0  0  0  0  0  0  0  0  0  0  0  0
    2.9310    1.0131    1.3761 C   0  0  0  0  0  0  0  0  0  0  0  0
    3.1131    1.5110    0.5254 H   0  0  0  0  0  0  0  0  0  0  0  0
    2.5295    0.1224    1.1548 H   0  0  0  0  0  0  0  0  0  0  0  0
    2.2813    1.5373    1.9298 H   0  0  0  0  0  0  0  0  0  0  0  0
  1  5  1  0
  5  6  1  0
  5  7  2  0
  1  2  1  0
  1  3  1  0
  1  4  1  0
  8 12  1  0
 12 15  1  0
  8  9  1  0
  8 10  1  0
  8 11  1  0
 12 13  1  0
 12 14  1  0
 15 16  1  0
 15 17  1  0
 15 18  1  0
M  CHG  1   6  -1
M  END
>  <PDB_ID>  (298) 
pdb1aw5

>  <RESIDUE_NAME>  (298) 
ASP   VAL

>  <FRAG_NAME>  (298) 
ACET   PRPA

>  <FRAG_ATOM_NUM>  (298) 
fragi: 7  fragj: 11

>  <atom.prop.CHAIN_ID>  (298) 
A A A A A A A Z Z Z Z Z Z Z Z Z Z Z

>  <atom.prop.IS_HEAVY_ATOM>  (298) 
1 0 0 0 1 1 1 1 0 0 0 1 0 0 1 0 0 0

>  <DIFUSE_FUNC_ATOM>  (298) 
atom 6   atom 7   

>  <FINAL_SINGLE_POINT_ENERGY>  (298) 
0

>  <NONCOV_INTER_ENERGY_QM>  (298) 
0

>  <FF_Energy>  (298) 
20.92

>  <QM_Energy>  (298) 
0.79

>  <Index>  (298) 
22029

$$$$
ACET-pdb1aw5-A-ASP-188:PRPA-pdb1aw5-A-VAL-158
     RDKit          3D

 18 16  0  0  0  0  0  0  0  0999 V2000
   -0.0642    1.5332   -0.0098 C   0  0  0  0  0  0  0  0  0  0  0  0
    0.8176    1.8820   -0.2315 H   0  0  0  0  0  0  0  0  0  0  0  0
   -0.4046    1.8388    0.8493 H   0  0  0  0  0  0  0  0  0  0  0  0
   -0.7619    1.8478   -0.7860 H   0  0  0  0  0  0  0  0  0  0  0  0
    0.0000    0.0000    0.0000 C   0  0  0  0  0  0  0  0  0  0  0  0
   -1.0904   -0.6094    0.0000 O   0  0  0  0  0  1  0  0  0  0  0  0
    1.0904   -0.5908    0.0000 O   0  0  0  0  0  0  0  0  0  0  0  0
    2.9310    1.0131    1.3761 C   0  0  0  0  0  0  0  0  0  0  0  0
    3.1131    1.5110    0.5254 H   0  0  0  0  0  0  0  0  0  0  0  0
    2.5295    0.1224    1.1548 H   0  0  0  0  0  0  0  0  0  0  0  0
    2.2813    1.5373    1.9298 H   0  0  0  0  0  0  0  0  0  0  0  0
    4.2174    0.8190    2.1417 C   0  0  0  0  0  0  0  0  0  0  0  0
    4.0854    0.0430    2.7488 H   0  0  0  0  0  0  0  0  0  0  0  0
    4.4128    1.6946    2.7608 H   0  0  0  0  0  0  0  0  0  0  0  0
    5.4102    0.6714    1.1825 C   0  0  0  0  0  0  0  0  0  0  0  0
    5.9057   -0.1631    1.4107 H   0  0  0  0  0  0  0  0  0  0  0  0
    5.0672    0.6213    0.2476 H   0  0  0  0  0  0  0  0  0  0  0  0
    6.0069    1.4633    1.2866 H   0  0  0  0  0  0  0  0  0  0  0  0
  1  5  1  0
  5  6  1  0
  5  7  2  0
  1  2  1  0
  1  3  1  0
  1  4  1  0
  8 12  1  0
 12 15  1  0
  8  9  1  0
  8 10  1  0
  8 11  1  0
 12 13  1  0
 12 14  1  0
 15 16  1  0
 15 17  1  0
 15 18  1  0
M  CHG  1   6  -1
M  END
>  <PDB_ID>  (299) 
pdb1aw5

>  <RESIDUE_NAME>  (299) 
ASP   VAL

>  <FRAG_NAME>  (299) 
ACET   PRPA

>  <FRAG_ATOM_NUM>  (299) 
fragi: 7  fragj: 11

>  <atom.prop.CHAIN_ID>  (299) 
A A A A A A A Z Z Z Z Z Z Z Z Z Z Z

>  <atom.prop.IS_HEAVY_ATOM>  (299) 
1 0 0 0 1 1 1 1 0 0 0 1 0 0 1 0 0 0

>  <DIFUSE_FUNC_ATOM>  (299) 
atom 6   atom 7   

>  <FINAL_SINGLE_POINT_ENERGY>  (299) 
0

>  <NONCOV_INTER_ENERGY_QM>  (299) 
0

>  <FF_Energy>  (299) 
13.88

>  <QM_Energy>  (299) 
0.79

>  <Index>  (299) 
22038

$$$$
ACET-pdb1ayo-A-GLU-65:PRPA-pdb1ayo-A-LYS-62
     RDKit          3D

 18 16  0  0  0  0  0  0  0  0999 V2000
    0.0256    1.5136    0.0065 C   0  0  0  0  0  0  0  0  0  0  0  0
    0.4813    1.8073   -0.8157 H   0  0  0  0  0  0  0  0  0  0  0  0
    0.5068    1.7994    0.8163 H   0  0  0  0  0  0  0  0  0  0  0  0
   -0.9699    1.9573    0.0234 H   0  0  0  0  0  0  0  0  0  0  0  0
    0.0000    0.0000    0.0000 C   0  0  0  0  0  0  0  0  0  0  0  0
   -1.0981   -0.5923   -0.0000 O   0  0  0  0  0  1  0  0  0  0  0  0
    1.0981   -0.5967    0.0000 O   0  0  0  0  0  0  0  0  0  0  0  0
    1.4000   -1.3316    4.3305 C   0  0  0  0  0  0  0  0  0  0  0  0
    2.3998   -1.3125    4.3866 H   0  0  0  0  0  0  0  0  0  0  0  0
    1.0524   -2.0833    4.8939 H   0  0  0  0  0  0  0  0  0  0  0  0
    1.0056   -0.3898    4.7118 H   0  0  0  0  0  0  0  0  0  0  0  0
    0.9937   -1.5723    2.8854 C   0  0  0  0  0  0  0  0  0  0  0  0
    0.1313   -2.0675    2.8720 H   0  0  0  0  0  0  0  0  0  0  0  0
    0.8976   -0.6955    2.4272 H   0  0  0  0  0  0  0  0  0  0  0  0
    2.0367   -2.3943    2.1467 C   0  0  0  0  0  0  0  0  0  0  0  0
    2.5357   -1.7907    1.5101 H   0  0  0  0  0  0  0  0  0  0  0  0
    2.6992   -2.7576    2.8158 H   0  0  0  0  0  0  0  0  0  0  0  0
    1.6078   -3.2246    1.5858 H   0  0  0  0  0  0  0  0  0  0  0  0
  1  5  1  0
  5  6  1  0
  5  7  2  0
  1  2  1  0
  1  3  1  0
  1  4  1  0
  8 12  1  0
 12 15  1  0
  8  9  1  0
  8 10  1  0
  8 11  1  0
 12 13  1  0
 12 14  1  0
 15 16  1  0
 15 17  1  0
 15 18  1  0
M  CHG  1   6  -1
M  END
>  <PDB_ID>  (300) 
pdb1ayo

>  <RESIDUE_NAME>  (300) 
GLU   LYS

>  <FRAG_NAME>  (300) 
ACET   PRPA

>  <FRAG_ATOM_NUM>  (300) 
fragi: 7  fragj: 11

>  <atom.prop.CHAIN_ID>  (300) 
A A A A A A A Z Z Z Z Z Z Z Z Z Z Z

>  <atom.prop.IS_HEAVY_ATOM>  (300) 
1 0 0 0 1 1 1 1 0 0 0 1 0 0 1 0 0 0

>  <DIFUSE_FUNC_ATOM>  (300) 
atom 6   atom 7   

>  <FINAL_SINGLE_POINT_ENERGY>  (300) 
0

>  <NONCOV_INTER_ENERGY_QM>  (300) 
0

>  <FF_Energy>  (300) 
2.41

>  <QM_Energy>  (300) 
-3.29

>  <Index>  (300) 
22290

$$$$
ACET-pdb1aw5-A-ASP-180:PRPA-pdb1aw5-A-ARG-185
     RDKit          3D

 18 16  0  0  0  0  0  0  0  0999 V2000
   -0.0130    1.5123    0.0052 C   0  0  0  0  0  0  0  0  0  0  0  0
    0.9160    1.8485   -0.0388 H   0  0  0  0  0  0  0  0  0  0  0  0
   -0.4746    1.8337    0.8172 H   0  0  0  0  0  0  0  0  0  0  0  0
   -0.5464    1.9191   -0.8540 H   0  0  0  0  0  0  0  0  0  0  0  0
    0.0000    0.0000    0.0000 C   0  0  0  0  0  0  0  0  0  0  0  0
   -1.0956   -0.5974   -0.0000 O   0  0  0  0  0  1  0  0  0  0  0  0
    1.0956   -0.6062    0.0000 O   0  0  0  0  0  0  0  0  0  0  0  0
    1.9198   -3.6670    0.9217 C   0  0  0  0  0  0  0  0  0  0  0  0
    1.6683   -3.4245    1.8666 H   0  0  0  0  0  0  0  0  0  0  0  0
    2.5759   -2.9813    0.5834 H   0  0  0  0  0  0  0  0  0  0  0  0
    2.4407   -4.6237    0.9598 H   0  0  0  0  0  0  0  0  0  0  0  0
    0.6971   -3.6196    0.0720 C   0  0  0  0  0  0  0  0  0  0  0  0
    0.2005   -4.4877    0.1334 H   0  0  0  0  0  0  0  0  0  0  0  0
    0.0967   -2.8757    0.3727 H   0  0  0  0  0  0  0  0  0  0  0  0
    1.0314   -3.3800   -1.3865 C   0  0  0  0  0  0  0  0  0  0  0  0
    1.8095   -2.7622   -1.4286 H   0  0  0  0  0  0  0  0  0  0  0  0
    1.2597   -4.2551   -1.7987 H   0  0  0  0  0  0  0  0  0  0  0  0
    0.1863   -2.9379   -1.9141 H   0  0  0  0  0  0  0  0  0  0  0  0
  1  5  1  0
  5  6  1  0
  5  7  2  0
  1  2  1  0
  1  3  1  0
  1  4  1  0
  8 12  1  0
 12 15  1  0
  8  9  1  0
  8 10  1  0
  8 11  1  0
 12 13  1  0
 12 14  1  0
 15 16  1  0
 15 17  1  0
 15 18  1  0
M  CHG  1   6  -1
M  END
>  <PDB_ID>  (301) 
pdb1aw5

>  <RESIDUE_NAME>  (301) 
ASP   ARG

>  <FRAG_NAME>  (301) 
ACET   PRPA

>  <FRAG_ATOM_NUM>  (301) 
fragi: 7  fragj: 11

>  <atom.prop.CHAIN_ID>  (301) 
A A A A A A A Z Z Z Z Z Z Z Z Z Z Z

>  <atom.prop.IS_HEAVY_ATOM>  (301) 
1 0 0 0 1 1 1 1 0 0 0 1 0 0 1 0 0 0

>  <DIFUSE_FUNC_ATOM>  (301) 
atom 6   atom 7   

>  <FINAL_SINGLE_POINT_ENERGY>  (301) 
0

>  <NONCOV_INTER_ENERGY_QM>  (301) 
0

>  <FF_Energy>  (301) 
21.76

>  <QM_Energy>  (301) 
-5.85

>  <Index>  (301) 
22362

$$$$
ACET-pdb2ash-C-ASP-136:PRPA-pdb2ash-C-PRO-85
     RDKit          3D

 18 16  0  0  0  0  0  0  0  0999 V2000
    0.0045    1.5321    0.0300 C   0  0  0  0  0  0  0  0  0  0  0  0
   -0.6461    1.8595   -0.6419 H   0  0  0  0  0  0  0  0  0  0  0  0
    0.9193    1.8463   -0.1823 H   0  0  0  0  0  0  0  0  0  0  0  0
   -0.2782    1.9319    1.0038 H   0  0  0  0  0  0  0  0  0  0  0  0
    0.0000    0.0000    0.0000 C   0  0  0  0  0  0  0  0  0  0  0  0
   -1.1029   -0.6099   -0.0000 O   0  0  0  0  0  1  0  0  0  0  0  0
    1.1029   -0.5748    0.0000 O   0  0  0  0  0  0  0  0  0  0  0  0
   -1.3802   -1.1489   -3.0196 C   0  0  0  0  0  0  0  0  0  0  0  0
   -1.0312   -1.1971   -2.0415 H   0  0  0  0  0  0  0  0  0  0  0  0
   -1.0970   -2.0465   -3.5692 H   0  0  0  0  0  0  0  0  0  0  0  0
   -2.4344   -0.8716   -3.0125 H   0  0  0  0  0  0  0  0  0  0  0  0
   -0.5741   -0.0624   -3.7265 C   0  0  0  0  0  0  0  0  0  0  0  0
   -1.1070    0.3191   -4.4911 H   0  0  0  0  0  0  0  0  0  0  0  0
   -0.3623    0.6829   -3.0841 H   0  0  0  0  0  0  0  0  0  0  0  0
    0.6116   -0.7521   -4.1766 C   0  0  0  0  0  0  0  0  0  0  0  0
    1.0856   -0.2395   -4.9012 H   0  0  0  0  0  0  0  0  0  0  0  0
    1.2582   -0.9069   -3.4217 H   0  0  0  0  0  0  0  0  0  0  0  0
    0.2235   -1.6967   -4.5577 H   0  0  0  0  0  0  0  0  0  0  0  0
  1  5  1  0
  5  6  1  0
  5  7  2  0
  1  2  1  0
  1  3  1  0
  1  4  1  0
  8 12  1  0
 12 15  1  0
  8  9  1  0
  8 10  1  0
  8 11  1  0
 12 13  1  0
 12 14  1  0
 15 16  1  0
 15 17  1  0
 15 18  1  0
M  CHG  1   6  -1
M  END
>  <PDB_ID>  (302) 
pdb2ash

>  <RESIDUE_NAME>  (302) 
ASP   PRO

>  <FRAG_NAME>  (302) 
ACET   PRPA

>  <FRAG_ATOM_NUM>  (302) 
fragi: 7  fragj: 11

>  <atom.prop.CHAIN_ID>  (302) 
A A A A A A A Z Z Z Z Z Z Z Z Z Z Z

>  <atom.prop.IS_HEAVY_ATOM>  (302) 
1 0 0 0 1 1 1 1 0 0 0 1 0 0 1 0 0 0

>  <DIFUSE_FUNC_ATOM>  (302) 
atom 6   atom 7   

>  <FINAL_SINGLE_POINT_ENERGY>  (302) 
0

>  <NONCOV_INTER_ENERGY_QM>  (302) 
0

>  <FF_Energy>  (302) 
4.94

>  <QM_Energy>  (302) 
-4.23

>  <Index>  (302) 
22526

$$$$
ACET-pdb2b67-A-ASP-83:PRPA-pdb2b67-A-LYS-86
     RDKit          3D

 18 16  0  0  0  0  0  0  0  0999 V2000
   -0.0044    1.5671   -0.0355 C   0  0  0  0  0  0  0  0  0  0  0  0
    0.7724    1.8568   -0.5679 H   0  0  0  0  0  0  0  0  0  0  0  0
    0.0452    1.8891    0.8934 H   0  0  0  0  0  0  0  0  0  0  0  0
   -0.9085    1.9678   -0.4940 H   0  0  0  0  0  0  0  0  0  0  0  0
    0.0000    0.0000    0.0000 C   0  0  0  0  0  0  0  0  0  0  0  0
   -1.0979   -0.6084   -0.0000 O   0  0  0  0  0  1  0  0  0  0  0  0
    1.0979   -0.6210    0.0000 O   0  0  0  0  0  0  0  0  0  0  0  0
   -0.2159    0.1051    3.5446 C   0  0  0  0  0  0  0  0  0  0  0  0
   -0.3088    0.6570    2.7283 H   0  0  0  0  0  0  0  0  0  0  0  0
    0.2564    0.6026    4.2586 H   0  0  0  0  0  0  0  0  0  0  0  0
   -1.2042   -0.1871    3.8996 H   0  0  0  0  0  0  0  0  0  0  0  0
    0.6640   -1.1207    3.1749 C   0  0  0  0  0  0  0  0  0  0  0  0
    0.5904   -1.7866    3.9050 H   0  0  0  0  0  0  0  0  0  0  0  0
    0.3351   -1.4925    2.3188 H   0  0  0  0  0  0  0  0  0  0  0  0
    2.1065   -0.6868    3.0236 C   0  0  0  0  0  0  0  0  0  0  0  0
    2.1401    0.1761    2.5319 H   0  0  0  0  0  0  0  0  0  0  0  0
    2.5183   -0.5934    3.9225 H   0  0  0  0  0  0  0  0  0  0  0  0
    2.6830   -1.4212    2.4610 H   0  0  0  0  0  0  0  0  0  0  0  0
  1  5  1  0
  5  6  1  0
  5  7  2  0
  1  2  1  0
  1  3  1  0
  1  4  1  0
  8 12  1  0
 12 15  1  0
  8  9  1  0
  8 10  1  0
  8 11  1  0
 12 13  1  0
 12 14  1  0
 15 16  1  0
 15 17  1  0
 15 18  1  0
M  CHG  1   6  -1
M  END
>  <PDB_ID>  (303) 
pdb2b67

>  <RESIDUE_NAME>  (303) 
ASP   LYS

>  <FRAG_NAME>  (303) 
ACET   PRPA

>  <FRAG_ATOM_NUM>  (303) 
fragi: 7  fragj: 11

>  <atom.prop.CHAIN_ID>  (303) 
A A A A A A A Z Z Z Z Z Z Z Z Z Z Z

>  <atom.prop.IS_HEAVY_ATOM>  (303) 
1 0 0 0 1 1 1 1 0 0 0 1 0 0 1 0 0 0

>  <DIFUSE_FUNC_ATOM>  (303) 
atom 6   atom 7   

>  <FINAL_SINGLE_POINT_ENERGY>  (303) 
0

>  <NONCOV_INTER_ENERGY_QM>  (303) 
0

>  <FF_Energy>  (303) 
0.32

>  <QM_Energy>  (303) 
-5.09

>  <Index>  (303) 
22559

$$$$
ACET-pdb2b67-A-ASP-83:PRPA-pdb2b67-A-LYS-86
     RDKit          3D

 18 16  0  0  0  0  0  0  0  0999 V2000
   -0.0044    1.5671   -0.0355 C   0  0  0  0  0  0  0  0  0  0  0  0
    0.7724    1.8568   -0.5679 H   0  0  0  0  0  0  0  0  0  0  0  0
    0.0452    1.8891    0.8934 H   0  0  0  0  0  0  0  0  0  0  0  0
   -0.9085    1.9678   -0.4940 H   0  0  0  0  0  0  0  0  0  0  0  0
    0.0000    0.0000    0.0000 C   0  0  0  0  0  0  0  0  0  0  0  0
   -1.0979   -0.6084   -0.0000 O   0  0  0  0  0  1  0  0  0  0  0  0
    1.0979   -0.6210    0.0000 O   0  0  0  0  0  0  0  0  0  0  0  0
    0.6640   -1.1207    3.1749 C   0  0  0  0  0  0  0  0  0  0  0  0
    0.5904   -1.7866    3.9050 H   0  0  0  0  0  0  0  0  0  0  0  0
    0.3351   -1.4925    2.3188 H   0  0  0  0  0  0  0  0  0  0  0  0
    0.0467   -0.2606    3.4343 H   0  0  0  0  0  0  0  0  0  0  0  0
    2.1065   -0.6868    3.0236 C   0  0  0  0  0  0  0  0  0  0  0  0
    2.1401    0.1761    2.5319 H   0  0  0  0  0  0  0  0  0  0  0  0
    2.5183   -0.5934    3.9225 H   0  0  0  0  0  0  0  0  0  0  0  0
    2.9176   -1.7199    2.2322 C   0  0  0  0  0  0  0  0  0  0  0  0
    2.3192   -2.1447    1.5617 H   0  0  0  0  0  0  0  0  0  0  0  0
    3.6694   -1.2531    1.7794 H   0  0  0  0  0  0  0  0  0  0  0  0
    3.3073   -2.4763    2.9134 H   0  0  0  0  0  0  0  0  0  0  0  0
  1  5  1  0
  5  6  1  0
  5  7  2  0
  1  2  1  0
  1  3  1  0
  1  4  1  0
  8 12  1  0
 12 15  1  0
  8  9  1  0
  8 10  1  0
  8 11  1  0
 12 13  1  0
 12 14  1  0
 15 16  1  0
 15 17  1  0
 15 18  1  0
M  CHG  1   6  -1
M  END
>  <PDB_ID>  (304) 
pdb2b67

>  <RESIDUE_NAME>  (304) 
ASP   LYS

>  <FRAG_NAME>  (304) 
ACET   PRPA

>  <FRAG_ATOM_NUM>  (304) 
fragi: 7  fragj: 11

>  <atom.prop.CHAIN_ID>  (304) 
A A A A A A A Z Z Z Z Z Z Z Z Z Z Z

>  <atom.prop.IS_HEAVY_ATOM>  (304) 
1 0 0 0 1 1 1 1 0 0 0 1 0 0 1 0 0 0

>  <DIFUSE_FUNC_ATOM>  (304) 
atom 6   atom 7   

>  <FINAL_SINGLE_POINT_ENERGY>  (304) 
0

>  <NONCOV_INTER_ENERGY_QM>  (304) 
0

>  <FF_Energy>  (304) 
0.73

>  <QM_Energy>  (304) 
-5.67

>  <Index>  (304) 
22563

$$$$
ACET-pdb1aqd-A-ASP-35:PRPA-pdb1aqd-A-LYS-38
     RDKit          3D

 18 16  0  0  0  0  0  0  0  0999 V2000
    0.0256    1.5380    0.0125 C   0  0  0  0  0  0  0  0  0  0  0  0
    0.8392    1.8392   -0.4696 H   0  0  0  0  0  0  0  0  0  0  0  0
    0.0470    1.8406    0.9569 H   0  0  0  0  0  0  0  0  0  0  0  0
   -0.8432    1.9846   -0.4712 H   0  0  0  0  0  0  0  0  0  0  0  0
    0.0000    0.0000    0.0000 C   0  0  0  0  0  0  0  0  0  0  0  0
   -1.0930   -0.6148   -0.0000 O   0  0  0  0  0  1  0  0  0  0  0  0
    1.0930   -0.6138    0.0000 O   0  0  0  0  0  0  0  0  0  0  0  0
   -0.8996   -0.6040    4.0056 C   0  0  0  0  0  0  0  0  0  0  0  0
   -0.9516   -1.2825    4.7584 H   0  0  0  0  0  0  0  0  0  0  0  0
   -1.5713   -0.9245    3.2092 H   0  0  0  0  0  0  0  0  0  0  0  0
   -1.1707    0.3818    4.3833 H   0  0  0  0  0  0  0  0  0  0  0  0
    0.5119   -0.4511    3.5079 C   0  0  0  0  0  0  0  0  0  0  0  0
    0.5095    0.2411    2.7719 H   0  0  0  0  0  0  0  0  0  0  0  0
    1.0724   -0.0896    4.2678 H   0  0  0  0  0  0  0  0  0  0  0  0
    1.1386   -1.6880    2.9976 C   0  0  0  0  0  0  0  0  0  0  0  0
    0.9360   -2.4466    3.5910 H   0  0  0  0  0  0  0  0  0  0  0  0
    0.8607   -1.8578    2.0694 H   0  0  0  0  0  0  0  0  0  0  0  0
    2.2137   -1.5091    3.0136 H   0  0  0  0  0  0  0  0  0  0  0  0
  1  5  1  0
  5  6  1  0
  5  7  2  0
  1  2  1  0
  1  3  1  0
  1  4  1  0
  8 12  1  0
 12 15  1  0
  8  9  1  0
  8 10  1  0
  8 11  1  0
 12 13  1  0
 12 14  1  0
 15 16  1  0
 15 17  1  0
 15 18  1  0
M  CHG  1   6  -1
M  END
>  <PDB_ID>  (305) 
pdb1aqd

>  <RESIDUE_NAME>  (305) 
ASP   LYS

>  <FRAG_NAME>  (305) 
ACET   PRPA

>  <FRAG_ATOM_NUM>  (305) 
fragi: 7  fragj: 11

>  <atom.prop.CHAIN_ID>  (305) 
A A A A A A A Z Z Z Z Z Z Z Z Z Z Z

>  <atom.prop.IS_HEAVY_ATOM>  (305) 
1 0 0 0 1 1 1 1 0 0 0 1 0 0 1 0 0 0

>  <DIFUSE_FUNC_ATOM>  (305) 
atom 6   atom 7   

>  <FINAL_SINGLE_POINT_ENERGY>  (305) 
0

>  <NONCOV_INTER_ENERGY_QM>  (305) 
0

>  <FF_Energy>  (305) 
-0.05

>  <QM_Energy>  (305) 
-5.26

>  <Index>  (305) 
22579

$$$$
ACET-pdb2b1x-A-ASP-60:PRPA-pdb2b1x-A-PRO-56
     RDKit          3D

 18 16  0  0  0  0  0  0  0  0999 V2000
   -0.0131    1.5398   -0.0209 C   0  0  0  0  0  0  0  0  0  0  0  0
    0.5608    1.8415   -0.7775 H   0  0  0  0  0  0  0  0  0  0  0  0
    0.3646    1.8619    0.8429 H   0  0  0  0  0  0  0  0  0  0  0  0
   -1.0062    1.9712   -0.1467 H   0  0  0  0  0  0  0  0  0  0  0  0
    0.0000    0.0000    0.0000 C   0  0  0  0  0  0  0  0  0  0  0  0
   -1.0628   -0.6644   -0.0000 O   0  0  0  0  0  1  0  0  0  0  0  0
    1.0628   -0.6533   -0.0000 O   0  0  0  0  0  0  0  0  0  0  0  0
    5.3344   -1.4011   -0.6562 C   0  0  0  0  0  0  0  0  0  0  0  0
    5.3296   -2.1572   -1.3258 H   0  0  0  0  0  0  0  0  0  0  0  0
    6.2842   -1.2719   -0.3407 H   0  0  0  0  0  0  0  0  0  0  0  0
    4.9602   -0.4861   -1.1155 H   0  0  0  0  0  0  0  0  0  0  0  0
    4.4251   -1.6875    0.4813 C   0  0  0  0  0  0  0  0  0  0  0  0
    3.6667   -2.2883    0.2033 H   0  0  0  0  0  0  0  0  0  0  0  0
    4.9166   -2.1269    1.2417 H   0  0  0  0  0  0  0  0  0  0  0  0
    3.8576   -0.3248    0.9520 C   0  0  0  0  0  0  0  0  0  0  0  0
    2.8845   -0.4012    1.1418 H   0  0  0  0  0  0  0  0  0  0  0  0
    4.3429   -0.0084    1.7626 H   0  0  0  0  0  0  0  0  0  0  0  0
    4.0401    0.3342    0.1031 H   0  0  0  0  0  0  0  0  0  0  0  0
  1  5  1  0
  5  6  1  0
  5  7  2  0
  1  2  1  0
  1  3  1  0
  1  4  1  0
  8 12  1  0
 12 15  1  0
  8  9  1  0
  8 10  1  0
  8 11  1  0
 12 13  1  0
 12 14  1  0
 15 16  1  0
 15 17  1  0
 15 18  1  0
M  CHG  1   6  -1
M  END
>  <PDB_ID>  (306) 
pdb2b1x

>  <RESIDUE_NAME>  (306) 
ASP   PRO

>  <FRAG_NAME>  (306) 
ACET   PRPA

>  <FRAG_ATOM_NUM>  (306) 
fragi: 7  fragj: 11

>  <atom.prop.CHAIN_ID>  (306) 
A A A A A A A Z Z Z Z Z Z Z Z Z Z Z

>  <atom.prop.IS_HEAVY_ATOM>  (306) 
1 0 0 0 1 1 1 1 0 0 0 1 0 0 1 0 0 0

>  <DIFUSE_FUNC_ATOM>  (306) 
atom 6   atom 7   

>  <FINAL_SINGLE_POINT_ENERGY>  (306) 
0

>  <NONCOV_INTER_ENERGY_QM>  (306) 
0

>  <FF_Energy>  (306) 
1.89

>  <QM_Energy>  (306) 
-2.45

>  <Index>  (306) 
22637

$$$$
ACET-pdb1axi-A-GLU-30:PRPA-pdb1axi-A-LEU-101
     RDKit          3D

 18 16  0  0  0  0  0  0  0  0999 V2000
   -0.0047    1.5175   -0.0161 C   0  0  0  0  0  0  0  0  0  0  0  0
   -0.4669    1.7983   -0.8579 H   0  0  0  0  0  0  0  0  0  0  0  0
    0.9519    1.8108   -0.0503 H   0  0  0  0  0  0  0  0  0  0  0  0
   -0.4889    2.0134    0.8251 H   0  0  0  0  0  0  0  0  0  0  0  0
    0.0000    0.0000    0.0000 C   0  0  0  0  0  0  0  0  0  0  0  0
   -1.0837   -0.6532    0.0000 O   0  0  0  0  0  1  0  0  0  0  0  0
    1.0837   -0.6186    0.0000 O   0  0  0  0  0  0  0  0  0  0  0  0
    2.1669   -3.6771   -0.1896 C   0  0  0  0  0  0  0  0  0  0  0  0
    2.3969   -4.5306   -0.6638 H   0  0  0  0  0  0  0  0  0  0  0  0
    1.2739   -3.2483   -0.6444 H   0  0  0  0  0  0  0  0  0  0  0  0
    1.9750   -3.9110    0.8575 H   0  0  0  0  0  0  0  0  0  0  0  0
    3.3684   -2.7357   -0.1984 C   0  0  0  0  0  0  0  0  0  0  0  0
    3.1931   -2.0126    0.4800 H   0  0  0  0  0  0  0  0  0  0  0  0
    4.1716   -3.2637    0.0970 H   0  0  0  0  0  0  0  0  0  0  0  0
    3.7345   -2.0486   -1.5059 C   0  0  0  0  0  0  0  0  0  0  0  0
    2.9573   -1.5117   -1.8236 H   0  0  0  0  0  0  0  0  0  0  0  0
    4.5877   -1.3896   -1.3447 H   0  0  0  0  0  0  0  0  0  0  0  0
    3.9482   -2.7908   -2.2750 H   0  0  0  0  0  0  0  0  0  0  0  0
  1  5  1  0
  5  6  1  0
  5  7  2  0
  1  2  1  0
  1  3  1  0
  1  4  1  0
  8 12  1  0
 12 15  1  0
  8  9  1  0
  8 10  1  0
  8 11  1  0
 12 13  1  0
 12 14  1  0
 15 16  1  0
 15 17  1  0
 15 18  1  0
M  CHG  1   6  -1
M  END
>  <PDB_ID>  (307) 
pdb1axi

>  <RESIDUE_NAME>  (307) 
GLU   LEU

>  <FRAG_NAME>  (307) 
ACET   PRPA

>  <FRAG_ATOM_NUM>  (307) 
fragi: 7  fragj: 11

>  <atom.prop.CHAIN_ID>  (307) 
A A A A A A A Z Z Z Z Z Z Z Z Z Z Z

>  <atom.prop.IS_HEAVY_ATOM>  (307) 
1 0 0 0 1 1 1 1 0 0 0 1 0 0 1 0 0 0

>  <DIFUSE_FUNC_ATOM>  (307) 
atom 6   atom 7   

>  <FINAL_SINGLE_POINT_ENERGY>  (307) 
0

>  <NONCOV_INTER_ENERGY_QM>  (307) 
0

>  <FF_Energy>  (307) 
0.24

>  <QM_Energy>  (307) 
-4.83

>  <Index>  (307) 
22661

$$$$
ACET-pdb1azi-A-GLU-85:PRPA-pdb1azi-A-LYS-78
     RDKit          3D

 18 16  0  0  0  0  0  0  0  0999 V2000
   -0.2599    1.4650    0.0436 C   0  0  0  0  0  0  0  0  0  0  0  0
   -0.7357    1.7257   -0.7833 H   0  0  0  0  0  0  0  0  0  0  0  0
    0.6056    1.9362    0.1221 H   0  0  0  0  0  0  0  0  0  0  0  0
   -0.8776    1.7817    0.8840 H   0  0  0  0  0  0  0  0  0  0  0  0
    0.0000    0.0000    0.0000 C   0  0  0  0  0  0  0  0  0  0  0  0
   -1.0847   -0.6526   -0.0000 O   0  0  0  0  0  1  0  0  0  0  0  0
    1.0847   -0.5627    0.0000 O   0  0  0  0  0  0  0  0  0  0  0  0
   -2.7752   -3.7051   -2.0789 C   0  0  0  0  0  0  0  0  0  0  0  0
   -3.5543   -3.7232   -1.4211 H   0  0  0  0  0  0  0  0  0  0  0  0
   -2.0582   -4.3193   -1.6915 H   0  0  0  0  0  0  0  0  0  0  0  0
   -3.1262   -4.1694   -3.0005 H   0  0  0  0  0  0  0  0  0  0  0  0
   -2.2456   -2.3357   -2.1613 C   0  0  0  0  0  0  0  0  0  0  0  0
   -2.8061   -1.7739   -2.7895 H   0  0  0  0  0  0  0  0  0  0  0  0
   -2.2654   -1.8903   -1.2533 H   0  0  0  0  0  0  0  0  0  0  0  0
   -0.7828   -2.2645   -2.6715 C   0  0  0  0  0  0  0  0  0  0  0  0
   -0.1803   -2.3886   -1.9064 H   0  0  0  0  0  0  0  0  0  0  0  0
   -0.6607   -2.9497   -3.3628 H   0  0  0  0  0  0  0  0  0  0  0  0
   -0.6010   -1.2832   -3.1098 H   0  0  0  0  0  0  0  0  0  0  0  0
  1  5  1  0
  5  6  1  0
  5  7  2  0
  1  2  1  0
  1  3  1  0
  1  4  1  0
  8 12  1  0
 12 15  1  0
  8  9  1  0
  8 10  1  0
  8 11  1  0
 12 13  1  0
 12 14  1  0
 15 16  1  0
 15 17  1  0
 15 18  1  0
M  CHG  1   6  -1
M  END
>  <PDB_ID>  (308) 
pdb1azi

>  <RESIDUE_NAME>  (308) 
GLU   LYS

>  <FRAG_NAME>  (308) 
ACET   PRPA

>  <FRAG_ATOM_NUM>  (308) 
fragi: 7  fragj: 11

>  <atom.prop.CHAIN_ID>  (308) 
A A A A A A A Z Z Z Z Z Z Z Z Z Z Z

>  <atom.prop.IS_HEAVY_ATOM>  (308) 
1 0 0 0 1 1 1 1 0 0 0 1 0 0 1 0 0 0

>  <DIFUSE_FUNC_ATOM>  (308) 
atom 6   atom 7   

>  <FINAL_SINGLE_POINT_ENERGY>  (308) 
0

>  <NONCOV_INTER_ENERGY_QM>  (308) 
0

>  <FF_Energy>  (308) 
4.66

>  <QM_Energy>  (308) 
-4.63

>  <Index>  (308) 
22715

$$$$
ACET-pdb2aw5-B-ASP-491:PRPA-pdb2aw5-A-LYS-412
     RDKit          3D

 18 16  0  0  0  0  0  0  0  0999 V2000
   -0.0315    1.5033   -0.0058 C   0  0  0  0  0  0  0  0  0  0  0  0
    0.1513    1.8366    0.9152 H   0  0  0  0  0  0  0  0  0  0  0  0
   -0.9281    1.8091   -0.3086 H   0  0  0  0  0  0  0  0  0  0  0  0
    0.7121    1.9415   -0.6714 H   0  0  0  0  0  0  0  0  0  0  0  0
    0.0000    0.0000    0.0000 C   0  0  0  0  0  0  0  0  0  0  0  0
   -1.0889   -0.5967   -0.0000 O   0  0  0  0  0  1  0  0  0  0  0  0
    1.0889   -0.5974   -0.0000 O   0  0  0  0  0  0  0  0  0  0  0  0
   -6.4566   -0.8651   -1.1653 C   0  0  0  0  0  0  0  0  0  0  0  0
   -6.2011   -0.3691   -1.9976 H   0  0  0  0  0  0  0  0  0  0  0  0
   -7.0259   -0.2748   -0.5912 H   0  0  0  0  0  0  0  0  0  0  0  0
   -7.0455   -1.7362   -1.4527 H   0  0  0  0  0  0  0  0  0  0  0  0
   -5.1831   -1.2319   -0.3945 C   0  0  0  0  0  0  0  0  0  0  0  0
   -5.4012   -1.2746    0.5790 H   0  0  0  0  0  0  0  0  0  0  0  0
   -4.8660   -2.1259   -0.7076 H   0  0  0  0  0  0  0  0  0  0  0  0
   -4.0528   -0.2210   -0.5932 C   0  0  0  0  0  0  0  0  0  0  0  0
   -3.2108   -0.6003   -0.1907 H   0  0  0  0  0  0  0  0  0  0  0  0
   -3.9027   -0.1004   -1.5823 H   0  0  0  0  0  0  0  0  0  0  0  0
   -4.2688    0.7458   -0.1386 H   0  0  0  0  0  0  0  0  0  0  0  0
  1  5  1  0
  5  6  1  0
  5  7  2  0
  1  2  1  0
  1  3  1  0
  1  4  1  0
  8 12  1  0
 12 15  1  0
  8  9  1  0
  8 10  1  0
  8 11  1  0
 12 13  1  0
 12 14  1  0
 15 16  1  0
 15 17  1  0
 15 18  1  0
M  CHG  1   6  -1
M  END
>  <PDB_ID>  (309) 
pdb2aw5

>  <RESIDUE_NAME>  (309) 
ASP   LYS

>  <FRAG_NAME>  (309) 
ACET   PRPA

>  <FRAG_ATOM_NUM>  (309) 
fragi: 7  fragj: 11

>  <atom.prop.CHAIN_ID>  (309) 
A A A A A A A Z Z Z Z Z Z Z Z Z Z Z

>  <atom.prop.IS_HEAVY_ATOM>  (309) 
1 0 0 0 1 1 1 1 0 0 0 1 0 0 1 0 0 0

>  <DIFUSE_FUNC_ATOM>  (309) 
atom 6   atom 7   

>  <FINAL_SINGLE_POINT_ENERGY>  (309) 
0

>  <NONCOV_INTER_ENERGY_QM>  (309) 
0

>  <FF_Energy>  (309) 
3.77

>  <QM_Energy>  (309) 
-2.26

>  <Index>  (309) 
22766

$$$$
ACET-pdb1aq8-A-ASP-164:PRPA-pdb1aq8-A-LYS-168
     RDKit          3D

 18 16  0  0  0  0  0  0  0  0999 V2000
   -0.0352    1.5290    0.0089 C   0  0  0  0  0  0  0  0  0  0  0  0
   -0.5645    1.8289    0.7958 H   0  0  0  0  0  0  0  0  0  0  0  0
   -0.4606    1.8413   -0.8334 H   0  0  0  0  0  0  0  0  0  0  0  0
    0.9517    1.9869    0.0755 H   0  0  0  0  0  0  0  0  0  0  0  0
    0.0000    0.0000    0.0000 C   0  0  0  0  0  0  0  0  0  0  0  0
   -1.0911   -0.6075    0.0000 O   0  0  0  0  0  1  0  0  0  0  0  0
    1.0911   -0.6038   -0.0000 O   0  0  0  0  0  0  0  0  0  0  0  0
    0.4704   -2.7159   -2.3109 C   0  0  0  0  0  0  0  0  0  0  0  0
    0.1139   -1.9273   -1.8257 H   0  0  0  0  0  0  0  0  0  0  0  0
   -0.0631   -2.8951   -3.1282 H   0  0  0  0  0  0  0  0  0  0  0  0
    1.4956   -2.4996   -2.6114 H   0  0  0  0  0  0  0  0  0  0  0  0
    0.3688   -3.9291   -1.3946 C   0  0  0  0  0  0  0  0  0  0  0  0
    0.6173   -4.7509   -1.9168 H   0  0  0  0  0  0  0  0  0  0  0  0
    1.0209   -3.8204   -0.6380 H   0  0  0  0  0  0  0  0  0  0  0  0
   -1.0230   -4.1123   -0.8225 C   0  0  0  0  0  0  0  0  0  0  0  0
   -1.2837   -3.2901   -0.3341 H   0  0  0  0  0  0  0  0  0  0  0  0
   -1.6561   -4.3023   -1.5612 H   0  0  0  0  0  0  0  0  0  0  0  0
   -1.0426   -4.9503   -0.1257 H   0  0  0  0  0  0  0  0  0  0  0  0
  1  5  1  0
  5  6  1  0
  5  7  2  0
  1  2  1  0
  1  3  1  0
  1  4  1  0
  8 12  1  0
 12 15  1  0
  8  9  1  0
  8 10  1  0
  8 11  1  0
 12 13  1  0
 12 14  1  0
 15 16  1  0
 15 17  1  0
 15 18  1  0
M  CHG  1   6  -1
M  END
>  <PDB_ID>  (310) 
pdb1aq8

>  <RESIDUE_NAME>  (310) 
ASP   LYS

>  <FRAG_NAME>  (310) 
ACET   PRPA

>  <FRAG_ATOM_NUM>  (310) 
fragi: 7  fragj: 11

>  <atom.prop.CHAIN_ID>  (310) 
A A A A A A A Z Z Z Z Z Z Z Z Z Z Z

>  <atom.prop.IS_HEAVY_ATOM>  (310) 
1 0 0 0 1 1 1 1 0 0 0 1 0 0 1 0 0 0

>  <DIFUSE_FUNC_ATOM>  (310) 
atom 6   atom 7   

>  <FINAL_SINGLE_POINT_ENERGY>  (310) 
0

>  <NONCOV_INTER_ENERGY_QM>  (310) 
0

>  <FF_Energy>  (310) 
0.88

>  <QM_Energy>  (310) 
-5.62

>  <Index>  (310) 
22857

$$$$
ACET-pdb1az0-A-ASP-13:PRPA-pdb1az0-A-LYS-17
     RDKit          3D

 18 16  0  0  0  0  0  0  0  0999 V2000
    0.0218    1.5102   -0.0292 C   0  0  0  0  0  0  0  0  0  0  0  0
   -0.2383    1.8205   -0.9592 H   0  0  0  0  0  0  0  0  0  0  0  0
    0.9714    1.8243    0.1371 H   0  0  0  0  0  0  0  0  0  0  0  0
   -0.6199    2.0386    0.6759 H   0  0  0  0  0  0  0  0  0  0  0  0
    0.0000    0.0000    0.0000 C   0  0  0  0  0  0  0  0  0  0  0  0
   -1.0915   -0.5647    0.0000 O   0  0  0  0  0  1  0  0  0  0  0  0
    1.0915   -0.5897   -0.0000 O   0  0  0  0  0  0  0  0  0  0  0  0
   -2.9857   -1.9776    3.2135 C   0  0  0  0  0  0  0  0  0  0  0  0
   -3.9277   -2.3198    3.1430 H   0  0  0  0  0  0  0  0  0  0  0  0
   -2.9513   -1.0452    2.8430 H   0  0  0  0  0  0  0  0  0  0  0  0
   -2.6987   -1.9510    4.2647 H   0  0  0  0  0  0  0  0  0  0  0  0
   -2.0769   -2.8668    2.3984 C   0  0  0  0  0  0  0  0  0  0  0  0
   -1.1366   -2.5232    2.4708 H   0  0  0  0  0  0  0  0  0  0  0  0
   -2.1130   -3.7979    2.7698 H   0  0  0  0  0  0  0  0  0  0  0  0
   -2.4568   -2.9181    0.9369 C   0  0  0  0  0  0  0  0  0  0  0  0
   -3.3927   -3.2668    0.8527 H   0  0  0  0  0  0  0  0  0  0  0  0
   -2.4158   -1.9930    0.5538 H   0  0  0  0  0  0  0  0  0  0  0  0
   -1.7805   -3.5670    0.3804 H   0  0  0  0  0  0  0  0  0  0  0  0
  1  5  1  0
  5  6  1  0
  5  7  2  0
  1  2  1  0
  1  3  1  0
  1  4  1  0
  8 12  1  0
 12 15  1  0
  8  9  1  0
  8 10  1  0
  8 11  1  0
 12 13  1  0
 12 14  1  0
 15 16  1  0
 15 17  1  0
 15 18  1  0
M  CHG  1   6  -1
M  END
>  <PDB_ID>  (311) 
pdb1az0

>  <RESIDUE_NAME>  (311) 
ASP   LYS

>  <FRAG_NAME>  (311) 
ACET   PRPA

>  <FRAG_ATOM_NUM>  (311) 
fragi: 7  fragj: 11

>  <atom.prop.CHAIN_ID>  (311) 
A A A A A A A Z Z Z Z Z Z Z Z Z Z Z

>  <atom.prop.IS_HEAVY_ATOM>  (311) 
1 0 0 0 1 1 1 1 0 0 0 1 0 0 1 0 0 0

>  <DIFUSE_FUNC_ATOM>  (311) 
atom 6   atom 7   

>  <FINAL_SINGLE_POINT_ENERGY>  (311) 
0

>  <NONCOV_INTER_ENERGY_QM>  (311) 
0

>  <FF_Energy>  (311) 
9.38

>  <QM_Energy>  (311) 
-2.46

>  <Index>  (311) 
22923

$$$$
ACET-pdb2b3z-A-GLU-72:PRPA-pdb2b3z-A-ILE-111
     RDKit          3D

 18 16  0  0  0  0  0  0  0  0999 V2000
   -0.0031    1.5306    0.0124 C   0  0  0  0  0  0  0  0  0  0  0  0
   -0.3039    1.8172    0.9016 H   0  0  0  0  0  0  0  0  0  0  0  0
   -0.6064    1.8288   -0.7020 H   0  0  0  0  0  0  0  0  0  0  0  0
    0.9811    1.9624   -0.1692 H   0  0  0  0  0  0  0  0  0  0  0  0
    0.0000    0.0000    0.0000 C   0  0  0  0  0  0  0  0  0  0  0  0
   -1.1028   -0.6031    0.0000 O   0  0  0  0  0  1  0  0  0  0  0  0
    1.1028   -0.6000   -0.0000 O   0  0  0  0  0  0  0  0  0  0  0  0
   -3.2079   -0.8894   -3.2175 C   0  0  0  0  0  0  0  0  0  0  0  0
   -3.1723   -1.8245   -2.8813 H   0  0  0  0  0  0  0  0  0  0  0  0
   -3.8743   -0.3217   -2.5681 H   0  0  0  0  0  0  0  0  0  0  0  0
   -3.5914   -0.8698   -4.2376 H   0  0  0  0  0  0  0  0  0  0  0  0
   -1.7974   -0.3122   -3.1635 C   0  0  0  0  0  0  0  0  0  0  0  0
   -1.4396   -0.4279   -2.2380 H   0  0  0  0  0  0  0  0  0  0  0  0
   -1.2187   -0.8302   -3.7937 H   0  0  0  0  0  0  0  0  0  0  0  0
   -1.7144    1.1614   -3.5371 C   0  0  0  0  0  0  0  0  0  0  0  0
   -2.2763    1.6909   -2.9052 H   0  0  0  0  0  0  0  0  0  0  0  0
   -0.7648    1.4602   -3.4771 H   0  0  0  0  0  0  0  0  0  0  0  0
   -2.0490    1.2816   -4.4696 H   0  0  0  0  0  0  0  0  0  0  0  0
  1  5  1  0
  5  6  1  0
  5  7  2  0
  1  2  1  0
  1  3  1  0
  1  4  1  0
  8 12  1  0
 12 15  1  0
  8  9  1  0
  8 10  1  0
  8 11  1  0
 12 13  1  0
 12 14  1  0
 15 16  1  0
 15 17  1  0
 15 18  1  0
M  CHG  1   6  -1
M  END
>  <PDB_ID>  (312) 
pdb2b3z

>  <RESIDUE_NAME>  (312) 
GLU   ILE

>  <FRAG_NAME>  (312) 
ACET   PRPA

>  <FRAG_ATOM_NUM>  (312) 
fragi: 7  fragj: 11

>  <atom.prop.CHAIN_ID>  (312) 
A A A A A A A Z Z Z Z Z Z Z Z Z Z Z

>  <atom.prop.IS_HEAVY_ATOM>  (312) 
1 0 0 0 1 1 1 1 0 0 0 1 0 0 1 0 0 0

>  <DIFUSE_FUNC_ATOM>  (312) 
atom 6   atom 7   

>  <FINAL_SINGLE_POINT_ENERGY>  (312) 
0

>  <NONCOV_INTER_ENERGY_QM>  (312) 
0

>  <FF_Energy>  (312) 
1.11

>  <QM_Energy>  (312) 
-4.14

>  <Index>  (312) 
22960

$$$$
ACET-pdb1azi-A-GLU-105:PRPA-pdb1azi-A-LYS-102
     RDKit          3D

 18 16  0  0  0  0  0  0  0  0999 V2000
   -0.1692    1.4787    0.0095 C   0  0  0  0  0  0  0  0  0  0  0  0
    0.5523    1.8697   -0.6008 H   0  0  0  0  0  0  0  0  0  0  0  0
    0.0574    1.8024    0.9532 H   0  0  0  0  0  0  0  0  0  0  0  0
   -1.1168    1.9372   -0.2737 H   0  0  0  0  0  0  0  0  0  0  0  0
    0.0000    0.0000    0.0000 C   0  0  0  0  0  0  0  0  0  0  0  0
   -1.0584   -0.6489   -0.0000 O   0  0  0  0  0  1  0  0  0  0  0  0
    1.0584   -0.6239    0.0000 O   0  0  0  0  0  0  0  0  0  0  0  0
   -4.0471   -1.1014    0.8360 C   0  0  0  0  0  0  0  0  0  0  0  0
   -3.3146   -0.6729    0.3224 H   0  0  0  0  0  0  0  0  0  0  0  0
   -3.7755   -1.2564    1.7771 H   0  0  0  0  0  0  0  0  0  0  0  0
   -4.9113   -0.4371    0.8284 H   0  0  0  0  0  0  0  0  0  0  0  0
   -4.4069   -2.4278    0.1892 C   0  0  0  0  0  0  0  0  0  0  0  0
   -5.0390   -2.9225    0.8429 H   0  0  0  0  0  0  0  0  0  0  0  0
   -5.0048   -2.2158   -0.6283 H   0  0  0  0  0  0  0  0  0  0  0  0
   -3.3377   -3.3343   -0.2217 C   0  0  0  0  0  0  0  0  0  0  0  0
   -3.6500   -3.8498   -1.0881 H   0  0  0  0  0  0  0  0  0  0  0  0
   -2.5377   -2.7586   -0.6007 H   0  0  0  0  0  0  0  0  0  0  0  0
   -2.9222   -4.0670    0.4703 H   0  0  0  0  0  0  0  0  0  0  0  0
  1  5  1  0
  5  6  1  0
  5  7  2  0
  1  2  1  0
  1  3  1  0
  1  4  1  0
  8 12  1  0
 12 15  1  0
  8  9  1  0
  8 10  1  0
  8 11  1  0
 12 13  1  0
 12 14  1  0
 15 16  1  0
 15 17  1  0
 15 18  1  0
M  CHG  1   6  -1
M  END
>  <PDB_ID>  (313) 
pdb1azi

>  <RESIDUE_NAME>  (313) 
GLU   LYS

>  <FRAG_NAME>  (313) 
ACET   PRPA

>  <FRAG_ATOM_NUM>  (313) 
fragi: 7  fragj: 11

>  <atom.prop.CHAIN_ID>  (313) 
A A A A A A A Z Z Z Z Z Z Z Z Z Z Z

>  <atom.prop.IS_HEAVY_ATOM>  (313) 
1 0 0 0 1 1 1 1 0 0 0 1 0 0 1 0 0 0

>  <DIFUSE_FUNC_ATOM>  (313) 
atom 6   atom 7   

>  <FINAL_SINGLE_POINT_ENERGY>  (313) 
0

>  <NONCOV_INTER_ENERGY_QM>  (313) 
0

>  <FF_Energy>  (313) 
1.29

>  <QM_Energy>  (313) 
-4.04

>  <Index>  (313) 
23027

$$$$
ACET-pdb2ash-C-GLU-159:PRPA-pdb2ash-C-LYS-155
     RDKit          3D

 18 16  0  0  0  0  0  0  0  0999 V2000
    0.2205    1.5068    0.0146 C   0  0  0  0  0  0  0  0  0  0  0  0
    0.7212    1.7454   -0.8028 H   0  0  0  0  0  0  0  0  0  0  0  0
    0.7327    1.7274    0.8298 H   0  0  0  0  0  0  0  0  0  0  0  0
   -0.6937    2.1003    0.0266 H   0  0  0  0  0  0  0  0  0  0  0  0
    0.0000    0.0000    0.0000 C   0  0  0  0  0  0  0  0  0  0  0  0
   -1.0874   -0.5323    0.0000 O   0  0  0  0  0  1  0  0  0  0  0  0
    1.0874   -0.6186   -0.0000 O   0  0  0  0  0  0  0  0  0  0  0  0
    1.8778   -0.2818    3.4815 C   0  0  0  0  0  0  0  0  0  0  0  0
    1.0033   -0.2033    2.9844 H   0  0  0  0  0  0  0  0  0  0  0  0
    2.5257    0.3810    3.0833 H   0  0  0  0  0  0  0  0  0  0  0  0
    1.7186   -0.0472    4.5340 H   0  0  0  0  0  0  0  0  0  0  0  0
    2.4200   -1.6631    3.2905 C   0  0  0  0  0  0  0  0  0  0  0  0
    3.3755   -1.6806    3.5327 H   0  0  0  0  0  0  0  0  0  0  0  0
    1.8941   -2.3036    3.8251 H   0  0  0  0  0  0  0  0  0  0  0  0
    2.2869   -2.0328    1.8275 C   0  0  0  0  0  0  0  0  0  0  0  0
    1.3190   -2.2591    1.6392 H   0  0  0  0  0  0  0  0  0  0  0  0
    2.5272   -1.2250    1.2679 H   0  0  0  0  0  0  0  0  0  0  0  0
    2.9192   -2.8735    1.5423 H   0  0  0  0  0  0  0  0  0  0  0  0
  1  5  1  0
  5  6  1  0
  5  7  2  0
  1  2  1  0
  1  3  1  0
  1  4  1  0
  8 12  1  0
 12 15  1  0
  8  9  1  0
  8 10  1  0
  8 11  1  0
 12 13  1  0
 12 14  1  0
 15 16  1  0
 15 17  1  0
 15 18  1  0
M  CHG  1   6  -1
M  END
>  <PDB_ID>  (314) 
pdb2ash

>  <RESIDUE_NAME>  (314) 
GLU   LYS

>  <FRAG_NAME>  (314) 
ACET   PRPA

>  <FRAG_ATOM_NUM>  (314) 
fragi: 7  fragj: 11

>  <atom.prop.CHAIN_ID>  (314) 
A A A A A A A Z Z Z Z Z Z Z Z Z Z Z

>  <atom.prop.IS_HEAVY_ATOM>  (314) 
1 0 0 0 1 1 1 1 0 0 0 1 0 0 1 0 0 0

>  <DIFUSE_FUNC_ATOM>  (314) 
atom 6   atom 7   

>  <FINAL_SINGLE_POINT_ENERGY>  (314) 
0

>  <NONCOV_INTER_ENERGY_QM>  (314) 
0

>  <FF_Energy>  (314) 
14.7

>  <QM_Energy>  (314) 
1.56

>  <Index>  (314) 
23214

$$$$
ACET-pdb1axd-B-GLU-66:PRPA-pdb1axd-A-GLU-100
     RDKit          3D

 18 16  0  0  0  0  0  0  0  0999 V2000
   -0.0050    1.5079   -0.0351 C   0  0  0  0  0  0  0  0  0  0  0  0
   -0.1549    1.7813   -0.9730 H   0  0  0  0  0  0  0  0  0  0  0  0
    0.8760    1.8133    0.2934 H   0  0  0  0  0  0  0  0  0  0  0  0
   -0.7837    1.9502    0.5864 H   0  0  0  0  0  0  0  0  0  0  0  0
    0.0000    0.0000    0.0000 C   0  0  0  0  0  0  0  0  0  0  0  0
   -1.0916   -0.5963   -0.0000 O   0  0  0  0  0  1  0  0  0  0  0  0
    1.0916   -0.5960    0.0000 O   0  0  0  0  0  0  0  0  0  0  0  0
    0.2857    2.5896   -4.0751 C   0  0  0  0  0  0  0  0  0  0  0  0
    1.2314    2.7631   -4.3965 H   0  0  0  0  0  0  0  0  0  0  0  0
   -0.4123    3.1654   -4.6829 H   0  0  0  0  0  0  0  0  0  0  0  0
    0.0702    1.5220   -4.1161 H   0  0  0  0  0  0  0  0  0  0  0  0
    0.2658    3.0822   -2.6281 C   0  0  0  0  0  0  0  0  0  0  0  0
   -0.6816    3.1708   -2.3542 H   0  0  0  0  0  0  0  0  0  0  0  0
    0.7351    2.4095   -2.0747 H   0  0  0  0  0  0  0  0  0  0  0  0
    0.9397    4.4247   -2.3845 C   0  0  0  0  0  0  0  0  0  0  0  0
    0.5251    5.0884   -2.9774 H   0  0  0  0  0  0  0  0  0  0  0  0
    0.8357    4.6551   -1.4352 H   0  0  0  0  0  0  0  0  0  0  0  0
    2.0071    4.4048   -2.6044 H   0  0  0  0  0  0  0  0  0  0  0  0
  1  5  1  0
  5  6  1  0
  5  7  2  0
  1  2  1  0
  1  3  1  0
  1  4  1  0
  8 12  1  0
 12 15  1  0
  8  9  1  0
  8 10  1  0
  8 11  1  0
 12 13  1  0
 12 14  1  0
 15 16  1  0
 15 17  1  0
 15 18  1  0
M  CHG  1   6  -1
M  END
>  <PDB_ID>  (315) 
pdb1axd

>  <RESIDUE_NAME>  (315) 
GLU   GLU

>  <FRAG_NAME>  (315) 
ACET   PRPA

>  <FRAG_ATOM_NUM>  (315) 
fragi: 7  fragj: 11

>  <atom.prop.CHAIN_ID>  (315) 
A A A A A A A Z Z Z Z Z Z Z Z Z Z Z

>  <atom.prop.IS_HEAVY_ATOM>  (315) 
1 0 0 0 1 1 1 1 0 0 0 1 0 0 1 0 0 0

>  <DIFUSE_FUNC_ATOM>  (315) 
atom 6   atom 7   

>  <FINAL_SINGLE_POINT_ENERGY>  (315) 
0

>  <NONCOV_INTER_ENERGY_QM>  (315) 
0

>  <FF_Energy>  (315) 
46.94

>  <QM_Energy>  (315) 
6.06

>  <Index>  (315) 
23223

$$$$
ACET-pdb1aw7-A-ASP-110:PRPA-pdb1aw7-A-LYS-103
     RDKit          3D

 18 16  0  0  0  0  0  0  0  0999 V2000
   -0.0146    1.5556    0.0436 C   0  0  0  0  0  0  0  0  0  0  0  0
    0.9114    1.8784   -0.0857 H   0  0  0  0  0  0  0  0  0  0  0  0
   -0.3745    1.8385    0.9194 H   0  0  0  0  0  0  0  0  0  0  0  0
   -0.6344    2.0056   -0.7319 H   0  0  0  0  0  0  0  0  0  0  0  0
    0.0000    0.0000    0.0000 C   0  0  0  0  0  0  0  0  0  0  0  0
   -1.0984   -0.6155    0.0000 O   0  0  0  0  0  1  0  0  0  0  0  0
    1.0984   -0.6147    0.0000 O   0  0  0  0  0  0  0  0  0  0  0  0
   -4.2401   -2.3259    2.8704 C   0  0  0  0  0  0  0  0  0  0  0  0
   -4.0675   -1.3675    2.6861 H   0  0  0  0  0  0  0  0  0  0  0  0
   -3.7331   -2.6312    3.6657 H   0  0  0  0  0  0  0  0  0  0  0  0
   -5.3070   -2.4910    3.0206 H   0  0  0  0  0  0  0  0  0  0  0  0
   -3.7586   -3.1438    1.6496 C   0  0  0  0  0  0  0  0  0  0  0  0
   -4.0065   -4.0914    1.7870 H   0  0  0  0  0  0  0  0  0  0  0  0
   -4.1814   -2.7749    0.8357 H   0  0  0  0  0  0  0  0  0  0  0  0
   -2.2283   -3.0565    1.4891 C   0  0  0  0  0  0  0  0  0  0  0  0
   -1.9978   -2.1675    1.1138 H   0  0  0  0  0  0  0  0  0  0  0  0
   -1.8066   -3.1830    2.3789 H   0  0  0  0  0  0  0  0  0  0  0  0
   -1.8807   -3.8360    0.8110 H   0  0  0  0  0  0  0  0  0  0  0  0
  1  5  1  0
  5  6  1  0
  5  7  2  0
  1  2  1  0
  1  3  1  0
  1  4  1  0
  8 12  1  0
 12 15  1  0
  8  9  1  0
  8 10  1  0
  8 11  1  0
 12 13  1  0
 12 14  1  0
 15 16  1  0
 15 17  1  0
 15 18  1  0
M  CHG  1   6  -1
M  END
>  <PDB_ID>  (316) 
pdb1aw7

>  <RESIDUE_NAME>  (316) 
ASP   LYS

>  <FRAG_NAME>  (316) 
ACET   PRPA

>  <FRAG_ATOM_NUM>  (316) 
fragi: 7  fragj: 11

>  <atom.prop.CHAIN_ID>  (316) 
A A A A A A A Z Z Z Z Z Z Z Z Z Z Z

>  <atom.prop.IS_HEAVY_ATOM>  (316) 
1 0 0 0 1 1 1 1 0 0 0 1 0 0 1 0 0 0

>  <DIFUSE_FUNC_ATOM>  (316) 
atom 6   atom 7   

>  <FINAL_SINGLE_POINT_ENERGY>  (316) 
0

>  <NONCOV_INTER_ENERGY_QM>  (316) 
0

>  <FF_Energy>  (316) 
4.6

>  <QM_Energy>  (316) 
-2.77

>  <Index>  (316) 
23259

$$$$
ACET-pdb2bdt-A-GLU-134:PRPA-pdb2bdt-A-ARG-131
     RDKit          3D

 18 16  0  0  0  0  0  0  0  0999 V2000
   -0.0032    1.5229    0.0116 C   0  0  0  0  0  0  0  0  0  0  0  0
   -0.2200    1.8114    0.9254 H   0  0  0  0  0  0  0  0  0  0  0  0
   -0.6724    1.8221   -0.6430 H   0  0  0  0  0  0  0  0  0  0  0  0
    0.9592    1.9555   -0.2619 H   0  0  0  0  0  0  0  0  0  0  0  0
    0.0000    0.0000    0.0000 C   0  0  0  0  0  0  0  0  0  0  0  0
   -1.1018   -0.5967   -0.0000 O   0  0  0  0  0  1  0  0  0  0  0  0
    1.1018   -0.5971    0.0000 O   0  0  0  0  0  0  0  0  0  0  0  0
   -2.5417    1.1352   -2.4722 C   0  0  0  0  0  0  0  0  0  0  0  0
   -2.1423    1.0941   -1.5419 H   0  0  0  0  0  0  0  0  0  0  0  0
   -3.6001    1.3812   -2.3859 H   0  0  0  0  0  0  0  0  0  0  0  0
   -1.9851    1.8696   -3.0544 H   0  0  0  0  0  0  0  0  0  0  0  0
   -2.3952   -0.2656   -3.0921 C   0  0  0  0  0  0  0  0  0  0  0  0
   -2.8808   -0.9179   -2.5075 H   0  0  0  0  0  0  0  0  0  0  0  0
   -2.8245   -0.2530   -3.9975 H   0  0  0  0  0  0  0  0  0  0  0  0
   -0.9561   -0.7813   -3.2680 C   0  0  0  0  0  0  0  0  0  0  0  0
   -0.4112   -0.5120   -2.4769 H   0  0  0  0  0  0  0  0  0  0  0  0
   -0.9709   -1.7754   -3.3479 H   0  0  0  0  0  0  0  0  0  0  0  0
   -0.4746   -0.3804   -4.1599 H   0  0  0  0  0  0  0  0  0  0  0  0
  1  5  1  0
  5  6  1  0
  5  7  2  0
  1  2  1  0
  1  3  1  0
  1  4  1  0
  8 12  1  0
 12 15  1  0
  8  9  1  0
  8 10  1  0
  8 11  1  0
 12 13  1  0
 12 14  1  0
 15 16  1  0
 15 17  1  0
 15 18  1  0
M  CHG  1   6  -1
M  END
>  <PDB_ID>  (317) 
pdb2bdt

>  <RESIDUE_NAME>  (317) 
GLU   ARG

>  <FRAG_NAME>  (317) 
ACET   PRPA

>  <FRAG_ATOM_NUM>  (317) 
fragi: 7  fragj: 11

>  <atom.prop.CHAIN_ID>  (317) 
A A A A A A A Z Z Z Z Z Z Z Z Z Z Z

>  <atom.prop.IS_HEAVY_ATOM>  (317) 
1 0 0 0 1 1 1 1 0 0 0 1 0 0 1 0 0 0

>  <DIFUSE_FUNC_ATOM>  (317) 
atom 6   atom 7   

>  <FINAL_SINGLE_POINT_ENERGY>  (317) 
0

>  <NONCOV_INTER_ENERGY_QM>  (317) 
0

>  <FF_Energy>  (317) 
4.23

>  <QM_Energy>  (317) 
-3.87

>  <Index>  (317) 
23352

$$$$
ACET-pdb2b7n-A-GLU-188:PRPA-pdb2b7n-A-LYS-158
     RDKit          3D

 18 16  0  0  0  0  0  0  0  0999 V2000
    0.0114    1.5241   -0.0138 C   0  0  0  0  0  0  0  0  0  0  0  0
   -0.2114    1.8136   -0.9280 H   0  0  0  0  0  0  0  0  0  0  0  0
    0.9112    1.8154    0.2575 H   0  0  0  0  0  0  0  0  0  0  0  0
   -0.7118    1.9704    0.6689 H   0  0  0  0  0  0  0  0  0  0  0  0
    0.0000    0.0000    0.0000 C   0  0  0  0  0  0  0  0  0  0  0  0
   -1.1032   -0.6002   -0.0000 O   0  0  0  0  0  1  0  0  0  0  0  0
    1.1032   -0.5955    0.0000 O   0  0  0  0  0  0  0  0  0  0  0  0
    0.0812   -0.0156    3.9007 C   0  0  0  0  0  0  0  0  0  0  0  0
   -0.1736    0.8127    3.4001 H   0  0  0  0  0  0  0  0  0  0  0  0
    1.0774    0.1125    4.3239 H   0  0  0  0  0  0  0  0  0  0  0  0
   -0.6328   -0.1678    4.7101 H   0  0  0  0  0  0  0  0  0  0  0  0
    0.0460   -1.2134    2.9395 C   0  0  0  0  0  0  0  0  0  0  0  0
   -0.7729   -1.1283    2.3737 H   0  0  0  0  0  0  0  0  0  0  0  0
    0.8585   -1.1648    2.3597 H   0  0  0  0  0  0  0  0  0  0  0  0
    0.0214   -2.5604    3.6263 C   0  0  0  0  0  0  0  0  0  0  0  0
    0.9326   -2.7588    4.0004 H   0  0  0  0  0  0  0  0  0  0  0  0
   -0.6395   -2.5369    4.3814 H   0  0  0  0  0  0  0  0  0  0  0  0
   -0.2567   -3.3675    2.9486 H   0  0  0  0  0  0  0  0  0  0  0  0
  1  5  1  0
  5  6  1  0
  5  7  2  0
  1  2  1  0
  1  3  1  0
  1  4  1  0
  8 12  1  0
 12 15  1  0
  8  9  1  0
  8 10  1  0
  8 11  1  0
 12 13  1  0
 12 14  1  0
 15 16  1  0
 15 17  1  0
 15 18  1  0
M  CHG  1   6  -1
M  END
>  <PDB_ID>  (318) 
pdb2b7n

>  <RESIDUE_NAME>  (318) 
GLU   LYS

>  <FRAG_NAME>  (318) 
ACET   PRPA

>  <FRAG_ATOM_NUM>  (318) 
fragi: 7  fragj: 11

>  <atom.prop.CHAIN_ID>  (318) 
A A A A A A A Z Z Z Z Z Z Z Z Z Z Z

>  <atom.prop.IS_HEAVY_ATOM>  (318) 
1 0 0 0 1 1 1 1 0 0 0 1 0 0 1 0 0 0

>  <DIFUSE_FUNC_ATOM>  (318) 
atom 6   atom 7   

>  <FINAL_SINGLE_POINT_ENERGY>  (318) 
0

>  <NONCOV_INTER_ENERGY_QM>  (318) 
0

>  <FF_Energy>  (318) 
1.54

>  <QM_Energy>  (318) 
-3.74

>  <Index>  (318) 
23358

$$$$
ACET-pdb2bgi-A-ASP-56:PRPA-pdb2bgi-A-LYS-60
     RDKit          3D

 18 16  0  0  0  0  0  0  0  0999 V2000
    0.0062    1.5160   -0.0146 C   0  0  0  0  0  0  0  0  0  0  0  0
   -0.2516    1.8297   -0.9217 H   0  0  0  0  0  0  0  0  0  0  0  0
    0.9180    1.8356    0.2168 H   0  0  0  0  0  0  0  0  0  0  0  0
   -0.6925    1.9500    0.7006 H   0  0  0  0  0  0  0  0  0  0  0  0
    0.0000    0.0000    0.0000 C   0  0  0  0  0  0  0  0  0  0  0  0
   -1.0984   -0.5982    0.0000 O   0  0  0  0  0  1  0  0  0  0  0  0
    1.0984   -0.5948   -0.0000 O   0  0  0  0  0  0  0  0  0  0  0  0
    1.0154   -3.1575    1.2916 C   0  0  0  0  0  0  0  0  0  0  0  0
    0.5360   -3.9093    0.8443 H   0  0  0  0  0  0  0  0  0  0  0  0
    1.0169   -2.3565    0.6966 H   0  0  0  0  0  0  0  0  0  0  0  0
    0.4738   -2.9030    2.2027 H   0  0  0  0  0  0  0  0  0  0  0  0
    2.4587   -3.5828    1.5265 C   0  0  0  0  0  0  0  0  0  0  0  0
    2.9406   -2.8491    2.0058 H   0  0  0  0  0  0  0  0  0  0  0  0
    2.4680   -4.4101    2.0867 H   0  0  0  0  0  0  0  0  0  0  0  0
    3.1747   -3.8674    0.2153 C   0  0  0  0  0  0  0  0  0  0  0  0
    2.6963   -4.5961   -0.2619 H   0  0  0  0  0  0  0  0  0  0  0  0
    3.1837   -3.0393   -0.3344 H   0  0  0  0  0  0  0  0  0  0  0  0
    4.2045   -4.1820    0.3849 H   0  0  0  0  0  0  0  0  0  0  0  0
  1  5  1  0
  5  6  1  0
  5  7  2  0
  1  2  1  0
  1  3  1  0
  1  4  1  0
  8 12  1  0
 12 15  1  0
  8  9  1  0
  8 10  1  0
  8 11  1  0
 12 13  1  0
 12 14  1  0
 15 16  1  0
 15 17  1  0
 15 18  1  0
M  CHG  1   6  -1
M  END
>  <PDB_ID>  (319) 
pdb2bgi

>  <RESIDUE_NAME>  (319) 
ASP   LYS

>  <FRAG_NAME>  (319) 
ACET   PRPA

>  <FRAG_ATOM_NUM>  (319) 
fragi: 7  fragj: 11

>  <atom.prop.CHAIN_ID>  (319) 
A A A A A A A Z Z Z Z Z Z Z Z Z Z Z

>  <atom.prop.IS_HEAVY_ATOM>  (319) 
1 0 0 0 1 1 1 1 0 0 0 1 0 0 1 0 0 0

>  <DIFUSE_FUNC_ATOM>  (319) 
atom 6   atom 7   

>  <FINAL_SINGLE_POINT_ENERGY>  (319) 
0

>  <NONCOV_INTER_ENERGY_QM>  (319) 
0

>  <FF_Energy>  (319) 
22.88

>  <QM_Energy>  (319) 
-1.6

>  <Index>  (319) 
23484

$$$$
ACET-pdb1aye-A-ASP-81:PRPA-pdb1aye-A-VAL-84
     RDKit          3D

 18 16  0  0  0  0  0  0  0  0999 V2000
    0.0602    1.5279    0.0166 C   0  0  0  0  0  0  0  0  0  0  0  0
    0.6000    1.8310   -0.7643 H   0  0  0  0  0  0  0  0  0  0  0  0
    0.4926    1.8177    0.8650 H   0  0  0  0  0  0  0  0  0  0  0  0
   -0.9171    2.0066   -0.0438 H   0  0  0  0  0  0  0  0  0  0  0  0
    0.0000    0.0000    0.0000 C   0  0  0  0  0  0  0  0  0  0  0  0
   -1.0969   -0.6040   -0.0000 O   0  0  0  0  0  1  0  0  0  0  0  0
    1.0969   -0.6075   -0.0000 O   0  0  0  0  0  0  0  0  0  0  0  0
    1.5581    1.7045    5.4553 C   0  0  0  0  0  0  0  0  0  0  0  0
    2.5205    1.6608    5.1845 H   0  0  0  0  0  0  0  0  0  0  0  0
    1.2975    2.6596    5.5995 H   0  0  0  0  0  0  0  0  0  0  0  0
    1.4296    1.1935    6.3052 H   0  0  0  0  0  0  0  0  0  0  0  0
    0.6933    1.1002    4.3621 C   0  0  0  0  0  0  0  0  0  0  0  0
   -0.0160    1.7638    4.1487 H   0  0  0  0  0  0  0  0  0  0  0  0
    0.2010    0.1963    4.7209 H   0  0  0  0  0  0  0  0  0  0  0  0
    1.5416    0.7884    3.1395 C   0  0  0  0  0  0  0  0  0  0  0  0
    1.6254   -0.2032    3.0390 H   0  0  0  0  0  0  0  0  0  0  0  0
    1.1043    1.1728    2.3265 H   0  0  0  0  0  0  0  0  0  0  0  0
    2.4490    1.1925    3.2551 H   0  0  0  0  0  0  0  0  0  0  0  0
  1  5  1  0
  5  6  1  0
  5  7  2  0
  1  2  1  0
  1  3  1  0
  1  4  1  0
  8 12  1  0
 12 15  1  0
  8  9  1  0
  8 10  1  0
  8 11  1  0
 12 13  1  0
 12 14  1  0
 15 16  1  0
 15 17  1  0
 15 18  1  0
M  CHG  1   6  -1
M  END
>  <PDB_ID>  (320) 
pdb1aye

>  <RESIDUE_NAME>  (320) 
ASP   VAL

>  <FRAG_NAME>  (320) 
ACET   PRPA

>  <FRAG_ATOM_NUM>  (320) 
fragi: 7  fragj: 11

>  <atom.prop.CHAIN_ID>  (320) 
A A A A A A A Z Z Z Z Z Z Z Z Z Z Z

>  <atom.prop.IS_HEAVY_ATOM>  (320) 
1 0 0 0 1 1 1 1 0 0 0 1 0 0 1 0 0 0

>  <DIFUSE_FUNC_ATOM>  (320) 
atom 6   atom 7   

>  <FINAL_SINGLE_POINT_ENERGY>  (320) 
0

>  <NONCOV_INTER_ENERGY_QM>  (320) 
0

>  <FF_Energy>  (320) 
10.42

>  <QM_Energy>  (320) 
0.04

>  <Index>  (320) 
23535

$$$$
ACET-pdb1b1u-A-GLU-75:PRPA-pdb1b1u-A-PRO-8
     RDKit          3D

 18 16  0  0  0  0  0  0  0  0999 V2000
    0.0038    1.5329    0.0007 C   0  0  0  0  0  0  0  0  0  0  0  0
    0.1535    1.8254   -0.9234 H   0  0  0  0  0  0  0  0  0  0  0  0
    0.7159    1.8224    0.6098 H   0  0  0  0  0  0  0  0  0  0  0  0
   -0.9388    1.9575    0.3463 H   0  0  0  0  0  0  0  0  0  0  0  0
    0.0000    0.0000    0.0000 C   0  0  0  0  0  0  0  0  0  0  0  0
   -1.0926   -0.6068    0.0000 O   0  0  0  0  0  1  0  0  0  0  0  0
    1.0926   -0.6013   -0.0000 O   0  0  0  0  0  0  0  0  0  0  0  0
    4.8627   -1.8474   -0.9006 C   0  0  0  0  0  0  0  0  0  0  0  0
    5.0062   -2.0927    0.0734 H   0  0  0  0  0  0  0  0  0  0  0  0
    5.7358   -1.3288   -1.2965 H   0  0  0  0  0  0  0  0  0  0  0  0
    4.6019   -2.7292   -1.4858 H   0  0  0  0  0  0  0  0  0  0  0  0
    3.7732   -0.7820   -0.9195 C   0  0  0  0  0  0  0  0  0  0  0  0
    3.2606   -0.8118   -1.7791 H   0  0  0  0  0  0  0  0  0  0  0  0
    3.1410   -0.9040   -0.1541 H   0  0  0  0  0  0  0  0  0  0  0  0
    4.5257    0.5024   -0.7913 C   0  0  0  0  0  0  0  0  0  0  0  0
    3.9949    1.2625   -1.1801 H   0  0  0  0  0  0  0  0  0  0  0  0
    4.7146    0.7045    0.1751 H   0  0  0  0  0  0  0  0  0  0  0  0
    5.4527    0.3534   -1.3448 H   0  0  0  0  0  0  0  0  0  0  0  0
  1  5  1  0
  5  6  1  0
  5  7  2  0
  1  2  1  0
  1  3  1  0
  1  4  1  0
  8 12  1  0
 12 15  1  0
  8  9  1  0
  8 10  1  0
  8 11  1  0
 12 13  1  0
 12 14  1  0
 15 16  1  0
 15 17  1  0
 15 18  1  0
M  CHG  1   6  -1
M  END
>  <PDB_ID>  (321) 
pdb1b1u

>  <RESIDUE_NAME>  (321) 
GLU   PRO

>  <FRAG_NAME>  (321) 
ACET   PRPA

>  <FRAG_ATOM_NUM>  (321) 
fragi: 7  fragj: 11

>  <atom.prop.CHAIN_ID>  (321) 
A A A A A A A Z Z Z Z Z Z Z Z Z Z Z

>  <atom.prop.IS_HEAVY_ATOM>  (321) 
1 0 0 0 1 1 1 1 0 0 0 1 0 0 1 0 0 0

>  <DIFUSE_FUNC_ATOM>  (321) 
atom 6   atom 7   

>  <FINAL_SINGLE_POINT_ENERGY>  (321) 
0

>  <NONCOV_INTER_ENERGY_QM>  (321) 
0

>  <FF_Energy>  (321) 
6.82

>  <QM_Energy>  (321) 
-1.89

>  <Index>  (321) 
23536

$$$$
ACET-pdb2bdw-A-GLU-38:PRPA-pdb2bdw-A-VAL-31
     RDKit          3D

 18 16  0  0  0  0  0  0  0  0999 V2000
    0.0054    1.5092   -0.0070 C   0  0  0  0  0  0  0  0  0  0  0  0
   -0.3022    1.8048   -0.8927 H   0  0  0  0  0  0  0  0  0  0  0  0
    0.9234    1.8047    0.1856 H   0  0  0  0  0  0  0  0  0  0  0  0
   -0.6590    1.9330    0.7461 H   0  0  0  0  0  0  0  0  0  0  0  0
    0.0000    0.0000    0.0000 C   0  0  0  0  0  0  0  0  0  0  0  0
   -1.1025   -0.5872    0.0000 O   0  0  0  0  0  1  0  0  0  0  0  0
    1.1025   -0.5946   -0.0000 O   0  0  0  0  0  0  0  0  0  0  0  0
    3.1830    3.9954   -1.7749 C   0  0  0  0  0  0  0  0  0  0  0  0
    4.0565    3.9258   -2.2584 H   0  0  0  0  0  0  0  0  0  0  0  0
    3.1953    4.8047   -1.1867 H   0  0  0  0  0  0  0  0  0  0  0  0
    3.0517    3.1786   -1.2105 H   0  0  0  0  0  0  0  0  0  0  0  0
    2.0517    4.1099   -2.7773 C   0  0  0  0  0  0  0  0  0  0  0  0
    2.4552    4.3566   -3.6512 H   0  0  0  0  0  0  0  0  0  0  0  0
    1.3763    4.9155   -2.4892 H   0  0  0  0  0  0  0  0  0  0  0  0
    1.2845    2.8058   -2.8803 C   0  0  0  0  0  0  0  0  0  0  0  0
    0.7329    2.8095   -3.7155 H   0  0  0  0  0  0  0  0  0  0  0  0
    1.9294    2.0419   -2.9099 H   0  0  0  0  0  0  0  0  0  0  0  0
    0.6859    2.7084   -2.0843 H   0  0  0  0  0  0  0  0  0  0  0  0
  1  5  1  0
  5  6  1  0
  5  7  2  0
  1  2  1  0
  1  3  1  0
  1  4  1  0
  8 12  1  0
 12 15  1  0
  8  9  1  0
  8 10  1  0
  8 11  1  0
 12 13  1  0
 12 14  1  0
 15 16  1  0
 15 17  1  0
 15 18  1  0
M  CHG  1   6  -1
M  END
>  <PDB_ID>  (322) 
pdb2bdw

>  <RESIDUE_NAME>  (322) 
GLU   VAL

>  <FRAG_NAME>  (322) 
ACET   PRPA

>  <FRAG_ATOM_NUM>  (322) 
fragi: 7  fragj: 11

>  <atom.prop.CHAIN_ID>  (322) 
A A A A A A A Z Z Z Z Z Z Z Z Z Z Z

>  <atom.prop.IS_HEAVY_ATOM>  (322) 
1 0 0 0 1 1 1 1 0 0 0 1 0 0 1 0 0 0

>  <DIFUSE_FUNC_ATOM>  (322) 
atom 6   atom 7   

>  <FINAL_SINGLE_POINT_ENERGY>  (322) 
0

>  <NONCOV_INTER_ENERGY_QM>  (322) 
0

>  <FF_Energy>  (322) 
5.91

>  <QM_Energy>  (322) 
0.28

>  <Index>  (322) 
23640

$$$$
ACET-pdb1azv-A-GLU-40:PRPA-pdb1azv-A-LYS-91
     RDKit          3D

 18 16  0  0  0  0  0  0  0  0999 V2000
    0.0135    1.5149   -0.0132 C   0  0  0  0  0  0  0  0  0  0  0  0
   -0.1982    1.8099   -0.9285 H   0  0  0  0  0  0  0  0  0  0  0  0
    0.9086    1.8104    0.2721 H   0  0  0  0  0  0  0  0  0  0  0  0
   -0.7180    1.9626    0.6596 H   0  0  0  0  0  0  0  0  0  0  0  0
    0.0000    0.0000    0.0000 C   0  0  0  0  0  0  0  0  0  0  0  0
   -1.1057   -0.5936    0.0000 O   0  0  0  0  0  1  0  0  0  0  0  0
    1.1057   -0.5891   -0.0000 O   0  0  0  0  0  0  0  0  0  0  0  0
    0.3214   -2.5737    2.9188 C   0  0  0  0  0  0  0  0  0  0  0  0
    0.8570   -2.1998    2.1647 H   0  0  0  0  0  0  0  0  0  0  0  0
    0.5933   -3.5179    3.0915 H   0  0  0  0  0  0  0  0  0  0  0  0
    0.5025   -1.9796    3.8146 H   0  0  0  0  0  0  0  0  0  0  0  0
   -1.1667   -2.5584    2.5160 C   0  0  0  0  0  0  0  0  0  0  0  0
   -1.7168   -2.7280    3.3241 H   0  0  0  0  0  0  0  0  0  0  0  0
   -1.3812   -1.6743    2.1216 H   0  0  0  0  0  0  0  0  0  0  0  0
   -1.4910   -3.6481    1.4710 C   0  0  0  0  0  0  0  0  0  0  0  0
   -1.4898   -4.5366    1.9259 H   0  0  0  0  0  0  0  0  0  0  0  0
   -2.3955   -3.4660    1.0900 H   0  0  0  0  0  0  0  0  0  0  0  0
   -0.7602   -3.6603    0.6623 H   0  0  0  0  0  0  0  0  0  0  0  0
  1  5  1  0
  5  6  1  0
  5  7  2  0
  1  2  1  0
  1  3  1  0
  1  4  1  0
  8 12  1  0
 12 15  1  0
  8  9  1  0
  8 10  1  0
  8 11  1  0
 12 13  1  0
 12 14  1  0
 15 16  1  0
 15 17  1  0
 15 18  1  0
M  CHG  1   6  -1
M  END
>  <PDB_ID>  (323) 
pdb1azv

>  <RESIDUE_NAME>  (323) 
GLU   LYS

>  <FRAG_NAME>  (323) 
ACET   PRPA

>  <FRAG_ATOM_NUM>  (323) 
fragi: 7  fragj: 11

>  <atom.prop.CHAIN_ID>  (323) 
A A A A A A A Z Z Z Z Z Z Z Z Z Z Z

>  <atom.prop.IS_HEAVY_ATOM>  (323) 
1 0 0 0 1 1 1 1 0 0 0 1 0 0 1 0 0 0

>  <DIFUSE_FUNC_ATOM>  (323) 
atom 6   atom 7   

>  <FINAL_SINGLE_POINT_ENERGY>  (323) 
0

>  <NONCOV_INTER_ENERGY_QM>  (323) 
0

>  <FF_Energy>  (323) 
4.05

>  <QM_Energy>  (323) 
-5.36

>  <Index>  (323) 
23642

$$$$
ACET-pdb2b3y-A-ASP-354:PRPA-pdb2b3y-A-ARG-34
     RDKit          3D

 18 16  0  0  0  0  0  0  0  0999 V2000
    0.0742    1.5195    0.0047 C   0  0  0  0  0  0  0  0  0  0  0  0
    0.6223    1.8167   -0.7765 H   0  0  0  0  0  0  0  0  0  0  0  0
    0.5090    1.8170    0.8524 H   0  0  0  0  0  0  0  0  0  0  0  0
   -0.8926    2.0184   -0.0629 H   0  0  0  0  0  0  0  0  0  0  0  0
    0.0000    0.0000    0.0000 C   0  0  0  0  0  0  0  0  0  0  0  0
   -1.0974   -0.5993    0.0000 O   0  0  0  0  0  1  0  0  0  0  0  0
    1.0974   -0.6045   -0.0000 O   0  0  0  0  0  0  0  0  0  0  0  0
    0.6921   -1.1834   -3.4110 C   0  0  0  0  0  0  0  0  0  0  0  0
    1.6359   -0.9284   -3.6133 H   0  0  0  0  0  0  0  0  0  0  0  0
    0.3864   -0.7121   -2.5864 H   0  0  0  0  0  0  0  0  0  0  0  0
    0.0627   -0.8687   -4.2434 H   0  0  0  0  0  0  0  0  0  0  0  0
    0.6621   -2.6772   -3.1318 C   0  0  0  0  0  0  0  0  0  0  0  0
   -0.2773   -3.0021   -3.1204 H   0  0  0  0  0  0  0  0  0  0  0  0
    1.1878   -3.1621   -3.8224 H   0  0  0  0  0  0  0  0  0  0  0  0
    1.2867   -3.0144   -1.7544 C   0  0  0  0  0  0  0  0  0  0  0  0
    0.6890   -2.6367   -1.0566 H   0  0  0  0  0  0  0  0  0  0  0  0
    1.3243   -4.0047   -1.6816 H   0  0  0  0  0  0  0  0  0  0  0  0
    2.2883   -2.5983   -1.6463 H   0  0  0  0  0  0  0  0  0  0  0  0
  1  5  1  0
  5  6  1  0
  5  7  2  0
  1  2  1  0
  1  3  1  0
  1  4  1  0
  8 12  1  0
 12 15  1  0
  8  9  1  0
  8 10  1  0
  8 11  1  0
 12 13  1  0
 12 14  1  0
 15 16  1  0
 15 17  1  0
 15 18  1  0
M  CHG  1   6  -1
M  END
>  <PDB_ID>  (324) 
pdb2b3y

>  <RESIDUE_NAME>  (324) 
ASP   ARG

>  <FRAG_NAME>  (324) 
ACET   PRPA

>  <FRAG_ATOM_NUM>  (324) 
fragi: 7  fragj: 11

>  <atom.prop.CHAIN_ID>  (324) 
A A A A A A A Z Z Z Z Z Z Z Z Z Z Z

>  <atom.prop.IS_HEAVY_ATOM>  (324) 
1 0 0 0 1 1 1 1 0 0 0 1 0 0 1 0 0 0

>  <DIFUSE_FUNC_ATOM>  (324) 
atom 6   atom 7   

>  <FINAL_SINGLE_POINT_ENERGY>  (324) 
0

>  <NONCOV_INTER_ENERGY_QM>  (324) 
0

>  <FF_Energy>  (324) 
2.33

>  <QM_Energy>  (324) 
-3.93

>  <Index>  (324) 
23733

$$$$
ACET-pdb1b0o-A-GLU-55:PRPA-pdb1b0o-A-LYS-70
     RDKit          3D

 18 16  0  0  0  0  0  0  0  0999 V2000
   -0.0079    1.5167   -0.0156 C   0  0  0  0  0  0  0  0  0  0  0  0
   -0.6073    1.8033   -0.7435 H   0  0  0  0  0  0  0  0  0  0  0  0
    0.9194    1.8173   -0.1640 H   0  0  0  0  0  0  0  0  0  0  0  0
   -0.3658    1.9584    0.9144 H   0  0  0  0  0  0  0  0  0  0  0  0
    0.0000    0.0000    0.0000 C   0  0  0  0  0  0  0  0  0  0  0  0
   -1.0993   -0.6074   -0.0000 O   0  0  0  0  0  1  0  0  0  0  0  0
    1.0993   -0.5982    0.0000 O   0  0  0  0  0  0  0  0  0  0  0  0
    5.4885    0.8373   -0.8653 C   0  0  0  0  0  0  0  0  0  0  0  0
    5.7268    0.2685   -1.6587 H   0  0  0  0  0  0  0  0  0  0  0  0
    6.0412    0.5411   -0.0793 H   0  0  0  0  0  0  0  0  0  0  0  0
    5.7491    1.8705   -1.0948 H   0  0  0  0  0  0  0  0  0  0  0  0
    4.0241    0.5918   -0.5318 C   0  0  0  0  0  0  0  0  0  0  0  0
    3.6681    1.3775   -0.0315 H   0  0  0  0  0  0  0  0  0  0  0  0
    3.5124    0.4668   -1.3785 H   0  0  0  0  0  0  0  0  0  0  0  0
    3.8684   -0.6528    0.3281 C   0  0  0  0  0  0  0  0  0  0  0  0
    4.4772   -0.5859    1.1073 H   0  0  0  0  0  0  0  0  0  0  0  0
    2.9250   -0.7284    0.6217 H   0  0  0  0  0  0  0  0  0  0  0  0
    4.1276   -1.5477   -0.2376 H   0  0  0  0  0  0  0  0  0  0  0  0
  1  5  1  0
  5  6  1  0
  5  7  2  0
  1  2  1  0
  1  3  1  0
  1  4  1  0
  8 12  1  0
 12 15  1  0
  8  9  1  0
  8 10  1  0
  8 11  1  0
 12 13  1  0
 12 14  1  0
 15 16  1  0
 15 17  1  0
 15 18  1  0
M  CHG  1   6  -1
M  END
>  <PDB_ID>  (325) 
pdb1b0o

>  <RESIDUE_NAME>  (325) 
GLU   LYS

>  <FRAG_NAME>  (325) 
ACET   PRPA

>  <FRAG_ATOM_NUM>  (325) 
fragi: 7  fragj: 11

>  <atom.prop.CHAIN_ID>  (325) 
A A A A A A A Z Z Z Z Z Z Z Z Z Z Z

>  <atom.prop.IS_HEAVY_ATOM>  (325) 
1 0 0 0 1 1 1 1 0 0 0 1 0 0 1 0 0 0

>  <DIFUSE_FUNC_ATOM>  (325) 
atom 6   atom 7   

>  <FINAL_SINGLE_POINT_ENERGY>  (325) 
0

>  <NONCOV_INTER_ENERGY_QM>  (325) 
0

>  <FF_Energy>  (325) 
17.76

>  <QM_Energy>  (325) 
-1.48

>  <Index>  (325) 
23984

$$$$
ACET-pdb1b0o-A-GLU-55:PRPA-pdb1b0o-A-LYS-70
     RDKit          3D

 18 16  0  0  0  0  0  0  0  0999 V2000
   -0.0079    1.5167   -0.0156 C   0  0  0  0  0  0  0  0  0  0  0  0
   -0.6073    1.8033   -0.7435 H   0  0  0  0  0  0  0  0  0  0  0  0
    0.9194    1.8173   -0.1640 H   0  0  0  0  0  0  0  0  0  0  0  0
   -0.3658    1.9584    0.9144 H   0  0  0  0  0  0  0  0  0  0  0  0
    0.0000    0.0000    0.0000 C   0  0  0  0  0  0  0  0  0  0  0  0
   -1.0993   -0.6074   -0.0000 O   0  0  0  0  0  1  0  0  0  0  0  0
    1.0993   -0.5982    0.0000 O   0  0  0  0  0  0  0  0  0  0  0  0
    4.0241    0.5918   -0.5318 C   0  0  0  0  0  0  0  0  0  0  0  0
    3.6681    1.3775   -0.0315 H   0  0  0  0  0  0  0  0  0  0  0  0
    3.5124    0.4668   -1.3785 H   0  0  0  0  0  0  0  0  0  0  0  0
    5.0730    0.7676   -0.7707 H   0  0  0  0  0  0  0  0  0  0  0  0
    3.8684   -0.6528    0.3281 C   0  0  0  0  0  0  0  0  0  0  0  0
    4.4772   -0.5859    1.1073 H   0  0  0  0  0  0  0  0  0  0  0  0
    2.9250   -0.7284    0.6217 H   0  0  0  0  0  0  0  0  0  0  0  0
    4.2313   -1.9054   -0.4637 C   0  0  0  0  0  0  0  0  0  0  0  0
    3.5260   -2.0673   -1.1547 H   0  0  0  0  0  0  0  0  0  0  0  0
    5.1107   -1.7579   -0.9183 H   0  0  0  0  0  0  0  0  0  0  0  0
    4.3047   -2.7780    0.1853 H   0  0  0  0  0  0  0  0  0  0  0  0
  1  5  1  0
  5  6  1  0
  5  7  2  0
  1  2  1  0
  1  3  1  0
  1  4  1  0
  8 12  1  0
 12 15  1  0
  8  9  1  0
  8 10  1  0
  8 11  1  0
 12 13  1  0
 12 14  1  0
 15 16  1  0
 15 17  1  0
 15 18  1  0
M  CHG  1   6  -1
M  END
>  <PDB_ID>  (326) 
pdb1b0o

>  <RESIDUE_NAME>  (326) 
GLU   LYS

>  <FRAG_NAME>  (326) 
ACET   PRPA

>  <FRAG_ATOM_NUM>  (326) 
fragi: 7  fragj: 11

>  <atom.prop.CHAIN_ID>  (326) 
A A A A A A A Z Z Z Z Z Z Z Z Z Z Z

>  <atom.prop.IS_HEAVY_ATOM>  (326) 
1 0 0 0 1 1 1 1 0 0 0 1 0 0 1 0 0 0

>  <DIFUSE_FUNC_ATOM>  (326) 
atom 6   atom 7   

>  <FINAL_SINGLE_POINT_ENERGY>  (326) 
0

>  <NONCOV_INTER_ENERGY_QM>  (326) 
0

>  <FF_Energy>  (326) 
18.11

>  <QM_Energy>  (326) 
-2.58

>  <Index>  (326) 
24006

$$$$
ACET-pdb2a7k-H-GLU-29:PRPA-pdb2a7k-H-ARG-82
     RDKit          3D

 18 16  0  0  0  0  0  0  0  0999 V2000
   -0.0347    1.5177   -0.0048 C   0  0  0  0  0  0  0  0  0  0  0  0
    0.3375    1.8235   -0.8508 H   0  0  0  0  0  0  0  0  0  0  0  0
    0.4529    1.8316    0.7773 H   0  0  0  0  0  0  0  0  0  0  0  0
   -1.0588    1.8844    0.0650 H   0  0  0  0  0  0  0  0  0  0  0  0
    0.0000    0.0000    0.0000 C   0  0  0  0  0  0  0  0  0  0  0  0
   -1.0878   -0.5878   -0.0000 O   0  0  0  0  0  1  0  0  0  0  0  0
    1.0878   -0.6231    0.0000 O   0  0  0  0  0  0  0  0  0  0  0  0
   -1.4444   -3.3490   -2.4598 C   0  0  0  0  0  0  0  0  0  0  0  0
   -0.7774   -4.0931   -2.5480 H   0  0  0  0  0  0  0  0  0  0  0  0
   -0.9676   -2.5188   -2.1593 H   0  0  0  0  0  0  0  0  0  0  0  0
   -1.8434   -3.1515   -3.4548 H   0  0  0  0  0  0  0  0  0  0  0  0
   -2.4553   -3.7143   -1.4749 C   0  0  0  0  0  0  0  0  0  0  0  0
   -3.3220   -3.2733   -1.6759 H   0  0  0  0  0  0  0  0  0  0  0  0
   -2.5656   -4.6990   -1.4287 H   0  0  0  0  0  0  0  0  0  0  0  0
   -1.9919   -3.2377   -0.1358 C   0  0  0  0  0  0  0  0  0  0  0  0
   -1.4662   -2.3826   -0.2659 H   0  0  0  0  0  0  0  0  0  0  0  0
   -2.8070   -3.0156    0.4215 H   0  0  0  0  0  0  0  0  0  0  0  0
   -1.3744   -3.9479    0.4140 H   0  0  0  0  0  0  0  0  0  0  0  0
  1  5  1  0
  5  6  1  0
  5  7  2  0
  1  2  1  0
  1  3  1  0
  1  4  1  0
  8 12  1  0
 12 15  1  0
  8  9  1  0
  8 10  1  0
  8 11  1  0
 12 13  1  0
 12 14  1  0
 15 16  1  0
 15 17  1  0
 15 18  1  0
M  CHG  1   6  -1
M  END
>  <PDB_ID>  (327) 
pdb2a7k

>  <RESIDUE_NAME>  (327) 
GLU   ARG

>  <FRAG_NAME>  (327) 
ACET   PRPA

>  <FRAG_ATOM_NUM>  (327) 
fragi: 7  fragj: 11

>  <atom.prop.CHAIN_ID>  (327) 
A A A A A A A Z Z Z Z Z Z Z Z Z Z Z

>  <atom.prop.IS_HEAVY_ATOM>  (327) 
1 0 0 0 1 1 1 1 0 0 0 1 0 0 1 0 0 0

>  <DIFUSE_FUNC_ATOM>  (327) 
atom 6   atom 7   

>  <FINAL_SINGLE_POINT_ENERGY>  (327) 
0

>  <NONCOV_INTER_ENERGY_QM>  (327) 
0

>  <FF_Energy>  (327) 
2.91

>  <QM_Energy>  (327) 
-0.93

>  <Index>  (327) 
24154

$$$$
ACET-pdb1ayx-A-GLU-96:PRPA-pdb1ayx-A-VAL-170
     RDKit          3D

 18 16  0  0  0  0  0  0  0  0999 V2000
   -0.0543    1.5352   -0.0268 C   0  0  0  0  0  0  0  0  0  0  0  0
    0.0945    1.8027   -0.9847 H   0  0  0  0  0  0  0  0  0  0  0  0
    0.7289    1.8507    0.5186 H   0  0  0  0  0  0  0  0  0  0  0  0
   -0.9610    2.0167    0.3396 H   0  0  0  0  0  0  0  0  0  0  0  0
    0.0000    0.0000    0.0000 C   0  0  0  0  0  0  0  0  0  0  0  0
   -1.0907   -0.5623    0.0000 O   0  0  0  0  0  1  0  0  0  0  0  0
    1.0907   -0.5633   -0.0000 O   0  0  0  0  0  0  0  0  0  0  0  0
    0.3247   -3.4225    2.2302 C   0  0  0  0  0  0  0  0  0  0  0  0
    0.6745   -4.3497    2.4726 H   0  0  0  0  0  0  0  0  0  0  0  0
    0.6671   -3.2032    1.2189 H   0  0  0  0  0  0  0  0  0  0  0  0
   -0.7601   -3.4207    2.3363 H   0  0  0  0  0  0  0  0  0  0  0  0
    0.9922   -2.5273    3.3006 C   0  0  0  0  0  0  0  0  0  0  0  0
    1.9851   -2.6854    3.2472 H   0  0  0  0  0  0  0  0  0  0  0  0
    0.6044   -2.7004    4.3045 H   0  0  0  0  0  0  0  0  0  0  0  0
    0.7649   -1.0432    3.0773 C   0  0  0  0  0  0  0  0  0  0  0  0
    1.6343   -0.5544    3.1585 H   0  0  0  0  0  0  0  0  0  0  0  0
    0.3852   -0.8950    2.1630 H   0  0  0  0  0  0  0  0  0  0  0  0
    0.1242   -0.6949    3.7627 H   0  0  0  0  0  0  0  0  0  0  0  0
  1  5  1  0
  5  6  1  0
  5  7  2  0
  1  2  1  0
  1  3  1  0
  1  4  1  0
  8 12  1  0
 12 15  1  0
  8  9  1  0
  8 10  1  0
  8 11  1  0
 12 13  1  0
 12 14  1  0
 15 16  1  0
 15 17  1  0
 15 18  1  0
M  CHG  1   6  -1
M  END
>  <PDB_ID>  (328) 
pdb1ayx

>  <RESIDUE_NAME>  (328) 
GLU   VAL

>  <FRAG_NAME>  (328) 
ACET   PRPA

>  <FRAG_ATOM_NUM>  (328) 
fragi: 7  fragj: 11

>  <atom.prop.CHAIN_ID>  (328) 
A A A A A A A Z Z Z Z Z Z Z Z Z Z Z

>  <atom.prop.IS_HEAVY_ATOM>  (328) 
1 0 0 0 1 1 1 1 0 0 0 1 0 0 1 0 0 0

>  <DIFUSE_FUNC_ATOM>  (328) 
atom 6   atom 7   

>  <FINAL_SINGLE_POINT_ENERGY>  (328) 
0

>  <NONCOV_INTER_ENERGY_QM>  (328) 
0

>  <FF_Energy>  (328) 
1.25

>  <QM_Energy>  (328) 
-3.19

>  <Index>  (328) 
24382

$$$$
ACET-pdb1ayx-A-GLU-96:PRPA-pdb1ayx-A-VAL-170
     RDKit          3D

 18 16  0  0  0  0  0  0  0  0999 V2000
   -0.0543    1.5352   -0.0268 C   0  0  0  0  0  0  0  0  0  0  0  0
    0.0945    1.8027   -0.9847 H   0  0  0  0  0  0  0  0  0  0  0  0
    0.7289    1.8507    0.5186 H   0  0  0  0  0  0  0  0  0  0  0  0
   -0.9610    2.0167    0.3396 H   0  0  0  0  0  0  0  0  0  0  0  0
    0.0000    0.0000    0.0000 C   0  0  0  0  0  0  0  0  0  0  0  0
   -1.0907   -0.5623    0.0000 O   0  0  0  0  0  1  0  0  0  0  0  0
    1.0907   -0.5633   -0.0000 O   0  0  0  0  0  0  0  0  0  0  0  0
    0.7649   -1.0432    3.0773 C   0  0  0  0  0  0  0  0  0  0  0  0
    1.6343   -0.5544    3.1585 H   0  0  0  0  0  0  0  0  0  0  0  0
    0.3852   -0.8950    2.1630 H   0  0  0  0  0  0  0  0  0  0  0  0
    0.1242   -0.6949    3.7627 H   0  0  0  0  0  0  0  0  0  0  0  0
    0.9922   -2.5273    3.3006 C   0  0  0  0  0  0  0  0  0  0  0  0
    1.9851   -2.6854    3.2472 H   0  0  0  0  0  0  0  0  0  0  0  0
    0.5218   -3.1581    2.5464 H   0  0  0  0  0  0  0  0  0  0  0  0
    0.4502   -2.7692    4.7039 C   0  0  0  0  0  0  0  0  0  0  0  0
   -0.4765   -2.4010    4.7669 H   0  0  0  0  0  0  0  0  0  0  0  0
    0.4360   -3.7514    4.8866 H   0  0  0  0  0  0  0  0  0  0  0  0
    1.0405   -2.3115    5.3684 H   0  0  0  0  0  0  0  0  0  0  0  0
  1  5  1  0
  5  6  1  0
  5  7  2  0
  1  2  1  0
  1  3  1  0
  1  4  1  0
  8 12  1  0
 12 15  1  0
  8  9  1  0
  8 10  1  0
  8 11  1  0
 12 13  1  0
 12 14  1  0
 15 16  1  0
 15 17  1  0
 15 18  1  0
M  CHG  1   6  -1
M  END
>  <PDB_ID>  (329) 
pdb1ayx

>  <RESIDUE_NAME>  (329) 
GLU   VAL

>  <FRAG_NAME>  (329) 
ACET   PRPA

>  <FRAG_ATOM_NUM>  (329) 
fragi: 7  fragj: 11

>  <atom.prop.CHAIN_ID>  (329) 
A A A A A A A Z Z Z Z Z Z Z Z Z Z Z

>  <atom.prop.IS_HEAVY_ATOM>  (329) 
1 0 0 0 1 1 1 1 0 0 0 1 0 0 1 0 0 0

>  <DIFUSE_FUNC_ATOM>  (329) 
atom 6   atom 7   

>  <FINAL_SINGLE_POINT_ENERGY>  (329) 
0

>  <NONCOV_INTER_ENERGY_QM>  (329) 
0

>  <FF_Energy>  (329) 
5.82

>  <QM_Energy>  (329) 
-2.29

>  <Index>  (329) 
24410

$$$$
ACET-pdb2bh0-A-GLU-208:PRPA-pdb2bh0-A-LYS-107
     RDKit          3D

 18 16  0  0  0  0  0  0  0  0999 V2000
   -0.0030    1.5217    0.0014 C   0  0  0  0  0  0  0  0  0  0  0  0
    0.9253    1.8188   -0.0882 H   0  0  0  0  0  0  0  0  0  0  0  0
   -0.4179    1.8150    0.8385 H   0  0  0  0  0  0  0  0  0  0  0  0
   -0.5769    1.9296   -0.8309 H   0  0  0  0  0  0  0  0  0  0  0  0
    0.0000    0.0000    0.0000 C   0  0  0  0  0  0  0  0  0  0  0  0
   -1.0997   -0.6000    0.0000 O   0  0  0  0  0  1  0  0  0  0  0  0
    1.0997   -0.5956    0.0000 O   0  0  0  0  0  0  0  0  0  0  0  0
   -0.2309   -3.5718   -3.3128 C   0  0  0  0  0  0  0  0  0  0  0  0
    0.5444   -4.1017   -2.9601 H   0  0  0  0  0  0  0  0  0  0  0  0
    0.0945   -2.9554   -4.0331 H   0  0  0  0  0  0  0  0  0  0  0  0
   -0.9589   -4.2603   -3.7419 H   0  0  0  0  0  0  0  0  0  0  0  0
   -0.8179   -2.7437   -2.1823 C   0  0  0  0  0  0  0  0  0  0  0  0
   -0.2233   -1.9632   -2.0110 H   0  0  0  0  0  0  0  0  0  0  0  0
   -1.7262   -2.4322   -2.4457 H   0  0  0  0  0  0  0  0  0  0  0  0
   -0.9390   -3.5509   -0.8958 C   0  0  0  0  0  0  0  0  0  0  0  0
   -1.4447   -3.0086   -0.2176 H   0  0  0  0  0  0  0  0  0  0  0  0
   -1.4556   -4.3919   -1.0855 H   0  0  0  0  0  0  0  0  0  0  0  0
    0.0323   -3.8194   -0.4804 H   0  0  0  0  0  0  0  0  0  0  0  0
  1  5  1  0
  5  6  1  0
  5  7  2  0
  1  2  1  0
  1  3  1  0
  1  4  1  0
  8 12  1  0
 12 15  1  0
  8  9  1  0
  8 10  1  0
  8 11  1  0
 12 13  1  0
 12 14  1  0
 15 16  1  0
 15 17  1  0
 15 18  1  0
M  CHG  1   6  -1
M  END
>  <PDB_ID>  (330) 
pdb2bh0

>  <RESIDUE_NAME>  (330) 
GLU   LYS

>  <FRAG_NAME>  (330) 
ACET   PRPA

>  <FRAG_ATOM_NUM>  (330) 
fragi: 7  fragj: 11

>  <atom.prop.CHAIN_ID>  (330) 
A A A A A A A Z Z Z Z Z Z Z Z Z Z Z

>  <atom.prop.IS_HEAVY_ATOM>  (330) 
1 0 0 0 1 1 1 1 0 0 0 1 0 0 1 0 0 0

>  <DIFUSE_FUNC_ATOM>  (330) 
atom 6   atom 7   

>  <FINAL_SINGLE_POINT_ENERGY>  (330) 
0

>  <NONCOV_INTER_ENERGY_QM>  (330) 
0

>  <FF_Energy>  (330) 
0.79

>  <QM_Energy>  (330) 
-4.48

>  <Index>  (330) 
24464

$$$$
ACET-pdb2b3z-A-ASP-220:PRPA-pdb2b3z-A-LEU-223
     RDKit          3D

 18 16  0  0  0  0  0  0  0  0999 V2000
    0.0174    1.5119   -0.0226 C   0  0  0  0  0  0  0  0  0  0  0  0
    0.4026    1.8172   -0.8885 H   0  0  0  0  0  0  0  0  0  0  0  0
    0.5715    1.8394    0.7356 H   0  0  0  0  0  0  0  0  0  0  0  0
   -0.9752    1.9517    0.0741 H   0  0  0  0  0  0  0  0  0  0  0  0
    0.0000    0.0000    0.0000 C   0  0  0  0  0  0  0  0  0  0  0  0
   -1.1016   -0.6035   -0.0000 O   0  0  0  0  0  1  0  0  0  0  0  0
    1.1016   -0.5921   -0.0000 O   0  0  0  0  0  0  0  0  0  0  0  0
    0.5239   -1.6442    2.7732 C   0  0  0  0  0  0  0  0  0  0  0  0
    0.8933   -0.9389    2.1724 H   0  0  0  0  0  0  0  0  0  0  0  0
   -0.5241   -1.4241    2.9768 H   0  0  0  0  0  0  0  0  0  0  0  0
    0.5816   -2.6014    2.2552 H   0  0  0  0  0  0  0  0  0  0  0  0
    1.3248   -1.7433    4.0759 C   0  0  0  0  0  0  0  0  0  0  0  0
    0.7753   -1.3120    4.8079 H   0  0  0  0  0  0  0  0  0  0  0  0
    1.4228   -2.7238    4.3018 H   0  0  0  0  0  0  0  0  0  0  0  0
    2.7374   -1.1252    4.1626 C   0  0  0  0  0  0  0  0  0  0  0  0
    2.6960   -0.3153    4.7390 H   0  0  0  0  0  0  0  0  0  0  0  0
    3.4315   -1.8464    4.5941 H   0  0  0  0  0  0  0  0  0  0  0  0
    3.0774   -0.7664    3.1911 H   0  0  0  0  0  0  0  0  0  0  0  0
  1  5  1  0
  5  6  1  0
  5  7  2  0
  1  2  1  0
  1  3  1  0
  1  4  1  0
  8 12  1  0
 12 15  1  0
  8  9  1  0
  8 10  1  0
  8 11  1  0
 12 13  1  0
 12 14  1  0
 15 16  1  0
 15 17  1  0
 15 18  1  0
M  CHG  1   6  -1
M  END
>  <PDB_ID>  (331) 
pdb2b3z

>  <RESIDUE_NAME>  (331) 
ASP   LEU

>  <FRAG_NAME>  (331) 
ACET   PRPA

>  <FRAG_ATOM_NUM>  (331) 
fragi: 7  fragj: 11

>  <atom.prop.CHAIN_ID>  (331) 
A A A A A A A Z Z Z Z Z Z Z Z Z Z Z

>  <atom.prop.IS_HEAVY_ATOM>  (331) 
1 0 0 0 1 1 1 1 0 0 0 1 0 0 1 0 0 0

>  <DIFUSE_FUNC_ATOM>  (331) 
atom 6   atom 7   

>  <FINAL_SINGLE_POINT_ENERGY>  (331) 
0

>  <NONCOV_INTER_ENERGY_QM>  (331) 
0

>  <FF_Energy>  (331) 
4.49

>  <QM_Energy>  (331) 
-1.71

>  <Index>  (331) 
24510

$$$$
ACET-pdb2ash-A-GLU-293:PRPA-pdb2ash-C-ARG-290
     RDKit          3D

 18 16  0  0  0  0  0  0  0  0999 V2000
   -0.0583    1.5286   -0.0682 C   0  0  0  0  0  0  0  0  0  0  0  0
    0.8418    1.8488   -0.2613 H   0  0  0  0  0  0  0  0  0  0  0  0
   -0.4147    1.8475    0.7816 H   0  0  0  0  0  0  0  0  0  0  0  0
   -0.7193    1.8674   -0.8660 H   0  0  0  0  0  0  0  0  0  0  0  0
    0.0000    0.0000    0.0000 C   0  0  0  0  0  0  0  0  0  0  0  0
   -1.1210   -0.5690    0.0000 O   0  0  0  0  0  1  0  0  0  0  0  0
    1.1210   -0.6118    0.0000 O   0  0  0  0  0  0  0  0  0  0  0  0
    0.9646    0.5669    3.5908 C   0  0  0  0  0  0  0  0  0  0  0  0
    0.4213    1.1587    2.9948 H   0  0  0  0  0  0  0  0  0  0  0  0
    1.7045    0.1534    3.0604 H   0  0  0  0  0  0  0  0  0  0  0  0
    1.4048    1.1808    4.3766 H   0  0  0  0  0  0  0  0  0  0  0  0
    0.0800   -0.5313    4.0959 C   0  0  0  0  0  0  0  0  0  0  0  0
    0.5841   -1.1325    4.6957 H   0  0  0  0  0  0  0  0  0  0  0  0
   -0.7156   -0.1550    4.5448 H   0  0  0  0  0  0  0  0  0  0  0  0
   -0.4103   -1.3646    2.9066 C   0  0  0  0  0  0  0  0  0  0  0  0
   -1.3107   -1.0547    2.6786 H   0  0  0  0  0  0  0  0  0  0  0  0
    0.2324   -1.2448    2.1768 H   0  0  0  0  0  0  0  0  0  0  0  0
   -0.4342   -2.4055    3.2293 H   0  0  0  0  0  0  0  0  0  0  0  0
  1  5  1  0
  5  6  1  0
  5  7  2  0
  1  2  1  0
  1  3  1  0
  1  4  1  0
  8 12  1  0
 12 15  1  0
  8  9  1  0
  8 10  1  0
  8 11  1  0
 12 13  1  0
 12 14  1  0
 15 16  1  0
 15 17  1  0
 15 18  1  0
M  CHG  1   6  -1
M  END
>  <PDB_ID>  (332) 
pdb2ash

>  <RESIDUE_NAME>  (332) 
GLU   ARG

>  <FRAG_NAME>  (332) 
ACET   PRPA

>  <FRAG_ATOM_NUM>  (332) 
fragi: 7  fragj: 11

>  <atom.prop.CHAIN_ID>  (332) 
A A A A A A A Z Z Z Z Z Z Z Z Z Z Z

>  <atom.prop.IS_HEAVY_ATOM>  (332) 
1 0 0 0 1 1 1 1 0 0 0 1 0 0 1 0 0 0

>  <DIFUSE_FUNC_ATOM>  (332) 
atom 6   atom 7   

>  <FINAL_SINGLE_POINT_ENERGY>  (332) 
0

>  <NONCOV_INTER_ENERGY_QM>  (332) 
0

>  <FF_Energy>  (332) 
2.13

>  <QM_Energy>  (332) 
-3.49

>  <Index>  (332) 
24529

$$$$
ACET-pdb2bjd-A-GLU-62:PRPA-pdb2bjd-A-LYS-14
     RDKit          3D

 18 16  0  0  0  0  0  0  0  0999 V2000
    0.0061    1.5055   -0.0020 C   0  0  0  0  0  0  0  0  0  0  0  0
    0.9191    1.8008   -0.2243 H   0  0  0  0  0  0  0  0  0  0  0  0
   -0.2704    1.8061    0.8943 H   0  0  0  0  0  0  0  0  0  0  0  0
   -0.6807    1.9267   -0.7361 H   0  0  0  0  0  0  0  0  0  0  0  0
    0.0000    0.0000    0.0000 C   0  0  0  0  0  0  0  0  0  0  0  0
   -1.0950   -0.6067   -0.0000 O   0  0  0  0  0  1  0  0  0  0  0  0
    1.0950   -0.5581   -0.0000 O   0  0  0  0  0  0  0  0  0  0  0  0
    4.0367    3.4262    0.1641 C   0  0  0  0  0  0  0  0  0  0  0  0
    3.3821    4.0427   -0.2985 H   0  0  0  0  0  0  0  0  0  0  0  0
    4.8205    3.2885   -0.4621 H   0  0  0  0  0  0  0  0  0  0  0  0
    4.4074    3.9403    1.0509 H   0  0  0  0  0  0  0  0  0  0  0  0
    3.3674    2.1033    0.3880 C   0  0  0  0  0  0  0  0  0  0  0  0
    3.0966    2.0272    1.3520 H   0  0  0  0  0  0  0  0  0  0  0  0
    2.5447    2.0451   -0.1846 H   0  0  0  0  0  0  0  0  0  0  0  0
    4.2819    0.9608    0.0471 C   0  0  0  0  0  0  0  0  0  0  0  0
    3.9477    0.1322    0.4955 H   0  0  0  0  0  0  0  0  0  0  0  0
    4.2834    0.8285   -0.9435 H   0  0  0  0  0  0  0  0  0  0  0  0
    5.3028    1.1522    0.3773 H   0  0  0  0  0  0  0  0  0  0  0  0
  1  5  1  0
  5  6  1  0
  5  7  2  0
  1  2  1  0
  1  3  1  0
  1  4  1  0
  8 12  1  0
 12 15  1  0
  8  9  1  0
  8 10  1  0
  8 11  1  0
 12 13  1  0
 12 14  1  0
 15 16  1  0
 15 17  1  0
 15 18  1  0
M  CHG  1   6  -1
M  END
>  <PDB_ID>  (333) 
pdb2bjd

>  <RESIDUE_NAME>  (333) 
GLU   LYS

>  <FRAG_NAME>  (333) 
ACET   PRPA

>  <FRAG_ATOM_NUM>  (333) 
fragi: 7  fragj: 11

>  <atom.prop.CHAIN_ID>  (333) 
A A A A A A A Z Z Z Z Z Z Z Z Z Z Z

>  <atom.prop.IS_HEAVY_ATOM>  (333) 
1 0 0 0 1 1 1 1 0 0 0 1 0 0 1 0 0 0

>  <DIFUSE_FUNC_ATOM>  (333) 
atom 6   atom 7   

>  <FINAL_SINGLE_POINT_ENERGY>  (333) 
0

>  <NONCOV_INTER_ENERGY_QM>  (333) 
0

>  <FF_Energy>  (333) 
16.9

>  <QM_Energy>  (333) 
-0.55

>  <Index>  (333) 
24563

$$$$
ACET-pdb1aqd-B-GLU-36:PRPA-pdb1aqd-B-ARG-29
     RDKit          3D

 18 16  0  0  0  0  0  0  0  0999 V2000
    0.0023    1.5183   -0.0179 C   0  0  0  0  0  0  0  0  0  0  0  0
    0.2471    1.8081   -0.9255 H   0  0  0  0  0  0  0  0  0  0  0  0
    0.6514    1.8254    0.6554 H   0  0  0  0  0  0  0  0  0  0  0  0
   -0.9647    1.9599    0.2234 H   0  0  0  0  0  0  0  0  0  0  0  0
    0.0000    0.0000    0.0000 C   0  0  0  0  0  0  0  0  0  0  0  0
   -1.0833   -0.6157    0.0000 O   0  0  0  0  0  1  0  0  0  0  0  0
    1.0833   -0.6039    0.0000 O   0  0  0  0  0  0  0  0  0  0  0  0
    4.3529    1.0235    1.7998 C   0  0  0  0  0  0  0  0  0  0  0  0
    4.2873    0.9180    0.8024 H   0  0  0  0  0  0  0  0  0  0  0  0
    5.2822    0.5579    2.1282 H   0  0  0  0  0  0  0  0  0  0  0  0
    4.3782    2.0797    2.0680 H   0  0  0  0  0  0  0  0  0  0  0  0
    3.1590    0.4428    2.5708 C   0  0  0  0  0  0  0  0  0  0  0  0
    3.3191    0.5922    3.5480 H   0  0  0  0  0  0  0  0  0  0  0  0
    2.3369    0.9419    2.2917 H   0  0  0  0  0  0  0  0  0  0  0  0
    2.8974   -1.0448    2.3605 C   0  0  0  0  0  0  0  0  0  0  0  0
    2.4515   -1.1683    1.4785 H   0  0  0  0  0  0  0  0  0  0  0  0
    3.7699   -1.5256    2.3727 H   0  0  0  0  0  0  0  0  0  0  0  0
    2.2560   -1.4297    3.1533 H   0  0  0  0  0  0  0  0  0  0  0  0
  1  5  1  0
  5  6  1  0
  5  7  2  0
  1  2  1  0
  1  3  1  0
  1  4  1  0
  8 12  1  0
 12 15  1  0
  8  9  1  0
  8 10  1  0
  8 11  1  0
 12 13  1  0
 12 14  1  0
 15 16  1  0
 15 17  1  0
 15 18  1  0
M  CHG  1   6  -1
M  END
>  <PDB_ID>  (334) 
pdb1aqd

>  <RESIDUE_NAME>  (334) 
GLU   ARG

>  <FRAG_NAME>  (334) 
ACET   PRPA

>  <FRAG_ATOM_NUM>  (334) 
fragi: 7  fragj: 11

>  <atom.prop.CHAIN_ID>  (334) 
A A A A A A A Z Z Z Z Z Z Z Z Z Z Z

>  <atom.prop.IS_HEAVY_ATOM>  (334) 
1 0 0 0 1 1 1 1 0 0 0 1 0 0 1 0 0 0

>  <DIFUSE_FUNC_ATOM>  (334) 
atom 6   atom 7   

>  <FINAL_SINGLE_POINT_ENERGY>  (334) 
0

>  <NONCOV_INTER_ENERGY_QM>  (334) 
0

>  <FF_Energy>  (334) 
5.39

>  <QM_Energy>  (334) 
-3.81

>  <Index>  (334) 
24664

$$$$
ACET-pdb2b8e-A-GLU-611:PRPA-pdb2b8e-A-LYS-567
     RDKit          3D

 18 16  0  0  0  0  0  0  0  0999 V2000
   -0.0197    1.4966    0.0116 C   0  0  0  0  0  0  0  0  0  0  0  0
    0.7306    1.8156   -0.5316 H   0  0  0  0  0  0  0  0  0  0  0  0
    0.0329    1.7949    0.9435 H   0  0  0  0  0  0  0  0  0  0  0  0
   -0.9412    1.8880   -0.4196 H   0  0  0  0  0  0  0  0  0  0  0  0
    0.0000    0.0000    0.0000 C   0  0  0  0  0  0  0  0  0  0  0  0
   -1.0985   -0.5923   -0.0000 O   0  0  0  0  0  1  0  0  0  0  0  0
    1.0985   -0.5847    0.0000 O   0  0  0  0  0  0  0  0  0  0  0  0
    4.5019   -0.5164   -2.4232 C   0  0  0  0  0  0  0  0  0  0  0  0
    5.2877   -1.1294   -2.4587 H   0  0  0  0  0  0  0  0  0  0  0  0
    4.7872    0.3847   -2.1059 H   0  0  0  0  0  0  0  0  0  0  0  0
    4.0697   -0.4277   -3.4199 H   0  0  0  0  0  0  0  0  0  0  0  0
    3.4835   -1.0821   -1.4415 C   0  0  0  0  0  0  0  0  0  0  0  0
    2.7258   -0.4447   -1.3628 H   0  0  0  0  0  0  0  0  0  0  0  0
    3.1666   -1.9613   -1.7782 H   0  0  0  0  0  0  0  0  0  0  0  0
    4.0987   -1.2793   -0.0674 C   0  0  0  0  0  0  0  0  0  0  0  0
    4.8715   -1.9225   -0.1453 H   0  0  0  0  0  0  0  0  0  0  0  0
    4.4585   -0.3959    0.2587 H   0  0  0  0  0  0  0  0  0  0  0  0
    3.3883   -1.6648    0.6640 H   0  0  0  0  0  0  0  0  0  0  0  0
  1  5  1  0
  5  6  1  0
  5  7  2  0
  1  2  1  0
  1  3  1  0
  1  4  1  0
  8 12  1  0
 12 15  1  0
  8  9  1  0
  8 10  1  0
  8 11  1  0
 12 13  1  0
 12 14  1  0
 15 16  1  0
 15 17  1  0
 15 18  1  0
M  CHG  1   6  -1
M  END
>  <PDB_ID>  (335) 
pdb2b8e

>  <RESIDUE_NAME>  (335) 
GLU   LYS

>  <FRAG_NAME>  (335) 
ACET   PRPA

>  <FRAG_ATOM_NUM>  (335) 
fragi: 7  fragj: 11

>  <atom.prop.CHAIN_ID>  (335) 
A A A A A A A Z Z Z Z Z Z Z Z Z Z Z

>  <atom.prop.IS_HEAVY_ATOM>  (335) 
1 0 0 0 1 1 1 1 0 0 0 1 0 0 1 0 0 0

>  <DIFUSE_FUNC_ATOM>  (335) 
atom 6   atom 7   

>  <FINAL_SINGLE_POINT_ENERGY>  (335) 
0

>  <NONCOV_INTER_ENERGY_QM>  (335) 
0

>  <FF_Energy>  (335) 
42.45

>  <QM_Energy>  (335) 
-1.88

>  <Index>  (335) 
24729

$$$$
ACET-pdb1b0o-A-ASP-98:PRPA-pdb1b0o-A-LYS-101
     RDKit          3D

 18 16  0  0  0  0  0  0  0  0999 V2000
    0.0238    1.5133   -0.0049 C   0  0  0  0  0  0  0  0  0  0  0  0
    0.8408    1.8188   -0.4805 H   0  0  0  0  0  0  0  0  0  0  0  0
    0.0273    1.8368    0.9342 H   0  0  0  0  0  0  0  0  0  0  0  0
   -0.8414    1.9444   -0.5088 H   0  0  0  0  0  0  0  0  0  0  0  0
    0.0000    0.0000    0.0000 C   0  0  0  0  0  0  0  0  0  0  0  0
   -1.0940   -0.6032    0.0000 O   0  0  0  0  0  1  0  0  0  0  0  0
    1.0940   -0.5999   -0.0000 O   0  0  0  0  0  0  0  0  0  0  0  0
   -0.8012   -3.6821    0.5194 C   0  0  0  0  0  0  0  0  0  0  0  0
   -0.5478   -4.6331    0.3096 H   0  0  0  0  0  0  0  0  0  0  0  0
   -1.0380   -3.1651   -0.4105 H   0  0  0  0  0  0  0  0  0  0  0  0
   -1.6631   -3.6910    1.1867 H   0  0  0  0  0  0  0  0  0  0  0  0
    0.3831   -3.0373    1.2292 C   0  0  0  0  0  0  0  0  0  0  0  0
    0.4102   -2.0649    0.9741 H   0  0  0  0  0  0  0  0  0  0  0  0
    0.2265   -3.1016    2.2207 H   0  0  0  0  0  0  0  0  0  0  0  0
    1.7427   -3.6436    0.9250 C   0  0  0  0  0  0  0  0  0  0  0  0
    2.4581   -3.0346    1.2802 H   0  0  0  0  0  0  0  0  0  0  0  0
    1.8149   -4.5321    1.3849 H   0  0  0  0  0  0  0  0  0  0  0  0
    1.9003   -3.7863   -0.1440 H   0  0  0  0  0  0  0  0  0  0  0  0
  1  5  1  0
  5  6  1  0
  5  7  2  0
  1  2  1  0
  1  3  1  0
  1  4  1  0
  8 12  1  0
 12 15  1  0
  8  9  1  0
  8 10  1  0
  8 11  1  0
 12 13  1  0
 12 14  1  0
 15 16  1  0
 15 17  1  0
 15 18  1  0
M  CHG  1   6  -1
M  END
>  <PDB_ID>  (336) 
pdb1b0o

>  <RESIDUE_NAME>  (336) 
ASP   LYS

>  <FRAG_NAME>  (336) 
ACET   PRPA

>  <FRAG_ATOM_NUM>  (336) 
fragi: 7  fragj: 11

>  <atom.prop.CHAIN_ID>  (336) 
A A A A A A A Z Z Z Z Z Z Z Z Z Z Z

>  <atom.prop.IS_HEAVY_ATOM>  (336) 
1 0 0 0 1 1 1 1 0 0 0 1 0 0 1 0 0 0

>  <DIFUSE_FUNC_ATOM>  (336) 
atom 6   atom 7   

>  <FINAL_SINGLE_POINT_ENERGY>  (336) 
0

>  <NONCOV_INTER_ENERGY_QM>  (336) 
0

>  <FF_Energy>  (336) 
24.62

>  <QM_Energy>  (336) 
-0.99

>  <Index>  (336) 
24783

$$$$
ACET-pdb1b0o-A-ASP-98:PRPA-pdb1b0o-A-LYS-101
     RDKit          3D

 18 16  0  0  0  0  0  0  0  0999 V2000
    0.0238    1.5133   -0.0049 C   0  0  0  0  0  0  0  0  0  0  0  0
    0.8408    1.8188   -0.4805 H   0  0  0  0  0  0  0  0  0  0  0  0
    0.0273    1.8368    0.9342 H   0  0  0  0  0  0  0  0  0  0  0  0
   -0.8414    1.9444   -0.5088 H   0  0  0  0  0  0  0  0  0  0  0  0
    0.0000    0.0000    0.0000 C   0  0  0  0  0  0  0  0  0  0  0  0
   -1.0940   -0.6032    0.0000 O   0  0  0  0  0  1  0  0  0  0  0  0
    1.0940   -0.5999   -0.0000 O   0  0  0  0  0  0  0  0  0  0  0  0
    0.3831   -3.0373    1.2292 C   0  0  0  0  0  0  0  0  0  0  0  0
    0.4102   -2.0649    0.9741 H   0  0  0  0  0  0  0  0  0  0  0  0
    0.2265   -3.1016    2.2207 H   0  0  0  0  0  0  0  0  0  0  0  0
   -0.4640   -3.4985    0.7215 H   0  0  0  0  0  0  0  0  0  0  0  0
    1.7427   -3.6436    0.9250 C   0  0  0  0  0  0  0  0  0  0  0  0
    2.4581   -3.0346    1.2802 H   0  0  0  0  0  0  0  0  0  0  0  0
    1.8149   -4.5321    1.3849 H   0  0  0  0  0  0  0  0  0  0  0  0
    1.9621   -3.8422   -0.5629 C   0  0  0  0  0  0  0  0  0  0  0  0
    2.2166   -4.7930   -0.7282 H   0  0  0  0  0  0  0  0  0  0  0  0
    1.1159   -3.6295   -1.0474 H   0  0  0  0  0  0  0  0  0  0  0  0
    2.7530   -3.2004   -0.9509 H   0  0  0  0  0  0  0  0  0  0  0  0
  1  5  1  0
  5  6  1  0
  5  7  2  0
  1  2  1  0
  1  3  1  0
  1  4  1  0
  8 12  1  0
 12 15  1  0
  8  9  1  0
  8 10  1  0
  8 11  1  0
 12 13  1  0
 12 14  1  0
 15 16  1  0
 15 17  1  0
 15 18  1  0
M  CHG  1   6  -1
M  END
>  <PDB_ID>  (337) 
pdb1b0o

>  <RESIDUE_NAME>  (337) 
ASP   LYS

>  <FRAG_NAME>  (337) 
ACET   PRPA

>  <FRAG_ATOM_NUM>  (337) 
fragi: 7  fragj: 11

>  <atom.prop.CHAIN_ID>  (337) 
A A A A A A A Z Z Z Z Z Z Z Z Z Z Z

>  <atom.prop.IS_HEAVY_ATOM>  (337) 
1 0 0 0 1 1 1 1 0 0 0 1 0 0 1 0 0 0

>  <DIFUSE_FUNC_ATOM>  (337) 
atom 6   atom 7   

>  <FINAL_SINGLE_POINT_ENERGY>  (337) 
0

>  <NONCOV_INTER_ENERGY_QM>  (337) 
0

>  <FF_Energy>  (337) 
0.66

>  <QM_Energy>  (337) 
-0.14

>  <Index>  (337) 
24790

$$$$
ACET-pdb1az0-A-ASP-19:PRPA-pdb1az0-A-LYS-161
     RDKit          3D

 18 16  0  0  0  0  0  0  0  0999 V2000
    0.0379    1.5162   -0.0196 C   0  0  0  0  0  0  0  0  0  0  0  0
    0.5298    1.8136   -0.8372 H   0  0  0  0  0  0  0  0  0  0  0  0
    0.5182    1.8347    0.7952 H   0  0  0  0  0  0  0  0  0  0  0  0
   -0.9461    1.9850   -0.0328 H   0  0  0  0  0  0  0  0  0  0  0  0
    0.0000    0.0000    0.0000 C   0  0  0  0  0  0  0  0  0  0  0  0
   -1.0954   -0.5999    0.0000 O   0  0  0  0  0  1  0  0  0  0  0  0
    1.0954   -0.5849   -0.0000 O   0  0  0  0  0  0  0  0  0  0  0  0
    4.1439    3.1382    1.4416 C   0  0  0  0  0  0  0  0  0  0  0  0
    3.6135    3.9578    1.2071 H   0  0  0  0  0  0  0  0  0  0  0  0
    5.0231    3.1714    0.9595 H   0  0  0  0  0  0  0  0  0  0  0  0
    4.3288    3.1317    2.5158 H   0  0  0  0  0  0  0  0  0  0  0  0
    3.3813    1.9136    0.9912 C   0  0  0  0  0  0  0  0  0  0  0  0
    3.9130    1.0966    1.2269 H   0  0  0  0  0  0  0  0  0  0  0  0
    2.5032    1.8823    1.4729 H   0  0  0  0  0  0  0  0  0  0  0  0
    3.1141    1.9005   -0.4970 C   0  0  0  0  0  0  0  0  0  0  0  0
    2.5767    2.7097   -0.7400 H   0  0  0  0  0  0  0  0  0  0  0  0
    3.9864    1.9233   -0.9876 H   0  0  0  0  0  0  0  0  0  0  0  0
    2.5638    1.0048   -0.7853 H   0  0  0  0  0  0  0  0  0  0  0  0
  1  5  1  0
  5  6  1  0
  5  7  2  0
  1  2  1  0
  1  3  1  0
  1  4  1  0
  8 12  1  0
 12 15  1  0
  8  9  1  0
  8 10  1  0
  8 11  1  0
 12 13  1  0
 12 14  1  0
 15 16  1  0
 15 17  1  0
 15 18  1  0
M  CHG  1   6  -1
M  END
>  <PDB_ID>  (338) 
pdb1az0

>  <RESIDUE_NAME>  (338) 
ASP   LYS

>  <FRAG_NAME>  (338) 
ACET   PRPA

>  <FRAG_ATOM_NUM>  (338) 
fragi: 7  fragj: 11

>  <atom.prop.CHAIN_ID>  (338) 
A A A A A A A Z Z Z Z Z Z Z Z Z Z Z

>  <atom.prop.IS_HEAVY_ATOM>  (338) 
1 0 0 0 1 1 1 1 0 0 0 1 0 0 1 0 0 0

>  <DIFUSE_FUNC_ATOM>  (338) 
atom 6   atom 7   

>  <FINAL_SINGLE_POINT_ENERGY>  (338) 
0

>  <NONCOV_INTER_ENERGY_QM>  (338) 
0

>  <FF_Energy>  (338) 
3.11

>  <QM_Energy>  (338) 
-1.96

>  <Index>  (338) 
24954

$$$$
ACET-pdb2b0o-G-GLU-470:PRPA-pdb2b0o-G-ARG-528
     RDKit          3D

 18 16  0  0  0  0  0  0  0  0999 V2000
   -0.0517    1.5465    0.0160 C   0  0  0  0  0  0  0  0  0  0  0  0
    0.1285    1.8579   -0.8768 H   0  0  0  0  0  0  0  0  0  0  0  0
    0.5516    1.8553    0.6991 H   0  0  0  0  0  0  0  0  0  0  0  0
   -1.0534    1.8820    0.2847 H   0  0  0  0  0  0  0  0  0  0  0  0
    0.0000    0.0000    0.0000 C   0  0  0  0  0  0  0  0  0  0  0  0
   -1.0759   -0.6266   -0.0000 O   0  0  0  0  0  1  0  0  0  0  0  0
    1.0759   -0.6136    0.0000 O   0  0  0  0  0  0  0  0  0  0  0  0
   -1.2886   -5.1006    1.4744 C   0  0  0  0  0  0  0  0  0  0  0  0
   -0.3950   -4.6610    1.4820 H   0  0  0  0  0  0  0  0  0  0  0  0
   -1.2319   -5.9809    1.0108 H   0  0  0  0  0  0  0  0  0  0  0  0
   -1.5908   -5.2774    2.5066 H   0  0  0  0  0  0  0  0  0  0  0  0
   -2.2440   -4.2061    0.6657 C   0  0  0  0  0  0  0  0  0  0  0  0
   -2.8938   -4.7755    0.1804 H   0  0  0  0  0  0  0  0  0  0  0  0
   -2.7078   -3.5830    1.2809 H   0  0  0  0  0  0  0  0  0  0  0  0
   -1.4730   -3.3725   -0.3668 C   0  0  0  0  0  0  0  0  0  0  0  0
   -2.1271   -2.9417   -0.9410 H   0  0  0  0  0  0  0  0  0  0  0  0
   -0.9024   -2.7571    0.1239 H   0  0  0  0  0  0  0  0  0  0  0  0
   -0.8797   -4.0977   -0.9239 H   0  0  0  0  0  0  0  0  0  0  0  0
  1  5  1  0
  5  6  1  0
  5  7  2  0
  1  2  1  0
  1  3  1  0
  1  4  1  0
  8 12  1  0
 12 15  1  0
  8  9  1  0
  8 10  1  0
  8 11  1  0
 12 13  1  0
 12 14  1  0
 15 16  1  0
 15 17  1  0
 15 18  1  0
M  CHG  1   6  -1
M  END
>  <PDB_ID>  (339) 
pdb2b0o

>  <RESIDUE_NAME>  (339) 
GLU   ARG

>  <FRAG_NAME>  (339) 
ACET   PRPA

>  <FRAG_ATOM_NUM>  (339) 
fragi: 7  fragj: 11

>  <atom.prop.CHAIN_ID>  (339) 
A A A A A A A Z Z Z Z Z Z Z Z Z Z Z

>  <atom.prop.IS_HEAVY_ATOM>  (339) 
1 0 0 0 1 1 1 1 0 0 0 1 0 0 1 0 0 0

>  <DIFUSE_FUNC_ATOM>  (339) 
atom 6   atom 7   

>  <FINAL_SINGLE_POINT_ENERGY>  (339) 
0

>  <NONCOV_INTER_ENERGY_QM>  (339) 
0

>  <FF_Energy>  (339) 
13.75

>  <QM_Energy>  (339) 
-1.11

>  <Index>  (339) 
25169

$$$$
ACET-pdb2b0o-G-GLU-565:PRPA-pdb2b0o-G-ARG-542
     RDKit          3D

 18 16  0  0  0  0  0  0  0  0999 V2000
    0.0226    1.5220   -0.0527 C   0  0  0  0  0  0  0  0  0  0  0  0
    0.6262    1.8349    0.6365 H   0  0  0  0  0  0  0  0  0  0  0  0
   -0.8901    1.8356    0.0315 H   0  0  0  0  0  0  0  0  0  0  0  0
    0.4090    1.8511   -1.0173 H   0  0  0  0  0  0  0  0  0  0  0  0
    0.0000    0.0000    0.0000 C   0  0  0  0  0  0  0  0  0  0  0  0
   -1.0941   -0.5964   -0.0000 O   0  0  0  0  0  1  0  0  0  0  0  0
    1.0941   -0.5815    0.0000 O   0  0  0  0  0  0  0  0  0  0  0  0
   -4.5822    1.2807    0.5131 C   0  0  0  0  0  0  0  0  0  0  0  0
   -5.0459    1.2947   -0.3537 H   0  0  0  0  0  0  0  0  0  0  0  0
   -3.6205    1.4657    0.4227 H   0  0  0  0  0  0  0  0  0  0  0  0
   -5.0232    2.0441    1.1540 H   0  0  0  0  0  0  0  0  0  0  0  0
   -4.7429   -0.1136    1.1160 C   0  0  0  0  0  0  0  0  0  0  0  0
   -4.5214   -0.0733    2.0861 H   0  0  0  0  0  0  0  0  0  0  0  0
   -5.6853   -0.4121    0.9914 H   0  0  0  0  0  0  0  0  0  0  0  0
   -3.8314   -1.0919    0.4484 C   0  0  0  0  0  0  0  0  0  0  0  0
   -2.9062   -0.9811    0.8211 H   0  0  0  0  0  0  0  0  0  0  0  0
   -4.1518   -2.0230    0.6472 H   0  0  0  0  0  0  0  0  0  0  0  0
   -3.7801   -0.9725   -0.6338 H   0  0  0  0  0  0  0  0  0  0  0  0
  1  5  1  0
  5  6  1  0
  5  7  2  0
  1  2  1  0
  1  3  1  0
  1  4  1  0
  8 12  1  0
 12 15  1  0
  8  9  1  0
  8 10  1  0
  8 11  1  0
 12 13  1  0
 12 14  1  0
 15 16  1  0
 15 17  1  0
 15 18  1  0
M  CHG  1   6  -1
M  END
>  <PDB_ID>  (340) 
pdb2b0o

>  <RESIDUE_NAME>  (340) 
GLU   ARG

>  <FRAG_NAME>  (340) 
ACET   PRPA

>  <FRAG_ATOM_NUM>  (340) 
fragi: 7  fragj: 11

>  <atom.prop.CHAIN_ID>  (340) 
A A A A A A A Z Z Z Z Z Z Z Z Z Z Z

>  <atom.prop.IS_HEAVY_ATOM>  (340) 
1 0 0 0 1 1 1 1 0 0 0 1 0 0 1 0 0 0

>  <DIFUSE_FUNC_ATOM>  (340) 
atom 6   atom 7   

>  <FINAL_SINGLE_POINT_ENERGY>  (340) 
0

>  <NONCOV_INTER_ENERGY_QM>  (340) 
0

>  <FF_Energy>  (340) 
9.46

>  <QM_Energy>  (340) 
-0.89

>  <Index>  (340) 
25275

$$$$
ACET-pdb2bh9-A-GLU-94:PRPA-pdb2bh9-A-ARG-57
     RDKit          3D

 18 16  0  0  0  0  0  0  0  0999 V2000
    0.0036    1.5116   -0.0205 C   0  0  0  0  0  0  0  0  0  0  0  0
    0.8577    1.8015   -0.4140 H   0  0  0  0  0  0  0  0  0  0  0  0
   -0.0999    1.8208    0.9078 H   0  0  0  0  0  0  0  0  0  0  0  0
   -0.8091    1.9269   -0.6165 H   0  0  0  0  0  0  0  0  0  0  0  0
    0.0000    0.0000    0.0000 C   0  0  0  0  0  0  0  0  0  0  0  0
   -1.0955   -0.5923   -0.0000 O   0  0  0  0  0  1  0  0  0  0  0  0
    1.0955   -0.5997    0.0000 O   0  0  0  0  0  0  0  0  0  0  0  0
    1.7810   -2.2551   -4.3861 C   0  0  0  0  0  0  0  0  0  0  0  0
    0.8131   -2.3166   -4.6490 H   0  0  0  0  0  0  0  0  0  0  0  0
    2.1454   -3.1864   -4.2830 H   0  0  0  0  0  0  0  0  0  0  0  0
    2.3149   -1.7829   -5.2108 H   0  0  0  0  0  0  0  0  0  0  0  0
    1.8695   -1.5596   -3.0523 C   0  0  0  0  0  0  0  0  0  0  0  0
    2.7902   -1.2187   -2.9047 H   0  0  0  0  0  0  0  0  0  0  0  0
    1.2101   -0.8195   -3.0085 H   0  0  0  0  0  0  0  0  0  0  0  0
    1.5465   -2.5378   -1.9148 C   0  0  0  0  0  0  0  0  0  0  0  0
    1.7519   -2.0842   -1.0566 H   0  0  0  0  0  0  0  0  0  0  0  0
    0.5814   -2.7608   -1.9734 H   0  0  0  0  0  0  0  0  0  0  0  0
    2.1391   -3.4489   -1.9979 H   0  0  0  0  0  0  0  0  0  0  0  0
  1  5  1  0
  5  6  1  0
  5  7  2  0
  1  2  1  0
  1  3  1  0
  1  4  1  0
  8 12  1  0
 12 15  1  0
  8  9  1  0
  8 10  1  0
  8 11  1  0
 12 13  1  0
 12 14  1  0
 15 16  1  0
 15 17  1  0
 15 18  1  0
M  CHG  1   6  -1
M  END
>  <PDB_ID>  (341) 
pdb2bh9

>  <RESIDUE_NAME>  (341) 
GLU   ARG

>  <FRAG_NAME>  (341) 
ACET   PRPA

>  <FRAG_ATOM_NUM>  (341) 
fragi: 7  fragj: 11

>  <atom.prop.CHAIN_ID>  (341) 
A A A A A A A Z Z Z Z Z Z Z Z Z Z Z

>  <atom.prop.IS_HEAVY_ATOM>  (341) 
1 0 0 0 1 1 1 1 0 0 0 1 0 0 1 0 0 0

>  <DIFUSE_FUNC_ATOM>  (341) 
atom 6   atom 7   

>  <FINAL_SINGLE_POINT_ENERGY>  (341) 
0

>  <NONCOV_INTER_ENERGY_QM>  (341) 
0

>  <FF_Energy>  (341) 
17.79

>  <QM_Energy>  (341) 
-1.31

>  <Index>  (341) 
25425

$$$$
ACET-pdb1b0w-B-GLU-70:PRPA-pdb1b0w-B-GLN-24
     RDKit          3D

 18 16  0  0  0  0  0  0  0  0999 V2000
    0.0205    1.5300   -0.0003 C   0  0  0  0  0  0  0  0  0  0  0  0
    0.2770    1.8143   -0.9080 H   0  0  0  0  0  0  0  0  0  0  0  0
    0.6821    1.8093    0.6733 H   0  0  0  0  0  0  0  0  0  0  0  0
   -0.9436    1.9738    0.2479 H   0  0  0  0  0  0  0  0  0  0  0  0
    0.0000    0.0000    0.0000 C   0  0  0  0  0  0  0  0  0  0  0  0
   -1.1067   -0.6074   -0.0000 O   0  0  0  0  0  1  0  0  0  0  0  0
    1.1067   -0.5983   -0.0000 O   0  0  0  0  0  0  0  0  0  0  0  0
   -1.2064    0.3874   -4.8280 C   0  0  0  0  0  0  0  0  0  0  0  0
   -1.5491    1.0468   -4.1795 H   0  0  0  0  0  0  0  0  0  0  0  0
   -1.9882   -0.3446   -5.0308 H   0  0  0  0  0  0  0  0  0  0  0  0
   -1.0511    0.9030   -5.7757 H   0  0  0  0  0  0  0  0  0  0  0  0
    0.0454   -0.3317   -4.3360 C   0  0  0  0  0  0  0  0  0  0  0  0
    0.3291   -0.9923   -5.0200 H   0  0  0  0  0  0  0  0  0  0  0  0
    0.7612    0.3375   -4.1750 H   0  0  0  0  0  0  0  0  0  0  0  0
   -0.2113   -1.0749   -3.0341 C   0  0  0  0  0  0  0  0  0  0  0  0
   -0.2053   -0.4118   -2.2774 H   0  0  0  0  0  0  0  0  0  0  0  0
   -1.1220   -1.4999   -3.0795 H   0  0  0  0  0  0  0  0  0  0  0  0
    0.5181   -1.8535   -2.8105 H   0  0  0  0  0  0  0  0  0  0  0  0
  1  5  1  0
  5  6  1  0
  5  7  2  0
  1  2  1  0
  1  3  1  0
  1  4  1  0
  8 12  1  0
 12 15  1  0
  8  9  1  0
  8 10  1  0
  8 11  1  0
 12 13  1  0
 12 14  1  0
 15 16  1  0
 15 17  1  0
 15 18  1  0
M  CHG  1   6  -1
M  END
>  <PDB_ID>  (342) 
pdb1b0w

>  <RESIDUE_NAME>  (342) 
GLU   GLN

>  <FRAG_NAME>  (342) 
ACET   PRPA

>  <FRAG_ATOM_NUM>  (342) 
fragi: 7  fragj: 11

>  <atom.prop.CHAIN_ID>  (342) 
A A A A A A A Z Z Z Z Z Z Z Z Z Z Z

>  <atom.prop.IS_HEAVY_ATOM>  (342) 
1 0 0 0 1 1 1 1 0 0 0 1 0 0 1 0 0 0

>  <DIFUSE_FUNC_ATOM>  (342) 
atom 6   atom 7   

>  <FINAL_SINGLE_POINT_ENERGY>  (342) 
0

>  <NONCOV_INTER_ENERGY_QM>  (342) 
0

>  <FF_Energy>  (342) 
2.19

>  <QM_Energy>  (342) 
-1.53

>  <Index>  (342) 
25446

$$$$
ACET-pdb2bb0-A-GLU-333:PRPA-pdb2bb0-A-ARG-137
     RDKit          3D

 18 16  0  0  0  0  0  0  0  0999 V2000
   -0.0159    1.5209   -0.0074 C   0  0  0  0  0  0  0  0  0  0  0  0
   -0.8596    1.8106    0.4083 H   0  0  0  0  0  0  0  0  0  0  0  0
    0.0534    1.8123   -0.9445 H   0  0  0  0  0  0  0  0  0  0  0  0
    0.8092    1.9621    0.5516 H   0  0  0  0  0  0  0  0  0  0  0  0
    0.0000    0.0000    0.0000 C   0  0  0  0  0  0  0  0  0  0  0  0
   -1.0978   -0.5999    0.0000 O   0  0  0  0  0  1  0  0  0  0  0  0
    1.0978   -0.5947    0.0000 O   0  0  0  0  0  0  0  0  0  0  0  0
   -1.6466    0.7830    3.9615 C   0  0  0  0  0  0  0  0  0  0  0  0
   -2.3480    0.0933    4.1191 H   0  0  0  0  0  0  0  0  0  0  0  0
   -1.7288    1.1478    3.0379 H   0  0  0  0  0  0  0  0  0  0  0  0
   -1.8069    1.5993    4.6659 H   0  0  0  0  0  0  0  0  0  0  0  0
   -0.2883    0.1122    4.0840 C   0  0  0  0  0  0  0  0  0  0  0  0
    0.4275    0.7702    3.8761 H   0  0  0  0  0  0  0  0  0  0  0  0
   -0.1760   -0.2444    5.0044 H   0  0  0  0  0  0  0  0  0  0  0  0
   -0.1683   -1.0459    3.1083 C   0  0  0  0  0  0  0  0  0  0  0  0
   -0.6951   -0.8175    2.2900 H   0  0  0  0  0  0  0  0  0  0  0  0
    0.7972   -1.1473    2.8665 H   0  0  0  0  0  0  0  0  0  0  0  0
   -0.5357   -1.9853    3.5214 H   0  0  0  0  0  0  0  0  0  0  0  0
  1  5  1  0
  5  6  1  0
  5  7  2  0
  1  2  1  0
  1  3  1  0
  1  4  1  0
  8 12  1  0
 12 15  1  0
  8  9  1  0
  8 10  1  0
  8 11  1  0
 12 13  1  0
 12 14  1  0
 15 16  1  0
 15 17  1  0
 15 18  1  0
M  CHG  1   6  -1
M  END
>  <PDB_ID>  (343) 
pdb2bb0

>  <RESIDUE_NAME>  (343) 
GLU   ARG

>  <FRAG_NAME>  (343) 
ACET   PRPA

>  <FRAG_ATOM_NUM>  (343) 
fragi: 7  fragj: 11

>  <atom.prop.CHAIN_ID>  (343) 
A A A A A A A Z Z Z Z Z Z Z Z Z Z Z

>  <atom.prop.IS_HEAVY_ATOM>  (343) 
1 0 0 0 1 1 1 1 0 0 0 1 0 0 1 0 0 0

>  <DIFUSE_FUNC_ATOM>  (343) 
atom 6   atom 7   

>  <FINAL_SINGLE_POINT_ENERGY>  (343) 
0

>  <NONCOV_INTER_ENERGY_QM>  (343) 
0

>  <FF_Energy>  (343) 
3.72

>  <QM_Energy>  (343) 
-3.68

>  <Index>  (343) 
25607

$$$$
ACET-pdb1b2p-A-ASP-110:PRPA-pdb1b2p-A-LYS-91
     RDKit          3D

 18 16  0  0  0  0  0  0  0  0999 V2000
    0.1086    1.4497    0.0623 C   0  0  0  0  0  0  0  0  0  0  0  0
    0.9087    1.7652   -0.5090 H   0  0  0  0  0  0  0  0  0  0  0  0
    0.3465    1.7421    1.0233 H   0  0  0  0  0  0  0  0  0  0  0  0
   -0.7288    2.0807   -0.2356 H   0  0  0  0  0  0  0  0  0  0  0  0
    0.0000    0.0000    0.0000 C   0  0  0  0  0  0  0  0  0  0  0  0
   -1.1098   -0.5142   -0.0000 O   0  0  0  0  0  1  0  0  0  0  0  0
    1.1098   -0.6335    0.0000 O   0  0  0  0  0  0  0  0  0  0  0  0
    1.7756   -0.9294    3.8294 C   0  0  0  0  0  0  0  0  0  0  0  0
    0.9506   -0.4696    4.1134 H   0  0  0  0  0  0  0  0  0  0  0  0
    2.1604   -0.5253    3.0171 H   0  0  0  0  0  0  0  0  0  0  0  0
    2.5072   -0.9268    4.6374 H   0  0  0  0  0  0  0  0  0  0  0  0
    1.4015   -2.4130    3.4923 C   0  0  0  0  0  0  0  0  0  0  0  0
    2.1347   -2.9794    3.7728 H   0  0  0  0  0  0  0  0  0  0  0  0
    0.5497   -2.6113    3.9065 H   0  0  0  0  0  0  0  0  0  0  0  0
    1.2568   -2.4819    1.9723 C   0  0  0  0  0  0  0  0  0  0  0  0
    0.3753   -2.0680    1.7121 H   0  0  0  0  0  0  0  0  0  0  0  0
    1.9942   -1.9387    1.5511 H   0  0  0  0  0  0  0  0  0  0  0  0
    1.2997   -3.4976    1.5790 H   0  0  0  0  0  0  0  0  0  0  0  0
  1  5  1  0
  5  6  1  0
  5  7  2  0
  1  2  1  0
  1  3  1  0
  1  4  1  0
  8 12  1  0
 12 15  1  0
  8  9  1  0
  8 10  1  0
  8 11  1  0
 12 13  1  0
 12 14  1  0
 15 16  1  0
 15 17  1  0
 15 18  1  0
M  CHG  1   6  -1
M  END
>  <PDB_ID>  (344) 
pdb1b2p

>  <RESIDUE_NAME>  (344) 
ASP   LYS

>  <FRAG_NAME>  (344) 
ACET   PRPA

>  <FRAG_ATOM_NUM>  (344) 
fragi: 7  fragj: 11

>  <atom.prop.CHAIN_ID>  (344) 
A A A A A A A Z Z Z Z Z Z Z Z Z Z Z

>  <atom.prop.IS_HEAVY_ATOM>  (344) 
1 0 0 0 1 1 1 1 0 0 0 1 0 0 1 0 0 0

>  <DIFUSE_FUNC_ATOM>  (344) 
atom 6   atom 7   

>  <FINAL_SINGLE_POINT_ENERGY>  (344) 
0

>  <NONCOV_INTER_ENERGY_QM>  (344) 
0

>  <FF_Energy>  (344) 
5.91

>  <QM_Energy>  (344) 
-0.46

>  <Index>  (344) 
25647

$$$$
ACET-pdb2bkm-A-ASP-127:PRPA-pdb2bkm-A-PRO-84
     RDKit          3D

 18 16  0  0  0  0  0  0  0  0999 V2000
   -0.0521    1.5209   -0.0855 C   0  0  0  0  0  0  0  0  0  0  0  0
   -0.8712    1.8391    0.3797 H   0  0  0  0  0  0  0  0  0  0  0  0
   -0.0725    1.7870   -1.0425 H   0  0  0  0  0  0  0  0  0  0  0  0
    0.8041    2.0111    0.3779 H   0  0  0  0  0  0  0  0  0  0  0  0
    0.0000    0.0000    0.0000 C   0  0  0  0  0  0  0  0  0  0  0  0
   -1.1027   -0.6006   -0.0000 O   0  0  0  0  0  1  0  0  0  0  0  0
    1.1027   -0.5541    0.0000 O   0  0  0  0  0  0  0  0  0  0  0  0
   -0.7318   -2.5503    2.7001 C   0  0  0  0  0  0  0  0  0  0  0  0
   -0.8989   -2.2125    1.7861 H   0  0  0  0  0  0  0  0  0  0  0  0
   -1.4929   -3.0864    3.0311 H   0  0  0  0  0  0  0  0  0  0  0  0
    0.2139   -3.0874    2.7745 H   0  0  0  0  0  0  0  0  0  0  0  0
   -0.4864   -1.3606    3.6515 C   0  0  0  0  0  0  0  0  0  0  0  0
   -1.1617   -0.6547    3.4649 H   0  0  0  0  0  0  0  0  0  0  0  0
   -0.5692   -1.6783    4.5909 H   0  0  0  0  0  0  0  0  0  0  0  0
    0.8813   -0.9405    3.3129 C   0  0  0  0  0  0  0  0  0  0  0  0
    0.9101   -0.3508    2.5040 H   0  0  0  0  0  0  0  0  0  0  0  0
    1.3373   -0.4754    4.0750 H   0  0  0  0  0  0  0  0  0  0  0  0
    1.3725   -1.8908    3.1032 H   0  0  0  0  0  0  0  0  0  0  0  0
  1  5  1  0
  5  6  1  0
  5  7  2  0
  1  2  1  0
  1  3  1  0
  1  4  1  0
  8 12  1  0
 12 15  1  0
  8  9  1  0
  8 10  1  0
  8 11  1  0
 12 13  1  0
 12 14  1  0
 15 16  1  0
 15 17  1  0
 15 18  1  0
M  CHG  1   6  -1
M  END
>  <PDB_ID>  (345) 
pdb2bkm

>  <RESIDUE_NAME>  (345) 
ASP   PRO

>  <FRAG_NAME>  (345) 
ACET   PRPA

>  <FRAG_ATOM_NUM>  (345) 
fragi: 7  fragj: 11

>  <atom.prop.CHAIN_ID>  (345) 
A A A A A A A Z Z Z Z Z Z Z Z Z Z Z

>  <atom.prop.IS_HEAVY_ATOM>  (345) 
1 0 0 0 1 1 1 1 0 0 0 1 0 0 1 0 0 0

>  <DIFUSE_FUNC_ATOM>  (345) 
atom 6   atom 7   

>  <FINAL_SINGLE_POINT_ENERGY>  (345) 
0

>  <NONCOV_INTER_ENERGY_QM>  (345) 
0

>  <FF_Energy>  (345) 
0.55

>  <QM_Energy>  (345) 
-5.13

>  <Index>  (345) 
25775

$$$$
ACET-pdb2b43-A-GLU-296:PRPA-pdb2b43-A-ARG-74
     RDKit          3D

 18 16  0  0  0  0  0  0  0  0999 V2000
    0.0139    1.5363    0.0017 C   0  0  0  0  0  0  0  0  0  0  0  0
    0.5926    1.8262   -0.7431 H   0  0  0  0  0  0  0  0  0  0  0  0
    0.3716    1.8263    0.8745 H   0  0  0  0  0  0  0  0  0  0  0  0
   -0.9620    2.0028   -0.1325 H   0  0  0  0  0  0  0  0  0  0  0  0
    0.0000    0.0000    0.0000 C   0  0  0  0  0  0  0  0  0  0  0  0
   -1.0948   -0.5930   -0.0000 O   0  0  0  0  0  1  0  0  0  0  0  0
    1.0948   -0.6185    0.0000 O   0  0  0  0  0  0  0  0  0  0  0  0
    0.7968    0.0782    4.9414 C   0  0  0  0  0  0  0  0  0  0  0  0
    1.4329    0.6500    4.4346 H   0  0  0  0  0  0  0  0  0  0  0  0
    1.2801   -0.6667    5.3884 H   0  0  0  0  0  0  0  0  0  0  0  0
    0.3400    0.6933    5.7167 H   0  0  0  0  0  0  0  0  0  0  0  0
   -0.2026   -0.4803    4.0108 C   0  0  0  0  0  0  0  0  0  0  0  0
    0.2033   -1.2529    3.4811 H   0  0  0  0  0  0  0  0  0  0  0  0
   -0.9865   -0.8735    4.5329 H   0  0  0  0  0  0  0  0  0  0  0  0
   -0.7858    0.4920    3.0007 C   0  0  0  0  0  0  0  0  0  0  0  0
   -0.0755    0.6385    2.2680 H   0  0  0  0  0  0  0  0  0  0  0  0
   -1.5606    0.0092    2.5220 H   0  0  0  0  0  0  0  0  0  0  0  0
   -1.1432    1.4683    3.3281 H   0  0  0  0  0  0  0  0  0  0  0  0
  1  5  1  0
  5  6  1  0
  5  7  2  0
  1  2  1  0
  1  3  1  0
  1  4  1  0
  8 12  1  0
 12 15  1  0
  8  9  1  0
  8 10  1  0
  8 11  1  0
 12 13  1  0
 12 14  1  0
 15 16  1  0
 15 17  1  0
 15 18  1  0
M  CHG  1   6  -1
M  END
>  <PDB_ID>  (346) 
pdb2b43

>  <RESIDUE_NAME>  (346) 
GLU   ARG

>  <FRAG_NAME>  (346) 
ACET   PRPA

>  <FRAG_ATOM_NUM>  (346) 
fragi: 7  fragj: 11

>  <atom.prop.CHAIN_ID>  (346) 
A A A A A A A Z Z Z Z Z Z Z Z Z Z Z

>  <atom.prop.IS_HEAVY_ATOM>  (346) 
1 0 0 0 1 1 1 1 0 0 0 1 0 0 1 0 0 0

>  <DIFUSE_FUNC_ATOM>  (346) 
atom 6   atom 7   

>  <FINAL_SINGLE_POINT_ENERGY>  (346) 
0

>  <NONCOV_INTER_ENERGY_QM>  (346) 
0

>  <FF_Energy>  (346) 
9.94

>  <QM_Energy>  (346) 
-1.15

>  <Index>  (346) 
25785

$$$$
ACET-pdb2bi0-A-ASP-141:PRPA-pdb2bi0-A-ARG-145
     RDKit          3D

 18 16  0  0  0  0  0  0  0  0999 V2000
    0.0608    1.5527    0.0047 C   0  0  0  0  0  0  0  0  0  0  0  0
    0.2254    1.8571   -0.9218 H   0  0  0  0  0  0  0  0  0  0  0  0
    0.7915    1.8305    0.6087 H   0  0  0  0  0  0  0  0  0  0  0  0
   -0.8631    2.0136    0.3541 H   0  0  0  0  0  0  0  0  0  0  0  0
    0.0000    0.0000    0.0000 C   0  0  0  0  0  0  0  0  0  0  0  0
   -1.0900   -0.5886   -0.0000 O   0  0  0  0  0  1  0  0  0  0  0  0
    1.0900   -0.6231   -0.0000 O   0  0  0  0  0  0  0  0  0  0  0  0
   -0.2885   -3.1588    2.4405 C   0  0  0  0  0  0  0  0  0  0  0  0
    0.1589   -2.3269    2.0893 H   0  0  0  0  0  0  0  0  0  0  0  0
    0.3000   -3.5537    3.1562 H   0  0  0  0  0  0  0  0  0  0  0  0
   -1.2322   -2.8668    2.9012 H   0  0  0  0  0  0  0  0  0  0  0  0
   -0.3764   -4.1537    1.3100 C   0  0  0  0  0  0  0  0  0  0  0  0
   -0.0385   -4.9867    1.5781 H   0  0  0  0  0  0  0  0  0  0  0  0
   -1.2074   -4.0871    0.8784 H   0  0  0  0  0  0  0  0  0  0  0  0
    0.6777   -3.4778    0.4163 C   0  0  0  0  0  0  0  0  0  0  0  0
    0.2037   -2.7121   -0.0456 H   0  0  0  0  0  0  0  0  0  0  0  0
    1.3622   -3.0785    1.0462 H   0  0  0  0  0  0  0  0  0  0  0  0
    1.1412   -4.1534   -0.3027 H   0  0  0  0  0  0  0  0  0  0  0  0
  1  5  1  0
  5  6  1  0
  5  7  2  0
  1  2  1  0
  1  3  1  0
  1  4  1  0
  8 12  1  0
 12 15  1  0
  8  9  1  0
  8 10  1  0
  8 11  1  0
 12 13  1  0
 12 14  1  0
 15 16  1  0
 15 17  1  0
 15 18  1  0
M  CHG  1   6  -1
M  END
>  <PDB_ID>  (347) 
pdb2bi0

>  <RESIDUE_NAME>  (347) 
ASP   ARG

>  <FRAG_NAME>  (347) 
ACET   PRPA

>  <FRAG_ATOM_NUM>  (347) 
fragi: 7  fragj: 11

>  <atom.prop.CHAIN_ID>  (347) 
A A A A A A A Z Z Z Z Z Z Z Z Z Z Z

>  <atom.prop.IS_HEAVY_ATOM>  (347) 
1 0 0 0 1 1 1 1 0 0 0 1 0 0 1 0 0 0

>  <DIFUSE_FUNC_ATOM>  (347) 
atom 6   atom 7   

>  <FINAL_SINGLE_POINT_ENERGY>  (347) 
0

>  <NONCOV_INTER_ENERGY_QM>  (347) 
0

>  <FF_Energy>  (347) 
2.11

>  <QM_Energy>  (347) 
-3.96

>  <Index>  (347) 
25839

$$$$
ACET-pdb2ash-D-ASP-136:PRPA-pdb2ash-D-PRO-85
     RDKit          3D

 18 16  0  0  0  0  0  0  0  0999 V2000
   -0.0380    1.5033    0.0012 C   0  0  0  0  0  0  0  0  0  0  0  0
   -0.7403    1.8049   -0.6349 H   0  0  0  0  0  0  0  0  0  0  0  0
    0.8522    1.8456   -0.2788 H   0  0  0  0  0  0  0  0  0  0  0  0
   -0.2689    1.9032    0.9885 H   0  0  0  0  0  0  0  0  0  0  0  0
    0.0000    0.0000    0.0000 C   0  0  0  0  0  0  0  0  0  0  0  0
   -1.0984   -0.5862    0.0000 O   0  0  0  0  0  1  0  0  0  0  0  0
    1.0984   -0.5511    0.0000 O   0  0  0  0  0  0  0  0  0  0  0  0
   -1.3863   -1.1853   -3.0720 C   0  0  0  0  0  0  0  0  0  0  0  0
   -1.0314   -1.2063   -2.0909 H   0  0  0  0  0  0  0  0  0  0  0  0
   -1.0879   -2.0852   -3.6096 H   0  0  0  0  0  0  0  0  0  0  0  0
   -2.4436   -0.9207   -3.0580 H   0  0  0  0  0  0  0  0  0  0  0  0
   -0.5910   -0.0805   -3.7850 C   0  0  0  0  0  0  0  0  0  0  0  0
   -1.1018    0.2496   -4.5808 H   0  0  0  0  0  0  0  0  0  0  0  0
   -0.4282    0.6828   -3.1590 H   0  0  0  0  0  0  0  0  0  0  0  0
    0.6439   -0.7532   -4.1652 C   0  0  0  0  0  0  0  0  0  0  0  0
    1.1258   -0.2632   -4.8831 H   0  0  0  0  0  0  0  0  0  0  0  0
    1.2401   -0.9006   -3.3835 H   0  0  0  0  0  0  0  0  0  0  0  0
    0.2650   -1.7038   -4.5405 H   0  0  0  0  0  0  0  0  0  0  0  0
  1  5  1  0
  5  6  1  0
  5  7  2  0
  1  2  1  0
  1  3  1  0
  1  4  1  0
  8 12  1  0
 12 15  1  0
  8  9  1  0
  8 10  1  0
  8 11  1  0
 12 13  1  0
 12 14  1  0
 15 16  1  0
 15 17  1  0
 15 18  1  0
M  CHG  1   6  -1
M  END
>  <PDB_ID>  (348) 
pdb2ash

>  <RESIDUE_NAME>  (348) 
ASP   PRO

>  <FRAG_NAME>  (348) 
ACET   PRPA

>  <FRAG_ATOM_NUM>  (348) 
fragi: 7  fragj: 11

>  <atom.prop.CHAIN_ID>  (348) 
A A A A A A A Z Z Z Z Z Z Z Z Z Z Z

>  <atom.prop.IS_HEAVY_ATOM>  (348) 
1 0 0 0 1 1 1 1 0 0 0 1 0 0 1 0 0 0

>  <DIFUSE_FUNC_ATOM>  (348) 
atom 6   atom 7   

>  <FINAL_SINGLE_POINT_ENERGY>  (348) 
0

>  <NONCOV_INTER_ENERGY_QM>  (348) 
0

>  <FF_Energy>  (348) 
2.92

>  <QM_Energy>  (348) 
-4.53

>  <Index>  (348) 
26064

$$$$
ACET-pdb2a7k-I-ASP-63:PRPA-pdb2a7k-I-GLU-66
     RDKit          3D

 18 16  0  0  0  0  0  0  0  0999 V2000
    0.0195    1.5377    0.0448 C   0  0  0  0  0  0  0  0  0  0  0  0
   -0.8652    1.8671   -0.2512 H   0  0  0  0  0  0  0  0  0  0  0  0
    0.7380    1.8557   -0.5549 H   0  0  0  0  0  0  0  0  0  0  0  0
    0.2119    1.9190    1.0477 H   0  0  0  0  0  0  0  0  0  0  0  0
    0.0000    0.0000    0.0000 C   0  0  0  0  0  0  0  0  0  0  0  0
   -1.0971   -0.6155   -0.0000 O   0  0  0  0  0  1  0  0  0  0  0  0
    1.0971   -0.5932   -0.0000 O   0  0  0  0  0  0  0  0  0  0  0  0
    4.5360    0.7780   -1.6147 C   0  0  0  0  0  0  0  0  0  0  0  0
    4.7153    0.3995   -2.5169 H   0  0  0  0  0  0  0  0  0  0  0  0
    4.0691    0.0287   -0.9755 H   0  0  0  0  0  0  0  0  0  0  0  0
    5.4784    1.0709   -1.1521 H   0  0  0  0  0  0  0  0  0  0  0  0
    3.6082    1.9959   -1.7856 C   0  0  0  0  0  0  0  0  0  0  0  0
    3.4620    2.3840   -0.8748 H   0  0  0  0  0  0  0  0  0  0  0  0
    4.0945    2.6587   -2.3550 H   0  0  0  0  0  0  0  0  0  0  0  0
    2.2427    1.7712   -2.4111 C   0  0  0  0  0  0  0  0  0  0  0  0
    2.3855    1.3855   -3.3221 H   0  0  0  0  0  0  0  0  0  0  0  0
    1.7524    1.1101   -1.8431 H   0  0  0  0  0  0  0  0  0  0  0  0
    1.6084    2.6512   -2.5185 H   0  0  0  0  0  0  0  0  0  0  0  0
  1  5  1  0
  5  6  1  0
  5  7  2  0
  1  2  1  0
  1  3  1  0
  1  4  1  0
  8 12  1  0
 12 15  1  0
  8  9  1  0
  8 10  1  0
  8 11  1  0
 12 13  1  0
 12 14  1  0
 15 16  1  0
 15 17  1  0
 15 18  1  0
M  CHG  1   6  -1
M  END
>  <PDB_ID>  (349) 
pdb2a7k

>  <RESIDUE_NAME>  (349) 
ASP   GLU

>  <FRAG_NAME>  (349) 
ACET   PRPA

>  <FRAG_ATOM_NUM>  (349) 
fragi: 7  fragj: 11

>  <atom.prop.CHAIN_ID>  (349) 
A A A A A A A Z Z Z Z Z Z Z Z Z Z Z

>  <atom.prop.IS_HEAVY_ATOM>  (349) 
1 0 0 0 1 1 1 1 0 0 0 1 0 0 1 0 0 0

>  <DIFUSE_FUNC_ATOM>  (349) 
atom 6   atom 7   

>  <FINAL_SINGLE_POINT_ENERGY>  (349) 
0

>  <NONCOV_INTER_ENERGY_QM>  (349) 
0

>  <FF_Energy>  (349) 
2.91

>  <QM_Energy>  (349) 
-1.52

>  <Index>  (349) 
26066

$$$$
ACET-pdb2bkm-A-ASP-130:PRPA-pdb2bkm-B-GLN-4
     RDKit          3D

 18 16  0  0  0  0  0  0  0  0999 V2000
    0.0386    1.5124   -0.0007 C   0  0  0  0  0  0  0  0  0  0  0  0
    0.8987    1.8130   -0.4076 H   0  0  0  0  0  0  0  0  0  0  0  0
   -0.0233    1.8367    0.9396 H   0  0  0  0  0  0  0  0  0  0  0  0
   -0.7733    1.9711   -0.5651 H   0  0  0  0  0  0  0  0  0  0  0  0
    0.0000    0.0000    0.0000 C   0  0  0  0  0  0  0  0  0  0  0  0
   -1.0952   -0.5996   -0.0000 O   0  0  0  0  0  1  0  0  0  0  0  0
    1.0952   -0.6050   -0.0000 O   0  0  0  0  0  0  0  0  0  0  0  0
   -3.8539   -1.7873    0.8077 C   0  0  0  0  0  0  0  0  0  0  0  0
   -3.0292   -1.2360    0.6720 H   0  0  0  0  0  0  0  0  0  0  0  0
   -4.7118   -1.1997    0.4810 H   0  0  0  0  0  0  0  0  0  0  0  0
   -3.7519   -2.6833    0.1954 H   0  0  0  0  0  0  0  0  0  0  0  0
   -3.9127   -2.0849    2.3234 C   0  0  0  0  0  0  0  0  0  0  0  0
   -3.5073   -2.9839    2.4932 H   0  0  0  0  0  0  0  0  0  0  0  0
   -3.3858   -1.3863    2.8111 H   0  0  0  0  0  0  0  0  0  0  0  0
   -5.3456   -2.0984    2.9390 C   0  0  0  0  0  0  0  0  0  0  0  0
   -5.9610   -1.6199    2.3065 H   0  0  0  0  0  0  0  0  0  0  0  0
   -5.6415   -3.0546    3.0173 H   0  0  0  0  0  0  0  0  0  0  0  0
   -5.4388   -1.6325    3.9199 H   0  0  0  0  0  0  0  0  0  0  0  0
  1  5  1  0
  5  6  1  0
  5  7  2  0
  1  2  1  0
  1  3  1  0
  1  4  1  0
  8 12  1  0
 12 15  1  0
  8  9  1  0
  8 10  1  0
  8 11  1  0
 12 13  1  0
 12 14  1  0
 15 16  1  0
 15 17  1  0
 15 18  1  0
M  CHG  1   6  -1
M  END
>  <PDB_ID>  (350) 
pdb2bkm

>  <RESIDUE_NAME>  (350) 
ASP   GLN

>  <FRAG_NAME>  (350) 
ACET   PRPA

>  <FRAG_ATOM_NUM>  (350) 
fragi: 7  fragj: 11

>  <atom.prop.CHAIN_ID>  (350) 
A A A A A A A Z Z Z Z Z Z Z Z Z Z Z

>  <atom.prop.IS_HEAVY_ATOM>  (350) 
1 0 0 0 1 1 1 1 0 0 0 1 0 0 1 0 0 0

>  <DIFUSE_FUNC_ATOM>  (350) 
atom 6   atom 7   

>  <FINAL_SINGLE_POINT_ENERGY>  (350) 
0

>  <NONCOV_INTER_ENERGY_QM>  (350) 
0

>  <FF_Energy>  (350) 
45.42

>  <QM_Energy>  (350) 
-3.28

>  <Index>  (350) 
26246

$$$$
ACET-pdb1b0z-A-GLU-158:PRPA-pdb1b0z-A-LYS-163
     RDKit          3D

 18 16  0  0  0  0  0  0  0  0999 V2000
   -0.0034    1.5257   -0.0566 C   0  0  0  0  0  0  0  0  0  0  0  0
    0.4912    1.7964   -0.8596 H   0  0  0  0  0  0  0  0  0  0  0  0
    0.4100    1.8559    0.7702 H   0  0  0  0  0  0  0  0  0  0  0  0
   -1.0048    1.9510   -0.1233 H   0  0  0  0  0  0  0  0  0  0  0  0
    0.0000    0.0000    0.0000 C   0  0  0  0  0  0  0  0  0  0  0  0
   -1.0933   -0.6084   -0.0000 O   0  0  0  0  0  1  0  0  0  0  0  0
    1.0933   -0.6149    0.0000 O   0  0  0  0  0  0  0  0  0  0  0  0
    0.9423    0.9156   -4.5228 C   0  0  0  0  0  0  0  0  0  0  0  0
    1.1036    0.9594   -5.5081 H   0  0  0  0  0  0  0  0  0  0  0  0
    1.6490    0.3502   -4.0953 H   0  0  0  0  0  0  0  0  0  0  0  0
    1.0184    1.9243   -4.1168 H   0  0  0  0  0  0  0  0  0  0  0  0
   -0.4111    0.2328   -4.2961 C   0  0  0  0  0  0  0  0  0  0  0  0
   -1.0746    0.9206   -3.9885 H   0  0  0  0  0  0  0  0  0  0  0  0
   -0.7276   -0.1581   -5.1639 H   0  0  0  0  0  0  0  0  0  0  0  0
   -0.3497   -0.8883   -3.2485 C   0  0  0  0  0  0  0  0  0  0  0  0
   -0.2276   -0.4794   -2.3484 H   0  0  0  0  0  0  0  0  0  0  0  0
   -1.2008   -1.4040   -3.2790 H   0  0  0  0  0  0  0  0  0  0  0  0
    0.4736   -1.5811   -3.4222 H   0  0  0  0  0  0  0  0  0  0  0  0
  1  5  1  0
  5  6  1  0
  5  7  2  0
  1  2  1  0
  1  3  1  0
  1  4  1  0
  8 12  1  0
 12 15  1  0
  8  9  1  0
  8 10  1  0
  8 11  1  0
 12 13  1  0
 12 14  1  0
 15 16  1  0
 15 17  1  0
 15 18  1  0
M  CHG  1   6  -1
M  END
>  <PDB_ID>  (351) 
pdb1b0z

>  <RESIDUE_NAME>  (351) 
GLU   LYS

>  <FRAG_NAME>  (351) 
ACET   PRPA

>  <FRAG_ATOM_NUM>  (351) 
fragi: 7  fragj: 11

>  <atom.prop.CHAIN_ID>  (351) 
A A A A A A A Z Z Z Z Z Z Z Z Z Z Z

>  <atom.prop.IS_HEAVY_ATOM>  (351) 
1 0 0 0 1 1 1 1 0 0 0 1 0 0 1 0 0 0

>  <DIFUSE_FUNC_ATOM>  (351) 
atom 6   atom 7   

>  <FINAL_SINGLE_POINT_ENERGY>  (351) 
0

>  <NONCOV_INTER_ENERGY_QM>  (351) 
0

>  <FF_Energy>  (351) 
3.21

>  <QM_Energy>  (351) 
-2.54

>  <Index>  (351) 
26349

$$$$
ACET-pdb1auw-A-GLU-150:PRPA-pdb1auw-A-ARG-146
     RDKit          3D

 18 16  0  0  0  0  0  0  0  0999 V2000
    0.0030    1.5100    0.0079 C   0  0  0  0  0  0  0  0  0  0  0  0
    0.8335    1.8110   -0.4259 H   0  0  0  0  0  0  0  0  0  0  0  0
   -0.0522    1.8050    0.9460 H   0  0  0  0  0  0  0  0  0  0  0  0
   -0.8384    1.9408   -0.5349 H   0  0  0  0  0  0  0  0  0  0  0  0
    0.0000    0.0000    0.0000 C   0  0  0  0  0  0  0  0  0  0  0  0
   -1.0933   -0.5936   -0.0000 O   0  0  0  0  0  1  0  0  0  0  0  0
    1.0933   -0.5962    0.0000 O   0  0  0  0  0  0  0  0  0  0  0  0
   -2.3717   -0.1353    4.3090 C   0  0  0  0  0  0  0  0  0  0  0  0
   -1.9850   -0.5571    5.1075 H   0  0  0  0  0  0  0  0  0  0  0  0
   -3.3079   -0.3941    4.1646 H   0  0  0  0  0  0  0  0  0  0  0  0
   -2.3286    0.9464    4.4356 H   0  0  0  0  0  0  0  0  0  0  0  0
   -1.5613   -0.5748    3.0961 C   0  0  0  0  0  0  0  0  0  0  0  0
   -1.8265   -0.0100    2.3010 H   0  0  0  0  0  0  0  0  0  0  0  0
   -0.5809   -0.4099    3.2783 H   0  0  0  0  0  0  0  0  0  0  0  0
   -1.7293   -2.0295    2.7159 C   0  0  0  0  0  0  0  0  0  0  0  0
   -2.6786   -2.2919    2.8994 H   0  0  0  0  0  0  0  0  0  0  0  0
   -1.5475   -2.1174    1.7342 H   0  0  0  0  0  0  0  0  0  0  0  0
   -1.0619   -2.6937    3.2649 H   0  0  0  0  0  0  0  0  0  0  0  0
  1  5  1  0
  5  6  1  0
  5  7  2  0
  1  2  1  0
  1  3  1  0
  1  4  1  0
  8 12  1  0
 12 15  1  0
  8  9  1  0
  8 10  1  0
  8 11  1  0
 12 13  1  0
 12 14  1  0
 15 16  1  0
 15 17  1  0
 15 18  1  0
M  CHG  1   6  -1
M  END
>  <PDB_ID>  (352) 
pdb1auw

>  <RESIDUE_NAME>  (352) 
GLU   ARG

>  <FRAG_NAME>  (352) 
ACET   PRPA

>  <FRAG_ATOM_NUM>  (352) 
fragi: 7  fragj: 11

>  <atom.prop.CHAIN_ID>  (352) 
A A A A A A A Z Z Z Z Z Z Z Z Z Z Z

>  <atom.prop.IS_HEAVY_ATOM>  (352) 
1 0 0 0 1 1 1 1 0 0 0 1 0 0 1 0 0 0

>  <DIFUSE_FUNC_ATOM>  (352) 
atom 6   atom 7   

>  <FINAL_SINGLE_POINT_ENERGY>  (352) 
0

>  <NONCOV_INTER_ENERGY_QM>  (352) 
0

>  <FF_Energy>  (352) 
0.64

>  <QM_Energy>  (352) 
-4.65

>  <Index>  (352) 
26402

$$$$
ACET-pdb2ble-A-GLU-29:PRPA-pdb2ble-A-LYS-25
     RDKit          3D

 18 16  0  0  0  0  0  0  0  0999 V2000
   -0.0147    1.5151   -0.0010 C   0  0  0  0  0  0  0  0  0  0  0  0
   -0.3145    1.8102   -0.8847 H   0  0  0  0  0  0  0  0  0  0  0  0
    0.8887    1.8213    0.2172 H   0  0  0  0  0  0  0  0  0  0  0  0
   -0.7028    1.9137    0.7444 H   0  0  0  0  0  0  0  0  0  0  0  0
    0.0000    0.0000    0.0000 C   0  0  0  0  0  0  0  0  0  0  0  0
   -1.0985   -0.6019   -0.0000 O   0  0  0  0  0  1  0  0  0  0  0  0
    1.0985   -0.5881    0.0000 O   0  0  0  0  0  0  0  0  0  0  0  0
    3.4565   -2.0775   -0.9277 C   0  0  0  0  0  0  0  0  0  0  0  0
    2.8787   -1.2911   -1.1210 H   0  0  0  0  0  0  0  0  0  0  0  0
    4.3606   -1.9446   -1.3219 H   0  0  0  0  0  0  0  0  0  0  0  0
    3.5738   -2.1444    0.1539 H   0  0  0  0  0  0  0  0  0  0  0  0
    2.8268   -3.3110   -1.5556 C   0  0  0  0  0  0  0  0  0  0  0  0
    3.4021   -4.1047   -1.3630 H   0  0  0  0  0  0  0  0  0  0  0  0
    1.9194   -3.4507   -1.1625 H   0  0  0  0  0  0  0  0  0  0  0  0
    2.6933   -3.1534   -3.0623 C   0  0  0  0  0  0  0  0  0  0  0  0
    2.1202   -2.3566   -3.2512 H   0  0  0  0  0  0  0  0  0  0  0  0
    3.6020   -3.0126   -3.4521 H   0  0  0  0  0  0  0  0  0  0  0  0
    2.2433   -4.0277   -3.5328 H   0  0  0  0  0  0  0  0  0  0  0  0
  1  5  1  0
  5  6  1  0
  5  7  2  0
  1  2  1  0
  1  3  1  0
  1  4  1  0
  8 12  1  0
 12 15  1  0
  8  9  1  0
  8 10  1  0
  8 11  1  0
 12 13  1  0
 12 14  1  0
 15 16  1  0
 15 17  1  0
 15 18  1  0
M  CHG  1   6  -1
M  END
>  <PDB_ID>  (353) 
pdb2ble

>  <RESIDUE_NAME>  (353) 
GLU   LYS

>  <FRAG_NAME>  (353) 
ACET   PRPA

>  <FRAG_ATOM_NUM>  (353) 
fragi: 7  fragj: 11

>  <atom.prop.CHAIN_ID>  (353) 
A A A A A A A Z Z Z Z Z Z Z Z Z Z Z

>  <atom.prop.IS_HEAVY_ATOM>  (353) 
1 0 0 0 1 1 1 1 0 0 0 1 0 0 1 0 0 0

>  <DIFUSE_FUNC_ATOM>  (353) 
atom 6   atom 7   

>  <FINAL_SINGLE_POINT_ENERGY>  (353) 
0

>  <NONCOV_INTER_ENERGY_QM>  (353) 
0

>  <FF_Energy>  (353) 
2.6

>  <QM_Energy>  (353) 
-2.92

>  <Index>  (353) 
26511

$$$$
ACET-pdb1b09-E-GLU-42:PRPA-pdb1b09-A-VAL-117
     RDKit          3D

 18 16  0  0  0  0  0  0  0  0999 V2000
    0.0101    1.5117    0.0019 C   0  0  0  0  0  0  0  0  0  0  0  0
   -0.1209    1.8149   -0.9077 H   0  0  0  0  0  0  0  0  0  0  0  0
    0.8341    1.8067    0.4164 H   0  0  0  0  0  0  0  0  0  0  0  0
   -0.8231    1.8755    0.6033 H   0  0  0  0  0  0  0  0  0  0  0  0
    0.0000    0.0000    0.0000 C   0  0  0  0  0  0  0  0  0  0  0  0
   -1.0780   -0.5788    0.0000 O   0  0  0  0  0  1  0  0  0  0  0  0
    1.0780   -0.5911    0.0000 O   0  0  0  0  0  0  0  0  0  0  0  0
    4.6595   -0.1284    2.5357 C   0  0  0  0  0  0  0  0  0  0  0  0
    5.4887    0.4530    2.5795 H   0  0  0  0  0  0  0  0  0  0  0  0
    4.5429   -0.4752    1.5090 H   0  0  0  0  0  0  0  0  0  0  0  0
    4.7898   -0.9503    3.2398 H   0  0  0  0  0  0  0  0  0  0  0  0
    3.4211    0.6887    2.9274 C   0  0  0  0  0  0  0  0  0  0  0  0
    3.5469    1.0044    3.8635 H   0  0  0  0  0  0  0  0  0  0  0  0
    3.3337    1.5772    2.3021 H   0  0  0  0  0  0  0  0  0  0  0  0
    2.1643   -0.1500    2.7544 C   0  0  0  0  0  0  0  0  0  0  0  0
    1.7632    0.0363    1.8579 H   0  0  0  0  0  0  0  0  0  0  0  0
    2.4021   -1.1194    2.8210 H   0  0  0  0  0  0  0  0  0  0  0  0
    1.5088    0.0856    3.4719 H   0  0  0  0  0  0  0  0  0  0  0  0
  1  5  1  0
  5  6  1  0
  5  7  2  0
  1  2  1  0
  1  3  1  0
  1  4  1  0
  8 12  1  0
 12 15  1  0
  8  9  1  0
  8 10  1  0
  8 11  1  0
 12 13  1  0
 12 14  1  0
 15 16  1  0
 15 17  1  0
 15 18  1  0
M  CHG  1   6  -1
M  END
>  <PDB_ID>  (354) 
pdb1b09

>  <RESIDUE_NAME>  (354) 
GLU   VAL

>  <FRAG_NAME>  (354) 
ACET   PRPA

>  <FRAG_ATOM_NUM>  (354) 
fragi: 7  fragj: 11

>  <atom.prop.CHAIN_ID>  (354) 
A A A A A A A Z Z Z Z Z Z Z Z Z Z Z

>  <atom.prop.IS_HEAVY_ATOM>  (354) 
1 0 0 0 1 1 1 1 0 0 0 1 0 0 1 0 0 0

>  <DIFUSE_FUNC_ATOM>  (354) 
atom 6   atom 7   

>  <FINAL_SINGLE_POINT_ENERGY>  (354) 
0

>  <NONCOV_INTER_ENERGY_QM>  (354) 
0

>  <FF_Energy>  (354) 
7.65

>  <QM_Energy>  (354) 
-1.71

>  <Index>  (354) 
26569

$$$$
ACET-pdb1b09-E-GLU-42:PRPA-pdb1b09-A-VAL-117
     RDKit          3D

 18 16  0  0  0  0  0  0  0  0999 V2000
    0.0101    1.5117    0.0019 C   0  0  0  0  0  0  0  0  0  0  0  0
   -0.1209    1.8149   -0.9077 H   0  0  0  0  0  0  0  0  0  0  0  0
    0.8341    1.8067    0.4164 H   0  0  0  0  0  0  0  0  0  0  0  0
   -0.8231    1.8755    0.6033 H   0  0  0  0  0  0  0  0  0  0  0  0
    0.0000    0.0000    0.0000 C   0  0  0  0  0  0  0  0  0  0  0  0
   -1.0780   -0.5788    0.0000 O   0  0  0  0  0  1  0  0  0  0  0  0
    1.0780   -0.5911    0.0000 O   0  0  0  0  0  0  0  0  0  0  0  0
    3.2990    1.9302    2.0537 C   0  0  0  0  0  0  0  0  0  0  0  0
    4.0468    2.5605    2.2636 H   0  0  0  0  0  0  0  0  0  0  0  0
    3.3462    1.6660    1.0904 H   0  0  0  0  0  0  0  0  0  0  0  0
    2.4243    2.3803    2.2335 H   0  0  0  0  0  0  0  0  0  0  0  0
    3.4211    0.6887    2.9274 C   0  0  0  0  0  0  0  0  0  0  0  0
    3.5469    1.0044    3.8635 H   0  0  0  0  0  0  0  0  0  0  0  0
    4.3007    0.1083    2.6492 H   0  0  0  0  0  0  0  0  0  0  0  0
    2.1643   -0.1500    2.7544 C   0  0  0  0  0  0  0  0  0  0  0  0
    1.7632    0.0363    1.8579 H   0  0  0  0  0  0  0  0  0  0  0  0
    2.4021   -1.1194    2.8210 H   0  0  0  0  0  0  0  0  0  0  0  0
    1.5088    0.0856    3.4719 H   0  0  0  0  0  0  0  0  0  0  0  0
  1  5  1  0
  5  6  1  0
  5  7  2  0
  1  2  1  0
  1  3  1  0
  1  4  1  0
  8 12  1  0
 12 15  1  0
  8  9  1  0
  8 10  1  0
  8 11  1  0
 12 13  1  0
 12 14  1  0
 15 16  1  0
 15 17  1  0
 15 18  1  0
M  CHG  1   6  -1
M  END
>  <PDB_ID>  (355) 
pdb1b09

>  <RESIDUE_NAME>  (355) 
GLU   VAL

>  <FRAG_NAME>  (355) 
ACET   PRPA

>  <FRAG_ATOM_NUM>  (355) 
fragi: 7  fragj: 11

>  <atom.prop.CHAIN_ID>  (355) 
A A A A A A A Z Z Z Z Z Z Z Z Z Z Z

>  <atom.prop.IS_HEAVY_ATOM>  (355) 
1 0 0 0 1 1 1 1 0 0 0 1 0 0 1 0 0 0

>  <DIFUSE_FUNC_ATOM>  (355) 
atom 6   atom 7   

>  <FINAL_SINGLE_POINT_ENERGY>  (355) 
0

>  <NONCOV_INTER_ENERGY_QM>  (355) 
0

>  <FF_Energy>  (355) 
7.42

>  <QM_Energy>  (355) 
-1.96

>  <Index>  (355) 
26575

$$$$
ACET-pdb2b0o-G-GLU-671:PRPA-pdb2b0o-G-ARG-663
     RDKit          3D

 18 16  0  0  0  0  0  0  0  0999 V2000
   -0.0319    1.5437   -0.0517 C   0  0  0  0  0  0  0  0  0  0  0  0
   -0.4360    1.8539    0.7909 H   0  0  0  0  0  0  0  0  0  0  0  0
   -0.5744    1.7954   -0.8346 H   0  0  0  0  0  0  0  0  0  0  0  0
    0.9472    2.0123   -0.1506 H   0  0  0  0  0  0  0  0  0  0  0  0
    0.0000    0.0000    0.0000 C   0  0  0  0  0  0  0  0  0  0  0  0
   -1.1031   -0.6078    0.0000 O   0  0  0  0  0  1  0  0  0  0  0  0
    1.1031   -0.5962    0.0000 O   0  0  0  0  0  0  0  0  0  0  0  0
    1.6509   -1.1665   -3.9819 C   0  0  0  0  0  0  0  0  0  0  0  0
    1.8493   -1.2547   -2.9897 H   0  0  0  0  0  0  0  0  0  0  0  0
    1.8454   -0.1351   -4.2757 H   0  0  0  0  0  0  0  0  0  0  0  0
    2.2501   -1.8997   -4.5217 H   0  0  0  0  0  0  0  0  0  0  0  0
    0.1761   -1.4933   -4.1334 C   0  0  0  0  0  0  0  0  0  0  0  0
   -0.0861   -1.3385   -5.0775 H   0  0  0  0  0  0  0  0  0  0  0  0
    0.0354   -2.4420   -3.8802 H   0  0  0  0  0  0  0  0  0  0  0  0
   -0.7078   -0.6347   -3.2524 C   0  0  0  0  0  0  0  0  0  0  0  0
   -0.3477   -0.6256   -2.3239 H   0  0  0  0  0  0  0  0  0  0  0  0
   -0.7441    0.2914   -3.6160 H   0  0  0  0  0  0  0  0  0  0  0  0
   -1.7248   -1.0253   -3.2187 H   0  0  0  0  0  0  0  0  0  0  0  0
  1  5  1  0
  5  6  1  0
  5  7  2  0
  1  2  1  0
  1  3  1  0
  1  4  1  0
  8 12  1  0
 12 15  1  0
  8  9  1  0
  8 10  1  0
  8 11  1  0
 12 13  1  0
 12 14  1  0
 15 16  1  0
 15 17  1  0
 15 18  1  0
M  CHG  1   6  -1
M  END
>  <PDB_ID>  (356) 
pdb2b0o

>  <RESIDUE_NAME>  (356) 
GLU   ARG

>  <FRAG_NAME>  (356) 
ACET   PRPA

>  <FRAG_ATOM_NUM>  (356) 
fragi: 7  fragj: 11

>  <atom.prop.CHAIN_ID>  (356) 
A A A A A A A Z Z Z Z Z Z Z Z Z Z Z

>  <atom.prop.IS_HEAVY_ATOM>  (356) 
1 0 0 0 1 1 1 1 0 0 0 1 0 0 1 0 0 0

>  <DIFUSE_FUNC_ATOM>  (356) 
atom 6   atom 7   

>  <FINAL_SINGLE_POINT_ENERGY>  (356) 
0

>  <NONCOV_INTER_ENERGY_QM>  (356) 
0

>  <FF_Energy>  (356) 
4.22

>  <QM_Energy>  (356) 
-3.65

>  <Index>  (356) 
26629

$$$$
ACET-pdb2bjd-B-GLU-55:PRPA-pdb2bjd-B-LEU-49
     RDKit          3D

 18 16  0  0  0  0  0  0  0  0999 V2000
    0.0003    1.5157    0.0381 C   0  0  0  0  0  0  0  0  0  0  0  0
    0.7983    1.8218   -0.4462 H   0  0  0  0  0  0  0  0  0  0  0  0
    0.0101    1.7856    0.9826 H   0  0  0  0  0  0  0  0  0  0  0  0
   -0.8827    1.9411   -0.4388 H   0  0  0  0  0  0  0  0  0  0  0  0
    0.0000    0.0000    0.0000 C   0  0  0  0  0  0  0  0  0  0  0  0
   -1.1106   -0.6135    0.0000 O   0  0  0  0  0  1  0  0  0  0  0  0
    1.1106   -0.5602    0.0000 O   0  0  0  0  0  0  0  0  0  0  0  0
   -0.0162    0.8954    3.3796 C   0  0  0  0  0  0  0  0  0  0  0  0
    0.4440    0.1356    3.8506 H   0  0  0  0  0  0  0  0  0  0  0  0
   -0.0165    0.7090    2.3920 H   0  0  0  0  0  0  0  0  0  0  0  0
    0.5034    1.7395    3.5476 H   0  0  0  0  0  0  0  0  0  0  0  0
   -1.4168    1.0417    3.8794 C   0  0  0  0  0  0  0  0  0  0  0  0
   -1.8718    1.8016    3.4113 H   0  0  0  0  0  0  0  0  0  0  0  0
   -1.4160    1.2442    4.9505 H   0  0  0  0  0  0  0  0  0  0  0  0
   -2.2217   -0.1932    3.5320 C   0  0  0  0  0  0  0  0  0  0  0  0
   -3.1721   -0.0709    3.8242 H   0  0  0  0  0  0  0  0  0  0  0  0
   -2.1979   -0.3447    2.5417 H   0  0  0  0  0  0  0  0  0  0  0  0
   -1.8343   -0.9918    3.9970 H   0  0  0  0  0  0  0  0  0  0  0  0
  1  5  1  0
  5  6  1  0
  5  7  2  0
  1  2  1  0
  1  3  1  0
  1  4  1  0
  8 12  1  0
 12 15  1  0
  8  9  1  0
  8 10  1  0
  8 11  1  0
 12 13  1  0
 12 14  1  0
 15 16  1  0
 15 17  1  0
 15 18  1  0
M  CHG  1   6  -1
M  END
>  <PDB_ID>  (357) 
pdb2bjd

>  <RESIDUE_NAME>  (357) 
GLU   LEU

>  <FRAG_NAME>  (357) 
ACET   PRPA

>  <FRAG_ATOM_NUM>  (357) 
fragi: 7  fragj: 11

>  <atom.prop.CHAIN_ID>  (357) 
A A A A A A A Z Z Z Z Z Z Z Z Z Z Z

>  <atom.prop.IS_HEAVY_ATOM>  (357) 
1 0 0 0 1 1 1 1 0 0 0 1 0 0 1 0 0 0

>  <DIFUSE_FUNC_ATOM>  (357) 
atom 6   atom 7   

>  <FINAL_SINGLE_POINT_ENERGY>  (357) 
0

>  <NONCOV_INTER_ENERGY_QM>  (357) 
0

>  <FF_Energy>  (357) 
5.8

>  <QM_Energy>  (357) 
-2.03

>  <Index>  (357) 
26631

$$$$
ACET-pdb2b43-A-ASP-354:PRPA-pdb2b43-A-LYS-357
     RDKit          3D

 18 16  0  0  0  0  0  0  0  0999 V2000
    0.0459    1.5403    0.0043 C   0  0  0  0  0  0  0  0  0  0  0  0
    0.7472    1.8309   -0.6360 H   0  0  0  0  0  0  0  0  0  0  0  0
    0.2659    1.8415    0.9235 H   0  0  0  0  0  0  0  0  0  0  0  0
   -0.8979    1.9994   -0.2900 H   0  0  0  0  0  0  0  0  0  0  0  0
    0.0000    0.0000    0.0000 C   0  0  0  0  0  0  0  0  0  0  0  0
   -1.0914   -0.6175    0.0000 O   0  0  0  0  0  1  0  0  0  0  0  0
    1.0914   -0.6140    0.0000 O   0  0  0  0  0  0  0  0  0  0  0  0
    1.5751    0.2840    3.2684 C   0  0  0  0  0  0  0  0  0  0  0  0
    1.9636   -0.3741    3.9050 H   0  0  0  0  0  0  0  0  0  0  0  0
    1.1711   -0.1834    2.4899 H   0  0  0  0  0  0  0  0  0  0  0  0
    0.8237    0.8925    3.7718 H   0  0  0  0  0  0  0  0  0  0  0  0
    2.6937    1.1839    2.7642 C   0  0  0  0  0  0  0  0  0  0  0  0
    2.2987    2.0319    2.4214 H   0  0  0  0  0  0  0  0  0  0  0  0
    3.3204    1.3777    3.5143 H   0  0  0  0  0  0  0  0  0  0  0  0
    3.4965    0.5356    1.6259 C   0  0  0  0  0  0  0  0  0  0  0  0
    2.9319   -0.1841    1.2157 H   0  0  0  0  0  0  0  0  0  0  0  0
    3.6819    1.2375    0.9346 H   0  0  0  0  0  0  0  0  0  0  0  0
    4.4336    0.1129    1.9882 H   0  0  0  0  0  0  0  0  0  0  0  0
  1  5  1  0
  5  6  1  0
  5  7  2  0
  1  2  1  0
  1  3  1  0
  1  4  1  0
  8 12  1  0
 12 15  1  0
  8  9  1  0
  8 10  1  0
  8 11  1  0
 12 13  1  0
 12 14  1  0
 15 16  1  0
 15 17  1  0
 15 18  1  0
M  CHG  1   6  -1
M  END
>  <PDB_ID>  (358) 
pdb2b43

>  <RESIDUE_NAME>  (358) 
ASP   LYS

>  <FRAG_NAME>  (358) 
ACET   PRPA

>  <FRAG_ATOM_NUM>  (358) 
fragi: 7  fragj: 11

>  <atom.prop.CHAIN_ID>  (358) 
A A A A A A A Z Z Z Z Z Z Z Z Z Z Z

>  <atom.prop.IS_HEAVY_ATOM>  (358) 
1 0 0 0 1 1 1 1 0 0 0 1 0 0 1 0 0 0

>  <DIFUSE_FUNC_ATOM>  (358) 
atom 6   atom 7   

>  <FINAL_SINGLE_POINT_ENERGY>  (358) 
0

>  <NONCOV_INTER_ENERGY_QM>  (358) 
0

>  <FF_Energy>  (358) 
1.42

>  <QM_Energy>  (358) 
-4.89

>  <Index>  (358) 
26664

$$$$
ACET-pdb2bdz-A-GLU-3:PRPA-pdb2bdz-A-LYS-168
     RDKit          3D

 18 16  0  0  0  0  0  0  0  0999 V2000
    0.0077    1.5105   -0.0131 C   0  0  0  0  0  0  0  0  0  0  0  0
   -0.4532    1.8006   -0.8333 H   0  0  0  0  0  0  0  0  0  0  0  0
    0.9484    1.8011    0.0035 H   0  0  0  0  0  0  0  0  0  0  0  0
   -0.5070    1.9391    0.8469 H   0  0  0  0  0  0  0  0  0  0  0  0
    0.0000    0.0000    0.0000 C   0  0  0  0  0  0  0  0  0  0  0  0
   -1.1004   -0.5950    0.0000 O   0  0  0  0  0  1  0  0  0  0  0  0
    1.1004   -0.5917   -0.0000 O   0  0  0  0  0  0  0  0  0  0  0  0
    1.3645    1.1972   -3.4916 C   0  0  0  0  0  0  0  0  0  0  0  0
    1.8233    1.2877   -2.6051 H   0  0  0  0  0  0  0  0  0  0  0  0
    0.4415    1.5817   -3.4243 H   0  0  0  0  0  0  0  0  0  0  0  0
    1.9294    1.7448   -4.2460 H   0  0  0  0  0  0  0  0  0  0  0  0
    1.2517   -0.2835   -3.8321 C   0  0  0  0  0  0  0  0  0  0  0  0
    0.7934   -0.3725   -4.7179 H   0  0  0  0  0  0  0  0  0  0  0  0
    2.1744   -0.6668   -3.8976 H   0  0  0  0  0  0  0  0  0  0  0  0
    0.4725   -1.0624   -2.8004 C   0  0  0  0  0  0  0  0  0  0  0  0
    0.9280   -0.9807   -1.9135 H   0  0  0  0  0  0  0  0  0  0  0  0
   -0.4530   -0.6864   -2.7339 H   0  0  0  0  0  0  0  0  0  0  0  0
    0.4124   -2.1150   -3.0766 H   0  0  0  0  0  0  0  0  0  0  0  0
  1  5  1  0
  5  6  1  0
  5  7  2  0
  1  2  1  0
  1  3  1  0
  1  4  1  0
  8 12  1  0
 12 15  1  0
  8  9  1  0
  8 10  1  0
  8 11  1  0
 12 13  1  0
 12 14  1  0
 15 16  1  0
 15 17  1  0
 15 18  1  0
M  CHG  1   6  -1
M  END
>  <PDB_ID>  (359) 
pdb2bdz

>  <RESIDUE_NAME>  (359) 
GLU   LYS

>  <FRAG_NAME>  (359) 
ACET   PRPA

>  <FRAG_ATOM_NUM>  (359) 
fragi: 7  fragj: 11

>  <atom.prop.CHAIN_ID>  (359) 
A A A A A A A Z Z Z Z Z Z Z Z Z Z Z

>  <atom.prop.IS_HEAVY_ATOM>  (359) 
1 0 0 0 1 1 1 1 0 0 0 1 0 0 1 0 0 0

>  <DIFUSE_FUNC_ATOM>  (359) 
atom 6   atom 7   

>  <FINAL_SINGLE_POINT_ENERGY>  (359) 
0

>  <NONCOV_INTER_ENERGY_QM>  (359) 
0

>  <FF_Energy>  (359) 
26.28

>  <QM_Energy>  (359) 
-1.25

>  <Index>  (359) 
26673

$$$$
ACET-pdb2ash-D-GLU-159:PRPA-pdb2ash-D-LYS-155
     RDKit          3D

 18 16  0  0  0  0  0  0  0  0999 V2000
    0.2170    1.5011    0.0140 C   0  0  0  0  0  0  0  0  0  0  0  0
    0.7198    1.7422   -0.8034 H   0  0  0  0  0  0  0  0  0  0  0  0
    0.7304    1.7245    0.8298 H   0  0  0  0  0  0  0  0  0  0  0  0
   -0.6965    2.0954    0.0255 H   0  0  0  0  0  0  0  0  0  0  0  0
    0.0000    0.0000    0.0000 C   0  0  0  0  0  0  0  0  0  0  0  0
   -1.0877   -0.5366   -0.0000 O   0  0  0  0  0  1  0  0  0  0  0  0
    1.0877   -0.6202    0.0000 O   0  0  0  0  0  0  0  0  0  0  0  0
    2.4354   -0.4649    3.3398 C   0  0  0  0  0  0  0  0  0  0  0  0
    1.5659   -0.3495    2.8450 H   0  0  0  0  0  0  0  0  0  0  0  0
    3.1145    0.1603    2.9379 H   0  0  0  0  0  0  0  0  0  0  0  0
    2.2929   -0.2258    4.3937 H   0  0  0  0  0  0  0  0  0  0  0  0
    2.9159   -1.8902    3.1340 C   0  0  0  0  0  0  0  0  0  0  0  0
    3.8038   -1.9992    3.5454 H   0  0  0  0  0  0  0  0  0  0  0  0
    2.2552   -2.5170    3.5091 H   0  0  0  0  0  0  0  0  0  0  0  0
    3.0469   -2.1765    1.6254 C   0  0  0  0  0  0  0  0  0  0  0  0
    2.1320   -2.1406    1.2150 H   0  0  0  0  0  0  0  0  0  0  0  0
    3.6166   -1.4608    1.2145 H   0  0  0  0  0  0  0  0  0  0  0  0
    3.4930   -3.1506    1.4247 H   0  0  0  0  0  0  0  0  0  0  0  0
  1  5  1  0
  5  6  1  0
  5  7  2  0
  1  2  1  0
  1  3  1  0
  1  4  1  0
  8 12  1  0
 12 15  1  0
  8  9  1  0
  8 10  1  0
  8 11  1  0
 12 13  1  0
 12 14  1  0
 15 16  1  0
 15 17  1  0
 15 18  1  0
M  CHG  1   6  -1
M  END
>  <PDB_ID>  (360) 
pdb2ash

>  <RESIDUE_NAME>  (360) 
GLU   LYS

>  <FRAG_NAME>  (360) 
ACET   PRPA

>  <FRAG_ATOM_NUM>  (360) 
fragi: 7  fragj: 11

>  <atom.prop.CHAIN_ID>  (360) 
A A A A A A A Z Z Z Z Z Z Z Z Z Z Z

>  <atom.prop.IS_HEAVY_ATOM>  (360) 
1 0 0 0 1 1 1 1 0 0 0 1 0 0 1 0 0 0

>  <DIFUSE_FUNC_ATOM>  (360) 
atom 6   atom 7   

>  <FINAL_SINGLE_POINT_ENERGY>  (360) 
0

>  <NONCOV_INTER_ENERGY_QM>  (360) 
0

>  <FF_Energy>  (360) 
1.97

>  <QM_Energy>  (360) 
-3.59

>  <Index>  (360) 
26795

$$$$
ACET-pdb1ado-C-ASP-128:PRPA-pdb1ado-D-GLN-125
     RDKit          3D

 18 16  0  0  0  0  0  0  0  0999 V2000
    0.0083    1.5133    0.0049 C   0  0  0  0  0  0  0  0  0  0  0  0
    0.6273    1.8329   -0.7048 H   0  0  0  0  0  0  0  0  0  0  0  0
    0.3114    1.8301    0.8965 H   0  0  0  0  0  0  0  0  0  0  0  0
   -0.9752    1.9416   -0.1886 H   0  0  0  0  0  0  0  0  0  0  0  0
    0.0000    0.0000    0.0000 C   0  0  0  0  0  0  0  0  0  0  0  0
   -1.0919   -0.6008   -0.0000 O   0  0  0  0  0  1  0  0  0  0  0  0
    1.0919   -0.5869   -0.0000 O   0  0  0  0  0  0  0  0  0  0  0  0
   -2.9294   -2.4671    2.6171 C   0  0  0  0  0  0  0  0  0  0  0  0
   -3.1863   -2.9092    1.7548 H   0  0  0  0  0  0  0  0  0  0  0  0
   -3.5919   -2.8392    3.3986 H   0  0  0  0  0  0  0  0  0  0  0  0
   -1.8997   -2.7452    2.8421 H   0  0  0  0  0  0  0  0  0  0  0  0
   -3.0407   -0.9431    2.5086 C   0  0  0  0  0  0  0  0  0  0  0  0
   -2.4923   -0.6349    1.7293 H   0  0  0  0  0  0  0  0  0  0  0  0
   -4.0008   -0.7004    2.3512 H   0  0  0  0  0  0  0  0  0  0  0  0
   -2.5626   -0.1873    3.7487 C   0  0  0  0  0  0  0  0  0  0  0  0
   -3.1331   -0.4589    4.5263 H   0  0  0  0  0  0  0  0  0  0  0  0
   -1.6124   -0.4469    3.9324 H   0  0  0  0  0  0  0  0  0  0  0  0
   -2.6129    0.8965    3.6439 H   0  0  0  0  0  0  0  0  0  0  0  0
  1  5  1  0
  5  6  1  0
  5  7  2  0
  1  2  1  0
  1  3  1  0
  1  4  1  0
  8 12  1  0
 12 15  1  0
  8  9  1  0
  8 10  1  0
  8 11  1  0
 12 13  1  0
 12 14  1  0
 15 16  1  0
 15 17  1  0
 15 18  1  0
M  CHG  1   6  -1
M  END
>  <PDB_ID>  (361) 
pdb1ado

>  <RESIDUE_NAME>  (361) 
ASP   GLN

>  <FRAG_NAME>  (361) 
ACET   PRPA

>  <FRAG_ATOM_NUM>  (361) 
fragi: 7  fragj: 11

>  <atom.prop.CHAIN_ID>  (361) 
A A A A A A A Z Z Z Z Z Z Z Z Z Z Z

>  <atom.prop.IS_HEAVY_ATOM>  (361) 
1 0 0 0 1 1 1 1 0 0 0 1 0 0 1 0 0 0

>  <DIFUSE_FUNC_ATOM>  (361) 
atom 6   atom 7   

>  <FINAL_SINGLE_POINT_ENERGY>  (361) 
0

>  <NONCOV_INTER_ENERGY_QM>  (361) 
0

>  <FF_Energy>  (361) 
1.61

>  <QM_Energy>  (361) 
-3.86

>  <Index>  (361) 
26960

$$$$
ACET-pdb1b4p-A-ASP-118:PRPA-pdb1b4p-A-ARG-121
     RDKit          3D

 18 16  0  0  0  0  0  0  0  0999 V2000
    0.0667    1.5137    0.0139 C   0  0  0  0  0  0  0  0  0  0  0  0
    0.7650    1.7956    0.6619 H   0  0  0  0  0  0  0  0  0  0  0  0
   -0.8208    1.8703    0.2824 H   0  0  0  0  0  0  0  0  0  0  0  0
    0.3197    1.9316   -0.9605 H   0  0  0  0  0  0  0  0  0  0  0  0
    0.0000    0.0000    0.0000 C   0  0  0  0  0  0  0  0  0  0  0  0
   -1.0846   -0.6318   -0.0000 O   0  0  0  0  0  1  0  0  0  0  0  0
    1.0846   -0.6362   -0.0000 O   0  0  0  0  0  0  0  0  0  0  0  0
   -4.3188    2.7484    0.1088 C   0  0  0  0  0  0  0  0  0  0  0  0
   -3.3761    2.9760    0.3022 H   0  0  0  0  0  0  0  0  0  0  0  0
   -4.8916    2.8894    0.9015 H   0  0  0  0  0  0  0  0  0  0  0  0
   -4.6733    3.3960   -0.6930 H   0  0  0  0  0  0  0  0  0  0  0  0
   -4.3794    1.2624   -0.2590 C   0  0  0  0  0  0  0  0  0  0  0  0
   -5.3314    0.9543   -0.1869 H   0  0  0  0  0  0  0  0  0  0  0  0
   -4.0747    1.1565   -1.2097 H   0  0  0  0  0  0  0  0  0  0  0  0
   -3.5271    0.4206    0.6210 C   0  0  0  0  0  0  0  0  0  0  0  0
   -2.5589    0.6541    0.4644 H   0  0  0  0  0  0  0  0  0  0  0  0
   -3.7485    0.6219    1.5840 H   0  0  0  0  0  0  0  0  0  0  0  0
   -3.6412   -0.6526    0.4687 H   0  0  0  0  0  0  0  0  0  0  0  0
  1  5  1  0
  5  6  1  0
  5  7  2  0
  1  2  1  0
  1  3  1  0
  1  4  1  0
  8 12  1  0
 12 15  1  0
  8  9  1  0
  8 10  1  0
  8 11  1  0
 12 13  1  0
 12 14  1  0
 15 16  1  0
 15 17  1  0
 15 18  1  0
M  CHG  1   6  -1
M  END
>  <PDB_ID>  (362) 
pdb1b4p

>  <RESIDUE_NAME>  (362) 
ASP   ARG

>  <FRAG_NAME>  (362) 
ACET   PRPA

>  <FRAG_ATOM_NUM>  (362) 
fragi: 7  fragj: 11

>  <atom.prop.CHAIN_ID>  (362) 
A A A A A A A Z Z Z Z Z Z Z Z Z Z Z

>  <atom.prop.IS_HEAVY_ATOM>  (362) 
1 0 0 0 1 1 1 1 0 0 0 1 0 0 1 0 0 0

>  <DIFUSE_FUNC_ATOM>  (362) 
atom 6   atom 7   

>  <FINAL_SINGLE_POINT_ENERGY>  (362) 
0

>  <NONCOV_INTER_ENERGY_QM>  (362) 
0

>  <FF_Energy>  (362) 
12.95

>  <QM_Energy>  (362) 
1.99

>  <Index>  (362) 
26964

$$$$
ACET-pdb1b67-B-GLU-119:PRPA-pdb1b67-A-LYS-54
     RDKit          3D

 18 16  0  0  0  0  0  0  0  0999 V2000
   -0.0595    1.5128   -0.0222 C   0  0  0  0  0  0  0  0  0  0  0  0
    0.7927    1.8516    0.2790 H   0  0  0  0  0  0  0  0  0  0  0  0
   -0.8235    1.7913    0.4986 H   0  0  0  0  0  0  0  0  0  0  0  0
   -0.2104    1.8428   -1.0500 H   0  0  0  0  0  0  0  0  0  0  0  0
    0.0000    0.0000    0.0000 C   0  0  0  0  0  0  0  0  0  0  0  0
   -1.1013   -0.5817   -0.0000 O   0  0  0  0  0  1  0  0  0  0  0  0
    1.1013   -0.5700   -0.0000 O   0  0  0  0  0  0  0  0  0  0  0  0
   -3.7945    0.2707   -3.2160 C   0  0  0  0  0  0  0  0  0  0  0  0
   -3.6440   -0.1787   -4.0868 H   0  0  0  0  0  0  0  0  0  0  0  0
   -2.9796    0.7545   -2.9231 H   0  0  0  0  0  0  0  0  0  0  0  0
   -4.6054    0.9902   -3.3289 H   0  0  0  0  0  0  0  0  0  0  0  0
   -4.1135   -0.7989   -2.1770 C   0  0  0  0  0  0  0  0  0  0  0  0
   -5.0761   -1.0535   -2.2579 H   0  0  0  0  0  0  0  0  0  0  0  0
   -3.5400   -1.5989   -2.3471 H   0  0  0  0  0  0  0  0  0  0  0  0
   -3.8544   -0.2961   -0.7646 C   0  0  0  0  0  0  0  0  0  0  0  0
   -3.0950   -0.8002   -0.3769 H   0  0  0  0  0  0  0  0  0  0  0  0
   -3.6585    0.6738   -0.7972 H   0  0  0  0  0  0  0  0  0  0  0  0
   -4.7310   -0.4518   -0.1358 H   0  0  0  0  0  0  0  0  0  0  0  0
  1  5  1  0
  5  6  1  0
  5  7  2  0
  1  2  1  0
  1  3  1  0
  1  4  1  0
  8 12  1  0
 12 15  1  0
  8  9  1  0
  8 10  1  0
  8 11  1  0
 12 13  1  0
 12 14  1  0
 15 16  1  0
 15 17  1  0
 15 18  1  0
M  CHG  1   6  -1
M  END
>  <PDB_ID>  (363) 
pdb1b67

>  <RESIDUE_NAME>  (363) 
GLU   LYS

>  <FRAG_NAME>  (363) 
ACET   PRPA

>  <FRAG_ATOM_NUM>  (363) 
fragi: 7  fragj: 11

>  <atom.prop.CHAIN_ID>  (363) 
A A A A A A A Z Z Z Z Z Z Z Z Z Z Z

>  <atom.prop.IS_HEAVY_ATOM>  (363) 
1 0 0 0 1 1 1 1 0 0 0 1 0 0 1 0 0 0

>  <DIFUSE_FUNC_ATOM>  (363) 
atom 6   atom 7   

>  <FINAL_SINGLE_POINT_ENERGY>  (363) 
0

>  <NONCOV_INTER_ENERGY_QM>  (363) 
0

>  <FF_Energy>  (363) 
8.36

>  <QM_Energy>  (363) 
-1.7

>  <Index>  (363) 
27004

$$$$
ACET-pdb1b67-B-GLU-119:PRPA-pdb1b67-A-LYS-54
     RDKit          3D

 18 16  0  0  0  0  0  0  0  0999 V2000
   -0.0595    1.5128   -0.0222 C   0  0  0  0  0  0  0  0  0  0  0  0
    0.7927    1.8516    0.2790 H   0  0  0  0  0  0  0  0  0  0  0  0
   -0.8235    1.7913    0.4986 H   0  0  0  0  0  0  0  0  0  0  0  0
   -0.2104    1.8428   -1.0500 H   0  0  0  0  0  0  0  0  0  0  0  0
    0.0000    0.0000    0.0000 C   0  0  0  0  0  0  0  0  0  0  0  0
   -1.1013   -0.5817   -0.0000 O   0  0  0  0  0  1  0  0  0  0  0  0
    1.1013   -0.5700   -0.0000 O   0  0  0  0  0  0  0  0  0  0  0  0
   -4.1135   -0.7989   -2.1770 C   0  0  0  0  0  0  0  0  0  0  0  0
   -5.0761   -1.0535   -2.2579 H   0  0  0  0  0  0  0  0  0  0  0  0
   -3.5400   -1.5989   -2.3471 H   0  0  0  0  0  0  0  0  0  0  0  0
   -3.8855   -0.0344   -2.9197 H   0  0  0  0  0  0  0  0  0  0  0  0
   -3.8544   -0.2961   -0.7646 C   0  0  0  0  0  0  0  0  0  0  0  0
   -3.0950   -0.8002   -0.3769 H   0  0  0  0  0  0  0  0  0  0  0  0
   -3.6585    0.6738   -0.7972 H   0  0  0  0  0  0  0  0  0  0  0  0
   -5.0817   -0.5141    0.1158 C   0  0  0  0  0  0  0  0  0  0  0  0
   -5.6689   -1.2004   -0.3078 H   0  0  0  0  0  0  0  0  0  0  0  0
   -4.7857   -0.8308    1.0150 H   0  0  0  0  0  0  0  0  0  0  0  0
   -5.6451    0.4116    0.2336 H   0  0  0  0  0  0  0  0  0  0  0  0
  1  5  1  0
  5  6  1  0
  5  7  2  0
  1  2  1  0
  1  3  1  0
  1  4  1  0
  8 12  1  0
 12 15  1  0
  8  9  1  0
  8 10  1  0
  8 11  1  0
 12 13  1  0
 12 14  1  0
 15 16  1  0
 15 17  1  0
 15 18  1  0
M  CHG  1   6  -1
M  END
>  <PDB_ID>  (364) 
pdb1b67

>  <RESIDUE_NAME>  (364) 
GLU   LYS

>  <FRAG_NAME>  (364) 
ACET   PRPA

>  <FRAG_ATOM_NUM>  (364) 
fragi: 7  fragj: 11

>  <atom.prop.CHAIN_ID>  (364) 
A A A A A A A Z Z Z Z Z Z Z Z Z Z Z

>  <atom.prop.IS_HEAVY_ATOM>  (364) 
1 0 0 0 1 1 1 1 0 0 0 1 0 0 1 0 0 0

>  <DIFUSE_FUNC_ATOM>  (364) 
atom 6   atom 7   

>  <FINAL_SINGLE_POINT_ENERGY>  (364) 
0

>  <NONCOV_INTER_ENERGY_QM>  (364) 
0

>  <FF_Energy>  (364) 
8.19

>  <QM_Energy>  (364) 
-1.58

>  <Index>  (364) 
27009

$$$$
ACET-pdb1b1y-A-ASP-168:PRPA-pdb1b1y-A-LYS-164
     RDKit          3D

 18 16  0  0  0  0  0  0  0  0999 V2000
    0.0023    1.5163    0.0162 C   0  0  0  0  0  0  0  0  0  0  0  0
    0.9188    1.8352   -0.2036 H   0  0  0  0  0  0  0  0  0  0  0  0
   -0.2606    1.8260    0.9241 H   0  0  0  0  0  0  0  0  0  0  0  0
   -0.6899    1.9520   -0.7043 H   0  0  0  0  0  0  0  0  0  0  0  0
    0.0000    0.0000    0.0000 C   0  0  0  0  0  0  0  0  0  0  0  0
   -1.0781   -0.5887    0.0000 O   0  0  0  0  0  1  0  0  0  0  0  0
    1.0781   -0.5899   -0.0000 O   0  0  0  0  0  0  0  0  0  0  0  0
    3.2115   -2.7423   -2.6318 C   0  0  0  0  0  0  0  0  0  0  0  0
    3.4607   -3.5410   -3.1753 H   0  0  0  0  0  0  0  0  0  0  0  0
    3.9909   -2.4554   -2.0769 H   0  0  0  0  0  0  0  0  0  0  0  0
    2.9539   -1.9293   -3.3107 H   0  0  0  0  0  0  0  0  0  0  0  0
    2.0806   -3.1456   -1.6886 C   0  0  0  0  0  0  0  0  0  0  0  0
    1.6750   -2.3132   -1.2891 H   0  0  0  0  0  0  0  0  0  0  0  0
    1.3670   -3.6225   -2.2158 H   0  0  0  0  0  0  0  0  0  0  0  0
    2.5279   -4.0648   -0.5392 C   0  0  0  0  0  0  0  0  0  0  0  0
    3.2202   -3.5837    0.0045 H   0  0  0  0  0  0  0  0  0  0  0  0
    1.7342   -4.2606    0.0426 H   0  0  0  0  0  0  0  0  0  0  0  0
    2.9529   -5.0157   -0.8607 H   0  0  0  0  0  0  0  0  0  0  0  0
  1  5  1  0
  5  6  1  0
  5  7  2  0
  1  2  1  0
  1  3  1  0
  1  4  1  0
  8 12  1  0
 12 15  1  0
  8  9  1  0
  8 10  1  0
  8 11  1  0
 12 13  1  0
 12 14  1  0
 15 16  1  0
 15 17  1  0
 15 18  1  0
M  CHG  1   6  -1
M  END
>  <PDB_ID>  (365) 
pdb1b1y

>  <RESIDUE_NAME>  (365) 
ASP   LYS

>  <FRAG_NAME>  (365) 
ACET   PRPA

>  <FRAG_ATOM_NUM>  (365) 
fragi: 7  fragj: 11

>  <atom.prop.CHAIN_ID>  (365) 
A A A A A A A Z Z Z Z Z Z Z Z Z Z Z

>  <atom.prop.IS_HEAVY_ATOM>  (365) 
1 0 0 0 1 1 1 1 0 0 0 1 0 0 1 0 0 0

>  <DIFUSE_FUNC_ATOM>  (365) 
atom 6   atom 7   

>  <FINAL_SINGLE_POINT_ENERGY>  (365) 
0

>  <NONCOV_INTER_ENERGY_QM>  (365) 
0

>  <FF_Energy>  (365) 
1.48

>  <QM_Energy>  (365) 
-4.07

>  <Index>  (365) 
27033

$$$$
ACET-pdb1b5l-A-GLU-59:PRPA-pdb1b5l-A-ILE-117
     RDKit          3D

 18 16  0  0  0  0  0  0  0  0999 V2000
    0.0208    1.5323   -0.0001 C   0  0  0  0  0  0  0  0  0  0  0  0
    0.9649    1.8064   -0.0030 H   0  0  0  0  0  0  0  0  0  0  0  0
   -0.4490    1.8248    0.8120 H   0  0  0  0  0  0  0  0  0  0  0  0
   -0.4744    1.9626   -0.8706 H   0  0  0  0  0  0  0  0  0  0  0  0
    0.0000    0.0000    0.0000 C   0  0  0  0  0  0  0  0  0  0  0  0
   -1.1020   -0.6040    0.0000 O   0  0  0  0  0  1  0  0  0  0  0  0
    1.1020   -0.5845    0.0000 O   0  0  0  0  0  0  0  0  0  0  0  0
   -0.5450    5.2890    3.1290 C   0  0  0  0  0  0  0  0  0  0  0  0
   -0.4766    5.1991    2.1401 H   0  0  0  0  0  0  0  0  0  0  0  0
   -0.9717    6.1624    3.3484 H   0  0  0  0  0  0  0  0  0  0  0  0
    0.4619    5.2874    3.5464 H   0  0  0  0  0  0  0  0  0  0  0  0
   -1.4292    4.1656    3.6672 C   0  0  0  0  0  0  0  0  0  0  0  0
   -1.4385    4.2215    4.6583 H   0  0  0  0  0  0  0  0  0  0  0  0
   -2.4557    4.2914    3.3227 H   0  0  0  0  0  0  0  0  0  0  0  0
   -0.8719    2.8319    3.2005 C   0  0  0  0  0  0  0  0  0  0  0  0
    0.0596    2.7198    3.5430 H   0  0  0  0  0  0  0  0  0  0  0  0
   -1.4442    2.0901    3.5475 H   0  0  0  0  0  0  0  0  0  0  0  0
   -0.8633    2.8029    2.2019 H   0  0  0  0  0  0  0  0  0  0  0  0
  1  5  1  0
  5  6  1  0
  5  7  2  0
  1  2  1  0
  1  3  1  0
  1  4  1  0
  8 12  1  0
 12 15  1  0
  8  9  1  0
  8 10  1  0
  8 11  1  0
 12 13  1  0
 12 14  1  0
 15 16  1  0
 15 17  1  0
 15 18  1  0
M  CHG  1   6  -1
M  END
>  <PDB_ID>  (366) 
pdb1b5l

>  <RESIDUE_NAME>  (366) 
GLU   ILE

>  <FRAG_NAME>  (366) 
ACET   PRPA

>  <FRAG_ATOM_NUM>  (366) 
fragi: 7  fragj: 11

>  <atom.prop.CHAIN_ID>  (366) 
A A A A A A A Z Z Z Z Z Z Z Z Z Z Z

>  <atom.prop.IS_HEAVY_ATOM>  (366) 
1 0 0 0 1 1 1 1 0 0 0 1 0 0 1 0 0 0

>  <DIFUSE_FUNC_ATOM>  (366) 
atom 6   atom 7   

>  <FINAL_SINGLE_POINT_ENERGY>  (366) 
0

>  <NONCOV_INTER_ENERGY_QM>  (366) 
0

>  <FF_Energy>  (366) 
7.58

>  <QM_Energy>  (366) 
0.78

>  <Index>  (366) 
27274

$$$$
ACET-pdb2b1x-B-GLU-619:PRPA-pdb2b1x-B-ARG-650
     RDKit          3D

 18 16  0  0  0  0  0  0  0  0999 V2000
    0.0325    1.5269    0.0084 C   0  0  0  0  0  0  0  0  0  0  0  0
    0.4802    1.8145   -0.8270 H   0  0  0  0  0  0  0  0  0  0  0  0
    0.5546    1.8032    0.8038 H   0  0  0  0  0  0  0  0  0  0  0  0
   -0.9450    2.0069    0.0556 H   0  0  0  0  0  0  0  0  0  0  0  0
    0.0000    0.0000    0.0000 C   0  0  0  0  0  0  0  0  0  0  0  0
   -1.0844   -0.6071   -0.0000 O   0  0  0  0  0  1  0  0  0  0  0  0
    1.0844   -0.6137    0.0000 O   0  0  0  0  0  0  0  0  0  0  0  0
    3.2062    2.9171   -2.8511 C   0  0  0  0  0  0  0  0  0  0  0  0
    3.6479    2.6870   -3.7147 H   0  0  0  0  0  0  0  0  0  0  0  0
    3.8842    3.2581   -2.2048 H   0  0  0  0  0  0  0  0  0  0  0  0
    2.4865    3.7138   -3.0399 H   0  0  0  0  0  0  0  0  0  0  0  0
    2.5968    1.6620   -2.2805 C   0  0  0  0  0  0  0  0  0  0  0  0
    1.6744    1.8649   -1.9282 H   0  0  0  0  0  0  0  0  0  0  0  0
    2.5092    0.9687   -3.0076 H   0  0  0  0  0  0  0  0  0  0  0  0
    3.4010    1.0480   -1.1504 C   0  0  0  0  0  0  0  0  0  0  0  0
    3.7551    1.7852   -0.5875 H   0  0  0  0  0  0  0  0  0  0  0  0
    2.7950    0.4642   -0.6238 H   0  0  0  0  0  0  0  0  0  0  0  0
    4.2283    0.4577   -1.5441 H   0  0  0  0  0  0  0  0  0  0  0  0
  1  5  1  0
  5  6  1  0
  5  7  2  0
  1  2  1  0
  1  3  1  0
  1  4  1  0
  8 12  1  0
 12 15  1  0
  8  9  1  0
  8 10  1  0
  8 11  1  0
 12 13  1  0
 12 14  1  0
 15 16  1  0
 15 17  1  0
 15 18  1  0
M  CHG  1   6  -1
M  END
>  <PDB_ID>  (367) 
pdb2b1x

>  <RESIDUE_NAME>  (367) 
GLU   ARG

>  <FRAG_NAME>  (367) 
ACET   PRPA

>  <FRAG_ATOM_NUM>  (367) 
fragi: 7  fragj: 11

>  <atom.prop.CHAIN_ID>  (367) 
A A A A A A A Z Z Z Z Z Z Z Z Z Z Z

>  <atom.prop.IS_HEAVY_ATOM>  (367) 
1 0 0 0 1 1 1 1 0 0 0 1 0 0 1 0 0 0

>  <DIFUSE_FUNC_ATOM>  (367) 
atom 6   atom 7   

>  <FINAL_SINGLE_POINT_ENERGY>  (367) 
0

>  <NONCOV_INTER_ENERGY_QM>  (367) 
0

>  <FF_Energy>  (367) 
2.58

>  <QM_Energy>  (367) 
-0.72

>  <Index>  (367) 
27320

$$$$
ACET-pdb1b1y-A-ASP-118:PRPA-pdb1b1y-A-LYS-209
     RDKit          3D

 18 16  0  0  0  0  0  0  0  0999 V2000
    0.0005    1.5178    0.0003 C   0  0  0  0  0  0  0  0  0  0  0  0
    0.9174    1.8321    0.2282 H   0  0  0  0  0  0  0  0  0  0  0  0
   -0.6490    1.8327    0.6850 H   0  0  0  0  0  0  0  0  0  0  0  0
   -0.2803    1.9410   -0.9641 H   0  0  0  0  0  0  0  0  0  0  0  0
    0.0000    0.0000    0.0000 C   0  0  0  0  0  0  0  0  0  0  0  0
   -1.0779   -0.5841    0.0000 O   0  0  0  0  0  1  0  0  0  0  0  0
    1.0779   -0.5984    0.0000 O   0  0  0  0  0  0  0  0  0  0  0  0
   -0.5537   -0.7991    3.7584 C   0  0  0  0  0  0  0  0  0  0  0  0
   -0.3537   -1.2440    4.6571 H   0  0  0  0  0  0  0  0  0  0  0  0
   -0.6697   -1.5621    3.0865 H   0  0  0  0  0  0  0  0  0  0  0  0
   -1.5175   -0.2983    3.8507 H   0  0  0  0  0  0  0  0  0  0  0  0
    0.6719    0.0003    3.3504 C   0  0  0  0  0  0  0  0  0  0  0  0
    0.6477    0.1622    2.3657 H   0  0  0  0  0  0  0  0  0  0  0  0
    0.6744    0.8725    3.8360 H   0  0  0  0  0  0  0  0  0  0  0  0
    1.9629   -0.7515    3.6892 C   0  0  0  0  0  0  0  0  0  0  0  0
    2.0248   -0.8537    4.6776 H   0  0  0  0  0  0  0  0  0  0  0  0
    1.9397   -1.6456    3.2513 H   0  0  0  0  0  0  0  0  0  0  0  0
    2.8525   -0.2250    3.3434 H   0  0  0  0  0  0  0  0  0  0  0  0
  1  5  1  0
  5  6  1  0
  5  7  2  0
  1  2  1  0
  1  3  1  0
  1  4  1  0
  8 12  1  0
 12 15  1  0
  8  9  1  0
  8 10  1  0
  8 11  1  0
 12 13  1  0
 12 14  1  0
 15 16  1  0
 15 17  1  0
 15 18  1  0
M  CHG  1   6  -1
M  END
>  <PDB_ID>  (368) 
pdb1b1y

>  <RESIDUE_NAME>  (368) 
ASP   LYS

>  <FRAG_NAME>  (368) 
ACET   PRPA

>  <FRAG_ATOM_NUM>  (368) 
fragi: 7  fragj: 11

>  <atom.prop.CHAIN_ID>  (368) 
A A A A A A A Z Z Z Z Z Z Z Z Z Z Z

>  <atom.prop.IS_HEAVY_ATOM>  (368) 
1 0 0 0 1 1 1 1 0 0 0 1 0 0 1 0 0 0

>  <DIFUSE_FUNC_ATOM>  (368) 
atom 6   atom 7   

>  <FINAL_SINGLE_POINT_ENERGY>  (368) 
0

>  <NONCOV_INTER_ENERGY_QM>  (368) 
0

>  <FF_Energy>  (368) 
2.29

>  <QM_Energy>  (368) 
-4.04

>  <Index>  (368) 
27459

$$$$
ACET-pdb1b71-A-GLU-10:PRPA-pdb1b71-A-LYS-5
     RDKit          3D

 18 16  0  0  0  0  0  0  0  0999 V2000
   -0.0089    1.5157   -0.0101 C   0  0  0  0  0  0  0  0  0  0  0  0
   -0.2119    1.8070   -0.9315 H   0  0  0  0  0  0  0  0  0  0  0  0
    0.8848    1.8214    0.2782 H   0  0  0  0  0  0  0  0  0  0  0  0
   -0.7500    1.9578    0.6558 H   0  0  0  0  0  0  0  0  0  0  0  0
    0.0000    0.0000    0.0000 C   0  0  0  0  0  0  0  0  0  0  0  0
   -1.0840   -0.6124   -0.0000 O   0  0  0  0  0  1  0  0  0  0  0  0
    1.0840   -0.6132   -0.0000 O   0  0  0  0  0  0  0  0  0  0  0  0
    0.0229   -3.6829    2.9753 C   0  0  0  0  0  0  0  0  0  0  0  0
    0.0971   -3.8371    3.9609 H   0  0  0  0  0  0  0  0  0  0  0  0
   -0.5799   -4.3753    2.5767 H   0  0  0  0  0  0  0  0  0  0  0  0
   -0.4372   -2.7068    2.8210 H   0  0  0  0  0  0  0  0  0  0  0  0
    1.4048   -3.8394    2.3601 C   0  0  0  0  0  0  0  0  0  0  0  0
    2.0759   -3.3918    2.9482 H   0  0  0  0  0  0  0  0  0  0  0  0
    1.6189   -4.8105    2.2808 H   0  0  0  0  0  0  0  0  0  0  0  0
    1.4579   -3.2072    0.9811 C   0  0  0  0  0  0  0  0  0  0  0  0
    0.5578   -3.2941    0.5515 H   0  0  0  0  0  0  0  0  0  0  0  0
    1.6872   -2.2373    1.0780 H   0  0  0  0  0  0  0  0  0  0  0  0
    2.1974   -3.6724    0.3294 H   0  0  0  0  0  0  0  0  0  0  0  0
  1  5  1  0
  5  6  1  0
  5  7  2  0
  1  2  1  0
  1  3  1  0
  1  4  1  0
  8 12  1  0
 12 15  1  0
  8  9  1  0
  8 10  1  0
  8 11  1  0
 12 13  1  0
 12 14  1  0
 15 16  1  0
 15 17  1  0
 15 18  1  0
M  CHG  1   6  -1
M  END
>  <PDB_ID>  (369) 
pdb1b71

>  <RESIDUE_NAME>  (369) 
GLU   LYS

>  <FRAG_NAME>  (369) 
ACET   PRPA

>  <FRAG_ATOM_NUM>  (369) 
fragi: 7  fragj: 11

>  <atom.prop.CHAIN_ID>  (369) 
A A A A A A A Z Z Z Z Z Z Z Z Z Z Z

>  <atom.prop.IS_HEAVY_ATOM>  (369) 
1 0 0 0 1 1 1 1 0 0 0 1 0 0 1 0 0 0

>  <DIFUSE_FUNC_ATOM>  (369) 
atom 6   atom 7   

>  <FINAL_SINGLE_POINT_ENERGY>  (369) 
0

>  <NONCOV_INTER_ENERGY_QM>  (369) 
0

>  <FF_Energy>  (369) 
8.88

>  <QM_Energy>  (369) 
-0.25

>  <Index>  (369) 
27483

$$$$
ACET-pdb1b71-A-GLU-10:PRPA-pdb1b71-A-LYS-5
     RDKit          3D

 18 16  0  0  0  0  0  0  0  0999 V2000
   -0.0089    1.5157   -0.0101 C   0  0  0  0  0  0  0  0  0  0  0  0
   -0.2119    1.8070   -0.9315 H   0  0  0  0  0  0  0  0  0  0  0  0
    0.8848    1.8214    0.2782 H   0  0  0  0  0  0  0  0  0  0  0  0
   -0.7500    1.9578    0.6558 H   0  0  0  0  0  0  0  0  0  0  0  0
    0.0000    0.0000    0.0000 C   0  0  0  0  0  0  0  0  0  0  0  0
   -1.0840   -0.6124   -0.0000 O   0  0  0  0  0  1  0  0  0  0  0  0
    1.0840   -0.6132   -0.0000 O   0  0  0  0  0  0  0  0  0  0  0  0
    1.4048   -3.8394    2.3601 C   0  0  0  0  0  0  0  0  0  0  0  0
    2.0759   -3.3918    2.9482 H   0  0  0  0  0  0  0  0  0  0  0  0
    1.6189   -4.8105    2.2808 H   0  0  0  0  0  0  0  0  0  0  0  0
    0.4143   -3.7272    2.8010 H   0  0  0  0  0  0  0  0  0  0  0  0
    1.4579   -3.2072    0.9811 C   0  0  0  0  0  0  0  0  0  0  0  0
    0.5578   -3.2941    0.5515 H   0  0  0  0  0  0  0  0  0  0  0  0
    1.6872   -2.2373    1.0780 H   0  0  0  0  0  0  0  0  0  0  0  0
    2.4892   -3.8560    0.0721 C   0  0  0  0  0  0  0  0  0  0  0  0
    3.4092   -3.6390    0.4152 H   0  0  0  0  0  0  0  0  0  0  0  0
    2.3659   -4.8536    0.0981 H   0  0  0  0  0  0  0  0  0  0  0  0
    2.4058   -3.5151   -0.9599 H   0  0  0  0  0  0  0  0  0  0  0  0
  1  5  1  0
  5  6  1  0
  5  7  2  0
  1  2  1  0
  1  3  1  0
  1  4  1  0
  8 12  1  0
 12 15  1  0
  8  9  1  0
  8 10  1  0
  8 11  1  0
 12 13  1  0
 12 14  1  0
 15 16  1  0
 15 17  1  0
 15 18  1  0
M  CHG  1   6  -1
M  END
>  <PDB_ID>  (370) 
pdb1b71

>  <RESIDUE_NAME>  (370) 
GLU   LYS

>  <FRAG_NAME>  (370) 
ACET   PRPA

>  <FRAG_ATOM_NUM>  (370) 
fragi: 7  fragj: 11

>  <atom.prop.CHAIN_ID>  (370) 
A A A A A A A Z Z Z Z Z Z Z Z Z Z Z

>  <atom.prop.IS_HEAVY_ATOM>  (370) 
1 0 0 0 1 1 1 1 0 0 0 1 0 0 1 0 0 0

>  <DIFUSE_FUNC_ATOM>  (370) 
atom 6   atom 7   

>  <FINAL_SINGLE_POINT_ENERGY>  (370) 
0

>  <NONCOV_INTER_ENERGY_QM>  (370) 
0

>  <FF_Energy>  (370) 
5.64

>  <QM_Energy>  (370) 
-0.73

>  <Index>  (370) 
27495

$$$$
ACET-pdb1b71-A-GLU-112:PRPA-pdb1b71-A-ARG-8
     RDKit          3D

 18 16  0  0  0  0  0  0  0  0999 V2000
   -0.0556    1.5204    0.0127 C   0  0  0  0  0  0  0  0  0  0  0  0
    0.2087    1.8323   -0.8681 H   0  0  0  0  0  0  0  0  0  0  0  0
    0.5143    1.8288    0.7350 H   0  0  0  0  0  0  0  0  0  0  0  0
   -1.0760    1.8511    0.2067 H   0  0  0  0  0  0  0  0  0  0  0  0
    0.0000    0.0000    0.0000 C   0  0  0  0  0  0  0  0  0  0  0  0
   -1.0926   -0.6072    0.0000 O   0  0  0  0  0  1  0  0  0  0  0  0
    1.0926   -0.5927    0.0000 O   0  0  0  0  0  0  0  0  0  0  0  0
    3.0569   -2.5746    0.0050 C   0  0  0  0  0  0  0  0  0  0  0  0
    2.6421   -2.1030    0.7678 H   0  0  0  0  0  0  0  0  0  0  0  0
    3.8399   -3.1042    0.2904 H   0  0  0  0  0  0  0  0  0  0  0  0
    2.3191   -3.2509   -0.4268 H   0  0  0  0  0  0  0  0  0  0  0  0
    3.5334   -1.5285   -0.9953 C   0  0  0  0  0  0  0  0  0  0  0  0
    3.8515   -1.9806   -1.8196 H   0  0  0  0  0  0  0  0  0  0  0  0
    2.7883   -0.9069   -1.2025 H   0  0  0  0  0  0  0  0  0  0  0  0
    4.6804   -0.7227   -0.4170 C   0  0  0  0  0  0  0  0  0  0  0  0
    5.1881   -0.3155   -1.1711 H   0  0  0  0  0  0  0  0  0  0  0  0
    4.2987   -0.0105    0.1654 H   0  0  0  0  0  0  0  0  0  0  0  0
    5.3549   -1.3430    0.1733 H   0  0  0  0  0  0  0  0  0  0  0  0
  1  5  1  0
  5  6  1  0
  5  7  2  0
  1  2  1  0
  1  3  1  0
  1  4  1  0
  8 12  1  0
 12 15  1  0
  8  9  1  0
  8 10  1  0
  8 11  1  0
 12 13  1  0
 12 14  1  0
 15 16  1  0
 15 17  1  0
 15 18  1  0
M  CHG  1   6  -1
M  END
>  <PDB_ID>  (371) 
pdb1b71

>  <RESIDUE_NAME>  (371) 
GLU   ARG

>  <FRAG_NAME>  (371) 
ACET   PRPA

>  <FRAG_ATOM_NUM>  (371) 
fragi: 7  fragj: 11

>  <atom.prop.CHAIN_ID>  (371) 
A A A A A A A Z Z Z Z Z Z Z Z Z Z Z

>  <atom.prop.IS_HEAVY_ATOM>  (371) 
1 0 0 0 1 1 1 1 0 0 0 1 0 0 1 0 0 0

>  <DIFUSE_FUNC_ATOM>  (371) 
atom 6   atom 7   

>  <FINAL_SINGLE_POINT_ENERGY>  (371) 
0

>  <NONCOV_INTER_ENERGY_QM>  (371) 
0

>  <FF_Energy>  (371) 
10.11

>  <QM_Energy>  (371) 
-2.26

>  <Index>  (371) 
27517

$$$$
ACET-pdb1b55-A-GLU-7:PRPA-pdb1b55-A-LEU-31
     RDKit          3D

 18 16  0  0  0  0  0  0  0  0999 V2000
    0.1001    1.5041    0.2020 C   0  0  0  0  0  0  0  0  0  0  0  0
   -0.5674    1.9313   -0.3621 H   0  0  0  0  0  0  0  0  0  0  0  0
    1.0146    1.7755    0.0089 H   0  0  0  0  0  0  0  0  0  0  0  0
   -0.1162    1.7784    1.2345 H   0  0  0  0  0  0  0  0  0  0  0  0
    0.0000    0.0000    0.0000 C   0  0  0  0  0  0  0  0  0  0  0  0
   -1.1091   -0.5701   -0.0000 O   0  0  0  0  0  1  0  0  0  0  0  0
    1.1091   -0.6428   -0.0000 O   0  0  0  0  0  0  0  0  0  0  0  0
    4.7298   -0.4344    1.9077 C   0  0  0  0  0  0  0  0  0  0  0  0
    4.1651   -0.6565    2.7038 H   0  0  0  0  0  0  0  0  0  0  0  0
    4.4494   -1.0054    1.1341 H   0  0  0  0  0  0  0  0  0  0  0  0
    5.6903   -0.6174    2.1227 H   0  0  0  0  0  0  0  0  0  0  0  0
    4.5557    1.0290    1.5514 C   0  0  0  0  0  0  0  0  0  0  0  0
    5.1246    1.2503    0.7682 H   0  0  0  0  0  0  0  0  0  0  0  0
    4.8645    1.6351    2.4030 H   0  0  0  0  0  0  0  0  0  0  0  0
    3.0978    1.3274    1.2802 C   0  0  0  0  0  0  0  0  0  0  0  0
    2.9840    2.3011    1.0724 H   0  0  0  0  0  0  0  0  0  0  0  0
    2.7799    0.7843    0.5001 H   0  0  0  0  0  0  0  0  0  0  0  0
    2.5483    1.0972    2.0867 H   0  0  0  0  0  0  0  0  0  0  0  0
  1  5  1  0
  5  6  1  0
  5  7  2  0
  1  2  1  0
  1  3  1  0
  1  4  1  0
  8 12  1  0
 12 15  1  0
  8  9  1  0
  8 10  1  0
  8 11  1  0
 12 13  1  0
 12 14  1  0
 15 16  1  0
 15 17  1  0
 15 18  1  0
M  CHG  1   6  -1
M  END
>  <PDB_ID>  (372) 
pdb1b55

>  <RESIDUE_NAME>  (372) 
GLU   LEU

>  <FRAG_NAME>  (372) 
ACET   PRPA

>  <FRAG_ATOM_NUM>  (372) 
fragi: 7  fragj: 11

>  <atom.prop.CHAIN_ID>  (372) 
A A A A A A A Z Z Z Z Z Z Z Z Z Z Z

>  <atom.prop.IS_HEAVY_ATOM>  (372) 
1 0 0 0 1 1 1 1 0 0 0 1 0 0 1 0 0 0

>  <DIFUSE_FUNC_ATOM>  (372) 
atom 6   atom 7   

>  <FINAL_SINGLE_POINT_ENERGY>  (372) 
0

>  <NONCOV_INTER_ENERGY_QM>  (372) 
0

>  <FF_Energy>  (372) 
0.13

>  <QM_Energy>  (372) 
-1.28

>  <Index>  (372) 
27541

$$$$
ACET-pdb1aqd-D-ASP-17:PRPA-pdb1aqd-E-ARG-6
     RDKit          3D

 18 16  0  0  0  0  0  0  0  0999 V2000
    0.0089    1.5201   -0.0172 C   0  0  0  0  0  0  0  0  0  0  0  0
    0.8980    1.8324    0.2961 H   0  0  0  0  0  0  0  0  0  0  0  0
   -0.7069    1.8453    0.5887 H   0  0  0  0  0  0  0  0  0  0  0  0
   -0.1688    1.9252   -1.0134 H   0  0  0  0  0  0  0  0  0  0  0  0
    0.0000    0.0000    0.0000 C   0  0  0  0  0  0  0  0  0  0  0  0
   -1.0963   -0.6019   -0.0000 O   0  0  0  0  0  1  0  0  0  0  0  0
    1.0963   -0.5918    0.0000 O   0  0  0  0  0  0  0  0  0  0  0  0
    4.6608   -3.2440   -0.5518 C   0  0  0  0  0  0  0  0  0  0  0  0
    5.2902   -3.7536    0.0618 H   0  0  0  0  0  0  0  0  0  0  0  0
    4.6426   -2.2822   -0.2253 H   0  0  0  0  0  0  0  0  0  0  0  0
    5.1034   -3.2438   -1.5480 H   0  0  0  0  0  0  0  0  0  0  0  0
    3.2793   -3.8190   -0.3838 C   0  0  0  0  0  0  0  0  0  0  0  0
    3.2763   -4.7703   -0.7271 H   0  0  0  0  0  0  0  0  0  0  0  0
    3.0541   -3.8475    0.6020 H   0  0  0  0  0  0  0  0  0  0  0  0
    2.2356   -3.0532   -1.0891 C   0  0  0  0  0  0  0  0  0  0  0  0
    1.7577   -2.4881   -0.4477 H   0  0  0  0  0  0  0  0  0  0  0  0
    2.6448   -2.5435   -1.8183 H   0  0  0  0  0  0  0  0  0  0  0  0
    1.5518   -3.7951   -1.5016 H   0  0  0  0  0  0  0  0  0  0  0  0
  1  5  1  0
  5  6  1  0
  5  7  2  0
  1  2  1  0
  1  3  1  0
  1  4  1  0
  8 12  1  0
 12 15  1  0
  8  9  1  0
  8 10  1  0
  8 11  1  0
 12 13  1  0
 12 14  1  0
 15 16  1  0
 15 17  1  0
 15 18  1  0
M  CHG  1   6  -1
M  END
>  <PDB_ID>  (373) 
pdb1aqd

>  <RESIDUE_NAME>  (373) 
ASP   ARG

>  <FRAG_NAME>  (373) 
ACET   PRPA

>  <FRAG_ATOM_NUM>  (373) 
fragi: 7  fragj: 11

>  <atom.prop.CHAIN_ID>  (373) 
A A A A A A A Z Z Z Z Z Z Z Z Z Z Z

>  <atom.prop.IS_HEAVY_ATOM>  (373) 
1 0 0 0 1 1 1 1 0 0 0 1 0 0 1 0 0 0

>  <DIFUSE_FUNC_ATOM>  (373) 
atom 6   atom 7   

>  <FINAL_SINGLE_POINT_ENERGY>  (373) 
0

>  <NONCOV_INTER_ENERGY_QM>  (373) 
0

>  <FF_Energy>  (373) 
28.92

>  <QM_Energy>  (373) 
-1.72

>  <Index>  (373) 
27604

$$$$
ACET-pdb1b12-A-ASP-112:PRPA-pdb1b12-A-LEU-119
     RDKit          3D

 18 16  0  0  0  0  0  0  0  0999 V2000
   -0.0049    1.5284   -0.0005 C   0  0  0  0  0  0  0  0  0  0  0  0
    0.6975    1.8438   -0.6255 H   0  0  0  0  0  0  0  0  0  0  0  0
    0.1765    1.8437    0.9216 H   0  0  0  0  0  0  0  0  0  0  0  0
   -0.9601    1.9435   -0.3218 H   0  0  0  0  0  0  0  0  0  0  0  0
    0.0000    0.0000    0.0000 C   0  0  0  0  0  0  0  0  0  0  0  0
   -1.1172   -0.6467   -0.0000 O   0  0  0  0  0  1  0  0  0  0  0  0
    1.1172   -0.6417    0.0000 O   0  0  0  0  0  0  0  0  0  0  0  0
    0.0557   -1.0650   -4.7400 C   0  0  0  0  0  0  0  0  0  0  0  0
   -0.8089   -0.5807   -4.8472 H   0  0  0  0  0  0  0  0  0  0  0  0
   -0.0309   -1.9984   -5.0735 H   0  0  0  0  0  0  0  0  0  0  0  0
    0.8036   -0.5571   -5.3489 H   0  0  0  0  0  0  0  0  0  0  0  0
    0.3457   -1.1457   -3.2338 C   0  0  0  0  0  0  0  0  0  0  0  0
    0.3520   -0.2279   -2.8569 H   0  0  0  0  0  0  0  0  0  0  0  0
    1.3325   -1.5752   -3.0611 H   0  0  0  0  0  0  0  0  0  0  0  0
   -0.7478   -1.9668   -2.5561 C   0  0  0  0  0  0  0  0  0  0  0  0
   -0.7615   -2.8870   -2.9453 H   0  0  0  0  0  0  0  0  0  0  0  0
   -0.5626   -2.0215   -1.5753 H   0  0  0  0  0  0  0  0  0  0  0  0
   -1.6330   -1.5283   -2.7049 H   0  0  0  0  0  0  0  0  0  0  0  0
  1  5  1  0
  5  6  1  0
  5  7  2  0
  1  2  1  0
  1  3  1  0
  1  4  1  0
  8 12  1  0
 12 15  1  0
  8  9  1  0
  8 10  1  0
  8 11  1  0
 12 13  1  0
 12 14  1  0
 15 16  1  0
 15 17  1  0
 15 18  1  0
M  CHG  1   6  -1
M  END
>  <PDB_ID>  (374) 
pdb1b12

>  <RESIDUE_NAME>  (374) 
ASP   LEU

>  <FRAG_NAME>  (374) 
ACET   PRPA

>  <FRAG_ATOM_NUM>  (374) 
fragi: 7  fragj: 11

>  <atom.prop.CHAIN_ID>  (374) 
A A A A A A A Z Z Z Z Z Z Z Z Z Z Z

>  <atom.prop.IS_HEAVY_ATOM>  (374) 
1 0 0 0 1 1 1 1 0 0 0 1 0 0 1 0 0 0

>  <DIFUSE_FUNC_ATOM>  (374) 
atom 6   atom 7   

>  <FINAL_SINGLE_POINT_ENERGY>  (374) 
0

>  <NONCOV_INTER_ENERGY_QM>  (374) 
0

>  <FF_Energy>  (374) 
5.28

>  <QM_Energy>  (374) 
-3.27

>  <Index>  (374) 
27819

$$$$
ACET-pdb1b55-A-ASP-107:PRPA-pdb1b55-A-LYS-60
     RDKit          3D

 18 16  0  0  0  0  0  0  0  0999 V2000
    0.1144    1.4509   -0.2101 C   0  0  0  0  0  0  0  0  0  0  0  0
    1.0628    1.7313   -0.1106 H   0  0  0  0  0  0  0  0  0  0  0  0
   -0.4590    1.9320    0.4436 H   0  0  0  0  0  0  0  0  0  0  0  0
   -0.2124    1.7322   -1.2112 H   0  0  0  0  0  0  0  0  0  0  0  0
    0.0000    0.0000    0.0000 C   0  0  0  0  0  0  0  0  0  0  0  0
   -1.1209   -0.5339   -0.0000 O   0  0  0  0  0  1  0  0  0  0  0  0
    1.1209   -0.6072   -0.0000 O   0  0  0  0  0  0  0  0  0  0  0  0
   -4.2455   -2.9605    0.7194 C   0  0  0  0  0  0  0  0  0  0  0  0
   -4.3140   -2.3332    1.5277 H   0  0  0  0  0  0  0  0  0  0  0  0
   -4.7618   -3.8967    0.9321 H   0  0  0  0  0  0  0  0  0  0  0  0
   -4.6299   -2.4164   -0.1433 H   0  0  0  0  0  0  0  0  0  0  0  0
   -2.8202   -3.2500    0.4784 C   0  0  0  0  0  0  0  0  0  0  0  0
   -2.7502   -3.9377   -0.2465 H   0  0  0  0  0  0  0  0  0  0  0  0
   -2.3681   -2.4083    0.1772 H   0  0  0  0  0  0  0  0  0  0  0  0
   -2.1556   -3.7484    1.6765 C   0  0  0  0  0  0  0  0  0  0  0  0
   -2.3166   -3.1518    2.4438 H   0  0  0  0  0  0  0  0  0  0  0  0
   -2.4229   -4.6766    1.8694 H   0  0  0  0  0  0  0  0  0  0  0  0
   -1.0894   -3.7371    1.4507 H   0  0  0  0  0  0  0  0  0  0  0  0
  1  5  1  0
  5  6  1  0
  5  7  2  0
  1  2  1  0
  1  3  1  0
  1  4  1  0
  8 12  1  0
 12 15  1  0
  8  9  1  0
  8 10  1  0
  8 11  1  0
 12 13  1  0
 12 14  1  0
 15 16  1  0
 15 17  1  0
 15 18  1  0
M  CHG  1   6  -1
M  END
>  <PDB_ID>  (375) 
pdb1b55

>  <RESIDUE_NAME>  (375) 
ASP   LYS

>  <FRAG_NAME>  (375) 
ACET   PRPA

>  <FRAG_ATOM_NUM>  (375) 
fragi: 7  fragj: 11

>  <atom.prop.CHAIN_ID>  (375) 
A A A A A A A Z Z Z Z Z Z Z Z Z Z Z

>  <atom.prop.IS_HEAVY_ATOM>  (375) 
1 0 0 0 1 1 1 1 0 0 0 1 0 0 1 0 0 0

>  <DIFUSE_FUNC_ATOM>  (375) 
atom 6   atom 7   

>  <FINAL_SINGLE_POINT_ENERGY>  (375) 
0

>  <NONCOV_INTER_ENERGY_QM>  (375) 
0

>  <FF_Energy>  (375) 
2.81

>  <QM_Energy>  (375) 
-4.32

>  <Index>  (375) 
27830

$$$$
ACET-pdb1b12-A-ASP-112:PRPA-pdb1b12-A-LEU-119
     RDKit          3D

 18 16  0  0  0  0  0  0  0  0999 V2000
   -0.0049    1.5284   -0.0005 C   0  0  0  0  0  0  0  0  0  0  0  0
    0.6975    1.8438   -0.6255 H   0  0  0  0  0  0  0  0  0  0  0  0
    0.1765    1.8437    0.9216 H   0  0  0  0  0  0  0  0  0  0  0  0
   -0.9601    1.9435   -0.3218 H   0  0  0  0  0  0  0  0  0  0  0  0
    0.0000    0.0000    0.0000 C   0  0  0  0  0  0  0  0  0  0  0  0
   -1.1172   -0.6467   -0.0000 O   0  0  0  0  0  1  0  0  0  0  0  0
    1.1172   -0.6417    0.0000 O   0  0  0  0  0  0  0  0  0  0  0  0
   -0.7478   -1.9668   -2.5561 C   0  0  0  0  0  0  0  0  0  0  0  0
   -0.7615   -2.8870   -2.9453 H   0  0  0  0  0  0  0  0  0  0  0  0
   -0.5626   -2.0215   -1.5753 H   0  0  0  0  0  0  0  0  0  0  0  0
   -1.6330   -1.5283   -2.7049 H   0  0  0  0  0  0  0  0  0  0  0  0
    0.3457   -1.1457   -3.2338 C   0  0  0  0  0  0  0  0  0  0  0  0
    0.3520   -0.2279   -2.8569 H   0  0  0  0  0  0  0  0  0  0  0  0
    0.1399   -1.0884   -4.3027 H   0  0  0  0  0  0  0  0  0  0  0  0
    1.7329   -1.7494   -2.9909 C   0  0  0  0  0  0  0  0  0  0  0  0
    2.4230   -1.1741   -3.4274 H   0  0  0  0  0  0  0  0  0  0  0  0
    1.9048   -1.7944   -2.0079 H   0  0  0  0  0  0  0  0  0  0  0  0
    1.7654   -2.6682   -3.3805 H   0  0  0  0  0  0  0  0  0  0  0  0
  1  5  1  0
  5  6  1  0
  5  7  2  0
  1  2  1  0
  1  3  1  0
  1  4  1  0
  8 12  1  0
 12 15  1  0
  8  9  1  0
  8 10  1  0
  8 11  1  0
 12 13  1  0
 12 14  1  0
 15 16  1  0
 15 17  1  0
 15 18  1  0
M  CHG  1   6  -1
M  END
>  <PDB_ID>  (376) 
pdb1b12

>  <RESIDUE_NAME>  (376) 
ASP   LEU

>  <FRAG_NAME>  (376) 
ACET   PRPA

>  <FRAG_ATOM_NUM>  (376) 
fragi: 7  fragj: 11

>  <atom.prop.CHAIN_ID>  (376) 
A A A A A A A Z Z Z Z Z Z Z Z Z Z Z

>  <atom.prop.IS_HEAVY_ATOM>  (376) 
1 0 0 0 1 1 1 1 0 0 0 1 0 0 1 0 0 0

>  <DIFUSE_FUNC_ATOM>  (376) 
atom 6   atom 7   

>  <FINAL_SINGLE_POINT_ENERGY>  (376) 
0

>  <NONCOV_INTER_ENERGY_QM>  (376) 
0

>  <FF_Energy>  (376) 
15.21

>  <QM_Energy>  (376) 
-4.49

>  <Index>  (376) 
27832

$$$$
ACET-pdb2bmx-A-ASP-22:PRPA-pdb2bmx-A-LYS-25
     RDKit          3D

 18 16  0  0  0  0  0  0  0  0999 V2000
    0.0364    1.5222    0.0149 C   0  0  0  0  0  0  0  0  0  0  0  0
    0.5410    1.8380   -0.7802 H   0  0  0  0  0  0  0  0  0  0  0  0
    0.4799    1.8240    0.8508 H   0  0  0  0  0  0  0  0  0  0  0  0
   -0.9544    1.9752   -0.0186 H   0  0  0  0  0  0  0  0  0  0  0  0
    0.0000    0.0000    0.0000 C   0  0  0  0  0  0  0  0  0  0  0  0
   -1.0985   -0.6052    0.0000 O   0  0  0  0  0  1  0  0  0  0  0  0
    1.0985   -0.5990    0.0000 O   0  0  0  0  0  0  0  0  0  0  0  0
    0.2936   -0.0186    4.6280 C   0  0  0  0  0  0  0  0  0  0  0  0
    0.8592   -0.7966    4.9327 H   0  0  0  0  0  0  0  0  0  0  0  0
   -0.5407   -0.4001    4.0393 H   0  0  0  0  0  0  0  0  0  0  0  0
   -0.0403    0.5274    5.5103 H   0  0  0  0  0  0  0  0  0  0  0  0
    1.1834    0.8518    3.7555 C   0  0  0  0  0  0  0  0  0  0  0  0
    0.6353    1.6191    3.4106 H   0  0  0  0  0  0  0  0  0  0  0  0
    1.9259    1.2161    4.3253 H   0  0  0  0  0  0  0  0  0  0  0  0
    1.8109    0.1475    2.5590 C   0  0  0  0  0  0  0  0  0  0  0  0
    2.3698   -0.6176    2.8906 H   0  0  0  0  0  0  0  0  0  0  0  0
    1.0789   -0.2134    1.9753 H   0  0  0  0  0  0  0  0  0  0  0  0
    2.4380    0.8173    1.9706 H   0  0  0  0  0  0  0  0  0  0  0  0
  1  5  1  0
  5  6  1  0
  5  7  2  0
  1  2  1  0
  1  3  1  0
  1  4  1  0
  8 12  1  0
 12 15  1  0
  8  9  1  0
  8 10  1  0
  8 11  1  0
 12 13  1  0
 12 14  1  0
 15 16  1  0
 15 17  1  0
 15 18  1  0
M  CHG  1   6  -1
M  END
>  <PDB_ID>  (377) 
pdb2bmx

>  <RESIDUE_NAME>  (377) 
ASP   LYS

>  <FRAG_NAME>  (377) 
ACET   PRPA

>  <FRAG_ATOM_NUM>  (377) 
fragi: 7  fragj: 11

>  <atom.prop.CHAIN_ID>  (377) 
A A A A A A A Z Z Z Z Z Z Z Z Z Z Z

>  <atom.prop.IS_HEAVY_ATOM>  (377) 
1 0 0 0 1 1 1 1 0 0 0 1 0 0 1 0 0 0

>  <DIFUSE_FUNC_ATOM>  (377) 
atom 6   atom 7   

>  <FINAL_SINGLE_POINT_ENERGY>  (377) 
0

>  <NONCOV_INTER_ENERGY_QM>  (377) 
0

>  <FF_Energy>  (377) 
13.38

>  <QM_Energy>  (377) 
1.88

>  <Index>  (377) 
27939

$$$$
ACET-pdb2bmx-A-ASP-22:PRPA-pdb2bmx-A-LYS-25
     RDKit          3D

 18 16  0  0  0  0  0  0  0  0999 V2000
    0.0364    1.5222    0.0149 C   0  0  0  0  0  0  0  0  0  0  0  0
    0.5410    1.8380   -0.7802 H   0  0  0  0  0  0  0  0  0  0  0  0
    0.4799    1.8240    0.8508 H   0  0  0  0  0  0  0  0  0  0  0  0
   -0.9544    1.9752   -0.0186 H   0  0  0  0  0  0  0  0  0  0  0  0
    0.0000    0.0000    0.0000 C   0  0  0  0  0  0  0  0  0  0  0  0
   -1.0985   -0.6052    0.0000 O   0  0  0  0  0  1  0  0  0  0  0  0
    1.0985   -0.5990    0.0000 O   0  0  0  0  0  0  0  0  0  0  0  0
    1.1834    0.8518    3.7555 C   0  0  0  0  0  0  0  0  0  0  0  0
    0.6353    1.6191    3.4106 H   0  0  0  0  0  0  0  0  0  0  0  0
    1.9259    1.2161    4.3253 H   0  0  0  0  0  0  0  0  0  0  0  0
    0.5453    0.2276    4.3811 H   0  0  0  0  0  0  0  0  0  0  0  0
    1.8109    0.1475    2.5590 C   0  0  0  0  0  0  0  0  0  0  0  0
    2.3698   -0.6176    2.8906 H   0  0  0  0  0  0  0  0  0  0  0  0
    1.0789   -0.2134    1.9753 H   0  0  0  0  0  0  0  0  0  0  0  0
    2.6820    1.0778    1.7416 C   0  0  0  0  0  0  0  0  0  0  0  0
    2.1202    1.8405    1.4148 H   0  0  0  0  0  0  0  0  0  0  0  0
    3.4110    1.4364    2.3287 H   0  0  0  0  0  0  0  0  0  0  0  0
    3.1371    0.5861    0.8818 H   0  0  0  0  0  0  0  0  0  0  0  0
  1  5  1  0
  5  6  1  0
  5  7  2  0
  1  2  1  0
  1  3  1  0
  1  4  1  0
  8 12  1  0
 12 15  1  0
  8  9  1  0
  8 10  1  0
  8 11  1  0
 12 13  1  0
 12 14  1  0
 15 16  1  0
 15 17  1  0
 15 18  1  0
M  CHG  1   6  -1
M  END
>  <PDB_ID>  (378) 
pdb2bmx

>  <RESIDUE_NAME>  (378) 
ASP   LYS

>  <FRAG_NAME>  (378) 
ACET   PRPA

>  <FRAG_ATOM_NUM>  (378) 
fragi: 7  fragj: 11

>  <atom.prop.CHAIN_ID>  (378) 
A A A A A A A Z Z Z Z Z Z Z Z Z Z Z

>  <atom.prop.IS_HEAVY_ATOM>  (378) 
1 0 0 0 1 1 1 1 0 0 0 1 0 0 1 0 0 0

>  <DIFUSE_FUNC_ATOM>  (378) 
atom 6   atom 7   

>  <FINAL_SINGLE_POINT_ENERGY>  (378) 
0

>  <NONCOV_INTER_ENERGY_QM>  (378) 
0

>  <FF_Energy>  (378) 
34.3

>  <QM_Energy>  (378) 
4.03

>  <Index>  (378) 
27942

$$$$
ACET-pdb2b3z-B-ASP-220:PRPA-pdb2b3z-B-VAL-193
     RDKit          3D

 18 16  0  0  0  0  0  0  0  0999 V2000
    0.0329    1.5155    0.0091 C   0  0  0  0  0  0  0  0  0  0  0  0
    0.7148    1.8235   -0.6479 H   0  0  0  0  0  0  0  0  0  0  0  0
    0.2739    1.8240    0.9242 H   0  0  0  0  0  0  0  0  0  0  0  0
   -0.9228    1.9657   -0.2592 H   0  0  0  0  0  0  0  0  0  0  0  0
    0.0000    0.0000    0.0000 C   0  0  0  0  0  0  0  0  0  0  0  0
   -1.0968   -0.5983    0.0000 O   0  0  0  0  0  1  0  0  0  0  0  0
    1.0968   -0.5886    0.0000 O   0  0  0  0  0  0  0  0  0  0  0  0
   -0.2688    0.3698   -5.1714 C   0  0  0  0  0  0  0  0  0  0  0  0
    0.7245    0.5105   -5.2398 H   0  0  0  0  0  0  0  0  0  0  0  0
   -0.7532    1.3434   -5.2451 H   0  0  0  0  0  0  0  0  0  0  0  0
   -0.5782   -0.2750   -5.9940 H   0  0  0  0  0  0  0  0  0  0  0  0
   -0.6435   -0.3537   -3.8889 C   0  0  0  0  0  0  0  0  0  0  0  0
   -0.3218   -1.2930   -3.9717 H   0  0  0  0  0  0  0  0  0  0  0  0
   -1.7232   -0.3189   -3.7432 H   0  0  0  0  0  0  0  0  0  0  0  0
    0.0640    0.2759   -2.7694 C   0  0  0  0  0  0  0  0  0  0  0  0
    0.5404    1.1147   -3.0683 H   0  0  0  0  0  0  0  0  0  0  0  0
   -0.5780    0.5289   -2.0328 H   0  0  0  0  0  0  0  0  0  0  0  0
    0.7532   -0.3499   -2.3793 H   0  0  0  0  0  0  0  0  0  0  0  0
  1  5  1  0
  5  6  1  0
  5  7  2  0
  1  2  1  0
  1  3  1  0
  1  4  1  0
  8 12  1  0
 12 15  1  0
  8  9  1  0
  8 10  1  0
  8 11  1  0
 12 13  1  0
 12 14  1  0
 15 16  1  0
 15 17  1  0
 15 18  1  0
M  CHG  1   6  -1
M  END
>  <PDB_ID>  (379) 
pdb2b3z

>  <RESIDUE_NAME>  (379) 
ASP   VAL

>  <FRAG_NAME>  (379) 
ACET   PRPA

>  <FRAG_ATOM_NUM>  (379) 
fragi: 7  fragj: 11

>  <atom.prop.CHAIN_ID>  (379) 
A A A A A A A Z Z Z Z Z Z Z Z Z Z Z

>  <atom.prop.IS_HEAVY_ATOM>  (379) 
1 0 0 0 1 1 1 1 0 0 0 1 0 0 1 0 0 0

>  <DIFUSE_FUNC_ATOM>  (379) 
atom 6   atom 7   

>  <FINAL_SINGLE_POINT_ENERGY>  (379) 
0

>  <NONCOV_INTER_ENERGY_QM>  (379) 
0

>  <FF_Energy>  (379) 
28.07

>  <QM_Energy>  (379) 
1.49

>  <Index>  (379) 
27993

$$$$
ACET-pdb2b3z-B-ASP-220:PRPA-pdb2b3z-B-VAL-193
     RDKit          3D

 18 16  0  0  0  0  0  0  0  0999 V2000
    0.0329    1.5155    0.0091 C   0  0  0  0  0  0  0  0  0  0  0  0
    0.7148    1.8235   -0.6479 H   0  0  0  0  0  0  0  0  0  0  0  0
    0.2739    1.8240    0.9242 H   0  0  0  0  0  0  0  0  0  0  0  0
   -0.9228    1.9657   -0.2592 H   0  0  0  0  0  0  0  0  0  0  0  0
    0.0000    0.0000    0.0000 C   0  0  0  0  0  0  0  0  0  0  0  0
   -1.0968   -0.5983    0.0000 O   0  0  0  0  0  1  0  0  0  0  0  0
    1.0968   -0.5886    0.0000 O   0  0  0  0  0  0  0  0  0  0  0  0
    0.0640    0.2759   -2.7694 C   0  0  0  0  0  0  0  0  0  0  0  0
    0.5404    1.1147   -3.0683 H   0  0  0  0  0  0  0  0  0  0  0  0
   -0.5780    0.5289   -2.0328 H   0  0  0  0  0  0  0  0  0  0  0  0
    0.7532   -0.3499   -2.3793 H   0  0  0  0  0  0  0  0  0  0  0  0
   -0.6435   -0.3537   -3.8889 C   0  0  0  0  0  0  0  0  0  0  0  0
   -0.3218   -1.2930   -3.9717 H   0  0  0  0  0  0  0  0  0  0  0  0
   -0.3747    0.1653   -4.8089 H   0  0  0  0  0  0  0  0  0  0  0  0
   -2.1589   -0.3049   -3.6844 C   0  0  0  0  0  0  0  0  0  0  0  0
   -2.3523   -0.0679   -2.7344 H   0  0  0  0  0  0  0  0  0  0  0  0
   -2.5478    0.3850   -4.2923 H   0  0  0  0  0  0  0  0  0  0  0  0
   -2.5453   -1.2008   -3.8963 H   0  0  0  0  0  0  0  0  0  0  0  0
  1  5  1  0
  5  6  1  0
  5  7  2  0
  1  2  1  0
  1  3  1  0
  1  4  1  0
  8 12  1  0
 12 15  1  0
  8  9  1  0
  8 10  1  0
  8 11  1  0
 12 13  1  0
 12 14  1  0
 15 16  1  0
 15 17  1  0
 15 18  1  0
M  CHG  1   6  -1
M  END
>  <PDB_ID>  (380) 
pdb2b3z

>  <RESIDUE_NAME>  (380) 
ASP   VAL

>  <FRAG_NAME>  (380) 
ACET   PRPA

>  <FRAG_ATOM_NUM>  (380) 
fragi: 7  fragj: 11

>  <atom.prop.CHAIN_ID>  (380) 
A A A A A A A Z Z Z Z Z Z Z Z Z Z Z

>  <atom.prop.IS_HEAVY_ATOM>  (380) 
1 0 0 0 1 1 1 1 0 0 0 1 0 0 1 0 0 0

>  <DIFUSE_FUNC_ATOM>  (380) 
atom 6   atom 7   

>  <FINAL_SINGLE_POINT_ENERGY>  (380) 
0

>  <NONCOV_INTER_ENERGY_QM>  (380) 
0

>  <FF_Energy>  (380) 
10.71

>  <QM_Energy>  (380) 
0.71

>  <Index>  (380) 
28025

$$$$
ACET-pdb2b0o-H-GLU-586:PRPA-pdb2b0o-H-PRO-578
     RDKit          3D

 18 16  0  0  0  0  0  0  0  0999 V2000
    0.0345    1.5554    0.0132 C   0  0  0  0  0  0  0  0  0  0  0  0
    0.2874    1.8408   -0.8939 H   0  0  0  0  0  0  0  0  0  0  0  0
    0.7051    1.8181    0.6837 H   0  0  0  0  0  0  0  0  0  0  0  0
   -0.9147    2.0255    0.2704 H   0  0  0  0  0  0  0  0  0  0  0  0
    0.0000    0.0000    0.0000 C   0  0  0  0  0  0  0  0  0  0  0  0
   -1.1072   -0.6239    0.0000 O   0  0  0  0  0  1  0  0  0  0  0  0
    1.1072   -0.6044   -0.0000 O   0  0  0  0  0  0  0  0  0  0  0  0
    3.8311    2.1401   -0.7969 C   0  0  0  0  0  0  0  0  0  0  0  0
    4.7531    2.4012   -1.0949 H   0  0  0  0  0  0  0  0  0  0  0  0
    3.8249    2.0584    0.2025 H   0  0  0  0  0  0  0  0  0  0  0  0
    3.0964    2.8736   -1.1289 H   0  0  0  0  0  0  0  0  0  0  0  0
    3.4157    0.8348   -1.4398 C   0  0  0  0  0  0  0  0  0  0  0  0
    4.2258    0.2664   -1.6238 H   0  0  0  0  0  0  0  0  0  0  0  0
    2.8043    0.3248   -0.8229 H   0  0  0  0  0  0  0  0  0  0  0  0
    2.7041    1.1907   -2.7293 C   0  0  0  0  0  0  0  0  0  0  0  0
    3.3384    1.2115   -3.4980 H   0  0  0  0  0  0  0  0  0  0  0  0
    1.9618    0.5517   -2.9215 H   0  0  0  0  0  0  0  0  0  0  0  0
    2.3119    2.1871   -2.5255 H   0  0  0  0  0  0  0  0  0  0  0  0
  1  5  1  0
  5  6  1  0
  5  7  2  0
  1  2  1  0
  1  3  1  0
  1  4  1  0
  8 12  1  0
 12 15  1  0
  8  9  1  0
  8 10  1  0
  8 11  1  0
 12 13  1  0
 12 14  1  0
 15 16  1  0
 15 17  1  0
 15 18  1  0
M  CHG  1   6  -1
M  END
>  <PDB_ID>  (381) 
pdb2b0o

>  <RESIDUE_NAME>  (381) 
GLU   PRO

>  <FRAG_NAME>  (381) 
ACET   PRPA

>  <FRAG_ATOM_NUM>  (381) 
fragi: 7  fragj: 11

>  <atom.prop.CHAIN_ID>  (381) 
A A A A A A A Z Z Z Z Z Z Z Z Z Z Z

>  <atom.prop.IS_HEAVY_ATOM>  (381) 
1 0 0 0 1 1 1 1 0 0 0 1 0 0 1 0 0 0

>  <DIFUSE_FUNC_ATOM>  (381) 
atom 6   atom 7   

>  <FINAL_SINGLE_POINT_ENERGY>  (381) 
0

>  <NONCOV_INTER_ENERGY_QM>  (381) 
0

>  <FF_Energy>  (381) 
4.06

>  <QM_Energy>  (381) 
-4.12

>  <Index>  (381) 
28063

$$$$
ACET-pdb1b67-A-GLU-19:PRPA-pdb1b67-B-LYS-154
     RDKit          3D

 18 16  0  0  0  0  0  0  0  0999 V2000
    0.0497    1.5093   -0.0363 C   0  0  0  0  0  0  0  0  0  0  0  0
   -0.4503    1.7987   -0.8661 H   0  0  0  0  0  0  0  0  0  0  0  0
    1.0200    1.7665   -0.1574 H   0  0  0  0  0  0  0  0  0  0  0  0
   -0.3478    2.0682    0.8109 H   0  0  0  0  0  0  0  0  0  0  0  0
    0.0000    0.0000    0.0000 C   0  0  0  0  0  0  0  0  0  0  0  0
   -1.0830   -0.6237    0.0000 O   0  0  0  0  0  1  0  0  0  0  0  0
    1.0830   -0.6440   -0.0000 O   0  0  0  0  0  0  0  0  0  0  0  0
   -4.1287   -0.3206    1.0614 C   0  0  0  0  0  0  0  0  0  0  0  0
   -3.5551   -1.1151    0.9796 H   0  0  0  0  0  0  0  0  0  0  0  0
   -4.9879   -0.4346    0.5954 H   0  0  0  0  0  0  0  0  0  0  0  0
   -4.3388   -0.1646    2.1195 H   0  0  0  0  0  0  0  0  0  0  0  0
   -3.4005    0.8754    0.4653 C   0  0  0  0  0  0  0  0  0  0  0  0
   -3.9084    1.7240    0.7262 H   0  0  0  0  0  0  0  0  0  0  0  0
   -2.4827    0.9483    0.9100 H   0  0  0  0  0  0  0  0  0  0  0  0
   -3.2138    0.8652   -1.0315 C   0  0  0  0  0  0  0  0  0  0  0  0
   -2.5203    0.1783   -1.2711 H   0  0  0  0  0  0  0  0  0  0  0  0
   -4.0822    0.6144   -1.4696 H   0  0  0  0  0  0  0  0  0  0  0  0
   -2.8948    1.8252   -1.4377 H   0  0  0  0  0  0  0  0  0  0  0  0
  1  5  1  0
  5  6  1  0
  5  7  2  0
  1  2  1  0
  1  3  1  0
  1  4  1  0
  8 12  1  0
 12 15  1  0
  8  9  1  0
  8 10  1  0
  8 11  1  0
 12 13  1  0
 12 14  1  0
 15 16  1  0
 15 17  1  0
 15 18  1  0
M  CHG  1   6  -1
M  END
>  <PDB_ID>  (382) 
pdb1b67

>  <RESIDUE_NAME>  (382) 
GLU   LYS

>  <FRAG_NAME>  (382) 
ACET   PRPA

>  <FRAG_ATOM_NUM>  (382) 
fragi: 7  fragj: 11

>  <atom.prop.CHAIN_ID>  (382) 
A A A A A A A Z Z Z Z Z Z Z Z Z Z Z

>  <atom.prop.IS_HEAVY_ATOM>  (382) 
1 0 0 0 1 1 1 1 0 0 0 1 0 0 1 0 0 0

>  <DIFUSE_FUNC_ATOM>  (382) 
atom 6   atom 7   

>  <FINAL_SINGLE_POINT_ENERGY>  (382) 
0

>  <NONCOV_INTER_ENERGY_QM>  (382) 
0

>  <FF_Energy>  (382) 
12.41

>  <QM_Energy>  (382) 
-1.18

>  <Index>  (382) 
28136

$$$$
ACET-pdb2b1x-C-ASP-60:PRPA-pdb2b1x-C-PRO-56
     RDKit          3D

 18 16  0  0  0  0  0  0  0  0999 V2000
   -0.0540    1.5132   -0.0321 C   0  0  0  0  0  0  0  0  0  0  0  0
    0.4814    1.8369   -0.8055 H   0  0  0  0  0  0  0  0  0  0  0  0
    0.3214    1.8671    0.8181 H   0  0  0  0  0  0  0  0  0  0  0  0
   -1.0661    1.9034   -0.1392 H   0  0  0  0  0  0  0  0  0  0  0  0
    0.0000    0.0000    0.0000 C   0  0  0  0  0  0  0  0  0  0  0  0
   -1.0890   -0.6294   -0.0000 O   0  0  0  0  0  1  0  0  0  0  0  0
    1.0890   -0.6505   -0.0000 O   0  0  0  0  0  0  0  0  0  0  0  0
    5.5121   -1.1208   -0.6923 C   0  0  0  0  0  0  0  0  0  0  0  0
    5.5730   -1.8844   -1.3386 H   0  0  0  0  0  0  0  0  0  0  0  0
    6.4298   -0.9010   -0.3568 H   0  0  0  0  0  0  0  0  0  0  0  0
    5.0586   -0.2512   -1.1680 H   0  0  0  0  0  0  0  0  0  0  0  0
    4.5918   -1.4503    0.4399 C   0  0  0  0  0  0  0  0  0  0  0  0
    3.8973   -2.1284    0.1395 H   0  0  0  0  0  0  0  0  0  0  0  0
    5.1135   -1.8779    1.1992 H   0  0  0  0  0  0  0  0  0  0  0  0
    3.9441   -0.1816    0.8828 C   0  0  0  0  0  0  0  0  0  0  0  0
    2.9617   -0.3021    1.0518 H   0  0  0  0  0  0  0  0  0  0  0  0
    4.3705    0.1865    1.7156 H   0  0  0  0  0  0  0  0  0  0  0  0
    4.0985    0.5041    0.0496 H   0  0  0  0  0  0  0  0  0  0  0  0
  1  5  1  0
  5  6  1  0
  5  7  2  0
  1  2  1  0
  1  3  1  0
  1  4  1  0
  8 12  1  0
 12 15  1  0
  8  9  1  0
  8 10  1  0
  8 11  1  0
 12 13  1  0
 12 14  1  0
 15 16  1  0
 15 17  1  0
 15 18  1  0
M  CHG  1   6  -1
M  END
>  <PDB_ID>  (383) 
pdb2b1x

>  <RESIDUE_NAME>  (383) 
ASP   PRO

>  <FRAG_NAME>  (383) 
ACET   PRPA

>  <FRAG_ATOM_NUM>  (383) 
fragi: 7  fragj: 11

>  <atom.prop.CHAIN_ID>  (383) 
A A A A A A A Z Z Z Z Z Z Z Z Z Z Z

>  <atom.prop.IS_HEAVY_ATOM>  (383) 
1 0 0 0 1 1 1 1 0 0 0 1 0 0 1 0 0 0

>  <DIFUSE_FUNC_ATOM>  (383) 
atom 6   atom 7   

>  <FINAL_SINGLE_POINT_ENERGY>  (383) 
0

>  <NONCOV_INTER_ENERGY_QM>  (383) 
0

>  <FF_Energy>  (383) 
2.91

>  <QM_Energy>  (383) 
-2.64

>  <Index>  (383) 
28274

$$$$
ACET-pdb1b73-A-ASP-33:PRPA-pdb1b73-A-ARG-36
     RDKit          3D

 18 16  0  0  0  0  0  0  0  0999 V2000
   -0.0389    1.5208   -0.0267 C   0  0  0  0  0  0  0  0  0  0  0  0
    0.2127    1.8285   -0.9303 H   0  0  0  0  0  0  0  0  0  0  0  0
    0.5803    1.8663    0.6599 H   0  0  0  0  0  0  0  0  0  0  0  0
   -1.0380    1.8961    0.1950 H   0  0  0  0  0  0  0  0  0  0  0  0
    0.0000    0.0000    0.0000 C   0  0  0  0  0  0  0  0  0  0  0  0
   -1.1024   -0.6089    0.0000 O   0  0  0  0  0  1  0  0  0  0  0  0
    1.1024   -0.5876   -0.0000 O   0  0  0  0  0  0  0  0  0  0  0  0
    1.1654   -1.9995    2.9893 C   0  0  0  0  0  0  0  0  0  0  0  0
    1.1123   -1.2178    2.3737 H   0  0  0  0  0  0  0  0  0  0  0  0
    2.1174   -2.2037    3.2008 H   0  0  0  0  0  0  0  0  0  0  0  0
    0.6526   -1.7442    3.9166 H   0  0  0  0  0  0  0  0  0  0  0  0
    0.5800   -3.2091    2.2590 C   0  0  0  0  0  0  0  0  0  0  0  0
    0.3972   -3.9408    2.9127 H   0  0  0  0  0  0  0  0  0  0  0  0
   -0.2670   -2.9467    1.8007 H   0  0  0  0  0  0  0  0  0  0  0  0
    1.5353   -3.7786    1.1785 C   0  0  0  0  0  0  0  0  0  0  0  0
    2.4667   -3.7302    1.5495 H   0  0  0  0  0  0  0  0  0  0  0  0
    1.2898   -4.7434    1.0441 H   0  0  0  0  0  0  0  0  0  0  0  0
    1.5009   -3.2602    0.2203 H   0  0  0  0  0  0  0  0  0  0  0  0
  1  5  1  0
  5  6  1  0
  5  7  2  0
  1  2  1  0
  1  3  1  0
  1  4  1  0
  8 12  1  0
 12 15  1  0
  8  9  1  0
  8 10  1  0
  8 11  1  0
 12 13  1  0
 12 14  1  0
 15 16  1  0
 15 17  1  0
 15 18  1  0
M  CHG  1   6  -1
M  END
>  <PDB_ID>  (384) 
pdb1b73

>  <RESIDUE_NAME>  (384) 
ASP   ARG

>  <FRAG_NAME>  (384) 
ACET   PRPA

>  <FRAG_ATOM_NUM>  (384) 
fragi: 7  fragj: 11

>  <atom.prop.CHAIN_ID>  (384) 
A A A A A A A Z Z Z Z Z Z Z Z Z Z Z

>  <atom.prop.IS_HEAVY_ATOM>  (384) 
1 0 0 0 1 1 1 1 0 0 0 1 0 0 1 0 0 0

>  <DIFUSE_FUNC_ATOM>  (384) 
atom 6   atom 7   

>  <FINAL_SINGLE_POINT_ENERGY>  (384) 
0

>  <NONCOV_INTER_ENERGY_QM>  (384) 
0

>  <FF_Energy>  (384) 
-0.2

>  <QM_Energy>  (384) 
-5.36

>  <Index>  (384) 
28390

$$$$
ACET-pdb2b3z-B-ASP-220:PRPA-pdb2b3z-B-ILE-225
     RDKit          3D

 18 16  0  0  0  0  0  0  0  0999 V2000
    0.0329    1.5155    0.0091 C   0  0  0  0  0  0  0  0  0  0  0  0
    0.7148    1.8235   -0.6479 H   0  0  0  0  0  0  0  0  0  0  0  0
    0.2739    1.8240    0.9242 H   0  0  0  0  0  0  0  0  0  0  0  0
   -0.9228    1.9657   -0.2592 H   0  0  0  0  0  0  0  0  0  0  0  0
    0.0000    0.0000    0.0000 C   0  0  0  0  0  0  0  0  0  0  0  0
   -1.0968   -0.5983    0.0000 O   0  0  0  0  0  1  0  0  0  0  0  0
    1.0968   -0.5886    0.0000 O   0  0  0  0  0  0  0  0  0  0  0  0
    2.5882   -3.2930   -1.5135 C   0  0  0  0  0  0  0  0  0  0  0  0
    2.1716   -3.4096   -2.4128 H   0  0  0  0  0  0  0  0  0  0  0  0
    1.7798   -3.3658   -0.7859 H   0  0  0  0  0  0  0  0  0  0  0  0
    3.2692   -4.1333   -1.3787 H   0  0  0  0  0  0  0  0  0  0  0  0
    3.3430   -1.9306   -1.3416 C   0  0  0  0  0  0  0  0  0  0  0  0
    2.6581   -1.2348   -1.1584 H   0  0  0  0  0  0  0  0  0  0  0  0
    4.0274   -1.9762   -0.4944 H   0  0  0  0  0  0  0  0  0  0  0  0
    4.0855   -1.5527   -2.6260 C   0  0  0  0  0  0  0  0  0  0  0  0
    3.4278   -1.5942   -3.3869 H   0  0  0  0  0  0  0  0  0  0  0  0
    4.3832   -0.5947   -2.5365 H   0  0  0  0  0  0  0  0  0  0  0  0
    4.9495   -2.1749   -2.8596 H   0  0  0  0  0  0  0  0  0  0  0  0
  1  5  1  0
  5  6  1  0
  5  7  2  0
  1  2  1  0
  1  3  1  0
  1  4  1  0
  8 12  1  0
 12 15  1  0
  8  9  1  0
  8 10  1  0
  8 11  1  0
 12 13  1  0
 12 14  1  0
 15 16  1  0
 15 17  1  0
 15 18  1  0
M  CHG  1   6  -1
M  END
>  <PDB_ID>  (385) 
pdb2b3z

>  <RESIDUE_NAME>  (385) 
ASP   ILE

>  <FRAG_NAME>  (385) 
ACET   PRPA

>  <FRAG_ATOM_NUM>  (385) 
fragi: 7  fragj: 11

>  <atom.prop.CHAIN_ID>  (385) 
A A A A A A A Z Z Z Z Z Z Z Z Z Z Z

>  <atom.prop.IS_HEAVY_ATOM>  (385) 
1 0 0 0 1 1 1 1 0 0 0 1 0 0 1 0 0 0

>  <DIFUSE_FUNC_ATOM>  (385) 
atom 6   atom 7   

>  <FINAL_SINGLE_POINT_ENERGY>  (385) 
0

>  <NONCOV_INTER_ENERGY_QM>  (385) 
0

>  <FF_Energy>  (385) 
7.62

>  <QM_Energy>  (385) 
-3.53

>  <Index>  (385) 
28521

$$$$
ACET-pdb2bqx-A-ASP-131:PRPA-pdb2bqx-A-LYS-127
     RDKit          3D

 18 16  0  0  0  0  0  0  0  0999 V2000
    0.0128    1.5185    0.0253 C   0  0  0  0  0  0  0  0  0  0  0  0
    0.7635    1.8403   -0.5407 H   0  0  0  0  0  0  0  0  0  0  0  0
    0.1319    1.8208    0.9640 H   0  0  0  0  0  0  0  0  0  0  0  0
   -0.9090    1.9576   -0.3562 H   0  0  0  0  0  0  0  0  0  0  0  0
    0.0000    0.0000    0.0000 C   0  0  0  0  0  0  0  0  0  0  0  0
   -1.0976   -0.5920    0.0000 O   0  0  0  0  0  1  0  0  0  0  0  0
    1.0976   -0.5945    0.0000 O   0  0  0  0  0  0  0  0  0  0  0  0
    1.9802   -2.8224   -2.4472 C   0  0  0  0  0  0  0  0  0  0  0  0
    2.6175   -3.5236   -2.1186 H   0  0  0  0  0  0  0  0  0  0  0  0
    2.2304   -1.9390   -2.0457 H   0  0  0  0  0  0  0  0  0  0  0  0
    2.0553   -2.7547   -3.5325 H   0  0  0  0  0  0  0  0  0  0  0  0
    0.5805   -3.1853   -2.0057 C   0  0  0  0  0  0  0  0  0  0  0  0
   -0.0252   -2.4188   -2.1801 H   0  0  0  0  0  0  0  0  0  0  0  0
    0.2812   -3.9919   -2.4987 H   0  0  0  0  0  0  0  0  0  0  0  0
    0.5551   -3.4925   -0.5172 C   0  0  0  0  0  0  0  0  0  0  0  0
    1.0771   -4.3304   -0.3488 H   0  0  0  0  0  0  0  0  0  0  0  0
    0.9807   -2.7346   -0.0207 H   0  0  0  0  0  0  0  0  0  0  0  0
   -0.4652   -3.6273   -0.1580 H   0  0  0  0  0  0  0  0  0  0  0  0
  1  5  1  0
  5  6  1  0
  5  7  2  0
  1  2  1  0
  1  3  1  0
  1  4  1  0
  8 12  1  0
 12 15  1  0
  8  9  1  0
  8 10  1  0
  8 11  1  0
 12 13  1  0
 12 14  1  0
 15 16  1  0
 15 17  1  0
 15 18  1  0
M  CHG  1   6  -1
M  END
>  <PDB_ID>  (386) 
pdb2bqx

>  <RESIDUE_NAME>  (386) 
ASP   LYS

>  <FRAG_NAME>  (386) 
ACET   PRPA

>  <FRAG_ATOM_NUM>  (386) 
fragi: 7  fragj: 11

>  <atom.prop.CHAIN_ID>  (386) 
A A A A A A A Z Z Z Z Z Z Z Z Z Z Z

>  <atom.prop.IS_HEAVY_ATOM>  (386) 
1 0 0 0 1 1 1 1 0 0 0 1 0 0 1 0 0 0

>  <DIFUSE_FUNC_ATOM>  (386) 
atom 6   atom 7   

>  <FINAL_SINGLE_POINT_ENERGY>  (386) 
0

>  <NONCOV_INTER_ENERGY_QM>  (386) 
0

>  <FF_Energy>  (386) 
4.18

>  <QM_Energy>  (386) 
-4.74

>  <Index>  (386) 
28543

$$$$
ACET-pdb1b8i-A-GLU-119:PRPA-pdb1b8i-A-LEU-126
     RDKit          3D

 18 16  0  0  0  0  0  0  0  0999 V2000
    0.0005    1.5187   -0.0004 C   0  0  0  0  0  0  0  0  0  0  0  0
    0.3775    1.8138   -0.8578 H   0  0  0  0  0  0  0  0  0  0  0  0
    0.5382    1.8133    0.7665 H   0  0  0  0  0  0  0  0  0  0  0  0
   -1.0015    1.9365    0.0975 H   0  0  0  0  0  0  0  0  0  0  0  0
    0.0000    0.0000    0.0000 C   0  0  0  0  0  0  0  0  0  0  0  0
   -1.1004   -0.5955    0.0000 O   0  0  0  0  0  1  0  0  0  0  0  0
    1.1004   -0.5953    0.0000 O   0  0  0  0  0  0  0  0  0  0  0  0
    5.6234    1.8820   -0.8649 C   0  0  0  0  0  0  0  0  0  0  0  0
    5.5661    2.7867   -0.4223 H   0  0  0  0  0  0  0  0  0  0  0  0
    6.0946    1.9934   -1.7482 H   0  0  0  0  0  0  0  0  0  0  0  0
    6.2494    1.2486   -0.2363 H   0  0  0  0  0  0  0  0  0  0  0  0
    4.1987    1.4366   -1.1648 C   0  0  0  0  0  0  0  0  0  0  0  0
    4.2174    0.5223   -1.5678 H   0  0  0  0  0  0  0  0  0  0  0  0
    3.7650    2.1247   -1.8905 H   0  0  0  0  0  0  0  0  0  0  0  0
    3.3698    1.4041    0.1150 C   0  0  0  0  0  0  0  0  0  0  0  0
    3.3465    2.3181    0.5201 H   0  0  0  0  0  0  0  0  0  0  0  0
    2.4385    1.1101   -0.0993 H   0  0  0  0  0  0  0  0  0  0  0  0
    3.7821    0.7630    0.7620 H   0  0  0  0  0  0  0  0  0  0  0  0
  1  5  1  0
  5  6  1  0
  5  7  2  0
  1  2  1  0
  1  3  1  0
  1  4  1  0
  8 12  1  0
 12 15  1  0
  8  9  1  0
  8 10  1  0
  8 11  1  0
 12 13  1  0
 12 14  1  0
 15 16  1  0
 15 17  1  0
 15 18  1  0
M  CHG  1   6  -1
M  END
>  <PDB_ID>  (387) 
pdb1b8i

>  <RESIDUE_NAME>  (387) 
GLU   LEU

>  <FRAG_NAME>  (387) 
ACET   PRPA

>  <FRAG_ATOM_NUM>  (387) 
fragi: 7  fragj: 11

>  <atom.prop.CHAIN_ID>  (387) 
A A A A A A A Z Z Z Z Z Z Z Z Z Z Z

>  <atom.prop.IS_HEAVY_ATOM>  (387) 
1 0 0 0 1 1 1 1 0 0 0 1 0 0 1 0 0 0

>  <DIFUSE_FUNC_ATOM>  (387) 
atom 6   atom 7   

>  <FINAL_SINGLE_POINT_ENERGY>  (387) 
0

>  <NONCOV_INTER_ENERGY_QM>  (387) 
0

>  <FF_Energy>  (387) 
5.52

>  <QM_Energy>  (387) 
-0.7

>  <Index>  (387) 
28549

$$$$
ACET-pdb2b3z-B-ASP-220:PRPA-pdb2b3z-B-ILE-225
     RDKit          3D

 18 16  0  0  0  0  0  0  0  0999 V2000
    0.0329    1.5155    0.0091 C   0  0  0  0  0  0  0  0  0  0  0  0
    0.7148    1.8235   -0.6479 H   0  0  0  0  0  0  0  0  0  0  0  0
    0.2739    1.8240    0.9242 H   0  0  0  0  0  0  0  0  0  0  0  0
   -0.9228    1.9657   -0.2592 H   0  0  0  0  0  0  0  0  0  0  0  0
    0.0000    0.0000    0.0000 C   0  0  0  0  0  0  0  0  0  0  0  0
   -1.0968   -0.5983    0.0000 O   0  0  0  0  0  1  0  0  0  0  0  0
    1.0968   -0.5886    0.0000 O   0  0  0  0  0  0  0  0  0  0  0  0
    4.0855   -1.5527   -2.6260 C   0  0  0  0  0  0  0  0  0  0  0  0
    3.4278   -1.5942   -3.3869 H   0  0  0  0  0  0  0  0  0  0  0  0
    4.3832   -0.5947   -2.5365 H   0  0  0  0  0  0  0  0  0  0  0  0
    4.9495   -2.1749   -2.8596 H   0  0  0  0  0  0  0  0  0  0  0  0
    3.3430   -1.9306   -1.3416 C   0  0  0  0  0  0  0  0  0  0  0  0
    2.6581   -1.2348   -1.1584 H   0  0  0  0  0  0  0  0  0  0  0  0
    2.8180   -2.8783   -1.4612 H   0  0  0  0  0  0  0  0  0  0  0  0
    4.3003   -1.9944   -0.1566 C   0  0  0  0  0  0  0  0  0  0  0  0
    4.7299   -1.1030   -0.0279 H   0  0  0  0  0  0  0  0  0  0  0  0
    3.7932   -2.2417    0.6667 H   0  0  0  0  0  0  0  0  0  0  0  0
    5.0036   -2.6804   -0.3344 H   0  0  0  0  0  0  0  0  0  0  0  0
  1  5  1  0
  5  6  1  0
  5  7  2  0
  1  2  1  0
  1  3  1  0
  1  4  1  0
  8 12  1  0
 12 15  1  0
  8  9  1  0
  8 10  1  0
  8 11  1  0
 12 13  1  0
 12 14  1  0
 15 16  1  0
 15 17  1  0
 15 18  1  0
M  CHG  1   6  -1
M  END
>  <PDB_ID>  (388) 
pdb2b3z

>  <RESIDUE_NAME>  (388) 
ASP   ILE

>  <FRAG_NAME>  (388) 
ACET   PRPA

>  <FRAG_ATOM_NUM>  (388) 
fragi: 7  fragj: 11

>  <atom.prop.CHAIN_ID>  (388) 
A A A A A A A Z Z Z Z Z Z Z Z Z Z Z

>  <atom.prop.IS_HEAVY_ATOM>  (388) 
1 0 0 0 1 1 1 1 0 0 0 1 0 0 1 0 0 0

>  <DIFUSE_FUNC_ATOM>  (388) 
atom 6   atom 7   

>  <FINAL_SINGLE_POINT_ENERGY>  (388) 
0

>  <NONCOV_INTER_ENERGY_QM>  (388) 
0

>  <FF_Energy>  (388) 
30.43

>  <QM_Energy>  (388) 
-3.02

>  <Index>  (388) 
28568

$$$$
ACET-pdb1b43-A-GLU-89:PRPA-pdb1b43-A-LYS-92
     RDKit          3D

 18 16  0  0  0  0  0  0  0  0999 V2000
    0.0104    1.5136   -0.0200 C   0  0  0  0  0  0  0  0  0  0  0  0
    0.9442    1.8017   -0.1066 H   0  0  0  0  0  0  0  0  0  0  0  0
   -0.4037    1.8226    0.8141 H   0  0  0  0  0  0  0  0  0  0  0  0
   -0.5561    1.9153   -0.8601 H   0  0  0  0  0  0  0  0  0  0  0  0
    0.0000    0.0000    0.0000 C   0  0  0  0  0  0  0  0  0  0  0  0
   -1.0989   -0.5999    0.0000 O   0  0  0  0  0  1  0  0  0  0  0  0
    1.0989   -0.5966   -0.0000 O   0  0  0  0  0  0  0  0  0  0  0  0
   -1.4453    0.4764    3.0788 C   0  0  0  0  0  0  0  0  0  0  0  0
   -2.4003    0.2984    3.2550 H   0  0  0  0  0  0  0  0  0  0  0  0
   -1.2885    0.6953    2.1285 H   0  0  0  0  0  0  0  0  0  0  0  0
   -1.1398    1.3319    3.6812 H   0  0  0  0  0  0  0  0  0  0  0  0
   -0.6477   -0.7923    3.4201 C   0  0  0  0  0  0  0  0  0  0  0  0
    0.2946   -0.6776    3.0792 H   0  0  0  0  0  0  0  0  0  0  0  0
   -0.6103   -0.8856    4.4227 H   0  0  0  0  0  0  0  0  0  0  0  0
   -1.2366   -2.0591    2.8269 C   0  0  0  0  0  0  0  0  0  0  0  0
   -2.1931   -2.1255    3.0892 H   0  0  0  0  0  0  0  0  0  0  0  0
   -1.1479   -2.0263    1.8375 H   0  0  0  0  0  0  0  0  0  0  0  0
   -0.7164   -2.9449    3.1916 H   0  0  0  0  0  0  0  0  0  0  0  0
  1  5  1  0
  5  6  1  0
  5  7  2  0
  1  2  1  0
  1  3  1  0
  1  4  1  0
  8 12  1  0
 12 15  1  0
  8  9  1  0
  8 10  1  0
  8 11  1  0
 12 13  1  0
 12 14  1  0
 15 16  1  0
 15 17  1  0
 15 18  1  0
M  CHG  1   6  -1
M  END
>  <PDB_ID>  (389) 
pdb1b43

>  <RESIDUE_NAME>  (389) 
GLU   LYS

>  <FRAG_NAME>  (389) 
ACET   PRPA

>  <FRAG_ATOM_NUM>  (389) 
fragi: 7  fragj: 11

>  <atom.prop.CHAIN_ID>  (389) 
A A A A A A A Z Z Z Z Z Z Z Z Z Z Z

>  <atom.prop.IS_HEAVY_ATOM>  (389) 
1 0 0 0 1 1 1 1 0 0 0 1 0 0 1 0 0 0

>  <DIFUSE_FUNC_ATOM>  (389) 
atom 6   atom 7   

>  <FINAL_SINGLE_POINT_ENERGY>  (389) 
0

>  <NONCOV_INTER_ENERGY_QM>  (389) 
0

>  <FF_Energy>  (389) 
8.5

>  <QM_Energy>  (389) 
-4.51

>  <Index>  (389) 
28659

$$$$
ACET-pdb1b43-A-GLU-89:PRPA-pdb1b43-A-LYS-92
     RDKit          3D

 18 16  0  0  0  0  0  0  0  0999 V2000
    0.0104    1.5136   -0.0200 C   0  0  0  0  0  0  0  0  0  0  0  0
    0.9442    1.8017   -0.1066 H   0  0  0  0  0  0  0  0  0  0  0  0
   -0.4037    1.8226    0.8141 H   0  0  0  0  0  0  0  0  0  0  0  0
   -0.5561    1.9153   -0.8601 H   0  0  0  0  0  0  0  0  0  0  0  0
    0.0000    0.0000    0.0000 C   0  0  0  0  0  0  0  0  0  0  0  0
   -1.0989   -0.5999    0.0000 O   0  0  0  0  0  1  0  0  0  0  0  0
    1.0989   -0.5966   -0.0000 O   0  0  0  0  0  0  0  0  0  0  0  0
   -0.6477   -0.7923    3.4201 C   0  0  0  0  0  0  0  0  0  0  0  0
    0.2946   -0.6776    3.0792 H   0  0  0  0  0  0  0  0  0  0  0  0
   -0.6103   -0.8856    4.4227 H   0  0  0  0  0  0  0  0  0  0  0  0
   -1.2134    0.1075    3.1780 H   0  0  0  0  0  0  0  0  0  0  0  0
   -1.2366   -2.0591    2.8269 C   0  0  0  0  0  0  0  0  0  0  0  0
   -2.1931   -2.1255    3.0892 H   0  0  0  0  0  0  0  0  0  0  0  0
   -1.1479   -2.0263    1.8375 H   0  0  0  0  0  0  0  0  0  0  0  0
   -0.5095   -3.2973    3.3367 C   0  0  0  0  0  0  0  0  0  0  0  0
    0.4570   -3.2262    3.0941 H   0  0  0  0  0  0  0  0  0  0  0  0
   -0.6028   -3.3398    4.3306 H   0  0  0  0  0  0  0  0  0  0  0  0
   -0.9294   -4.2006    2.8940 H   0  0  0  0  0  0  0  0  0  0  0  0
  1  5  1  0
  5  6  1  0
  5  7  2  0
  1  2  1  0
  1  3  1  0
  1  4  1  0
  8 12  1  0
 12 15  1  0
  8  9  1  0
  8 10  1  0
  8 11  1  0
 12 13  1  0
 12 14  1  0
 15 16  1  0
 15 17  1  0
 15 18  1  0
M  CHG  1   6  -1
M  END
>  <PDB_ID>  (390) 
pdb1b43

>  <RESIDUE_NAME>  (390) 
GLU   LYS

>  <FRAG_NAME>  (390) 
ACET   PRPA

>  <FRAG_ATOM_NUM>  (390) 
fragi: 7  fragj: 11

>  <atom.prop.CHAIN_ID>  (390) 
A A A A A A A Z Z Z Z Z Z Z Z Z Z Z

>  <atom.prop.IS_HEAVY_ATOM>  (390) 
1 0 0 0 1 1 1 1 0 0 0 1 0 0 1 0 0 0

>  <DIFUSE_FUNC_ATOM>  (390) 
atom 6   atom 7   

>  <FINAL_SINGLE_POINT_ENERGY>  (390) 
0

>  <NONCOV_INTER_ENERGY_QM>  (390) 
0

>  <FF_Energy>  (390) 
0.29

>  <QM_Energy>  (390) 
-4.72

>  <Index>  (390) 
28685

$$$$
ACET-pdb1b55-A-GLU-119:PRPA-pdb1b55-A-ARG-123
     RDKit          3D

 18 16  0  0  0  0  0  0  0  0999 V2000
    0.1045    1.5012   -0.1626 C   0  0  0  0  0  0  0  0  0  0  0  0
   -0.3158    1.7465   -1.0224 H   0  0  0  0  0  0  0  0  0  0  0  0
    1.0618    1.7452   -0.1454 H   0  0  0  0  0  0  0  0  0  0  0  0
   -0.3920    2.0792    0.6168 H   0  0  0  0  0  0  0  0  0  0  0  0
    0.0000    0.0000    0.0000 C   0  0  0  0  0  0  0  0  0  0  0  0
   -1.1035   -0.5514    0.0000 O   0  0  0  0  0  1  0  0  0  0  0  0
    1.1035   -0.6468    0.0000 O   0  0  0  0  0  0  0  0  0  0  0  0
    0.4334    2.1080   -4.8735 C   0  0  0  0  0  0  0  0  0  0  0  0
   -0.5545    2.0396   -4.7768 H   0  0  0  0  0  0  0  0  0  0  0  0
    0.7434    1.5604   -5.6437 H   0  0  0  0  0  0  0  0  0  0  0  0
    0.6932    3.1500   -5.0601 H   0  0  0  0  0  0  0  0  0  0  0  0
    1.0665    1.5095   -3.5962 C   0  0  0  0  0  0  0  0  0  0  0  0
    2.0570    1.5071   -3.6877 H   0  0  0  0  0  0  0  0  0  0  0  0
    0.7940    2.0516   -2.8079 H   0  0  0  0  0  0  0  0  0  0  0  0
    0.6159    0.0405   -3.3320 C   0  0  0  0  0  0  0  0  0  0  0  0
    0.7803   -0.1530   -2.3882 H   0  0  0  0  0  0  0  0  0  0  0  0
   -0.3277   -0.0271   -3.5812 H   0  0  0  0  0  0  0  0  0  0  0  0
    1.2115   -0.6269   -3.9550 H   0  0  0  0  0  0  0  0  0  0  0  0
  1  5  1  0
  5  6  1  0
  5  7  2  0
  1  2  1  0
  1  3  1  0
  1  4  1  0
  8 12  1  0
 12 15  1  0
  8  9  1  0
  8 10  1  0
  8 11  1  0
 12 13  1  0
 12 14  1  0
 15 16  1  0
 15 17  1  0
 15 18  1  0
M  CHG  1   6  -1
M  END
>  <PDB_ID>  (391) 
pdb1b55

>  <RESIDUE_NAME>  (391) 
GLU   ARG

>  <FRAG_NAME>  (391) 
ACET   PRPA

>  <FRAG_ATOM_NUM>  (391) 
fragi: 7  fragj: 11

>  <atom.prop.CHAIN_ID>  (391) 
A A A A A A A Z Z Z Z Z Z Z Z Z Z Z

>  <atom.prop.IS_HEAVY_ATOM>  (391) 
1 0 0 0 1 1 1 1 0 0 0 1 0 0 1 0 0 0

>  <DIFUSE_FUNC_ATOM>  (391) 
atom 6   atom 7   

>  <FINAL_SINGLE_POINT_ENERGY>  (391) 
0

>  <NONCOV_INTER_ENERGY_QM>  (391) 
0

>  <FF_Energy>  (391) 
2.17

>  <QM_Energy>  (391) 
-3.34

>  <Index>  (391) 
28792

$$$$
ACET-pdb1b3u-A-GLU-49:PRPA-pdb1b3u-A-LEU-9
     RDKit          3D

 18 16  0  0  0  0  0  0  0  0999 V2000
   -0.0057    1.5153    0.0124 C   0  0  0  0  0  0  0  0  0  0  0  0
    0.9024    1.8198   -0.2059 H   0  0  0  0  0  0  0  0  0  0  0  0
   -0.2921    1.8059    0.9061 H   0  0  0  0  0  0  0  0  0  0  0  0
   -0.6916    1.9413   -0.7198 H   0  0  0  0  0  0  0  0  0  0  0  0
    0.0000    0.0000    0.0000 C   0  0  0  0  0  0  0  0  0  0  0  0
   -1.0960   -0.5918    0.0000 O   0  0  0  0  0  1  0  0  0  0  0  0
    1.0960   -0.6011    0.0000 O   0  0  0  0  0  0  0  0  0  0  0  0
   -4.3006    2.6392    3.5375 C   0  0  0  0  0  0  0  0  0  0  0  0
   -4.8369    2.0251    4.1062 H   0  0  0  0  0  0  0  0  0  0  0  0
   -4.7790    2.8381    2.6904 H   0  0  0  0  0  0  0  0  0  0  0  0
   -4.1761    3.5756    4.0812 H   0  0  0  0  0  0  0  0  0  0  0  0
   -3.0056    1.9103    3.1726 C   0  0  0  0  0  0  0  0  0  0  0  0
   -2.4661    1.7754    4.0013 H   0  0  0  0  0  0  0  0  0  0  0  0
   -3.2343    0.9432    2.7248 H   0  0  0  0  0  0  0  0  0  0  0  0
   -2.1961    2.7663    2.2162 C   0  0  0  0  0  0  0  0  0  0  0  0
   -1.9740    3.6402    2.6522 H   0  0  0  0  0  0  0  0  0  0  0  0
   -1.3473    2.2918    1.9753 H   0  0  0  0  0  0  0  0  0  0  0  0
   -2.7273    2.9364    1.3841 H   0  0  0  0  0  0  0  0  0  0  0  0
  1  5  1  0
  5  6  1  0
  5  7  2  0
  1  2  1  0
  1  3  1  0
  1  4  1  0
  8 12  1  0
 12 15  1  0
  8  9  1  0
  8 10  1  0
  8 11  1  0
 12 13  1  0
 12 14  1  0
 15 16  1  0
 15 17  1  0
 15 18  1  0
M  CHG  1   6  -1
M  END
>  <PDB_ID>  (392) 
pdb1b3u

>  <RESIDUE_NAME>  (392) 
GLU   LEU

>  <FRAG_NAME>  (392) 
ACET   PRPA

>  <FRAG_ATOM_NUM>  (392) 
fragi: 7  fragj: 11

>  <atom.prop.CHAIN_ID>  (392) 
A A A A A A A Z Z Z Z Z Z Z Z Z Z Z

>  <atom.prop.IS_HEAVY_ATOM>  (392) 
1 0 0 0 1 1 1 1 0 0 0 1 0 0 1 0 0 0

>  <DIFUSE_FUNC_ATOM>  (392) 
atom 6   atom 7   

>  <FINAL_SINGLE_POINT_ENERGY>  (392) 
0

>  <NONCOV_INTER_ENERGY_QM>  (392) 
0

>  <FF_Energy>  (392) 
29.05

>  <QM_Energy>  (392) 
2.07

>  <Index>  (392) 
28840

$$$$
ACET-pdb1b3u-A-GLU-49:PRPA-pdb1b3u-A-LEU-9
     RDKit          3D

 18 16  0  0  0  0  0  0  0  0999 V2000
   -0.0057    1.5153    0.0124 C   0  0  0  0  0  0  0  0  0  0  0  0
    0.9024    1.8198   -0.2059 H   0  0  0  0  0  0  0  0  0  0  0  0
   -0.2921    1.8059    0.9061 H   0  0  0  0  0  0  0  0  0  0  0  0
   -0.6916    1.9413   -0.7198 H   0  0  0  0  0  0  0  0  0  0  0  0
    0.0000    0.0000    0.0000 C   0  0  0  0  0  0  0  0  0  0  0  0
   -1.0960   -0.5918    0.0000 O   0  0  0  0  0  1  0  0  0  0  0  0
    1.0960   -0.6011    0.0000 O   0  0  0  0  0  0  0  0  0  0  0  0
   -3.3240    0.5639    2.5493 C   0  0  0  0  0  0  0  0  0  0  0  0
   -3.8689    0.6971    1.7207 H   0  0  0  0  0  0  0  0  0  0  0  0
   -2.4725    0.0929    2.3130 H   0  0  0  0  0  0  0  0  0  0  0  0
   -3.8416    0.0056    3.1991 H   0  0  0  0  0  0  0  0  0  0  0  0
   -3.0056    1.9103    3.1726 C   0  0  0  0  0  0  0  0  0  0  0  0
   -2.4661    1.7754    4.0013 H   0  0  0  0  0  0  0  0  0  0  0  0
   -3.9280    2.4295    3.4326 H   0  0  0  0  0  0  0  0  0  0  0  0
   -2.1961    2.7663    2.2162 C   0  0  0  0  0  0  0  0  0  0  0  0
   -1.9740    3.6402    2.6522 H   0  0  0  0  0  0  0  0  0  0  0  0
   -1.3473    2.2918    1.9753 H   0  0  0  0  0  0  0  0  0  0  0  0
   -2.7273    2.9364    1.3841 H   0  0  0  0  0  0  0  0  0  0  0  0
  1  5  1  0
  5  6  1  0
  5  7  2  0
  1  2  1  0
  1  3  1  0
  1  4  1  0
  8 12  1  0
 12 15  1  0
  8  9  1  0
  8 10  1  0
  8 11  1  0
 12 13  1  0
 12 14  1  0
 15 16  1  0
 15 17  1  0
 15 18  1  0
M  CHG  1   6  -1
M  END
>  <PDB_ID>  (393) 
pdb1b3u

>  <RESIDUE_NAME>  (393) 
GLU   LEU

>  <FRAG_NAME>  (393) 
ACET   PRPA

>  <FRAG_ATOM_NUM>  (393) 
fragi: 7  fragj: 11

>  <atom.prop.CHAIN_ID>  (393) 
A A A A A A A Z Z Z Z Z Z Z Z Z Z Z

>  <atom.prop.IS_HEAVY_ATOM>  (393) 
1 0 0 0 1 1 1 1 0 0 0 1 0 0 1 0 0 0

>  <DIFUSE_FUNC_ATOM>  (393) 
atom 6   atom 7   

>  <FINAL_SINGLE_POINT_ENERGY>  (393) 
0

>  <NONCOV_INTER_ENERGY_QM>  (393) 
0

>  <FF_Energy>  (393) 
1.36

>  <QM_Energy>  (393) 
1.1

>  <Index>  (393) 
28845

$$$$
ACET-pdb2b3z-B-GLU-227:PRPA-pdb2b3z-B-LEU-255
     RDKit          3D

 18 16  0  0  0  0  0  0  0  0999 V2000
    0.0073    1.5250   -0.0085 C   0  0  0  0  0  0  0  0  0  0  0  0
   -0.4875    1.8207   -0.8070 H   0  0  0  0  0  0  0  0  0  0  0  0
    0.9474    1.8175   -0.0291 H   0  0  0  0  0  0  0  0  0  0  0  0
   -0.4666    1.9740    0.8644 H   0  0  0  0  0  0  0  0  0  0  0  0
    0.0000    0.0000    0.0000 C   0  0  0  0  0  0  0  0  0  0  0  0
   -1.0999   -0.5967   -0.0000 O   0  0  0  0  0  1  0  0  0  0  0  0
    1.0999   -0.6005   -0.0000 O   0  0  0  0  0  0  0  0  0  0  0  0
   -1.9005    0.8465   -5.3100 C   0  0  0  0  0  0  0  0  0  0  0  0
   -1.3728    0.4692   -6.0650 H   0  0  0  0  0  0  0  0  0  0  0  0
   -2.2470    1.7479   -5.5463 H   0  0  0  0  0  0  0  0  0  0  0  0
   -2.7566    0.1932   -5.1420 H   0  0  0  0  0  0  0  0  0  0  0  0
   -0.9408    1.0216   -4.1249 C   0  0  0  0  0  0  0  0  0  0  0  0
   -0.6981    0.1202   -3.7745 H   0  0  0  0  0  0  0  0  0  0  0  0
   -0.0428    1.5463   -4.4511 H   0  0  0  0  0  0  0  0  0  0  0  0
   -1.6294    1.7813   -2.9988 C   0  0  0  0  0  0  0  0  0  0  0  0
   -2.4347    1.2716   -2.6954 H   0  0  0  0  0  0  0  0  0  0  0  0
   -0.9954    1.8901   -2.2324 H   0  0  0  0  0  0  0  0  0  0  0  0
   -1.9110    2.6833   -3.3274 H   0  0  0  0  0  0  0  0  0  0  0  0
  1  5  1  0
  5  6  1  0
  5  7  2  0
  1  2  1  0
  1  3  1  0
  1  4  1  0
  8 12  1  0
 12 15  1  0
  8  9  1  0
  8 10  1  0
  8 11  1  0
 12 13  1  0
 12 14  1  0
 15 16  1  0
 15 17  1  0
 15 18  1  0
M  CHG  1   6  -1
M  END
>  <PDB_ID>  (394) 
pdb2b3z

>  <RESIDUE_NAME>  (394) 
GLU   LEU

>  <FRAG_NAME>  (394) 
ACET   PRPA

>  <FRAG_ATOM_NUM>  (394) 
fragi: 7  fragj: 11

>  <atom.prop.CHAIN_ID>  (394) 
A A A A A A A Z Z Z Z Z Z Z Z Z Z Z

>  <atom.prop.IS_HEAVY_ATOM>  (394) 
1 0 0 0 1 1 1 1 0 0 0 1 0 0 1 0 0 0

>  <DIFUSE_FUNC_ATOM>  (394) 
atom 6   atom 7   

>  <FINAL_SINGLE_POINT_ENERGY>  (394) 
0

>  <NONCOV_INTER_ENERGY_QM>  (394) 
0

>  <FF_Energy>  (394) 
48.18

>  <QM_Energy>  (394) 
2.2

>  <Index>  (394) 
28877

$$$$
ACET-pdb1b43-A-GLU-114:PRPA-pdb1b43-A-ARG-117
     RDKit          3D

 18 16  0  0  0  0  0  0  0  0999 V2000
    0.0111    1.5277   -0.0033 C   0  0  0  0  0  0  0  0  0  0  0  0
   -0.7697    1.8250   -0.5154 H   0  0  0  0  0  0  0  0  0  0  0  0
    0.8583    1.8128   -0.4050 H   0  0  0  0  0  0  0  0  0  0  0  0
   -0.0552    1.9474    1.0005 H   0  0  0  0  0  0  0  0  0  0  0  0
    0.0000    0.0000    0.0000 C   0  0  0  0  0  0  0  0  0  0  0  0
   -1.0993   -0.6003   -0.0000 O   0  0  0  0  0  1  0  0  0  0  0  0
    1.0993   -0.5957    0.0000 O   0  0  0  0  0  0  0  0  0  0  0  0
    3.9781   -1.2089    2.3880 C   0  0  0  0  0  0  0  0  0  0  0  0
    3.1853   -1.3858    2.9724 H   0  0  0  0  0  0  0  0  0  0  0  0
    3.7887   -0.4187    1.8039 H   0  0  0  0  0  0  0  0  0  0  0  0
    4.8218   -0.9583    3.0310 H   0  0  0  0  0  0  0  0  0  0  0  0
    4.1845   -2.4150    1.4958 C   0  0  0  0  0  0  0  0  0  0  0  0
    4.7282   -2.1603    0.7074 H   0  0  0  0  0  0  0  0  0  0  0  0
    4.6233   -3.1414    2.0088 H   0  0  0  0  0  0  0  0  0  0  0  0
    2.8416   -2.9337    0.9976 C   0  0  0  0  0  0  0  0  0  0  0  0
    2.4227   -2.2244    0.4437 H   0  0  0  0  0  0  0  0  0  0  0  0
    3.0083   -3.7493    0.4569 H   0  0  0  0  0  0  0  0  0  0  0  0
    2.1810   -3.1803    1.8289 H   0  0  0  0  0  0  0  0  0  0  0  0
  1  5  1  0
  5  6  1  0
  5  7  2  0
  1  2  1  0
  1  3  1  0
  1  4  1  0
  8 12  1  0
 12 15  1  0
  8  9  1  0
  8 10  1  0
  8 11  1  0
 12 13  1  0
 12 14  1  0
 15 16  1  0
 15 17  1  0
 15 18  1  0
M  CHG  1   6  -1
M  END
>  <PDB_ID>  (395) 
pdb1b43

>  <RESIDUE_NAME>  (395) 
GLU   ARG

>  <FRAG_NAME>  (395) 
ACET   PRPA

>  <FRAG_ATOM_NUM>  (395) 
fragi: 7  fragj: 11

>  <atom.prop.CHAIN_ID>  (395) 
A A A A A A A Z Z Z Z Z Z Z Z Z Z Z

>  <atom.prop.IS_HEAVY_ATOM>  (395) 
1 0 0 0 1 1 1 1 0 0 0 1 0 0 1 0 0 0

>  <DIFUSE_FUNC_ATOM>  (395) 
atom 6   atom 7   

>  <FINAL_SINGLE_POINT_ENERGY>  (395) 
0

>  <NONCOV_INTER_ENERGY_QM>  (395) 
0

>  <FF_Energy>  (395) 
3.48

>  <QM_Energy>  (395) 
-3.23

>  <Index>  (395) 
28909

$$$$
ACET-pdb1b4s-B-GLU-83:PRPA-pdb1b4s-B-LYS-8
     RDKit          3D

 18 16  0  0  0  0  0  0  0  0999 V2000
   -0.0018    1.5024    0.0313 C   0  0  0  0  0  0  0  0  0  0  0  0
   -0.9302    1.8034   -0.0849 H   0  0  0  0  0  0  0  0  0  0  0  0
    0.5867    1.8167   -0.6901 H   0  0  0  0  0  0  0  0  0  0  0  0
    0.3718    1.8896    0.9792 H   0  0  0  0  0  0  0  0  0  0  0  0
    0.0000    0.0000    0.0000 C   0  0  0  0  0  0  0  0  0  0  0  0
   -1.1051   -0.5939   -0.0000 O   0  0  0  0  0  1  0  0  0  0  0  0
    1.1051   -0.5833   -0.0000 O   0  0  0  0  0  0  0  0  0  0  0  0
   -1.3059   -1.8277   -3.7324 C   0  0  0  0  0  0  0  0  0  0  0  0
   -1.9191   -1.6739   -2.9640 H   0  0  0  0  0  0  0  0  0  0  0  0
   -1.8212   -2.1012   -4.5377 H   0  0  0  0  0  0  0  0  0  0  0  0
   -0.7732   -0.9021   -3.9500 H   0  0  0  0  0  0  0  0  0  0  0  0
   -0.3294   -2.9802   -3.3579 C   0  0  0  0  0  0  0  0  0  0  0  0
   -0.7749   -3.8446   -3.5426 H   0  0  0  0  0  0  0  0  0  0  0  0
    0.4964   -2.8821   -3.8943 H   0  0  0  0  0  0  0  0  0  0  0  0
    0.0654   -2.9508   -1.8492 C   0  0  0  0  0  0  0  0  0  0  0  0
    0.1961   -1.9704   -1.5797 H   0  0  0  0  0  0  0  0  0  0  0  0
   -0.7422   -3.2774   -1.3085 H   0  0  0  0  0  0  0  0  0  0  0  0
    0.9425   -3.5151   -1.5325 H   0  0  0  0  0  0  0  0  0  0  0  0
  1  5  1  0
  5  6  1  0
  5  7  2  0
  1  2  1  0
  1  3  1  0
  1  4  1  0
  8 12  1  0
 12 15  1  0
  8  9  1  0
  8 10  1  0
  8 11  1  0
 12 13  1  0
 12 14  1  0
 15 16  1  0
 15 17  1  0
 15 18  1  0
M  CHG  1   6  -1
M  END
>  <PDB_ID>  (396) 
pdb1b4s

>  <RESIDUE_NAME>  (396) 
GLU   LYS

>  <FRAG_NAME>  (396) 
ACET   PRPA

>  <FRAG_ATOM_NUM>  (396) 
fragi: 7  fragj: 11

>  <atom.prop.CHAIN_ID>  (396) 
A A A A A A A Z Z Z Z Z Z Z Z Z Z Z

>  <atom.prop.IS_HEAVY_ATOM>  (396) 
1 0 0 0 1 1 1 1 0 0 0 1 0 0 1 0 0 0

>  <DIFUSE_FUNC_ATOM>  (396) 
atom 6   atom 7   

>  <FINAL_SINGLE_POINT_ENERGY>  (396) 
0

>  <NONCOV_INTER_ENERGY_QM>  (396) 
0

>  <FF_Energy>  (396) 
2.86

>  <QM_Energy>  (396) 
-2.6

>  <Index>  (396) 
29074

$$$$
ACET-pdb2bne-A-ASP-115:PRPA-pdb2bne-A-ARG-103
     RDKit          3D

 18 16  0  0  0  0  0  0  0  0999 V2000
   -0.0075    1.5094   -0.0022 C   0  0  0  0  0  0  0  0  0  0  0  0
    0.9286    1.8362   -0.0628 H   0  0  0  0  0  0  0  0  0  0  0  0
   -0.4344    1.8320    0.8341 H   0  0  0  0  0  0  0  0  0  0  0  0
   -0.5629    1.9230   -0.8439 H   0  0  0  0  0  0  0  0  0  0  0  0
    0.0000    0.0000    0.0000 C   0  0  0  0  0  0  0  0  0  0  0  0
   -1.0980   -0.5945   -0.0000 O   0  0  0  0  0  1  0  0  0  0  0  0
    1.0980   -0.5892    0.0000 O   0  0  0  0  0  0  0  0  0  0  0  0
    6.0512   -0.4570    0.1554 C   0  0  0  0  0  0  0  0  0  0  0  0
    6.2676   -1.3068    0.6308 H   0  0  0  0  0  0  0  0  0  0  0  0
    6.5721    0.2953    0.5532 H   0  0  0  0  0  0  0  0  0  0  0  0
    6.3564   -0.5652   -0.8854 H   0  0  0  0  0  0  0  0  0  0  0  0
    4.5754   -0.1676    0.3519 C   0  0  0  0  0  0  0  0  0  0  0  0
    4.4066    0.0845    1.2941 H   0  0  0  0  0  0  0  0  0  0  0  0
    4.2916    0.5517   -0.2659 H   0  0  0  0  0  0  0  0  0  0  0  0
    3.7585   -1.4125    0.0380 C   0  0  0  0  0  0  0  0  0  0  0  0
    2.7965   -1.1870    0.1464 H   0  0  0  0  0  0  0  0  0  0  0  0
    3.9504   -1.6787   -0.9008 H   0  0  0  0  0  0  0  0  0  0  0  0
    4.0134   -2.2356    0.7055 H   0  0  0  0  0  0  0  0  0  0  0  0
  1  5  1  0
  5  6  1  0
  5  7  2  0
  1  2  1  0
  1  3  1  0
  1  4  1  0
  8 12  1  0
 12 15  1  0
  8  9  1  0
  8 10  1  0
  8 11  1  0
 12 13  1  0
 12 14  1  0
 15 16  1  0
 15 17  1  0
 15 18  1  0
M  CHG  1   6  -1
M  END
>  <PDB_ID>  (397) 
pdb2bne

>  <RESIDUE_NAME>  (397) 
ASP   ARG

>  <FRAG_NAME>  (397) 
ACET   PRPA

>  <FRAG_ATOM_NUM>  (397) 
fragi: 7  fragj: 11

>  <atom.prop.CHAIN_ID>  (397) 
A A A A A A A Z Z Z Z Z Z Z Z Z Z Z

>  <atom.prop.IS_HEAVY_ATOM>  (397) 
1 0 0 0 1 1 1 1 0 0 0 1 0 0 1 0 0 0

>  <DIFUSE_FUNC_ATOM>  (397) 
atom 6   atom 7   

>  <FINAL_SINGLE_POINT_ENERGY>  (397) 
0

>  <NONCOV_INTER_ENERGY_QM>  (397) 
0

>  <FF_Energy>  (397) 
41.44

>  <QM_Energy>  (397) 
-0.19

>  <Index>  (397) 
29158

$$$$
ACET-pdb1b6r-A-GLU-153:PRPA-pdb1b6r-A-LYS-84
     RDKit          3D

 18 16  0  0  0  0  0  0  0  0999 V2000
    0.2665    1.4707   -0.0151 C   0  0  0  0  0  0  0  0  0  0  0  0
   -0.4705    1.9145   -0.4864 H   0  0  0  0  0  0  0  0  0  0  0  0
    1.1353    1.6232   -0.4424 H   0  0  0  0  0  0  0  0  0  0  0  0
    0.3133    1.8862    0.9915 H   0  0  0  0  0  0  0  0  0  0  0  0
    0.0000    0.0000    0.0000 C   0  0  0  0  0  0  0  0  0  0  0  0
   -1.1064   -0.5091    0.0000 O   0  0  0  0  0  1  0  0  0  0  0  0
    1.1064   -0.6477   -0.0000 O   0  0  0  0  0  0  0  0  0  0  0  0
   -1.0169   -1.0576   -4.4775 C   0  0  0  0  0  0  0  0  0  0  0  0
   -0.4239   -1.8755   -4.4153 H   0  0  0  0  0  0  0  0  0  0  0  0
   -0.4991   -0.2743   -4.1030 H   0  0  0  0  0  0  0  0  0  0  0  0
   -1.2342   -0.8635   -5.5279 H   0  0  0  0  0  0  0  0  0  0  0  0
   -2.2466   -1.2793   -3.6359 C   0  0  0  0  0  0  0  0  0  0  0  0
   -3.0595   -1.2793   -4.2357 H   0  0  0  0  0  0  0  0  0  0  0  0
   -2.1866   -2.1870   -3.1969 H   0  0  0  0  0  0  0  0  0  0  0  0
   -2.4700   -0.2423   -2.5417 C   0  0  0  0  0  0  0  0  0  0  0  0
   -1.8799   -0.4747   -1.7596 H   0  0  0  0  0  0  0  0  0  0  0  0
   -2.1875    0.6574   -2.8951 H   0  0  0  0  0  0  0  0  0  0  0  0
   -3.5114   -0.2052   -2.2219 H   0  0  0  0  0  0  0  0  0  0  0  0
  1  5  1  0
  5  6  1  0
  5  7  2  0
  1  2  1  0
  1  3  1  0
  1  4  1  0
  8 12  1  0
 12 15  1  0
  8  9  1  0
  8 10  1  0
  8 11  1  0
 12 13  1  0
 12 14  1  0
 15 16  1  0
 15 17  1  0
 15 18  1  0
M  CHG  1   6  -1
M  END
>  <PDB_ID>  (398) 
pdb1b6r

>  <RESIDUE_NAME>  (398) 
GLU   LYS

>  <FRAG_NAME>  (398) 
ACET   PRPA

>  <FRAG_ATOM_NUM>  (398) 
fragi: 7  fragj: 11

>  <atom.prop.CHAIN_ID>  (398) 
A A A A A A A Z Z Z Z Z Z Z Z Z Z Z

>  <atom.prop.IS_HEAVY_ATOM>  (398) 
1 0 0 0 1 1 1 1 0 0 0 1 0 0 1 0 0 0

>  <DIFUSE_FUNC_ATOM>  (398) 
atom 6   atom 7   

>  <FINAL_SINGLE_POINT_ENERGY>  (398) 
0

>  <NONCOV_INTER_ENERGY_QM>  (398) 
0

>  <FF_Energy>  (398) 
19.22

>  <QM_Energy>  (398) 
-0.86

>  <Index>  (398) 
29200

$$$$
ACET-pdb1b9e-D-GLU-9:PRPA-pdb1b9e-B-GLU-13
     RDKit          3D

 18 16  0  0  0  0  0  0  0  0999 V2000
   -0.0211    1.5106    0.0142 C   0  0  0  0  0  0  0  0  0  0  0  0
   -0.1155    1.8167   -0.9094 H   0  0  0  0  0  0  0  0  0  0  0  0
    0.8053    1.8162    0.4384 H   0  0  0  0  0  0  0  0  0  0  0  0
   -0.8653    1.8906    0.5896 H   0  0  0  0  0  0  0  0  0  0  0  0
    0.0000    0.0000    0.0000 C   0  0  0  0  0  0  0  0  0  0  0  0
   -1.1111   -0.5874    0.0000 O   0  0  0  0  0  1  0  0  0  0  0  0
    1.1111   -0.5935   -0.0000 O   0  0  0  0  0  0  0  0  0  0  0  0
    0.8811   -1.2744   -4.3855 C   0  0  0  0  0  0  0  0  0  0  0  0
    0.3147   -0.5201   -4.0589 H   0  0  0  0  0  0  0  0  0  0  0  0
    0.3572   -1.7920   -5.1890 H   0  0  0  0  0  0  0  0  0  0  0  0
    1.8281   -0.8999   -4.7742 H   0  0  0  0  0  0  0  0  0  0  0  0
    1.1395   -2.1979   -3.1954 C   0  0  0  0  0  0  0  0  0  0  0  0
    1.3952   -3.0764   -3.5458 H   0  0  0  0  0  0  0  0  0  0  0  0
    1.8395   -1.7904   -2.6438 H   0  0  0  0  0  0  0  0  0  0  0  0
   -0.0878   -2.3943   -2.3117 C   0  0  0  0  0  0  0  0  0  0  0  0
   -0.1294   -1.6454   -1.6738 H   0  0  0  0  0  0  0  0  0  0  0  0
   -0.8824   -2.4289   -2.8913 H   0  0  0  0  0  0  0  0  0  0  0  0
   -0.0614   -3.3184   -1.7344 H   0  0  0  0  0  0  0  0  0  0  0  0
  1  5  1  0
  5  6  1  0
  5  7  2  0
  1  2  1  0
  1  3  1  0
  1  4  1  0
  8 12  1  0
 12 15  1  0
  8  9  1  0
  8 10  1  0
  8 11  1  0
 12 13  1  0
 12 14  1  0
 15 16  1  0
 15 17  1  0
 15 18  1  0
M  CHG  1   6  -1
M  END
>  <PDB_ID>  (399) 
pdb1b9e

>  <RESIDUE_NAME>  (399) 
GLU   GLU

>  <FRAG_NAME>  (399) 
ACET   PRPA

>  <FRAG_ATOM_NUM>  (399) 
fragi: 7  fragj: 11

>  <atom.prop.CHAIN_ID>  (399) 
A A A A A A A Z Z Z Z Z Z Z Z Z Z Z

>  <atom.prop.IS_HEAVY_ATOM>  (399) 
1 0 0 0 1 1 1 1 0 0 0 1 0 0 1 0 0 0

>  <DIFUSE_FUNC_ATOM>  (399) 
atom 6   atom 7   

>  <FINAL_SINGLE_POINT_ENERGY>  (399) 
0

>  <NONCOV_INTER_ENERGY_QM>  (399) 
0

>  <FF_Energy>  (399) 
8.99

>  <QM_Energy>  (399) 
-3.13

>  <Index>  (399) 
29212

$$$$
ACET-pdb1aqd-G-ASP-35:PRPA-pdb1aqd-G-LYS-38
     RDKit          3D

 18 16  0  0  0  0  0  0  0  0999 V2000
   -0.0026    1.5375    0.0016 C   0  0  0  0  0  0  0  0  0  0  0  0
    0.7785    1.8503   -0.5236 H   0  0  0  0  0  0  0  0  0  0  0  0
    0.0572    1.8480    0.9411 H   0  0  0  0  0  0  0  0  0  0  0  0
   -0.9038    1.9607   -0.4420 H   0  0  0  0  0  0  0  0  0  0  0  0
    0.0000    0.0000    0.0000 C   0  0  0  0  0  0  0  0  0  0  0  0
   -1.0936   -0.6003    0.0000 O   0  0  0  0  0  1  0  0  0  0  0  0
    1.0936   -0.6226   -0.0000 O   0  0  0  0  0  0  0  0  0  0  0  0
   -0.7365   -0.8067    3.8163 C   0  0  0  0  0  0  0  0  0  0  0  0
   -0.7005   -1.5273    4.5313 H   0  0  0  0  0  0  0  0  0  0  0  0
   -1.4028   -1.1358    3.0189 H   0  0  0  0  0  0  0  0  0  0  0  0
   -1.0742    0.1252    4.2698 H   0  0  0  0  0  0  0  0  0  0  0  0
    0.6509   -0.5732    3.2794 C   0  0  0  0  0  0  0  0  0  0  0  0
    0.5886    0.1261    2.5586 H   0  0  0  0  0  0  0  0  0  0  0  0
    1.2130   -0.2055    4.0297 H   0  0  0  0  0  0  0  0  0  0  0  0
    1.2890   -1.7736    2.7366 C   0  0  0  0  0  0  0  0  0  0  0  0
    1.0953   -2.5566    3.3143 H   0  0  0  0  0  0  0  0  0  0  0  0
    0.9819   -1.9371    1.8081 H   0  0  0  0  0  0  0  0  0  0  0  0
    2.3631   -1.5882    2.7328 H   0  0  0  0  0  0  0  0  0  0  0  0
  1  5  1  0
  5  6  1  0
  5  7  2  0
  1  2  1  0
  1  3  1  0
  1  4  1  0
  8 12  1  0
 12 15  1  0
  8  9  1  0
  8 10  1  0
  8 11  1  0
 12 13  1  0
 12 14  1  0
 15 16  1  0
 15 17  1  0
 15 18  1  0
M  CHG  1   6  -1
M  END
>  <PDB_ID>  (400) 
pdb1aqd

>  <RESIDUE_NAME>  (400) 
ASP   LYS

>  <FRAG_NAME>  (400) 
ACET   PRPA

>  <FRAG_ATOM_NUM>  (400) 
fragi: 7  fragj: 11

>  <atom.prop.CHAIN_ID>  (400) 
A A A A A A A Z Z Z Z Z Z Z Z Z Z Z

>  <atom.prop.IS_HEAVY_ATOM>  (400) 
1 0 0 0 1 1 1 1 0 0 0 1 0 0 1 0 0 0

>  <DIFUSE_FUNC_ATOM>  (400) 
atom 6   atom 7   

>  <FINAL_SINGLE_POINT_ENERGY>  (400) 
0

>  <NONCOV_INTER_ENERGY_QM>  (400) 
0

>  <FF_Energy>  (400) 
18.94

>  <QM_Energy>  (400) 
-4.88

>  <Index>  (400) 
29229

$$$$
ACET-pdb1aqd-G-ASP-35:PRPA-pdb1aqd-G-LYS-38
     RDKit          3D

 18 16  0  0  0  0  0  0  0  0999 V2000
   -0.0026    1.5375    0.0016 C   0  0  0  0  0  0  0  0  0  0  0  0
    0.7785    1.8503   -0.5236 H   0  0  0  0  0  0  0  0  0  0  0  0
    0.0572    1.8480    0.9411 H   0  0  0  0  0  0  0  0  0  0  0  0
   -0.9038    1.9607   -0.4420 H   0  0  0  0  0  0  0  0  0  0  0  0
    0.0000    0.0000    0.0000 C   0  0  0  0  0  0  0  0  0  0  0  0
   -1.0936   -0.6003    0.0000 O   0  0  0  0  0  1  0  0  0  0  0  0
    1.0936   -0.6226   -0.0000 O   0  0  0  0  0  0  0  0  0  0  0  0
    0.6509   -0.5732    3.2794 C   0  0  0  0  0  0  0  0  0  0  0  0
    0.5886    0.1261    2.5586 H   0  0  0  0  0  0  0  0  0  0  0  0
    1.2130   -0.2055    4.0297 H   0  0  0  0  0  0  0  0  0  0  0  0
   -0.3533   -0.7422    3.6680 H   0  0  0  0  0  0  0  0  0  0  0  0
    1.2890   -1.7736    2.7366 C   0  0  0  0  0  0  0  0  0  0  0  0
    1.0953   -2.5566    3.3143 H   0  0  0  0  0  0  0  0  0  0  0  0
    0.9819   -1.9371    1.8081 H   0  0  0  0  0  0  0  0  0  0  0  0
    2.7508   -1.5213    2.7314 C   0  0  0  0  0  0  0  0  0  0  0  0
    2.9280   -0.5788    2.4636 H   0  0  0  0  0  0  0  0  0  0  0  0
    3.1273   -1.6987    3.6356 H   0  0  0  0  0  0  0  0  0  0  0  0
    3.2472   -2.1795    2.0185 H   0  0  0  0  0  0  0  0  0  0  0  0
  1  5  1  0
  5  6  1  0
  5  7  2  0
  1  2  1  0
  1  3  1  0
  1  4  1  0
  8 12  1  0
 12 15  1  0
  8  9  1  0
  8 10  1  0
  8 11  1  0
 12 13  1  0
 12 14  1  0
 15 16  1  0
 15 17  1  0
 15 18  1  0
M  CHG  1   6  -1
M  END
>  <PDB_ID>  (401) 
pdb1aqd

>  <RESIDUE_NAME>  (401) 
ASP   LYS

>  <FRAG_NAME>  (401) 
ACET   PRPA

>  <FRAG_ATOM_NUM>  (401) 
fragi: 7  fragj: 11

>  <atom.prop.CHAIN_ID>  (401) 
A A A A A A A Z Z Z Z Z Z Z Z Z Z Z

>  <atom.prop.IS_HEAVY_ATOM>  (401) 
1 0 0 0 1 1 1 1 0 0 0 1 0 0 1 0 0 0

>  <DIFUSE_FUNC_ATOM>  (401) 
atom 6   atom 7   

>  <FINAL_SINGLE_POINT_ENERGY>  (401) 
0

>  <NONCOV_INTER_ENERGY_QM>  (401) 
0

>  <FF_Energy>  (401) 
3.93

>  <QM_Energy>  (401) 
-5.07

>  <Index>  (401) 
29234

$$$$
ACET-pdb1aqd-G-ASP-35:PRPA-pdb1aqd-G-LYS-38
     RDKit          3D

 18 16  0  0  0  0  0  0  0  0999 V2000
   -0.0026    1.5375    0.0016 C   0  0  0  0  0  0  0  0  0  0  0  0
    0.7785    1.8503   -0.5236 H   0  0  0  0  0  0  0  0  0  0  0  0
    0.0572    1.8480    0.9411 H   0  0  0  0  0  0  0  0  0  0  0  0
   -0.9038    1.9607   -0.4420 H   0  0  0  0  0  0  0  0  0  0  0  0
    0.0000    0.0000    0.0000 C   0  0  0  0  0  0  0  0  0  0  0  0
   -1.0936   -0.6003    0.0000 O   0  0  0  0  0  1  0  0  0  0  0  0
    1.0936   -0.6226   -0.0000 O   0  0  0  0  0  0  0  0  0  0  0  0
    1.2890   -1.7736    2.7366 C   0  0  0  0  0  0  0  0  0  0  0  0
    1.0953   -2.5566    3.3143 H   0  0  0  0  0  0  0  0  0  0  0  0
    0.9819   -1.9371    1.8081 H   0  0  0  0  0  0  0  0  0  0  0  0
    0.8138   -0.8797    3.1408 H   0  0  0  0  0  0  0  0  0  0  0  0
    2.7508   -1.5213    2.7314 C   0  0  0  0  0  0  0  0  0  0  0  0
    2.9280   -0.5788    2.4636 H   0  0  0  0  0  0  0  0  0  0  0  0
    3.1273   -1.6987    3.6356 H   0  0  0  0  0  0  0  0  0  0  0  0
    3.4384   -2.4331    1.7439 C   0  0  0  0  0  0  0  0  0  0  0  0
    3.4981   -3.3605    2.1228 H   0  0  0  0  0  0  0  0  0  0  0  0
    2.9123   -2.4664    0.8896 H   0  0  0  0  0  0  0  0  0  0  0  0
    4.4489   -2.1029    1.5031 H   0  0  0  0  0  0  0  0  0  0  0  0
  1  5  1  0
  5  6  1  0
  5  7  2  0
  1  2  1  0
  1  3  1  0
  1  4  1  0
  8 12  1  0
 12 15  1  0
  8  9  1  0
  8 10  1  0
  8 11  1  0
 12 13  1  0
 12 14  1  0
 15 16  1  0
 15 17  1  0
 15 18  1  0
M  CHG  1   6  -1
M  END
>  <PDB_ID>  (402) 
pdb1aqd

>  <RESIDUE_NAME>  (402) 
ASP   LYS

>  <FRAG_NAME>  (402) 
ACET   PRPA

>  <FRAG_ATOM_NUM>  (402) 
fragi: 7  fragj: 11

>  <atom.prop.CHAIN_ID>  (402) 
A A A A A A A Z Z Z Z Z Z Z Z Z Z Z

>  <atom.prop.IS_HEAVY_ATOM>  (402) 
1 0 0 0 1 1 1 1 0 0 0 1 0 0 1 0 0 0

>  <DIFUSE_FUNC_ATOM>  (402) 
atom 6   atom 7   

>  <FINAL_SINGLE_POINT_ENERGY>  (402) 
0

>  <NONCOV_INTER_ENERGY_QM>  (402) 
0

>  <FF_Energy>  (402) 
0.34

>  <QM_Energy>  (402) 
-4.56

>  <Index>  (402) 
29238

$$$$
ACET-pdb1b6r-A-GLU-216:PRPA-pdb1b6r-A-LYS-89
     RDKit          3D

 18 16  0  0  0  0  0  0  0  0999 V2000
   -0.1853    1.4840    0.0308 C   0  0  0  0  0  0  0  0  0  0  0  0
    0.0281    1.8397   -0.8641 H   0  0  0  0  0  0  0  0  0  0  0  0
    0.4144    1.8548    0.7217 H   0  0  0  0  0  0  0  0  0  0  0  0
   -1.2038    1.7863    0.2746 H   0  0  0  0  0  0  0  0  0  0  0  0
    0.0000    0.0000    0.0000 C   0  0  0  0  0  0  0  0  0  0  0  0
   -1.1136   -0.7175    0.0000 O   0  0  0  0  0  1  0  0  0  0  0  0
    1.1136   -0.4781   -0.0000 O   0  0  0  0  0  0  0  0  0  0  0  0
    1.6684   -1.5528   -4.6725 C   0  0  0  0  0  0  0  0  0  0  0  0
    0.7531   -1.1414   -4.5794 H   0  0  0  0  0  0  0  0  0  0  0  0
    1.5593   -2.4858   -5.0354 H   0  0  0  0  0  0  0  0  0  0  0  0
    2.2589   -0.9609   -5.3718 H   0  0  0  0  0  0  0  0  0  0  0  0
    2.3011   -1.6410   -3.2946 C   0  0  0  0  0  0  0  0  0  0  0  0
    3.1393   -2.1694   -3.3558 H   0  0  0  0  0  0  0  0  0  0  0  0
    2.4877   -0.7241   -2.9625 H   0  0  0  0  0  0  0  0  0  0  0  0
    1.3674   -2.3320   -2.3026 C   0  0  0  0  0  0  0  0  0  0  0  0
    0.7961   -1.6195   -1.8550 H   0  0  0  0  0  0  0  0  0  0  0  0
    0.7342   -2.9306   -2.8270 H   0  0  0  0  0  0  0  0  0  0  0  0
    1.8730   -2.9221   -1.5383 H   0  0  0  0  0  0  0  0  0  0  0  0
  1  5  1  0
  5  6  1  0
  5  7  2  0
  1  2  1  0
  1  3  1  0
  1  4  1  0
  8 12  1  0
 12 15  1  0
  8  9  1  0
  8 10  1  0
  8 11  1  0
 12 13  1  0
 12 14  1  0
 15 16  1  0
 15 17  1  0
 15 18  1  0
M  CHG  1   6  -1
M  END
>  <PDB_ID>  (403) 
pdb1b6r

>  <RESIDUE_NAME>  (403) 
GLU   LYS

>  <FRAG_NAME>  (403) 
ACET   PRPA

>  <FRAG_ATOM_NUM>  (403) 
fragi: 7  fragj: 11

>  <atom.prop.CHAIN_ID>  (403) 
A A A A A A A Z Z Z Z Z Z Z Z Z Z Z

>  <atom.prop.IS_HEAVY_ATOM>  (403) 
1 0 0 0 1 1 1 1 0 0 0 1 0 0 1 0 0 0

>  <DIFUSE_FUNC_ATOM>  (403) 
atom 6   atom 7   

>  <FINAL_SINGLE_POINT_ENERGY>  (403) 
0

>  <NONCOV_INTER_ENERGY_QM>  (403) 
0

>  <FF_Energy>  (403) 
17.15

>  <QM_Energy>  (403) 
-2.01

>  <Index>  (403) 
29262

$$$$
ACET-pdb2bht-A-GLU-32:PRPA-pdb2bht-A-VAL-40
     RDKit          3D

 18 16  0  0  0  0  0  0  0  0999 V2000
   -0.0143    1.5153   -0.0223 C   0  0  0  0  0  0  0  0  0  0  0  0
    0.9139    1.8223   -0.0751 H   0  0  0  0  0  0  0  0  0  0  0  0
   -0.4714    1.8212    0.7887 H   0  0  0  0  0  0  0  0  0  0  0  0
   -0.5518    1.9064   -0.8862 H   0  0  0  0  0  0  0  0  0  0  0  0
    0.0000    0.0000    0.0000 C   0  0  0  0  0  0  0  0  0  0  0  0
   -1.0978   -0.5957    0.0000 O   0  0  0  0  0  1  0  0  0  0  0  0
    1.0978   -0.5945   -0.0000 O   0  0  0  0  0  0  0  0  0  0  0  0
   -3.9393    0.9492   -0.4311 C   0  0  0  0  0  0  0  0  0  0  0  0
   -3.1576    0.3265   -0.6103 H   0  0  0  0  0  0  0  0  0  0  0  0
   -4.0236    1.6356   -1.2736 H   0  0  0  0  0  0  0  0  0  0  0  0
   -4.8292    0.3360   -0.2892 H   0  0  0  0  0  0  0  0  0  0  0  0
   -3.6122    1.7417    0.8529 C   0  0  0  0  0  0  0  0  0  0  0  0
   -2.8900    2.3937    0.6283 H   0  0  0  0  0  0  0  0  0  0  0  0
   -4.4711    2.3195    1.1940 H   0  0  0  0  0  0  0  0  0  0  0  0
   -3.0954    0.8337    1.9539 C   0  0  0  0  0  0  0  0  0  0  0  0
   -3.6084   -0.0247    1.9444 H   0  0  0  0  0  0  0  0  0  0  0  0
   -2.1250    0.6447    1.8009 H   0  0  0  0  0  0  0  0  0  0  0  0
   -3.2133    1.2852    2.8387 H   0  0  0  0  0  0  0  0  0  0  0  0
  1  5  1  0
  5  6  1  0
  5  7  2  0
  1  2  1  0
  1  3  1  0
  1  4  1  0
  8 12  1  0
 12 15  1  0
  8  9  1  0
  8 10  1  0
  8 11  1  0
 12 13  1  0
 12 14  1  0
 15 16  1  0
 15 17  1  0
 15 18  1  0
M  CHG  1   6  -1
M  END
>  <PDB_ID>  (404) 
pdb2bht

>  <RESIDUE_NAME>  (404) 
GLU   VAL

>  <FRAG_NAME>  (404) 
ACET   PRPA

>  <FRAG_ATOM_NUM>  (404) 
fragi: 7  fragj: 11

>  <atom.prop.CHAIN_ID>  (404) 
A A A A A A A Z Z Z Z Z Z Z Z Z Z Z

>  <atom.prop.IS_HEAVY_ATOM>  (404) 
1 0 0 0 1 1 1 1 0 0 0 1 0 0 1 0 0 0

>  <DIFUSE_FUNC_ATOM>  (404) 
atom 6   atom 7   

>  <FINAL_SINGLE_POINT_ENERGY>  (404) 
0

>  <NONCOV_INTER_ENERGY_QM>  (404) 
0

>  <FF_Energy>  (404) 
4.68

>  <QM_Energy>  (404) 
-4.87

>  <Index>  (404) 
29281

$$$$
ACET-pdb2bht-A-GLU-53:PRPA-pdb2bht-A-VAL-50
     RDKit          3D

 18 16  0  0  0  0  0  0  0  0999 V2000
    0.0125    1.5194   -0.0509 C   0  0  0  0  0  0  0  0  0  0  0  0
    0.8124    1.8233    0.4223 H   0  0  0  0  0  0  0  0  0  0  0  0
   -0.8186    1.8333    0.3568 H   0  0  0  0  0  0  0  0  0  0  0  0
    0.0572    1.8835   -1.0773 H   0  0  0  0  0  0  0  0  0  0  0  0
    0.0000    0.0000    0.0000 C   0  0  0  0  0  0  0  0  0  0  0  0
   -1.0967   -0.5990   -0.0000 O   0  0  0  0  0  1  0  0  0  0  0  0
    1.0967   -0.5983    0.0000 O   0  0  0  0  0  0  0  0  0  0  0  0
   -3.6857    1.2188    0.7269 C   0  0  0  0  0  0  0  0  0  0  0  0
   -2.7481    1.0186    0.4045 H   0  0  0  0  0  0  0  0  0  0  0  0
   -3.6264    1.4877    1.7815 H   0  0  0  0  0  0  0  0  0  0  0  0
   -4.0868    2.0291    0.1181 H   0  0  0  0  0  0  0  0  0  0  0  0
   -4.4965   -0.0679    0.5009 C   0  0  0  0  0  0  0  0  0  0  0  0
   -4.7126   -0.1248   -0.4713 H   0  0  0  0  0  0  0  0  0  0  0  0
   -5.4218   -0.0541    1.0768 H   0  0  0  0  0  0  0  0  0  0  0  0
   -3.6712   -1.2998    0.8443 C   0  0  0  0  0  0  0  0  0  0  0  0
   -4.1530   -2.1211    0.5391 H   0  0  0  0  0  0  0  0  0  0  0  0
   -2.7839   -1.2450    0.3867 H   0  0  0  0  0  0  0  0  0  0  0  0
   -3.5330   -1.3442    1.8335 H   0  0  0  0  0  0  0  0  0  0  0  0
  1  5  1  0
  5  6  1  0
  5  7  2  0
  1  2  1  0
  1  3  1  0
  1  4  1  0
  8 12  1  0
 12 15  1  0
  8  9  1  0
  8 10  1  0
  8 11  1  0
 12 13  1  0
 12 14  1  0
 15 16  1  0
 15 17  1  0
 15 18  1  0
M  CHG  1   6  -1
M  END
>  <PDB_ID>  (405) 
pdb2bht

>  <RESIDUE_NAME>  (405) 
GLU   VAL

>  <FRAG_NAME>  (405) 
ACET   PRPA

>  <FRAG_ATOM_NUM>  (405) 
fragi: 7  fragj: 11

>  <atom.prop.CHAIN_ID>  (405) 
A A A A A A A Z Z Z Z Z Z Z Z Z Z Z

>  <atom.prop.IS_HEAVY_ATOM>  (405) 
1 0 0 0 1 1 1 1 0 0 0 1 0 0 1 0 0 0

>  <DIFUSE_FUNC_ATOM>  (405) 
atom 6   atom 7   

>  <FINAL_SINGLE_POINT_ENERGY>  (405) 
0

>  <NONCOV_INTER_ENERGY_QM>  (405) 
0

>  <FF_Energy>  (405) 
2.32

>  <QM_Energy>  (405) 
-1.67

>  <Index>  (405) 
29408

$$$$
ACET-pdb2bht-A-GLU-53:PRPA-pdb2bht-A-VAL-50
     RDKit          3D

 18 16  0  0  0  0  0  0  0  0999 V2000
    0.0125    1.5194   -0.0509 C   0  0  0  0  0  0  0  0  0  0  0  0
    0.8124    1.8233    0.4223 H   0  0  0  0  0  0  0  0  0  0  0  0
   -0.8186    1.8333    0.3568 H   0  0  0  0  0  0  0  0  0  0  0  0
    0.0572    1.8835   -1.0773 H   0  0  0  0  0  0  0  0  0  0  0  0
    0.0000    0.0000    0.0000 C   0  0  0  0  0  0  0  0  0  0  0  0
   -1.0967   -0.5990   -0.0000 O   0  0  0  0  0  1  0  0  0  0  0  0
    1.0967   -0.5983    0.0000 O   0  0  0  0  0  0  0  0  0  0  0  0
   -3.6712   -1.2998    0.8443 C   0  0  0  0  0  0  0  0  0  0  0  0
   -4.1530   -2.1211    0.5391 H   0  0  0  0  0  0  0  0  0  0  0  0
   -2.7839   -1.2450    0.3867 H   0  0  0  0  0  0  0  0  0  0  0  0
   -3.5330   -1.3442    1.8335 H   0  0  0  0  0  0  0  0  0  0  0  0
   -4.4965   -0.0679    0.5009 C   0  0  0  0  0  0  0  0  0  0  0  0
   -4.7126   -0.1248   -0.4713 H   0  0  0  0  0  0  0  0  0  0  0  0
   -3.9217    0.8442    0.6611 H   0  0  0  0  0  0  0  0  0  0  0  0
   -5.7849   -0.0487    1.3027 C   0  0  0  0  0  0  0  0  0  0  0  0
   -5.8360    0.8003    1.8296 H   0  0  0  0  0  0  0  0  0  0  0  0
   -6.5654   -0.1025    0.6784 H   0  0  0  0  0  0  0  0  0  0  0  0
   -5.7994   -0.8314    1.9261 H   0  0  0  0  0  0  0  0  0  0  0  0
  1  5  1  0
  5  6  1  0
  5  7  2  0
  1  2  1  0
  1  3  1  0
  1  4  1  0
  8 12  1  0
 12 15  1  0
  8  9  1  0
  8 10  1  0
  8 11  1  0
 12 13  1  0
 12 14  1  0
 15 16  1  0
 15 17  1  0
 15 18  1  0
M  CHG  1   6  -1
M  END
>  <PDB_ID>  (406) 
pdb2bht

>  <RESIDUE_NAME>  (406) 
GLU   VAL

>  <FRAG_NAME>  (406) 
ACET   PRPA

>  <FRAG_ATOM_NUM>  (406) 
fragi: 7  fragj: 11

>  <atom.prop.CHAIN_ID>  (406) 
A A A A A A A Z Z Z Z Z Z Z Z Z Z Z

>  <atom.prop.IS_HEAVY_ATOM>  (406) 
1 0 0 0 1 1 1 1 0 0 0 1 0 0 1 0 0 0

>  <DIFUSE_FUNC_ATOM>  (406) 
atom 6   atom 7   

>  <FINAL_SINGLE_POINT_ENERGY>  (406) 
0

>  <NONCOV_INTER_ENERGY_QM>  (406) 
0

>  <FF_Energy>  (406) 
31.0

>  <QM_Energy>  (406) 
-0.28

>  <Index>  (406) 
29445

$$$$
ACET-pdb2b3z-B-ASP-351:PRPA-pdb2b3z-B-PRO-314
     RDKit          3D

 18 16  0  0  0  0  0  0  0  0999 V2000
   -0.0138    1.5307   -0.0106 C   0  0  0  0  0  0  0  0  0  0  0  0
   -0.7657    1.8417    0.5571 H   0  0  0  0  0  0  0  0  0  0  0  0
   -0.1308    1.8376   -0.9459 H   0  0  0  0  0  0  0  0  0  0  0  0
    0.9073    1.9655    0.3774 H   0  0  0  0  0  0  0  0  0  0  0  0
    0.0000    0.0000    0.0000 C   0  0  0  0  0  0  0  0  0  0  0  0
   -1.0959   -0.6038    0.0000 O   0  0  0  0  0  1  0  0  0  0  0  0
    1.0959   -0.6114   -0.0000 O   0  0  0  0  0  0  0  0  0  0  0  0
    6.4822   -1.0837    0.0843 C   0  0  0  0  0  0  0  0  0  0  0  0
    6.8871   -1.9147    0.4732 H   0  0  0  0  0  0  0  0  0  0  0  0
    7.0861   -0.3062    0.2768 H   0  0  0  0  0  0  0  0  0  0  0  0
    6.3195   -1.1948   -0.9877 H   0  0  0  0  0  0  0  0  0  0  0  0
    5.1048   -0.8414    0.6784 C   0  0  0  0  0  0  0  0  0  0  0  0
    5.0452   -1.2666    1.5848 H   0  0  0  0  0  0  0  0  0  0  0  0
    4.9422    0.1438    0.7692 H   0  0  0  0  0  0  0  0  0  0  0  0
    4.1361   -1.4683   -0.2840 C   0  0  0  0  0  0  0  0  0  0  0  0
    4.0573   -2.4457   -0.1359 H   0  0  0  0  0  0  0  0  0  0  0  0
    3.2440   -1.0335   -0.2393 H   0  0  0  0  0  0  0  0  0  0  0  0
    4.6243   -1.2575   -1.2355 H   0  0  0  0  0  0  0  0  0  0  0  0
  1  5  1  0
  5  6  1  0
  5  7  2  0
  1  2  1  0
  1  3  1  0
  1  4  1  0
  8 12  1  0
 12 15  1  0
  8  9  1  0
  8 10  1  0
  8 11  1  0
 12 13  1  0
 12 14  1  0
 15 16  1  0
 15 17  1  0
 15 18  1  0
M  CHG  1   6  -1
M  END
>  <PDB_ID>  (407) 
pdb2b3z

>  <RESIDUE_NAME>  (407) 
ASP   PRO

>  <FRAG_NAME>  (407) 
ACET   PRPA

>  <FRAG_ATOM_NUM>  (407) 
fragi: 7  fragj: 11

>  <atom.prop.CHAIN_ID>  (407) 
A A A A A A A Z Z Z Z Z Z Z Z Z Z Z

>  <atom.prop.IS_HEAVY_ATOM>  (407) 
1 0 0 0 1 1 1 1 0 0 0 1 0 0 1 0 0 0

>  <DIFUSE_FUNC_ATOM>  (407) 
atom 6   atom 7   

>  <FINAL_SINGLE_POINT_ENERGY>  (407) 
0

>  <NONCOV_INTER_ENERGY_QM>  (407) 
0

>  <FF_Energy>  (407) 
2.16

>  <QM_Energy>  (407) 
-2.93

>  <Index>  (407) 
29487

$$$$
ACET-pdb1b73-A-GLU-99:PRPA-pdb1b73-A-LYS-103
     RDKit          3D

 18 16  0  0  0  0  0  0  0  0999 V2000
    0.0038    1.5027    0.0970 C   0  0  0  0  0  0  0  0  0  0  0  0
   -0.6845    1.8480   -0.5001 H   0  0  0  0  0  0  0  0  0  0  0  0
    0.9017    1.8188   -0.1143 H   0  0  0  0  0  0  0  0  0  0  0  0
   -0.2383    1.8236    1.1102 H   0  0  0  0  0  0  0  0  0  0  0  0
    0.0000    0.0000    0.0000 C   0  0  0  0  0  0  0  0  0  0  0  0
   -1.1005   -0.5984   -0.0000 O   0  0  0  0  0  1  0  0  0  0  0  0
    1.1005   -0.5865    0.0000 O   0  0  0  0  0  0  0  0  0  0  0  0
    5.4366   -0.8154    0.1452 C   0  0  0  0  0  0  0  0  0  0  0  0
    5.2926   -1.6386   -0.4346 H   0  0  0  0  0  0  0  0  0  0  0  0
    4.8796   -0.9412    1.0737 H   0  0  0  0  0  0  0  0  0  0  0  0
    6.5069   -0.6848    0.3048 H   0  0  0  0  0  0  0  0  0  0  0  0
    4.9636    0.4344   -0.5800 C   0  0  0  0  0  0  0  0  0  0  0  0
    5.0002    1.2026    0.0668 H   0  0  0  0  0  0  0  0  0  0  0  0
    5.6042    0.6192   -1.3323 H   0  0  0  0  0  0  0  0  0  0  0  0
    3.5707    0.3561   -1.1481 C   0  0  0  0  0  0  0  0  0  0  0  0
    2.9765   -0.1268   -0.4930 H   0  0  0  0  0  0  0  0  0  0  0  0
    3.2130    1.2902   -1.2695 H   0  0  0  0  0  0  0  0  0  0  0  0
    3.5415   -0.1644   -2.1054 H   0  0  0  0  0  0  0  0  0  0  0  0
  1  5  1  0
  5  6  1  0
  5  7  2  0
  1  2  1  0
  1  3  1  0
  1  4  1  0
  8 12  1  0
 12 15  1  0
  8  9  1  0
  8 10  1  0
  8 11  1  0
 12 13  1  0
 12 14  1  0
 15 16  1  0
 15 17  1  0
 15 18  1  0
M  CHG  1   6  -1
M  END
>  <PDB_ID>  (408) 
pdb1b73

>  <RESIDUE_NAME>  (408) 
GLU   LYS

>  <FRAG_NAME>  (408) 
ACET   PRPA

>  <FRAG_ATOM_NUM>  (408) 
fragi: 7  fragj: 11

>  <atom.prop.CHAIN_ID>  (408) 
A A A A A A A Z Z Z Z Z Z Z Z Z Z Z

>  <atom.prop.IS_HEAVY_ATOM>  (408) 
1 0 0 0 1 1 1 1 0 0 0 1 0 0 1 0 0 0

>  <DIFUSE_FUNC_ATOM>  (408) 
atom 6   atom 7   

>  <FINAL_SINGLE_POINT_ENERGY>  (408) 
0

>  <NONCOV_INTER_ENERGY_QM>  (408) 
0

>  <FF_Energy>  (408) 
11.35

>  <QM_Energy>  (408) 
-0.56

>  <Index>  (408) 
29508

$$$$
ACET-pdb2br9-A-GLU-146:PRPA-pdb2br9-A-LYS-142
     RDKit          3D

 18 16  0  0  0  0  0  0  0  0999 V2000
    0.1997    1.4880    0.0125 C   0  0  0  0  0  0  0  0  0  0  0  0
    0.7172    1.7304   -0.8043 H   0  0  0  0  0  0  0  0  0  0  0  0
    0.7282    1.7134    0.8276 H   0  0  0  0  0  0  0  0  0  0  0  0
   -0.7115    2.0862    0.0245 H   0  0  0  0  0  0  0  0  0  0  0  0
    0.0000    0.0000    0.0000 C   0  0  0  0  0  0  0  0  0  0  0  0
   -1.0883   -0.5503    0.0000 O   0  0  0  0  0  1  0  0  0  0  0  0
    1.0883   -0.6189    0.0000 O   0  0  0  0  0  0  0  0  0  0  0  0
    2.7898   -0.4924    2.6398 C   0  0  0  0  0  0  0  0  0  0  0  0
    1.8183   -0.3309    2.5225 H   0  0  0  0  0  0  0  0  0  0  0  0
    3.3158    0.0054    1.9631 H   0  0  0  0  0  0  0  0  0  0  0  0
    3.0812   -0.1443    3.6307 H   0  0  0  0  0  0  0  0  0  0  0  0
    3.0739   -1.9778    2.5087 C   0  0  0  0  0  0  0  0  0  0  0  0
    4.0612   -2.1249    2.5324 H   0  0  0  0  0  0  0  0  0  0  0  0
    2.6427   -2.4624    3.2676 H   0  0  0  0  0  0  0  0  0  0  0  0
    2.5354   -2.5689    1.1987 C   0  0  0  0  0  0  0  0  0  0  0  0
    2.4989   -1.8473    0.5125 H   0  0  0  0  0  0  0  0  0  0  0  0
    3.1481   -3.2945    0.8983 H   0  0  0  0  0  0  0  0  0  0  0  0
    1.5358   -2.9783    1.3439 H   0  0  0  0  0  0  0  0  0  0  0  0
  1  5  1  0
  5  6  1  0
  5  7  2  0
  1  2  1  0
  1  3  1  0
  1  4  1  0
  8 12  1  0
 12 15  1  0
  8  9  1  0
  8 10  1  0
  8 11  1  0
 12 13  1  0
 12 14  1  0
 15 16  1  0
 15 17  1  0
 15 18  1  0
M  CHG  1   6  -1
M  END
>  <PDB_ID>  (409) 
pdb2br9

>  <RESIDUE_NAME>  (409) 
GLU   LYS

>  <FRAG_NAME>  (409) 
ACET   PRPA

>  <FRAG_ATOM_NUM>  (409) 
fragi: 7  fragj: 11

>  <atom.prop.CHAIN_ID>  (409) 
A A A A A A A Z Z Z Z Z Z Z Z Z Z Z

>  <atom.prop.IS_HEAVY_ATOM>  (409) 
1 0 0 0 1 1 1 1 0 0 0 1 0 0 1 0 0 0

>  <DIFUSE_FUNC_ATOM>  (409) 
atom 6   atom 7   

>  <FINAL_SINGLE_POINT_ENERGY>  (409) 
0

>  <NONCOV_INTER_ENERGY_QM>  (409) 
0

>  <FF_Energy>  (409) 
18.6

>  <QM_Energy>  (409) 
0.1

>  <Index>  (409) 
29522

$$$$
ACET-pdb1b73-A-GLU-99:PRPA-pdb1b73-A-LYS-103
     RDKit          3D

 18 16  0  0  0  0  0  0  0  0999 V2000
    0.0038    1.5027    0.0970 C   0  0  0  0  0  0  0  0  0  0  0  0
   -0.6845    1.8480   -0.5001 H   0  0  0  0  0  0  0  0  0  0  0  0
    0.9017    1.8188   -0.1143 H   0  0  0  0  0  0  0  0  0  0  0  0
   -0.2383    1.8236    1.1102 H   0  0  0  0  0  0  0  0  0  0  0  0
    0.0000    0.0000    0.0000 C   0  0  0  0  0  0  0  0  0  0  0  0
   -1.1005   -0.5984   -0.0000 O   0  0  0  0  0  1  0  0  0  0  0  0
    1.1005   -0.5865    0.0000 O   0  0  0  0  0  0  0  0  0  0  0  0
    4.9636    0.4344   -0.5800 C   0  0  0  0  0  0  0  0  0  0  0  0
    5.0002    1.2026    0.0668 H   0  0  0  0  0  0  0  0  0  0  0  0
    5.6042    0.6192   -1.3323 H   0  0  0  0  0  0  0  0  0  0  0  0
    5.3027   -0.4616   -0.0601 H   0  0  0  0  0  0  0  0  0  0  0  0
    3.5707    0.3561   -1.1481 C   0  0  0  0  0  0  0  0  0  0  0  0
    2.9765   -0.1268   -0.4930 H   0  0  0  0  0  0  0  0  0  0  0  0
    3.2130    1.2902   -1.2695 H   0  0  0  0  0  0  0  0  0  0  0  0
    3.5306   -0.3595   -2.4642 C   0  0  0  0  0  0  0  0  0  0  0  0
    2.9286    0.1395   -3.0935 H   0  0  0  0  0  0  0  0  0  0  0  0
    4.4550   -0.3903   -2.8537 H   0  0  0  0  0  0  0  0  0  0  0  0
    3.1632   -1.3822   -2.3798 H   0  0  0  0  0  0  0  0  0  0  0  0
  1  5  1  0
  5  6  1  0
  5  7  2  0
  1  2  1  0
  1  3  1  0
  1  4  1  0
  8 12  1  0
 12 15  1  0
  8  9  1  0
  8 10  1  0
  8 11  1  0
 12 13  1  0
 12 14  1  0
 15 16  1  0
 15 17  1  0
 15 18  1  0
M  CHG  1   6  -1
M  END
>  <PDB_ID>  (410) 
pdb1b73

>  <RESIDUE_NAME>  (410) 
GLU   LYS

>  <FRAG_NAME>  (410) 
ACET   PRPA

>  <FRAG_ATOM_NUM>  (410) 
fragi: 7  fragj: 11

>  <atom.prop.CHAIN_ID>  (410) 
A A A A A A A Z Z Z Z Z Z Z Z Z Z Z

>  <atom.prop.IS_HEAVY_ATOM>  (410) 
1 0 0 0 1 1 1 1 0 0 0 1 0 0 1 0 0 0

>  <DIFUSE_FUNC_ATOM>  (410) 
atom 6   atom 7   

>  <FINAL_SINGLE_POINT_ENERGY>  (410) 
0

>  <NONCOV_INTER_ENERGY_QM>  (410) 
0

>  <FF_Energy>  (410) 
11.19

>  <QM_Energy>  (410) 
-1.36

>  <Index>  (410) 
29523

$$$$
ACET-pdb1b73-A-GLU-99:PRPA-pdb1b73-A-LYS-103
     RDKit          3D

 18 16  0  0  0  0  0  0  0  0999 V2000
    0.0038    1.5027    0.0970 C   0  0  0  0  0  0  0  0  0  0  0  0
   -0.6845    1.8480   -0.5001 H   0  0  0  0  0  0  0  0  0  0  0  0
    0.9017    1.8188   -0.1143 H   0  0  0  0  0  0  0  0  0  0  0  0
   -0.2383    1.8236    1.1102 H   0  0  0  0  0  0  0  0  0  0  0  0
    0.0000    0.0000    0.0000 C   0  0  0  0  0  0  0  0  0  0  0  0
   -1.1005   -0.5984   -0.0000 O   0  0  0  0  0  1  0  0  0  0  0  0
    1.1005   -0.5865    0.0000 O   0  0  0  0  0  0  0  0  0  0  0  0
    3.5707    0.3561   -1.1481 C   0  0  0  0  0  0  0  0  0  0  0  0
    2.9765   -0.1268   -0.4930 H   0  0  0  0  0  0  0  0  0  0  0  0
    3.2130    1.2902   -1.2695 H   0  0  0  0  0  0  0  0  0  0  0  0
    4.5786    0.4127   -0.7370 H   0  0  0  0  0  0  0  0  0  0  0  0
    3.5306   -0.3595   -2.4642 C   0  0  0  0  0  0  0  0  0  0  0  0
    2.9286    0.1395   -3.0935 H   0  0  0  0  0  0  0  0  0  0  0  0
    4.4550   -0.3903   -2.8537 H   0  0  0  0  0  0  0  0  0  0  0  0
    3.0195   -1.7822   -2.3467 C   0  0  0  0  0  0  0  0  0  0  0  0
    3.7173   -2.3477   -1.9421 H   0  0  0  0  0  0  0  0  0  0  0  0
    2.1881   -1.7884   -1.8190 H   0  0  0  0  0  0  0  0  0  0  0  0
    2.8097   -2.1320   -3.3574 H   0  0  0  0  0  0  0  0  0  0  0  0
  1  5  1  0
  5  6  1  0
  5  7  2  0
  1  2  1  0
  1  3  1  0
  1  4  1  0
  8 12  1  0
 12 15  1  0
  8  9  1  0
  8 10  1  0
  8 11  1  0
 12 13  1  0
 12 14  1  0
 15 16  1  0
 15 17  1  0
 15 18  1  0
M  CHG  1   6  -1
M  END
>  <PDB_ID>  (411) 
pdb1b73

>  <RESIDUE_NAME>  (411) 
GLU   LYS

>  <FRAG_NAME>  (411) 
ACET   PRPA

>  <FRAG_ATOM_NUM>  (411) 
fragi: 7  fragj: 11

>  <atom.prop.CHAIN_ID>  (411) 
A A A A A A A Z Z Z Z Z Z Z Z Z Z Z

>  <atom.prop.IS_HEAVY_ATOM>  (411) 
1 0 0 0 1 1 1 1 0 0 0 1 0 0 1 0 0 0

>  <DIFUSE_FUNC_ATOM>  (411) 
atom 6   atom 7   

>  <FINAL_SINGLE_POINT_ENERGY>  (411) 
0

>  <NONCOV_INTER_ENERGY_QM>  (411) 
0

>  <FF_Energy>  (411) 
12.07

>  <QM_Energy>  (411) 
-2.83

>  <Index>  (411) 
29537

$$$$
ACET-pdb1b09-B-GLU-42:PRPA-pdb1b09-C-VAL-117
     RDKit          3D

 18 16  0  0  0  0  0  0  0  0999 V2000
    0.0123    1.5114    0.0021 C   0  0  0  0  0  0  0  0  0  0  0  0
    0.6106    1.8094   -0.6975 H   0  0  0  0  0  0  0  0  0  0  0  0
    0.2445    1.8093    0.8932 H   0  0  0  0  0  0  0  0  0  0  0  0
   -0.9879    1.8779   -0.2295 H   0  0  0  0  0  0  0  0  0  0  0  0
    0.0000    0.0000    0.0000 C   0  0  0  0  0  0  0  0  0  0  0  0
   -1.0783   -0.5787    0.0000 O   0  0  0  0  0  1  0  0  0  0  0  0
    1.0783   -0.5916   -0.0000 O   0  0  0  0  0  0  0  0  0  0  0  0
    1.4416   -0.0849    5.3830 C   0  0  0  0  0  0  0  0  0  0  0  0
    1.8136    0.5693    6.0587 H   0  0  0  0  0  0  0  0  0  0  0  0
    2.2598   -0.4035    4.7370 H   0  0  0  0  0  0  0  0  0  0  0  0
    1.0080   -0.9244    5.9263 H   0  0  0  0  0  0  0  0  0  0  0  0
    0.3418    0.5869    4.5296 C   0  0  0  0  0  0  0  0  0  0  0  0
   -0.3536   -0.0966    4.3417 H   0  0  0  0  0  0  0  0  0  0  0  0
   -0.1397    1.3833    5.0972 H   0  0  0  0  0  0  0  0  0  0  0  0
    0.9356    1.1829    3.2618 C   0  0  0  0  0  0  0  0  0  0  0  0
    1.9116    0.9693    3.2218 H   0  0  0  0  0  0  0  0  0  0  0  0
    0.4730    0.7932    2.4660 H   0  0  0  0  0  0  0  0  0  0  0  0
    0.8089    2.1749    3.2723 H   0  0  0  0  0  0  0  0  0  0  0  0
  1  5  1  0
  5  6  1  0
  5  7  2  0
  1  2  1  0
  1  3  1  0
  1  4  1  0
  8 12  1  0
 12 15  1  0
  8  9  1  0
  8 10  1  0
  8 11  1  0
 12 13  1  0
 12 14  1  0
 15 16  1  0
 15 17  1  0
 15 18  1  0
M  CHG  1   6  -1
M  END
>  <PDB_ID>  (412) 
pdb1b09

>  <RESIDUE_NAME>  (412) 
GLU   VAL

>  <FRAG_NAME>  (412) 
ACET   PRPA

>  <FRAG_ATOM_NUM>  (412) 
fragi: 7  fragj: 11

>  <atom.prop.CHAIN_ID>  (412) 
A A A A A A A Z Z Z Z Z Z Z Z Z Z Z

>  <atom.prop.IS_HEAVY_ATOM>  (412) 
1 0 0 0 1 1 1 1 0 0 0 1 0 0 1 0 0 0

>  <DIFUSE_FUNC_ATOM>  (412) 
atom 6   atom 7   

>  <FINAL_SINGLE_POINT_ENERGY>  (412) 
0

>  <NONCOV_INTER_ENERGY_QM>  (412) 
0

>  <FF_Energy>  (412) 
4.36

>  <QM_Energy>  (412) 
-1.06

>  <Index>  (412) 
29610

$$$$
ACET-pdb1b3u-A-ASP-60:PRPA-pdb1b3u-A-VAL-64
     RDKit          3D

 18 16  0  0  0  0  0  0  0  0999 V2000
    0.0083    1.5122    0.0064 C   0  0  0  0  0  0  0  0  0  0  0  0
    0.9521    1.8280    0.0118 H   0  0  0  0  0  0  0  0  0  0  0  0
   -0.4676    1.8331    0.8185 H   0  0  0  0  0  0  0  0  0  0  0  0
   -0.4854    1.9435   -0.8645 H   0  0  0  0  0  0  0  0  0  0  0  0
    0.0000    0.0000    0.0000 C   0  0  0  0  0  0  0  0  0  0  0  0
   -1.0985   -0.6010    0.0000 O   0  0  0  0  0  1  0  0  0  0  0  0
    1.0985   -0.5925   -0.0000 O   0  0  0  0  0  0  0  0  0  0  0  0
    0.4486    0.7319    4.0604 C   0  0  0  0  0  0  0  0  0  0  0  0
    0.9292    0.9638    3.2146 H   0  0  0  0  0  0  0  0  0  0  0  0
    0.5506    1.4794    4.7164 H   0  0  0  0  0  0  0  0  0  0  0  0
    0.8389   -0.1043    4.4458 H   0  0  0  0  0  0  0  0  0  0  0  0
   -1.0278    0.5133    3.7638 C   0  0  0  0  0  0  0  0  0  0  0  0
   -1.2978    1.2019    3.1000 H   0  0  0  0  0  0  0  0  0  0  0  0
   -1.6222    0.6727    4.6634 H   0  0  0  0  0  0  0  0  0  0  0  0
   -1.2648   -0.8904    3.2334 C   0  0  0  0  0  0  0  0  0  0  0  0
   -0.7259   -1.5421    3.7676 H   0  0  0  0  0  0  0  0  0  0  0  0
   -2.2361   -1.1143    3.3122 H   0  0  0  0  0  0  0  0  0  0  0  0
   -0.9870   -0.9330    2.2734 H   0  0  0  0  0  0  0  0  0  0  0  0
  1  5  1  0
  5  6  1  0
  5  7  2  0
  1  2  1  0
  1  3  1  0
  1  4  1  0
  8 12  1  0
 12 15  1  0
  8  9  1  0
  8 10  1  0
  8 11  1  0
 12 13  1  0
 12 14  1  0
 15 16  1  0
 15 17  1  0
 15 18  1  0
M  CHG  1   6  -1
M  END
>  <PDB_ID>  (413) 
pdb1b3u

>  <RESIDUE_NAME>  (413) 
ASP   VAL

>  <FRAG_NAME>  (413) 
ACET   PRPA

>  <FRAG_ATOM_NUM>  (413) 
fragi: 7  fragj: 11

>  <atom.prop.CHAIN_ID>  (413) 
A A A A A A A Z Z Z Z Z Z Z Z Z Z Z

>  <atom.prop.IS_HEAVY_ATOM>  (413) 
1 0 0 0 1 1 1 1 0 0 0 1 0 0 1 0 0 0

>  <DIFUSE_FUNC_ATOM>  (413) 
atom 6   atom 7   

>  <FINAL_SINGLE_POINT_ENERGY>  (413) 
0

>  <NONCOV_INTER_ENERGY_QM>  (413) 
0

>  <FF_Energy>  (413) 
4.46

>  <QM_Energy>  (413) 
-4.29

>  <Index>  (413) 
29643

$$$$
ACET-pdb2buk-A-ASP-144:PRPA-pdb2buk-A-ARG-75
     RDKit          3D

 18 16  0  0  0  0  0  0  0  0999 V2000
    0.0020    1.5266    0.0001 C   0  0  0  0  0  0  0  0  0  0  0  0
    0.9436    1.8413   -0.1149 H   0  0  0  0  0  0  0  0  0  0  0  0
   -0.3520    1.8437    0.8775 H   0  0  0  0  0  0  0  0  0  0  0  0
   -0.6013    1.9769   -0.7881 H   0  0  0  0  0  0  0  0  0  0  0  0
    0.0000    0.0000    0.0000 C   0  0  0  0  0  0  0  0  0  0  0  0
   -1.1178   -0.6431    0.0000 O   0  0  0  0  0  1  0  0  0  0  0  0
    1.1178   -0.6449   -0.0000 O   0  0  0  0  0  0  0  0  0  0  0  0
    1.2388    4.7930    1.9601 C   0  0  0  0  0  0  0  0  0  0  0  0
    2.0134    4.2179    1.7532 H   0  0  0  0  0  0  0  0  0  0  0  0
    1.4731    5.4980    2.6098 H   0  0  0  0  0  0  0  0  0  0  0  0
    0.9082    5.2706    1.0378 H   0  0  0  0  0  0  0  0  0  0  0  0
    0.1501    3.9068    2.5987 C   0  0  0  0  0  0  0  0  0  0  0  0
   -0.6592    4.4669    2.7867 H   0  0  0  0  0  0  0  0  0  0  0  0
   -0.0968    3.1782    1.9564 H   0  0  0  0  0  0  0  0  0  0  0  0
    0.5840    3.2447    3.9177 C   0  0  0  0  0  0  0  0  0  0  0  0
   -0.0976    2.5546    4.1517 H   0  0  0  0  0  0  0  0  0  0  0  0
    1.4685    2.8086    3.7632 H   0  0  0  0  0  0  0  0  0  0  0  0
    0.6739    3.9510    4.7430 H   0  0  0  0  0  0  0  0  0  0  0  0
  1  5  1  0
  5  6  1  0
  5  7  2  0
  1  2  1  0
  1  3  1  0
  1  4  1  0
  8 12  1  0
 12 15  1  0
  8  9  1  0
  8 10  1  0
  8 11  1  0
 12 13  1  0
 12 14  1  0
 15 16  1  0
 15 17  1  0
 15 18  1  0
M  CHG  1   6  -1
M  END
>  <PDB_ID>  (414) 
pdb2buk

>  <RESIDUE_NAME>  (414) 
ASP   ARG

>  <FRAG_NAME>  (414) 
ACET   PRPA

>  <FRAG_ATOM_NUM>  (414) 
fragi: 7  fragj: 11

>  <atom.prop.CHAIN_ID>  (414) 
A A A A A A A Z Z Z Z Z Z Z Z Z Z Z

>  <atom.prop.IS_HEAVY_ATOM>  (414) 
1 0 0 0 1 1 1 1 0 0 0 1 0 0 1 0 0 0

>  <DIFUSE_FUNC_ATOM>  (414) 
atom 6   atom 7   

>  <FINAL_SINGLE_POINT_ENERGY>  (414) 
0

>  <NONCOV_INTER_ENERGY_QM>  (414) 
0

>  <FF_Energy>  (414) 
10.85

>  <QM_Energy>  (414) 
0.09

>  <Index>  (414) 
29702

$$$$
ACET-pdb1b73-A-GLU-94:PRPA-pdb1b73-A-LYS-126
     RDKit          3D

 18 16  0  0  0  0  0  0  0  0999 V2000
   -0.0165    1.5177   -0.0417 C   0  0  0  0  0  0  0  0  0  0  0  0
   -0.3609    1.7833   -0.9251 H   0  0  0  0  0  0  0  0  0  0  0  0
    0.9088    1.8249    0.1003 H   0  0  0  0  0  0  0  0  0  0  0  0
   -0.6529    1.9570    0.7265 H   0  0  0  0  0  0  0  0  0  0  0  0
    0.0000    0.0000    0.0000 C   0  0  0  0  0  0  0  0  0  0  0  0
   -1.1035   -0.5899   -0.0000 O   0  0  0  0  0  1  0  0  0  0  0  0
    1.1035   -0.5995    0.0000 O   0  0  0  0  0  0  0  0  0  0  0  0
    1.7708   -3.4048    2.5008 C   0  0  0  0  0  0  0  0  0  0  0  0
    1.5085   -3.3864    3.4594 H   0  0  0  0  0  0  0  0  0  0  0  0
    2.2600   -2.5729    2.2596 H   0  0  0  0  0  0  0  0  0  0  0  0
    2.4527   -4.2433    2.3590 H   0  0  0  0  0  0  0  0  0  0  0  0
    0.5438   -3.5176    1.6571 C   0  0  0  0  0  0  0  0  0  0  0  0
    0.7837   -3.3107    0.6881 H   0  0  0  0  0  0  0  0  0  0  0  0
    0.2140   -4.4815    1.6720 H   0  0  0  0  0  0  0  0  0  0  0  0
   -0.5936   -2.6189    2.0669 C   0  0  0  0  0  0  0  0  0  0  0  0
   -0.7001   -2.6413    3.0428 H   0  0  0  0  0  0  0  0  0  0  0  0
   -0.4412   -1.7114    1.7254 H   0  0  0  0  0  0  0  0  0  0  0  0
   -1.5119   -2.9982    1.6186 H   0  0  0  0  0  0  0  0  0  0  0  0
  1  5  1  0
  5  6  1  0
  5  7  2  0
  1  2  1  0
  1  3  1  0
  1  4  1  0
  8 12  1  0
 12 15  1  0
  8  9  1  0
  8 10  1  0
  8 11  1  0
 12 13  1  0
 12 14  1  0
 15 16  1  0
 15 17  1  0
 15 18  1  0
M  CHG  1   6  -1
M  END
>  <PDB_ID>  (415) 
pdb1b73

>  <RESIDUE_NAME>  (415) 
GLU   LYS

>  <FRAG_NAME>  (415) 
ACET   PRPA

>  <FRAG_ATOM_NUM>  (415) 
fragi: 7  fragj: 11

>  <atom.prop.CHAIN_ID>  (415) 
A A A A A A A Z Z Z Z Z Z Z Z Z Z Z

>  <atom.prop.IS_HEAVY_ATOM>  (415) 
1 0 0 0 1 1 1 1 0 0 0 1 0 0 1 0 0 0

>  <DIFUSE_FUNC_ATOM>  (415) 
atom 6   atom 7   

>  <FINAL_SINGLE_POINT_ENERGY>  (415) 
0

>  <NONCOV_INTER_ENERGY_QM>  (415) 
0

>  <FF_Energy>  (415) 
29.98

>  <QM_Energy>  (415) 
-3.69

>  <Index>  (415) 
29760

$$$$
ACET-pdb1b73-A-GLU-94:PRPA-pdb1b73-A-LYS-126
     RDKit          3D

 18 16  0  0  0  0  0  0  0  0999 V2000
   -0.0165    1.5177   -0.0417 C   0  0  0  0  0  0  0  0  0  0  0  0
   -0.3609    1.7833   -0.9251 H   0  0  0  0  0  0  0  0  0  0  0  0
    0.9088    1.8249    0.1003 H   0  0  0  0  0  0  0  0  0  0  0  0
   -0.6529    1.9570    0.7265 H   0  0  0  0  0  0  0  0  0  0  0  0
    0.0000    0.0000    0.0000 C   0  0  0  0  0  0  0  0  0  0  0  0
   -1.1035   -0.5899   -0.0000 O   0  0  0  0  0  1  0  0  0  0  0  0
    1.1035   -0.5995    0.0000 O   0  0  0  0  0  0  0  0  0  0  0  0
    0.5438   -3.5176    1.6571 C   0  0  0  0  0  0  0  0  0  0  0  0
    0.7837   -3.3107    0.6881 H   0  0  0  0  0  0  0  0  0  0  0  0
    0.2140   -4.4815    1.6720 H   0  0  0  0  0  0  0  0  0  0  0  0
    1.4394   -3.4352    2.2729 H   0  0  0  0  0  0  0  0  0  0  0  0
   -0.5936   -2.6189    2.0669 C   0  0  0  0  0  0  0  0  0  0  0  0
   -0.7001   -2.6413    3.0428 H   0  0  0  0  0  0  0  0  0  0  0  0
   -0.4412   -1.7114    1.7254 H   0  0  0  0  0  0  0  0  0  0  0  0
   -1.8923   -3.1552    1.4330 C   0  0  0  0  0  0  0  0  0  0  0  0
   -2.6546   -2.5653    1.7315 H   0  0  0  0  0  0  0  0  0  0  0  0
   -1.8098   -3.0741    0.4302 H   0  0  0  0  0  0  0  0  0  0  0  0
   -2.1106   -4.1904    1.6956 H   0  0  0  0  0  0  0  0  0  0  0  0
  1  5  1  0
  5  6  1  0
  5  7  2  0
  1  2  1  0
  1  3  1  0
  1  4  1  0
  8 12  1  0
 12 15  1  0
  8  9  1  0
  8 10  1  0
  8 11  1  0
 12 13  1  0
 12 14  1  0
 15 16  1  0
 15 17  1  0
 15 18  1  0
M  CHG  1   6  -1
M  END
>  <PDB_ID>  (416) 
pdb1b73

>  <RESIDUE_NAME>  (416) 
GLU   LYS

>  <FRAG_NAME>  (416) 
ACET   PRPA

>  <FRAG_ATOM_NUM>  (416) 
fragi: 7  fragj: 11

>  <atom.prop.CHAIN_ID>  (416) 
A A A A A A A Z Z Z Z Z Z Z Z Z Z Z

>  <atom.prop.IS_HEAVY_ATOM>  (416) 
1 0 0 0 1 1 1 1 0 0 0 1 0 0 1 0 0 0

>  <DIFUSE_FUNC_ATOM>  (416) 
atom 6   atom 7   

>  <FINAL_SINGLE_POINT_ENERGY>  (416) 
0

>  <NONCOV_INTER_ENERGY_QM>  (416) 
0

>  <FF_Energy>  (416) 
7.64

>  <QM_Energy>  (416) 
-4.9

>  <Index>  (416) 
29764

$$$$
ACET-pdb2bmf-A-ASP-391:PRPA-pdb2bmf-A-ARG-225
     RDKit          3D

 18 16  0  0  0  0  0  0  0  0999 V2000
    0.0042    1.5192    0.0048 C   0  0  0  0  0  0  0  0  0  0  0  0
    0.9438    1.8361   -0.0372 H   0  0  0  0  0  0  0  0  0  0  0  0
   -0.4352    1.8376    0.8347 H   0  0  0  0  0  0  0  0  0  0  0  0
   -0.5317    1.9442   -0.8439 H   0  0  0  0  0  0  0  0  0  0  0  0
    0.0000    0.0000    0.0000 C   0  0  0  0  0  0  0  0  0  0  0  0
   -1.0966   -0.5979   -0.0000 O   0  0  0  0  0  1  0  0  0  0  0  0
    1.0966   -0.5987   -0.0000 O   0  0  0  0  0  0  0  0  0  0  0  0
   -1.1246   -1.6330    3.0128 C   0  0  0  0  0  0  0  0  0  0  0  0
   -1.0406   -1.3335    2.0639 H   0  0  0  0  0  0  0  0  0  0  0  0
   -1.4771   -0.8847    3.5707 H   0  0  0  0  0  0  0  0  0  0  0  0
   -1.8446   -2.4505    3.0472 H   0  0  0  0  0  0  0  0  0  0  0  0
    0.2602   -1.9881    3.5209 C   0  0  0  0  0  0  0  0  0  0  0  0
    0.4716   -2.9323    3.2855 H   0  0  0  0  0  0  0  0  0  0  0  0
    0.9317   -1.3746    3.1178 H   0  0  0  0  0  0  0  0  0  0  0  0
    0.3438   -1.8489    5.0361 C   0  0  0  0  0  0  0  0  0  0  0  0
    0.1044   -0.9108    5.2736 H   0  0  0  0  0  0  0  0  0  0  0  0
   -0.3133   -2.4813    5.4393 H   0  0  0  0  0  0  0  0  0  0  0  0
    1.3404   -2.0737    5.4159 H   0  0  0  0  0  0  0  0  0  0  0  0
  1  5  1  0
  5  6  1  0
  5  7  2  0
  1  2  1  0
  1  3  1  0
  1  4  1  0
  8 12  1  0
 12 15  1  0
  8  9  1  0
  8 10  1  0
  8 11  1  0
 12 13  1  0
 12 14  1  0
 15 16  1  0
 15 17  1  0
 15 18  1  0
M  CHG  1   6  -1
M  END
>  <PDB_ID>  (417) 
pdb2bmf

>  <RESIDUE_NAME>  (417) 
ASP   ARG

>  <FRAG_NAME>  (417) 
ACET   PRPA

>  <FRAG_ATOM_NUM>  (417) 
fragi: 7  fragj: 11

>  <atom.prop.CHAIN_ID>  (417) 
A A A A A A A Z Z Z Z Z Z Z Z Z Z Z

>  <atom.prop.IS_HEAVY_ATOM>  (417) 
1 0 0 0 1 1 1 1 0 0 0 1 0 0 1 0 0 0

>  <DIFUSE_FUNC_ATOM>  (417) 
atom 6   atom 7   

>  <FINAL_SINGLE_POINT_ENERGY>  (417) 
0

>  <NONCOV_INTER_ENERGY_QM>  (417) 
0

>  <FF_Energy>  (417) 
9.23

>  <QM_Energy>  (417) 
-3.82

>  <Index>  (417) 
29802

$$$$
ACET-pdb1b78-A-GLU-106:PRPA-pdb1b78-A-LYS-103
     RDKit          3D

 18 16  0  0  0  0  0  0  0  0999 V2000
   -0.0183    1.5237    0.0059 C   0  0  0  0  0  0  0  0  0  0  0  0
    0.7817    1.8184    0.4920 H   0  0  0  0  0  0  0  0  0  0  0  0
   -0.8494    1.7981    0.4496 H   0  0  0  0  0  0  0  0  0  0  0  0
    0.0036    1.9354   -1.0032 H   0  0  0  0  0  0  0  0  0  0  0  0
    0.0000    0.0000    0.0000 C   0  0  0  0  0  0  0  0  0  0  0  0
   -1.1008   -0.5920    0.0000 O   0  0  0  0  0  1  0  0  0  0  0  0
    1.1008   -0.5931   -0.0000 O   0  0  0  0  0  0  0  0  0  0  0  0
   -2.0838   -2.7528   -3.2980 C   0  0  0  0  0  0  0  0  0  0  0  0
   -2.2445   -3.6920   -3.6216 H   0  0  0  0  0  0  0  0  0  0  0  0
   -1.5424   -2.2647   -3.9912 H   0  0  0  0  0  0  0  0  0  0  0  0
   -3.0420   -2.2492   -3.1706 H   0  0  0  0  0  0  0  0  0  0  0  0
   -1.2501   -2.8280   -2.0018 C   0  0  0  0  0  0  0  0  0  0  0  0
   -1.5314   -2.1020   -1.4019 H   0  0  0  0  0  0  0  0  0  0  0  0
   -1.3706   -3.7156   -1.5971 H   0  0  0  0  0  0  0  0  0  0  0  0
    0.2459   -2.6397   -2.3310 C   0  0  0  0  0  0  0  0  0  0  0  0
    0.3737   -2.7954   -3.3258 H   0  0  0  0  0  0  0  0  0  0  0  0
    0.4919   -1.6722   -2.1467 H   0  0  0  0  0  0  0  0  0  0  0  0
    0.9303   -3.2872   -1.7828 H   0  0  0  0  0  0  0  0  0  0  0  0
  1  5  1  0
  5  6  1  0
  5  7  2  0
  1  2  1  0
  1  3  1  0
  1  4  1  0
  8 12  1  0
 12 15  1  0
  8  9  1  0
  8 10  1  0
  8 11  1  0
 12 13  1  0
 12 14  1  0
 15 16  1  0
 15 17  1  0
 15 18  1  0
M  CHG  1   6  -1
M  END
>  <PDB_ID>  (418) 
pdb1b78

>  <RESIDUE_NAME>  (418) 
GLU   LYS

>  <FRAG_NAME>  (418) 
ACET   PRPA

>  <FRAG_ATOM_NUM>  (418) 
fragi: 7  fragj: 11

>  <atom.prop.CHAIN_ID>  (418) 
A A A A A A A Z Z Z Z Z Z Z Z Z Z Z

>  <atom.prop.IS_HEAVY_ATOM>  (418) 
1 0 0 0 1 1 1 1 0 0 0 1 0 0 1 0 0 0

>  <DIFUSE_FUNC_ATOM>  (418) 
atom 6   atom 7   

>  <FINAL_SINGLE_POINT_ENERGY>  (418) 
0

>  <NONCOV_INTER_ENERGY_QM>  (418) 
0

>  <FF_Energy>  (418) 
-0.06

>  <QM_Energy>  (418) 
-3.37

>  <Index>  (418) 
29864

$$$$
ACET-pdb1apx-D-GLU-193:PRPA-pdb1apx-D-LYS-199
     RDKit          3D

 18 16  0  0  0  0  0  0  0  0999 V2000
    0.0113    1.5224    0.0073 C   0  0  0  0  0  0  0  0  0  0  0  0
    0.7833    1.8151   -0.5274 H   0  0  0  0  0  0  0  0  0  0  0  0
    0.0786    1.8129    0.9447 H   0  0  0  0  0  0  0  0  0  0  0  0
   -0.8880    1.9621   -0.4239 H   0  0  0  0  0  0  0  0  0  0  0  0
    0.0000    0.0000    0.0000 C   0  0  0  0  0  0  0  0  0  0  0  0
   -1.0935   -0.6052    0.0000 O   0  0  0  0  0  1  0  0  0  0  0  0
    1.0935   -0.6001   -0.0000 O   0  0  0  0  0  0  0  0  0  0  0  0
   -4.3615   -2.4178    1.5538 C   0  0  0  0  0  0  0  0  0  0  0  0
   -4.7137   -1.5391    1.2438 H   0  0  0  0  0  0  0  0  0  0  0  0
   -4.0244   -2.3425    2.4871 H   0  0  0  0  0  0  0  0  0  0  0  0
   -5.1577   -3.1612    1.5143 H   0  0  0  0  0  0  0  0  0  0  0  0
   -3.2165   -2.8336    0.6490 C   0  0  0  0  0  0  0  0  0  0  0  0
   -2.4420   -2.2297    0.8053 H   0  0  0  0  0  0  0  0  0  0  0  0
   -2.9682   -3.7753    0.8490 H   0  0  0  0  0  0  0  0  0  0  0  0
   -3.6062   -2.7429   -0.8276 C   0  0  0  0  0  0  0  0  0  0  0  0
   -2.8939   -3.1897   -1.3784 H   0  0  0  0  0  0  0  0  0  0  0  0
   -4.4722   -3.2354   -0.9647 H   0  0  0  0  0  0  0  0  0  0  0  0
   -3.7254   -1.7146   -1.1688 H   0  0  0  0  0  0  0  0  0  0  0  0
  1  5  1  0
  5  6  1  0
  5  7  2  0
  1  2  1  0
  1  3  1  0
  1  4  1  0
  8 12  1  0
 12 15  1  0
  8  9  1  0
  8 10  1  0
  8 11  1  0
 12 13  1  0
 12 14  1  0
 15 16  1  0
 15 17  1  0
 15 18  1  0
M  CHG  1   6  -1
M  END
>  <PDB_ID>  (419) 
pdb1apx

>  <RESIDUE_NAME>  (419) 
GLU   LYS

>  <FRAG_NAME>  (419) 
ACET   PRPA

>  <FRAG_ATOM_NUM>  (419) 
fragi: 7  fragj: 11

>  <atom.prop.CHAIN_ID>  (419) 
A A A A A A A Z Z Z Z Z Z Z Z Z Z Z

>  <atom.prop.IS_HEAVY_ATOM>  (419) 
1 0 0 0 1 1 1 1 0 0 0 1 0 0 1 0 0 0

>  <DIFUSE_FUNC_ATOM>  (419) 
atom 6   atom 7   

>  <FINAL_SINGLE_POINT_ENERGY>  (419) 
0

>  <NONCOV_INTER_ENERGY_QM>  (419) 
0

>  <FF_Energy>  (419) 
1.44

>  <QM_Energy>  (419) 
-4.09

>  <Index>  (419) 
29891

$$$$
ACET-pdb1b88-B-GLU-217:PRPA-pdb1b88-B-VAL-213
     RDKit          3D

 18 16  0  0  0  0  0  0  0  0999 V2000
    0.0262    1.5337   -0.0043 C   0  0  0  0  0  0  0  0  0  0  0  0
   -0.6909    1.8371   -0.5994 H   0  0  0  0  0  0  0  0  0  0  0  0
    0.9149    1.8095   -0.3107 H   0  0  0  0  0  0  0  0  0  0  0  0
   -0.1452    1.9628    0.9828 H   0  0  0  0  0  0  0  0  0  0  0  0
    0.0000    0.0000    0.0000 C   0  0  0  0  0  0  0  0  0  0  0  0
   -1.0936   -0.6127    0.0000 O   0  0  0  0  0  1  0  0  0  0  0  0
    1.0936   -0.6001   -0.0000 O   0  0  0  0  0  0  0  0  0  0  0  0
   -4.3274   -0.8379    0.8454 C   0  0  0  0  0  0  0  0  0  0  0  0
   -3.7104   -1.3990    0.2963 H   0  0  0  0  0  0  0  0  0  0  0  0
   -5.3180   -1.2926    0.8372 H   0  0  0  0  0  0  0  0  0  0  0  0
   -3.9611   -0.8444    1.8720 H   0  0  0  0  0  0  0  0  0  0  0  0
   -4.4746    0.5792    0.2717 C   0  0  0  0  0  0  0  0  0  0  0  0
   -5.3578    0.6251   -0.1984 H   0  0  0  0  0  0  0  0  0  0  0  0
   -4.4889    1.3333    1.0586 H   0  0  0  0  0  0  0  0  0  0  0  0
   -3.4607    0.8405   -0.7982 C   0  0  0  0  0  0  0  0  0  0  0  0
   -2.8293    0.0628   -0.8686 H   0  0  0  0  0  0  0  0  0  0  0  0
   -3.9200    0.9692   -1.6816 H   0  0  0  0  0  0  0  0  0  0  0  0
   -2.9367    1.6690   -0.5786 H   0  0  0  0  0  0  0  0  0  0  0  0
  1  5  1  0
  5  6  1  0
  5  7  2  0
  1  2  1  0
  1  3  1  0
  1  4  1  0
  8 12  1  0
 12 15  1  0
  8  9  1  0
  8 10  1  0
  8 11  1  0
 12 13  1  0
 12 14  1  0
 15 16  1  0
 15 17  1  0
 15 18  1  0
M  CHG  1   6  -1
M  END
>  <PDB_ID>  (420) 
pdb1b88

>  <RESIDUE_NAME>  (420) 
GLU   VAL

>  <FRAG_NAME>  (420) 
ACET   PRPA

>  <FRAG_ATOM_NUM>  (420) 
fragi: 7  fragj: 11

>  <atom.prop.CHAIN_ID>  (420) 
A A A A A A A Z Z Z Z Z Z Z Z Z Z Z

>  <atom.prop.IS_HEAVY_ATOM>  (420) 
1 0 0 0 1 1 1 1 0 0 0 1 0 0 1 0 0 0

>  <DIFUSE_FUNC_ATOM>  (420) 
atom 6   atom 7   

>  <FINAL_SINGLE_POINT_ENERGY>  (420) 
0

>  <NONCOV_INTER_ENERGY_QM>  (420) 
0

>  <FF_Energy>  (420) 
8.24

>  <QM_Energy>  (420) 
-1.84

>  <Index>  (420) 
29921

$$$$
ACET-pdb1b88-B-GLU-217:PRPA-pdb1b88-B-VAL-213
     RDKit          3D

 18 16  0  0  0  0  0  0  0  0999 V2000
    0.0262    1.5337   -0.0043 C   0  0  0  0  0  0  0  0  0  0  0  0
   -0.6909    1.8371   -0.5994 H   0  0  0  0  0  0  0  0  0  0  0  0
    0.9149    1.8095   -0.3107 H   0  0  0  0  0  0  0  0  0  0  0  0
   -0.1452    1.9628    0.9828 H   0  0  0  0  0  0  0  0  0  0  0  0
    0.0000    0.0000    0.0000 C   0  0  0  0  0  0  0  0  0  0  0  0
   -1.0936   -0.6127    0.0000 O   0  0  0  0  0  1  0  0  0  0  0  0
    1.0936   -0.6001   -0.0000 O   0  0  0  0  0  0  0  0  0  0  0  0
   -4.4945    1.6238    1.3617 C   0  0  0  0  0  0  0  0  0  0  0  0
   -4.4121    2.5371    0.9587 H   0  0  0  0  0  0  0  0  0  0  0  0
   -5.3557    1.5667    1.8719 H   0  0  0  0  0  0  0  0  0  0  0  0
   -3.7299    1.4727    1.9915 H   0  0  0  0  0  0  0  0  0  0  0  0
   -4.4746    0.5792    0.2717 C   0  0  0  0  0  0  0  0  0  0  0  0
   -5.3578    0.6251   -0.1984 H   0  0  0  0  0  0  0  0  0  0  0  0
   -4.3701   -0.4265    0.6788 H   0  0  0  0  0  0  0  0  0  0  0  0
   -3.4607    0.8405   -0.7982 C   0  0  0  0  0  0  0  0  0  0  0  0
   -2.8293    0.0628   -0.8686 H   0  0  0  0  0  0  0  0  0  0  0  0
   -3.9200    0.9692   -1.6816 H   0  0  0  0  0  0  0  0  0  0  0  0
   -2.9367    1.6690   -0.5786 H   0  0  0  0  0  0  0  0  0  0  0  0
  1  5  1  0
  5  6  1  0
  5  7  2  0
  1  2  1  0
  1  3  1  0
  1  4  1  0
  8 12  1  0
 12 15  1  0
  8  9  1  0
  8 10  1  0
  8 11  1  0
 12 13  1  0
 12 14  1  0
 15 16  1  0
 15 17  1  0
 15 18  1  0
M  CHG  1   6  -1
M  END
>  <PDB_ID>  (421) 
pdb1b88

>  <RESIDUE_NAME>  (421) 
GLU   VAL

>  <FRAG_NAME>  (421) 
ACET   PRPA

>  <FRAG_ATOM_NUM>  (421) 
fragi: 7  fragj: 11

>  <atom.prop.CHAIN_ID>  (421) 
A A A A A A A Z Z Z Z Z Z Z Z Z Z Z

>  <atom.prop.IS_HEAVY_ATOM>  (421) 
1 0 0 0 1 1 1 1 0 0 0 1 0 0 1 0 0 0

>  <DIFUSE_FUNC_ATOM>  (421) 
atom 6   atom 7   

>  <FINAL_SINGLE_POINT_ENERGY>  (421) 
0

>  <NONCOV_INTER_ENERGY_QM>  (421) 
0

>  <FF_Energy>  (421) 
7.84

>  <QM_Energy>  (421) 
-1.09

>  <Index>  (421) 
29928

$$$$
ACET-pdb1b77-A-GLU-47:PRPA-pdb1b77-A-LYS-27
     RDKit          3D

 18 16  0  0  0  0  0  0  0  0999 V2000
   -0.0071    1.5112    0.0267 C   0  0  0  0  0  0  0  0  0  0  0  0
    0.7293    1.8246   -0.5429 H   0  0  0  0  0  0  0  0  0  0  0  0
    0.0972    1.7948    0.9616 H   0  0  0  0  0  0  0  0  0  0  0  0
   -0.9363    1.9334   -0.3561 H   0  0  0  0  0  0  0  0  0  0  0  0
    0.0000    0.0000    0.0000 C   0  0  0  0  0  0  0  0  0  0  0  0
   -1.0994   -0.6057    0.0000 O   0  0  0  0  0  1  0  0  0  0  0  0
    1.0994   -0.6108   -0.0000 O   0  0  0  0  0  0  0  0  0  0  0  0
   -4.0989   -2.8795   -0.3855 C   0  0  0  0  0  0  0  0  0  0  0  0
   -3.6032   -3.6926   -0.6620 H   0  0  0  0  0  0  0  0  0  0  0  0
   -5.0620   -2.9614   -0.6096 H   0  0  0  0  0  0  0  0  0  0  0  0
   -4.0081   -2.7748    0.6956 H   0  0  0  0  0  0  0  0  0  0  0  0
   -3.5284   -1.6876   -1.1357 C   0  0  0  0  0  0  0  0  0  0  0  0
   -4.0368   -0.8574   -0.8708 H   0  0  0  0  0  0  0  0  0  0  0  0
   -2.5637   -1.5612   -0.8703 H   0  0  0  0  0  0  0  0  0  0  0  0
   -3.5953   -1.8264   -2.6613 C   0  0  0  0  0  0  0  0  0  0  0  0
   -3.1896   -2.6858   -2.9183 H   0  0  0  0  0  0  0  0  0  0  0  0
   -4.5367   -1.7629   -2.9446 H   0  0  0  0  0  0  0  0  0  0  0  0
   -3.0315   -1.0162   -3.1239 H   0  0  0  0  0  0  0  0  0  0  0  0
  1  5  1  0
  5  6  1  0
  5  7  2  0
  1  2  1  0
  1  3  1  0
  1  4  1  0
  8 12  1  0
 12 15  1  0
  8  9  1  0
  8 10  1  0
  8 11  1  0
 12 13  1  0
 12 14  1  0
 15 16  1  0
 15 17  1  0
 15 18  1  0
M  CHG  1   6  -1
M  END
>  <PDB_ID>  (422) 
pdb1b77

>  <RESIDUE_NAME>  (422) 
GLU   LYS

>  <FRAG_NAME>  (422) 
ACET   PRPA

>  <FRAG_ATOM_NUM>  (422) 
fragi: 7  fragj: 11

>  <atom.prop.CHAIN_ID>  (422) 
A A A A A A A Z Z Z Z Z Z Z Z Z Z Z

>  <atom.prop.IS_HEAVY_ATOM>  (422) 
1 0 0 0 1 1 1 1 0 0 0 1 0 0 1 0 0 0

>  <DIFUSE_FUNC_ATOM>  (422) 
atom 6   atom 7   

>  <FINAL_SINGLE_POINT_ENERGY>  (422) 
0

>  <NONCOV_INTER_ENERGY_QM>  (422) 
0

>  <FF_Energy>  (422) 
5.25

>  <QM_Energy>  (422) 
-1.55

>  <Index>  (422) 
30206

$$$$
ACET-pdb1b77-A-GLU-47:PRPA-pdb1b77-A-LYS-27
     RDKit          3D

 18 16  0  0  0  0  0  0  0  0999 V2000
   -0.0071    1.5112    0.0267 C   0  0  0  0  0  0  0  0  0  0  0  0
    0.7293    1.8246   -0.5429 H   0  0  0  0  0  0  0  0  0  0  0  0
    0.0972    1.7948    0.9616 H   0  0  0  0  0  0  0  0  0  0  0  0
   -0.9363    1.9334   -0.3561 H   0  0  0  0  0  0  0  0  0  0  0  0
    0.0000    0.0000    0.0000 C   0  0  0  0  0  0  0  0  0  0  0  0
   -1.0994   -0.6057    0.0000 O   0  0  0  0  0  1  0  0  0  0  0  0
    1.0994   -0.6108   -0.0000 O   0  0  0  0  0  0  0  0  0  0  0  0
   -3.5284   -1.6876   -1.1357 C   0  0  0  0  0  0  0  0  0  0  0  0
   -4.0368   -0.8574   -0.8708 H   0  0  0  0  0  0  0  0  0  0  0  0
   -2.5637   -1.5612   -0.8703 H   0  0  0  0  0  0  0  0  0  0  0  0
   -3.9376   -2.5426   -0.5976 H   0  0  0  0  0  0  0  0  0  0  0  0
   -3.5953   -1.8264   -2.6613 C   0  0  0  0  0  0  0  0  0  0  0  0
   -3.1896   -2.6858   -2.9183 H   0  0  0  0  0  0  0  0  0  0  0  0
   -4.5367   -1.7629   -2.9446 H   0  0  0  0  0  0  0  0  0  0  0  0
   -2.8086   -0.6959   -3.3067 C   0  0  0  0  0  0  0  0  0  0  0  0
   -2.9700    0.1581   -2.7705 H   0  0  0  0  0  0  0  0  0  0  0  0
   -1.8123   -0.9029   -3.2177 H   0  0  0  0  0  0  0  0  0  0  0  0
   -3.0322   -0.4988   -4.3552 H   0  0  0  0  0  0  0  0  0  0  0  0
  1  5  1  0
  5  6  1  0
  5  7  2  0
  1  2  1  0
  1  3  1  0
  1  4  1  0
  8 12  1  0
 12 15  1  0
  8  9  1  0
  8 10  1  0
  8 11  1  0
 12 13  1  0
 12 14  1  0
 15 16  1  0
 15 17  1  0
 15 18  1  0
M  CHG  1   6  -1
M  END
>  <PDB_ID>  (423) 
pdb1b77

>  <RESIDUE_NAME>  (423) 
GLU   LYS

>  <FRAG_NAME>  (423) 
ACET   PRPA

>  <FRAG_ATOM_NUM>  (423) 
fragi: 7  fragj: 11

>  <atom.prop.CHAIN_ID>  (423) 
A A A A A A A Z Z Z Z Z Z Z Z Z Z Z

>  <atom.prop.IS_HEAVY_ATOM>  (423) 
1 0 0 0 1 1 1 1 0 0 0 1 0 0 1 0 0 0

>  <DIFUSE_FUNC_ATOM>  (423) 
atom 6   atom 7   

>  <FINAL_SINGLE_POINT_ENERGY>  (423) 
0

>  <NONCOV_INTER_ENERGY_QM>  (423) 
0

>  <FF_Energy>  (423) 
14.51

>  <QM_Energy>  (423) 
-2.17

>  <Index>  (423) 
30212

$$$$
ACET-pdb1b4a-A-ASP-137:PRPA-pdb1b4a-A-GLU-117
     RDKit          3D

 18 16  0  0  0  0  0  0  0  0999 V2000
    0.0060    1.5161    0.0044 C   0  0  0  0  0  0  0  0  0  0  0  0
   -0.6489    1.8356    0.6797 H   0  0  0  0  0  0  0  0  0  0  0  0
   -0.2414    1.8389   -0.9007 H   0  0  0  0  0  0  0  0  0  0  0  0
    0.9827    1.9286    0.2573 H   0  0  0  0  0  0  0  0  0  0  0  0
    0.0000    0.0000    0.0000 C   0  0  0  0  0  0  0  0  0  0  0  0
   -1.0963   -0.5947    0.0000 O   0  0  0  0  0  1  0  0  0  0  0  0
    1.0963   -0.6010   -0.0000 O   0  0  0  0  0  0  0  0  0  0  0  0
   -1.9552    0.8588   -3.5514 C   0  0  0  0  0  0  0  0  0  0  0  0
   -2.0427    0.3166   -2.6982 H   0  0  0  0  0  0  0  0  0  0  0  0
   -2.1599    0.2243   -4.4137 H   0  0  0  0  0  0  0  0  0  0  0  0
   -2.6222    1.7190   -3.4955 H   0  0  0  0  0  0  0  0  0  0  0  0
   -0.4936    1.3086   -3.6026 C   0  0  0  0  0  0  0  0  0  0  0  0
   -0.4003    1.9466   -4.3416 H   0  0  0  0  0  0  0  0  0  0  0  0
   -0.2676    1.7002   -2.7331 H   0  0  0  0  0  0  0  0  0  0  0  0
    0.4880    0.1638   -3.8593 C   0  0  0  0  0  0  0  0  0  0  0  0
    1.1845    0.1940   -3.1673 H   0  0  0  0  0  0  0  0  0  0  0  0
   -0.0125   -0.6813   -3.8513 H   0  0  0  0  0  0  0  0  0  0  0  0
    0.9871    0.2354   -4.8257 H   0  0  0  0  0  0  0  0  0  0  0  0
  1  5  1  0
  5  6  1  0
  5  7  2  0
  1  2  1  0
  1  3  1  0
  1  4  1  0
  8 12  1  0
 12 15  1  0
  8  9  1  0
  8 10  1  0
  8 11  1  0
 12 13  1  0
 12 14  1  0
 15 16  1  0
 15 17  1  0
 15 18  1  0
M  CHG  1   6  -1
M  END
>  <PDB_ID>  (424) 
pdb1b4a

>  <RESIDUE_NAME>  (424) 
ASP   GLU

>  <FRAG_NAME>  (424) 
ACET   PRPA

>  <FRAG_ATOM_NUM>  (424) 
fragi: 7  fragj: 11

>  <atom.prop.CHAIN_ID>  (424) 
A A A A A A A Z Z Z Z Z Z Z Z Z Z Z

>  <atom.prop.IS_HEAVY_ATOM>  (424) 
1 0 0 0 1 1 1 1 0 0 0 1 0 0 1 0 0 0

>  <DIFUSE_FUNC_ATOM>  (424) 
atom 6   atom 7   

>  <FINAL_SINGLE_POINT_ENERGY>  (424) 
0

>  <NONCOV_INTER_ENERGY_QM>  (424) 
0

>  <FF_Energy>  (424) 
2.75

>  <QM_Energy>  (424) 
-3.44

>  <Index>  (424) 
30270

$$$$
ACET-pdb1b47-B-ASP-64:PRPA-pdb1b47-A-LEU-219
     RDKit          3D

 18 16  0  0  0  0  0  0  0  0999 V2000
    0.0178    1.5050   -0.0462 C   0  0  0  0  0  0  0  0  0  0  0  0
    0.4791    1.8077   -0.8603 H   0  0  0  0  0  0  0  0  0  0  0  0
    0.4332    1.8590    0.7709 H   0  0  0  0  0  0  0  0  0  0  0  0
   -0.9958    1.9038   -0.0872 H   0  0  0  0  0  0  0  0  0  0  0  0
    0.0000    0.0000    0.0000 C   0  0  0  0  0  0  0  0  0  0  0  0
   -1.1255   -0.5902   -0.0000 O   0  0  0  0  0  1  0  0  0  0  0  0
    1.1255   -0.5629    0.0000 O   0  0  0  0  0  0  0  0  0  0  0  0
   -2.8912   -1.6548   -3.3934 C   0  0  0  0  0  0  0  0  0  0  0  0
   -3.5016   -2.1435   -4.0155 H   0  0  0  0  0  0  0  0  0  0  0  0
   -2.9570   -0.6721   -3.5639 H   0  0  0  0  0  0  0  0  0  0  0  0
   -1.9504   -1.9572   -3.5427 H   0  0  0  0  0  0  0  0  0  0  0  0
   -3.2952   -1.9476   -1.9514 C   0  0  0  0  0  0  0  0  0  0  0  0
   -2.6811   -1.4935   -1.3261 H   0  0  0  0  0  0  0  0  0  0  0  0
   -3.2193   -3.0208   -1.7765 H   0  0  0  0  0  0  0  0  0  0  0  0
   -4.7131   -1.5009   -1.6778 C   0  0  0  0  0  0  0  0  0  0  0  0
   -4.9548   -1.7024   -0.7265 H   0  0  0  0  0  0  0  0  0  0  0  0
   -4.7946   -0.5140   -1.8360 H   0  0  0  0  0  0  0  0  0  0  0  0
   -5.3450   -1.9841   -2.2869 H   0  0  0  0  0  0  0  0  0  0  0  0
  1  5  1  0
  5  6  1  0
  5  7  2  0
  1  2  1  0
  1  3  1  0
  1  4  1  0
  8 12  1  0
 12 15  1  0
  8  9  1  0
  8 10  1  0
  8 11  1  0
 12 13  1  0
 12 14  1  0
 15 16  1  0
 15 17  1  0
 15 18  1  0
M  CHG  1   6  -1
M  END
>  <PDB_ID>  (425) 
pdb1b47

>  <RESIDUE_NAME>  (425) 
ASP   LEU

>  <FRAG_NAME>  (425) 
ACET   PRPA

>  <FRAG_ATOM_NUM>  (425) 
fragi: 7  fragj: 11

>  <atom.prop.CHAIN_ID>  (425) 
A A A A A A A Z Z Z Z Z Z Z Z Z Z Z

>  <atom.prop.IS_HEAVY_ATOM>  (425) 
1 0 0 0 1 1 1 1 0 0 0 1 0 0 1 0 0 0

>  <DIFUSE_FUNC_ATOM>  (425) 
atom 6   atom 7   

>  <FINAL_SINGLE_POINT_ENERGY>  (425) 
0

>  <NONCOV_INTER_ENERGY_QM>  (425) 
0

>  <FF_Energy>  (425) 
1.41

>  <QM_Energy>  (425) 
-3.6

>  <Index>  (425) 
30274

$$$$
ACET-pdb2b3y-A-GLU-112:PRPA-pdb2b3y-A-LYS-632
     RDKit          3D

 18 16  0  0  0  0  0  0  0  0999 V2000
    0.0236    1.5285    0.0390 C   0  0  0  0  0  0  0  0  0  0  0  0
    0.9623    1.8157   -0.0693 H   0  0  0  0  0  0  0  0  0  0  0  0
   -0.3422    1.8095    0.9122 H   0  0  0  0  0  0  0  0  0  0  0  0
   -0.5631    2.0157   -0.7398 H   0  0  0  0  0  0  0  0  0  0  0  0
    0.0000    0.0000    0.0000 C   0  0  0  0  0  0  0  0  0  0  0  0
   -1.0937   -0.6101    0.0000 O   0  0  0  0  0  1  0  0  0  0  0  0
    1.0937   -0.5973    0.0000 O   0  0  0  0  0  0  0  0  0  0  0  0
    3.8210   -2.9500    0.7334 C   0  0  0  0  0  0  0  0  0  0  0  0
    4.5675   -2.3630    1.0503 H   0  0  0  0  0  0  0  0  0  0  0  0
    3.3291   -2.4866   -0.0053 H   0  0  0  0  0  0  0  0  0  0  0  0
    4.2538   -3.8665    0.3323 H   0  0  0  0  0  0  0  0  0  0  0  0
    2.8429   -3.1436    1.9045 C   0  0  0  0  0  0  0  0  0  0  0  0
    2.9818   -4.0539    2.2942 H   0  0  0  0  0  0  0  0  0  0  0  0
    3.0301   -2.4504    2.5999 H   0  0  0  0  0  0  0  0  0  0  0  0
    1.3755   -3.0162    1.4649 C   0  0  0  0  0  0  0  0  0  0  0  0
    1.2568   -2.1389    1.0050 H   0  0  0  0  0  0  0  0  0  0  0  0
    1.1658   -3.7612    0.8354 H   0  0  0  0  0  0  0  0  0  0  0  0
    0.6768   -3.0643    2.3002 H   0  0  0  0  0  0  0  0  0  0  0  0
  1  5  1  0
  5  6  1  0
  5  7  2  0
  1  2  1  0
  1  3  1  0
  1  4  1  0
  8 12  1  0
 12 15  1  0
  8  9  1  0
  8 10  1  0
  8 11  1  0
 12 13  1  0
 12 14  1  0
 15 16  1  0
 15 17  1  0
 15 18  1  0
M  CHG  1   6  -1
M  END
>  <PDB_ID>  (426) 
pdb2b3y

>  <RESIDUE_NAME>  (426) 
GLU   LYS

>  <FRAG_NAME>  (426) 
ACET   PRPA

>  <FRAG_ATOM_NUM>  (426) 
fragi: 7  fragj: 11

>  <atom.prop.CHAIN_ID>  (426) 
A A A A A A A Z Z Z Z Z Z Z Z Z Z Z

>  <atom.prop.IS_HEAVY_ATOM>  (426) 
1 0 0 0 1 1 1 1 0 0 0 1 0 0 1 0 0 0

>  <DIFUSE_FUNC_ATOM>  (426) 
atom 6   atom 7   

>  <FINAL_SINGLE_POINT_ENERGY>  (426) 
0

>  <NONCOV_INTER_ENERGY_QM>  (426) 
0

>  <FF_Energy>  (426) 
9.61

>  <QM_Energy>  (426) 
-1.21

>  <Index>  (426) 
30283

$$$$
ACET-pdb2b3y-A-GLU-112:PRPA-pdb2b3y-A-LYS-632
     RDKit          3D

 18 16  0  0  0  0  0  0  0  0999 V2000
    0.0236    1.5285    0.0390 C   0  0  0  0  0  0  0  0  0  0  0  0
    0.9623    1.8157   -0.0693 H   0  0  0  0  0  0  0  0  0  0  0  0
   -0.3422    1.8095    0.9122 H   0  0  0  0  0  0  0  0  0  0  0  0
   -0.5631    2.0157   -0.7398 H   0  0  0  0  0  0  0  0  0  0  0  0
    0.0000    0.0000    0.0000 C   0  0  0  0  0  0  0  0  0  0  0  0
   -1.0937   -0.6101    0.0000 O   0  0  0  0  0  1  0  0  0  0  0  0
    1.0937   -0.5973    0.0000 O   0  0  0  0  0  0  0  0  0  0  0  0
    2.8429   -3.1436    1.9045 C   0  0  0  0  0  0  0  0  0  0  0  0
    2.9818   -4.0539    2.2942 H   0  0  0  0  0  0  0  0  0  0  0  0
    3.0301   -2.4504    2.5999 H   0  0  0  0  0  0  0  0  0  0  0  0
    3.5361   -3.0064    1.0745 H   0  0  0  0  0  0  0  0  0  0  0  0
    1.3755   -3.0162    1.4649 C   0  0  0  0  0  0  0  0  0  0  0  0
    1.2568   -2.1389    1.0050 H   0  0  0  0  0  0  0  0  0  0  0  0
    1.1658   -3.7612    0.8354 H   0  0  0  0  0  0  0  0  0  0  0  0
    0.3920   -3.0838    2.6405 C   0  0  0  0  0  0  0  0  0  0  0  0
   -0.5483   -3.1909    2.2719 H   0  0  0  0  0  0  0  0  0  0  0  0
    0.5926   -3.9187    3.1848 H   0  0  0  0  0  0  0  0  0  0  0  0
    0.3997   -2.2271    3.3142 H   0  0  0  0  0  0  0  0  0  0  0  0
  1  5  1  0
  5  6  1  0
  5  7  2  0
  1  2  1  0
  1  3  1  0
  1  4  1  0
  8 12  1  0
 12 15  1  0
  8  9  1  0
  8 10  1  0
  8 11  1  0
 12 13  1  0
 12 14  1  0
 15 16  1  0
 15 17  1  0
 15 18  1  0
M  CHG  1   6  -1
M  END
>  <PDB_ID>  (427) 
pdb2b3y

>  <RESIDUE_NAME>  (427) 
GLU   LYS

>  <FRAG_NAME>  (427) 
ACET   PRPA

>  <FRAG_ATOM_NUM>  (427) 
fragi: 7  fragj: 11

>  <atom.prop.CHAIN_ID>  (427) 
A A A A A A A Z Z Z Z Z Z Z Z Z Z Z

>  <atom.prop.IS_HEAVY_ATOM>  (427) 
1 0 0 0 1 1 1 1 0 0 0 1 0 0 1 0 0 0

>  <DIFUSE_FUNC_ATOM>  (427) 
atom 6   atom 7   

>  <FINAL_SINGLE_POINT_ENERGY>  (427) 
0

>  <NONCOV_INTER_ENERGY_QM>  (427) 
0

>  <FF_Energy>  (427) 
31.5

>  <QM_Energy>  (427) 
-1.08

>  <Index>  (427) 
30289

$$$$
ACET-pdb2bss-A-GLU-154:PRPA-pdb2bss-A-ARG-151
     RDKit          3D

 18 16  0  0  0  0  0  0  0  0999 V2000
    0.0000    1.5242   -0.0149 C   0  0  0  0  0  0  0  0  0  0  0  0
   -0.1842    1.8100   -0.9350 H   0  0  0  0  0  0  0  0  0  0  0  0
    0.8801    1.8214    0.3028 H   0  0  0  0  0  0  0  0  0  0  0  0
   -0.7635    1.9497    0.6364 H   0  0  0  0  0  0  0  0  0  0  0  0
    0.0000    0.0000    0.0000 C   0  0  0  0  0  0  0  0  0  0  0  0
   -1.1007   -0.6013    0.0000 O   0  0  0  0  0  1  0  0  0  0  0  0
    1.1007   -0.5972   -0.0000 O   0  0  0  0  0  0  0  0  0  0  0  0
    0.1718   -0.7109    4.1117 C   0  0  0  0  0  0  0  0  0  0  0  0
   -0.4835   -1.1031    4.7496 H   0  0  0  0  0  0  0  0  0  0  0  0
   -0.3036   -0.2208    3.3884 H   0  0  0  0  0  0  0  0  0  0  0  0
    0.7903    0.0027    4.6561 H   0  0  0  0  0  0  0  0  0  0  0  0
    0.9523   -1.8557    3.4723 C   0  0  0  0  0  0  0  0  0  0  0  0
    1.3195   -2.4433    4.1811 H   0  0  0  0  0  0  0  0  0  0  0  0
    0.3557   -2.3641    2.8651 H   0  0  0  0  0  0  0  0  0  0  0  0
    2.1170   -1.3137    2.6506 C   0  0  0  0  0  0  0  0  0  0  0  0
    1.7572   -0.6179    2.0286 H   0  0  0  0  0  0  0  0  0  0  0  0
    2.7677   -0.8908    3.2822 H   0  0  0  0  0  0  0  0  0  0  0  0
    2.6256   -2.0850    2.0722 H   0  0  0  0  0  0  0  0  0  0  0  0
  1  5  1  0
  5  6  1  0
  5  7  2  0
  1  2  1  0
  1  3  1  0
  1  4  1  0
  8 12  1  0
 12 15  1  0
  8  9  1  0
  8 10  1  0
  8 11  1  0
 12 13  1  0
 12 14  1  0
 15 16  1  0
 15 17  1  0
 15 18  1  0
M  CHG  1   6  -1
M  END
>  <PDB_ID>  (428) 
pdb2bss

>  <RESIDUE_NAME>  (428) 
GLU   ARG

>  <FRAG_NAME>  (428) 
ACET   PRPA

>  <FRAG_ATOM_NUM>  (428) 
fragi: 7  fragj: 11

>  <atom.prop.CHAIN_ID>  (428) 
A A A A A A A Z Z Z Z Z Z Z Z Z Z Z

>  <atom.prop.IS_HEAVY_ATOM>  (428) 
1 0 0 0 1 1 1 1 0 0 0 1 0 0 1 0 0 0

>  <DIFUSE_FUNC_ATOM>  (428) 
atom 6   atom 7   

>  <FINAL_SINGLE_POINT_ENERGY>  (428) 
0

>  <NONCOV_INTER_ENERGY_QM>  (428) 
0

>  <FF_Energy>  (428) 
4.57

>  <QM_Energy>  (428) 
-2.49

>  <Index>  (428) 
30325

$$$$
ACET-pdb2bsr-A-GLU-154:PRPA-pdb2bsr-A-ARG-151
     RDKit          3D

 18 16  0  0  0  0  0  0  0  0999 V2000
   -0.0046    1.5187    0.0009 C   0  0  0  0  0  0  0  0  0  0  0  0
   -0.5165    1.8140   -0.7861 H   0  0  0  0  0  0  0  0  0  0  0  0
    0.9326    1.8179   -0.0334 H   0  0  0  0  0  0  0  0  0  0  0  0
   -0.4688    1.9455    0.8900 H   0  0  0  0  0  0  0  0  0  0  0  0
    0.0000    0.0000    0.0000 C   0  0  0  0  0  0  0  0  0  0  0  0
   -1.1014   -0.5941   -0.0000 O   0  0  0  0  0  1  0  0  0  0  0  0
    1.1014   -0.5999    0.0000 O   0  0  0  0  0  0  0  0  0  0  0  0
   -2.9258   -1.9568    2.5276 C   0  0  0  0  0  0  0  0  0  0  0  0
   -3.8630   -1.6682    2.6597 H   0  0  0  0  0  0  0  0  0  0  0  0
   -2.3958   -1.2563    2.0732 H   0  0  0  0  0  0  0  0  0  0  0  0
   -2.4828   -2.1405    3.5065 H   0  0  0  0  0  0  0  0  0  0  0  0
   -2.9255   -3.1949    1.6583 C   0  0  0  0  0  0  0  0  0  0  0  0
   -2.0645   -3.6887    1.7836 H   0  0  0  0  0  0  0  0  0  0  0  0
   -3.6882   -3.7864    1.9224 H   0  0  0  0  0  0  0  0  0  0  0  0
   -3.0713   -2.8569    0.1992 C   0  0  0  0  0  0  0  0  0  0  0  0
   -4.0373   -2.7303   -0.0015 H   0  0  0  0  0  0  0  0  0  0  0  0
   -2.5685   -2.0174    0.0177 H   0  0  0  0  0  0  0  0  0  0  0  0
   -2.6770   -3.6524   -0.4331 H   0  0  0  0  0  0  0  0  0  0  0  0
  1  5  1  0
  5  6  1  0
  5  7  2  0
  1  2  1  0
  1  3  1  0
  1  4  1  0
  8 12  1  0
 12 15  1  0
  8  9  1  0
  8 10  1  0
  8 11  1  0
 12 13  1  0
 12 14  1  0
 15 16  1  0
 15 17  1  0
 15 18  1  0
M  CHG  1   6  -1
M  END
>  <PDB_ID>  (429) 
pdb2bsr

>  <RESIDUE_NAME>  (429) 
GLU   ARG

>  <FRAG_NAME>  (429) 
ACET   PRPA

>  <FRAG_ATOM_NUM>  (429) 
fragi: 7  fragj: 11

>  <atom.prop.CHAIN_ID>  (429) 
A A A A A A A Z Z Z Z Z Z Z Z Z Z Z

>  <atom.prop.IS_HEAVY_ATOM>  (429) 
1 0 0 0 1 1 1 1 0 0 0 1 0 0 1 0 0 0

>  <DIFUSE_FUNC_ATOM>  (429) 
atom 6   atom 7   

>  <FINAL_SINGLE_POINT_ENERGY>  (429) 
0

>  <NONCOV_INTER_ENERGY_QM>  (429) 
0

>  <FF_Energy>  (429) 
19.88

>  <QM_Energy>  (429) 
-4.24

>  <Index>  (429) 
30328

$$$$
ACET-pdb2bol-A-GLU-184:PRPA-pdb2bol-A-LYS-115
     RDKit          3D

 18 16  0  0  0  0  0  0  0  0999 V2000
   -0.0109    1.5208    0.0131 C   0  0  0  0  0  0  0  0  0  0  0  0
   -0.4553    1.8143   -0.8057 H   0  0  0  0  0  0  0  0  0  0  0  0
    0.9182    1.8153    0.0761 H   0  0  0  0  0  0  0  0  0  0  0  0
   -0.5648    1.8956    0.8737 H   0  0  0  0  0  0  0  0  0  0  0  0
    0.0000    0.0000    0.0000 C   0  0  0  0  0  0  0  0  0  0  0  0
   -1.0992   -0.6002    0.0000 O   0  0  0  0  0  1  0  0  0  0  0  0
    1.0992   -0.5966   -0.0000 O   0  0  0  0  0  0  0  0  0  0  0  0
   -2.4033    2.3686   -2.5673 C   0  0  0  0  0  0  0  0  0  0  0  0
   -2.0466    2.2992   -1.6402 H   0  0  0  0  0  0  0  0  0  0  0  0
   -3.3792    2.5642   -2.5460 H   0  0  0  0  0  0  0  0  0  0  0  0
   -1.8853    3.1712   -3.0925 H   0  0  0  0  0  0  0  0  0  0  0  0
   -2.1891    1.0246   -3.2759 C   0  0  0  0  0  0  0  0  0  0  0  0
   -2.4546    1.1215   -4.2285 H   0  0  0  0  0  0  0  0  0  0  0  0
   -1.2304    0.7749   -3.2037 H   0  0  0  0  0  0  0  0  0  0  0  0
   -3.0297   -0.0882   -2.6466 C   0  0  0  0  0  0  0  0  0  0  0  0
   -2.6652   -0.2857   -1.7320 H   0  0  0  0  0  0  0  0  0  0  0  0
   -3.9745    0.2382   -2.5542 H   0  0  0  0  0  0  0  0  0  0  0  0
   -3.0169   -0.9978   -3.2472 H   0  0  0  0  0  0  0  0  0  0  0  0
  1  5  1  0
  5  6  1  0
  5  7  2  0
  1  2  1  0
  1  3  1  0
  1  4  1  0
  8 12  1  0
 12 15  1  0
  8  9  1  0
  8 10  1  0
  8 11  1  0
 12 13  1  0
 12 14  1  0
 15 16  1  0
 15 17  1  0
 15 18  1  0
M  CHG  1   6  -1
M  END
>  <PDB_ID>  (430) 
pdb2bol

>  <RESIDUE_NAME>  (430) 
GLU   LYS

>  <FRAG_NAME>  (430) 
ACET   PRPA

>  <FRAG_ATOM_NUM>  (430) 
fragi: 7  fragj: 11

>  <atom.prop.CHAIN_ID>  (430) 
A A A A A A A Z Z Z Z Z Z Z Z Z Z Z

>  <atom.prop.IS_HEAVY_ATOM>  (430) 
1 0 0 0 1 1 1 1 0 0 0 1 0 0 1 0 0 0

>  <DIFUSE_FUNC_ATOM>  (430) 
atom 6   atom 7   

>  <FINAL_SINGLE_POINT_ENERGY>  (430) 
0

>  <NONCOV_INTER_ENERGY_QM>  (430) 
0

>  <FF_Energy>  (430) 
3.41

>  <QM_Energy>  (430) 
-3.37

>  <Index>  (430) 
30428

$$$$
ACET-pdb1b78-A-ASP-30:PRPA-pdb1b78-A-LYS-186
     RDKit          3D

 18 16  0  0  0  0  0  0  0  0999 V2000
    0.0158    1.5382   -0.0114 C   0  0  0  0  0  0  0  0  0  0  0  0
    0.9514    1.8404    0.0944 H   0  0  0  0  0  0  0  0  0  0  0  0
   -0.5510    1.8609    0.7315 H   0  0  0  0  0  0  0  0  0  0  0  0
   -0.3729    1.9494   -0.9431 H   0  0  0  0  0  0  0  0  0  0  0  0
    0.0000    0.0000    0.0000 C   0  0  0  0  0  0  0  0  0  0  0  0
   -1.0974   -0.6102    0.0000 O   0  0  0  0  0  1  0  0  0  0  0  0
    1.0974   -0.6024    0.0000 O   0  0  0  0  0  0  0  0  0  0  0  0
    4.9025   -3.8540   -0.5207 C   0  0  0  0  0  0  0  0  0  0  0  0
    4.1605   -4.0332   -1.1572 H   0  0  0  0  0  0  0  0  0  0  0  0
    4.8594   -4.4827    0.2482 H   0  0  0  0  0  0  0  0  0  0  0  0
    5.8471   -4.0124   -1.0411 H   0  0  0  0  0  0  0  0  0  0  0  0
    4.7584   -2.4444    0.0014 C   0  0  0  0  0  0  0  0  0  0  0  0
    5.3063   -2.3581    0.8430 H   0  0  0  0  0  0  0  0  0  0  0  0
    5.1333   -1.8088   -0.6850 H   0  0  0  0  0  0  0  0  0  0  0  0
    3.3527   -2.1068    0.2826 C   0  0  0  0  0  0  0  0  0  0  0  0
    3.0688   -1.3406   -0.2766 H   0  0  0  0  0  0  0  0  0  0  0  0
    2.7746   -2.8952    0.1275 H   0  0  0  0  0  0  0  0  0  0  0  0
    3.2656   -1.8181    1.3301 H   0  0  0  0  0  0  0  0  0  0  0  0
  1  5  1  0
  5  6  1  0
  5  7  2  0
  1  2  1  0
  1  3  1  0
  1  4  1  0
  8 12  1  0
 12 15  1  0
  8  9  1  0
  8 10  1  0
  8 11  1  0
 12 13  1  0
 12 14  1  0
 15 16  1  0
 15 17  1  0
 15 18  1  0
M  CHG  1   6  -1
M  END
>  <PDB_ID>  (431) 
pdb1b78

>  <RESIDUE_NAME>  (431) 
ASP   LYS

>  <FRAG_NAME>  (431) 
ACET   PRPA

>  <FRAG_ATOM_NUM>  (431) 
fragi: 7  fragj: 11

>  <atom.prop.CHAIN_ID>  (431) 
A A A A A A A Z Z Z Z Z Z Z Z Z Z Z

>  <atom.prop.IS_HEAVY_ATOM>  (431) 
1 0 0 0 1 1 1 1 0 0 0 1 0 0 1 0 0 0

>  <DIFUSE_FUNC_ATOM>  (431) 
atom 6   atom 7   

>  <FINAL_SINGLE_POINT_ENERGY>  (431) 
0

>  <NONCOV_INTER_ENERGY_QM>  (431) 
0

>  <FF_Energy>  (431) 
6.45

>  <QM_Energy>  (431) 
0.1

>  <Index>  (431) 
30675

$$$$
ACET-pdb1b78-A-ASP-30:PRPA-pdb1b78-A-LYS-186
     RDKit          3D

 18 16  0  0  0  0  0  0  0  0999 V2000
    0.0158    1.5382   -0.0114 C   0  0  0  0  0  0  0  0  0  0  0  0
    0.9514    1.8404    0.0944 H   0  0  0  0  0  0  0  0  0  0  0  0
   -0.5510    1.8609    0.7315 H   0  0  0  0  0  0  0  0  0  0  0  0
   -0.3729    1.9494   -0.9431 H   0  0  0  0  0  0  0  0  0  0  0  0
    0.0000    0.0000    0.0000 C   0  0  0  0  0  0  0  0  0  0  0  0
   -1.0974   -0.6102    0.0000 O   0  0  0  0  0  1  0  0  0  0  0  0
    1.0974   -0.6024    0.0000 O   0  0  0  0  0  0  0  0  0  0  0  0
    4.7584   -2.4444    0.0014 C   0  0  0  0  0  0  0  0  0  0  0  0
    5.3063   -2.3581    0.8430 H   0  0  0  0  0  0  0  0  0  0  0  0
    5.1333   -1.8088   -0.6850 H   0  0  0  0  0  0  0  0  0  0  0  0
    4.8625   -3.4619   -0.3755 H   0  0  0  0  0  0  0  0  0  0  0  0
    3.3527   -2.1068    0.2826 C   0  0  0  0  0  0  0  0  0  0  0  0
    3.0688   -1.3406   -0.2766 H   0  0  0  0  0  0  0  0  0  0  0  0
    2.7746   -2.8952    0.1275 H   0  0  0  0  0  0  0  0  0  0  0  0
    3.2324   -1.7080    1.7300 C   0  0  0  0  0  0  0  0  0  0  0  0
    3.2614   -2.5365    2.3027 H   0  0  0  0  0  0  0  0  0  0  0  0
    4.0187   -1.1281    1.9777 H   0  0  0  0  0  0  0  0  0  0  0  0
    2.3091   -1.1650    1.9322 H   0  0  0  0  0  0  0  0  0  0  0  0
  1  5  1  0
  5  6  1  0
  5  7  2  0
  1  2  1  0
  1  3  1  0
  1  4  1  0
  8 12  1  0
 12 15  1  0
  8  9  1  0
  8 10  1  0
  8 11  1  0
 12 13  1  0
 12 14  1  0
 15 16  1  0
 15 17  1  0
 15 18  1  0
M  CHG  1   6  -1
M  END
>  <PDB_ID>  (432) 
pdb1b78

>  <RESIDUE_NAME>  (432) 
ASP   LYS

>  <FRAG_NAME>  (432) 
ACET   PRPA

>  <FRAG_ATOM_NUM>  (432) 
fragi: 7  fragj: 11

>  <atom.prop.CHAIN_ID>  (432) 
A A A A A A A Z Z Z Z Z Z Z Z Z Z Z

>  <atom.prop.IS_HEAVY_ATOM>  (432) 
1 0 0 0 1 1 1 1 0 0 0 1 0 0 1 0 0 0

>  <DIFUSE_FUNC_ATOM>  (432) 
atom 6   atom 7   

>  <FINAL_SINGLE_POINT_ENERGY>  (432) 
0

>  <NONCOV_INTER_ENERGY_QM>  (432) 
0

>  <FF_Energy>  (432) 
8.26

>  <QM_Energy>  (432) 
-1.31

>  <Index>  (432) 
30680

$$$$
ACET-pdb2b3z-C-GLU-85:PRPA-pdb2b3z-C-PRO-81
     RDKit          3D

 18 16  0  0  0  0  0  0  0  0999 V2000
    0.0135    1.5125    0.0117 C   0  0  0  0  0  0  0  0  0  0  0  0
   -0.6572    1.8213   -0.6392 H   0  0  0  0  0  0  0  0  0  0  0  0
    0.9229    1.8025   -0.2284 H   0  0  0  0  0  0  0  0  0  0  0  0
   -0.2364    1.9290    0.9874 H   0  0  0  0  0  0  0  0  0  0  0  0
    0.0000    0.0000    0.0000 C   0  0  0  0  0  0  0  0  0  0  0  0
   -1.1006   -0.5964   -0.0000 O   0  0  0  0  0  1  0  0  0  0  0  0
    1.1006   -0.5915    0.0000 O   0  0  0  0  0  0  0  0  0  0  0  0
   -4.0897   -0.6867    2.0604 C   0  0  0  0  0  0  0  0  0  0  0  0
   -3.4397   -1.4314    2.1408 H   0  0  0  0  0  0  0  0  0  0  0  0
   -5.1159   -1.0542    2.0701 H   0  0  0  0  0  0  0  0  0  0  0  0
   -3.9795    0.0170    2.8855 H   0  0  0  0  0  0  0  0  0  0  0  0
   -3.9791   -0.0026    0.6978 C   0  0  0  0  0  0  0  0  0  0  0  0
   -4.2108    0.9662    0.7663 H   0  0  0  0  0  0  0  0  0  0  0  0
   -3.0608   -0.1047    0.3216 H   0  0  0  0  0  0  0  0  0  0  0  0
   -4.9852   -0.7333   -0.1421 C   0  0  0  0  0  0  0  0  0  0  0  0
   -5.2309   -0.1953   -0.9392 H   0  0  0  0  0  0  0  0  0  0  0  0
   -4.6337   -1.6214   -0.4121 H   0  0  0  0  0  0  0  0  0  0  0  0
   -5.8280   -0.8335    0.5418 H   0  0  0  0  0  0  0  0  0  0  0  0
  1  5  1  0
  5  6  1  0
  5  7  2  0
  1  2  1  0
  1  3  1  0
  1  4  1  0
  8 12  1  0
 12 15  1  0
  8  9  1  0
  8 10  1  0
  8 11  1  0
 12 13  1  0
 12 14  1  0
 15 16  1  0
 15 17  1  0
 15 18  1  0
M  CHG  1   6  -1
M  END
>  <PDB_ID>  (433) 
pdb2b3z

>  <RESIDUE_NAME>  (433) 
GLU   PRO

>  <FRAG_NAME>  (433) 
ACET   PRPA

>  <FRAG_ATOM_NUM>  (433) 
fragi: 7  fragj: 11

>  <atom.prop.CHAIN_ID>  (433) 
A A A A A A A Z Z Z Z Z Z Z Z Z Z Z

>  <atom.prop.IS_HEAVY_ATOM>  (433) 
1 0 0 0 1 1 1 1 0 0 0 1 0 0 1 0 0 0

>  <DIFUSE_FUNC_ATOM>  (433) 
atom 6   atom 7   

>  <FINAL_SINGLE_POINT_ENERGY>  (433) 
0

>  <NONCOV_INTER_ENERGY_QM>  (433) 
0

>  <FF_Energy>  (433) 
7.66

>  <QM_Energy>  (433) 
-3.62

>  <Index>  (433) 
30692

$$$$
ACET-pdb2b3z-C-GLU-85:PRPA-pdb2b3z-C-PRO-81
     RDKit          3D

 18 16  0  0  0  0  0  0  0  0999 V2000
    0.0135    1.5125    0.0117 C   0  0  0  0  0  0  0  0  0  0  0  0
   -0.6572    1.8213   -0.6392 H   0  0  0  0  0  0  0  0  0  0  0  0
    0.9229    1.8025   -0.2284 H   0  0  0  0  0  0  0  0  0  0  0  0
   -0.2364    1.9290    0.9874 H   0  0  0  0  0  0  0  0  0  0  0  0
    0.0000    0.0000    0.0000 C   0  0  0  0  0  0  0  0  0  0  0  0
   -1.1006   -0.5964   -0.0000 O   0  0  0  0  0  1  0  0  0  0  0  0
    1.1006   -0.5915    0.0000 O   0  0  0  0  0  0  0  0  0  0  0  0
   -3.9791   -0.0026    0.6978 C   0  0  0  0  0  0  0  0  0  0  0  0
   -4.2108    0.9662    0.7663 H   0  0  0  0  0  0  0  0  0  0  0  0
   -3.0608   -0.1047    0.3216 H   0  0  0  0  0  0  0  0  0  0  0  0
   -4.0581   -0.4904    1.6694 H   0  0  0  0  0  0  0  0  0  0  0  0
   -4.9852   -0.7333   -0.1421 C   0  0  0  0  0  0  0  0  0  0  0  0
   -5.2309   -0.1953   -0.9392 H   0  0  0  0  0  0  0  0  0  0  0  0
   -4.6337   -1.6214   -0.4121 H   0  0  0  0  0  0  0  0  0  0  0  0
   -6.1472   -0.8715    0.8007 C   0  0  0  0  0  0  0  0  0  0  0  0
   -6.6613   -0.0246    0.8754 H   0  0  0  0  0  0  0  0  0  0  0  0
   -6.7490   -1.6183    0.5344 H   0  0  0  0  0  0  0  0  0  0  0  0
   -5.6463   -1.1001    1.7414 H   0  0  0  0  0  0  0  0  0  0  0  0
  1  5  1  0
  5  6  1  0
  5  7  2  0
  1  2  1  0
  1  3  1  0
  1  4  1  0
  8 12  1  0
 12 15  1  0
  8  9  1  0
  8 10  1  0
  8 11  1  0
 12 13  1  0
 12 14  1  0
 15 16  1  0
 15 17  1  0
 15 18  1  0
M  CHG  1   6  -1
M  END
>  <PDB_ID>  (434) 
pdb2b3z

>  <RESIDUE_NAME>  (434) 
GLU   PRO

>  <FRAG_NAME>  (434) 
ACET   PRPA

>  <FRAG_ATOM_NUM>  (434) 
fragi: 7  fragj: 11

>  <atom.prop.CHAIN_ID>  (434) 
A A A A A A A Z Z Z Z Z Z Z Z Z Z Z

>  <atom.prop.IS_HEAVY_ATOM>  (434) 
1 0 0 0 1 1 1 1 0 0 0 1 0 0 1 0 0 0

>  <DIFUSE_FUNC_ATOM>  (434) 
atom 6   atom 7   

>  <FINAL_SINGLE_POINT_ENERGY>  (434) 
0

>  <NONCOV_INTER_ENERGY_QM>  (434) 
0

>  <FF_Energy>  (434) 
7.36

>  <QM_Energy>  (434) 
-1.95

>  <Index>  (434) 
30699

$$$$
ACET-pdb2bsy-A-ASP-135:PRPA-pdb2bsy-A-ARG-171
     RDKit          3D

 18 16  0  0  0  0  0  0  0  0999 V2000
   -0.0498    1.5110   -0.0267 C   0  0  0  0  0  0  0  0  0  0  0  0
    0.7496    1.8461   -0.5053 H   0  0  0  0  0  0  0  0  0  0  0  0
   -0.0711    1.8449    0.9048 H   0  0  0  0  0  0  0  0  0  0  0  0
   -0.9386    1.8720   -0.5441 H   0  0  0  0  0  0  0  0  0  0  0  0
    0.0000    0.0000    0.0000 C   0  0  0  0  0  0  0  0  0  0  0  0
   -1.0767   -0.6174   -0.0000 O   0  0  0  0  0  1  0  0  0  0  0  0
    1.0767   -0.6125    0.0000 O   0  0  0  0  0  0  0  0  0  0  0  0
   -3.3108   -3.4517    4.2027 C   0  0  0  0  0  0  0  0  0  0  0  0
   -3.0415   -2.9665    5.0194 H   0  0  0  0  0  0  0  0  0  0  0  0
   -2.6593   -4.1547    3.9676 H   0  0  0  0  0  0  0  0  0  0  0  0
   -4.2857   -3.9108    4.3668 H   0  0  0  0  0  0  0  0  0  0  0  0
   -3.2860   -2.3947    3.0171 C   0  0  0  0  0  0  0  0  0  0  0  0
   -4.0363   -2.6138    2.3830 H   0  0  0  0  0  0  0  0  0  0  0  0
   -3.4538   -1.4807    3.4052 H   0  0  0  0  0  0  0  0  0  0  0  0
   -1.9606   -2.3105    2.1696 C   0  0  0  0  0  0  0  0  0  0  0  0
   -1.9479   -1.4256    1.7482 H   0  0  0  0  0  0  0  0  0  0  0  0
   -1.2165   -2.4467    2.7932 H   0  0  0  0  0  0  0  0  0  0  0  0
   -1.9680   -3.0926    1.4104 H   0  0  0  0  0  0  0  0  0  0  0  0
  1  5  1  0
  5  6  1  0
  5  7  2  0
  1  2  1  0
  1  3  1  0
  1  4  1  0
  8 12  1  0
 12 15  1  0
  8  9  1  0
  8 10  1  0
  8 11  1  0
 12 13  1  0
 12 14  1  0
 15 16  1  0
 15 17  1  0
 15 18  1  0
M  CHG  1   6  -1
M  END
>  <PDB_ID>  (435) 
pdb2bsy

>  <RESIDUE_NAME>  (435) 
ASP   ARG

>  <FRAG_NAME>  (435) 
ACET   PRPA

>  <FRAG_ATOM_NUM>  (435) 
fragi: 7  fragj: 11

>  <atom.prop.CHAIN_ID>  (435) 
A A A A A A A Z Z Z Z Z Z Z Z Z Z Z

>  <atom.prop.IS_HEAVY_ATOM>  (435) 
1 0 0 0 1 1 1 1 0 0 0 1 0 0 1 0 0 0

>  <DIFUSE_FUNC_ATOM>  (435) 
atom 6   atom 7   

>  <FINAL_SINGLE_POINT_ENERGY>  (435) 
0

>  <NONCOV_INTER_ENERGY_QM>  (435) 
0

>  <FF_Energy>  (435) 
10.91

>  <QM_Energy>  (435) 
-1.37

>  <Index>  (435) 
30734

$$$$
ACET-pdb2b3z-C-ASP-66:PRPA-pdb2b3z-C-ARG-94
     RDKit          3D

 18 16  0  0  0  0  0  0  0  0999 V2000
   -0.0407    1.5011   -0.0126 C   0  0  0  0  0  0  0  0  0  0  0  0
   -0.6910    1.8151    0.6776 H   0  0  0  0  0  0  0  0  0  0  0  0
   -0.3315    1.8116   -0.9155 H   0  0  0  0  0  0  0  0  0  0  0  0
    0.9230    1.9620    0.2040 H   0  0  0  0  0  0  0  0  0  0  0  0
    0.0000    0.0000    0.0000 C   0  0  0  0  0  0  0  0  0  0  0  0
   -1.1095   -0.5807    0.0000 O   0  0  0  0  0  1  0  0  0  0  0  0
    1.1095   -0.5849   -0.0000 O   0  0  0  0  0  0  0  0  0  0  0  0
    3.6025    0.3163   -3.5836 C   0  0  0  0  0  0  0  0  0  0  0  0
    4.2858    0.2354   -4.3357 H   0  0  0  0  0  0  0  0  0  0  0  0
    4.1096    0.1427   -2.6344 H   0  0  0  0  0  0  0  0  0  0  0  0
    3.1262    1.2943   -3.6530 H   0  0  0  0  0  0  0  0  0  0  0  0
    2.5884   -0.7980   -3.8712 C   0  0  0  0  0  0  0  0  0  0  0  0
    2.2492   -0.6708   -4.8052 H   0  0  0  0  0  0  0  0  0  0  0  0
    3.0714   -1.6740   -3.8144 H   0  0  0  0  0  0  0  0  0  0  0  0
    1.4028   -0.8483   -2.9392 C   0  0  0  0  0  0  0  0  0  0  0  0
    1.7142   -0.8969   -1.9947 H   0  0  0  0  0  0  0  0  0  0  0  0
    0.8325   -0.0439   -3.0718 H   0  0  0  0  0  0  0  0  0  0  0  0
    0.7886   -1.7275   -3.1339 H   0  0  0  0  0  0  0  0  0  0  0  0
  1  5  1  0
  5  6  1  0
  5  7  2  0
  1  2  1  0
  1  3  1  0
  1  4  1  0
  8 12  1  0
 12 15  1  0
  8  9  1  0
  8 10  1  0
  8 11  1  0
 12 13  1  0
 12 14  1  0
 15 16  1  0
 15 17  1  0
 15 18  1  0
M  CHG  1   6  -1
M  END
>  <PDB_ID>  (436) 
pdb2b3z

>  <RESIDUE_NAME>  (436) 
ASP   ARG

>  <FRAG_NAME>  (436) 
ACET   PRPA

>  <FRAG_ATOM_NUM>  (436) 
fragi: 7  fragj: 11

>  <atom.prop.CHAIN_ID>  (436) 
A A A A A A A Z Z Z Z Z Z Z Z Z Z Z

>  <atom.prop.IS_HEAVY_ATOM>  (436) 
1 0 0 0 1 1 1 1 0 0 0 1 0 0 1 0 0 0

>  <DIFUSE_FUNC_ATOM>  (436) 
atom 6   atom 7   

>  <FINAL_SINGLE_POINT_ENERGY>  (436) 
0

>  <NONCOV_INTER_ENERGY_QM>  (436) 
0

>  <FF_Energy>  (436) 
5.47

>  <QM_Energy>  (436) 
-1.38

>  <Index>  (436) 
30811

$$$$
ACET-pdb2b3z-C-ASP-66:PRPA-pdb2b3z-C-ARG-94
     RDKit          3D

 18 16  0  0  0  0  0  0  0  0999 V2000
   -0.0407    1.5011   -0.0126 C   0  0  0  0  0  0  0  0  0  0  0  0
   -0.6910    1.8151    0.6776 H   0  0  0  0  0  0  0  0  0  0  0  0
   -0.3315    1.8116   -0.9155 H   0  0  0  0  0  0  0  0  0  0  0  0
    0.9230    1.9620    0.2040 H   0  0  0  0  0  0  0  0  0  0  0  0
    0.0000    0.0000    0.0000 C   0  0  0  0  0  0  0  0  0  0  0  0
   -1.1095   -0.5807    0.0000 O   0  0  0  0  0  1  0  0  0  0  0  0
    1.1095   -0.5849   -0.0000 O   0  0  0  0  0  0  0  0  0  0  0  0
    2.5884   -0.7980   -3.8712 C   0  0  0  0  0  0  0  0  0  0  0  0
    2.2492   -0.6708   -4.8052 H   0  0  0  0  0  0  0  0  0  0  0  0
    3.0714   -1.6740   -3.8144 H   0  0  0  0  0  0  0  0  0  0  0  0
    3.3090   -0.0061   -3.6668 H   0  0  0  0  0  0  0  0  0  0  0  0
    1.4028   -0.8483   -2.9392 C   0  0  0  0  0  0  0  0  0  0  0  0
    1.7142   -0.8969   -1.9947 H   0  0  0  0  0  0  0  0  0  0  0  0
    0.8325   -0.0439   -3.0718 H   0  0  0  0  0  0  0  0  0  0  0  0
    0.5414   -2.0813   -3.2122 C   0  0  0  0  0  0  0  0  0  0  0  0
    0.2745   -2.0632   -4.1652 H   0  0  0  0  0  0  0  0  0  0  0  0
    1.0844   -2.8842   -3.0087 H   0  0  0  0  0  0  0  0  0  0  0  0
   -0.3493   -2.0738   -2.5840 H   0  0  0  0  0  0  0  0  0  0  0  0
  1  5  1  0
  5  6  1  0
  5  7  2  0
  1  2  1  0
  1  3  1  0
  1  4  1  0
  8 12  1  0
 12 15  1  0
  8  9  1  0
  8 10  1  0
  8 11  1  0
 12 13  1  0
 12 14  1  0
 15 16  1  0
 15 17  1  0
 15 18  1  0
M  CHG  1   6  -1
M  END
>  <PDB_ID>  (437) 
pdb2b3z

>  <RESIDUE_NAME>  (437) 
ASP   ARG

>  <FRAG_NAME>  (437) 
ACET   PRPA

>  <FRAG_ATOM_NUM>  (437) 
fragi: 7  fragj: 11

>  <atom.prop.CHAIN_ID>  (437) 
A A A A A A A Z Z Z Z Z Z Z Z Z Z Z

>  <atom.prop.IS_HEAVY_ATOM>  (437) 
1 0 0 0 1 1 1 1 0 0 0 1 0 0 1 0 0 0

>  <DIFUSE_FUNC_ATOM>  (437) 
atom 6   atom 7   

>  <FINAL_SINGLE_POINT_ENERGY>  (437) 
0

>  <NONCOV_INTER_ENERGY_QM>  (437) 
0

>  <FF_Energy>  (437) 
5.05

>  <QM_Energy>  (437) 
-2.91

>  <Index>  (437) 
30815

$$$$
ACET-pdb2b34-F-GLU-124:PRPA-pdb2b34-E-ARG-9
     RDKit          3D

 18 16  0  0  0  0  0  0  0  0999 V2000
    0.0139    1.5143   -0.0089 C   0  0  0  0  0  0  0  0  0  0  0  0
   -0.0550    1.8041   -0.9466 H   0  0  0  0  0  0  0  0  0  0  0  0
    0.8567    1.8034    0.4084 H   0  0  0  0  0  0  0  0  0  0  0  0
   -0.8176    1.9440    0.5498 H   0  0  0  0  0  0  0  0  0  0  0  0
    0.0000    0.0000    0.0000 C   0  0  0  0  0  0  0  0  0  0  0  0
   -1.0951   -0.6030   -0.0000 O   0  0  0  0  0  1  0  0  0  0  0  0
    1.0951   -0.5924   -0.0000 O   0  0  0  0  0  0  0  0  0  0  0  0
    3.7178   -3.9206   -1.0051 C   0  0  0  0  0  0  0  0  0  0  0  0
    3.1046   -4.2677   -1.7109 H   0  0  0  0  0  0  0  0  0  0  0  0
    3.6346   -4.4768   -0.1812 H   0  0  0  0  0  0  0  0  0  0  0  0
    4.7409   -4.0069   -1.3712 H   0  0  0  0  0  0  0  0  0  0  0  0
    3.2868   -2.5024   -0.6623 C   0  0  0  0  0  0  0  0  0  0  0  0
    3.4446   -1.9058   -1.4495 H   0  0  0  0  0  0  0  0  0  0  0  0
    2.3135   -2.4961   -0.4303 H   0  0  0  0  0  0  0  0  0  0  0  0
    4.0550   -1.9268    0.5262 C   0  0  0  0  0  0  0  0  0  0  0  0
    5.0153   -1.8523    0.2633 H   0  0  0  0  0  0  0  0  0  0  0  0
    3.6860   -1.0189    0.7183 H   0  0  0  0  0  0  0  0  0  0  0  0
    3.9726   -2.5458    1.4195 H   0  0  0  0  0  0  0  0  0  0  0  0
  1  5  1  0
  5  6  1  0
  5  7  2  0
  1  2  1  0
  1  3  1  0
  1  4  1  0
  8 12  1  0
 12 15  1  0
  8  9  1  0
  8 10  1  0
  8 11  1  0
 12 13  1  0
 12 14  1  0
 15 16  1  0
 15 17  1  0
 15 18  1  0
M  CHG  1   6  -1
M  END
>  <PDB_ID>  (438) 
pdb2b34

>  <RESIDUE_NAME>  (438) 
GLU   ARG

>  <FRAG_NAME>  (438) 
ACET   PRPA

>  <FRAG_ATOM_NUM>  (438) 
fragi: 7  fragj: 11

>  <atom.prop.CHAIN_ID>  (438) 
A A A A A A A Z Z Z Z Z Z Z Z Z Z Z

>  <atom.prop.IS_HEAVY_ATOM>  (438) 
1 0 0 0 1 1 1 1 0 0 0 1 0 0 1 0 0 0

>  <DIFUSE_FUNC_ATOM>  (438) 
atom 6   atom 7   

>  <FINAL_SINGLE_POINT_ENERGY>  (438) 
0

>  <NONCOV_INTER_ENERGY_QM>  (438) 
0

>  <FF_Energy>  (438) 
4.04

>  <QM_Energy>  (438) 
-3.94

>  <Index>  (438) 
30859

$$$$
ACET-pdb2bht-A-GLU-120:PRPA-pdb2bht-A-PRO-213
     RDKit          3D

 18 16  0  0  0  0  0  0  0  0999 V2000
    0.0073    1.5171    0.0030 C   0  0  0  0  0  0  0  0  0  0  0  0
    0.3914    1.8143   -0.8502 H   0  0  0  0  0  0  0  0  0  0  0  0
    0.5377    1.8100    0.7753 H   0  0  0  0  0  0  0  0  0  0  0  0
   -0.9927    1.9414    0.0933 H   0  0  0  0  0  0  0  0  0  0  0  0
    0.0000    0.0000    0.0000 C   0  0  0  0  0  0  0  0  0  0  0  0
   -1.0984   -0.5962    0.0000 O   0  0  0  0  0  1  0  0  0  0  0  0
    1.0984   -0.5956   -0.0000 O   0  0  0  0  0  0  0  0  0  0  0  0
    2.9497    0.4115   -3.8187 C   0  0  0  0  0  0  0  0  0  0  0  0
    2.7111    1.3621   -3.5982 H   0  0  0  0  0  0  0  0  0  0  0  0
    2.6399    0.2095   -4.7518 H   0  0  0  0  0  0  0  0  0  0  0  0
    4.0242    0.2530   -3.7264 H   0  0  0  0  0  0  0  0  0  0  0  0
    2.3401   -0.5319   -2.8371 C   0  0  0  0  0  0  0  0  0  0  0  0
    1.4538   -0.1780   -2.5103 H   0  0  0  0  0  0  0  0  0  0  0  0
    2.1765   -1.4310   -3.2660 H   0  0  0  0  0  0  0  0  0  0  0  0
    3.3185   -0.6522   -1.7015 C   0  0  0  0  0  0  0  0  0  0  0  0
    3.1151    0.0015   -0.9712 H   0  0  0  0  0  0  0  0  0  0  0  0
    3.3271   -1.5796   -1.3217 H   0  0  0  0  0  0  0  0  0  0  0  0
    4.2763   -0.4200   -2.1670 H   0  0  0  0  0  0  0  0  0  0  0  0
  1  5  1  0
  5  6  1  0
  5  7  2  0
  1  2  1  0
  1  3  1  0
  1  4  1  0
  8 12  1  0
 12 15  1  0
  8  9  1  0
  8 10  1  0
  8 11  1  0
 12 13  1  0
 12 14  1  0
 15 16  1  0
 15 17  1  0
 15 18  1  0
M  CHG  1   6  -1
M  END
>  <PDB_ID>  (439) 
pdb2bht

>  <RESIDUE_NAME>  (439) 
GLU   PRO

>  <FRAG_NAME>  (439) 
ACET   PRPA

>  <FRAG_ATOM_NUM>  (439) 
fragi: 7  fragj: 11

>  <atom.prop.CHAIN_ID>  (439) 
A A A A A A A Z Z Z Z Z Z Z Z Z Z Z

>  <atom.prop.IS_HEAVY_ATOM>  (439) 
1 0 0 0 1 1 1 1 0 0 0 1 0 0 1 0 0 0

>  <DIFUSE_FUNC_ATOM>  (439) 
atom 6   atom 7   

>  <FINAL_SINGLE_POINT_ENERGY>  (439) 
0

>  <NONCOV_INTER_ENERGY_QM>  (439) 
0

>  <FF_Energy>  (439) 
2.96

>  <QM_Energy>  (439) 
-2.7

>  <Index>  (439) 
30916

$$$$
ACET-pdb1aqd-H-GLU-36:PRPA-pdb1aqd-H-ARG-29
     RDKit          3D

 18 16  0  0  0  0  0  0  0  0999 V2000
    0.0042    1.5568   -0.0002 C   0  0  0  0  0  0  0  0  0  0  0  0
    0.3146    1.8472   -0.8849 H   0  0  0  0  0  0  0  0  0  0  0  0
    0.6032    1.8456    0.7214 H   0  0  0  0  0  0  0  0  0  0  0  0
   -0.9699    2.0139    0.1739 H   0  0  0  0  0  0  0  0  0  0  0  0
    0.0000    0.0000    0.0000 C   0  0  0  0  0  0  0  0  0  0  0  0
   -1.0822   -0.6326    0.0000 O   0  0  0  0  0  1  0  0  0  0  0  0
    1.0822   -0.6226   -0.0000 O   0  0  0  0  0  0  0  0  0  0  0  0
    2.8884    0.2313    2.8550 C   0  0  0  0  0  0  0  0  0  0  0  0
    2.9089    0.3384    3.8530 H   0  0  0  0  0  0  0  0  0  0  0  0
    2.1133    0.7548    2.4896 H   0  0  0  0  0  0  0  0  0  0  0  0
    3.8002    0.6784    2.4592 H   0  0  0  0  0  0  0  0  0  0  0  0
    2.6947   -1.2062    2.5294 C   0  0  0  0  0  0  0  0  0  0  0  0
    2.4487   -1.2955    1.5609 H   0  0  0  0  0  0  0  0  0  0  0  0
    3.5518   -1.7013    2.6940 H   0  0  0  0  0  0  0  0  0  0  0  0
    1.6429   -1.7760    3.3513 C   0  0  0  0  0  0  0  0  0  0  0  0
    1.9619   -1.8840    4.2805 H   0  0  0  0  0  0  0  0  0  0  0  0
    0.8374   -1.2051    3.3091 H   0  0  0  0  0  0  0  0  0  0  0  0
    1.4021   -2.7579    2.9439 H   0  0  0  0  0  0  0  0  0  0  0  0
  1  5  1  0
  5  6  1  0
  5  7  2  0
  1  2  1  0
  1  3  1  0
  1  4  1  0
  8 12  1  0
 12 15  1  0
  8  9  1  0
  8 10  1  0
  8 11  1  0
 12 13  1  0
 12 14  1  0
 15 16  1  0
 15 17  1  0
 15 18  1  0
M  CHG  1   6  -1
M  END
>  <PDB_ID>  (440) 
pdb1aqd

>  <RESIDUE_NAME>  (440) 
GLU   ARG

>  <FRAG_NAME>  (440) 
ACET   PRPA

>  <FRAG_ATOM_NUM>  (440) 
fragi: 7  fragj: 11

>  <atom.prop.CHAIN_ID>  (440) 
A A A A A A A Z Z Z Z Z Z Z Z Z Z Z

>  <atom.prop.IS_HEAVY_ATOM>  (440) 
1 0 0 0 1 1 1 1 0 0 0 1 0 0 1 0 0 0

>  <DIFUSE_FUNC_ATOM>  (440) 
atom 6   atom 7   

>  <FINAL_SINGLE_POINT_ENERGY>  (440) 
0

>  <NONCOV_INTER_ENERGY_QM>  (440) 
0

>  <FF_Energy>  (440) 
2.37

>  <QM_Energy>  (440) 
-4.41

>  <Index>  (440) 
30926

$$$$
ACET-pdb2b3z-C-GLU-72:PRPA-pdb2b3z-C-ILE-111
     RDKit          3D

 18 16  0  0  0  0  0  0  0  0999 V2000
    0.0076    1.5201   -0.0057 C   0  0  0  0  0  0  0  0  0  0  0  0
   -0.2602    1.8104   -0.9047 H   0  0  0  0  0  0  0  0  0  0  0  0
    0.9158    1.8084    0.2277 H   0  0  0  0  0  0  0  0  0  0  0  0
   -0.6909    1.9381    0.7192 H   0  0  0  0  0  0  0  0  0  0  0  0
    0.0000    0.0000    0.0000 C   0  0  0  0  0  0  0  0  0  0  0  0
   -1.0999   -0.6024    0.0000 O   0  0  0  0  0  1  0  0  0  0  0  0
    1.0999   -0.5963    0.0000 O   0  0  0  0  0  0  0  0  0  0  0  0
    4.9178    0.1444    0.7693 C   0  0  0  0  0  0  0  0  0  0  0  0
    5.0717    1.1070    0.9770 H   0  0  0  0  0  0  0  0  0  0  0  0
    4.1825    0.1137   -0.0347 H   0  0  0  0  0  0  0  0  0  0  0  0
    5.8633   -0.2466    0.3935 H   0  0  0  0  0  0  0  0  0  0  0  0
    4.4651   -0.7425    1.9536 C   0  0  0  0  0  0  0  0  0  0  0  0
    4.3552   -1.6682    1.6145 H   0  0  0  0  0  0  0  0  0  0  0  0
    5.2195   -0.7370    2.7403 H   0  0  0  0  0  0  0  0  0  0  0  0
    3.1116   -0.2626    2.4794 C   0  0  0  0  0  0  0  0  0  0  0  0
    2.4545   -0.2937    1.7263 H   0  0  0  0  0  0  0  0  0  0  0  0
    2.8101   -0.9031    3.1870 H   0  0  0  0  0  0  0  0  0  0  0  0
    3.1327    0.7439    2.8974 H   0  0  0  0  0  0  0  0  0  0  0  0
  1  5  1  0
  5  6  1  0
  5  7  2  0
  1  2  1  0
  1  3  1  0
  1  4  1  0
  8 12  1  0
 12 15  1  0
  8  9  1  0
  8 10  1  0
  8 11  1  0
 12 13  1  0
 12 14  1  0
 15 16  1  0
 15 17  1  0
 15 18  1  0
M  CHG  1   6  -1
M  END
>  <PDB_ID>  (441) 
pdb2b3z

>  <RESIDUE_NAME>  (441) 
GLU   ILE

>  <FRAG_NAME>  (441) 
ACET   PRPA

>  <FRAG_ATOM_NUM>  (441) 
fragi: 7  fragj: 11

>  <atom.prop.CHAIN_ID>  (441) 
A A A A A A A Z Z Z Z Z Z Z Z Z Z Z

>  <atom.prop.IS_HEAVY_ATOM>  (441) 
1 0 0 0 1 1 1 1 0 0 0 1 0 0 1 0 0 0

>  <DIFUSE_FUNC_ATOM>  (441) 
atom 6   atom 7   

>  <FINAL_SINGLE_POINT_ENERGY>  (441) 
0

>  <NONCOV_INTER_ENERGY_QM>  (441) 
0

>  <FF_Energy>  (441) 
1.73

>  <QM_Energy>  (441) 
-4.19

>  <Index>  (441) 
30964

$$$$
ACET-pdb2bt2-A-GLU-93:PRPA-pdb2bt2-A-LYS-128
     RDKit          3D

 18 16  0  0  0  0  0  0  0  0999 V2000
    0.0753    1.5026    0.0332 C   0  0  0  0  0  0  0  0  0  0  0  0
    0.6943    1.7958   -0.6982 H   0  0  0  0  0  0  0  0  0  0  0  0
    0.4640    1.7704    0.9175 H   0  0  0  0  0  0  0  0  0  0  0  0
   -0.8540    2.0584   -0.0917 H   0  0  0  0  0  0  0  0  0  0  0  0
    0.0000    0.0000    0.0000 C   0  0  0  0  0  0  0  0  0  0  0  0
   -1.0976   -0.5792   -0.0000 O   0  0  0  0  0  1  0  0  0  0  0  0
    1.0976   -0.6231   -0.0000 O   0  0  0  0  0  0  0  0  0  0  0  0
   -5.1012   -2.5598    0.1908 C   0  0  0  0  0  0  0  0  0  0  0  0
   -4.4185   -2.8141    0.8557 H   0  0  0  0  0  0  0  0  0  0  0  0
   -5.6021   -3.3414   -0.1391 H   0  0  0  0  0  0  0  0  0  0  0  0
   -5.7973   -1.8553    0.6458 H   0  0  0  0  0  0  0  0  0  0  0  0
   -4.4164   -1.8698   -0.9889 C   0  0  0  0  0  0  0  0  0  0  0  0
   -4.8102   -2.2448   -1.8372 H   0  0  0  0  0  0  0  0  0  0  0  0
   -4.6361   -0.8880   -0.9444 H   0  0  0  0  0  0  0  0  0  0  0  0
   -2.9401   -2.0439   -1.0112 C   0  0  0  0  0  0  0  0  0  0  0  0
   -2.5286   -1.2589   -1.5338 H   0  0  0  0  0  0  0  0  0  0  0  0
   -2.5862   -1.9401   -0.0504 H   0  0  0  0  0  0  0  0  0  0  0  0
   -2.5861   -2.9858   -1.4303 H   0  0  0  0  0  0  0  0  0  0  0  0
  1  5  1  0
  5  6  1  0
  5  7  2  0
  1  2  1  0
  1  3  1  0
  1  4  1  0
  8 12  1  0
 12 15  1  0
  8  9  1  0
  8 10  1  0
  8 11  1  0
 12 13  1  0
 12 14  1  0
 15 16  1  0
 15 17  1  0
 15 18  1  0
M  CHG  1   6  -1
M  END
>  <PDB_ID>  (442) 
pdb2bt2

>  <RESIDUE_NAME>  (442) 
GLU   LYS

>  <FRAG_NAME>  (442) 
ACET   PRPA

>  <FRAG_ATOM_NUM>  (442) 
fragi: 7  fragj: 11

>  <atom.prop.CHAIN_ID>  (442) 
A A A A A A A Z Z Z Z Z Z Z Z Z Z Z

>  <atom.prop.IS_HEAVY_ATOM>  (442) 
1 0 0 0 1 1 1 1 0 0 0 1 0 0 1 0 0 0

>  <DIFUSE_FUNC_ATOM>  (442) 
atom 6   atom 7   

>  <FINAL_SINGLE_POINT_ENERGY>  (442) 
0

>  <NONCOV_INTER_ENERGY_QM>  (442) 
0

>  <FF_Energy>  (442) 
17.57

>  <QM_Energy>  (442) 
3.41

>  <Index>  (442) 
31053

$$$$
ACET-pdb2bva-A-GLU-396:PRPA-pdb2bva-A-VAL-379
     RDKit          3D

 18 16  0  0  0  0  0  0  0  0999 V2000
    0.0016    1.5209    0.0018 C   0  0  0  0  0  0  0  0  0  0  0  0
    0.6814    1.8143   -0.6357 H   0  0  0  0  0  0  0  0  0  0  0  0
    0.1784    1.8130    0.9173 H   0  0  0  0  0  0  0  0  0  0  0  0
   -0.9647    1.9164   -0.3113 H   0  0  0  0  0  0  0  0  0  0  0  0
    0.0000    0.0000    0.0000 C   0  0  0  0  0  0  0  0  0  0  0  0
   -1.1061   -0.5836   -0.0000 O   0  0  0  0  0  1  0  0  0  0  0  0
    1.1061   -0.5753    0.0000 O   0  0  0  0  0  0  0  0  0  0  0  0
   -3.4260   -1.7568   -1.6292 C   0  0  0  0  0  0  0  0  0  0  0  0
   -2.4900   -1.6418   -1.3066 H   0  0  0  0  0  0  0  0  0  0  0  0
   -3.6898   -2.8108   -1.5428 H   0  0  0  0  0  0  0  0  0  0  0  0
   -4.0816   -1.1810   -0.9759 H   0  0  0  0  0  0  0  0  0  0  0  0
   -3.4972   -1.2656   -3.0795 C   0  0  0  0  0  0  0  0  0  0  0  0
   -4.3133   -1.6624   -3.4971 H   0  0  0  0  0  0  0  0  0  0  0  0
   -3.6120   -0.1827   -3.1272 H   0  0  0  0  0  0  0  0  0  0  0  0
   -2.2389   -1.7082   -3.8218 C   0  0  0  0  0  0  0  0  0  0  0  0
   -2.3566   -1.5340   -4.7986 H   0  0  0  0  0  0  0  0  0  0  0  0
   -1.4559   -1.1913   -3.4778 H   0  0  0  0  0  0  0  0  0  0  0  0
   -2.0939   -2.6848   -3.6681 H   0  0  0  0  0  0  0  0  0  0  0  0
  1  5  1  0
  5  6  1  0
  5  7  2  0
  1  2  1  0
  1  3  1  0
  1  4  1  0
  8 12  1  0
 12 15  1  0
  8  9  1  0
  8 10  1  0
  8 11  1  0
 12 13  1  0
 12 14  1  0
 15 16  1  0
 15 17  1  0
 15 18  1  0
M  CHG  1   6  -1
M  END
>  <PDB_ID>  (443) 
pdb2bva

>  <RESIDUE_NAME>  (443) 
GLU   VAL

>  <FRAG_NAME>  (443) 
ACET   PRPA

>  <FRAG_ATOM_NUM>  (443) 
fragi: 7  fragj: 11

>  <atom.prop.CHAIN_ID>  (443) 
A A A A A A A Z Z Z Z Z Z Z Z Z Z Z

>  <atom.prop.IS_HEAVY_ATOM>  (443) 
1 0 0 0 1 1 1 1 0 0 0 1 0 0 1 0 0 0

>  <DIFUSE_FUNC_ATOM>  (443) 
atom 6   atom 7   

>  <FINAL_SINGLE_POINT_ENERGY>  (443) 
0

>  <NONCOV_INTER_ENERGY_QM>  (443) 
0

>  <FF_Energy>  (443) 
2.71

>  <QM_Energy>  (443) 
-2.93

>  <Index>  (443) 
31197

$$$$
ACET-pdb1b9h-A-ASP-151:PRPA-pdb1b9h-A-LYS-147
     RDKit          3D

 18 16  0  0  0  0  0  0  0  0999 V2000
    0.0598    1.5200    0.0028 C   0  0  0  0  0  0  0  0  0  0  0  0
    0.6733    1.8128   -0.7069 H   0  0  0  0  0  0  0  0  0  0  0  0
    0.3455    1.8235    0.8921 H   0  0  0  0  0  0  0  0  0  0  0  0
   -0.9273    1.9340   -0.2030 H   0  0  0  0  0  0  0  0  0  0  0  0
    0.0000    0.0000    0.0000 C   0  0  0  0  0  0  0  0  0  0  0  0
   -1.0922   -0.6043   -0.0000 O   0  0  0  0  0  1  0  0  0  0  0  0
    1.0922   -0.6104   -0.0000 O   0  0  0  0  0  0  0  0  0  0  0  0
    1.8603   -2.4353   -3.3674 C   0  0  0  0  0  0  0  0  0  0  0  0
    2.8229   -2.7831   -3.4474 H   0  0  0  0  0  0  0  0  0  0  0  0
    1.9489   -1.4322   -3.1708 H   0  0  0  0  0  0  0  0  0  0  0  0
    1.3641   -2.5601   -4.3298 H   0  0  0  0  0  0  0  0  0  0  0  0
    1.2164   -3.0987   -2.1618 C   0  0  0  0  0  0  0  0  0  0  0  0
    0.9315   -2.4126   -1.5289 H   0  0  0  0  0  0  0  0  0  0  0  0
    0.4928   -3.6812   -2.4598 H   0  0  0  0  0  0  0  0  0  0  0  0
    2.2944   -3.9573   -1.5003 C   0  0  0  0  0  0  0  0  0  0  0  0
    2.8841   -4.3350   -2.2111 H   0  0  0  0  0  0  0  0  0  0  0  0
    2.8299   -3.3825   -0.8861 H   0  0  0  0  0  0  0  0  0  0  0  0
    1.8396   -4.7700   -0.9339 H   0  0  0  0  0  0  0  0  0  0  0  0
  1  5  1  0
  5  6  1  0
  5  7  2  0
  1  2  1  0
  1  3  1  0
  1  4  1  0
  8 12  1  0
 12 15  1  0
  8  9  1  0
  8 10  1  0
  8 11  1  0
 12 13  1  0
 12 14  1  0
 15 16  1  0
 15 17  1  0
 15 18  1  0
M  CHG  1   6  -1
M  END
>  <PDB_ID>  (444) 
pdb1b9h

>  <RESIDUE_NAME>  (444) 
ASP   LYS

>  <FRAG_NAME>  (444) 
ACET   PRPA

>  <FRAG_ATOM_NUM>  (444) 
fragi: 7  fragj: 11

>  <atom.prop.CHAIN_ID>  (444) 
A A A A A A A Z Z Z Z Z Z Z Z Z Z Z

>  <atom.prop.IS_HEAVY_ATOM>  (444) 
1 0 0 0 1 1 1 1 0 0 0 1 0 0 1 0 0 0

>  <DIFUSE_FUNC_ATOM>  (444) 
atom 6   atom 7   

>  <FINAL_SINGLE_POINT_ENERGY>  (444) 
0

>  <NONCOV_INTER_ENERGY_QM>  (444) 
0

>  <FF_Energy>  (444) 
0.92

>  <QM_Energy>  (444) 
-5.23

>  <Index>  (444) 
31346

$$$$
ACET-pdb1bbz-C-GLU-23:PRPA-pdb1bbz-C-ILE-19
     RDKit          3D

 18 16  0  0  0  0  0  0  0  0999 V2000
    0.0097    1.4953    0.0233 C   0  0  0  0  0  0  0  0  0  0  0  0
    0.0540    1.8110   -0.9060 H   0  0  0  0  0  0  0  0  0  0  0  0
    0.7872    1.7835    0.5517 H   0  0  0  0  0  0  0  0  0  0  0  0
   -0.8925    1.8986    0.4832 H   0  0  0  0  0  0  0  0  0  0  0  0
    0.0000    0.0000    0.0000 C   0  0  0  0  0  0  0  0  0  0  0  0
   -1.1020   -0.5958    0.0000 O   0  0  0  0  0  1  0  0  0  0  0  0
    1.1020   -0.5874    0.0000 O   0  0  0  0  0  0  0  0  0  0  0  0
   -4.3240   -1.2521   -2.4393 C   0  0  0  0  0  0  0  0  0  0  0  0
   -4.0825   -1.6780   -3.3010 H   0  0  0  0  0  0  0  0  0  0  0  0
   -4.0428   -1.9556   -1.6556 H   0  0  0  0  0  0  0  0  0  0  0  0
   -5.3200   -0.8992   -2.1719 H   0  0  0  0  0  0  0  0  0  0  0  0
   -3.5519    0.0788   -2.3130 C   0  0  0  0  0  0  0  0  0  0  0  0
   -4.0378    0.7726   -2.8786 H   0  0  0  0  0  0  0  0  0  0  0  0
   -3.6470    0.3969   -1.3493 H   0  0  0  0  0  0  0  0  0  0  0  0
   -2.0773    0.1049   -2.6791 C   0  0  0  0  0  0  0  0  0  0  0  0
   -1.9717   -0.1625   -3.6349 H   0  0  0  0  0  0  0  0  0  0  0  0
   -1.7221    1.0283   -2.5457 H   0  0  0  0  0  0  0  0  0  0  0  0
   -1.5824   -0.5343   -2.0936 H   0  0  0  0  0  0  0  0  0  0  0  0
  1  5  1  0
  5  6  1  0
  5  7  2  0
  1  2  1  0
  1  3  1  0
  1  4  1  0
  8 12  1  0
 12 15  1  0
  8  9  1  0
  8 10  1  0
  8 11  1  0
 12 13  1  0
 12 14  1  0
 15 16  1  0
 15 17  1  0
 15 18  1  0
M  CHG  1   6  -1
M  END
>  <PDB_ID>  (445) 
pdb1bbz

>  <RESIDUE_NAME>  (445) 
GLU   ILE

>  <FRAG_NAME>  (445) 
ACET   PRPA

>  <FRAG_ATOM_NUM>  (445) 
fragi: 7  fragj: 11

>  <atom.prop.CHAIN_ID>  (445) 
A A A A A A A Z Z Z Z Z Z Z Z Z Z Z

>  <atom.prop.IS_HEAVY_ATOM>  (445) 
1 0 0 0 1 1 1 1 0 0 0 1 0 0 1 0 0 0

>  <DIFUSE_FUNC_ATOM>  (445) 
atom 6   atom 7   

>  <FINAL_SINGLE_POINT_ENERGY>  (445) 
0

>  <NONCOV_INTER_ENERGY_QM>  (445) 
0

>  <FF_Energy>  (445) 
4.81

>  <QM_Energy>  (445) 
-2.57

>  <Index>  (445) 
31415

$$$$
ACET-pdb1b9h-A-GLU-175:PRPA-pdb1b9h-A-ARG-172
     RDKit          3D

 18 16  0  0  0  0  0  0  0  0999 V2000
    0.1385    1.5046   -0.0074 C   0  0  0  0  0  0  0  0  0  0  0  0
    0.8375    1.7397   -0.6377 H   0  0  0  0  0  0  0  0  0  0  0  0
    0.3028    1.7964    0.9031 H   0  0  0  0  0  0  0  0  0  0  0  0
   -0.7918    1.9590   -0.3481 H   0  0  0  0  0  0  0  0  0  0  0  0
    0.0000    0.0000    0.0000 C   0  0  0  0  0  0  0  0  0  0  0  0
   -1.1099   -0.5896    0.0000 O   0  0  0  0  0  1  0  0  0  0  0  0
    1.1099   -0.6011    0.0000 O   0  0  0  0  0  0  0  0  0  0  0  0
   -3.6025    0.1238    2.4023 C   0  0  0  0  0  0  0  0  0  0  0  0
   -4.3259   -0.4383    2.8439 H   0  0  0  0  0  0  0  0  0  0  0  0
   -3.6263   -0.0849    1.3328 H   0  0  0  0  0  0  0  0  0  0  0  0
   -3.7673    1.1760    2.6343 H   0  0  0  0  0  0  0  0  0  0  0  0
   -2.2921   -0.4719    2.9199 C   0  0  0  0  0  0  0  0  0  0  0  0
   -1.6108   -0.3733    2.2321 H   0  0  0  0  0  0  0  0  0  0  0  0
   -2.0675   -0.0454    3.7650 H   0  0  0  0  0  0  0  0  0  0  0  0
   -2.4985   -1.9641    3.1781 C   0  0  0  0  0  0  0  0  0  0  0  0
   -3.1220   -2.0852    3.9552 H   0  0  0  0  0  0  0  0  0  0  0  0
   -2.9070   -2.3897    2.3658 H   0  0  0  0  0  0  0  0  0  0  0  0
   -1.5797   -2.5048    3.4052 H   0  0  0  0  0  0  0  0  0  0  0  0
  1  5  1  0
  5  6  1  0
  5  7  2  0
  1  2  1  0
  1  3  1  0
  1  4  1  0
  8 12  1  0
 12 15  1  0
  8  9  1  0
  8 10  1  0
  8 11  1  0
 12 13  1  0
 12 14  1  0
 15 16  1  0
 15 17  1  0
 15 18  1  0
M  CHG  1   6  -1
M  END
>  <PDB_ID>  (446) 
pdb1b9h

>  <RESIDUE_NAME>  (446) 
GLU   ARG

>  <FRAG_NAME>  (446) 
ACET   PRPA

>  <FRAG_ATOM_NUM>  (446) 
fragi: 7  fragj: 11

>  <atom.prop.CHAIN_ID>  (446) 
A A A A A A A Z Z Z Z Z Z Z Z Z Z Z

>  <atom.prop.IS_HEAVY_ATOM>  (446) 
1 0 0 0 1 1 1 1 0 0 0 1 0 0 1 0 0 0

>  <DIFUSE_FUNC_ATOM>  (446) 
atom 6   atom 7   

>  <FINAL_SINGLE_POINT_ENERGY>  (446) 
0

>  <NONCOV_INTER_ENERGY_QM>  (446) 
0

>  <FF_Energy>  (446) 
1.11

>  <QM_Energy>  (446) 
-4.43

>  <Index>  (446) 
31496

$$$$
ACET-pdb2aw5-C-ASP-80:PRPA-pdb2aw5-C-LYN-119
     RDKit          3D

 18 16  0  0  0  0  0  0  0  0999 V2000
    0.0094    1.5256    0.0349 C   0  0  0  0  0  0  0  0  0  0  0  0
   -0.2520    1.8215    0.9430 H   0  0  0  0  0  0  0  0  0  0  0  0
   -0.6264    1.8607   -0.6451 H   0  0  0  0  0  0  0  0  0  0  0  0
    0.9947    1.9354   -0.1871 H   0  0  0  0  0  0  0  0  0  0  0  0
    0.0000    0.0000    0.0000 C   0  0  0  0  0  0  0  0  0  0  0  0
   -1.0905   -0.5802    0.0000 O   0  0  0  0  0  1  0  0  0  0  0  0
    1.0905   -0.6146   -0.0000 O   0  0  0  0  0  0  0  0  0  0  0  0
   -4.1631   -2.4859    0.3905 C   0  0  0  0  0  0  0  0  0  0  0  0
   -3.2478   -2.8120    0.6457 H   0  0  0  0  0  0  0  0  0  0  0  0
   -4.5232   -3.0783   -0.3369 H   0  0  0  0  0  0  0  0  0  0  0  0
   -4.8079   -2.6120    1.2602 H   0  0  0  0  0  0  0  0  0  0  0  0
   -4.0375   -1.0702   -0.1548 C   0  0  0  0  0  0  0  0  0  0  0  0
   -4.9560   -0.6833   -0.2828 H   0  0  0  0  0  0  0  0  0  0  0  0
   -3.5380   -0.5038    0.5075 H   0  0  0  0  0  0  0  0  0  0  0  0
   -3.2960   -1.0077   -1.5014 C   0  0  0  0  0  0  0  0  0  0  0  0
   -2.4040   -1.3972   -1.3934 H   0  0  0  0  0  0  0  0  0  0  0  0
   -3.8318   -1.4628   -2.1838 H   0  0  0  0  0  0  0  0  0  0  0  0
   -3.1818    0.0360   -1.7943 H   0  0  0  0  0  0  0  0  0  0  0  0
  1  5  1  0
  5  6  1  0
  5  7  2  0
  1  2  1  0
  1  3  1  0
  1  4  1  0
  8 12  1  0
 12 15  1  0
  8  9  1  0
  8 10  1  0
  8 11  1  0
 12 13  1  0
 12 14  1  0
 15 16  1  0
 15 17  1  0
 15 18  1  0
M  CHG  1   6  -1
M  END
>  <PDB_ID>  (447) 
pdb2aw5

>  <RESIDUE_NAME>  (447) 
ASP   LYN

>  <FRAG_NAME>  (447) 
ACET   PRPA

>  <FRAG_ATOM_NUM>  (447) 
fragi: 7  fragj: 11

>  <atom.prop.CHAIN_ID>  (447) 
A A A A A A A Z Z Z Z Z Z Z Z Z Z Z

>  <atom.prop.IS_HEAVY_ATOM>  (447) 
1 0 0 0 1 1 1 1 0 0 0 1 0 0 1 0 0 0

>  <DIFUSE_FUNC_ATOM>  (447) 
atom 6   atom 7   

>  <FINAL_SINGLE_POINT_ENERGY>  (447) 
0

>  <NONCOV_INTER_ENERGY_QM>  (447) 
0

>  <FF_Energy>  (447) 
9.73

>  <QM_Energy>  (447) 
-2.0

>  <Index>  (447) 
31534

$$$$
ACET-pdb1b77-A-ASP-136:PRPA-pdb1b77-A-LYS-154
     RDKit          3D

 18 16  0  0  0  0  0  0  0  0999 V2000
    0.0100    1.5210    0.0231 C   0  0  0  0  0  0  0  0  0  0  0  0
    0.6217    1.8450   -0.6885 H   0  0  0  0  0  0  0  0  0  0  0  0
    0.3216    1.8235    0.9156 H   0  0  0  0  0  0  0  0  0  0  0  0
   -0.9756    1.9506   -0.1562 H   0  0  0  0  0  0  0  0  0  0  0  0
    0.0000    0.0000    0.0000 C   0  0  0  0  0  0  0  0  0  0  0  0
   -1.0985   -0.5953    0.0000 O   0  0  0  0  0  1  0  0  0  0  0  0
    1.0985   -0.6026    0.0000 O   0  0  0  0  0  0  0  0  0  0  0  0
   -0.2829   -4.0542   -0.2365 C   0  0  0  0  0  0  0  0  0  0  0  0
   -0.8712   -4.8100   -0.5830 H   0  0  0  0  0  0  0  0  0  0  0  0
   -0.8890   -3.3969    0.3870 H   0  0  0  0  0  0  0  0  0  0  0  0
    0.5672   -4.4945    0.2846 H   0  0  0  0  0  0  0  0  0  0  0  0
    0.2157   -3.2649   -1.4480 C   0  0  0  0  0  0  0  0  0  0  0  0
   -0.5830   -2.8856   -1.9225 H   0  0  0  0  0  0  0  0  0  0  0  0
    0.7828   -2.5073   -1.1134 H   0  0  0  0  0  0  0  0  0  0  0  0
    1.0313   -4.0622   -2.4523 C   0  0  0  0  0  0  0  0  0  0  0  0
    1.4776   -3.4251   -3.0859 H   0  0  0  0  0  0  0  0  0  0  0  0
    1.7356   -4.5805   -1.9610 H   0  0  0  0  0  0  0  0  0  0  0  0
    0.4122   -4.7552   -3.0220 H   0  0  0  0  0  0  0  0  0  0  0  0
  1  5  1  0
  5  6  1  0
  5  7  2  0
  1  2  1  0
  1  3  1  0
  1  4  1  0
  8 12  1  0
 12 15  1  0
  8  9  1  0
  8 10  1  0
  8 11  1  0
 12 13  1  0
 12 14  1  0
 15 16  1  0
 15 17  1  0
 15 18  1  0
M  CHG  1   6  -1
M  END
>  <PDB_ID>  (448) 
pdb1b77

>  <RESIDUE_NAME>  (448) 
ASP   LYS

>  <FRAG_NAME>  (448) 
ACET   PRPA

>  <FRAG_ATOM_NUM>  (448) 
fragi: 7  fragj: 11

>  <atom.prop.CHAIN_ID>  (448) 
A A A A A A A Z Z Z Z Z Z Z Z Z Z Z

>  <atom.prop.IS_HEAVY_ATOM>  (448) 
1 0 0 0 1 1 1 1 0 0 0 1 0 0 1 0 0 0

>  <DIFUSE_FUNC_ATOM>  (448) 
atom 6   atom 7   

>  <FINAL_SINGLE_POINT_ENERGY>  (448) 
0

>  <NONCOV_INTER_ENERGY_QM>  (448) 
0

>  <FF_Energy>  (448) 
22.36

>  <QM_Energy>  (448) 
-4.84

>  <Index>  (448) 
31557

$$$$
ACET-pdb1bay-A-GLU-15:PRPA-pdb1bay-A-ARG-11
     RDKit          3D

 18 16  0  0  0  0  0  0  0  0999 V2000
    0.0131    1.5116    0.0593 C   0  0  0  0  0  0  0  0  0  0  0  0
    0.9642    1.7971    0.0261 H   0  0  0  0  0  0  0  0  0  0  0  0
   -0.3982    1.7733    0.9250 H   0  0  0  0  0  0  0  0  0  0  0  0
   -0.5280    2.0033   -0.7492 H   0  0  0  0  0  0  0  0  0  0  0  0
    0.0000    0.0000    0.0000 C   0  0  0  0  0  0  0  0  0  0  0  0
   -1.0918   -0.5967    0.0000 O   0  0  0  0  0  1  0  0  0  0  0  0
    1.0918   -0.5924   -0.0000 O   0  0  0  0  0  0  0  0  0  0  0  0
    2.8055    2.0825    1.9186 C   0  0  0  0  0  0  0  0  0  0  0  0
    2.7691    1.3033    1.3138 H   0  0  0  0  0  0  0  0  0  0  0  0
    3.6516    1.9781    2.5979 H   0  0  0  0  0  0  0  0  0  0  0  0
    3.0140    2.9739    1.3270 H   0  0  0  0  0  0  0  0  0  0  0  0
    1.5207    2.2266    2.7261 C   0  0  0  0  0  0  0  0  0  0  0  0
    1.6359    2.9739    3.3623 H   0  0  0  0  0  0  0  0  0  0  0  0
    0.7760    2.3980    2.0992 H   0  0  0  0  0  0  0  0  0  0  0  0
    1.2067    0.9754    3.5098 C   0  0  0  0  0  0  0  0  0  0  0  0
    1.3254    0.1682    2.9187 H   0  0  0  0  0  0  0  0  0  0  0  0
    1.8440    0.8953    4.2857 H   0  0  0  0  0  0  0  0  0  0  0  0
    0.1925    0.9502    3.9083 H   0  0  0  0  0  0  0  0  0  0  0  0
  1  5  1  0
  5  6  1  0
  5  7  2  0
  1  2  1  0
  1  3  1  0
  1  4  1  0
  8 12  1  0
 12 15  1  0
  8  9  1  0
  8 10  1  0
  8 11  1  0
 12 13  1  0
 12 14  1  0
 15 16  1  0
 15 17  1  0
 15 18  1  0
M  CHG  1   6  -1
M  END
>  <PDB_ID>  (449) 
pdb1bay

>  <RESIDUE_NAME>  (449) 
GLU   ARG

>  <FRAG_NAME>  (449) 
ACET   PRPA

>  <FRAG_ATOM_NUM>  (449) 
fragi: 7  fragj: 11

>  <atom.prop.CHAIN_ID>  (449) 
A A A A A A A Z Z Z Z Z Z Z Z Z Z Z

>  <atom.prop.IS_HEAVY_ATOM>  (449) 
1 0 0 0 1 1 1 1 0 0 0 1 0 0 1 0 0 0

>  <DIFUSE_FUNC_ATOM>  (449) 
atom 6   atom 7   

>  <FINAL_SINGLE_POINT_ENERGY>  (449) 
0

>  <NONCOV_INTER_ENERGY_QM>  (449) 
0

>  <FF_Energy>  (449) 
9.38

>  <QM_Energy>  (449) 
-1.43

>  <Index>  (449) 
31628

$$$$
ACET-pdb1bay-A-GLU-15:PRPA-pdb1bay-A-ARG-11
     RDKit          3D

 18 16  0  0  0  0  0  0  0  0999 V2000
    0.0131    1.5116    0.0593 C   0  0  0  0  0  0  0  0  0  0  0  0
    0.9642    1.7971    0.0261 H   0  0  0  0  0  0  0  0  0  0  0  0
   -0.3982    1.7733    0.9250 H   0  0  0  0  0  0  0  0  0  0  0  0
   -0.5280    2.0033   -0.7492 H   0  0  0  0  0  0  0  0  0  0  0  0
    0.0000    0.0000    0.0000 C   0  0  0  0  0  0  0  0  0  0  0  0
   -1.0918   -0.5967    0.0000 O   0  0  0  0  0  1  0  0  0  0  0  0
    1.0918   -0.5924   -0.0000 O   0  0  0  0  0  0  0  0  0  0  0  0
    1.5207    2.2266    2.7261 C   0  0  0  0  0  0  0  0  0  0  0  0
    1.6359    2.9739    3.3623 H   0  0  0  0  0  0  0  0  0  0  0  0
    0.7760    2.3980    2.0992 H   0  0  0  0  0  0  0  0  0  0  0  0
    2.4394    2.1235    2.1487 H   0  0  0  0  0  0  0  0  0  0  0  0
    1.2067    0.9754    3.5098 C   0  0  0  0  0  0  0  0  0  0  0  0
    1.3254    0.1682    2.9187 H   0  0  0  0  0  0  0  0  0  0  0  0
    1.8440    0.8953    4.2857 H   0  0  0  0  0  0  0  0  0  0  0  0
   -0.2075    0.9403    4.0655 C   0  0  0  0  0  0  0  0  0  0  0  0
   -0.3556    1.7626    4.5879 H   0  0  0  0  0  0  0  0  0  0  0  0
   -0.8350    0.8662    3.3091 H   0  0  0  0  0  0  0  0  0  0  0  0
   -0.3187    0.0725    4.7155 H   0  0  0  0  0  0  0  0  0  0  0  0
  1  5  1  0
  5  6  1  0
  5  7  2  0
  1  2  1  0
  1  3  1  0
  1  4  1  0
  8 12  1  0
 12 15  1  0
  8  9  1  0
  8 10  1  0
  8 11  1  0
 12 13  1  0
 12 14  1  0
 15 16  1  0
 15 17  1  0
 15 18  1  0
M  CHG  1   6  -1
M  END
>  <PDB_ID>  (450) 
pdb1bay

>  <RESIDUE_NAME>  (450) 
GLU   ARG

>  <FRAG_NAME>  (450) 
ACET   PRPA

>  <FRAG_ATOM_NUM>  (450) 
fragi: 7  fragj: 11

>  <atom.prop.CHAIN_ID>  (450) 
A A A A A A A Z Z Z Z Z Z Z Z Z Z Z

>  <atom.prop.IS_HEAVY_ATOM>  (450) 
1 0 0 0 1 1 1 1 0 0 0 1 0 0 1 0 0 0

>  <DIFUSE_FUNC_ATOM>  (450) 
atom 6   atom 7   

>  <FINAL_SINGLE_POINT_ENERGY>  (450) 
0

>  <NONCOV_INTER_ENERGY_QM>  (450) 
0

>  <FF_Energy>  (450) 
8.57

>  <QM_Energy>  (450) 
-0.47

>  <Index>  (450) 
31643

$$$$
ACET-pdb1b9s-A-ASP-194:PRPA-pdb1b9s-A-LYS-203
     RDKit          3D

 18 16  0  0  0  0  0  0  0  0999 V2000
    0.0089    1.5149    0.0029 C   0  0  0  0  0  0  0  0  0  0  0  0
    0.6959    1.8337   -0.6408 H   0  0  0  0  0  0  0  0  0  0  0  0
    0.2178    1.8345    0.9203 H   0  0  0  0  0  0  0  0  0  0  0  0
   -0.9484    1.9455   -0.2905 H   0  0  0  0  0  0  0  0  0  0  0  0
    0.0000    0.0000    0.0000 C   0  0  0  0  0  0  0  0  0  0  0  0
   -1.0913   -0.6022   -0.0000 O   0  0  0  0  0  1  0  0  0  0  0  0
    1.0913   -0.5910   -0.0000 O   0  0  0  0  0  0  0  0  0  0  0  0
   -3.2748   -2.8942    2.7097 C   0  0  0  0  0  0  0  0  0  0  0  0
   -3.9486   -2.9438    1.9782 H   0  0  0  0  0  0  0  0  0  0  0  0
   -3.0810   -1.9439    2.9336 H   0  0  0  0  0  0  0  0  0  0  0  0
   -3.6627   -3.4020    3.5927 H   0  0  0  0  0  0  0  0  0  0  0  0
   -1.9903   -3.5606    2.2391 C   0  0  0  0  0  0  0  0  0  0  0  0
   -1.7749   -4.3150    2.8550 H   0  0  0  0  0  0  0  0  0  0  0  0
   -2.1266   -3.9062    1.3136 H   0  0  0  0  0  0  0  0  0  0  0  0
   -0.8163   -2.5953    2.2268 C   0  0  0  0  0  0  0  0  0  0  0  0
    0.0273   -3.1073    2.4224 H   0  0  0  0  0  0  0  0  0  0  0  0
   -0.7382   -2.1906    1.3091 H   0  0  0  0  0  0  0  0  0  0  0  0
   -0.9290   -1.7975    2.9609 H   0  0  0  0  0  0  0  0  0  0  0  0
  1  5  1  0
  5  6  1  0
  5  7  2  0
  1  2  1  0
  1  3  1  0
  1  4  1  0
  8 12  1  0
 12 15  1  0
  8  9  1  0
  8 10  1  0
  8 11  1  0
 12 13  1  0
 12 14  1  0
 15 16  1  0
 15 17  1  0
 15 18  1  0
M  CHG  1   6  -1
M  END
>  <PDB_ID>  (451) 
pdb1b9s

>  <RESIDUE_NAME>  (451) 
ASP   LYS

>  <FRAG_NAME>  (451) 
ACET   PRPA

>  <FRAG_ATOM_NUM>  (451) 
fragi: 7  fragj: 11

>  <atom.prop.CHAIN_ID>  (451) 
A A A A A A A Z Z Z Z Z Z Z Z Z Z Z

>  <atom.prop.IS_HEAVY_ATOM>  (451) 
1 0 0 0 1 1 1 1 0 0 0 1 0 0 1 0 0 0

>  <DIFUSE_FUNC_ATOM>  (451) 
atom 6   atom 7   

>  <FINAL_SINGLE_POINT_ENERGY>  (451) 
0

>  <NONCOV_INTER_ENERGY_QM>  (451) 
0

>  <FF_Energy>  (451) 
4.95

>  <QM_Energy>  (451) 
-2.9

>  <Index>  (451) 
31678

$$$$
ACET-pdb2b3z-C-ASP-220:PRPA-pdb2b3z-C-VAL-193
     RDKit          3D

 18 16  0  0  0  0  0  0  0  0999 V2000
   -0.0053    1.4884   -0.0155 C   0  0  0  0  0  0  0  0  0  0  0  0
    0.3023    1.8125   -0.9064 H   0  0  0  0  0  0  0  0  0  0  0  0
    0.5974    1.8304    0.6992 H   0  0  0  0  0  0  0  0  0  0  0  0
   -0.9966    1.9058    0.1614 H   0  0  0  0  0  0  0  0  0  0  0  0
    0.0000    0.0000    0.0000 C   0  0  0  0  0  0  0  0  0  0  0  0
   -1.1149   -0.5818   -0.0000 O   0  0  0  0  0  1  0  0  0  0  0  0
    1.1149   -0.5878    0.0000 O   0  0  0  0  0  0  0  0  0  0  0  0
   -0.9814    1.0169   -4.8884 C   0  0  0  0  0  0  0  0  0  0  0  0
   -0.0469    1.3498   -5.0863 H   0  0  0  0  0  0  0  0  0  0  0  0
   -1.6097    1.8873   -4.6993 H   0  0  0  0  0  0  0  0  0  0  0  0
   -1.3329    0.4438   -5.7463 H   0  0  0  0  0  0  0  0  0  0  0  0
   -0.9423    0.0040   -3.7407 C   0  0  0  0  0  0  0  0  0  0  0  0
   -0.8071   -0.8944   -4.1525 H   0  0  0  0  0  0  0  0  0  0  0  0
   -1.8851   -0.0043   -3.1937 H   0  0  0  0  0  0  0  0  0  0  0  0
    0.1906    0.3012   -2.8847 C   0  0  0  0  0  0  0  0  0  0  0  0
    0.2813   -0.3800   -2.1417 H   0  0  0  0  0  0  0  0  0  0  0  0
    1.0584    0.2994   -3.4061 H   0  0  0  0  0  0  0  0  0  0  0  0
    0.0983    1.2111   -2.4520 H   0  0  0  0  0  0  0  0  0  0  0  0
  1  5  1  0
  5  6  1  0
  5  7  2  0
  1  2  1  0
  1  3  1  0
  1  4  1  0
  8 12  1  0
 12 15  1  0
  8  9  1  0
  8 10  1  0
  8 11  1  0
 12 13  1  0
 12 14  1  0
 15 16  1  0
 15 17  1  0
 15 18  1  0
M  CHG  1   6  -1
M  END
>  <PDB_ID>  (452) 
pdb2b3z

>  <RESIDUE_NAME>  (452) 
ASP   VAL

>  <FRAG_NAME>  (452) 
ACET   PRPA

>  <FRAG_ATOM_NUM>  (452) 
fragi: 7  fragj: 11

>  <atom.prop.CHAIN_ID>  (452) 
A A A A A A A Z Z Z Z Z Z Z Z Z Z Z

>  <atom.prop.IS_HEAVY_ATOM>  (452) 
1 0 0 0 1 1 1 1 0 0 0 1 0 0 1 0 0 0

>  <DIFUSE_FUNC_ATOM>  (452) 
atom 6   atom 7   

>  <FINAL_SINGLE_POINT_ENERGY>  (452) 
0

>  <NONCOV_INTER_ENERGY_QM>  (452) 
0

>  <FF_Energy>  (452) 
35.01

>  <QM_Energy>  (452) 
2.4

>  <Index>  (452) 
31822

$$$$
ACET-pdb2b3z-C-ASP-220:PRPA-pdb2b3z-C-VAL-193
     RDKit          3D

 18 16  0  0  0  0  0  0  0  0999 V2000
   -0.0053    1.4884   -0.0155 C   0  0  0  0  0  0  0  0  0  0  0  0
    0.3023    1.8125   -0.9064 H   0  0  0  0  0  0  0  0  0  0  0  0
    0.5974    1.8304    0.6992 H   0  0  0  0  0  0  0  0  0  0  0  0
   -0.9966    1.9058    0.1614 H   0  0  0  0  0  0  0  0  0  0  0  0
    0.0000    0.0000    0.0000 C   0  0  0  0  0  0  0  0  0  0  0  0
   -1.1149   -0.5818   -0.0000 O   0  0  0  0  0  1  0  0  0  0  0  0
    1.1149   -0.5878    0.0000 O   0  0  0  0  0  0  0  0  0  0  0  0
    0.1906    0.3012   -2.8847 C   0  0  0  0  0  0  0  0  0  0  0  0
    0.2813   -0.3800   -2.1417 H   0  0  0  0  0  0  0  0  0  0  0  0
    1.0584    0.2994   -3.4061 H   0  0  0  0  0  0  0  0  0  0  0  0
    0.0983    1.2111   -2.4520 H   0  0  0  0  0  0  0  0  0  0  0  0
   -0.9423    0.0040   -3.7407 C   0  0  0  0  0  0  0  0  0  0  0  0
   -0.8071   -0.8944   -4.1525 H   0  0  0  0  0  0  0  0  0  0  0  0
   -0.9701    0.7250   -4.5577 H   0  0  0  0  0  0  0  0  0  0  0  0
   -2.2753   -0.0077   -2.9674 C   0  0  0  0  0  0  0  0  0  0  0  0
   -2.0794   -0.0838   -1.9934 H   0  0  0  0  0  0  0  0  0  0  0  0
   -2.7620    0.8414   -3.1557 H   0  0  0  0  0  0  0  0  0  0  0  0
   -2.8157   -0.7879   -3.2713 H   0  0  0  0  0  0  0  0  0  0  0  0
  1  5  1  0
  5  6  1  0
  5  7  2  0
  1  2  1  0
  1  3  1  0
  1  4  1  0
  8 12  1  0
 12 15  1  0
  8  9  1  0
  8 10  1  0
  8 11  1  0
 12 13  1  0
 12 14  1  0
 15 16  1  0
 15 17  1  0
 15 18  1  0
M  CHG  1   6  -1
M  END
>  <PDB_ID>  (453) 
pdb2b3z

>  <RESIDUE_NAME>  (453) 
ASP   VAL

>  <FRAG_NAME>  (453) 
ACET   PRPA

>  <FRAG_ATOM_NUM>  (453) 
fragi: 7  fragj: 11

>  <atom.prop.CHAIN_ID>  (453) 
A A A A A A A Z Z Z Z Z Z Z Z Z Z Z

>  <atom.prop.IS_HEAVY_ATOM>  (453) 
1 0 0 0 1 1 1 1 0 0 0 1 0 0 1 0 0 0

>  <DIFUSE_FUNC_ATOM>  (453) 
atom 6   atom 7   

>  <FINAL_SINGLE_POINT_ENERGY>  (453) 
0

>  <NONCOV_INTER_ENERGY_QM>  (453) 
0

>  <FF_Energy>  (453) 
36.98

>  <QM_Energy>  (453) 
1.46

>  <Index>  (453) 
31848

$$$$
ACET-pdb2bvp-A-GLU-198:PRPA-pdb2bvp-A-ILE-194
     RDKit          3D

 18 16  0  0  0  0  0  0  0  0999 V2000
    0.0011    1.5055    0.0061 C   0  0  0  0  0  0  0  0  0  0  0  0
    0.8686    1.8035   -0.3466 H   0  0  0  0  0  0  0  0  0  0  0  0
   -0.1454    1.7985    0.9325 H   0  0  0  0  0  0  0  0  0  0  0  0
   -0.7901    1.9160   -0.6213 H   0  0  0  0  0  0  0  0  0  0  0  0
    0.0000    0.0000    0.0000 C   0  0  0  0  0  0  0  0  0  0  0  0
   -1.0976   -0.6078   -0.0000 O   0  0  0  0  0  1  0  0  0  0  0  0
    1.0976   -0.5858   -0.0000 O   0  0  0  0  0  0  0  0  0  0  0  0
   -5.2756    0.9685   -2.9891 C   0  0  0  0  0  0  0  0  0  0  0  0
   -5.8230    0.1634   -2.7422 H   0  0  0  0  0  0  0  0  0  0  0  0
   -5.9284    1.8387   -2.9198 H   0  0  0  0  0  0  0  0  0  0  0  0
   -4.9294    0.8379   -4.0143 H   0  0  0  0  0  0  0  0  0  0  0  0
   -4.0855    1.0449   -2.0495 C   0  0  0  0  0  0  0  0  0  0  0  0
   -3.5674    1.8720   -2.2490 H   0  0  0  0  0  0  0  0  0  0  0  0
   -4.4198    1.0892   -1.1115 H   0  0  0  0  0  0  0  0  0  0  0  0
   -3.1490   -0.1539   -2.1667 C   0  0  0  0  0  0  0  0  0  0  0  0
   -2.7992   -0.2027   -3.0985 H   0  0  0  0  0  0  0  0  0  0  0  0
   -2.3941   -0.0399   -1.5263 H   0  0  0  0  0  0  0  0  0  0  0  0
   -3.6561   -0.9844   -1.9497 H   0  0  0  0  0  0  0  0  0  0  0  0
  1  5  1  0
  5  6  1  0
  5  7  2  0
  1  2  1  0
  1  3  1  0
  1  4  1  0
  8 12  1  0
 12 15  1  0
  8  9  1  0
  8 10  1  0
  8 11  1  0
 12 13  1  0
 12 14  1  0
 15 16  1  0
 15 17  1  0
 15 18  1  0
M  CHG  1   6  -1
M  END
>  <PDB_ID>  (454) 
pdb2bvp

>  <RESIDUE_NAME>  (454) 
GLU   ILE

>  <FRAG_NAME>  (454) 
ACET   PRPA

>  <FRAG_ATOM_NUM>  (454) 
fragi: 7  fragj: 11

>  <atom.prop.CHAIN_ID>  (454) 
A A A A A A A Z Z Z Z Z Z Z Z Z Z Z

>  <atom.prop.IS_HEAVY_ATOM>  (454) 
1 0 0 0 1 1 1 1 0 0 0 1 0 0 1 0 0 0

>  <DIFUSE_FUNC_ATOM>  (454) 
atom 6   atom 7   

>  <FINAL_SINGLE_POINT_ENERGY>  (454) 
0

>  <NONCOV_INTER_ENERGY_QM>  (454) 
0

>  <FF_Energy>  (454) 
5.76

>  <QM_Energy>  (454) 
-2.46

>  <Index>  (454) 
32040

$$$$
ACET-pdb2b1x-D-GLU-619:PRPA-pdb2b1x-D-ARG-650
     RDKit          3D

 18 16  0  0  0  0  0  0  0  0999 V2000
    0.0300    1.5261   -0.0031 C   0  0  0  0  0  0  0  0  0  0  0  0
    0.4887    1.8076   -0.8296 H   0  0  0  0  0  0  0  0  0  0  0  0
    0.5256    1.8099    0.8016 H   0  0  0  0  0  0  0  0  0  0  0  0
   -0.9570    1.9881    0.0176 H   0  0  0  0  0  0  0  0  0  0  0  0
    0.0000    0.0000    0.0000 C   0  0  0  0  0  0  0  0  0  0  0  0
   -1.0917   -0.6128   -0.0000 O   0  0  0  0  0  1  0  0  0  0  0  0
    1.0917   -0.6040   -0.0000 O   0  0  0  0  0  0  0  0  0  0  0  0
    3.0175    2.8870   -3.0331 C   0  0  0  0  0  0  0  0  0  0  0  0
    3.4446    2.6522   -3.9042 H   0  0  0  0  0  0  0  0  0  0  0  0
    3.7048    3.2546   -2.4095 H   0  0  0  0  0  0  0  0  0  0  0  0
    2.2799    3.6676   -3.2194 H   0  0  0  0  0  0  0  0  0  0  0  0
    2.4494    1.6340   -2.4288 C   0  0  0  0  0  0  0  0  0  0  0  0
    1.5479    1.8282   -2.0252 H   0  0  0  0  0  0  0  0  0  0  0  0
    2.3351    0.9331   -3.1414 H   0  0  0  0  0  0  0  0  0  0  0  0
    3.3263    1.0370   -1.3339 C   0  0  0  0  0  0  0  0  0  0  0  0
    3.6876    1.7779   -0.7941 H   0  0  0  0  0  0  0  0  0  0  0  0
    2.7699    0.4270   -0.7961 H   0  0  0  0  0  0  0  0  0  0  0  0
    4.1442    0.4820   -1.7933 H   0  0  0  0  0  0  0  0  0  0  0  0
  1  5  1  0
  5  6  1  0
  5  7  2  0
  1  2  1  0
  1  3  1  0
  1  4  1  0
  8 12  1  0
 12 15  1  0
  8  9  1  0
  8 10  1  0
  8 11  1  0
 12 13  1  0
 12 14  1  0
 15 16  1  0
 15 17  1  0
 15 18  1  0
M  CHG  1   6  -1
M  END
>  <PDB_ID>  (455) 
pdb2b1x

>  <RESIDUE_NAME>  (455) 
GLU   ARG

>  <FRAG_NAME>  (455) 
ACET   PRPA

>  <FRAG_ATOM_NUM>  (455) 
fragi: 7  fragj: 11

>  <atom.prop.CHAIN_ID>  (455) 
A A A A A A A Z Z Z Z Z Z Z Z Z Z Z

>  <atom.prop.IS_HEAVY_ATOM>  (455) 
1 0 0 0 1 1 1 1 0 0 0 1 0 0 1 0 0 0

>  <DIFUSE_FUNC_ATOM>  (455) 
atom 6   atom 7   

>  <FINAL_SINGLE_POINT_ENERGY>  (455) 
0

>  <NONCOV_INTER_ENERGY_QM>  (455) 
0

>  <FF_Energy>  (455) 
16.57

>  <QM_Energy>  (455) 
-0.42

>  <Index>  (455) 
32148

$$$$
ACET-pdb1bfs-A-ASP-271:PRPA-pdb1bfs-A-LYS-249
     RDKit          3D

 18 16  0  0  0  0  0  0  0  0999 V2000
   -0.0154    1.5127   -0.0075 C   0  0  0  0  0  0  0  0  0  0  0  0
    0.8807    1.8411   -0.2783 H   0  0  0  0  0  0  0  0  0  0  0  0
   -0.2487    1.8354    0.9007 H   0  0  0  0  0  0  0  0  0  0  0  0
   -0.7486    1.9123   -0.7082 H   0  0  0  0  0  0  0  0  0  0  0  0
    0.0000    0.0000    0.0000 C   0  0  0  0  0  0  0  0  0  0  0  0
   -1.1074   -0.6008    0.0000 O   0  0  0  0  0  1  0  0  0  0  0  0
    1.1074   -0.5853    0.0000 O   0  0  0  0  0  0  0  0  0  0  0  0
    3.8245    0.4272   -1.2798 C   0  0  0  0  0  0  0  0  0  0  0  0
    4.4231    0.3947   -0.4807 H   0  0  0  0  0  0  0  0  0  0  0  0
    2.8720    0.4888   -0.9800 H   0  0  0  0  0  0  0  0  0  0  0  0
    4.0596    1.3315   -1.8410 H   0  0  0  0  0  0  0  0  0  0  0  0
    4.0017   -0.8503   -2.0654 C   0  0  0  0  0  0  0  0  0  0  0  0
    3.2875   -0.9052   -2.7649 H   0  0  0  0  0  0  0  0  0  0  0  0
    4.8993   -0.8401   -2.5087 H   0  0  0  0  0  0  0  0  0  0  0  0
    3.9072   -2.0521   -1.1683 C   0  0  0  0  0  0  0  0  0  0  0  0
    4.7587   -2.1597   -0.6704 H   0  0  0  0  0  0  0  0  0  0  0  0
    3.1462   -1.9380   -0.5417 H   0  0  0  0  0  0  0  0  0  0  0  0
    3.7359   -2.9533   -1.7570 H   0  0  0  0  0  0  0  0  0  0  0  0
  1  5  1  0
  5  6  1  0
  5  7  2  0
  1  2  1  0
  1  3  1  0
  1  4  1  0
  8 12  1  0
 12 15  1  0
  8  9  1  0
  8 10  1  0
  8 11  1  0
 12 13  1  0
 12 14  1  0
 15 16  1  0
 15 17  1  0
 15 18  1  0
M  CHG  1   6  -1
M  END
>  <PDB_ID>  (456) 
pdb1bfs

>  <RESIDUE_NAME>  (456) 
ASP   LYS

>  <FRAG_NAME>  (456) 
ACET   PRPA

>  <FRAG_ATOM_NUM>  (456) 
fragi: 7  fragj: 11

>  <atom.prop.CHAIN_ID>  (456) 
A A A A A A A Z Z Z Z Z Z Z Z Z Z Z

>  <atom.prop.IS_HEAVY_ATOM>  (456) 
1 0 0 0 1 1 1 1 0 0 0 1 0 0 1 0 0 0

>  <DIFUSE_FUNC_ATOM>  (456) 
atom 6   atom 7   

>  <FINAL_SINGLE_POINT_ENERGY>  (456) 
0

>  <NONCOV_INTER_ENERGY_QM>  (456) 
0

>  <FF_Energy>  (456) 
5.47

>  <QM_Energy>  (456) 
-4.65

>  <Index>  (456) 
32180

$$$$
ACET-pdb2c0n-A-ASP-70:PRPA-pdb2c0n-A-LYS-73
     RDKit          3D

 18 16  0  0  0  0  0  0  0  0999 V2000
    0.0392    1.5226    0.0699 C   0  0  0  0  0  0  0  0  0  0  0  0
    0.8777    1.8391   -0.3611 H   0  0  0  0  0  0  0  0  0  0  0  0
    0.0170    1.7982    1.0246 H   0  0  0  0  0  0  0  0  0  0  0  0
   -0.7993    1.9999   -0.4372 H   0  0  0  0  0  0  0  0  0  0  0  0
    0.0000    0.0000    0.0000 C   0  0  0  0  0  0  0  0  0  0  0  0
   -1.0912   -0.6035   -0.0000 O   0  0  0  0  0  1  0  0  0  0  0  0
    1.0912   -0.5990    0.0000 O   0  0  0  0  0  0  0  0  0  0  0  0
   -0.9088   -0.0227    3.6757 C   0  0  0  0  0  0  0  0  0  0  0  0
   -0.9868    0.7402    3.0412 H   0  0  0  0  0  0  0  0  0  0  0  0
   -0.6577    0.3097    4.5809 H   0  0  0  0  0  0  0  0  0  0  0  0
   -1.8816   -0.5091    3.7472 H   0  0  0  0  0  0  0  0  0  0  0  0
    0.1771   -0.9479    3.1842 C   0  0  0  0  0  0  0  0  0  0  0  0
    0.2704   -1.7115    3.8184 H   0  0  0  0  0  0  0  0  0  0  0  0
   -0.0624   -1.2847    2.2771 H   0  0  0  0  0  0  0  0  0  0  0  0
    1.4884   -0.2074    3.1066 C   0  0  0  0  0  0  0  0  0  0  0  0
    2.1459   -0.7589    2.6067 H   0  0  0  0  0  0  0  0  0  0  0  0
    1.3461    0.6635    2.6520 H   0  0  0  0  0  0  0  0  0  0  0  0
    1.8831   -0.0169    4.1046 H   0  0  0  0  0  0  0  0  0  0  0  0
  1  5  1  0
  5  6  1  0
  5  7  2  0
  1  2  1  0
  1  3  1  0
  1  4  1  0
  8 12  1  0
 12 15  1  0
  8  9  1  0
  8 10  1  0
  8 11  1  0
 12 13  1  0
 12 14  1  0
 15 16  1  0
 15 17  1  0
 15 18  1  0
M  CHG  1   6  -1
M  END
>  <PDB_ID>  (457) 
pdb2c0n

>  <RESIDUE_NAME>  (457) 
ASP   LYS

>  <FRAG_NAME>  (457) 
ACET   PRPA

>  <FRAG_ATOM_NUM>  (457) 
fragi: 7  fragj: 11

>  <atom.prop.CHAIN_ID>  (457) 
A A A A A A A Z Z Z Z Z Z Z Z Z Z Z

>  <atom.prop.IS_HEAVY_ATOM>  (457) 
1 0 0 0 1 1 1 1 0 0 0 1 0 0 1 0 0 0

>  <DIFUSE_FUNC_ATOM>  (457) 
atom 6   atom 7   

>  <FINAL_SINGLE_POINT_ENERGY>  (457) 
0

>  <NONCOV_INTER_ENERGY_QM>  (457) 
0

>  <FF_Energy>  (457) 
0.91

>  <QM_Energy>  (457) 
-5.35

>  <Index>  (457) 
32199

$$$$
ACET-pdb2c0n-A-ASP-70:PRPA-pdb2c0n-A-LYS-73
     RDKit          3D

 18 16  0  0  0  0  0  0  0  0999 V2000
    0.0392    1.5226    0.0699 C   0  0  0  0  0  0  0  0  0  0  0  0
    0.8777    1.8391   -0.3611 H   0  0  0  0  0  0  0  0  0  0  0  0
    0.0170    1.7982    1.0246 H   0  0  0  0  0  0  0  0  0  0  0  0
   -0.7993    1.9999   -0.4372 H   0  0  0  0  0  0  0  0  0  0  0  0
    0.0000    0.0000    0.0000 C   0  0  0  0  0  0  0  0  0  0  0  0
   -1.0912   -0.6035   -0.0000 O   0  0  0  0  0  1  0  0  0  0  0  0
    1.0912   -0.5990    0.0000 O   0  0  0  0  0  0  0  0  0  0  0  0
    0.1771   -0.9479    3.1842 C   0  0  0  0  0  0  0  0  0  0  0  0
    0.2704   -1.7115    3.8184 H   0  0  0  0  0  0  0  0  0  0  0  0
   -0.0624   -1.2847    2.2771 H   0  0  0  0  0  0  0  0  0  0  0  0
   -0.6073   -0.2795    3.5393 H   0  0  0  0  0  0  0  0  0  0  0  0
    1.4884   -0.2074    3.1066 C   0  0  0  0  0  0  0  0  0  0  0  0
    2.1459   -0.7589    2.6067 H   0  0  0  0  0  0  0  0  0  0  0  0
    1.3461    0.6635    2.6520 H   0  0  0  0  0  0  0  0  0  0  0  0
    2.0376    0.0576    4.4952 C   0  0  0  0  0  0  0  0  0  0  0  0
    1.3121   -0.1112    5.1675 H   0  0  0  0  0  0  0  0  0  0  0  0
    2.7953   -0.5772    4.6704 H   0  0  0  0  0  0  0  0  0  0  0  0
    2.3927    1.0836    4.5921 H   0  0  0  0  0  0  0  0  0  0  0  0
  1  5  1  0
  5  6  1  0
  5  7  2  0
  1  2  1  0
  1  3  1  0
  1  4  1  0
  8 12  1  0
 12 15  1  0
  8  9  1  0
  8 10  1  0
  8 11  1  0
 12 13  1  0
 12 14  1  0
 15 16  1  0
 15 17  1  0
 15 18  1  0
M  CHG  1   6  -1
M  END
>  <PDB_ID>  (458) 
pdb2c0n

>  <RESIDUE_NAME>  (458) 
ASP   LYS

>  <FRAG_NAME>  (458) 
ACET   PRPA

>  <FRAG_ATOM_NUM>  (458) 
fragi: 7  fragj: 11

>  <atom.prop.CHAIN_ID>  (458) 
A A A A A A A Z Z Z Z Z Z Z Z Z Z Z

>  <atom.prop.IS_HEAVY_ATOM>  (458) 
1 0 0 0 1 1 1 1 0 0 0 1 0 0 1 0 0 0

>  <DIFUSE_FUNC_ATOM>  (458) 
atom 6   atom 7   

>  <FINAL_SINGLE_POINT_ENERGY>  (458) 
0

>  <NONCOV_INTER_ENERGY_QM>  (458) 
0

>  <FF_Energy>  (458) 
0.8

>  <QM_Energy>  (458) 
-4.35

>  <Index>  (458) 
32204

$$$$
ACET-pdb1aqd-J-ASP-35:PRPA-pdb1aqd-J-LYS-38
     RDKit          3D

 18 16  0  0  0  0  0  0  0  0999 V2000
    0.0315    1.5534    0.0037 C   0  0  0  0  0  0  0  0  0  0  0  0
    0.8597    1.8430   -0.4574 H   0  0  0  0  0  0  0  0  0  0  0  0
    0.0255    1.8565    0.9459 H   0  0  0  0  0  0  0  0  0  0  0  0
   -0.8212    2.0008   -0.5072 H   0  0  0  0  0  0  0  0  0  0  0  0
    0.0000    0.0000    0.0000 C   0  0  0  0  0  0  0  0  0  0  0  0
   -1.0897   -0.6156    0.0000 O   0  0  0  0  0  1  0  0  0  0  0  0
    1.0897   -0.6202    0.0000 O   0  0  0  0  0  0  0  0  0  0  0  0
    0.5388   -0.5498    3.3284 C   0  0  0  0  0  0  0  0  0  0  0  0
    0.5206    0.1065    2.5683 H   0  0  0  0  0  0  0  0  0  0  0  0
    1.0827   -0.1569    4.0779 H   0  0  0  0  0  0  0  0  0  0  0  0
   -0.4827   -0.6773    3.6865 H   0  0  0  0  0  0  0  0  0  0  0  0
    1.1740   -1.7995    2.8732 C   0  0  0  0  0  0  0  0  0  0  0  0
    1.0432   -2.5181    3.5535 H   0  0  0  0  0  0  0  0  0  0  0  0
    0.7840   -2.0848    2.0009 H   0  0  0  0  0  0  0  0  0  0  0  0
    2.6434   -1.5647    2.6936 C   0  0  0  0  0  0  0  0  0  0  0  0
    2.7770   -0.7849    2.0989 H   0  0  0  0  0  0  0  0  0  0  0  0
    3.0595   -1.4161    3.5791 H   0  0  0  0  0  0  0  0  0  0  0  0
    3.0858   -2.4480    2.2330 H   0  0  0  0  0  0  0  0  0  0  0  0
  1  5  1  0
  5  6  1  0
  5  7  2  0
  1  2  1  0
  1  3  1  0
  1  4  1  0
  8 12  1  0
 12 15  1  0
  8  9  1  0
  8 10  1  0
  8 11  1  0
 12 13  1  0
 12 14  1  0
 15 16  1  0
 15 17  1  0
 15 18  1  0
M  CHG  1   6  -1
M  END
>  <PDB_ID>  (459) 
pdb1aqd

>  <RESIDUE_NAME>  (459) 
ASP   LYS

>  <FRAG_NAME>  (459) 
ACET   PRPA

>  <FRAG_ATOM_NUM>  (459) 
fragi: 7  fragj: 11

>  <atom.prop.CHAIN_ID>  (459) 
A A A A A A A Z Z Z Z Z Z Z Z Z Z Z

>  <atom.prop.IS_HEAVY_ATOM>  (459) 
1 0 0 0 1 1 1 1 0 0 0 1 0 0 1 0 0 0

>  <DIFUSE_FUNC_ATOM>  (459) 
atom 6   atom 7   

>  <FINAL_SINGLE_POINT_ENERGY>  (459) 
0

>  <NONCOV_INTER_ENERGY_QM>  (459) 
0

>  <FF_Energy>  (459) 
1.41

>  <QM_Energy>  (459) 
-5.64

>  <Index>  (459) 
32253

$$$$
ACET-pdb2c2c-A-GLU-1:PRPA-pdb2c2c-A-GLU-102
     RDKit          3D

 18 16  0  0  0  0  0  0  0  0999 V2000
    0.2881    1.4723    0.0130 C   0  0  0  0  0  0  0  0  0  0  0  0
    0.8044    1.6764   -0.8048 H   0  0  0  0  0  0  0  0  0  0  0  0
    0.8162    1.6595    0.8269 H   0  0  0  0  0  0  0  0  0  0  0  0
   -0.6197    2.0755    0.0242 H   0  0  0  0  0  0  0  0  0  0  0  0
    0.0000    0.0000    0.0000 C   0  0  0  0  0  0  0  0  0  0  0  0
   -1.0838   -0.5344   -0.0000 O   0  0  0  0  0  1  0  0  0  0  0  0
    1.0838   -0.6707    0.0000 O   0  0  0  0  0  0  0  0  0  0  0  0
   -5.5185    0.5081    0.5873 C   0  0  0  0  0  0  0  0  0  0  0  0
   -5.0955    0.2681    1.4503 H   0  0  0  0  0  0  0  0  0  0  0  0
   -6.2396   -0.2625    0.3150 H   0  0  0  0  0  0  0  0  0  0  0  0
   -6.0331    1.4636    0.6886 H   0  0  0  0  0  0  0  0  0  0  0  0
   -4.4095    0.4656   -0.5119 C   0  0  0  0  0  0  0  0  0  0  0  0
   -4.8714    0.6574   -1.3838 H   0  0  0  0  0  0  0  0  0  0  0  0
   -3.7817    1.2231   -0.3074 H   0  0  0  0  0  0  0  0  0  0  0  0
   -3.5880   -0.7869   -0.6848 C   0  0  0  0  0  0  0  0  0  0  0  0
   -3.1305   -0.9754    0.1896 H   0  0  0  0  0  0  0  0  0  0  0  0
   -4.2195   -1.5418   -0.8867 H   0  0  0  0  0  0  0  0  0  0  0  0
   -2.8255   -0.7735   -1.4635 H   0  0  0  0  0  0  0  0  0  0  0  0
  1  5  1  0
  5  6  1  0
  5  7  2  0
  1  2  1  0
  1  3  1  0
  1  4  1  0
  8 12  1  0
 12 15  1  0
  8  9  1  0
  8 10  1  0
  8 11  1  0
 12 13  1  0
 12 14  1  0
 15 16  1  0
 15 17  1  0
 15 18  1  0
M  CHG  1   6  -1
M  END
>  <PDB_ID>  (460) 
pdb2c2c

>  <RESIDUE_NAME>  (460) 
GLU   GLU

>  <FRAG_NAME>  (460) 
ACET   PRPA

>  <FRAG_ATOM_NUM>  (460) 
fragi: 7  fragj: 11

>  <atom.prop.CHAIN_ID>  (460) 
A A A A A A A Z Z Z Z Z Z Z Z Z Z Z

>  <atom.prop.IS_HEAVY_ATOM>  (460) 
1 0 0 0 1 1 1 1 0 0 0 1 0 0 1 0 0 0

>  <DIFUSE_FUNC_ATOM>  (460) 
atom 6   atom 7   

>  <FINAL_SINGLE_POINT_ENERGY>  (460) 
0

>  <NONCOV_INTER_ENERGY_QM>  (460) 
0

>  <FF_Energy>  (460) 
10.93

>  <QM_Energy>  (460) 
1.74

>  <Index>  (460) 
32335

$$$$
ACET-pdb1b7y-A-GLU-168:PRPA-pdb1b7y-A-ARG-160
     RDKit          3D

 18 16  0  0  0  0  0  0  0  0999 V2000
    0.0165    1.5226   -0.0068 C   0  0  0  0  0  0  0  0  0  0  0  0
    0.9432    1.8052   -0.1625 H   0  0  0  0  0  0  0  0  0  0  0  0
   -0.3284    1.8235    0.8614 H   0  0  0  0  0  0  0  0  0  0  0  0
   -0.6103    1.9421   -0.7937 H   0  0  0  0  0  0  0  0  0  0  0  0
    0.0000    0.0000    0.0000 C   0  0  0  0  0  0  0  0  0  0  0  0
   -1.1012   -0.6064    0.0000 O   0  0  0  0  0  1  0  0  0  0  0  0
    1.1012   -0.5868   -0.0000 O   0  0  0  0  0  0  0  0  0  0  0  0
    1.9612   -0.1290    4.3236 C   0  0  0  0  0  0  0  0  0  0  0  0
    2.1577    0.6466    3.6929 H   0  0  0  0  0  0  0  0  0  0  0  0
    2.7594   -0.1918    5.0632 H   0  0  0  0  0  0  0  0  0  0  0  0
    0.9729    0.0279    4.7557 H   0  0  0  0  0  0  0  0  0  0  0  0
    1.9580   -1.3957    3.4709 C   0  0  0  0  0  0  0  0  0  0  0  0
    2.3704   -2.1295    3.9997 H   0  0  0  0  0  0  0  0  0  0  0  0
    1.0157   -1.6194    3.2467 H   0  0  0  0  0  0  0  0  0  0  0  0
    2.7320   -1.2591    2.1700 C   0  0  0  0  0  0  0  0  0  0  0  0
    2.1393   -0.8714    1.4684 H   0  0  0  0  0  0  0  0  0  0  0  0
    3.5222   -0.6681    2.3133 H   0  0  0  0  0  0  0  0  0  0  0  0
    3.0924   -2.2244    1.8142 H   0  0  0  0  0  0  0  0  0  0  0  0
  1  5  1  0
  5  6  1  0
  5  7  2  0
  1  2  1  0
  1  3  1  0
  1  4  1  0
  8 12  1  0
 12 15  1  0
  8  9  1  0
  8 10  1  0
  8 11  1  0
 12 13  1  0
 12 14  1  0
 15 16  1  0
 15 17  1  0
 15 18  1  0
M  CHG  1   6  -1
M  END
>  <PDB_ID>  (461) 
pdb1b7y

>  <RESIDUE_NAME>  (461) 
GLU   ARG

>  <FRAG_NAME>  (461) 
ACET   PRPA

>  <FRAG_ATOM_NUM>  (461) 
fragi: 7  fragj: 11

>  <atom.prop.CHAIN_ID>  (461) 
A A A A A A A Z Z Z Z Z Z Z Z Z Z Z

>  <atom.prop.IS_HEAVY_ATOM>  (461) 
1 0 0 0 1 1 1 1 0 0 0 1 0 0 1 0 0 0

>  <DIFUSE_FUNC_ATOM>  (461) 
atom 6   atom 7   

>  <FINAL_SINGLE_POINT_ENERGY>  (461) 
0

>  <NONCOV_INTER_ENERGY_QM>  (461) 
0

>  <FF_Energy>  (461) 
37.86

>  <QM_Energy>  (461) 
-0.42

>  <Index>  (461) 
32519

$$$$
ACET-pdb1bea-A-ASP-82:PRPA-pdb1bea-A-PRO-87
     RDKit          3D

 18 16  0  0  0  0  0  0  0  0999 V2000
    0.0017    1.5005    0.0102 C   0  0  0  0  0  0  0  0  0  0  0  0
   -0.8110    1.8277   -0.4621 H   0  0  0  0  0  0  0  0  0  0  0  0
    0.8206    1.8261   -0.4514 H   0  0  0  0  0  0  0  0  0  0  0  0
   -0.0051    1.9106    1.0202 H   0  0  0  0  0  0  0  0  0  0  0  0
    0.0000    0.0000    0.0000 C   0  0  0  0  0  0  0  0  0  0  0  0
   -1.0965   -0.5910   -0.0000 O   0  0  0  0  0  1  0  0  0  0  0  0
    1.0965   -0.5895   -0.0000 O   0  0  0  0  0  0  0  0  0  0  0  0
    3.3400   -1.2186    1.6282 C   0  0  0  0  0  0  0  0  0  0  0  0
    2.6716   -0.7948    0.9764 H   0  0  0  0  0  0  0  0  0  0  0  0
    4.2451   -0.6139    1.6847 H   0  0  0  0  0  0  0  0  0  0  0  0
    2.8615   -1.4158    2.5875 H   0  0  0  0  0  0  0  0  0  0  0  0
    3.8035   -2.5021    0.9347 C   0  0  0  0  0  0  0  0  0  0  0  0
    3.3597   -3.3049    1.3504 H   0  0  0  0  0  0  0  0  0  0  0  0
    3.5637   -2.4789   -0.0431 H   0  0  0  0  0  0  0  0  0  0  0  0
    5.2688   -2.5366    1.1294 C   0  0  0  0  0  0  0  0  0  0  0  0
    5.5051   -3.0242    1.9863 H   0  0  0  0  0  0  0  0  0  0  0  0
    5.7192   -3.0317    0.3685 H   0  0  0  0  0  0  0  0  0  0  0  0
    5.6084   -1.5016    1.1691 H   0  0  0  0  0  0  0  0  0  0  0  0
  1  5  1  0
  5  6  1  0
  5  7  2  0
  1  2  1  0
  1  3  1  0
  1  4  1  0
  8 12  1  0
 12 15  1  0
  8  9  1  0
  8 10  1  0
  8 11  1  0
 12 13  1  0
 12 14  1  0
 15 16  1  0
 15 17  1  0
 15 18  1  0
M  CHG  1   6  -1
M  END
>  <PDB_ID>  (462) 
pdb1bea

>  <RESIDUE_NAME>  (462) 
ASP   PRO

>  <FRAG_NAME>  (462) 
ACET   PRPA

>  <FRAG_ATOM_NUM>  (462) 
fragi: 7  fragj: 11

>  <atom.prop.CHAIN_ID>  (462) 
A A A A A A A Z Z Z Z Z Z Z Z Z Z Z

>  <atom.prop.IS_HEAVY_ATOM>  (462) 
1 0 0 0 1 1 1 1 0 0 0 1 0 0 1 0 0 0

>  <DIFUSE_FUNC_ATOM>  (462) 
atom 6   atom 7   

>  <FINAL_SINGLE_POINT_ENERGY>  (462) 
0

>  <NONCOV_INTER_ENERGY_QM>  (462) 
0

>  <FF_Energy>  (462) 
27.67

>  <QM_Energy>  (462) 
-1.38

>  <Index>  (462) 
32551

$$$$
ACET-pdb2bht-B-GLU-5:PRPA-pdb2bht-B-LEU-82
     RDKit          3D

 18 16  0  0  0  0  0  0  0  0999 V2000
   -0.0060    1.5159    0.0193 C   0  0  0  0  0  0  0  0  0  0  0  0
    0.9245    1.8172   -0.0753 H   0  0  0  0  0  0  0  0  0  0  0  0
   -0.4054    1.7998    0.8717 H   0  0  0  0  0  0  0  0  0  0  0  0
   -0.5901    1.9445   -0.7949 H   0  0  0  0  0  0  0  0  0  0  0  0
    0.0000    0.0000    0.0000 C   0  0  0  0  0  0  0  0  0  0  0  0
   -1.0960   -0.5999   -0.0000 O   0  0  0  0  0  1  0  0  0  0  0  0
    1.0960   -0.5971    0.0000 O   0  0  0  0  0  0  0  0  0  0  0  0
   -0.5170   -1.9759    3.8772 C   0  0  0  0  0  0  0  0  0  0  0  0
   -1.0239   -1.5998    4.6534 H   0  0  0  0  0  0  0  0  0  0  0  0
    0.3877   -1.5540    3.8334 H   0  0  0  0  0  0  0  0  0  0  0  0
   -0.3770   -3.0415    4.0590 H   0  0  0  0  0  0  0  0  0  0  0  0
   -1.2686   -1.5791    2.6069 C   0  0  0  0  0  0  0  0  0  0  0  0
   -0.6183   -1.1821    1.9549 H   0  0  0  0  0  0  0  0  0  0  0  0
   -1.7558   -2.4412    2.1516 H   0  0  0  0  0  0  0  0  0  0  0  0
   -2.2837   -0.4837    2.8998 C   0  0  0  0  0  0  0  0  0  0  0  0
   -1.8120    0.3223    3.2603 H   0  0  0  0  0  0  0  0  0  0  0  0
   -2.7638   -0.2388    2.0572 H   0  0  0  0  0  0  0  0  0  0  0  0
   -2.9452   -0.8117    3.5756 H   0  0  0  0  0  0  0  0  0  0  0  0
  1  5  1  0
  5  6  1  0
  5  7  2  0
  1  2  1  0
  1  3  1  0
  1  4  1  0
  8 12  1  0
 12 15  1  0
  8  9  1  0
  8 10  1  0
  8 11  1  0
 12 13  1  0
 12 14  1  0
 15 16  1  0
 15 17  1  0
 15 18  1  0
M  CHG  1   6  -1
M  END
>  <PDB_ID>  (463) 
pdb2bht

>  <RESIDUE_NAME>  (463) 
GLU   LEU

>  <FRAG_NAME>  (463) 
ACET   PRPA

>  <FRAG_ATOM_NUM>  (463) 
fragi: 7  fragj: 11

>  <atom.prop.CHAIN_ID>  (463) 
A A A A A A A Z Z Z Z Z Z Z Z Z Z Z

>  <atom.prop.IS_HEAVY_ATOM>  (463) 
1 0 0 0 1 1 1 1 0 0 0 1 0 0 1 0 0 0

>  <DIFUSE_FUNC_ATOM>  (463) 
atom 6   atom 7   

>  <FINAL_SINGLE_POINT_ENERGY>  (463) 
0

>  <NONCOV_INTER_ENERGY_QM>  (463) 
0

>  <FF_Energy>  (463) 
12.05

>  <QM_Energy>  (463) 
-1.44

>  <Index>  (463) 
32561

$$$$
ACET-pdb2bht-B-GLU-5:PRPA-pdb2bht-B-LEU-82
     RDKit          3D

 18 16  0  0  0  0  0  0  0  0999 V2000
   -0.0060    1.5159    0.0193 C   0  0  0  0  0  0  0  0  0  0  0  0
    0.9245    1.8172   -0.0753 H   0  0  0  0  0  0  0  0  0  0  0  0
   -0.4054    1.7998    0.8717 H   0  0  0  0  0  0  0  0  0  0  0  0
   -0.5901    1.9445   -0.7949 H   0  0  0  0  0  0  0  0  0  0  0  0
    0.0000    0.0000    0.0000 C   0  0  0  0  0  0  0  0  0  0  0  0
   -1.0960   -0.5999   -0.0000 O   0  0  0  0  0  1  0  0  0  0  0  0
    1.0960   -0.5971    0.0000 O   0  0  0  0  0  0  0  0  0  0  0  0
   -0.3201   -3.4740    4.1328 C   0  0  0  0  0  0  0  0  0  0  0  0
   -0.9972   -3.9813    3.5806 H   0  0  0  0  0  0  0  0  0  0  0  0
   -0.4866   -3.7035    5.1853 H   0  0  0  0  0  0  0  0  0  0  0  0
    0.6773   -3.7711    3.8086 H   0  0  0  0  0  0  0  0  0  0  0  0
   -0.5170   -1.9759    3.8772 C   0  0  0  0  0  0  0  0  0  0  0  0
   -1.0239   -1.5998    4.6534 H   0  0  0  0  0  0  0  0  0  0  0  0
    0.3877   -1.5540    3.8334 H   0  0  0  0  0  0  0  0  0  0  0  0
   -1.2686   -1.5791    2.6069 C   0  0  0  0  0  0  0  0  0  0  0  0
   -0.6183   -1.1821    1.9549 H   0  0  0  0  0  0  0  0  0  0  0  0
   -1.7558   -2.4412    2.1516 H   0  0  0  0  0  0  0  0  0  0  0  0
   -1.9957   -0.7945    2.8166 H   0  0  0  0  0  0  0  0  0  0  0  0
  1  5  1  0
  5  6  1  0
  5  7  2  0
  1  2  1  0
  1  3  1  0
  1  4  1  0
  8 12  1  0
 12 15  1  0
  8  9  1  0
  8 10  1  0
  8 11  1  0
 12 13  1  0
 12 14  1  0
 15 16  1  0
 15 17  1  0
 15 18  1  0
M  CHG  1   6  -1
M  END
>  <PDB_ID>  (464) 
pdb2bht

>  <RESIDUE_NAME>  (464) 
GLU   LEU

>  <FRAG_NAME>  (464) 
ACET   PRPA

>  <FRAG_ATOM_NUM>  (464) 
fragi: 7  fragj: 11

>  <atom.prop.CHAIN_ID>  (464) 
A A A A A A A Z Z Z Z Z Z Z Z Z Z Z

>  <atom.prop.IS_HEAVY_ATOM>  (464) 
1 0 0 0 1 1 1 1 0 0 0 1 0 0 1 0 0 0

>  <DIFUSE_FUNC_ATOM>  (464) 
atom 6   atom 7   

>  <FINAL_SINGLE_POINT_ENERGY>  (464) 
0

>  <NONCOV_INTER_ENERGY_QM>  (464) 
0

>  <FF_Energy>  (464) 
11.97

>  <QM_Energy>  (464) 
-0.05

>  <Index>  (464) 
32564

$$$$
ACET-pdb2bht-B-GLU-5:PRPA-pdb2bht-B-LEU-82
     RDKit          3D

 18 16  0  0  0  0  0  0  0  0999 V2000
   -0.0060    1.5159    0.0193 C   0  0  0  0  0  0  0  0  0  0  0  0
    0.9245    1.8172   -0.0753 H   0  0  0  0  0  0  0  0  0  0  0  0
   -0.4054    1.7998    0.8717 H   0  0  0  0  0  0  0  0  0  0  0  0
   -0.5901    1.9445   -0.7949 H   0  0  0  0  0  0  0  0  0  0  0  0
    0.0000    0.0000    0.0000 C   0  0  0  0  0  0  0  0  0  0  0  0
   -1.0960   -0.5999   -0.0000 O   0  0  0  0  0  1  0  0  0  0  0  0
    1.0960   -0.5971    0.0000 O   0  0  0  0  0  0  0  0  0  0  0  0
   -0.5170   -1.9759    3.8772 C   0  0  0  0  0  0  0  0  0  0  0  0
   -1.0239   -1.5998    4.6534 H   0  0  0  0  0  0  0  0  0  0  0  0
    0.3877   -1.5540    3.8334 H   0  0  0  0  0  0  0  0  0  0  0  0
   -0.3770   -3.0415    4.0590 H   0  0  0  0  0  0  0  0  0  0  0  0
   -1.2686   -1.5791    2.6069 C   0  0  0  0  0  0  0  0  0  0  0  0
   -0.6183   -1.1821    1.9549 H   0  0  0  0  0  0  0  0  0  0  0  0
   -1.9957   -0.7945    2.8166 H   0  0  0  0  0  0  0  0  0  0  0  0
   -1.9485   -2.7823    1.9715 C   0  0  0  0  0  0  0  0  0  0  0  0
   -2.6016   -3.1779    2.6180 H   0  0  0  0  0  0  0  0  0  0  0  0
   -2.4322   -2.4955    1.1439 H   0  0  0  0  0  0  0  0  0  0  0  0
   -1.2606   -3.4686    1.7335 H   0  0  0  0  0  0  0  0  0  0  0  0
  1  5  1  0
  5  6  1  0
  5  7  2  0
  1  2  1  0
  1  3  1  0
  1  4  1  0
  8 12  1  0
 12 15  1  0
  8  9  1  0
  8 10  1  0
  8 11  1  0
 12 13  1  0
 12 14  1  0
 15 16  1  0
 15 17  1  0
 15 18  1  0
M  CHG  1   6  -1
M  END
>  <PDB_ID>  (465) 
pdb2bht

>  <RESIDUE_NAME>  (465) 
GLU   LEU

>  <FRAG_NAME>  (465) 
ACET   PRPA

>  <FRAG_ATOM_NUM>  (465) 
fragi: 7  fragj: 11

>  <atom.prop.CHAIN_ID>  (465) 
A A A A A A A Z Z Z Z Z Z Z Z Z Z Z

>  <atom.prop.IS_HEAVY_ATOM>  (465) 
1 0 0 0 1 1 1 1 0 0 0 1 0 0 1 0 0 0

>  <DIFUSE_FUNC_ATOM>  (465) 
atom 6   atom 7   

>  <FINAL_SINGLE_POINT_ENERGY>  (465) 
0

>  <NONCOV_INTER_ENERGY_QM>  (465) 
0

>  <FF_Energy>  (465) 
12.63

>  <QM_Energy>  (465) 
-1.83

>  <Index>  (465) 
32565

$$$$
ACET-pdb2bht-B-GLU-5:PRPA-pdb2bht-B-LEU-82
     RDKit          3D

 18 16  0  0  0  0  0  0  0  0999 V2000
   -0.0060    1.5159    0.0193 C   0  0  0  0  0  0  0  0  0  0  0  0
    0.9245    1.8172   -0.0753 H   0  0  0  0  0  0  0  0  0  0  0  0
   -0.4054    1.7998    0.8717 H   0  0  0  0  0  0  0  0  0  0  0  0
   -0.5901    1.9445   -0.7949 H   0  0  0  0  0  0  0  0  0  0  0  0
    0.0000    0.0000    0.0000 C   0  0  0  0  0  0  0  0  0  0  0  0
   -1.0960   -0.5999   -0.0000 O   0  0  0  0  0  1  0  0  0  0  0  0
    1.0960   -0.5971    0.0000 O   0  0  0  0  0  0  0  0  0  0  0  0
   -1.9485   -2.7823    1.9715 C   0  0  0  0  0  0  0  0  0  0  0  0
   -2.6016   -3.1779    2.6180 H   0  0  0  0  0  0  0  0  0  0  0  0
   -2.4322   -2.4955    1.1439 H   0  0  0  0  0  0  0  0  0  0  0  0
   -1.2606   -3.4686    1.7335 H   0  0  0  0  0  0  0  0  0  0  0  0
   -1.2686   -1.5791    2.6069 C   0  0  0  0  0  0  0  0  0  0  0  0
   -0.6183   -1.1821    1.9549 H   0  0  0  0  0  0  0  0  0  0  0  0
   -0.7325   -1.8621    3.5129 H   0  0  0  0  0  0  0  0  0  0  0  0
   -2.2837   -0.4837    2.8998 C   0  0  0  0  0  0  0  0  0  0  0  0
   -1.8120    0.3223    3.2603 H   0  0  0  0  0  0  0  0  0  0  0  0
   -2.7638   -0.2388    2.0572 H   0  0  0  0  0  0  0  0  0  0  0  0
   -2.9452   -0.8117    3.5756 H   0  0  0  0  0  0  0  0  0  0  0  0
  1  5  1  0
  5  6  1  0
  5  7  2  0
  1  2  1  0
  1  3  1  0
  1  4  1  0
  8 12  1  0
 12 15  1  0
  8  9  1  0
  8 10  1  0
  8 11  1  0
 12 13  1  0
 12 14  1  0
 15 16  1  0
 15 17  1  0
 15 18  1  0
M  CHG  1   6  -1
M  END
>  <PDB_ID>  (466) 
pdb2bht

>  <RESIDUE_NAME>  (466) 
GLU   LEU

>  <FRAG_NAME>  (466) 
ACET   PRPA

>  <FRAG_ATOM_NUM>  (466) 
fragi: 7  fragj: 11

>  <atom.prop.CHAIN_ID>  (466) 
A A A A A A A Z Z Z Z Z Z Z Z Z Z Z

>  <atom.prop.IS_HEAVY_ATOM>  (466) 
1 0 0 0 1 1 1 1 0 0 0 1 0 0 1 0 0 0

>  <DIFUSE_FUNC_ATOM>  (466) 
atom 6   atom 7   

>  <FINAL_SINGLE_POINT_ENERGY>  (466) 
0

>  <NONCOV_INTER_ENERGY_QM>  (466) 
0

>  <FF_Energy>  (466) 
13.19

>  <QM_Energy>  (466) 
-3.04

>  <Index>  (466) 
32601

$$$$
ACET-pdb2btu-A-ASP-201:PRPA-pdb2btu-A-VAL-197
     RDKit          3D

 18 16  0  0  0  0  0  0  0  0999 V2000
    0.0380    1.5155   -0.0186 C   0  0  0  0  0  0  0  0  0  0  0  0
    0.5290    1.8144   -0.8361 H   0  0  0  0  0  0  0  0  0  0  0  0
    0.5180    1.8358    0.7962 H   0  0  0  0  0  0  0  0  0  0  0  0
   -0.9455    1.9852   -0.0315 H   0  0  0  0  0  0  0  0  0  0  0  0
    0.0000    0.0000    0.0000 C   0  0  0  0  0  0  0  0  0  0  0  0
   -1.0950   -0.5991    0.0000 O   0  0  0  0  0  1  0  0  0  0  0  0
    1.0950   -0.5853    0.0000 O   0  0  0  0  0  0  0  0  0  0  0  0
    2.4867    0.9503    4.4013 C   0  0  0  0  0  0  0  0  0  0  0  0
    2.6767    0.1263    4.9358 H   0  0  0  0  0  0  0  0  0  0  0  0
    2.9335    0.8765    3.5093 H   0  0  0  0  0  0  0  0  0  0  0  0
    2.8455    1.7484    4.8863 H   0  0  0  0  0  0  0  0  0  0  0  0
    0.9887    1.1001    4.2107 C   0  0  0  0  0  0  0  0  0  0  0  0
    0.6101    1.3977    5.0936 H   0  0  0  0  0  0  0  0  0  0  0  0
    0.4989    0.1650    3.9394 H   0  0  0  0  0  0  0  0  0  0  0  0
    0.6427    2.1544    3.1572 C   0  0  0  0  0  0  0  0  0  0  0  0
    0.3126    2.9777    3.6159 H   0  0  0  0  0  0  0  0  0  0  0  0
    1.4612    2.3659    2.6267 H   0  0  0  0  0  0  0  0  0  0  0  0
   -0.0676    1.7936    2.5556 H   0  0  0  0  0  0  0  0  0  0  0  0
  1  5  1  0
  5  6  1  0
  5  7  2  0
  1  2  1  0
  1  3  1  0
  1  4  1  0
  8 12  1  0
 12 15  1  0
  8  9  1  0
  8 10  1  0
  8 11  1  0
 12 13  1  0
 12 14  1  0
 15 16  1  0
 15 17  1  0
 15 18  1  0
M  CHG  1   6  -1
M  END
>  <PDB_ID>  (467) 
pdb2btu

>  <RESIDUE_NAME>  (467) 
ASP   VAL

>  <FRAG_NAME>  (467) 
ACET   PRPA

>  <FRAG_ATOM_NUM>  (467) 
fragi: 7  fragj: 11

>  <atom.prop.CHAIN_ID>  (467) 
A A A A A A A Z Z Z Z Z Z Z Z Z Z Z

>  <atom.prop.IS_HEAVY_ATOM>  (467) 
1 0 0 0 1 1 1 1 0 0 0 1 0 0 1 0 0 0

>  <DIFUSE_FUNC_ATOM>  (467) 
atom 6   atom 7   

>  <FINAL_SINGLE_POINT_ENERGY>  (467) 
0

>  <NONCOV_INTER_ENERGY_QM>  (467) 
0

>  <FF_Energy>  (467) 
5.83

>  <QM_Energy>  (467) 
0.39

>  <Index>  (467) 
32687

$$$$
ACET-pdb1bd9-A-ASP-174:PRPA-pdb1bd9-A-PRO-43
     RDKit          3D

 18 16  0  0  0  0  0  0  0  0999 V2000
    0.0208    1.5008    0.0198 C   0  0  0  0  0  0  0  0  0  0  0  0
    0.4918    1.8249   -0.8208 H   0  0  0  0  0  0  0  0  0  0  0  0
    0.5864    1.8031    0.8082 H   0  0  0  0  0  0  0  0  0  0  0  0
   -0.9397    2.0123    0.0825 H   0  0  0  0  0  0  0  0  0  0  0  0
    0.0000    0.0000    0.0000 C   0  0  0  0  0  0  0  0  0  0  0  0
   -1.0977   -0.5987    0.0000 O   0  0  0  0  0  1  0  0  0  0  0  0
    1.0977   -0.6264   -0.0000 O   0  0  0  0  0  0  0  0  0  0  0  0
   -1.0687   -2.4054    2.7610 C   0  0  0  0  0  0  0  0  0  0  0  0
   -1.1275   -2.2261    1.7871 H   0  0  0  0  0  0  0  0  0  0  0  0
   -1.8756   -2.8840    3.0802 H   0  0  0  0  0  0  0  0  0  0  0  0
   -0.1623   -2.9605    3.0023 H   0  0  0  0  0  0  0  0  0  0  0  0
   -0.8740   -1.1158    3.5301 C   0  0  0  0  0  0  0  0  0  0  0  0
   -1.4481   -0.3969    3.1556 H   0  0  0  0  0  0  0  0  0  0  0  0
   -1.0709   -1.2519    4.4941 H   0  0  0  0  0  0  0  0  0  0  0  0
    0.6065   -0.7857    3.3238 C   0  0  0  0  0  0  0  0  0  0  0  0
    0.7531   -0.3366    2.4583 H   0  0  0  0  0  0  0  0  0  0  0  0
    0.9599   -0.2538    4.0758 H   0  0  0  0  0  0  0  0  0  0  0  0
    1.0412   -1.7853    3.3189 H   0  0  0  0  0  0  0  0  0  0  0  0
  1  5  1  0
  5  6  1  0
  5  7  2  0
  1  2  1  0
  1  3  1  0
  1  4  1  0
  8 12  1  0
 12 15  1  0
  8  9  1  0
  8 10  1  0
  8 11  1  0
 12 13  1  0
 12 14  1  0
 15 16  1  0
 15 17  1  0
 15 18  1  0
M  CHG  1   6  -1
M  END
>  <PDB_ID>  (468) 
pdb1bd9

>  <RESIDUE_NAME>  (468) 
ASP   PRO

>  <FRAG_NAME>  (468) 
ACET   PRPA

>  <FRAG_ATOM_NUM>  (468) 
fragi: 7  fragj: 11

>  <atom.prop.CHAIN_ID>  (468) 
A A A A A A A Z Z Z Z Z Z Z Z Z Z Z

>  <atom.prop.IS_HEAVY_ATOM>  (468) 
1 0 0 0 1 1 1 1 0 0 0 1 0 0 1 0 0 0

>  <DIFUSE_FUNC_ATOM>  (468) 
atom 6   atom 7   

>  <FINAL_SINGLE_POINT_ENERGY>  (468) 
0

>  <NONCOV_INTER_ENERGY_QM>  (468) 
0

>  <FF_Energy>  (468) 
1.15

>  <QM_Energy>  (468) 
-5.5

>  <Index>  (468) 
32751

$$$$
ACET-pdb1b7t-A-ASP-157:PRPA-pdb1b7t-A-ARG-141
     RDKit          3D

 18 16  0  0  0  0  0  0  0  0999 V2000
   -0.0007    1.5172   -0.0082 C   0  0  0  0  0  0  0  0  0  0  0  0
    0.9324    1.8369    0.0949 H   0  0  0  0  0  0  0  0  0  0  0  0
   -0.5670    1.8401    0.7391 H   0  0  0  0  0  0  0  0  0  0  0  0
   -0.3981    1.9261   -0.9371 H   0  0  0  0  0  0  0  0  0  0  0  0
    0.0000    0.0000    0.0000 C   0  0  0  0  0  0  0  0  0  0  0  0
   -1.1005   -0.5970   -0.0000 O   0  0  0  0  0  1  0  0  0  0  0  0
    1.1005   -0.5942    0.0000 O   0  0  0  0  0  0  0  0  0  0  0  0
    2.7642   -2.6700    1.4472 C   0  0  0  0  0  0  0  0  0  0  0  0
    2.5147   -2.0433    0.6923 H   0  0  0  0  0  0  0  0  0  0  0  0
    3.2936   -2.1071    2.2159 H   0  0  0  0  0  0  0  0  0  0  0  0
    1.8494   -3.1312    1.8192 H   0  0  0  0  0  0  0  0  0  0  0  0
    3.6710   -3.7719    0.8935 C   0  0  0  0  0  0  0  0  0  0  0  0
    4.6052   -3.5745    1.1669 H   0  0  0  0  0  0  0  0  0  0  0  0
    3.3741   -4.6410    1.2713 H   0  0  0  0  0  0  0  0  0  0  0  0
    3.6395   -3.8852   -0.6290 C   0  0  0  0  0  0  0  0  0  0  0  0
    3.0021   -4.6071   -0.8943 H   0  0  0  0  0  0  0  0  0  0  0  0
    3.3444   -3.0148   -1.0203 H   0  0  0  0  0  0  0  0  0  0  0  0
    4.6170   -4.1274   -1.0460 H   0  0  0  0  0  0  0  0  0  0  0  0
  1  5  1  0
  5  6  1  0
  5  7  2  0
  1  2  1  0
  1  3  1  0
  1  4  1  0
  8 12  1  0
 12 15  1  0
  8  9  1  0
  8 10  1  0
  8 11  1  0
 12 13  1  0
 12 14  1  0
 15 16  1  0
 15 17  1  0
 15 18  1  0
M  CHG  1   6  -1
M  END
>  <PDB_ID>  (469) 
pdb1b7t

>  <RESIDUE_NAME>  (469) 
ASP   ARG

>  <FRAG_NAME>  (469) 
ACET   PRPA

>  <FRAG_ATOM_NUM>  (469) 
fragi: 7  fragj: 11

>  <atom.prop.CHAIN_ID>  (469) 
A A A A A A A Z Z Z Z Z Z Z Z Z Z Z

>  <atom.prop.IS_HEAVY_ATOM>  (469) 
1 0 0 0 1 1 1 1 0 0 0 1 0 0 1 0 0 0

>  <DIFUSE_FUNC_ATOM>  (469) 
atom 6   atom 7   

>  <FINAL_SINGLE_POINT_ENERGY>  (469) 
0

>  <NONCOV_INTER_ENERGY_QM>  (469) 
0

>  <FF_Energy>  (469) 
3.82

>  <QM_Energy>  (469) 
-2.36

>  <Index>  (469) 
33109

$$$$
ACET-pdb1b9c-A-ASP-82:PRPA-pdb1b9c-A-LYS-85
     RDKit          3D

 18 16  0  0  0  0  0  0  0  0999 V2000
    0.0573    1.5323    0.0132 C   0  0  0  0  0  0  0  0  0  0  0  0
    0.4883    1.8360   -0.8438 H   0  0  0  0  0  0  0  0  0  0  0  0
    0.6413    1.8164    0.7808 H   0  0  0  0  0  0  0  0  0  0  0  0
   -0.8985    2.0474    0.1089 H   0  0  0  0  0  0  0  0  0  0  0  0
    0.0000    0.0000    0.0000 C   0  0  0  0  0  0  0  0  0  0  0  0
   -1.0679   -0.6174   -0.0000 O   0  0  0  0  0  1  0  0  0  0  0  0
    1.0679   -0.5881    0.0000 O   0  0  0  0  0  0  0  0  0  0  0  0
    0.9065   -2.4791    3.0522 C   0  0  0  0  0  0  0  0  0  0  0  0
    1.0204   -1.5216    2.8176 H   0  0  0  0  0  0  0  0  0  0  0  0
    1.6381   -2.7838    3.6490 H   0  0  0  0  0  0  0  0  0  0  0  0
   -0.0507   -2.6169    3.5551 H   0  0  0  0  0  0  0  0  0  0  0  0
    0.9853   -3.2874    1.7662 C   0  0  0  0  0  0  0  0  0  0  0  0
    0.7965   -4.2403    1.9671 H   0  0  0  0  0  0  0  0  0  0  0  0
    0.3315   -2.9282    1.1121 H   0  0  0  0  0  0  0  0  0  0  0  0
    2.3872   -3.1754    1.1757 C   0  0  0  0  0  0  0  0  0  0  0  0
    2.6361   -2.2181    1.1448 H   0  0  0  0  0  0  0  0  0  0  0  0
    3.0097   -3.6884    1.7486 H   0  0  0  0  0  0  0  0  0  0  0  0
    2.3906   -3.5891    0.1673 H   0  0  0  0  0  0  0  0  0  0  0  0
  1  5  1  0
  5  6  1  0
  5  7  2  0
  1  2  1  0
  1  3  1  0
  1  4  1  0
  8 12  1  0
 12 15  1  0
  8  9  1  0
  8 10  1  0
  8 11  1  0
 12 13  1  0
 12 14  1  0
 15 16  1  0
 15 17  1  0
 15 18  1  0
M  CHG  1   6  -1
M  END
>  <PDB_ID>  (470) 
pdb1b9c

>  <RESIDUE_NAME>  (470) 
ASP   LYS

>  <FRAG_NAME>  (470) 
ACET   PRPA

>  <FRAG_ATOM_NUM>  (470) 
fragi: 7  fragj: 11

>  <atom.prop.CHAIN_ID>  (470) 
A A A A A A A Z Z Z Z Z Z Z Z Z Z Z

>  <atom.prop.IS_HEAVY_ATOM>  (470) 
1 0 0 0 1 1 1 1 0 0 0 1 0 0 1 0 0 0

>  <DIFUSE_FUNC_ATOM>  (470) 
atom 6   atom 7   

>  <FINAL_SINGLE_POINT_ENERGY>  (470) 
0

>  <NONCOV_INTER_ENERGY_QM>  (470) 
0

>  <FF_Energy>  (470) 
44.44

>  <QM_Energy>  (470) 
-5.74

>  <Index>  (470) 
33189

$$$$
ACET-pdb1b9c-A-ASP-82:PRPA-pdb1b9c-A-LYS-85
     RDKit          3D

 18 16  0  0  0  0  0  0  0  0999 V2000
    0.0573    1.5323    0.0132 C   0  0  0  0  0  0  0  0  0  0  0  0
    0.4883    1.8360   -0.8438 H   0  0  0  0  0  0  0  0  0  0  0  0
    0.6413    1.8164    0.7808 H   0  0  0  0  0  0  0  0  0  0  0  0
   -0.8985    2.0474    0.1089 H   0  0  0  0  0  0  0  0  0  0  0  0
    0.0000    0.0000    0.0000 C   0  0  0  0  0  0  0  0  0  0  0  0
   -1.0679   -0.6174   -0.0000 O   0  0  0  0  0  1  0  0  0  0  0  0
    1.0679   -0.5881    0.0000 O   0  0  0  0  0  0  0  0  0  0  0  0
    0.9853   -3.2874    1.7662 C   0  0  0  0  0  0  0  0  0  0  0  0
    0.7965   -4.2403    1.9671 H   0  0  0  0  0  0  0  0  0  0  0  0
    0.3315   -2.9282    1.1121 H   0  0  0  0  0  0  0  0  0  0  0  0
    0.9288   -2.7081    2.6878 H   0  0  0  0  0  0  0  0  0  0  0  0
    2.3872   -3.1754    1.1757 C   0  0  0  0  0  0  0  0  0  0  0  0
    2.6361   -2.2181    1.1448 H   0  0  0  0  0  0  0  0  0  0  0  0
    3.0097   -3.6884    1.7486 H   0  0  0  0  0  0  0  0  0  0  0  0
    2.3918   -3.7398   -0.1998 C   0  0  0  0  0  0  0  0  0  0  0  0
    3.2834   -3.5577   -0.6287 H   0  0  0  0  0  0  0  0  0  0  0  0
    2.2600   -4.7362   -0.1493 H   0  0  0  0  0  0  0  0  0  0  0  0
    1.5976   -3.2937   -0.7983 H   0  0  0  0  0  0  0  0  0  0  0  0
  1  5  1  0
  5  6  1  0
  5  7  2  0
  1  2  1  0
  1  3  1  0
  1  4  1  0
  8 12  1  0
 12 15  1  0
  8  9  1  0
  8 10  1  0
  8 11  1  0
 12 13  1  0
 12 14  1  0
 15 16  1  0
 15 17  1  0
 15 18  1  0
M  CHG  1   6  -1
M  END
>  <PDB_ID>  (471) 
pdb1b9c

>  <RESIDUE_NAME>  (471) 
ASP   LYS

>  <FRAG_NAME>  (471) 
ACET   PRPA

>  <FRAG_ATOM_NUM>  (471) 
fragi: 7  fragj: 11

>  <atom.prop.CHAIN_ID>  (471) 
A A A A A A A Z Z Z Z Z Z Z Z Z Z Z

>  <atom.prop.IS_HEAVY_ATOM>  (471) 
1 0 0 0 1 1 1 1 0 0 0 1 0 0 1 0 0 0

>  <DIFUSE_FUNC_ATOM>  (471) 
atom 6   atom 7   

>  <FINAL_SINGLE_POINT_ENERGY>  (471) 
0

>  <NONCOV_INTER_ENERGY_QM>  (471) 
0

>  <FF_Energy>  (471) 
-0.21

>  <QM_Energy>  (471) 
-5.5

>  <Index>  (471) 
33193

$$$$
ACET-pdb1bgf-A-ASP-42:PRPA-pdb1bgf-A-VAL-45
     RDKit          3D

 18 16  0  0  0  0  0  0  0  0999 V2000
    0.0429    1.5082    0.0310 C   0  0  0  0  0  0  0  0  0  0  0  0
    0.6630    1.8291   -0.6724 H   0  0  0  0  0  0  0  0  0  0  0  0
    0.3421    1.8060    0.9277 H   0  0  0  0  0  0  0  0  0  0  0  0
   -0.9350    1.9505   -0.1596 H   0  0  0  0  0  0  0  0  0  0  0  0
    0.0000    0.0000    0.0000 C   0  0  0  0  0  0  0  0  0  0  0  0
   -1.0978   -0.5911    0.0000 O   0  0  0  0  0  1  0  0  0  0  0  0
    1.0978   -0.6002   -0.0000 O   0  0  0  0  0  0  0  0  0  0  0  0
   -1.0525   -1.6281    4.0227 C   0  0  0  0  0  0  0  0  0  0  0  0
   -1.0589   -2.5719    4.3633 H   0  0  0  0  0  0  0  0  0  0  0  0
   -1.8351   -1.5248    3.2711 H   0  0  0  0  0  0  0  0  0  0  0  0
   -1.2423   -0.9759    4.8752 H   0  0  0  0  0  0  0  0  0  0  0  0
    0.3664   -1.3836    3.4197 C   0  0  0  0  0  0  0  0  0  0  0  0
    0.3818   -0.4557    3.0716 H   0  0  0  0  0  0  0  0  0  0  0  0
    1.1230   -1.4484    4.2016 H   0  0  0  0  0  0  0  0  0  0  0  0
    0.6545   -2.4134    2.3732 C   0  0  0  0  0  0  0  0  0  0  0  0
    1.5858   -2.7708    2.4909 H   0  0  0  0  0  0  0  0  0  0  0  0
    0.0017   -3.1724    2.4501 H   0  0  0  0  0  0  0  0  0  0  0  0
    0.5749   -2.0052    1.4596 H   0  0  0  0  0  0  0  0  0  0  0  0
  1  5  1  0
  5  6  1  0
  5  7  2  0
  1  2  1  0
  1  3  1  0
  1  4  1  0
  8 12  1  0
 12 15  1  0
  8  9  1  0
  8 10  1  0
  8 11  1  0
 12 13  1  0
 12 14  1  0
 15 16  1  0
 15 17  1  0
 15 18  1  0
M  CHG  1   6  -1
M  END
>  <PDB_ID>  (472) 
pdb1bgf

>  <RESIDUE_NAME>  (472) 
ASP   VAL

>  <FRAG_NAME>  (472) 
ACET   PRPA

>  <FRAG_ATOM_NUM>  (472) 
fragi: 7  fragj: 11

>  <atom.prop.CHAIN_ID>  (472) 
A A A A A A A Z Z Z Z Z Z Z Z Z Z Z

>  <atom.prop.IS_HEAVY_ATOM>  (472) 
1 0 0 0 1 1 1 1 0 0 0 1 0 0 1 0 0 0

>  <DIFUSE_FUNC_ATOM>  (472) 
atom 6   atom 7   

>  <FINAL_SINGLE_POINT_ENERGY>  (472) 
0

>  <NONCOV_INTER_ENERGY_QM>  (472) 
0

>  <FF_Energy>  (472) 
7.32

>  <QM_Energy>  (472) 
-4.32

>  <Index>  (472) 
33336

$$$$
ACET-pdb1bgf-A-ASP-42:PRPA-pdb1bgf-A-VAL-45
     RDKit          3D

 18 16  0  0  0  0  0  0  0  0999 V2000
    0.0429    1.5082    0.0310 C   0  0  0  0  0  0  0  0  0  0  0  0
    0.6630    1.8291   -0.6724 H   0  0  0  0  0  0  0  0  0  0  0  0
    0.3421    1.8060    0.9277 H   0  0  0  0  0  0  0  0  0  0  0  0
   -0.9350    1.9505   -0.1596 H   0  0  0  0  0  0  0  0  0  0  0  0
    0.0000    0.0000    0.0000 C   0  0  0  0  0  0  0  0  0  0  0  0
   -1.0978   -0.5911    0.0000 O   0  0  0  0  0  1  0  0  0  0  0  0
    1.0978   -0.6002   -0.0000 O   0  0  0  0  0  0  0  0  0  0  0  0
    1.4257   -1.4743    4.5145 C   0  0  0  0  0  0  0  0  0  0  0  0
    2.1370   -0.7924    4.3461 H   0  0  0  0  0  0  0  0  0  0  0  0
    1.0012   -1.3025    5.4022 H   0  0  0  0  0  0  0  0  0  0  0  0
    1.8311   -2.3870    4.5090 H   0  0  0  0  0  0  0  0  0  0  0  0
    0.3664   -1.3836    3.4197 C   0  0  0  0  0  0  0  0  0  0  0  0
    0.3818   -0.4557    3.0716 H   0  0  0  0  0  0  0  0  0  0  0  0
   -0.6243   -1.5543    3.8407 H   0  0  0  0  0  0  0  0  0  0  0  0
    0.6545   -2.4134    2.3732 C   0  0  0  0  0  0  0  0  0  0  0  0
    1.5858   -2.7708    2.4909 H   0  0  0  0  0  0  0  0  0  0  0  0
    0.0017   -3.1724    2.4501 H   0  0  0  0  0  0  0  0  0  0  0  0
    0.5749   -2.0052    1.4596 H   0  0  0  0  0  0  0  0  0  0  0  0
  1  5  1  0
  5  6  1  0
  5  7  2  0
  1  2  1  0
  1  3  1  0
  1  4  1  0
  8 12  1  0
 12 15  1  0
  8  9  1  0
  8 10  1  0
  8 11  1  0
 12 13  1  0
 12 14  1  0
 15 16  1  0
 15 17  1  0
 15 18  1  0
M  CHG  1   6  -1
M  END
>  <PDB_ID>  (473) 
pdb1bgf

>  <RESIDUE_NAME>  (473) 
ASP   VAL

>  <FRAG_NAME>  (473) 
ACET   PRPA

>  <FRAG_ATOM_NUM>  (473) 
fragi: 7  fragj: 11

>  <atom.prop.CHAIN_ID>  (473) 
A A A A A A A Z Z Z Z Z Z Z Z Z Z Z

>  <atom.prop.IS_HEAVY_ATOM>  (473) 
1 0 0 0 1 1 1 1 0 0 0 1 0 0 1 0 0 0

>  <DIFUSE_FUNC_ATOM>  (473) 
atom 6   atom 7   

>  <FINAL_SINGLE_POINT_ENERGY>  (473) 
0

>  <NONCOV_INTER_ENERGY_QM>  (473) 
0

>  <FF_Energy>  (473) 
4.58

>  <QM_Energy>  (473) 
-3.57

>  <Index>  (473) 
33340

$$$$
ACET-pdb1aqd-J-GLU-179:PRPA-pdb1aqd-J-VAL-160
     RDKit          3D

 18 16  0  0  0  0  0  0  0  0999 V2000
   -0.0172    1.4669    0.0846 C   0  0  0  0  0  0  0  0  0  0  0  0
   -0.6112    1.8323   -0.6087 H   0  0  0  0  0  0  0  0  0  0  0  0
    0.9002    1.8134    0.0082 H   0  0  0  0  0  0  0  0  0  0  0  0
   -0.4023    1.8320    1.0366 H   0  0  0  0  0  0  0  0  0  0  0  0
    0.0000    0.0000    0.0000 C   0  0  0  0  0  0  0  0  0  0  0  0
   -1.1032   -0.5744    0.0000 O   0  0  0  0  0  1  0  0  0  0  0  0
    1.1032   -0.5940    0.0000 O   0  0  0  0  0  0  0  0  0  0  0  0
   -3.5892    1.5143    3.5949 C   0  0  0  0  0  0  0  0  0  0  0  0
   -2.8396    2.0969    3.4104 H   0  0  0  0  0  0  0  0  0  0  0  0
   -3.5604    1.2339    4.6478 H   0  0  0  0  0  0  0  0  0  0  0  0
   -4.4936    2.1214    3.5557 H   0  0  0  0  0  0  0  0  0  0  0  0
   -3.7119    0.3367    2.6988 C   0  0  0  0  0  0  0  0  0  0  0  0
   -3.8126    0.6530    1.7535 H   0  0  0  0  0  0  0  0  0  0  0  0
   -4.5846   -0.2266    3.0294 H   0  0  0  0  0  0  0  0  0  0  0  0
   -2.4439   -0.5024    2.7308 C   0  0  0  0  0  0  0  0  0  0  0  0
   -2.6815   -1.4701    2.6456 H   0  0  0  0  0  0  0  0  0  0  0  0
   -1.8487   -0.2385    1.9718 H   0  0  0  0  0  0  0  0  0  0  0  0
   -1.9657   -0.3523    3.5963 H   0  0  0  0  0  0  0  0  0  0  0  0
  1  5  1  0
  5  6  1  0
  5  7  2  0
  1  2  1  0
  1  3  1  0
  1  4  1  0
  8 12  1  0
 12 15  1  0
  8  9  1  0
  8 10  1  0
  8 11  1  0
 12 13  1  0
 12 14  1  0
 15 16  1  0
 15 17  1  0
 15 18  1  0
M  CHG  1   6  -1
M  END
>  <PDB_ID>  (474) 
pdb1aqd

>  <RESIDUE_NAME>  (474) 
GLU   VAL

>  <FRAG_NAME>  (474) 
ACET   PRPA

>  <FRAG_ATOM_NUM>  (474) 
fragi: 7  fragj: 11

>  <atom.prop.CHAIN_ID>  (474) 
A A A A A A A Z Z Z Z Z Z Z Z Z Z Z

>  <atom.prop.IS_HEAVY_ATOM>  (474) 
1 0 0 0 1 1 1 1 0 0 0 1 0 0 1 0 0 0

>  <DIFUSE_FUNC_ATOM>  (474) 
atom 6   atom 7   

>  <FINAL_SINGLE_POINT_ENERGY>  (474) 
0

>  <NONCOV_INTER_ENERGY_QM>  (474) 
0

>  <FF_Energy>  (474) 
4.36

>  <QM_Energy>  (474) 
-3.02

>  <Index>  (474) 
33373

$$$$
ACET-pdb1bed-A-GLU-169:PRPA-pdb1bed-A-LYS-165
     RDKit          3D

 18 16  0  0  0  0  0  0  0  0999 V2000
   -0.0013    1.5174    0.0303 C   0  0  0  0  0  0  0  0  0  0  0  0
    0.7442    1.8296   -0.5319 H   0  0  0  0  0  0  0  0  0  0  0  0
    0.1029    1.7986    0.9685 H   0  0  0  0  0  0  0  0  0  0  0  0
   -0.9194    1.9618   -0.3540 H   0  0  0  0  0  0  0  0  0  0  0  0
    0.0000    0.0000    0.0000 C   0  0  0  0  0  0  0  0  0  0  0  0
   -1.1011   -0.5941   -0.0000 O   0  0  0  0  0  1  0  0  0  0  0  0
    1.1011   -0.6008    0.0000 O   0  0  0  0  0  0  0  0  0  0  0  0
   -2.4612   -1.1761   -2.7461 C   0  0  0  0  0  0  0  0  0  0  0  0
   -2.5788   -0.4105   -2.1098 H   0  0  0  0  0  0  0  0  0  0  0  0
   -3.3649   -1.4851   -3.0531 H   0  0  0  0  0  0  0  0  0  0  0  0
   -1.9047   -0.8217   -3.6138 H   0  0  0  0  0  0  0  0  0  0  0  0
   -1.8055   -2.3234   -1.9848 C   0  0  0  0  0  0  0  0  0  0  0  0
   -1.6915   -3.1011   -2.6070 H   0  0  0  0  0  0  0  0  0  0  0  0
   -0.9050   -2.0258   -1.6619 H   0  0  0  0  0  0  0  0  0  0  0  0
   -2.6363   -2.7621   -0.7940 C   0  0  0  0  0  0  0  0  0  0  0  0
   -2.7502   -1.9817   -0.1771 H   0  0  0  0  0  0  0  0  0  0  0  0
   -3.5363   -3.0581   -1.1209 H   0  0  0  0  0  0  0  0  0  0  0  0
   -2.1797   -3.5824   -0.2401 H   0  0  0  0  0  0  0  0  0  0  0  0
  1  5  1  0
  5  6  1  0
  5  7  2  0
  1  2  1  0
  1  3  1  0
  1  4  1  0
  8 12  1  0
 12 15  1  0
  8  9  1  0
  8 10  1  0
  8 11  1  0
 12 13  1  0
 12 14  1  0
 15 16  1  0
 15 17  1  0
 15 18  1  0
M  CHG  1   6  -1
M  END
>  <PDB_ID>  (475) 
pdb1bed

>  <RESIDUE_NAME>  (475) 
GLU   LYS

>  <FRAG_NAME>  (475) 
ACET   PRPA

>  <FRAG_ATOM_NUM>  (475) 
fragi: 7  fragj: 11

>  <atom.prop.CHAIN_ID>  (475) 
A A A A A A A Z Z Z Z Z Z Z Z Z Z Z

>  <atom.prop.IS_HEAVY_ATOM>  (475) 
1 0 0 0 1 1 1 1 0 0 0 1 0 0 1 0 0 0

>  <DIFUSE_FUNC_ATOM>  (475) 
atom 6   atom 7   

>  <FINAL_SINGLE_POINT_ENERGY>  (475) 
0

>  <NONCOV_INTER_ENERGY_QM>  (475) 
0

>  <FF_Energy>  (475) 
11.72

>  <QM_Energy>  (475) 
-2.25

>  <Index>  (475) 
33409

$$$$
ACET-pdb1bed-A-GLU-169:PRPA-pdb1bed-A-LYS-165
     RDKit          3D

 18 16  0  0  0  0  0  0  0  0999 V2000
   -0.0013    1.5174    0.0303 C   0  0  0  0  0  0  0  0  0  0  0  0
    0.7442    1.8296   -0.5319 H   0  0  0  0  0  0  0  0  0  0  0  0
    0.1029    1.7986    0.9685 H   0  0  0  0  0  0  0  0  0  0  0  0
   -0.9194    1.9618   -0.3540 H   0  0  0  0  0  0  0  0  0  0  0  0
    0.0000    0.0000    0.0000 C   0  0  0  0  0  0  0  0  0  0  0  0
   -1.1011   -0.5941   -0.0000 O   0  0  0  0  0  1  0  0  0  0  0  0
    1.1011   -0.6008    0.0000 O   0  0  0  0  0  0  0  0  0  0  0  0
   -1.8055   -2.3234   -1.9848 C   0  0  0  0  0  0  0  0  0  0  0  0
   -1.6915   -3.1011   -2.6070 H   0  0  0  0  0  0  0  0  0  0  0  0
   -0.9050   -2.0258   -1.6619 H   0  0  0  0  0  0  0  0  0  0  0  0
   -2.2742   -1.5034   -2.5289 H   0  0  0  0  0  0  0  0  0  0  0  0
   -2.6363   -2.7621   -0.7940 C   0  0  0  0  0  0  0  0  0  0  0  0
   -2.7502   -1.9817   -0.1771 H   0  0  0  0  0  0  0  0  0  0  0  0
   -3.5363   -3.0581   -1.1209 H   0  0  0  0  0  0  0  0  0  0  0  0
   -2.0041   -3.8978   -0.0272 C   0  0  0  0  0  0  0  0  0  0  0  0
   -1.8910   -4.6845   -0.6361 H   0  0  0  0  0  0  0  0  0  0  0  0
   -1.1054   -3.6085    0.3090 H   0  0  0  0  0  0  0  0  0  0  0  0
   -2.6262   -4.1868    0.8200 H   0  0  0  0  0  0  0  0  0  0  0  0
  1  5  1  0
  5  6  1  0
  5  7  2  0
  1  2  1  0
  1  3  1  0
  1  4  1  0
  8 12  1  0
 12 15  1  0
  8  9  1  0
  8 10  1  0
  8 11  1  0
 12 13  1  0
 12 14  1  0
 15 16  1  0
 15 17  1  0
 15 18  1  0
M  CHG  1   6  -1
M  END
>  <PDB_ID>  (476) 
pdb1bed

>  <RESIDUE_NAME>  (476) 
GLU   LYS

>  <FRAG_NAME>  (476) 
ACET   PRPA

>  <FRAG_ATOM_NUM>  (476) 
fragi: 7  fragj: 11

>  <atom.prop.CHAIN_ID>  (476) 
A A A A A A A Z Z Z Z Z Z Z Z Z Z Z

>  <atom.prop.IS_HEAVY_ATOM>  (476) 
1 0 0 0 1 1 1 1 0 0 0 1 0 0 1 0 0 0

>  <DIFUSE_FUNC_ATOM>  (476) 
atom 6   atom 7   

>  <FINAL_SINGLE_POINT_ENERGY>  (476) 
0

>  <NONCOV_INTER_ENERGY_QM>  (476) 
0

>  <FF_Energy>  (476) 
11.24

>  <QM_Energy>  (476) 
-2.19

>  <Index>  (476) 
33419

$$$$
ACET-pdb2c1m-A-GLU-139:PRPA-pdb2c1m-A-GLN-98
     RDKit          3D

 18 16  0  0  0  0  0  0  0  0999 V2000
   -0.0205    1.5191    0.0062 C   0  0  0  0  0  0  0  0  0  0  0  0
    0.6852    1.8195    0.6302 H   0  0  0  0  0  0  0  0  0  0  0  0
   -0.9168    1.7987    0.3163 H   0  0  0  0  0  0  0  0  0  0  0  0
    0.1659    1.9690   -0.9690 H   0  0  0  0  0  0  0  0  0  0  0  0
    0.0000    0.0000    0.0000 C   0  0  0  0  0  0  0  0  0  0  0  0
   -1.0950   -0.5925   -0.0000 O   0  0  0  0  0  1  0  0  0  0  0  0
    1.0950   -0.6009    0.0000 O   0  0  0  0  0  0  0  0  0  0  0  0
   -0.8922    1.8399    3.0988 C   0  0  0  0  0  0  0  0  0  0  0  0
   -1.2378    1.4715    2.2222 H   0  0  0  0  0  0  0  0  0  0  0  0
   -0.6626    2.8953    2.9519 H   0  0  0  0  0  0  0  0  0  0  0  0
   -1.6672    1.6894    3.8503 H   0  0  0  0  0  0  0  0  0  0  0  0
    0.3596    1.0538    3.4835 C   0  0  0  0  0  0  0  0  0  0  0  0
    0.9940    1.0609    2.7167 H   0  0  0  0  0  0  0  0  0  0  0  0
    0.7781    1.4821    4.2794 H   0  0  0  0  0  0  0  0  0  0  0  0
    0.0512   -0.3955    3.8315 C   0  0  0  0  0  0  0  0  0  0  0  0
   -0.3847   -0.4225    4.7313 H   0  0  0  0  0  0  0  0  0  0  0  0
   -0.5778   -0.7626    3.1457 H   0  0  0  0  0  0  0  0  0  0  0  0
    0.9428   -1.0219    3.8577 H   0  0  0  0  0  0  0  0  0  0  0  0
  1  5  1  0
  5  6  1  0
  5  7  2  0
  1  2  1  0
  1  3  1  0
  1  4  1  0
  8 12  1  0
 12 15  1  0
  8  9  1  0
  8 10  1  0
  8 11  1  0
 12 13  1  0
 12 14  1  0
 15 16  1  0
 15 17  1  0
 15 18  1  0
M  CHG  1   6  -1
M  END
>  <PDB_ID>  (477) 
pdb2c1m

>  <RESIDUE_NAME>  (477) 
GLU   GLN

>  <FRAG_NAME>  (477) 
ACET   PRPA

>  <FRAG_ATOM_NUM>  (477) 
fragi: 7  fragj: 11

>  <atom.prop.CHAIN_ID>  (477) 
A A A A A A A Z Z Z Z Z Z Z Z Z Z Z

>  <atom.prop.IS_HEAVY_ATOM>  (477) 
1 0 0 0 1 1 1 1 0 0 0 1 0 0 1 0 0 0

>  <DIFUSE_FUNC_ATOM>  (477) 
atom 6   atom 7   

>  <FINAL_SINGLE_POINT_ENERGY>  (477) 
0

>  <NONCOV_INTER_ENERGY_QM>  (477) 
0

>  <FF_Energy>  (477) 
1.94

>  <QM_Energy>  (477) 
-3.36

>  <Index>  (477) 
33440

$$$$
ACET-pdb2c1m-A-GLU-139:PRPA-pdb2c1m-A-ARG-101
     RDKit          3D

 18 16  0  0  0  0  0  0  0  0999 V2000
   -0.0205    1.5191    0.0062 C   0  0  0  0  0  0  0  0  0  0  0  0
    0.6852    1.8195    0.6302 H   0  0  0  0  0  0  0  0  0  0  0  0
   -0.9168    1.7987    0.3163 H   0  0  0  0  0  0  0  0  0  0  0  0
    0.1659    1.9690   -0.9690 H   0  0  0  0  0  0  0  0  0  0  0  0
    0.0000    0.0000    0.0000 C   0  0  0  0  0  0  0  0  0  0  0  0
   -1.0950   -0.5925   -0.0000 O   0  0  0  0  0  1  0  0  0  0  0  0
    1.0950   -0.6009    0.0000 O   0  0  0  0  0  0  0  0  0  0  0  0
   -4.4870    0.6526    0.7936 C   0  0  0  0  0  0  0  0  0  0  0  0
   -4.1468    1.3828    0.2098 H   0  0  0  0  0  0  0  0  0  0  0  0
   -3.7863    0.3739    1.4418 H   0  0  0  0  0  0  0  0  0  0  0  0
   -5.3387    1.0352    1.3561 H   0  0  0  0  0  0  0  0  0  0  0  0
   -4.8287   -0.5297   -0.0741 C   0  0  0  0  0  0  0  0  0  0  0  0
   -5.6806   -0.9321    0.2314 H   0  0  0  0  0  0  0  0  0  0  0  0
   -4.8915   -0.2420   -1.0204 H   0  0  0  0  0  0  0  0  0  0  0  0
   -3.7429   -1.5548    0.0437 C   0  0  0  0  0  0  0  0  0  0  0  0
   -3.6804   -2.0521   -0.8261 H   0  0  0  0  0  0  0  0  0  0  0  0
   -2.8743   -1.0785    0.2085 H   0  0  0  0  0  0  0  0  0  0  0  0
   -3.9155   -2.2684    0.8493 H   0  0  0  0  0  0  0  0  0  0  0  0
  1  5  1  0
  5  6  1  0
  5  7  2  0
  1  2  1  0
  1  3  1  0
  1  4  1  0
  8 12  1  0
 12 15  1  0
  8  9  1  0
  8 10  1  0
  8 11  1  0
 12 13  1  0
 12 14  1  0
 15 16  1  0
 15 17  1  0
 15 18  1  0
M  CHG  1   6  -1
M  END
>  <PDB_ID>  (478) 
pdb2c1m

>  <RESIDUE_NAME>  (478) 
GLU   ARG

>  <FRAG_NAME>  (478) 
ACET   PRPA

>  <FRAG_ATOM_NUM>  (478) 
fragi: 7  fragj: 11

>  <atom.prop.CHAIN_ID>  (478) 
A A A A A A A Z Z Z Z Z Z Z Z Z Z Z

>  <atom.prop.IS_HEAVY_ATOM>  (478) 
1 0 0 0 1 1 1 1 0 0 0 1 0 0 1 0 0 0

>  <DIFUSE_FUNC_ATOM>  (478) 
atom 6   atom 7   

>  <FINAL_SINGLE_POINT_ENERGY>  (478) 
0

>  <NONCOV_INTER_ENERGY_QM>  (478) 
0

>  <FF_Energy>  (478) 
29.13

>  <QM_Energy>  (478) 
-1.07

>  <Index>  (478) 
33454

$$$$
ACET-pdb1bdy-B-ASP-21:PRPA-pdb1bdy-B-LEU-14
     RDKit          3D

 18 16  0  0  0  0  0  0  0  0999 V2000
    0.0384    1.5150   -0.0205 C   0  0  0  0  0  0  0  0  0  0  0  0
    0.5289    1.8133   -0.8380 H   0  0  0  0  0  0  0  0  0  0  0  0
    0.5171    1.8358    0.7941 H   0  0  0  0  0  0  0  0  0  0  0  0
   -0.9454    1.9843   -0.0339 H   0  0  0  0  0  0  0  0  0  0  0  0
    0.0000    0.0000    0.0000 C   0  0  0  0  0  0  0  0  0  0  0  0
   -1.0951   -0.5998    0.0000 O   0  0  0  0  0  1  0  0  0  0  0  0
    1.0951   -0.5862   -0.0000 O   0  0  0  0  0  0  0  0  0  0  0  0
   -1.1949   -4.0844   -4.0634 C   0  0  0  0  0  0  0  0  0  0  0  0
   -0.8864   -3.4047   -4.7383 H   0  0  0  0  0  0  0  0  0  0  0  0
   -2.1902   -4.0008   -3.9547 H   0  0  0  0  0  0  0  0  0  0  0  0
   -0.9899   -5.0727   -4.4749 H   0  0  0  0  0  0  0  0  0  0  0  0
   -0.5603   -3.7138   -2.7267 C   0  0  0  0  0  0  0  0  0  0  0  0
    0.4275   -3.6934   -2.8314 H   0  0  0  0  0  0  0  0  0  0  0  0
   -0.7993   -4.4626   -1.9714 H   0  0  0  0  0  0  0  0  0  0  0  0
   -1.0575   -2.3470   -2.3106 C   0  0  0  0  0  0  0  0  0  0  0  0
   -2.0548   -2.3638   -2.2162 H   0  0  0  0  0  0  0  0  0  0  0  0
   -0.6483   -2.0897   -1.4328 H   0  0  0  0  0  0  0  0  0  0  0  0
   -0.8035   -1.6686   -3.0031 H   0  0  0  0  0  0  0  0  0  0  0  0
  1  5  1  0
  5  6  1  0
  5  7  2  0
  1  2  1  0
  1  3  1  0
  1  4  1  0
  8 12  1  0
 12 15  1  0
  8  9  1  0
  8 10  1  0
  8 11  1  0
 12 13  1  0
 12 14  1  0
 15 16  1  0
 15 17  1  0
 15 18  1  0
M  CHG  1   6  -1
M  END
>  <PDB_ID>  (479) 
pdb1bdy

>  <RESIDUE_NAME>  (479) 
ASP   LEU

>  <FRAG_NAME>  (479) 
ACET   PRPA

>  <FRAG_ATOM_NUM>  (479) 
fragi: 7  fragj: 11

>  <atom.prop.CHAIN_ID>  (479) 
A A A A A A A Z Z Z Z Z Z Z Z Z Z Z

>  <atom.prop.IS_HEAVY_ATOM>  (479) 
1 0 0 0 1 1 1 1 0 0 0 1 0 0 1 0 0 0

>  <DIFUSE_FUNC_ATOM>  (479) 
atom 6   atom 7   

>  <FINAL_SINGLE_POINT_ENERGY>  (479) 
0

>  <NONCOV_INTER_ENERGY_QM>  (479) 
0

>  <FF_Energy>  (479) 
6.2

>  <QM_Energy>  (479) 
-2.1

>  <Index>  (479) 
33534

$$$$
ACET-pdb1be4-A-GLU-50:PRPA-pdb1be4-A-ILE-53
     RDKit          3D

 18 16  0  0  0  0  0  0  0  0999 V2000
   -0.1968    1.4779   -0.3409 C   0  0  0  0  0  0  0  0  0  0  0  0
   -1.0019    1.5273   -0.9552 H   0  0  0  0  0  0  0  0  0  0  0  0
    0.6123    1.7577   -0.8845 H   0  0  0  0  0  0  0  0  0  0  0  0
   -0.3372    2.2111    0.4532 H   0  0  0  0  0  0  0  0  0  0  0  0
    0.0000    0.0000    0.0000 C   0  0  0  0  0  0  0  0  0  0  0  0
   -1.0907   -0.7367    0.0000 O   0  0  0  0  0  1  0  0  0  0  0  0
    1.0907   -0.5475   -0.0000 O   0  0  0  0  0  0  0  0  0  0  0  0
    3.5709   -0.8216    3.2109 C   0  0  0  0  0  0  0  0  0  0  0  0
    3.1931   -0.0528    2.6816 H   0  0  0  0  0  0  0  0  0  0  0  0
    4.0210   -0.4279    4.1222 H   0  0  0  0  0  0  0  0  0  0  0  0
    4.3319   -1.4007    2.6879 H   0  0  0  0  0  0  0  0  0  0  0  0
    2.4336   -1.7841    3.5006 C   0  0  0  0  0  0  0  0  0  0  0  0
    2.7636   -2.5233    4.0655 H   0  0  0  0  0  0  0  0  0  0  0  0
    1.7048   -1.2986    3.9579 H   0  0  0  0  0  0  0  0  0  0  0  0
    1.8569   -2.3904    2.2015 C   0  0  0  0  0  0  0  0  0  0  0  0
    2.5831   -2.8819    1.7335 H   0  0  0  0  0  0  0  0  0  0  0  0
    1.1188   -3.0110    2.4435 H   0  0  0  0  0  0  0  0  0  0  0  0
    1.5158   -1.6504    1.6324 H   0  0  0  0  0  0  0  0  0  0  0  0
  1  5  1  0
  5  6  1  0
  5  7  2  0
  1  2  1  0
  1  3  1  0
  1  4  1  0
  8 12  1  0
 12 15  1  0
  8  9  1  0
  8 10  1  0
  8 11  1  0
 12 13  1  0
 12 14  1  0
 15 16  1  0
 15 17  1  0
 15 18  1  0
M  CHG  1   6  -1
M  END
>  <PDB_ID>  (480) 
pdb1be4

>  <RESIDUE_NAME>  (480) 
GLU   ILE

>  <FRAG_NAME>  (480) 
ACET   PRPA

>  <FRAG_ATOM_NUM>  (480) 
fragi: 7  fragj: 11

>  <atom.prop.CHAIN_ID>  (480) 
A A A A A A A Z Z Z Z Z Z Z Z Z Z Z

>  <atom.prop.IS_HEAVY_ATOM>  (480) 
1 0 0 0 1 1 1 1 0 0 0 1 0 0 1 0 0 0

>  <DIFUSE_FUNC_ATOM>  (480) 
atom 6   atom 7   

>  <FINAL_SINGLE_POINT_ENERGY>  (480) 
0

>  <NONCOV_INTER_ENERGY_QM>  (480) 
0

>  <FF_Energy>  (480) 
9.84

>  <QM_Energy>  (480) 
-1.95

>  <Index>  (480) 
33537

$$$$
ACET-pdb1bdy-B-ASP-21:PRPA-pdb1bdy-B-LEU-14
     RDKit          3D

 18 16  0  0  0  0  0  0  0  0999 V2000
    0.0384    1.5150   -0.0205 C   0  0  0  0  0  0  0  0  0  0  0  0
    0.5289    1.8133   -0.8380 H   0  0  0  0  0  0  0  0  0  0  0  0
    0.5171    1.8358    0.7941 H   0  0  0  0  0  0  0  0  0  0  0  0
   -0.9454    1.9843   -0.0339 H   0  0  0  0  0  0  0  0  0  0  0  0
    0.0000    0.0000    0.0000 C   0  0  0  0  0  0  0  0  0  0  0  0
   -1.0951   -0.5998    0.0000 O   0  0  0  0  0  1  0  0  0  0  0  0
    1.0951   -0.5862   -0.0000 O   0  0  0  0  0  0  0  0  0  0  0  0
   -1.0575   -2.3470   -2.3106 C   0  0  0  0  0  0  0  0  0  0  0  0
   -2.0548   -2.3638   -2.2162 H   0  0  0  0  0  0  0  0  0  0  0  0
   -0.6483   -2.0897   -1.4328 H   0  0  0  0  0  0  0  0  0  0  0  0
   -0.8035   -1.6686   -3.0031 H   0  0  0  0  0  0  0  0  0  0  0  0
   -0.5603   -3.7138   -2.7267 C   0  0  0  0  0  0  0  0  0  0  0  0
    0.4275   -3.6934   -2.8314 H   0  0  0  0  0  0  0  0  0  0  0  0
   -1.0138   -3.9786   -3.6819 H   0  0  0  0  0  0  0  0  0  0  0  0
   -0.8930   -4.7563   -1.6752 C   0  0  0  0  0  0  0  0  0  0  0  0
   -0.5435   -5.6491   -1.9634 H   0  0  0  0  0  0  0  0  0  0  0  0
   -0.4715   -4.5013   -0.8030 H   0  0  0  0  0  0  0  0  0  0  0  0
   -1.8861   -4.8117   -1.5581 H   0  0  0  0  0  0  0  0  0  0  0  0
  1  5  1  0
  5  6  1  0
  5  7  2  0
  1  2  1  0
  1  3  1  0
  1  4  1  0
  8 12  1  0
 12 15  1  0
  8  9  1  0
  8 10  1  0
  8 11  1  0
 12 13  1  0
 12 14  1  0
 15 16  1  0
 15 17  1  0
 15 18  1  0
M  CHG  1   6  -1
M  END
>  <PDB_ID>  (481) 
pdb1bdy

>  <RESIDUE_NAME>  (481) 
ASP   LEU

>  <FRAG_NAME>  (481) 
ACET   PRPA

>  <FRAG_ATOM_NUM>  (481) 
fragi: 7  fragj: 11

>  <atom.prop.CHAIN_ID>  (481) 
A A A A A A A Z Z Z Z Z Z Z Z Z Z Z

>  <atom.prop.IS_HEAVY_ATOM>  (481) 
1 0 0 0 1 1 1 1 0 0 0 1 0 0 1 0 0 0

>  <DIFUSE_FUNC_ATOM>  (481) 
atom 6   atom 7   

>  <FINAL_SINGLE_POINT_ENERGY>  (481) 
0

>  <NONCOV_INTER_ENERGY_QM>  (481) 
0

>  <FF_Energy>  (481) 
6.35

>  <QM_Energy>  (481) 
-2.12

>  <Index>  (481) 
33546

$$$$
ACET-pdb2b3z-C-ASP-178:PRPA-pdb2b3z-C-ILE-348
     RDKit          3D

 18 16  0  0  0  0  0  0  0  0999 V2000
    0.0050    1.5293   -0.0134 C   0  0  0  0  0  0  0  0  0  0  0  0
    0.7320    1.8464    0.5806 H   0  0  0  0  0  0  0  0  0  0  0  0
   -0.8770    1.8491    0.3060 H   0  0  0  0  0  0  0  0  0  0  0  0
    0.1763    1.9384   -1.0091 H   0  0  0  0  0  0  0  0  0  0  0  0
    0.0000    0.0000    0.0000 C   0  0  0  0  0  0  0  0  0  0  0  0
   -1.0920   -0.6041    0.0000 O   0  0  0  0  0  1  0  0  0  0  0  0
    1.0920   -0.6087   -0.0000 O   0  0  0  0  0  0  0  0  0  0  0  0
   -0.0412    1.6182    4.9186 C   0  0  0  0  0  0  0  0  0  0  0  0
   -0.9784    1.9114    5.0613 H   0  0  0  0  0  0  0  0  0  0  0  0
    0.4779    1.6537    5.8764 H   0  0  0  0  0  0  0  0  0  0  0  0
    0.4547    2.2747    4.2035 H   0  0  0  0  0  0  0  0  0  0  0  0
   -0.0686    0.1817    4.4068 C   0  0  0  0  0  0  0  0  0  0  0  0
    0.8715   -0.1555    4.3621 H   0  0  0  0  0  0  0  0  0  0  0  0
   -0.5719   -0.3751    5.0685 H   0  0  0  0  0  0  0  0  0  0  0  0
   -0.7109    0.0311    3.0555 C   0  0  0  0  0  0  0  0  0  0  0  0
   -0.2091    0.5752    2.3825 H   0  0  0  0  0  0  0  0  0  0  0  0
   -0.6951   -0.9313    2.7812 H   0  0  0  0  0  0  0  0  0  0  0  0
   -1.6585    0.3481    3.0965 H   0  0  0  0  0  0  0  0  0  0  0  0
  1  5  1  0
  5  6  1  0
  5  7  2  0
  1  2  1  0
  1  3  1  0
  1  4  1  0
  8 12  1  0
 12 15  1  0
  8  9  1  0
  8 10  1  0
  8 11  1  0
 12 13  1  0
 12 14  1  0
 15 16  1  0
 15 17  1  0
 15 18  1  0
M  CHG  1   6  -1
M  END
>  <PDB_ID>  (482) 
pdb2b3z

>  <RESIDUE_NAME>  (482) 
ASP   ILE

>  <FRAG_NAME>  (482) 
ACET   PRPA

>  <FRAG_ATOM_NUM>  (482) 
fragi: 7  fragj: 11

>  <atom.prop.CHAIN_ID>  (482) 
A A A A A A A Z Z Z Z Z Z Z Z Z Z Z

>  <atom.prop.IS_HEAVY_ATOM>  (482) 
1 0 0 0 1 1 1 1 0 0 0 1 0 0 1 0 0 0

>  <DIFUSE_FUNC_ATOM>  (482) 
atom 6   atom 7   

>  <FINAL_SINGLE_POINT_ENERGY>  (482) 
0

>  <NONCOV_INTER_ENERGY_QM>  (482) 
0

>  <FF_Energy>  (482) 
3.68

>  <QM_Energy>  (482) 
-2.02

>  <Index>  (482) 
33582

$$$$
ACET-pdb1b9c-A-ASP-155:PRPA-pdb1b9c-A-LYS-158
     RDKit          3D

 18 16  0  0  0  0  0  0  0  0999 V2000
    0.0596    1.5100   -0.0374 C   0  0  0  0  0  0  0  0  0  0  0  0
    0.0420    1.8030   -1.0096 H   0  0  0  0  0  0  0  0  0  0  0  0
    0.9541    1.8001    0.3442 H   0  0  0  0  0  0  0  0  0  0  0  0
   -0.7245    2.0519    0.4915 H   0  0  0  0  0  0  0  0  0  0  0  0
    0.0000    0.0000    0.0000 C   0  0  0  0  0  0  0  0  0  0  0  0
   -1.0833   -0.5928    0.0000 O   0  0  0  0  0  1  0  0  0  0  0  0
    1.0833   -0.5694   -0.0000 O   0  0  0  0  0  0  0  0  0  0  0  0
    1.3819   -1.7378    3.8431 C   0  0  0  0  0  0  0  0  0  0  0  0
    1.4598   -2.6070    4.3642 H   0  0  0  0  0  0  0  0  0  0  0  0
    0.3252   -1.5280    3.6773 H   0  0  0  0  0  0  0  0  0  0  0  0
    1.9043   -0.9576    4.3967 H   0  0  0  0  0  0  0  0  0  0  0  0
    2.1610   -1.9189    2.5250 C   0  0  0  0  0  0  0  0  0  0  0  0
    1.8191   -1.1856    1.8657 H   0  0  0  0  0  0  0  0  0  0  0  0
    3.1452   -1.6230    2.7106 H   0  0  0  0  0  0  0  0  0  0  0  0
    2.2370   -3.2336    1.7239 C   0  0  0  0  0  0  0  0  0  0  0  0
    3.1268   -3.2496    1.2224 H   0  0  0  0  0  0  0  0  0  0  0  0
    2.2687   -4.0093    2.3866 H   0  0  0  0  0  0  0  0  0  0  0  0
    1.4357   -3.4235    1.0096 H   0  0  0  0  0  0  0  0  0  0  0  0
  1  5  1  0
  5  6  1  0
  5  7  2  0
  1  2  1  0
  1  3  1  0
  1  4  1  0
  8 12  1  0
 12 15  1  0
  8  9  1  0
  8 10  1  0
  8 11  1  0
 12 13  1  0
 12 14  1  0
 15 16  1  0
 15 17  1  0
 15 18  1  0
M  CHG  1   6  -1
M  END
>  <PDB_ID>  (483) 
pdb1b9c

>  <RESIDUE_NAME>  (483) 
ASP   LYS

>  <FRAG_NAME>  (483) 
ACET   PRPA

>  <FRAG_ATOM_NUM>  (483) 
fragi: 7  fragj: 11

>  <atom.prop.CHAIN_ID>  (483) 
A A A A A A A Z Z Z Z Z Z Z Z Z Z Z

>  <atom.prop.IS_HEAVY_ATOM>  (483) 
1 0 0 0 1 1 1 1 0 0 0 1 0 0 1 0 0 0

>  <DIFUSE_FUNC_ATOM>  (483) 
atom 6   atom 7   

>  <FINAL_SINGLE_POINT_ENERGY>  (483) 
0

>  <NONCOV_INTER_ENERGY_QM>  (483) 
0

>  <FF_Energy>  (483) 
5.32

>  <QM_Energy>  (483) 
-3.08

>  <Index>  (483) 
33679

$$$$
ACET-pdb1bay-A-GLU-130:PRPA-pdb1bay-A-LEU-175
     RDKit          3D

 18 16  0  0  0  0  0  0  0  0999 V2000
    0.0267    1.5171   -0.0103 C   0  0  0  0  0  0  0  0  0  0  0  0
    0.5859    1.7998   -0.7733 H   0  0  0  0  0  0  0  0  0  0  0  0
    0.4103    1.8131    0.8497 H   0  0  0  0  0  0  0  0  0  0  0  0
   -0.9560    1.9755   -0.1210 H   0  0  0  0  0  0  0  0  0  0  0  0
    0.0000    0.0000    0.0000 C   0  0  0  0  0  0  0  0  0  0  0  0
   -1.0874   -0.6011   -0.0000 O   0  0  0  0  0  1  0  0  0  0  0  0
    1.0874   -0.6032    0.0000 O   0  0  0  0  0  0  0  0  0  0  0  0
    0.0031   -3.2176    2.2320 C   0  0  0  0  0  0  0  0  0  0  0  0
    0.4055   -3.8541    2.9107 H   0  0  0  0  0  0  0  0  0  0  0  0
    0.5804   -3.2847    1.3098 H   0  0  0  0  0  0  0  0  0  0  0  0
   -1.0452   -3.4843    2.0977 H   0  0  0  0  0  0  0  0  0  0  0  0
    0.1482   -1.8313    2.8683 C   0  0  0  0  0  0  0  0  0  0  0  0
   -0.0942   -1.1555    2.1865 H   0  0  0  0  0  0  0  0  0  0  0  0
   -0.4585   -1.7878    3.6477 H   0  0  0  0  0  0  0  0  0  0  0  0
    1.5602   -1.4986    3.3636 C   0  0  0  0  0  0  0  0  0  0  0  0
    2.1827   -1.4948    2.5825 H   0  0  0  0  0  0  0  0  0  0  0  0
    1.5710   -0.5206    3.8448 H   0  0  0  0  0  0  0  0  0  0  0  0
    1.8999   -2.2637    4.0615 H   0  0  0  0  0  0  0  0  0  0  0  0
  1  5  1  0
  5  6  1  0
  5  7  2  0
  1  2  1  0
  1  3  1  0
  1  4  1  0
  8 12  1  0
 12 15  1  0
  8  9  1  0
  8 10  1  0
  8 11  1  0
 12 13  1  0
 12 14  1  0
 15 16  1  0
 15 17  1  0
 15 18  1  0
M  CHG  1   6  -1
M  END
>  <PDB_ID>  (484) 
pdb1bay

>  <RESIDUE_NAME>  (484) 
GLU   LEU

>  <FRAG_NAME>  (484) 
ACET   PRPA

>  <FRAG_ATOM_NUM>  (484) 
fragi: 7  fragj: 11

>  <atom.prop.CHAIN_ID>  (484) 
A A A A A A A Z Z Z Z Z Z Z Z Z Z Z

>  <atom.prop.IS_HEAVY_ATOM>  (484) 
1 0 0 0 1 1 1 1 0 0 0 1 0 0 1 0 0 0

>  <DIFUSE_FUNC_ATOM>  (484) 
atom 6   atom 7   

>  <FINAL_SINGLE_POINT_ENERGY>  (484) 
0

>  <NONCOV_INTER_ENERGY_QM>  (484) 
0

>  <FF_Energy>  (484) 
2.86

>  <QM_Energy>  (484) 
-5.26

>  <Index>  (484) 
33684

$$$$
ACET-pdb1b9c-A-ASP-155:PRPA-pdb1b9c-A-LYS-158
     RDKit          3D

 18 16  0  0  0  0  0  0  0  0999 V2000
    0.0596    1.5100   -0.0374 C   0  0  0  0  0  0  0  0  0  0  0  0
    0.0420    1.8030   -1.0096 H   0  0  0  0  0  0  0  0  0  0  0  0
    0.9541    1.8001    0.3442 H   0  0  0  0  0  0  0  0  0  0  0  0
   -0.7245    2.0519    0.4915 H   0  0  0  0  0  0  0  0  0  0  0  0
    0.0000    0.0000    0.0000 C   0  0  0  0  0  0  0  0  0  0  0  0
   -1.0833   -0.5928    0.0000 O   0  0  0  0  0  1  0  0  0  0  0  0
    1.0833   -0.5694   -0.0000 O   0  0  0  0  0  0  0  0  0  0  0  0
    2.1610   -1.9189    2.5250 C   0  0  0  0  0  0  0  0  0  0  0  0
    1.8191   -1.1856    1.8657 H   0  0  0  0  0  0  0  0  0  0  0  0
    3.1452   -1.6230    2.7106 H   0  0  0  0  0  0  0  0  0  0  0  0
    1.6102   -1.7908    3.4569 H   0  0  0  0  0  0  0  0  0  0  0  0
    2.2370   -3.2336    1.7239 C   0  0  0  0  0  0  0  0  0  0  0  0
    3.1268   -3.2496    1.2224 H   0  0  0  0  0  0  0  0  0  0  0  0
    2.2687   -4.0093    2.3866 H   0  0  0  0  0  0  0  0  0  0  0  0
    1.1119   -3.5002    0.7209 C   0  0  0  0  0  0  0  0  0  0  0  0
    0.3384   -3.8961    1.2006 H   0  0  0  0  0  0  0  0  0  0  0  0
    0.8572   -2.6463    0.2856 H   0  0  0  0  0  0  0  0  0  0  0  0
    1.4225   -4.1984   -0.0564 H   0  0  0  0  0  0  0  0  0  0  0  0
  1  5  1  0
  5  6  1  0
  5  7  2  0
  1  2  1  0
  1  3  1  0
  1  4  1  0
  8 12  1  0
 12 15  1  0
  8  9  1  0
  8 10  1  0
  8 11  1  0
 12 13  1  0
 12 14  1  0
 15 16  1  0
 15 17  1  0
 15 18  1  0
M  CHG  1   6  -1
M  END
>  <PDB_ID>  (485) 
pdb1b9c

>  <RESIDUE_NAME>  (485) 
ASP   LYS

>  <FRAG_NAME>  (485) 
ACET   PRPA

>  <FRAG_ATOM_NUM>  (485) 
fragi: 7  fragj: 11

>  <atom.prop.CHAIN_ID>  (485) 
A A A A A A A Z Z Z Z Z Z Z Z Z Z Z

>  <atom.prop.IS_HEAVY_ATOM>  (485) 
1 0 0 0 1 1 1 1 0 0 0 1 0 0 1 0 0 0

>  <DIFUSE_FUNC_ATOM>  (485) 
atom 6   atom 7   

>  <FINAL_SINGLE_POINT_ENERGY>  (485) 
0

>  <NONCOV_INTER_ENERGY_QM>  (485) 
0

>  <FF_Energy>  (485) 
11.63

>  <QM_Energy>  (485) 
-3.36

>  <Index>  (485) 
33688

$$$$
ACET-pdb1b9c-A-ASP-155:PRPA-pdb1b9c-A-LYS-158
     RDKit          3D

 18 16  0  0  0  0  0  0  0  0999 V2000
    0.0596    1.5100   -0.0374 C   0  0  0  0  0  0  0  0  0  0  0  0
    0.0420    1.8030   -1.0096 H   0  0  0  0  0  0  0  0  0  0  0  0
    0.9541    1.8001    0.3442 H   0  0  0  0  0  0  0  0  0  0  0  0
   -0.7245    2.0519    0.4915 H   0  0  0  0  0  0  0  0  0  0  0  0
    0.0000    0.0000    0.0000 C   0  0  0  0  0  0  0  0  0  0  0  0
   -1.0833   -0.5928    0.0000 O   0  0  0  0  0  1  0  0  0  0  0  0
    1.0833   -0.5694   -0.0000 O   0  0  0  0  0  0  0  0  0  0  0  0
    2.2370   -3.2336    1.7239 C   0  0  0  0  0  0  0  0  0  0  0  0
    3.1268   -3.2496    1.2224 H   0  0  0  0  0  0  0  0  0  0  0  0
    2.2687   -4.0093    2.3866 H   0  0  0  0  0  0  0  0  0  0  0  0
    2.1832   -2.3039    2.2904 H   0  0  0  0  0  0  0  0  0  0  0  0
    1.1119   -3.5002    0.7209 C   0  0  0  0  0  0  0  0  0  0  0  0
    0.3384   -3.8961    1.2006 H   0  0  0  0  0  0  0  0  0  0  0  0
    0.8572   -2.6463    0.2856 H   0  0  0  0  0  0  0  0  0  0  0  0
    1.5516   -4.4886   -0.3797 C   0  0  0  0  0  0  0  0  0  0  0  0
    2.3097   -4.0583   -0.8947 H   0  0  0  0  0  0  0  0  0  0  0  0
    1.9238   -5.3125    0.0762 H   0  0  0  0  0  0  0  0  0  0  0  0
    0.7496   -4.7709   -1.0620 H   0  0  0  0  0  0  0  0  0  0  0  0
  1  5  1  0
  5  6  1  0
  5  7  2  0
  1  2  1  0
  1  3  1  0
  1  4  1  0
  8 12  1  0
 12 15  1  0
  8  9  1  0
  8 10  1  0
  8 11  1  0
 12 13  1  0
 12 14  1  0
 15 16  1  0
 15 17  1  0
 15 18  1  0
M  CHG  1   6  -1
M  END
>  <PDB_ID>  (486) 
pdb1b9c

>  <RESIDUE_NAME>  (486) 
ASP   LYS

>  <FRAG_NAME>  (486) 
ACET   PRPA

>  <FRAG_ATOM_NUM>  (486) 
fragi: 7  fragj: 11

>  <atom.prop.CHAIN_ID>  (486) 
A A A A A A A Z Z Z Z Z Z Z Z Z Z Z

>  <atom.prop.IS_HEAVY_ATOM>  (486) 
1 0 0 0 1 1 1 1 0 0 0 1 0 0 1 0 0 0

>  <DIFUSE_FUNC_ATOM>  (486) 
atom 6   atom 7   

>  <FINAL_SINGLE_POINT_ENERGY>  (486) 
0

>  <NONCOV_INTER_ENERGY_QM>  (486) 
0

>  <FF_Energy>  (486) 
5.4

>  <QM_Energy>  (486) 
-3.26

>  <Index>  (486) 
33693

$$$$
ACET-pdb1auw-C-ASP-31:PRPA-pdb1auw-C-ILE-28
     RDKit          3D

 18 16  0  0  0  0  0  0  0  0999 V2000
    0.0427    1.5149   -0.0138 C   0  0  0  0  0  0  0  0  0  0  0  0
    0.5788    1.8132   -0.7979 H   0  0  0  0  0  0  0  0  0  0  0  0
    0.4637    1.8321    0.8302 H   0  0  0  0  0  0  0  0  0  0  0  0
   -0.9433    1.9736   -0.0886 H   0  0  0  0  0  0  0  0  0  0  0  0
    0.0000    0.0000    0.0000 C   0  0  0  0  0  0  0  0  0  0  0  0
   -1.0953   -0.6027    0.0000 O   0  0  0  0  0  1  0  0  0  0  0  0
    1.0953   -0.5923   -0.0000 O   0  0  0  0  0  0  0  0  0  0  0  0
   -2.2361   -2.6745    1.8917 C   0  0  0  0  0  0  0  0  0  0  0  0
   -1.9185   -2.2729    1.0229 H   0  0  0  0  0  0  0  0  0  0  0  0
   -1.4308   -2.5207    2.6100 H   0  0  0  0  0  0  0  0  0  0  0  0
   -3.1414   -2.1366    2.1731 H   0  0  0  0  0  0  0  0  0  0  0  0
   -2.5699   -4.1684    1.7387 C   0  0  0  0  0  0  0  0  0  0  0  0
   -1.7207   -4.6579    1.5846 H   0  0  0  0  0  0  0  0  0  0  0  0
   -3.0413   -4.5502    2.6443 H   0  0  0  0  0  0  0  0  0  0  0  0
   -3.4682   -4.3799    0.5206 C   0  0  0  0  0  0  0  0  0  0  0  0
   -3.7620   -5.3374    0.5090 H   0  0  0  0  0  0  0  0  0  0  0  0
   -4.2829   -3.8062    0.6323 H   0  0  0  0  0  0  0  0  0  0  0  0
   -2.9959   -4.1395   -0.4319 H   0  0  0  0  0  0  0  0  0  0  0  0
  1  5  1  0
  5  6  1  0
  5  7  2  0
  1  2  1  0
  1  3  1  0
  1  4  1  0
  8 12  1  0
 12 15  1  0
  8  9  1  0
  8 10  1  0
  8 11  1  0
 12 13  1  0
 12 14  1  0
 15 16  1  0
 15 17  1  0
 15 18  1  0
M  CHG  1   6  -1
M  END
>  <PDB_ID>  (487) 
pdb1auw

>  <RESIDUE_NAME>  (487) 
ASP   ILE

>  <FRAG_NAME>  (487) 
ACET   PRPA

>  <FRAG_ATOM_NUM>  (487) 
fragi: 7  fragj: 11

>  <atom.prop.CHAIN_ID>  (487) 
A A A A A A A Z Z Z Z Z Z Z Z Z Z Z

>  <atom.prop.IS_HEAVY_ATOM>  (487) 
1 0 0 0 1 1 1 1 0 0 0 1 0 0 1 0 0 0

>  <DIFUSE_FUNC_ATOM>  (487) 
atom 6   atom 7   

>  <FINAL_SINGLE_POINT_ENERGY>  (487) 
0

>  <NONCOV_INTER_ENERGY_QM>  (487) 
0

>  <FF_Energy>  (487) 
24.1

>  <QM_Energy>  (487) 
-2.71

>  <Index>  (487) 
34217

$$$$
ACET-pdb1auw-C-ASP-31:PRPA-pdb1auw-C-ILE-28
     RDKit          3D

 18 16  0  0  0  0  0  0  0  0999 V2000
    0.0427    1.5149   -0.0138 C   0  0  0  0  0  0  0  0  0  0  0  0
    0.5788    1.8132   -0.7979 H   0  0  0  0  0  0  0  0  0  0  0  0
    0.4637    1.8321    0.8302 H   0  0  0  0  0  0  0  0  0  0  0  0
   -0.9433    1.9736   -0.0886 H   0  0  0  0  0  0  0  0  0  0  0  0
    0.0000    0.0000    0.0000 C   0  0  0  0  0  0  0  0  0  0  0  0
   -1.0953   -0.6027    0.0000 O   0  0  0  0  0  1  0  0  0  0  0  0
    1.0953   -0.5923   -0.0000 O   0  0  0  0  0  0  0  0  0  0  0  0
   -2.2361   -2.6745    1.8917 C   0  0  0  0  0  0  0  0  0  0  0  0
   -1.9185   -2.2729    1.0229 H   0  0  0  0  0  0  0  0  0  0  0  0
   -1.4308   -2.5207    2.6100 H   0  0  0  0  0  0  0  0  0  0  0  0
   -3.1414   -2.1366    2.1731 H   0  0  0  0  0  0  0  0  0  0  0  0
   -2.5699   -4.1684    1.7387 C   0  0  0  0  0  0  0  0  0  0  0  0
   -1.7207   -4.6579    1.5846 H   0  0  0  0  0  0  0  0  0  0  0  0
   -3.2106   -4.3192    0.8699 H   0  0  0  0  0  0  0  0  0  0  0  0
   -3.2330   -4.7055    3.0128 C   0  0  0  0  0  0  0  0  0  0  0  0
   -3.4049   -5.6819    2.9064 H   0  0  0  0  0  0  0  0  0  0  0  0
   -2.6249   -4.5534    3.7876 H   0  0  0  0  0  0  0  0  0  0  0  0
   -4.0942   -4.2257    3.1620 H   0  0  0  0  0  0  0  0  0  0  0  0
  1  5  1  0
  5  6  1  0
  5  7  2  0
  1  2  1  0
  1  3  1  0
  1  4  1  0
  8 12  1  0
 12 15  1  0
  8  9  1  0
  8 10  1  0
  8 11  1  0
 12 13  1  0
 12 14  1  0
 15 16  1  0
 15 17  1  0
 15 18  1  0
M  CHG  1   6  -1
M  END
>  <PDB_ID>  (488) 
pdb1auw

>  <RESIDUE_NAME>  (488) 
ASP   ILE

>  <FRAG_NAME>  (488) 
ACET   PRPA

>  <FRAG_ATOM_NUM>  (488) 
fragi: 7  fragj: 11

>  <atom.prop.CHAIN_ID>  (488) 
A A A A A A A Z Z Z Z Z Z Z Z Z Z Z

>  <atom.prop.IS_HEAVY_ATOM>  (488) 
1 0 0 0 1 1 1 1 0 0 0 1 0 0 1 0 0 0

>  <DIFUSE_FUNC_ATOM>  (488) 
atom 6   atom 7   

>  <FINAL_SINGLE_POINT_ENERGY>  (488) 
0

>  <NONCOV_INTER_ENERGY_QM>  (488) 
0

>  <FF_Energy>  (488) 
3.99

>  <QM_Energy>  (488) 
-2.45

>  <Index>  (488) 
34220

$$$$
ACET-pdb1bf3-A-GLU-76:PRPA-pdb1bf3-A-ARG-83
     RDKit          3D

 18 16  0  0  0  0  0  0  0  0999 V2000
    0.0118    1.5041   -0.0190 C   0  0  0  0  0  0  0  0  0  0  0  0
    0.9262    1.7916   -0.2352 H   0  0  0  0  0  0  0  0  0  0  0  0
   -0.2787    1.8149    0.8671 H   0  0  0  0  0  0  0  0  0  0  0  0
   -0.6674    1.9048   -0.7715 H   0  0  0  0  0  0  0  0  0  0  0  0
    0.0000    0.0000    0.0000 C   0  0  0  0  0  0  0  0  0  0  0  0
   -1.1046   -0.5989   -0.0000 O   0  0  0  0  0  1  0  0  0  0  0  0
    1.1046   -0.5745    0.0000 O   0  0  0  0  0  0  0  0  0  0  0  0
    2.8016    0.7424    3.3974 C   0  0  0  0  0  0  0  0  0  0  0  0
    3.2279    1.2856    2.7010 H   0  0  0  0  0  0  0  0  0  0  0  0
    3.4886    0.6191    4.2346 H   0  0  0  0  0  0  0  0  0  0  0  0
    1.9743    1.3042    3.8312 H   0  0  0  0  0  0  0  0  0  0  0  0
    2.3244   -0.6068    2.8962 C   0  0  0  0  0  0  0  0  0  0  0  0
    1.8973   -1.0908    3.6550 H   0  0  0  0  0  0  0  0  0  0  0  0
    1.6602   -0.4549    2.1703 H   0  0  0  0  0  0  0  0  0  0  0  0
    3.4323   -1.4683    2.3503 C   0  0  0  0  0  0  0  0  0  0  0  0
    3.7776   -1.0770    1.5006 H   0  0  0  0  0  0  0  0  0  0  0  0
    4.1682   -1.5357    3.0190 H   0  0  0  0  0  0  0  0  0  0  0  0
    3.0756   -2.4763    2.1386 H   0  0  0  0  0  0  0  0  0  0  0  0
  1  5  1  0
  5  6  1  0
  5  7  2  0
  1  2  1  0
  1  3  1  0
  1  4  1  0
  8 12  1  0
 12 15  1  0
  8  9  1  0
  8 10  1  0
  8 11  1  0
 12 13  1  0
 12 14  1  0
 15 16  1  0
 15 17  1  0
 15 18  1  0
M  CHG  1   6  -1
M  END
>  <PDB_ID>  (489) 
pdb1bf3

>  <RESIDUE_NAME>  (489) 
GLU   ARG

>  <FRAG_NAME>  (489) 
ACET   PRPA

>  <FRAG_ATOM_NUM>  (489) 
fragi: 7  fragj: 11

>  <atom.prop.CHAIN_ID>  (489) 
A A A A A A A Z Z Z Z Z Z Z Z Z Z Z

>  <atom.prop.IS_HEAVY_ATOM>  (489) 
1 0 0 0 1 1 1 1 0 0 0 1 0 0 1 0 0 0

>  <DIFUSE_FUNC_ATOM>  (489) 
atom 6   atom 7   

>  <FINAL_SINGLE_POINT_ENERGY>  (489) 
0

>  <NONCOV_INTER_ENERGY_QM>  (489) 
0

>  <FF_Energy>  (489) 
1.86

>  <QM_Energy>  (489) 
-3.87

>  <Index>  (489) 
34323

$$$$
ACET-pdb2boy-A-GLU-56:PRPA-pdb2boy-A-ILE-74
     RDKit          3D

 18 16  0  0  0  0  0  0  0  0999 V2000
   -0.0607    1.5195    0.0541 C   0  0  0  0  0  0  0  0  0  0  0  0
   -0.6726    1.7682    0.7960 H   0  0  0  0  0  0  0  0  0  0  0  0
   -0.4228    1.8341   -0.8156 H   0  0  0  0  0  0  0  0  0  0  0  0
    0.8891    2.0268    0.2235 H   0  0  0  0  0  0  0  0  0  0  0  0
    0.0000    0.0000    0.0000 C   0  0  0  0  0  0  0  0  0  0  0  0
   -1.1008   -0.6174   -0.0000 O   0  0  0  0  0  1  0  0  0  0  0  0
    1.1008   -0.5951   -0.0000 O   0  0  0  0  0  0  0  0  0  0  0  0
   -1.1672   -1.4035    3.4820 C   0  0  0  0  0  0  0  0  0  0  0  0
   -1.8577   -0.9339    2.9254 H   0  0  0  0  0  0  0  0  0  0  0  0
   -1.5429   -1.3831    4.5050 H   0  0  0  0  0  0  0  0  0  0  0  0
   -1.1074   -2.4294    3.1186 H   0  0  0  0  0  0  0  0  0  0  0  0
    0.1974   -0.6932    3.3096 C   0  0  0  0  0  0  0  0  0  0  0  0
    0.4164   -0.6783    2.3418 H   0  0  0  0  0  0  0  0  0  0  0  0
    0.9872   -1.2450    3.8192 H   0  0  0  0  0  0  0  0  0  0  0  0
    0.1548    0.7847    3.8360 C   0  0  0  0  0  0  0  0  0  0  0  0
    1.0334    1.2044    3.6518 H   0  0  0  0  0  0  0  0  0  0  0  0
   -0.5698    1.2628    3.3581 H   0  0  0  0  0  0  0  0  0  0  0  0
   -0.0248    0.7615    4.8102 H   0  0  0  0  0  0  0  0  0  0  0  0
  1  5  1  0
  5  6  1  0
  5  7  2  0
  1  2  1  0
  1  3  1  0
  1  4  1  0
  8 12  1  0
 12 15  1  0
  8  9  1  0
  8 10  1  0
  8 11  1  0
 12 13  1  0
 12 14  1  0
 15 16  1  0
 15 17  1  0
 15 18  1  0
M  CHG  1   6  -1
M  END
>  <PDB_ID>  (490) 
pdb2boy

>  <RESIDUE_NAME>  (490) 
GLU   ILE

>  <FRAG_NAME>  (490) 
ACET   PRPA

>  <FRAG_ATOM_NUM>  (490) 
fragi: 7  fragj: 11

>  <atom.prop.CHAIN_ID>  (490) 
A A A A A A A Z Z Z Z Z Z Z Z Z Z Z

>  <atom.prop.IS_HEAVY_ATOM>  (490) 
1 0 0 0 1 1 1 1 0 0 0 1 0 0 1 0 0 0

>  <DIFUSE_FUNC_ATOM>  (490) 
atom 6   atom 7   

>  <FINAL_SINGLE_POINT_ENERGY>  (490) 
0

>  <NONCOV_INTER_ENERGY_QM>  (490) 
0

>  <FF_Energy>  (490) 
1.77

>  <QM_Energy>  (490) 
-4.97

>  <Index>  (490) 
34459

$$$$
ACET-pdb2b3y-B-ASP-125:PRPA-pdb2b3y-B-ILE-177
     RDKit          3D

 18 16  0  0  0  0  0  0  0  0999 V2000
    0.0248    1.5368    0.0346 C   0  0  0  0  0  0  0  0  0  0  0  0
    0.3993    1.8661   -0.8215 H   0  0  0  0  0  0  0  0  0  0  0  0
    0.5802    1.8270    0.8001 H   0  0  0  0  0  0  0  0  0  0  0  0
   -0.9652    1.9766    0.1557 H   0  0  0  0  0  0  0  0  0  0  0  0
    0.0000    0.0000    0.0000 C   0  0  0  0  0  0  0  0  0  0  0  0
   -1.0931   -0.6227   -0.0000 O   0  0  0  0  0  1  0  0  0  0  0  0
    1.0931   -0.5789    0.0000 O   0  0  0  0  0  0  0  0  0  0  0  0
    4.0886   -1.5045    1.5843 C   0  0  0  0  0  0  0  0  0  0  0  0
    3.8855   -1.2877    2.5589 H   0  0  0  0  0  0  0  0  0  0  0  0
    3.8083   -0.6178    1.0156 H   0  0  0  0  0  0  0  0  0  0  0  0
    5.1458   -1.7663    1.5401 H   0  0  0  0  0  0  0  0  0  0  0  0
    3.1719   -2.7340    1.2357 C   0  0  0  0  0  0  0  0  0  0  0  0
    2.2447   -2.4908    1.4940 H   0  0  0  0  0  0  0  0  0  0  0  0
    3.4683   -3.6164    1.8028 H   0  0  0  0  0  0  0  0  0  0  0  0
    3.1208   -3.0440   -0.2871 C   0  0  0  0  0  0  0  0  0  0  0  0
    2.4588   -3.7684   -0.4415 H   0  0  0  0  0  0  0  0  0  0  0  0
    2.8484   -2.2198   -0.7701 H   0  0  0  0  0  0  0  0  0  0  0  0
    4.0240   -3.3333   -0.5821 H   0  0  0  0  0  0  0  0  0  0  0  0
  1  5  1  0
  5  6  1  0
  5  7  2  0
  1  2  1  0
  1  3  1  0
  1  4  1  0
  8 12  1  0
 12 15  1  0
  8  9  1  0
  8 10  1  0
  8 11  1  0
 12 13  1  0
 12 14  1  0
 15 16  1  0
 15 17  1  0
 15 18  1  0
M  CHG  1   6  -1
M  END
>  <PDB_ID>  (491) 
pdb2b3y

>  <RESIDUE_NAME>  (491) 
ASP   ILE

>  <FRAG_NAME>  (491) 
ACET   PRPA

>  <FRAG_ATOM_NUM>  (491) 
fragi: 7  fragj: 11

>  <atom.prop.CHAIN_ID>  (491) 
A A A A A A A Z Z Z Z Z Z Z Z Z Z Z

>  <atom.prop.IS_HEAVY_ATOM>  (491) 
1 0 0 0 1 1 1 1 0 0 0 1 0 0 1 0 0 0

>  <DIFUSE_FUNC_ATOM>  (491) 
atom 6   atom 7   

>  <FINAL_SINGLE_POINT_ENERGY>  (491) 
0

>  <NONCOV_INTER_ENERGY_QM>  (491) 
0

>  <FF_Energy>  (491) 
0.49

>  <QM_Energy>  (491) 
-5.29

>  <Index>  (491) 
34573

$$$$
ACET-pdb1bbr-F-GLU-313:PRPA-pdb1bbr-E-ARG-173
     RDKit          3D

 18 16  0  0  0  0  0  0  0  0999 V2000
    0.2152    1.4782    0.0277 C   0  0  0  0  0  0  0  0  0  0  0  0
    1.1028    1.6587   -0.4340 H   0  0  0  0  0  0  0  0  0  0  0  0
    0.3329    1.7436    1.0026 H   0  0  0  0  0  0  0  0  0  0  0  0
   -0.5314    2.1393   -0.4124 H   0  0  0  0  0  0  0  0  0  0  0  0
    0.0000    0.0000    0.0000 C   0  0  0  0  0  0  0  0  0  0  0  0
   -1.0954   -0.5675   -0.0000 O   0  0  0  0  0  1  0  0  0  0  0  0
    1.0954   -0.6289   -0.0000 O   0  0  0  0  0  0  0  0  0  0  0  0
   -2.8780   -0.6669    3.6150 C   0  0  0  0  0  0  0  0  0  0  0  0
   -2.6783   -1.3832    4.2762 H   0  0  0  0  0  0  0  0  0  0  0  0
   -3.9578   -0.5231    3.5791 H   0  0  0  0  0  0  0  0  0  0  0  0
   -2.4187    0.2650    3.9445 H   0  0  0  0  0  0  0  0  0  0  0  0
   -2.3867   -1.2314    2.2978 C   0  0  0  0  0  0  0  0  0  0  0  0
   -2.4270   -0.5321    1.6132 H   0  0  0  0  0  0  0  0  0  0  0  0
   -1.4851   -1.5936    2.4188 H   0  0  0  0  0  0  0  0  0  0  0  0
   -3.2953   -2.3853    1.8405 C   0  0  0  0  0  0  0  0  0  0  0  0
   -3.8395   -2.6894    2.6434 H   0  0  0  0  0  0  0  0  0  0  0  0
   -3.9527   -2.0113    1.1620 H   0  0  0  0  0  0  0  0  0  0  0  0
   -2.7755   -3.2406    1.4087 H   0  0  0  0  0  0  0  0  0  0  0  0
  1  5  1  0
  5  6  1  0
  5  7  2  0
  1  2  1  0
  1  3  1  0
  1  4  1  0
  8 12  1  0
 12 15  1  0
  8  9  1  0
  8 10  1  0
  8 11  1  0
 12 13  1  0
 12 14  1  0
 15 16  1  0
 15 17  1  0
 15 18  1  0
M  CHG  1   6  -1
M  END
>  <PDB_ID>  (492) 
pdb1bbr

>  <RESIDUE_NAME>  (492) 
GLU   ARG

>  <FRAG_NAME>  (492) 
ACET   PRPA

>  <FRAG_ATOM_NUM>  (492) 
fragi: 7  fragj: 11

>  <atom.prop.CHAIN_ID>  (492) 
A A A A A A A Z Z Z Z Z Z Z Z Z Z Z

>  <atom.prop.IS_HEAVY_ATOM>  (492) 
1 0 0 0 1 1 1 1 0 0 0 1 0 0 1 0 0 0

>  <DIFUSE_FUNC_ATOM>  (492) 
atom 6   atom 7   

>  <FINAL_SINGLE_POINT_ENERGY>  (492) 
0

>  <NONCOV_INTER_ENERGY_QM>  (492) 
0

>  <FF_Energy>  (492) 
3.2

>  <QM_Energy>  (492) 
-0.15

>  <Index>  (492) 
34759

$$$$
ACET-pdb1bbr-F-GLU-313:PRPA-pdb1bbr-E-ARG-173
     RDKit          3D

 18 16  0  0  0  0  0  0  0  0999 V2000
    0.2152    1.4782    0.0277 C   0  0  0  0  0  0  0  0  0  0  0  0
    1.1028    1.6587   -0.4340 H   0  0  0  0  0  0  0  0  0  0  0  0
    0.3329    1.7436    1.0026 H   0  0  0  0  0  0  0  0  0  0  0  0
   -0.5314    2.1393   -0.4124 H   0  0  0  0  0  0  0  0  0  0  0  0
    0.0000    0.0000    0.0000 C   0  0  0  0  0  0  0  0  0  0  0  0
   -1.0954   -0.5675   -0.0000 O   0  0  0  0  0  1  0  0  0  0  0  0
    1.0954   -0.6289   -0.0000 O   0  0  0  0  0  0  0  0  0  0  0  0
   -2.3867   -1.2314    2.2978 C   0  0  0  0  0  0  0  0  0  0  0  0
   -2.4270   -0.5321    1.6132 H   0  0  0  0  0  0  0  0  0  0  0  0
   -1.4851   -1.5936    2.4188 H   0  0  0  0  0  0  0  0  0  0  0  0
   -2.7402   -0.8253    3.2455 H   0  0  0  0  0  0  0  0  0  0  0  0
   -3.2953   -2.3853    1.8405 C   0  0  0  0  0  0  0  0  0  0  0  0
   -3.8395   -2.6894    2.6434 H   0  0  0  0  0  0  0  0  0  0  0  0
   -3.9527   -2.0113    1.1620 H   0  0  0  0  0  0  0  0  0  0  0  0
   -2.5965   -3.5353    1.2599 C   0  0  0  0  0  0  0  0  0  0  0  0
   -1.8935   -3.8670    1.9146 H   0  0  0  0  0  0  0  0  0  0  0  0
   -3.2572   -4.2960    1.1258 H   0  0  0  0  0  0  0  0  0  0  0  0
   -2.1017   -3.3533    0.3059 H   0  0  0  0  0  0  0  0  0  0  0  0
  1  5  1  0
  5  6  1  0
  5  7  2  0
  1  2  1  0
  1  3  1  0
  1  4  1  0
  8 12  1  0
 12 15  1  0
  8  9  1  0
  8 10  1  0
  8 11  1  0
 12 13  1  0
 12 14  1  0
 15 16  1  0
 15 17  1  0
 15 18  1  0
M  CHG  1   6  -1
M  END
>  <PDB_ID>  (493) 
pdb1bbr

>  <RESIDUE_NAME>  (493) 
GLU   ARG

>  <FRAG_NAME>  (493) 
ACET   PRPA

>  <FRAG_ATOM_NUM>  (493) 
fragi: 7  fragj: 11

>  <atom.prop.CHAIN_ID>  (493) 
A A A A A A A Z Z Z Z Z Z Z Z Z Z Z

>  <atom.prop.IS_HEAVY_ATOM>  (493) 
1 0 0 0 1 1 1 1 0 0 0 1 0 0 1 0 0 0

>  <DIFUSE_FUNC_ATOM>  (493) 
atom 6   atom 7   

>  <FINAL_SINGLE_POINT_ENERGY>  (493) 
0

>  <NONCOV_INTER_ENERGY_QM>  (493) 
0

>  <FF_Energy>  (493) 
8.59

>  <QM_Energy>  (493) 
-0.73

>  <Index>  (493) 
34761

$$$$
ACET-pdb2b3z-D-GLU-72:PRPA-pdb2b3z-D-ILE-111
     RDKit          3D

 18 16  0  0  0  0  0  0  0  0999 V2000
   -0.0223    1.5328    0.0030 C   0  0  0  0  0  0  0  0  0  0  0  0
   -0.3860    1.8163    0.8738 H   0  0  0  0  0  0  0  0  0  0  0  0
   -0.5977    1.8164   -0.7449 H   0  0  0  0  0  0  0  0  0  0  0  0
    0.9595    1.9888   -0.1243 H   0  0  0  0  0  0  0  0  0  0  0  0
    0.0000    0.0000    0.0000 C   0  0  0  0  0  0  0  0  0  0  0  0
   -1.0968   -0.6046   -0.0000 O   0  0  0  0  0  1  0  0  0  0  0  0
    1.0968   -0.6056    0.0000 O   0  0  0  0  0  0  0  0  0  0  0  0
   -4.5346   -0.3434   -1.4876 C   0  0  0  0  0  0  0  0  0  0  0  0
   -4.7479    0.5971   -1.7565 H   0  0  0  0  0  0  0  0  0  0  0  0
   -4.0734   -0.2814   -0.5020 H   0  0  0  0  0  0  0  0  0  0  0  0
   -5.4844   -0.8745   -1.4251 H   0  0  0  0  0  0  0  0  0  0  0  0
   -3.6238   -1.0937   -2.4925 C   0  0  0  0  0  0  0  0  0  0  0  0
   -3.4561   -2.0029   -2.1303 H   0  0  0  0  0  0  0  0  0  0  0  0
   -4.1320   -1.1964   -3.4513 H   0  0  0  0  0  0  0  0  0  0  0  0
   -2.2727   -0.3785   -2.6283 C   0  0  0  0  0  0  0  0  0  0  0  0
   -1.8323   -0.3713   -1.7257 H   0  0  0  0  0  0  0  0  0  0  0  0
   -1.6960   -0.9259   -3.2440 H   0  0  0  0  0  0  0  0  0  0  0  0
   -2.3265    0.6417   -3.0085 H   0  0  0  0  0  0  0  0  0  0  0  0
  1  5  1  0
  5  6  1  0
  5  7  2  0
  1  2  1  0
  1  3  1  0
  1  4  1  0
  8 12  1  0
 12 15  1  0
  8  9  1  0
  8 10  1  0
  8 11  1  0
 12 13  1  0
 12 14  1  0
 15 16  1  0
 15 17  1  0
 15 18  1  0
M  CHG  1   6  -1
M  END
>  <PDB_ID>  (494) 
pdb2b3z

>  <RESIDUE_NAME>  (494) 
GLU   ILE

>  <FRAG_NAME>  (494) 
ACET   PRPA

>  <FRAG_ATOM_NUM>  (494) 
fragi: 7  fragj: 11

>  <atom.prop.CHAIN_ID>  (494) 
A A A A A A A Z Z Z Z Z Z Z Z Z Z Z

>  <atom.prop.IS_HEAVY_ATOM>  (494) 
1 0 0 0 1 1 1 1 0 0 0 1 0 0 1 0 0 0

>  <DIFUSE_FUNC_ATOM>  (494) 
atom 6   atom 7   

>  <FINAL_SINGLE_POINT_ENERGY>  (494) 
0

>  <NONCOV_INTER_ENERGY_QM>  (494) 
0

>  <FF_Energy>  (494) 
1.45

>  <QM_Energy>  (494) 
-2.14

>  <Index>  (494) 
34888

$$$$
ACET-pdb2b3z-D-GLU-72:PRPA-pdb2b3z-D-ILE-111
     RDKit          3D

 18 16  0  0  0  0  0  0  0  0999 V2000
   -0.0223    1.5328    0.0030 C   0  0  0  0  0  0  0  0  0  0  0  0
   -0.3860    1.8163    0.8738 H   0  0  0  0  0  0  0  0  0  0  0  0
   -0.5977    1.8164   -0.7449 H   0  0  0  0  0  0  0  0  0  0  0  0
    0.9595    1.9888   -0.1243 H   0  0  0  0  0  0  0  0  0  0  0  0
    0.0000    0.0000    0.0000 C   0  0  0  0  0  0  0  0  0  0  0  0
   -1.0968   -0.6046   -0.0000 O   0  0  0  0  0  1  0  0  0  0  0  0
    1.0968   -0.6056    0.0000 O   0  0  0  0  0  0  0  0  0  0  0  0
   -3.6238   -1.0937   -2.4925 C   0  0  0  0  0  0  0  0  0  0  0  0
   -3.4561   -2.0029   -2.1303 H   0  0  0  0  0  0  0  0  0  0  0  0
   -4.2643   -0.5661   -1.7859 H   0  0  0  0  0  0  0  0  0  0  0  0
   -4.1320   -1.1964   -3.4513 H   0  0  0  0  0  0  0  0  0  0  0  0
   -2.2727   -0.3785   -2.6283 C   0  0  0  0  0  0  0  0  0  0  0  0
   -1.8323   -0.3713   -1.7257 H   0  0  0  0  0  0  0  0  0  0  0  0
   -1.6960   -0.9259   -3.2440 H   0  0  0  0  0  0  0  0  0  0  0  0
   -2.3469    1.0287   -3.1527 C   0  0  0  0  0  0  0  0  0  0  0  0
   -2.9042    1.5873   -2.5376 H   0  0  0  0  0  0  0  0  0  0  0  0
   -1.4260    1.4152   -3.2086 H   0  0  0  0  0  0  0  0  0  0  0  0
   -2.7603    1.0263   -4.0637 H   0  0  0  0  0  0  0  0  0  0  0  0
  1  5  1  0
  5  6  1  0
  5  7  2  0
  1  2  1  0
  1  3  1  0
  1  4  1  0
  8 12  1  0
 12 15  1  0
  8  9  1  0
  8 10  1  0
  8 11  1  0
 12 13  1  0
 12 14  1  0
 15 16  1  0
 15 17  1  0
 15 18  1  0
M  CHG  1   6  -1
M  END
>  <PDB_ID>  (495) 
pdb2b3z

>  <RESIDUE_NAME>  (495) 
GLU   ILE

>  <FRAG_NAME>  (495) 
ACET   PRPA

>  <FRAG_ATOM_NUM>  (495) 
fragi: 7  fragj: 11

>  <atom.prop.CHAIN_ID>  (495) 
A A A A A A A Z Z Z Z Z Z Z Z Z Z Z

>  <atom.prop.IS_HEAVY_ATOM>  (495) 
1 0 0 0 1 1 1 1 0 0 0 1 0 0 1 0 0 0

>  <DIFUSE_FUNC_ATOM>  (495) 
atom 6   atom 7   

>  <FINAL_SINGLE_POINT_ENERGY>  (495) 
0

>  <NONCOV_INTER_ENERGY_QM>  (495) 
0

>  <FF_Energy>  (495) 
0.25

>  <QM_Energy>  (495) 
-1.8

>  <Index>  (495) 
34929

$$$$
ACET-pdb2bht-C-ASP-145:PRPA-pdb2bht-C-GLU-51
     RDKit          3D

 18 16  0  0  0  0  0  0  0  0999 V2000
   -0.0071    1.5169    0.0101 C   0  0  0  0  0  0  0  0  0  0  0  0
    0.7819    1.8425   -0.4887 H   0  0  0  0  0  0  0  0  0  0  0  0
    0.0075    1.8298    0.9472 H   0  0  0  0  0  0  0  0  0  0  0  0
   -0.9010    1.9166   -0.4688 H   0  0  0  0  0  0  0  0  0  0  0  0
    0.0000    0.0000    0.0000 C   0  0  0  0  0  0  0  0  0  0  0  0
   -1.0974   -0.5961   -0.0000 O   0  0  0  0  0  1  0  0  0  0  0  0
    1.0974   -0.5930    0.0000 O   0  0  0  0  0  0  0  0  0  0  0  0
    2.5815   -2.1321    3.4975 C   0  0  0  0  0  0  0  0  0  0  0  0
    2.1754   -2.8333    4.1009 H   0  0  0  0  0  0  0  0  0  0  0  0
    2.9099   -1.2817    4.0949 H   0  0  0  0  0  0  0  0  0  0  0  0
    3.4074   -2.5710    2.9378 H   0  0  0  0  0  0  0  0  0  0  0  0
    1.4630   -1.6974    2.5460 C   0  0  0  0  0  0  0  0  0  0  0  0
    1.8711   -1.1797    1.8213 H   0  0  0  0  0  0  0  0  0  0  0  0
    1.0085   -2.5044    2.2291 H   0  0  0  0  0  0  0  0  0  0  0  0
    0.4219   -0.8121    3.2178 C   0  0  0  0  0  0  0  0  0  0  0  0
    0.8882   -0.0811    3.6728 H   0  0  0  0  0  0  0  0  0  0  0  0
   -0.2039   -0.4980    2.5327 H   0  0  0  0  0  0  0  0  0  0  0  0
   -0.1534   -1.3554    3.9675 H   0  0  0  0  0  0  0  0  0  0  0  0
  1  5  1  0
  5  6  1  0
  5  7  2  0
  1  2  1  0
  1  3  1  0
  1  4  1  0
  8 12  1  0
 12 15  1  0
  8  9  1  0
  8 10  1  0
  8 11  1  0
 12 13  1  0
 12 14  1  0
 15 16  1  0
 15 17  1  0
 15 18  1  0
M  CHG  1   6  -1
M  END
>  <PDB_ID>  (496) 
pdb2bht

>  <RESIDUE_NAME>  (496) 
ASP   GLU

>  <FRAG_NAME>  (496) 
ACET   PRPA

>  <FRAG_ATOM_NUM>  (496) 
fragi: 7  fragj: 11

>  <atom.prop.CHAIN_ID>  (496) 
A A A A A A A Z Z Z Z Z Z Z Z Z Z Z

>  <atom.prop.IS_HEAVY_ATOM>  (496) 
1 0 0 0 1 1 1 1 0 0 0 1 0 0 1 0 0 0

>  <DIFUSE_FUNC_ATOM>  (496) 
atom 6   atom 7   

>  <FINAL_SINGLE_POINT_ENERGY>  (496) 
0

>  <NONCOV_INTER_ENERGY_QM>  (496) 
0

>  <FF_Energy>  (496) 
7.97

>  <QM_Energy>  (496) 
-2.4

>  <Index>  (496) 
34944

$$$$
ACET-pdb2bht-C-ASP-62:PRPA-pdb2bht-C-ILE-58
     RDKit          3D

 18 16  0  0  0  0  0  0  0  0999 V2000
   -0.0044    1.5168   -0.0028 C   0  0  0  0  0  0  0  0  0  0  0  0
    0.8017    1.8376   -0.4810 H   0  0  0  0  0  0  0  0  0  0  0  0
   -0.0132    1.8385    0.9329 H   0  0  0  0  0  0  0  0  0  0  0  0
   -0.8808    1.9223   -0.5082 H   0  0  0  0  0  0  0  0  0  0  0  0
    0.0000    0.0000    0.0000 C   0  0  0  0  0  0  0  0  0  0  0  0
   -1.0978   -0.5939    0.0000 O   0  0  0  0  0  1  0  0  0  0  0  0
    1.0978   -0.5928    0.0000 O   0  0  0  0  0  0  0  0  0  0  0  0
    3.7647   -1.6102    0.5607 C   0  0  0  0  0  0  0  0  0  0  0  0
    2.8167   -1.8203    0.8371 H   0  0  0  0  0  0  0  0  0  0  0  0
    4.4058   -2.2871    1.1252 H   0  0  0  0  0  0  0  0  0  0  0  0
    3.8205   -1.7882   -0.5133 H   0  0  0  0  0  0  0  0  0  0  0  0
    4.0649   -0.1309    0.8444 C   0  0  0  0  0  0  0  0  0  0  0  0
    3.5036    0.4255    0.2101 H   0  0  0  0  0  0  0  0  0  0  0  0
    5.1059    0.1631    0.7100 H   0  0  0  0  0  0  0  0  0  0  0  0
    3.5749    0.2697    2.2295 C   0  0  0  0  0  0  0  0  0  0  0  0
    3.6494    1.2593    2.3361 H   0  0  0  0  0  0  0  0  0  0  0  0
    2.6209   -0.0054    2.3378 H   0  0  0  0  0  0  0  0  0  0  0  0
    4.1323   -0.1821    2.9239 H   0  0  0  0  0  0  0  0  0  0  0  0
  1  5  1  0
  5  6  1  0
  5  7  2  0
  1  2  1  0
  1  3  1  0
  1  4  1  0
  8 12  1  0
 12 15  1  0
  8  9  1  0
  8 10  1  0
  8 11  1  0
 12 13  1  0
 12 14  1  0
 15 16  1  0
 15 17  1  0
 15 18  1  0
M  CHG  1   6  -1
M  END
>  <PDB_ID>  (497) 
pdb2bht

>  <RESIDUE_NAME>  (497) 
ASP   ILE

>  <FRAG_NAME>  (497) 
ACET   PRPA

>  <FRAG_ATOM_NUM>  (497) 
fragi: 7  fragj: 11

>  <atom.prop.CHAIN_ID>  (497) 
A A A A A A A Z Z Z Z Z Z Z Z Z Z Z

>  <atom.prop.IS_HEAVY_ATOM>  (497) 
1 0 0 0 1 1 1 1 0 0 0 1 0 0 1 0 0 0

>  <DIFUSE_FUNC_ATOM>  (497) 
atom 6   atom 7   

>  <FINAL_SINGLE_POINT_ENERGY>  (497) 
0

>  <NONCOV_INTER_ENERGY_QM>  (497) 
0

>  <FF_Energy>  (497) 
2.17

>  <QM_Energy>  (497) 
-4.74

>  <Index>  (497) 
35100

$$$$
ACET-pdb1bi5-A-ASP-227:PRPA-pdb1bi5-A-GLU-14
     RDKit          3D

 18 16  0  0  0  0  0  0  0  0999 V2000
    0.0091    1.5192   -0.0236 C   0  0  0  0  0  0  0  0  0  0  0  0
    0.8898    1.8327   -0.3199 H   0  0  0  0  0  0  0  0  0  0  0  0
   -0.2369    1.8579    0.8617 H   0  0  0  0  0  0  0  0  0  0  0  0
   -0.7294    1.8873   -0.7358 H   0  0  0  0  0  0  0  0  0  0  0  0
    0.0000    0.0000    0.0000 C   0  0  0  0  0  0  0  0  0  0  0  0
   -1.0924   -0.6019    0.0000 O   0  0  0  0  0  1  0  0  0  0  0  0
    1.0924   -0.6140   -0.0000 O   0  0  0  0  0  0  0  0  0  0  0  0
   -0.4164   -4.2483    0.5669 C   0  0  0  0  0  0  0  0  0  0  0  0
   -0.1768   -5.2218    0.7153 H   0  0  0  0  0  0  0  0  0  0  0  0
    0.4658   -3.7126    0.2164 H   0  0  0  0  0  0  0  0  0  0  0  0
   -1.2519   -4.1808   -0.1299 H   0  0  0  0  0  0  0  0  0  0  0  0
   -0.7883   -3.7727    1.9670 C   0  0  0  0  0  0  0  0  0  0  0  0
   -1.4444   -4.4359    2.3422 H   0  0  0  0  0  0  0  0  0  0  0  0
    0.0487   -3.7983    2.5224 H   0  0  0  0  0  0  0  0  0  0  0  0
   -1.3940   -2.3997    2.1242 C   0  0  0  0  0  0  0  0  0  0  0  0
   -0.7695   -1.7357    1.7442 H   0  0  0  0  0  0  0  0  0  0  0  0
   -2.2645   -2.3832    1.6573 H   0  0  0  0  0  0  0  0  0  0  0  0
   -1.5775   -2.1159    3.1605 H   0  0  0  0  0  0  0  0  0  0  0  0
  1  5  1  0
  5  6  1  0
  5  7  2  0
  1  2  1  0
  1  3  1  0
  1  4  1  0
  8 12  1  0
 12 15  1  0
  8  9  1  0
  8 10  1  0
  8 11  1  0
 12 13  1  0
 12 14  1  0
 15 16  1  0
 15 17  1  0
 15 18  1  0
M  CHG  1   6  -1
M  END
>  <PDB_ID>  (498) 
pdb1bi5

>  <RESIDUE_NAME>  (498) 
ASP   GLU

>  <FRAG_NAME>  (498) 
ACET   PRPA

>  <FRAG_ATOM_NUM>  (498) 
fragi: 7  fragj: 11

>  <atom.prop.CHAIN_ID>  (498) 
A A A A A A A Z Z Z Z Z Z Z Z Z Z Z

>  <atom.prop.IS_HEAVY_ATOM>  (498) 
1 0 0 0 1 1 1 1 0 0 0 1 0 0 1 0 0 0

>  <DIFUSE_FUNC_ATOM>  (498) 
atom 6   atom 7   

>  <FINAL_SINGLE_POINT_ENERGY>  (498) 
0

>  <NONCOV_INTER_ENERGY_QM>  (498) 
0

>  <FF_Energy>  (498) 
8.18

>  <QM_Energy>  (498) 
-1.09

>  <Index>  (498) 
35116

$$$$
ACET-pdb2b3z-D-GLU-131:PRPA-pdb2b3z-D-LEU-138
     RDKit          3D

 18 16  0  0  0  0  0  0  0  0999 V2000
   -0.0051    1.5079    0.0169 C   0  0  0  0  0  0  0  0  0  0  0  0
    0.2887    1.7953    0.9116 H   0  0  0  0  0  0  0  0  0  0  0  0
   -0.9238    1.8028   -0.1817 H   0  0  0  0  0  0  0  0  0  0  0  0
    0.6684    1.9360   -0.7255 H   0  0  0  0  0  0  0  0  0  0  0  0
    0.0000    0.0000    0.0000 C   0  0  0  0  0  0  0  0  0  0  0  0
   -1.0912   -0.5934   -0.0000 O   0  0  0  0  0  1  0  0  0  0  0  0
    1.0912   -0.5957   -0.0000 O   0  0  0  0  0  0  0  0  0  0  0  0
   -4.3874   -1.5913   -2.3556 C   0  0  0  0  0  0  0  0  0  0  0  0
   -4.5500   -0.7495   -2.8897 H   0  0  0  0  0  0  0  0  0  0  0  0
   -4.4251   -1.3514   -1.3764 H   0  0  0  0  0  0  0  0  0  0  0  0
   -5.2117   -2.2746   -2.5595 H   0  0  0  0  0  0  0  0  0  0  0  0
   -2.9542   -2.0399   -2.6528 C   0  0  0  0  0  0  0  0  0  0  0  0
   -2.6114   -2.5639   -1.8720 H   0  0  0  0  0  0  0  0  0  0  0  0
   -2.9203   -2.6578   -3.5500 H   0  0  0  0  0  0  0  0  0  0  0  0
   -2.0715   -0.8118   -2.8044 C   0  0  0  0  0  0  0  0  0  0  0  0
   -2.0884   -0.2796   -1.9568 H   0  0  0  0  0  0  0  0  0  0  0  0
   -1.1321   -1.0962   -2.9986 H   0  0  0  0  0  0  0  0  0  0  0  0
   -2.4100   -0.2468   -3.5579 H   0  0  0  0  0  0  0  0  0  0  0  0
  1  5  1  0
  5  6  1  0
  5  7  2  0
  1  2  1  0
  1  3  1  0
  1  4  1  0
  8 12  1  0
 12 15  1  0
  8  9  1  0
  8 10  1  0
  8 11  1  0
 12 13  1  0
 12 14  1  0
 15 16  1  0
 15 17  1  0
 15 18  1  0
M  CHG  1   6  -1
M  END
>  <PDB_ID>  (499) 
pdb2b3z

>  <RESIDUE_NAME>  (499) 
GLU   LEU

>  <FRAG_NAME>  (499) 
ACET   PRPA

>  <FRAG_ATOM_NUM>  (499) 
fragi: 7  fragj: 11

>  <atom.prop.CHAIN_ID>  (499) 
A A A A A A A Z Z Z Z Z Z Z Z Z Z Z

>  <atom.prop.IS_HEAVY_ATOM>  (499) 
1 0 0 0 1 1 1 1 0 0 0 1 0 0 1 0 0 0

>  <DIFUSE_FUNC_ATOM>  (499) 
atom 6   atom 7   

>  <FINAL_SINGLE_POINT_ENERGY>  (499) 
0

>  <NONCOV_INTER_ENERGY_QM>  (499) 
0

>  <FF_Energy>  (499) 
2.45

>  <QM_Energy>  (499) 
-3.51

>  <Index>  (499) 
35369

$$$$
ACET-pdb1bii-A-GLU-53:PRPA-pdb1bii-A-ARG-50
     RDKit          3D

 18 16  0  0  0  0  0  0  0  0999 V2000
    0.0090    1.5247   -0.0112 C   0  0  0  0  0  0  0  0  0  0  0  0
    0.9149    1.8093   -0.2474 H   0  0  0  0  0  0  0  0  0  0  0  0
   -0.2657    1.8240    0.8797 H   0  0  0  0  0  0  0  0  0  0  0  0
   -0.6860    1.9303   -0.7464 H   0  0  0  0  0  0  0  0  0  0  0  0
    0.0000    0.0000    0.0000 C   0  0  0  0  0  0  0  0  0  0  0  0
   -1.0917   -0.6058    0.0000 O   0  0  0  0  0  1  0  0  0  0  0  0
    1.0917   -0.6034    0.0000 O   0  0  0  0  0  0  0  0  0  0  0  0
   -3.9449   -0.4878    0.7601 C   0  0  0  0  0  0  0  0  0  0  0  0
   -2.9270   -0.2872    0.7722 H   0  0  0  0  0  0  0  0  0  0  0  0
   -4.2937   -0.5455    1.7911 H   0  0  0  0  0  0  0  0  0  0  0  0
   -4.4195    0.2386    0.1003 H   0  0  0  0  0  0  0  0  0  0  0  0
   -3.9143   -1.8945    0.1594 C   0  0  0  0  0  0  0  0  0  0  0  0
   -3.7075   -1.8093   -0.8203 H   0  0  0  0  0  0  0  0  0  0  0  0
   -3.1701   -2.4048    0.6015 H   0  0  0  0  0  0  0  0  0  0  0  0
   -5.1881   -2.7125    0.2991 C   0  0  0  0  0  0  0  0  0  0  0  0
   -5.3405   -2.9320    1.2567 H   0  0  0  0  0  0  0  0  0  0  0  0
   -5.9555   -2.1978   -0.0662 H   0  0  0  0  0  0  0  0  0  0  0  0
   -5.1126   -3.6475   -0.2561 H   0  0  0  0  0  0  0  0  0  0  0  0
  1  5  1  0
  5  6  1  0
  5  7  2  0
  1  2  1  0
  1  3  1  0
  1  4  1  0
  8 12  1  0
 12 15  1  0
  8  9  1  0
  8 10  1  0
  8 11  1  0
 12 13  1  0
 12 14  1  0
 15 16  1  0
 15 17  1  0
 15 18  1  0
M  CHG  1   6  -1
M  END
>  <PDB_ID>  (500) 
pdb1bii

>  <RESIDUE_NAME>  (500) 
GLU   ARG

>  <FRAG_NAME>  (500) 
ACET   PRPA

>  <FRAG_ATOM_NUM>  (500) 
fragi: 7  fragj: 11

>  <atom.prop.CHAIN_ID>  (500) 
A A A A A A A Z Z Z Z Z Z Z Z Z Z Z

>  <atom.prop.IS_HEAVY_ATOM>  (500) 
1 0 0 0 1 1 1 1 0 0 0 1 0 0 1 0 0 0

>  <DIFUSE_FUNC_ATOM>  (500) 
atom 6   atom 7   

>  <FINAL_SINGLE_POINT_ENERGY>  (500) 
0

>  <NONCOV_INTER_ENERGY_QM>  (500) 
0

>  <FF_Energy>  (500) 
9.41

>  <QM_Energy>  (500) 
-3.81

>  <Index>  (500) 
35392

$$$$
ACET-pdb2c1d-A-ASP-162:PRPA-pdb2c1d-A-ARG-90
     RDKit          3D

 18 16  0  0  0  0  0  0  0  0999 V2000
    0.0464    1.5267   -0.0857 C   0  0  0  0  0  0  0  0  0  0  0  0
    0.7724    1.7837   -0.7198 H   0  0  0  0  0  0  0  0  0  0  0  0
    0.2484    1.8867    0.8229 H   0  0  0  0  0  0  0  0  0  0  0  0
   -0.8815    1.9818   -0.4321 H   0  0  0  0  0  0  0  0  0  0  0  0
    0.0000    0.0000    0.0000 C   0  0  0  0  0  0  0  0  0  0  0  0
   -1.0830   -0.6529    0.0000 O   0  0  0  0  0  1  0  0  0  0  0  0
    1.0830   -0.6291   -0.0000 O   0  0  0  0  0  0  0  0  0  0  0  0
    1.7730   -0.5385    3.9348 C   0  0  0  0  0  0  0  0  0  0  0  0
    1.4128   -1.1440    4.6544 H   0  0  0  0  0  0  0  0  0  0  0  0
    1.0058   -0.2625    3.3429 H   0  0  0  0  0  0  0  0  0  0  0  0
    2.1627    0.3580    4.4170 H   0  0  0  0  0  0  0  0  0  0  0  0
    2.7497   -1.2839    3.1306 C   0  0  0  0  0  0  0  0  0  0  0  0
    3.4737   -0.6718    2.8068 H   0  0  0  0  0  0  0  0  0  0  0  0
    3.1602   -2.0184    3.6744 H   0  0  0  0  0  0  0  0  0  0  0  0
    2.0934   -1.8969    1.9442 C   0  0  0  0  0  0  0  0  0  0  0  0
    1.2121   -1.4366    1.7988 H   0  0  0  0  0  0  0  0  0  0  0  0
    2.6785   -1.7346    1.1432 H   0  0  0  0  0  0  0  0  0  0  0  0
    1.9330   -2.9675    2.0717 H   0  0  0  0  0  0  0  0  0  0  0  0
  1  5  1  0
  5  6  1  0
  5  7  2  0
  1  2  1  0
  1  3  1  0
  1  4  1  0
  8 12  1  0
 12 15  1  0
  8  9  1  0
  8 10  1  0
  8 11  1  0
 12 13  1  0
 12 14  1  0
 15 16  1  0
 15 17  1  0
 15 18  1  0
M  CHG  1   6  -1
M  END
>  <PDB_ID>  (501) 
pdb2c1d

>  <RESIDUE_NAME>  (501) 
ASP   ARG

>  <FRAG_NAME>  (501) 
ACET   PRPA

>  <FRAG_ATOM_NUM>  (501) 
fragi: 7  fragj: 11

>  <atom.prop.CHAIN_ID>  (501) 
A A A A A A A Z Z Z Z Z Z Z Z Z Z Z

>  <atom.prop.IS_HEAVY_ATOM>  (501) 
1 0 0 0 1 1 1 1 0 0 0 1 0 0 1 0 0 0

>  <DIFUSE_FUNC_ATOM>  (501) 
atom 6   atom 7   

>  <FINAL_SINGLE_POINT_ENERGY>  (501) 
0

>  <NONCOV_INTER_ENERGY_QM>  (501) 
0

>  <FF_Energy>  (501) 
0.83

>  <QM_Energy>  (501) 
4.14

>  <Index>  (501) 
35475

$$$$
ACET-pdb2c71-A-ASP-487:PRPA-pdb2c71-A-ARG-577
     RDKit          3D

 18 16  0  0  0  0  0  0  0  0999 V2000
    0.0018    1.5159   -0.0002 C   0  0  0  0  0  0  0  0  0  0  0  0
    0.5907    1.8349   -0.7336 H   0  0  0  0  0  0  0  0  0  0  0  0
    0.3340    1.8362    0.8785 H   0  0  0  0  0  0  0  0  0  0  0  0
   -0.9915    1.9358   -0.1588 H   0  0  0  0  0  0  0  0  0  0  0  0
    0.0000    0.0000    0.0000 C   0  0  0  0  0  0  0  0  0  0  0  0
   -1.0982   -0.5956    0.0000 O   0  0  0  0  0  1  0  0  0  0  0  0
    1.0982   -0.5961    0.0000 O   0  0  0  0  0  0  0  0  0  0  0  0
   -0.4625   -4.2744    2.2515 C   0  0  0  0  0  0  0  0  0  0  0  0
   -1.0868   -4.5622    1.5537 H   0  0  0  0  0  0  0  0  0  0  0  0
   -0.7274   -3.4332    2.6759 H   0  0  0  0  0  0  0  0  0  0  0  0
   -0.3975   -5.0519    3.0126 H   0  0  0  0  0  0  0  0  0  0  0  0
    0.9074   -4.0593    1.5981 C   0  0  0  0  0  0  0  0  0  0  0  0
    1.4547   -3.4667    2.2077 H   0  0  0  0  0  0  0  0  0  0  0  0
    1.3716   -4.9562    1.5438 H   0  0  0  0  0  0  0  0  0  0  0  0
    0.8388   -3.4621    0.2647 C   0  0  0  0  0  0  0  0  0  0  0  0
    0.3172   -2.5985    0.3136 H   0  0  0  0  0  0  0  0  0  0  0  0
    1.7744   -3.2432   -0.0488 H   0  0  0  0  0  0  0  0  0  0  0  0
    0.3681   -4.1087   -0.4758 H   0  0  0  0  0  0  0  0  0  0  0  0
  1  5  1  0
  5  6  1  0
  5  7  2  0
  1  2  1  0
  1  3  1  0
  1  4  1  0
  8 12  1  0
 12 15  1  0
  8  9  1  0
  8 10  1  0
  8 11  1  0
 12 13  1  0
 12 14  1  0
 15 16  1  0
 15 17  1  0
 15 18  1  0
M  CHG  1   6  -1
M  END
>  <PDB_ID>  (502) 
pdb2c71

>  <RESIDUE_NAME>  (502) 
ASP   ARG

>  <FRAG_NAME>  (502) 
ACET   PRPA

>  <FRAG_ATOM_NUM>  (502) 
fragi: 7  fragj: 11

>  <atom.prop.CHAIN_ID>  (502) 
A A A A A A A Z Z Z Z Z Z Z Z Z Z Z

>  <atom.prop.IS_HEAVY_ATOM>  (502) 
1 0 0 0 1 1 1 1 0 0 0 1 0 0 1 0 0 0

>  <DIFUSE_FUNC_ATOM>  (502) 
atom 6   atom 7   

>  <FINAL_SINGLE_POINT_ENERGY>  (502) 
0

>  <NONCOV_INTER_ENERGY_QM>  (502) 
0

>  <FF_Energy>  (502) 
5.14

>  <QM_Energy>  (502) 
-1.98

>  <Index>  (502) 
35491

$$$$
ACET-pdb2bht-C-GLU-134:PRPA-pdb2bht-C-LYS-88
     RDKit          3D

 18 16  0  0  0  0  0  0  0  0999 V2000
   -0.0070    1.5171   -0.0087 C   0  0  0  0  0  0  0  0  0  0  0  0
    0.8811    1.8166   -0.2987 H   0  0  0  0  0  0  0  0  0  0  0  0
   -0.2286    1.8176    0.8986 H   0  0  0  0  0  0  0  0  0  0  0  0
   -0.7480    1.9234   -0.6972 H   0  0  0  0  0  0  0  0  0  0  0  0
    0.0000    0.0000    0.0000 C   0  0  0  0  0  0  0  0  0  0  0  0
   -1.0974   -0.5963    0.0000 O   0  0  0  0  0  1  0  0  0  0  0  0
    1.0974   -0.5961   -0.0000 O   0  0  0  0  0  0  0  0  0  0  0  0
    4.4280   -0.9802   -3.1105 C   0  0  0  0  0  0  0  0  0  0  0  0
    4.3013   -1.9703   -3.1680 H   0  0  0  0  0  0  0  0  0  0  0  0
    5.2511   -0.7779   -2.5820 H   0  0  0  0  0  0  0  0  0  0  0  0
    4.5393   -0.5752   -4.1163 H   0  0  0  0  0  0  0  0  0  0  0  0
    3.2269   -0.3725   -2.4025 C   0  0  0  0  0  0  0  0  0  0  0  0
    2.8873    0.3903   -2.9425 H   0  0  0  0  0  0  0  0  0  0  0  0
    2.5240   -1.0681   -2.3050 H   0  0  0  0  0  0  0  0  0  0  0  0
    3.6000    0.1380   -1.0203 C   0  0  0  0  0  0  0  0  0  0  0  0
    3.0899   -0.3855   -0.3313 H   0  0  0  0  0  0  0  0  0  0  0  0
    4.5834   -0.0086   -0.8738 H   0  0  0  0  0  0  0  0  0  0  0  0
    3.3756    1.1981   -0.9014 H   0  0  0  0  0  0  0  0  0  0  0  0
  1  5  1  0
  5  6  1  0
  5  7  2  0
  1  2  1  0
  1  3  1  0
  1  4  1  0
  8 12  1  0
 12 15  1  0
  8  9  1  0
  8 10  1  0
  8 11  1  0
 12 13  1  0
 12 14  1  0
 15 16  1  0
 15 17  1  0
 15 18  1  0
M  CHG  1   6  -1
M  END
>  <PDB_ID>  (503) 
pdb2bht

>  <RESIDUE_NAME>  (503) 
GLU   LYS

>  <FRAG_NAME>  (503) 
ACET   PRPA

>  <FRAG_ATOM_NUM>  (503) 
fragi: 7  fragj: 11

>  <atom.prop.CHAIN_ID>  (503) 
A A A A A A A Z Z Z Z Z Z Z Z Z Z Z

>  <atom.prop.IS_HEAVY_ATOM>  (503) 
1 0 0 0 1 1 1 1 0 0 0 1 0 0 1 0 0 0

>  <DIFUSE_FUNC_ATOM>  (503) 
atom 6   atom 7   

>  <FINAL_SINGLE_POINT_ENERGY>  (503) 
0

>  <NONCOV_INTER_ENERGY_QM>  (503) 
0

>  <FF_Energy>  (503) 
9.5

>  <QM_Energy>  (503) 
-1.43

>  <Index>  (503) 
35503

$$$$
ACET-pdb1bjr-E-ASP-187:PRPA-pdb1bjr-E-PRO-18
     RDKit          3D

 18 16  0  0  0  0  0  0  0  0999 V2000
   -0.0045    1.5144    0.0675 C   0  0  0  0  0  0  0  0  0  0  0  0
    0.4922    1.8672   -0.7153 H   0  0  0  0  0  0  0  0  0  0  0  0
    0.4293    1.7949    0.9139 H   0  0  0  0  0  0  0  0  0  0  0  0
   -1.0153    1.9217    0.0461 H   0  0  0  0  0  0  0  0  0  0  0  0
    0.0000    0.0000    0.0000 C   0  0  0  0  0  0  0  0  0  0  0  0
   -1.0878   -0.6212   -0.0000 O   0  0  0  0  0  1  0  0  0  0  0  0
    1.0878   -0.6056    0.0000 O   0  0  0  0  0  0  0  0  0  0  0  0
    0.8848   -2.8404   -4.0896 C   0  0  0  0  0  0  0  0  0  0  0  0
    0.1388   -3.4015   -3.7304 H   0  0  0  0  0  0  0  0  0  0  0  0
    1.8224   -3.0496   -3.5747 H   0  0  0  0  0  0  0  0  0  0  0  0
    1.0160   -3.0131   -5.1578 H   0  0  0  0  0  0  0  0  0  0  0  0
    0.6262   -1.3724   -3.7998 C   0  0  0  0  0  0  0  0  0  0  0  0
    0.4252   -0.8695   -4.6634 H   0  0  0  0  0  0  0  0  0  0  0  0
   -0.1948   -1.2660   -3.2057 H   0  0  0  0  0  0  0  0  0  0  0  0
    1.8297   -0.8324   -3.1414 C   0  0  0  0  0  0  0  0  0  0  0  0
    2.1294    0.0319   -3.5898 H   0  0  0  0  0  0  0  0  0  0  0  0
    1.6352   -0.6020   -2.1686 H   0  0  0  0  0  0  0  0  0  0  0  0
    2.6146   -1.5861   -3.2047 H   0  0  0  0  0  0  0  0  0  0  0  0
  1  5  1  0
  5  6  1  0
  5  7  2  0
  1  2  1  0
  1  3  1  0
  1  4  1  0
  8 12  1  0
 12 15  1  0
  8  9  1  0
  8 10  1  0
  8 11  1  0
 12 13  1  0
 12 14  1  0
 15 16  1  0
 15 17  1  0
 15 18  1  0
M  CHG  1   6  -1
M  END
>  <PDB_ID>  (504) 
pdb1bjr

>  <RESIDUE_NAME>  (504) 
ASP   PRO

>  <FRAG_NAME>  (504) 
ACET   PRPA

>  <FRAG_ATOM_NUM>  (504) 
fragi: 7  fragj: 11

>  <atom.prop.CHAIN_ID>  (504) 
A A A A A A A Z Z Z Z Z Z Z Z Z Z Z

>  <atom.prop.IS_HEAVY_ATOM>  (504) 
1 0 0 0 1 1 1 1 0 0 0 1 0 0 1 0 0 0

>  <DIFUSE_FUNC_ATOM>  (504) 
atom 6   atom 7   

>  <FINAL_SINGLE_POINT_ENERGY>  (504) 
0

>  <NONCOV_INTER_ENERGY_QM>  (504) 
0

>  <FF_Energy>  (504) 
1.51

>  <QM_Energy>  (504) 
-4.16

>  <Index>  (504) 
35620

$$$$
ACET-pdb1bjr-E-ASP-187:PRPA-pdb1bjr-E-PRO-18
     RDKit          3D

 18 16  0  0  0  0  0  0  0  0999 V2000
   -0.0045    1.5144    0.0675 C   0  0  0  0  0  0  0  0  0  0  0  0
    0.4922    1.8672   -0.7153 H   0  0  0  0  0  0  0  0  0  0  0  0
    0.4293    1.7949    0.9139 H   0  0  0  0  0  0  0  0  0  0  0  0
   -1.0153    1.9217    0.0461 H   0  0  0  0  0  0  0  0  0  0  0  0
    0.0000    0.0000    0.0000 C   0  0  0  0  0  0  0  0  0  0  0  0
   -1.0878   -0.6212   -0.0000 O   0  0  0  0  0  1  0  0  0  0  0  0
    1.0878   -0.6056    0.0000 O   0  0  0  0  0  0  0  0  0  0  0  0
    0.6262   -1.3724   -3.7998 C   0  0  0  0  0  0  0  0  0  0  0  0
    0.4252   -0.8695   -4.6634 H   0  0  0  0  0  0  0  0  0  0  0  0
   -0.1948   -1.2660   -3.2057 H   0  0  0  0  0  0  0  0  0  0  0  0
    0.8118   -2.4261   -4.0079 H   0  0  0  0  0  0  0  0  0  0  0  0
    1.8297   -0.8324   -3.1414 C   0  0  0  0  0  0  0  0  0  0  0  0
    2.1294    0.0319   -3.5898 H   0  0  0  0  0  0  0  0  0  0  0  0
    1.6352   -0.6020   -2.1686 H   0  0  0  0  0  0  0  0  0  0  0  0
    2.9095   -1.8692   -3.2284 C   0  0  0  0  0  0  0  0  0  0  0  0
    3.5050   -1.7182   -4.0131 H   0  0  0  0  0  0  0  0  0  0  0  0
    3.4512   -1.9100   -2.3923 H   0  0  0  0  0  0  0  0  0  0  0  0
    2.3400   -2.7897   -3.3565 H   0  0  0  0  0  0  0  0  0  0  0  0
  1  5  1  0
  5  6  1  0
  5  7  2  0
  1  2  1  0
  1  3  1  0
  1  4  1  0
  8 12  1  0
 12 15  1  0
  8  9  1  0
  8 10  1  0
  8 11  1  0
 12 13  1  0
 12 14  1  0
 15 16  1  0
 15 17  1  0
 15 18  1  0
M  CHG  1   6  -1
M  END
>  <PDB_ID>  (505) 
pdb1bjr

>  <RESIDUE_NAME>  (505) 
ASP   PRO

>  <FRAG_NAME>  (505) 
ACET   PRPA

>  <FRAG_ATOM_NUM>  (505) 
fragi: 7  fragj: 11

>  <atom.prop.CHAIN_ID>  (505) 
A A A A A A A Z Z Z Z Z Z Z Z Z Z Z

>  <atom.prop.IS_HEAVY_ATOM>  (505) 
1 0 0 0 1 1 1 1 0 0 0 1 0 0 1 0 0 0

>  <DIFUSE_FUNC_ATOM>  (505) 
atom 6   atom 7   

>  <FINAL_SINGLE_POINT_ENERGY>  (505) 
0

>  <NONCOV_INTER_ENERGY_QM>  (505) 
0

>  <FF_Energy>  (505) 
1.41

>  <QM_Energy>  (505) 
-4.36

>  <Index>  (505) 
35624

$$$$
ACET-pdb2b3z-D-ASP-220:PRPA-pdb2b3z-D-VAL-193
     RDKit          3D

 18 16  0  0  0  0  0  0  0  0999 V2000
    0.0139    1.5126    0.0150 C   0  0  0  0  0  0  0  0  0  0  0  0
    0.9181    1.8298   -0.2507 H   0  0  0  0  0  0  0  0  0  0  0  0
   -0.2074    1.8286    0.9308 H   0  0  0  0  0  0  0  0  0  0  0  0
   -0.7084    1.9517   -0.6731 H   0  0  0  0  0  0  0  0  0  0  0  0
    0.0000    0.0000    0.0000 C   0  0  0  0  0  0  0  0  0  0  0  0
   -1.1034   -0.5919    0.0000 O   0  0  0  0  0  1  0  0  0  0  0  0
    1.1034   -0.5909    0.0000 O   0  0  0  0  0  0  0  0  0  0  0  0
    0.1774   -0.0068   -3.0606 C   0  0  0  0  0  0  0  0  0  0  0  0
    0.9705    0.5740   -3.2483 H   0  0  0  0  0  0  0  0  0  0  0  0
   -0.6434    0.5632   -3.0063 H   0  0  0  0  0  0  0  0  0  0  0  0
    0.3117   -0.4761   -2.1869 H   0  0  0  0  0  0  0  0  0  0  0  0
    0.0180   -1.0277   -4.1700 C   0  0  0  0  0  0  0  0  0  0  0  0
    0.5089   -1.8432   -3.8910 H   0  0  0  0  0  0  0  0  0  0  0  0
    0.4864   -0.6551   -5.0810 H   0  0  0  0  0  0  0  0  0  0  0  0
   -1.4614   -1.3370   -4.4227 C   0  0  0  0  0  0  0  0  0  0  0  0
   -1.9618   -1.2555   -3.5625 H   0  0  0  0  0  0  0  0  0  0  0  0
   -1.8207   -0.6862   -5.0888 H   0  0  0  0  0  0  0  0  0  0  0  0
   -1.5432   -2.2666   -4.7774 H   0  0  0  0  0  0  0  0  0  0  0  0
  1  5  1  0
  5  6  1  0
  5  7  2  0
  1  2  1  0
  1  3  1  0
  1  4  1  0
  8 12  1  0
 12 15  1  0
  8  9  1  0
  8 10  1  0
  8 11  1  0
 12 13  1  0
 12 14  1  0
 15 16  1  0
 15 17  1  0
 15 18  1  0
M  CHG  1   6  -1
M  END
>  <PDB_ID>  (506) 
pdb2b3z

>  <RESIDUE_NAME>  (506) 
ASP   VAL

>  <FRAG_NAME>  (506) 
ACET   PRPA

>  <FRAG_ATOM_NUM>  (506) 
fragi: 7  fragj: 11

>  <atom.prop.CHAIN_ID>  (506) 
A A A A A A A Z Z Z Z Z Z Z Z Z Z Z

>  <atom.prop.IS_HEAVY_ATOM>  (506) 
1 0 0 0 1 1 1 1 0 0 0 1 0 0 1 0 0 0

>  <DIFUSE_FUNC_ATOM>  (506) 
atom 6   atom 7   

>  <FINAL_SINGLE_POINT_ENERGY>  (506) 
0

>  <NONCOV_INTER_ENERGY_QM>  (506) 
0

>  <FF_Energy>  (506) 
11.04

>  <QM_Energy>  (506) 
-2.4

>  <Index>  (506) 
35786

$$$$
ACET-pdb1bio-A-GLU-60:PRPA-pdb1bio-A-PRO-96
     RDKit          3D

 18 16  0  0  0  0  0  0  0  0999 V2000
   -0.0067    1.5292    0.0098 C   0  0  0  0  0  0  0  0  0  0  0  0
   -0.2356    1.8269   -0.8922 H   0  0  0  0  0  0  0  0  0  0  0  0
    0.8792    1.8229    0.3002 H   0  0  0  0  0  0  0  0  0  0  0  0
   -0.7481    1.9273    0.7026 H   0  0  0  0  0  0  0  0  0  0  0  0
    0.0000    0.0000    0.0000 C   0  0  0  0  0  0  0  0  0  0  0  0
   -1.1177   -0.6479   -0.0000 O   0  0  0  0  0  1  0  0  0  0  0  0
    1.1177   -0.6427    0.0000 O   0  0  0  0  0  0  0  0  0  0  0  0
    1.6171   -2.8678   -2.1726 C   0  0  0  0  0  0  0  0  0  0  0  0
    1.3485   -2.2627   -1.3797 H   0  0  0  0  0  0  0  0  0  0  0  0
    2.6604   -2.6910   -2.4339 H   0  0  0  0  0  0  0  0  0  0  0  0
    1.3306   -3.8999   -1.9704 H   0  0  0  0  0  0  0  0  0  0  0  0
    0.8476   -2.3058   -3.3670 C   0  0  0  0  0  0  0  0  0  0  0  0
    0.6629   -3.0263   -4.0386 H   0  0  0  0  0  0  0  0  0  0  0  0
   -0.0212   -1.9042   -3.0705 H   0  0  0  0  0  0  0  0  0  0  0  0
    1.7552   -1.2698   -3.9277 C   0  0  0  0  0  0  0  0  0  0  0  0
    1.5565   -1.1112   -4.9002 H   0  0  0  0  0  0  0  0  0  0  0  0
    1.6506   -0.4008   -3.4328 H   0  0  0  0  0  0  0  0  0  0  0  0
    2.7614   -1.6687   -3.7992 H   0  0  0  0  0  0  0  0  0  0  0  0
  1  5  1  0
  5  6  1  0
  5  7  2  0
  1  2  1  0
  1  3  1  0
  1  4  1  0
  8 12  1  0
 12 15  1  0
  8  9  1  0
  8 10  1  0
  8 11  1  0
 12 13  1  0
 12 14  1  0
 15 16  1  0
 15 17  1  0
 15 18  1  0
M  CHG  1   6  -1
M  END
>  <PDB_ID>  (507) 
pdb1bio

>  <RESIDUE_NAME>  (507) 
GLU   PRO

>  <FRAG_NAME>  (507) 
ACET   PRPA

>  <FRAG_ATOM_NUM>  (507) 
fragi: 7  fragj: 11

>  <atom.prop.CHAIN_ID>  (507) 
A A A A A A A Z Z Z Z Z Z Z Z Z Z Z

>  <atom.prop.IS_HEAVY_ATOM>  (507) 
1 0 0 0 1 1 1 1 0 0 0 1 0 0 1 0 0 0

>  <DIFUSE_FUNC_ATOM>  (507) 
atom 6   atom 7   

>  <FINAL_SINGLE_POINT_ENERGY>  (507) 
0

>  <NONCOV_INTER_ENERGY_QM>  (507) 
0

>  <FF_Energy>  (507) 
3.32

>  <QM_Energy>  (507) 
-4.88

>  <Index>  (507) 
35803

$$$$
ACET-pdb1bkb-A-GLU-34:PRPA-pdb1bkb-A-VAL-51
     RDKit          3D

 18 16  0  0  0  0  0  0  0  0999 V2000
    0.0007    1.5236    0.0004 C   0  0  0  0  0  0  0  0  0  0  0  0
    0.9398    1.8146   -0.0042 H   0  0  0  0  0  0  0  0  0  0  0  0
   -0.4764    1.8150    0.8094 H   0  0  0  0  0  0  0  0  0  0  0  0
   -0.4990    1.9450   -0.8718 H   0  0  0  0  0  0  0  0  0  0  0  0
    0.0000    0.0000    0.0000 C   0  0  0  0  0  0  0  0  0  0  0  0
   -1.0955   -0.5975   -0.0000 O   0  0  0  0  0  1  0  0  0  0  0  0
    1.0955   -0.5981    0.0000 O   0  0  0  0  0  0  0  0  0  0  0  0
    1.2979    3.7016    3.4400 C   0  0  0  0  0  0  0  0  0  0  0  0
    1.5598    3.6327    4.3800 H   0  0  0  0  0  0  0  0  0  0  0  0
    0.4001    4.3160    3.3735 H   0  0  0  0  0  0  0  0  0  0  0  0
    2.0457    4.3010    2.9208 H   0  0  0  0  0  0  0  0  0  0  0  0
    1.1330    2.3425    2.7220 C   0  0  0  0  0  0  0  0  0  0  0  0
    0.9880    2.5268    1.7574 H   0  0  0  0  0  0  0  0  0  0  0  0
    0.2992    1.7900    3.1551 H   0  0  0  0  0  0  0  0  0  0  0  0
    2.4224    1.5319    2.8322 C   0  0  0  0  0  0  0  0  0  0  0  0
    2.7523    1.5616    3.7746 H   0  0  0  0  0  0  0  0  0  0  0  0
    2.2422    0.5849    2.5703 H   0  0  0  0  0  0  0  0  0  0  0  0
    3.1118    1.9212    2.2238 H   0  0  0  0  0  0  0  0  0  0  0  0
  1  5  1  0
  5  6  1  0
  5  7  2  0
  1  2  1  0
  1  3  1  0
  1  4  1  0
  8 12  1  0
 12 15  1  0
  8  9  1  0
  8 10  1  0
  8 11  1  0
 12 13  1  0
 12 14  1  0
 15 16  1  0
 15 17  1  0
 15 18  1  0
M  CHG  1   6  -1
M  END
>  <PDB_ID>  (508) 
pdb1bkb

>  <RESIDUE_NAME>  (508) 
GLU   VAL

>  <FRAG_NAME>  (508) 
ACET   PRPA

>  <FRAG_ATOM_NUM>  (508) 
fragi: 7  fragj: 11

>  <atom.prop.CHAIN_ID>  (508) 
A A A A A A A Z Z Z Z Z Z Z Z Z Z Z

>  <atom.prop.IS_HEAVY_ATOM>  (508) 
1 0 0 0 1 1 1 1 0 0 0 1 0 0 1 0 0 0

>  <DIFUSE_FUNC_ATOM>  (508) 
atom 6   atom 7   

>  <FINAL_SINGLE_POINT_ENERGY>  (508) 
0

>  <NONCOV_INTER_ENERGY_QM>  (508) 
0

>  <FF_Energy>  (508) 
4.43

>  <QM_Energy>  (508) 
1.32

>  <Index>  (508) 
35939

$$$$
ACET-pdb1bkb-A-GLU-34:PRPA-pdb1bkb-A-VAL-51
     RDKit          3D

 18 16  0  0  0  0  0  0  0  0999 V2000
    0.0007    1.5236    0.0004 C   0  0  0  0  0  0  0  0  0  0  0  0
    0.9398    1.8146   -0.0042 H   0  0  0  0  0  0  0  0  0  0  0  0
   -0.4764    1.8150    0.8094 H   0  0  0  0  0  0  0  0  0  0  0  0
   -0.4990    1.9450   -0.8718 H   0  0  0  0  0  0  0  0  0  0  0  0
    0.0000    0.0000    0.0000 C   0  0  0  0  0  0  0  0  0  0  0  0
   -1.0955   -0.5975   -0.0000 O   0  0  0  0  0  1  0  0  0  0  0  0
    1.0955   -0.5981    0.0000 O   0  0  0  0  0  0  0  0  0  0  0  0
    1.2979    3.7016    3.4400 C   0  0  0  0  0  0  0  0  0  0  0  0
    1.5598    3.6327    4.3800 H   0  0  0  0  0  0  0  0  0  0  0  0
    0.4001    4.3160    3.3735 H   0  0  0  0  0  0  0  0  0  0  0  0
    2.0457    4.3010    2.9208 H   0  0  0  0  0  0  0  0  0  0  0  0
    1.1330    2.3425    2.7220 C   0  0  0  0  0  0  0  0  0  0  0  0
    0.9880    2.5268    1.7574 H   0  0  0  0  0  0  0  0  0  0  0  0
    2.0534    1.7638    2.8007 H   0  0  0  0  0  0  0  0  0  0  0  0
   -0.0325    1.5702    3.3273 C   0  0  0  0  0  0  0  0  0  0  0  0
   -0.5413    1.1161    2.5973 H   0  0  0  0  0  0  0  0  0  0  0  0
    0.3208    0.8878    3.9661 H   0  0  0  0  0  0  0  0  0  0  0  0
   -0.6329    2.2067    3.8111 H   0  0  0  0  0  0  0  0  0  0  0  0
  1  5  1  0
  5  6  1  0
  5  7  2  0
  1  2  1  0
  1  3  1  0
  1  4  1  0
  8 12  1  0
 12 15  1  0
  8  9  1  0
  8 10  1  0
  8 11  1  0
 12 13  1  0
 12 14  1  0
 15 16  1  0
 15 17  1  0
 15 18  1  0
M  CHG  1   6  -1
M  END
>  <PDB_ID>  (509) 
pdb1bkb

>  <RESIDUE_NAME>  (509) 
GLU   VAL

>  <FRAG_NAME>  (509) 
ACET   PRPA

>  <FRAG_ATOM_NUM>  (509) 
fragi: 7  fragj: 11

>  <atom.prop.CHAIN_ID>  (509) 
A A A A A A A Z Z Z Z Z Z Z Z Z Z Z

>  <atom.prop.IS_HEAVY_ATOM>  (509) 
1 0 0 0 1 1 1 1 0 0 0 1 0 0 1 0 0 0

>  <DIFUSE_FUNC_ATOM>  (509) 
atom 6   atom 7   

>  <FINAL_SINGLE_POINT_ENERGY>  (509) 
0

>  <NONCOV_INTER_ENERGY_QM>  (509) 
0

>  <FF_Energy>  (509) 
2.08

>  <QM_Energy>  (509) 
1.72

>  <Index>  (509) 
35944

$$$$
ACET-pdb1bkb-A-GLU-34:PRPA-pdb1bkb-A-VAL-51
     RDKit          3D

 18 16  0  0  0  0  0  0  0  0999 V2000
    0.0007    1.5236    0.0004 C   0  0  0  0  0  0  0  0  0  0  0  0
    0.9398    1.8146   -0.0042 H   0  0  0  0  0  0  0  0  0  0  0  0
   -0.4764    1.8150    0.8094 H   0  0  0  0  0  0  0  0  0  0  0  0
   -0.4990    1.9450   -0.8718 H   0  0  0  0  0  0  0  0  0  0  0  0
    0.0000    0.0000    0.0000 C   0  0  0  0  0  0  0  0  0  0  0  0
   -1.0955   -0.5975   -0.0000 O   0  0  0  0  0  1  0  0  0  0  0  0
    1.0955   -0.5981    0.0000 O   0  0  0  0  0  0  0  0  0  0  0  0
    2.4224    1.5319    2.8322 C   0  0  0  0  0  0  0  0  0  0  0  0
    2.7523    1.5616    3.7746 H   0  0  0  0  0  0  0  0  0  0  0  0
    2.2422    0.5849    2.5703 H   0  0  0  0  0  0  0  0  0  0  0  0
    3.1118    1.9212    2.2238 H   0  0  0  0  0  0  0  0  0  0  0  0
    1.1330    2.3425    2.7220 C   0  0  0  0  0  0  0  0  0  0  0  0
    0.9880    2.5268    1.7574 H   0  0  0  0  0  0  0  0  0  0  0  0
    1.2492    3.3007    3.2282 H   0  0  0  0  0  0  0  0  0  0  0  0
   -0.0325    1.5702    3.3273 C   0  0  0  0  0  0  0  0  0  0  0  0
   -0.5413    1.1161    2.5973 H   0  0  0  0  0  0  0  0  0  0  0  0
    0.3208    0.8878    3.9661 H   0  0  0  0  0  0  0  0  0  0  0  0
   -0.6329    2.2067    3.8111 H   0  0  0  0  0  0  0  0  0  0  0  0
  1  5  1  0
  5  6  1  0
  5  7  2  0
  1  2  1  0
  1  3  1  0
  1  4  1  0
  8 12  1  0
 12 15  1  0
  8  9  1  0
  8 10  1  0
  8 11  1  0
 12 13  1  0
 12 14  1  0
 15 16  1  0
 15 17  1  0
 15 18  1  0
M  CHG  1   6  -1
M  END
>  <PDB_ID>  (510) 
pdb1bkb

>  <RESIDUE_NAME>  (510) 
GLU   VAL

>  <FRAG_NAME>  (510) 
ACET   PRPA

>  <FRAG_ATOM_NUM>  (510) 
fragi: 7  fragj: 11

>  <atom.prop.CHAIN_ID>  (510) 
A A A A A A A Z Z Z Z Z Z Z Z Z Z Z

>  <atom.prop.IS_HEAVY_ATOM>  (510) 
1 0 0 0 1 1 1 1 0 0 0 1 0 0 1 0 0 0

>  <DIFUSE_FUNC_ATOM>  (510) 
atom 6   atom 7   

>  <FINAL_SINGLE_POINT_ENERGY>  (510) 
0

>  <NONCOV_INTER_ENERGY_QM>  (510) 
0

>  <FF_Energy>  (510) 
13.79

>  <QM_Energy>  (510) 
0.63

>  <Index>  (510) 
35951

$$$$
ACET-pdb1b0p-A-ASP-456:PRPA-pdb1b0p-A-ILE-463
     RDKit          3D

 18 16  0  0  0  0  0  0  0  0999 V2000
    0.0034    1.5486    0.0605 C   0  0  0  0  0  0  0  0  0  0  0  0
    0.8912    1.8687   -0.2395 H   0  0  0  0  0  0  0  0  0  0  0  0
   -0.1767    1.8241    0.9939 H   0  0  0  0  0  0  0  0  0  0  0  0
   -0.7519    2.0085   -0.5768 H   0  0  0  0  0  0  0  0  0  0  0  0
    0.0000    0.0000    0.0000 C   0  0  0  0  0  0  0  0  0  0  0  0
   -1.0853   -0.6193    0.0000 O   0  0  0  0  0  1  0  0  0  0  0  0
    1.0853   -0.6400   -0.0000 O   0  0  0  0  0  0  0  0  0  0  0  0
    4.7505    0.6668   -3.2863 C   0  0  0  0  0  0  0  0  0  0  0  0
    4.8878    1.6430   -3.3514 H   0  0  0  0  0  0  0  0  0  0  0  0
    5.6206    0.1981   -3.2507 H   0  0  0  0  0  0  0  0  0  0  0  0
    4.2230    0.3337   -4.1800 H   0  0  0  0  0  0  0  0  0  0  0  0
    3.9662    0.3535   -2.0186 C   0  0  0  0  0  0  0  0  0  0  0  0
    4.2749   -0.5283   -1.6630 H   0  0  0  0  0  0  0  0  0  0  0  0
    4.1360    1.0914   -1.2345 H   0  0  0  0  0  0  0  0  0  0  0  0
    2.5085    0.3759   -2.4798 C   0  0  0  0  0  0  0  0  0  0  0  0
    2.3758   -0.3142   -3.1881 H   0  0  0  0  0  0  0  0  0  0  0  0
    1.9142    0.1783   -1.7041 H   0  0  0  0  0  0  0  0  0  0  0  0
    2.2920    1.2778   -2.8460 H   0  0  0  0  0  0  0  0  0  0  0  0
  1  5  1  0
  5  6  1  0
  5  7  2  0
  1  2  1  0
  1  3  1  0
  1  4  1  0
  8 12  1  0
 12 15  1  0
  8  9  1  0
  8 10  1  0
  8 11  1  0
 12 13  1  0
 12 14  1  0
 15 16  1  0
 15 17  1  0
 15 18  1  0
M  CHG  1   6  -1
M  END
>  <PDB_ID>  (511) 
pdb1b0p

>  <RESIDUE_NAME>  (511) 
ASP   ILE

>  <FRAG_NAME>  (511) 
ACET   PRPA

>  <FRAG_ATOM_NUM>  (511) 
fragi: 7  fragj: 11

>  <atom.prop.CHAIN_ID>  (511) 
A A A A A A A Z Z Z Z Z Z Z Z Z Z Z

>  <atom.prop.IS_HEAVY_ATOM>  (511) 
1 0 0 0 1 1 1 1 0 0 0 1 0 0 1 0 0 0

>  <DIFUSE_FUNC_ATOM>  (511) 
atom 6   atom 7   

>  <FINAL_SINGLE_POINT_ENERGY>  (511) 
0

>  <NONCOV_INTER_ENERGY_QM>  (511) 
0

>  <FF_Energy>  (511) 
5.94

>  <QM_Energy>  (511) 
-1.68

>  <Index>  (511) 
35994

$$$$
ACET-pdb2c5u-A-ASP-300:PRPA-pdb2c5u-A-ARG-17
     RDKit          3D

 18 16  0  0  0  0  0  0  0  0999 V2000
   -0.0016    1.5063    0.0268 C   0  0  0  0  0  0  0  0  0  0  0  0
    0.8752    1.8374   -0.3071 H   0  0  0  0  0  0  0  0  0  0  0  0
   -0.1530    1.8141    0.9603 H   0  0  0  0  0  0  0  0  0  0  0  0
   -0.7818    1.9398   -0.5989 H   0  0  0  0  0  0  0  0  0  0  0  0
    0.0000    0.0000    0.0000 C   0  0  0  0  0  0  0  0  0  0  0  0
   -1.0971   -0.5921   -0.0000 O   0  0  0  0  0  1  0  0  0  0  0  0
    1.0971   -0.5882   -0.0000 O   0  0  0  0  0  0  0  0  0  0  0  0
   -3.9972   -1.8899   -1.9888 C   0  0  0  0  0  0  0  0  0  0  0  0
   -4.2665   -0.9662   -2.2468 H   0  0  0  0  0  0  0  0  0  0  0  0
   -3.7262   -1.9120   -1.0310 H   0  0  0  0  0  0  0  0  0  0  0  0
   -4.8574   -2.5468   -2.1180 H   0  0  0  0  0  0  0  0  0  0  0  0
   -2.7796   -2.2751   -2.8279 C   0  0  0  0  0  0  0  0  0  0  0  0
   -2.9596   -3.1375   -3.2916 H   0  0  0  0  0  0  0  0  0  0  0  0
   -2.6008   -1.5577   -3.4957 H   0  0  0  0  0  0  0  0  0  0  0  0
   -1.5418   -2.4446   -1.9662 C   0  0  0  0  0  0  0  0  0  0  0  0
   -0.7842   -1.9685   -2.4136 H   0  0  0  0  0  0  0  0  0  0  0  0
   -1.7228   -2.0221   -1.0779 H   0  0  0  0  0  0  0  0  0  0  0  0
   -1.2707   -3.4898   -1.8173 H   0  0  0  0  0  0  0  0  0  0  0  0
  1  5  1  0
  5  6  1  0
  5  7  2  0
  1  2  1  0
  1  3  1  0
  1  4  1  0
  8 12  1  0
 12 15  1  0
  8  9  1  0
  8 10  1  0
  8 11  1  0
 12 13  1  0
 12 14  1  0
 15 16  1  0
 15 17  1  0
 15 18  1  0
M  CHG  1   6  -1
M  END
>  <PDB_ID>  (512) 
pdb2c5u

>  <RESIDUE_NAME>  (512) 
ASP   ARG

>  <FRAG_NAME>  (512) 
ACET   PRPA

>  <FRAG_ATOM_NUM>  (512) 
fragi: 7  fragj: 11

>  <atom.prop.CHAIN_ID>  (512) 
A A A A A A A Z Z Z Z Z Z Z Z Z Z Z

>  <atom.prop.IS_HEAVY_ATOM>  (512) 
1 0 0 0 1 1 1 1 0 0 0 1 0 0 1 0 0 0

>  <DIFUSE_FUNC_ATOM>  (512) 
atom 6   atom 7   

>  <FINAL_SINGLE_POINT_ENERGY>  (512) 
0

>  <NONCOV_INTER_ENERGY_QM>  (512) 
0

>  <FF_Energy>  (512) 
0.31

>  <QM_Energy>  (512) 
0.4

>  <Index>  (512) 
36125

$$$$
ACET-pdb1bdf-A-GLU-136:PRPA-pdb1bdf-A-ILE-107
     RDKit          3D

 18 16  0  0  0  0  0  0  0  0999 V2000
   -0.0032    1.5227   -0.0113 C   0  0  0  0  0  0  0  0  0  0  0  0
   -0.6729    1.8164   -0.6671 H   0  0  0  0  0  0  0  0  0  0  0  0
    0.9033    1.8214   -0.2428 H   0  0  0  0  0  0  0  0  0  0  0  0
   -0.2653    1.9591    0.9525 H   0  0  0  0  0  0  0  0  0  0  0  0
    0.0000    0.0000    0.0000 C   0  0  0  0  0  0  0  0  0  0  0  0
   -1.0953   -0.6012    0.0000 O   0  0  0  0  0  1  0  0  0  0  0  0
    1.0953   -0.6024   -0.0000 O   0  0  0  0  0  0  0  0  0  0  0  0
    4.7037    2.5718   -0.7183 C   0  0  0  0  0  0  0  0  0  0  0  0
    4.9369    3.4326   -0.3121 H   0  0  0  0  0  0  0  0  0  0  0  0
    3.8997    2.7746   -1.4258 H   0  0  0  0  0  0  0  0  0  0  0  0
    5.5289    2.2911   -1.3729 H   0  0  0  0  0  0  0  0  0  0  0  0
    4.3955    1.3734    0.2093 C   0  0  0  0  0  0  0  0  0  0  0  0
    4.1542    0.5997   -0.3650 H   0  0  0  0  0  0  0  0  0  0  0  0
    5.2732    1.1241    0.8059 H   0  0  0  0  0  0  0  0  0  0  0  0
    3.2011    1.6906    1.1096 C   0  0  0  0  0  0  0  0  0  0  0  0
    3.3867    2.5489    1.5864 H   0  0  0  0  0  0  0  0  0  0  0  0
    2.3991    1.8192    0.5261 H   0  0  0  0  0  0  0  0  0  0  0  0
    2.9857    0.9120    1.8414 H   0  0  0  0  0  0  0  0  0  0  0  0
  1  5  1  0
  5  6  1  0
  5  7  2  0
  1  2  1  0
  1  3  1  0
  1  4  1  0
  8 12  1  0
 12 15  1  0
  8  9  1  0
  8 10  1  0
  8 11  1  0
 12 13  1  0
 12 14  1  0
 15 16  1  0
 15 17  1  0
 15 18  1  0
M  CHG  1   6  -1
M  END
>  <PDB_ID>  (513) 
pdb1bdf

>  <RESIDUE_NAME>  (513) 
GLU   ILE

>  <FRAG_NAME>  (513) 
ACET   PRPA

>  <FRAG_ATOM_NUM>  (513) 
fragi: 7  fragj: 11

>  <atom.prop.CHAIN_ID>  (513) 
A A A A A A A Z Z Z Z Z Z Z Z Z Z Z

>  <atom.prop.IS_HEAVY_ATOM>  (513) 
1 0 0 0 1 1 1 1 0 0 0 1 0 0 1 0 0 0

>  <DIFUSE_FUNC_ATOM>  (513) 
atom 6   atom 7   

>  <FINAL_SINGLE_POINT_ENERGY>  (513) 
0

>  <NONCOV_INTER_ENERGY_QM>  (513) 
0

>  <FF_Energy>  (513) 
13.26

>  <QM_Energy>  (513) 
-0.27

>  <Index>  (513) 
36452

$$$$
ACET-pdb1bdf-A-GLU-136:PRPA-pdb1bdf-A-ILE-107
     RDKit          3D

 18 16  0  0  0  0  0  0  0  0999 V2000
   -0.0032    1.5227   -0.0113 C   0  0  0  0  0  0  0  0  0  0  0  0
   -0.6729    1.8164   -0.6671 H   0  0  0  0  0  0  0  0  0  0  0  0
    0.9033    1.8214   -0.2428 H   0  0  0  0  0  0  0  0  0  0  0  0
   -0.2653    1.9591    0.9525 H   0  0  0  0  0  0  0  0  0  0  0  0
    0.0000    0.0000    0.0000 C   0  0  0  0  0  0  0  0  0  0  0  0
   -1.0953   -0.6012    0.0000 O   0  0  0  0  0  1  0  0  0  0  0  0
    1.0953   -0.6024   -0.0000 O   0  0  0  0  0  0  0  0  0  0  0  0
    4.3955    1.3734    0.2093 C   0  0  0  0  0  0  0  0  0  0  0  0
    4.1542    0.5997   -0.3650 H   0  0  0  0  0  0  0  0  0  0  0  0
    4.6127    2.2180   -0.4445 H   0  0  0  0  0  0  0  0  0  0  0  0
    5.2732    1.1241    0.8059 H   0  0  0  0  0  0  0  0  0  0  0  0
    3.2011    1.6906    1.1096 C   0  0  0  0  0  0  0  0  0  0  0  0
    3.3867    2.5489    1.5864 H   0  0  0  0  0  0  0  0  0  0  0  0
    2.3991    1.8192    0.5261 H   0  0  0  0  0  0  0  0  0  0  0  0
    2.9041    0.6176    2.1181 C   0  0  0  0  0  0  0  0  0  0  0  0
    3.6975    0.4863    2.7135 H   0  0  0  0  0  0  0  0  0  0  0  0
    2.1155    0.8861    2.6729 H   0  0  0  0  0  0  0  0  0  0  0  0
    2.7002   -0.2409    1.6458 H   0  0  0  0  0  0  0  0  0  0  0  0
  1  5  1  0
  5  6  1  0
  5  7  2  0
  1  2  1  0
  1  3  1  0
  1  4  1  0
  8 12  1  0
 12 15  1  0
  8  9  1  0
  8 10  1  0
  8 11  1  0
 12 13  1  0
 12 14  1  0
 15 16  1  0
 15 17  1  0
 15 18  1  0
M  CHG  1   6  -1
M  END
>  <PDB_ID>  (514) 
pdb1bdf

>  <RESIDUE_NAME>  (514) 
GLU   ILE

>  <FRAG_NAME>  (514) 
ACET   PRPA

>  <FRAG_ATOM_NUM>  (514) 
fragi: 7  fragj: 11

>  <atom.prop.CHAIN_ID>  (514) 
A A A A A A A Z Z Z Z Z Z Z Z Z Z Z

>  <atom.prop.IS_HEAVY_ATOM>  (514) 
1 0 0 0 1 1 1 1 0 0 0 1 0 0 1 0 0 0

>  <DIFUSE_FUNC_ATOM>  (514) 
atom 6   atom 7   

>  <FINAL_SINGLE_POINT_ENERGY>  (514) 
0

>  <NONCOV_INTER_ENERGY_QM>  (514) 
0

>  <FF_Energy>  (514) 
14.88

>  <QM_Energy>  (514) 
-1.67

>  <Index>  (514) 
36474

$$$$
ACET-pdb1bl0-A-GLU-21:PRPA-pdb1bl0-A-ARG-63
     RDKit          3D

 18 16  0  0  0  0  0  0  0  0999 V2000
   -0.0022    1.5155   -0.0084 C   0  0  0  0  0  0  0  0  0  0  0  0
   -0.4638    1.8108   -0.8301 H   0  0  0  0  0  0  0  0  0  0  0  0
    0.9383    1.8175    0.0067 H   0  0  0  0  0  0  0  0  0  0  0  0
   -0.5130    1.9654    0.8429 H   0  0  0  0  0  0  0  0  0  0  0  0
    0.0000    0.0000    0.0000 C   0  0  0  0  0  0  0  0  0  0  0  0
   -1.0923   -0.6355   -0.0000 O   0  0  0  0  0  1  0  0  0  0  0  0
    1.0923   -0.5590   -0.0000 O   0  0  0  0  0  0  0  0  0  0  0  0
    3.7013   -3.2897    0.3672 C   0  0  0  0  0  0  0  0  0  0  0  0
    3.7558   -3.5306    1.3305 H   0  0  0  0  0  0  0  0  0  0  0  0
    3.6220   -2.3041    0.2623 H   0  0  0  0  0  0  0  0  0  0  0  0
    4.6211   -3.6139   -0.1197 H   0  0  0  0  0  0  0  0  0  0  0  0
    2.4720   -3.9284   -0.2135 C   0  0  0  0  0  0  0  0  0  0  0  0
    2.7174   -4.7697   -0.6865 H   0  0  0  0  0  0  0  0  0  0  0  0
    1.8160   -4.1211    0.5098 H   0  0  0  0  0  0  0  0  0  0  0  0
    1.8073   -3.0031   -1.2140 C   0  0  0  0  0  0  0  0  0  0  0  0
    1.0773   -3.5057   -1.6612 H   0  0  0  0  0  0  0  0  0  0  0  0
    1.4441   -2.2232   -0.7176 H   0  0  0  0  0  0  0  0  0  0  0  0
    2.5269   -2.6616   -1.9582 H   0  0  0  0  0  0  0  0  0  0  0  0
  1  5  1  0
  5  6  1  0
  5  7  2  0
  1  2  1  0
  1  3  1  0
  1  4  1  0
  8 12  1  0
 12 15  1  0
  8  9  1  0
  8 10  1  0
  8 11  1  0
 12 13  1  0
 12 14  1  0
 15 16  1  0
 15 17  1  0
 15 18  1  0
M  CHG  1   6  -1
M  END
>  <PDB_ID>  (515) 
pdb1bl0

>  <RESIDUE_NAME>  (515) 
GLU   ARG

>  <FRAG_NAME>  (515) 
ACET   PRPA

>  <FRAG_ATOM_NUM>  (515) 
fragi: 7  fragj: 11

>  <atom.prop.CHAIN_ID>  (515) 
A A A A A A A Z Z Z Z Z Z Z Z Z Z Z

>  <atom.prop.IS_HEAVY_ATOM>  (515) 
1 0 0 0 1 1 1 1 0 0 0 1 0 0 1 0 0 0

>  <DIFUSE_FUNC_ATOM>  (515) 
atom 6   atom 7   

>  <FINAL_SINGLE_POINT_ENERGY>  (515) 
0

>  <NONCOV_INTER_ENERGY_QM>  (515) 
0

>  <FF_Energy>  (515) 
31.86

>  <QM_Energy>  (515) 
-1.03

>  <Index>  (515) 
36535

$$$$
ACET-pdb1bjf-A-ASP-81:PRPA-pdb1bjf-A-GLH-84
     RDKit          3D

 18 16  0  0  0  0  0  0  0  0999 V2000
    0.0052    1.5298    0.0010 C   0  0  0  0  0  0  0  0  0  0  0  0
   -0.1013    1.8463   -0.9346 H   0  0  0  0  0  0  0  0  0  0  0  0
    0.8689    1.8423    0.3791 H   0  0  0  0  0  0  0  0  0  0  0  0
   -0.7999    1.9606    0.5963 H   0  0  0  0  0  0  0  0  0  0  0  0
    0.0000    0.0000    0.0000 C   0  0  0  0  0  0  0  0  0  0  0  0
   -1.0997   -0.5865    0.0000 O   0  0  0  0  0  1  0  0  0  0  0  0
    1.0997   -0.6172   -0.0000 O   0  0  0  0  0  0  0  0  0  0  0  0
   -3.7989   -2.5770    1.2697 C   0  0  0  0  0  0  0  0  0  0  0  0
   -3.8392   -3.5834    1.1699 H   0  0  0  0  0  0  0  0  0  0  0  0
   -3.4213   -2.1424    0.3441 H   0  0  0  0  0  0  0  0  0  0  0  0
   -4.7847   -2.1944    1.5346 H   0  0  0  0  0  0  0  0  0  0  0  0
   -2.8262   -2.3112    2.4013 C   0  0  0  0  0  0  0  0  0  0  0  0
   -2.7261   -1.3452    2.4923 H   0  0  0  0  0  0  0  0  0  0  0  0
   -3.1690   -2.7469    3.2029 H   0  0  0  0  0  0  0  0  0  0  0  0
   -1.4693   -2.8929    2.0993 C   0  0  0  0  0  0  0  0  0  0  0  0
   -1.5324   -3.8792    2.1616 H   0  0  0  0  0  0  0  0  0  0  0  0
   -1.2045   -2.6125    1.1869 H   0  0  0  0  0  0  0  0  0  0  0  0
   -0.6843   -2.5699    2.7831 H   0  0  0  0  0  0  0  0  0  0  0  0
  1  5  1  0
  5  6  1  0
  5  7  2  0
  1  2  1  0
  1  3  1  0
  1  4  1  0
  8 12  1  0
 12 15  1  0
  8  9  1  0
  8 10  1  0
  8 11  1  0
 12 13  1  0
 12 14  1  0
 15 16  1  0
 15 17  1  0
 15 18  1  0
M  CHG  1   6  -1
M  END
>  <PDB_ID>  (516) 
pdb1bjf

>  <RESIDUE_NAME>  (516) 
ASP   GLH

>  <FRAG_NAME>  (516) 
ACET   PRPA

>  <FRAG_ATOM_NUM>  (516) 
fragi: 7  fragj: 11

>  <atom.prop.CHAIN_ID>  (516) 
A A A A A A A Z Z Z Z Z Z Z Z Z Z Z

>  <atom.prop.IS_HEAVY_ATOM>  (516) 
1 0 0 0 1 1 1 1 0 0 0 1 0 0 1 0 0 0

>  <DIFUSE_FUNC_ATOM>  (516) 
atom 6   atom 7   

>  <FINAL_SINGLE_POINT_ENERGY>  (516) 
0

>  <NONCOV_INTER_ENERGY_QM>  (516) 
0

>  <FF_Energy>  (516) 
11.65

>  <QM_Energy>  (516) 
-4.95

>  <Index>  (516) 
36558

$$$$
ACET-pdb1bin-B-GLU-107:PRPA-pdb1bin-B-LYS-36
     RDKit          3D

 18 16  0  0  0  0  0  0  0  0999 V2000
   -0.0165    1.5170   -0.0185 C   0  0  0  0  0  0  0  0  0  0  0  0
   -0.5873    1.7993   -0.7670 H   0  0  0  0  0  0  0  0  0  0  0  0
    0.9113    1.8232   -0.1214 H   0  0  0  0  0  0  0  0  0  0  0  0
   -0.4194    1.9477    0.8981 H   0  0  0  0  0  0  0  0  0  0  0  0
    0.0000    0.0000    0.0000 C   0  0  0  0  0  0  0  0  0  0  0  0
   -1.0952   -0.5756    0.0000 O   0  0  0  0  0  1  0  0  0  0  0  0
    1.0952   -0.6173   -0.0000 O   0  0  0  0  0  0  0  0  0  0  0  0
   -4.0781   -2.8774   -0.6332 C   0  0  0  0  0  0  0  0  0  0  0  0
   -3.2600   -3.2388   -0.2129 H   0  0  0  0  0  0  0  0  0  0  0  0
   -4.3395   -3.4028   -1.4273 H   0  0  0  0  0  0  0  0  0  0  0  0
   -4.8931   -2.8720    0.0907 H   0  0  0  0  0  0  0  0  0  0  0  0
   -3.8070   -1.4348   -1.0679 C   0  0  0  0  0  0  0  0  0  0  0  0
   -2.9011   -1.3727   -1.4656 H   0  0  0  0  0  0  0  0  0  0  0  0
   -4.4999   -1.1466   -1.7153 H   0  0  0  0  0  0  0  0  0  0  0  0
   -3.8538   -0.4258    0.1463 C   0  0  0  0  0  0  0  0  0  0  0  0
   -4.8254   -0.2885    0.3950 H   0  0  0  0  0  0  0  0  0  0  0  0
   -3.3996   -0.8708    0.9345 H   0  0  0  0  0  0  0  0  0  0  0  0
   -3.3939    0.5487   -0.0178 H   0  0  0  0  0  0  0  0  0  0  0  0
  1  5  1  0
  5  6  1  0
  5  7  2  0
  1  2  1  0
  1  3  1  0
  1  4  1  0
  8 12  1  0
 12 15  1  0
  8  9  1  0
  8 10  1  0
  8 11  1  0
 12 13  1  0
 12 14  1  0
 15 16  1  0
 15 17  1  0
 15 18  1  0
M  CHG  1   6  -1
M  END
>  <PDB_ID>  (517) 
pdb1bin

>  <RESIDUE_NAME>  (517) 
GLU   LYS

>  <FRAG_NAME>  (517) 
ACET   PRPA

>  <FRAG_ATOM_NUM>  (517) 
fragi: 7  fragj: 11

>  <atom.prop.CHAIN_ID>  (517) 
A A A A A A A Z Z Z Z Z Z Z Z Z Z Z

>  <atom.prop.IS_HEAVY_ATOM>  (517) 
1 0 0 0 1 1 1 1 0 0 0 1 0 0 1 0 0 0

>  <DIFUSE_FUNC_ATOM>  (517) 
atom 6   atom 7   

>  <FINAL_SINGLE_POINT_ENERGY>  (517) 
0

>  <NONCOV_INTER_ENERGY_QM>  (517) 
0

>  <FF_Energy>  (517) 
3.1

>  <QM_Energy>  (517) 
-2.09

>  <Index>  (517) 
36696

$$$$
ACET-pdb2bht-C-GLU-238:PRPA-pdb2bht-C-GLN-234
     RDKit          3D

 18 16  0  0  0  0  0  0  0  0999 V2000
   -0.0083    1.5179    0.0041 C   0  0  0  0  0  0  0  0  0  0  0  0
    0.1539    1.8182   -0.9169 H   0  0  0  0  0  0  0  0  0  0  0  0
    0.6915    1.8163    0.6245 H   0  0  0  0  0  0  0  0  0  0  0  0
   -0.9612    1.9300    0.3364 H   0  0  0  0  0  0  0  0  0  0  0  0
    0.0000    0.0000    0.0000 C   0  0  0  0  0  0  0  0  0  0  0  0
   -1.0958   -0.5992   -0.0000 O   0  0  0  0  0  1  0  0  0  0  0  0
    1.0958   -0.6004    0.0000 O   0  0  0  0  0  0  0  0  0  0  0  0
    3.0653    1.1243    3.4949 C   0  0  0  0  0  0  0  0  0  0  0  0
    3.4531    1.7751    2.8192 H   0  0  0  0  0  0  0  0  0  0  0  0
    3.5092    1.3401    4.4668 H   0  0  0  0  0  0  0  0  0  0  0  0
    1.9826    1.2500    3.4850 H   0  0  0  0  0  0  0  0  0  0  0  0
    3.4198   -0.3093    3.0852 C   0  0  0  0  0  0  0  0  0  0  0  0
    4.3326   -0.5290    3.4475 H   0  0  0  0  0  0  0  0  0  0  0  0
    2.7515   -0.9355    3.5041 H   0  0  0  0  0  0  0  0  0  0  0  0
    3.4323   -0.5654    1.5883 C   0  0  0  0  0  0  0  0  0  0  0  0
    2.5092   -0.4438    1.2330 H   0  0  0  0  0  0  0  0  0  0  0  0
    4.0520    0.0851    1.1555 H   0  0  0  0  0  0  0  0  0  0  0  0
    3.7657   -1.5751    1.3492 H   0  0  0  0  0  0  0  0  0  0  0  0
  1  5  1  0
  5  6  1  0
  5  7  2  0
  1  2  1  0
  1  3  1  0
  1  4  1  0
  8 12  1  0
 12 15  1  0
  8  9  1  0
  8 10  1  0
  8 11  1  0
 12 13  1  0
 12 14  1  0
 15 16  1  0
 15 17  1  0
 15 18  1  0
M  CHG  1   6  -1
M  END
>  <PDB_ID>  (518) 
pdb2bht

>  <RESIDUE_NAME>  (518) 
GLU   GLN

>  <FRAG_NAME>  (518) 
ACET   PRPA

>  <FRAG_ATOM_NUM>  (518) 
fragi: 7  fragj: 11

>  <atom.prop.CHAIN_ID>  (518) 
A A A A A A A Z Z Z Z Z Z Z Z Z Z Z

>  <atom.prop.IS_HEAVY_ATOM>  (518) 
1 0 0 0 1 1 1 1 0 0 0 1 0 0 1 0 0 0

>  <DIFUSE_FUNC_ATOM>  (518) 
atom 6   atom 7   

>  <FINAL_SINGLE_POINT_ENERGY>  (518) 
0

>  <NONCOV_INTER_ENERGY_QM>  (518) 
0

>  <FF_Energy>  (518) 
24.61

>  <QM_Energy>  (518) 
-0.26

>  <Index>  (518) 
36799

$$$$
ACET-pdb2c49-A-GLU-175:PRPA-pdb2c49-A-LEU-145
     RDKit          3D

 18 16  0  0  0  0  0  0  0  0999 V2000
    0.0075    1.4861    0.0474 C   0  0  0  0  0  0  0  0  0  0  0  0
   -0.0733    1.8247   -0.8755 H   0  0  0  0  0  0  0  0  0  0  0  0
    0.8498    1.7770    0.4706 H   0  0  0  0  0  0  0  0  0  0  0  0
   -0.8207    1.8917    0.6286 H   0  0  0  0  0  0  0  0  0  0  0  0
    0.0000    0.0000    0.0000 C   0  0  0  0  0  0  0  0  0  0  0  0
   -1.1134   -0.5699   -0.0000 O   0  0  0  0  0  1  0  0  0  0  0  0
    1.1134   -0.5682    0.0000 O   0  0  0  0  0  0  0  0  0  0  0  0
   -3.2500    2.2193   -4.8062 C   0  0  0  0  0  0  0  0  0  0  0  0
   -3.8601    2.7278   -4.2051 H   0  0  0  0  0  0  0  0  0  0  0  0
   -3.7549    1.5126   -5.2911 H   0  0  0  0  0  0  0  0  0  0  0  0
   -2.8418    2.9121   -5.5421 H   0  0  0  0  0  0  0  0  0  0  0  0
   -2.2258    1.4899   -3.8890 C   0  0  0  0  0  0  0  0  0  0  0  0
   -1.5862    0.9800   -4.4663 H   0  0  0  0  0  0  0  0  0  0  0  0
   -2.7067    0.7283   -3.2752 H   0  0  0  0  0  0  0  0  0  0  0  0
   -1.4243    2.4743   -2.9964 C   0  0  0  0  0  0  0  0  0  0  0  0
   -2.0632    2.9738   -2.4184 H   0  0  0  0  0  0  0  0  0  0  0  0
   -0.7893    1.9525   -2.4353 H   0  0  0  0  0  0  0  0  0  0  0  0
   -0.9262    3.1053   -3.5839 H   0  0  0  0  0  0  0  0  0  0  0  0
  1  5  1  0
  5  6  1  0
  5  7  2  0
  1  2  1  0
  1  3  1  0
  1  4  1  0
  8 12  1  0
 12 15  1  0
  8  9  1  0
  8 10  1  0
  8 11  1  0
 12 13  1  0
 12 14  1  0
 15 16  1  0
 15 17  1  0
 15 18  1  0
M  CHG  1   6  -1
M  END
>  <PDB_ID>  (519) 
pdb2c49

>  <RESIDUE_NAME>  (519) 
GLU   LEU

>  <FRAG_NAME>  (519) 
ACET   PRPA

>  <FRAG_ATOM_NUM>  (519) 
fragi: 7  fragj: 11

>  <atom.prop.CHAIN_ID>  (519) 
A A A A A A A Z Z Z Z Z Z Z Z Z Z Z

>  <atom.prop.IS_HEAVY_ATOM>  (519) 
1 0 0 0 1 1 1 1 0 0 0 1 0 0 1 0 0 0

>  <DIFUSE_FUNC_ATOM>  (519) 
atom 6   atom 7   

>  <FINAL_SINGLE_POINT_ENERGY>  (519) 
0

>  <NONCOV_INTER_ENERGY_QM>  (519) 
0

>  <FF_Energy>  (519) 
2.11

>  <QM_Energy>  (519) 
0.17

>  <Index>  (519) 
36920

$$$$
ACET-pdb2c49-A-GLU-175:PRPA-pdb2c49-A-LEU-145
     RDKit          3D

 18 16  0  0  0  0  0  0  0  0999 V2000
    0.0075    1.4861    0.0474 C   0  0  0  0  0  0  0  0  0  0  0  0
   -0.0733    1.8247   -0.8755 H   0  0  0  0  0  0  0  0  0  0  0  0
    0.8498    1.7770    0.4706 H   0  0  0  0  0  0  0  0  0  0  0  0
   -0.8207    1.8917    0.6286 H   0  0  0  0  0  0  0  0  0  0  0  0
    0.0000    0.0000    0.0000 C   0  0  0  0  0  0  0  0  0  0  0  0
   -1.1134   -0.5699   -0.0000 O   0  0  0  0  0  1  0  0  0  0  0  0
    1.1134   -0.5682    0.0000 O   0  0  0  0  0  0  0  0  0  0  0  0
   -1.4243    2.4743   -2.9964 C   0  0  0  0  0  0  0  0  0  0  0  0
   -2.0632    2.9738   -2.4184 H   0  0  0  0  0  0  0  0  0  0  0  0
   -0.7893    1.9525   -2.4353 H   0  0  0  0  0  0  0  0  0  0  0  0
   -0.9262    3.1053   -3.5839 H   0  0  0  0  0  0  0  0  0  0  0  0
   -2.2258    1.4899   -3.8890 C   0  0  0  0  0  0  0  0  0  0  0  0
   -1.5862    0.9800   -4.4663 H   0  0  0  0  0  0  0  0  0  0  0  0
   -2.9430    2.0008   -4.5313 H   0  0  0  0  0  0  0  0  0  0  0  0
   -2.8875    0.4420   -3.0446 C   0  0  0  0  0  0  0  0  0  0  0  0
   -3.3261   -0.2465   -3.6292 H   0  0  0  0  0  0  0  0  0  0  0  0
   -2.2070   -0.0130   -2.4625 H   0  0  0  0  0  0  0  0  0  0  0  0
   -3.5867    0.8620   -2.4576 H   0  0  0  0  0  0  0  0  0  0  0  0
  1  5  1  0
  5  6  1  0
  5  7  2  0
  1  2  1  0
  1  3  1  0
  1  4  1  0
  8 12  1  0
 12 15  1  0
  8  9  1  0
  8 10  1  0
  8 11  1  0
 12 13  1  0
 12 14  1  0
 15 16  1  0
 15 17  1  0
 15 18  1  0
M  CHG  1   6  -1
M  END
>  <PDB_ID>  (520) 
pdb2c49

>  <RESIDUE_NAME>  (520) 
GLU   LEU

>  <FRAG_NAME>  (520) 
ACET   PRPA

>  <FRAG_ATOM_NUM>  (520) 
fragi: 7  fragj: 11

>  <atom.prop.CHAIN_ID>  (520) 
A A A A A A A Z Z Z Z Z Z Z Z Z Z Z

>  <atom.prop.IS_HEAVY_ATOM>  (520) 
1 0 0 0 1 1 1 1 0 0 0 1 0 0 1 0 0 0

>  <DIFUSE_FUNC_ATOM>  (520) 
atom 6   atom 7   

>  <FINAL_SINGLE_POINT_ENERGY>  (520) 
0

>  <NONCOV_INTER_ENERGY_QM>  (520) 
0

>  <FF_Energy>  (520) 
8.91

>  <QM_Energy>  (520) 
-1.08

>  <Index>  (520) 
36955

$$$$
ACET-pdb1bm7-A-ASP-18:PRPA-pdb1bm7-A-ARG-21
     RDKit          3D

 18 16  0  0  0  0  0  0  0  0999 V2000
   -0.0153    1.5042    0.0122 C   0  0  0  0  0  0  0  0  0  0  0  0
    0.8635    1.8419   -0.3060 H   0  0  0  0  0  0  0  0  0  0  0  0
   -0.1974    1.8206    0.9356 H   0  0  0  0  0  0  0  0  0  0  0  0
   -0.7857    1.9161   -0.6396 H   0  0  0  0  0  0  0  0  0  0  0  0
    0.0000    0.0000    0.0000 C   0  0  0  0  0  0  0  0  0  0  0  0
   -1.0757   -0.5949    0.0000 O   0  0  0  0  0  1  0  0  0  0  0  0
    1.0757   -0.6065   -0.0000 O   0  0  0  0  0  0  0  0  0  0  0  0
   -0.3860   -1.0901    3.6535 C   0  0  0  0  0  0  0  0  0  0  0  0
   -0.1252   -0.4899    2.9221 H   0  0  0  0  0  0  0  0  0  0  0  0
   -0.0981   -0.7613    4.5314 H   0  0  0  0  0  0  0  0  0  0  0  0
   -1.4731   -1.1686    3.6583 H   0  0  0  0  0  0  0  0  0  0  0  0
    0.2182   -2.4375    3.4166 C   0  0  0  0  0  0  0  0  0  0  0  0
    0.5418   -2.8215    4.3053 H   0  0  0  0  0  0  0  0  0  0  0  0
   -0.5048   -3.0747    3.0780 H   0  0  0  0  0  0  0  0  0  0  0  0
    1.3574   -2.4813    2.4537 C   0  0  0  0  0  0  0  0  0  0  0  0
    1.4344   -3.4113    2.0903 H   0  0  0  0  0  0  0  0  0  0  0  0
    1.1657   -1.8479    1.7021 H   0  0  0  0  0  0  0  0  0  0  0  0
    2.3030   -2.2032    2.9189 H   0  0  0  0  0  0  0  0  0  0  0  0
  1  5  1  0
  5  6  1  0
  5  7  2  0
  1  2  1  0
  1  3  1  0
  1  4  1  0
  8 12  1  0
 12 15  1  0
  8  9  1  0
  8 10  1  0
  8 11  1  0
 12 13  1  0
 12 14  1  0
 15 16  1  0
 15 17  1  0
 15 18  1  0
M  CHG  1   6  -1
M  END
>  <PDB_ID>  (521) 
pdb1bm7

>  <RESIDUE_NAME>  (521) 
ASP   ARG

>  <FRAG_NAME>  (521) 
ACET   PRPA

>  <FRAG_ATOM_NUM>  (521) 
fragi: 7  fragj: 11

>  <atom.prop.CHAIN_ID>  (521) 
A A A A A A A Z Z Z Z Z Z Z Z Z Z Z

>  <atom.prop.IS_HEAVY_ATOM>  (521) 
1 0 0 0 1 1 1 1 0 0 0 1 0 0 1 0 0 0

>  <DIFUSE_FUNC_ATOM>  (521) 
atom 6   atom 7   

>  <FINAL_SINGLE_POINT_ENERGY>  (521) 
0

>  <NONCOV_INTER_ENERGY_QM>  (521) 
0

>  <FF_Energy>  (521) 
4.81

>  <QM_Energy>  (521) 
-4.2

>  <Index>  (521) 
36973

$$$$
ACET-pdb2bwn-B-ASP-25:PRPA-pdb2bwn-A-ARG-94
     RDKit          3D

 18 16  0  0  0  0  0  0  0  0999 V2000
    0.0035    1.5304   -0.0610 C   0  0  0  0  0  0  0  0  0  0  0  0
    0.9439    1.8389   -0.0415 H   0  0  0  0  0  0  0  0  0  0  0  0
   -0.5009    1.8730    0.7185 H   0  0  0  0  0  0  0  0  0  0  0  0
   -0.4664    1.9031   -0.9712 H   0  0  0  0  0  0  0  0  0  0  0  0
    0.0000    0.0000    0.0000 C   0  0  0  0  0  0  0  0  0  0  0  0
   -1.1086   -0.6195    0.0000 O   0  0  0  0  0  1  0  0  0  0  0  0
    1.1086   -0.5768   -0.0000 O   0  0  0  0  0  0  0  0  0  0  0  0
    4.5048   -2.5266    0.2816 C   0  0  0  0  0  0  0  0  0  0  0  0
    5.2409   -2.2043    0.8832 H   0  0  0  0  0  0  0  0  0  0  0  0
    4.2412   -1.7819   -0.3374 H   0  0  0  0  0  0  0  0  0  0  0  0
    4.9102   -3.3328   -0.3296 H   0  0  0  0  0  0  0  0  0  0  0  0
    3.3089   -2.8797    1.1391 C   0  0  0  0  0  0  0  0  0  0  0  0
    2.5166   -3.1101    0.5587 H   0  0  0  0  0  0  0  0  0  0  0  0
    3.5160   -3.6814    1.7165 H   0  0  0  0  0  0  0  0  0  0  0  0
    2.8166   -1.7445    2.1256 C   0  0  0  0  0  0  0  0  0  0  0  0
    3.4536   -1.7032    2.8514 H   0  0  0  0  0  0  0  0  0  0  0  0
    2.7336   -0.9338    1.6046 H   0  0  0  0  0  0  0  0  0  0  0  0
    1.8403   -2.0538    2.4988 H   0  0  0  0  0  0  0  0  0  0  0  0
  1  5  1  0
  5  6  1  0
  5  7  2  0
  1  2  1  0
  1  3  1  0
  1  4  1  0
  8 12  1  0
 12 15  1  0
  8  9  1  0
  8 10  1  0
  8 11  1  0
 12 13  1  0
 12 14  1  0
 15 16  1  0
 15 17  1  0
 15 18  1  0
M  CHG  1   6  -1
M  END
>  <PDB_ID>  (522) 
pdb2bwn

>  <RESIDUE_NAME>  (522) 
ASP   ARG

>  <FRAG_NAME>  (522) 
ACET   PRPA

>  <FRAG_ATOM_NUM>  (522) 
fragi: 7  fragj: 11

>  <atom.prop.CHAIN_ID>  (522) 
A A A A A A A Z Z Z Z Z Z Z Z Z Z Z

>  <atom.prop.IS_HEAVY_ATOM>  (522) 
1 0 0 0 1 1 1 1 0 0 0 1 0 0 1 0 0 0

>  <DIFUSE_FUNC_ATOM>  (522) 
atom 6   atom 7   

>  <FINAL_SINGLE_POINT_ENERGY>  (522) 
0

>  <NONCOV_INTER_ENERGY_QM>  (522) 
0

>  <FF_Energy>  (522) 
1.33

>  <QM_Energy>  (522) 
-3.69

>  <Index>  (522) 
37049

$$$$
ACET-pdb1bnz-A-GLU-12:PRPA-pdb1bnz-A-LYS-5
     RDKit          3D

 18 16  0  0  0  0  0  0  0  0999 V2000
    0.0057    1.5131   -0.0207 C   0  0  0  0  0  0  0  0  0  0  0  0
    0.0162    1.8016   -0.9638 H   0  0  0  0  0  0  0  0  0  0  0  0
    0.8112    1.8174    0.4617 H   0  0  0  0  0  0  0  0  0  0  0  0
   -0.8634    1.9645    0.4579 H   0  0  0  0  0  0  0  0  0  0  0  0
    0.0000    0.0000    0.0000 C   0  0  0  0  0  0  0  0  0  0  0  0
   -1.1049   -0.5934    0.0000 O   0  0  0  0  0  1  0  0  0  0  0  0
    1.1049   -0.5968   -0.0000 O   0  0  0  0  0  0  0  0  0  0  0  0
    4.3515    0.6159   -0.2223 C   0  0  0  0  0  0  0  0  0  0  0  0
    4.3716    0.5682   -1.2224 H   0  0  0  0  0  0  0  0  0  0  0  0
    3.6213    0.0236    0.1222 H   0  0  0  0  0  0  0  0  0  0  0  0
    5.3071    0.2657    0.1679 H   0  0  0  0  0  0  0  0  0  0  0  0
    4.0558    2.0522    0.1945 C   0  0  0  0  0  0  0  0  0  0  0  0
    3.8040    2.0625    1.1577 H   0  0  0  0  0  0  0  0  0  0  0  0
    4.8698    2.6055    0.0466 H   0  0  0  0  0  0  0  0  0  0  0  0
    2.9086    2.6555   -0.6121 C   0  0  0  0  0  0  0  0  0  0  0  0
    3.1641    2.6556   -1.5896 H   0  0  0  0  0  0  0  0  0  0  0  0
    2.0935    2.0676   -0.5060 H   0  0  0  0  0  0  0  0  0  0  0  0
    2.6498    3.6721   -0.3163 H   0  0  0  0  0  0  0  0  0  0  0  0
  1  5  1  0
  5  6  1  0
  5  7  2  0
  1  2  1  0
  1  3  1  0
  1  4  1  0
  8 12  1  0
 12 15  1  0
  8  9  1  0
  8 10  1  0
  8 11  1  0
 12 13  1  0
 12 14  1  0
 15 16  1  0
 15 17  1  0
 15 18  1  0
M  CHG  1   6  -1
M  END
>  <PDB_ID>  (523) 
pdb1bnz

>  <RESIDUE_NAME>  (523) 
GLU   LYS

>  <FRAG_NAME>  (523) 
ACET   PRPA

>  <FRAG_ATOM_NUM>  (523) 
fragi: 7  fragj: 11

>  <atom.prop.CHAIN_ID>  (523) 
A A A A A A A Z Z Z Z Z Z Z Z Z Z Z

>  <atom.prop.IS_HEAVY_ATOM>  (523) 
1 0 0 0 1 1 1 1 0 0 0 1 0 0 1 0 0 0

>  <DIFUSE_FUNC_ATOM>  (523) 
atom 6   atom 7   

>  <FINAL_SINGLE_POINT_ENERGY>  (523) 
0

>  <NONCOV_INTER_ENERGY_QM>  (523) 
0

>  <FF_Energy>  (523) 
25.6

>  <QM_Energy>  (523) 
1.22

>  <Index>  (523) 
37206

$$$$
ACET-pdb2ccv-A-GLU-99:PRPA-pdb2ccv-A-ARG-1
     RDKit          3D

 18 16  0  0  0  0  0  0  0  0999 V2000
    0.1637    1.4824    0.0144 C   0  0  0  0  0  0  0  0  0  0  0  0
    0.6846    1.7425   -0.8032 H   0  0  0  0  0  0  0  0  0  0  0  0
    0.6962    1.7247    0.8295 H   0  0  0  0  0  0  0  0  0  0  0  0
   -0.7464    2.0822    0.0260 H   0  0  0  0  0  0  0  0  0  0  0  0
    0.0000    0.0000    0.0000 C   0  0  0  0  0  0  0  0  0  0  0  0
   -1.0901   -0.5618    0.0000 O   0  0  0  0  0  1  0  0  0  0  0  0
    1.0901   -0.6038    0.0000 O   0  0  0  0  0  0  0  0  0  0  0  0
    0.5818    0.3230    3.5264 C   0  0  0  0  0  0  0  0  0  0  0  0
    0.5864    0.0022    4.4836 H   0  0  0  0  0  0  0  0  0  0  0  0
   -0.4387    0.5450    3.2142 H   0  0  0  0  0  0  0  0  0  0  0  0
    1.2160    1.2080    3.4748 H   0  0  0  0  0  0  0  0  0  0  0  0
    1.3426   -0.6858    2.7125 C   0  0  0  0  0  0  0  0  0  0  0  0
    0.6827   -1.2592    2.2098 H   0  0  0  0  0  0  0  0  0  0  0  0
    1.9085   -0.1953    2.0378 H   0  0  0  0  0  0  0  0  0  0  0  0
    2.2598   -1.6182    3.4842 C   0  0  0  0  0  0  0  0  0  0  0  0
    2.3728   -1.2943    4.4039 H   0  0  0  0  0  0  0  0  0  0  0  0
    1.9134   -2.5366    3.4486 H   0  0  0  0  0  0  0  0  0  0  0  0
    3.2379   -1.6114    3.0031 H   0  0  0  0  0  0  0  0  0  0  0  0
  1  5  1  0
  5  6  1  0
  5  7  2  0
  1  2  1  0
  1  3  1  0
  1  4  1  0
  8 12  1  0
 12 15  1  0
  8  9  1  0
  8 10  1  0
  8 11  1  0
 12 13  1  0
 12 14  1  0
 15 16  1  0
 15 17  1  0
 15 18  1  0
M  CHG  1   6  -1
M  END
>  <PDB_ID>  (524) 
pdb2ccv

>  <RESIDUE_NAME>  (524) 
GLU   ARG

>  <FRAG_NAME>  (524) 
ACET   PRPA

>  <FRAG_ATOM_NUM>  (524) 
fragi: 7  fragj: 11

>  <atom.prop.CHAIN_ID>  (524) 
A A A A A A A Z Z Z Z Z Z Z Z Z Z Z

>  <atom.prop.IS_HEAVY_ATOM>  (524) 
1 0 0 0 1 1 1 1 0 0 0 1 0 0 1 0 0 0

>  <DIFUSE_FUNC_ATOM>  (524) 
atom 6   atom 7   

>  <FINAL_SINGLE_POINT_ENERGY>  (524) 
0

>  <NONCOV_INTER_ENERGY_QM>  (524) 
0

>  <FF_Energy>  (524) 
3.36

>  <QM_Energy>  (524) 
-0.18

>  <Index>  (524) 
37409

$$$$
ACET-pdb2ccv-A-GLU-99:PRPA-pdb2ccv-A-ARG-1
     RDKit          3D

 18 16  0  0  0  0  0  0  0  0999 V2000
    0.1637    1.4824    0.0144 C   0  0  0  0  0  0  0  0  0  0  0  0
    0.6846    1.7425   -0.8032 H   0  0  0  0  0  0  0  0  0  0  0  0
    0.6962    1.7247    0.8295 H   0  0  0  0  0  0  0  0  0  0  0  0
   -0.7464    2.0822    0.0260 H   0  0  0  0  0  0  0  0  0  0  0  0
    0.0000    0.0000    0.0000 C   0  0  0  0  0  0  0  0  0  0  0  0
   -1.0901   -0.5618    0.0000 O   0  0  0  0  0  1  0  0  0  0  0  0
    1.0901   -0.6038    0.0000 O   0  0  0  0  0  0  0  0  0  0  0  0
    1.3426   -0.6858    2.7125 C   0  0  0  0  0  0  0  0  0  0  0  0
    0.6827   -1.2592    2.2098 H   0  0  0  0  0  0  0  0  0  0  0  0
    1.9085   -0.1953    2.0378 H   0  0  0  0  0  0  0  0  0  0  0  0
    0.7909    0.0457    3.3027 H   0  0  0  0  0  0  0  0  0  0  0  0
    2.2598   -1.6182    3.4842 C   0  0  0  0  0  0  0  0  0  0  0  0
    2.3728   -1.2943    4.4039 H   0  0  0  0  0  0  0  0  0  0  0  0
    1.9134   -2.5366    3.4486 H   0  0  0  0  0  0  0  0  0  0  0  0
    3.6407   -1.6086    2.8050 C   0  0  0  0  0  0  0  0  0  0  0  0
    3.5975   -2.1874    2.0207 H   0  0  0  0  0  0  0  0  0  0  0  0
    3.8690   -0.6828    2.5954 H   0  0  0  0  0  0  0  0  0  0  0  0
    4.3638   -2.0105    3.5148 H   0  0  0  0  0  0  0  0  0  0  0  0
  1  5  1  0
  5  6  1  0
  5  7  2  0
  1  2  1  0
  1  3  1  0
  1  4  1  0
  8 12  1  0
 12 15  1  0
  8  9  1  0
  8 10  1  0
  8 11  1  0
 12 13  1  0
 12 14  1  0
 15 16  1  0
 15 17  1  0
 15 18  1  0
M  CHG  1   6  -1
M  END
>  <PDB_ID>  (525) 
pdb2ccv

>  <RESIDUE_NAME>  (525) 
GLU   ARG

>  <FRAG_NAME>  (525) 
ACET   PRPA

>  <FRAG_ATOM_NUM>  (525) 
fragi: 7  fragj: 11

>  <atom.prop.CHAIN_ID>  (525) 
A A A A A A A Z Z Z Z Z Z Z Z Z Z Z

>  <atom.prop.IS_HEAVY_ATOM>  (525) 
1 0 0 0 1 1 1 1 0 0 0 1 0 0 1 0 0 0

>  <DIFUSE_FUNC_ATOM>  (525) 
atom 6   atom 7   

>  <FINAL_SINGLE_POINT_ENERGY>  (525) 
0

>  <NONCOV_INTER_ENERGY_QM>  (525) 
0

>  <FF_Energy>  (525) 
7.53

>  <QM_Energy>  (525) 
0.3

>  <Index>  (525) 
37427

$$$$
ACET-pdb1bnz-A-GLU-36:PRPA-pdb1bnz-A-LYS-40
     RDKit          3D

 18 16  0  0  0  0  0  0  0  0999 V2000
    0.0065    1.5236   -0.0153 C   0  0  0  0  0  0  0  0  0  0  0  0
    0.0582    1.8067   -0.9555 H   0  0  0  0  0  0  0  0  0  0  0  0
    0.7872    1.8177    0.5055 H   0  0  0  0  0  0  0  0  0  0  0  0
   -0.8906    1.9559    0.4278 H   0  0  0  0  0  0  0  0  0  0  0  0
    0.0000    0.0000    0.0000 C   0  0  0  0  0  0  0  0  0  0  0  0
   -1.0903   -0.5997   -0.0000 O   0  0  0  0  0  1  0  0  0  0  0  0
    1.0903   -0.6055    0.0000 O   0  0  0  0  0  0  0  0  0  0  0  0
    4.3556    2.6997    0.7080 C   0  0  0  0  0  0  0  0  0  0  0  0
    5.2188    2.1821    0.4187 H   0  0  0  0  0  0  0  0  0  0  0  0
    4.6707    3.5656    1.2902 H   0  0  0  0  0  0  0  0  0  0  0  0
    3.7315    2.8275   -0.1765 H   0  0  0  0  0  0  0  0  0  0  0  0
    3.6902    1.6776    1.6386 C   0  0  0  0  0  0  0  0  0  0  0  0
    3.4279    0.8863    1.0933 H   0  0  0  0  0  0  0  0  0  0  0  0
    4.3554    1.4103    2.3300 H   0  0  0  0  0  0  0  0  0  0  0  0
    2.4510    2.2083    2.3417 C   0  0  0  0  0  0  0  0  0  0  0  0
    2.6756    3.0909    2.7795 H   0  0  0  0  0  0  0  0  0  0  0  0
    1.7308    2.3797    1.6539 H   0  0  0  0  0  0  0  0  0  0  0  0
    2.0501    1.5380    3.1021 H   0  0  0  0  0  0  0  0  0  0  0  0
  1  5  1  0
  5  6  1  0
  5  7  2  0
  1  2  1  0
  1  3  1  0
  1  4  1  0
  8 12  1  0
 12 15  1  0
  8  9  1  0
  8 10  1  0
  8 11  1  0
 12 13  1  0
 12 14  1  0
 15 16  1  0
 15 17  1  0
 15 18  1  0
M  CHG  1   6  -1
M  END
>  <PDB_ID>  (526) 
pdb1bnz

>  <RESIDUE_NAME>  (526) 
GLU   LYS

>  <FRAG_NAME>  (526) 
ACET   PRPA

>  <FRAG_ATOM_NUM>  (526) 
fragi: 7  fragj: 11

>  <atom.prop.CHAIN_ID>  (526) 
A A A A A A A Z Z Z Z Z Z Z Z Z Z Z

>  <atom.prop.IS_HEAVY_ATOM>  (526) 
1 0 0 0 1 1 1 1 0 0 0 1 0 0 1 0 0 0

>  <DIFUSE_FUNC_ATOM>  (526) 
atom 6   atom 7   

>  <FINAL_SINGLE_POINT_ENERGY>  (526) 
0

>  <NONCOV_INTER_ENERGY_QM>  (526) 
0

>  <FF_Energy>  (526) 
26.01

>  <QM_Energy>  (526) 
0.02

>  <Index>  (526) 
37473

$$$$
ACET-pdb2c21-B-GLU-59:PRPA-pdb2c21-B-LEU-44
     RDKit          3D

 18 16  0  0  0  0  0  0  0  0999 V2000
    0.0452    1.5307    0.0187 C   0  0  0  0  0  0  0  0  0  0  0  0
    0.3788    1.8286   -0.8635 H   0  0  0  0  0  0  0  0  0  0  0  0
    0.6617    1.8002    0.7436 H   0  0  0  0  0  0  0  0  0  0  0  0
   -0.9122    2.0210    0.1950 H   0  0  0  0  0  0  0  0  0  0  0  0
    0.0000    0.0000    0.0000 C   0  0  0  0  0  0  0  0  0  0  0  0
   -1.0809   -0.6190   -0.0000 O   0  0  0  0  0  1  0  0  0  0  0  0
    1.0809   -0.6004    0.0000 O   0  0  0  0  0  0  0  0  0  0  0  0
    4.0889   -1.4777    0.1187 C   0  0  0  0  0  0  0  0  0  0  0  0
    3.2079   -1.2047    0.5047 H   0  0  0  0  0  0  0  0  0  0  0  0
    4.0080   -2.3897   -0.2831 H   0  0  0  0  0  0  0  0  0  0  0  0
    4.7790   -1.4929    0.8430 H   0  0  0  0  0  0  0  0  0  0  0  0
    4.5026   -0.4829   -0.9576 C   0  0  0  0  0  0  0  0  0  0  0  0
    5.3830   -0.7578   -1.3426 H   0  0  0  0  0  0  0  0  0  0  0  0
    4.5960    0.5186   -0.5377 H   0  0  0  0  0  0  0  0  0  0  0  0
    3.5290   -0.4808   -2.1241 C   0  0  0  0  0  0  0  0  0  0  0  0
    3.8599    0.1401   -2.8363 H   0  0  0  0  0  0  0  0  0  0  0  0
    3.4528   -1.4054   -2.4993 H   0  0  0  0  0  0  0  0  0  0  0  0
    2.6290   -0.1756   -1.8102 H   0  0  0  0  0  0  0  0  0  0  0  0
  1  5  1  0
  5  6  1  0
  5  7  2  0
  1  2  1  0
  1  3  1  0
  1  4  1  0
  8 12  1  0
 12 15  1  0
  8  9  1  0
  8 10  1  0
  8 11  1  0
 12 13  1  0
 12 14  1  0
 15 16  1  0
 15 17  1  0
 15 18  1  0
M  CHG  1   6  -1
M  END
>  <PDB_ID>  (527) 
pdb2c21

>  <RESIDUE_NAME>  (527) 
GLU   LEU

>  <FRAG_NAME>  (527) 
ACET   PRPA

>  <FRAG_ATOM_NUM>  (527) 
fragi: 7  fragj: 11

>  <atom.prop.CHAIN_ID>  (527) 
A A A A A A A Z Z Z Z Z Z Z Z Z Z Z

>  <atom.prop.IS_HEAVY_ATOM>  (527) 
1 0 0 0 1 1 1 1 0 0 0 1 0 0 1 0 0 0

>  <DIFUSE_FUNC_ATOM>  (527) 
atom 6   atom 7   

>  <FINAL_SINGLE_POINT_ENERGY>  (527) 
0

>  <NONCOV_INTER_ENERGY_QM>  (527) 
0

>  <FF_Energy>  (527) 
1.89

>  <QM_Energy>  (527) 
-4.09

>  <Index>  (527) 
37512

$$$$
ACET-pdb2b1x-F-GLU-619:PRPA-pdb2b1x-F-ARG-650
     RDKit          3D

 18 16  0  0  0  0  0  0  0  0999 V2000
    0.0208    1.5243   -0.0049 C   0  0  0  0  0  0  0  0  0  0  0  0
    0.4884    1.8087   -0.8240 H   0  0  0  0  0  0  0  0  0  0  0  0
    0.4959    1.8135    0.8081 H   0  0  0  0  0  0  0  0  0  0  0  0
   -0.9732    1.9715   -0.0022 H   0  0  0  0  0  0  0  0  0  0  0  0
    0.0000    0.0000    0.0000 C   0  0  0  0  0  0  0  0  0  0  0  0
   -1.0895   -0.6047    0.0000 O   0  0  0  0  0  1  0  0  0  0  0  0
    1.0895   -0.5953   -0.0000 O   0  0  0  0  0  0  0  0  0  0  0  0
    1.9831    4.0460   -3.2576 C   0  0  0  0  0  0  0  0  0  0  0  0
    1.3206    4.1184   -2.4994 H   0  0  0  0  0  0  0  0  0  0  0  0
    1.4380    3.8070   -4.1707 H   0  0  0  0  0  0  0  0  0  0  0  0
    2.5215    4.9897   -3.3442 H   0  0  0  0  0  0  0  0  0  0  0  0
    3.0170    2.9650   -2.9629 C   0  0  0  0  0  0  0  0  0  0  0  0
    3.5095    2.7637   -3.8085 H   0  0  0  0  0  0  0  0  0  0  0  0
    3.6546    3.3193   -2.2808 H   0  0  0  0  0  0  0  0  0  0  0  0
    2.4389    1.6659   -2.4346 C   0  0  0  0  0  0  0  0  0  0  0  0
    1.5163    1.8317   -2.0680 H   0  0  0  0  0  0  0  0  0  0  0  0
    2.3676    0.9994   -3.1858 H   0  0  0  0  0  0  0  0  0  0  0  0
    3.0304    1.2065   -1.6428 H   0  0  0  0  0  0  0  0  0  0  0  0
  1  5  1  0
  5  6  1  0
  5  7  2  0
  1  2  1  0
  1  3  1  0
  1  4  1  0
  8 12  1  0
 12 15  1  0
  8  9  1  0
  8 10  1  0
  8 11  1  0
 12 13  1  0
 12 14  1  0
 15 16  1  0
 15 17  1  0
 15 18  1  0
M  CHG  1   6  -1
M  END
>  <PDB_ID>  (528) 
pdb2b1x

>  <RESIDUE_NAME>  (528) 
GLU   ARG

>  <FRAG_NAME>  (528) 
ACET   PRPA

>  <FRAG_ATOM_NUM>  (528) 
fragi: 7  fragj: 11

>  <atom.prop.CHAIN_ID>  (528) 
A A A A A A A Z Z Z Z Z Z Z Z Z Z Z

>  <atom.prop.IS_HEAVY_ATOM>  (528) 
1 0 0 0 1 1 1 1 0 0 0 1 0 0 1 0 0 0

>  <DIFUSE_FUNC_ATOM>  (528) 
atom 6   atom 7   

>  <FINAL_SINGLE_POINT_ENERGY>  (528) 
0

>  <NONCOV_INTER_ENERGY_QM>  (528) 
0

>  <FF_Energy>  (528) 
20.54

>  <QM_Energy>  (528) 
1.26

>  <Index>  (528) 
37549

$$$$
ACET-pdb2b1x-F-GLU-619:PRPA-pdb2b1x-F-ARG-650
     RDKit          3D

 18 16  0  0  0  0  0  0  0  0999 V2000
    0.0208    1.5243   -0.0049 C   0  0  0  0  0  0  0  0  0  0  0  0
    0.4884    1.8087   -0.8240 H   0  0  0  0  0  0  0  0  0  0  0  0
    0.4959    1.8135    0.8081 H   0  0  0  0  0  0  0  0  0  0  0  0
   -0.9732    1.9715   -0.0022 H   0  0  0  0  0  0  0  0  0  0  0  0
    0.0000    0.0000    0.0000 C   0  0  0  0  0  0  0  0  0  0  0  0
   -1.0895   -0.6047    0.0000 O   0  0  0  0  0  1  0  0  0  0  0  0
    1.0895   -0.5953   -0.0000 O   0  0  0  0  0  0  0  0  0  0  0  0
    3.0170    2.9650   -2.9629 C   0  0  0  0  0  0  0  0  0  0  0  0
    3.5095    2.7637   -3.8085 H   0  0  0  0  0  0  0  0  0  0  0  0
    3.6546    3.3193   -2.2808 H   0  0  0  0  0  0  0  0  0  0  0  0
    2.2778    3.7379   -3.1736 H   0  0  0  0  0  0  0  0  0  0  0  0
    2.4389    1.6659   -2.4346 C   0  0  0  0  0  0  0  0  0  0  0  0
    1.5163    1.8317   -2.0680 H   0  0  0  0  0  0  0  0  0  0  0  0
    2.3676    0.9994   -3.1858 H   0  0  0  0  0  0  0  0  0  0  0  0
    3.2705    1.0201   -1.3214 C   0  0  0  0  0  0  0  0  0  0  0  0
    3.5773    1.7441   -0.7202 H   0  0  0  0  0  0  0  0  0  0  0  0
    2.6816    0.3839   -0.8405 H   0  0  0  0  0  0  0  0  0  0  0  0
    4.1253    0.4950   -1.7479 H   0  0  0  0  0  0  0  0  0  0  0  0
  1  5  1  0
  5  6  1  0
  5  7  2  0
  1  2  1  0
  1  3  1  0
  1  4  1  0
  8 12  1  0
 12 15  1  0
  8  9  1  0
  8 10  1  0
  8 11  1  0
 12 13  1  0
 12 14  1  0
 15 16  1  0
 15 17  1  0
 15 18  1  0
M  CHG  1   6  -1
M  END
>  <PDB_ID>  (529) 
pdb2b1x

>  <RESIDUE_NAME>  (529) 
GLU   ARG

>  <FRAG_NAME>  (529) 
ACET   PRPA

>  <FRAG_ATOM_NUM>  (529) 
fragi: 7  fragj: 11

>  <atom.prop.CHAIN_ID>  (529) 
A A A A A A A Z Z Z Z Z Z Z Z Z Z Z

>  <atom.prop.IS_HEAVY_ATOM>  (529) 
1 0 0 0 1 1 1 1 0 0 0 1 0 0 1 0 0 0

>  <DIFUSE_FUNC_ATOM>  (529) 
atom 6   atom 7   

>  <FINAL_SINGLE_POINT_ENERGY>  (529) 
0

>  <NONCOV_INTER_ENERGY_QM>  (529) 
0

>  <FF_Energy>  (529) 
29.93

>  <QM_Energy>  (529) 
-0.23

>  <Index>  (529) 
37559

$$$$
ACET-pdb2c5u-A-ASP-101:PRPA-pdb2c5u-A-ILE-167
     RDKit          3D

 18 16  0  0  0  0  0  0  0  0999 V2000
    0.0228    1.5246   -0.0313 C   0  0  0  0  0  0  0  0  0  0  0  0
   -0.1535    1.8270   -0.9618 H   0  0  0  0  0  0  0  0  0  0  0  0
    0.9168    1.8368    0.2710 H   0  0  0  0  0  0  0  0  0  0  0  0
   -0.7261    1.9824    0.6149 H   0  0  0  0  0  0  0  0  0  0  0  0
    0.0000    0.0000    0.0000 C   0  0  0  0  0  0  0  0  0  0  0  0
   -1.0927   -0.5989    0.0000 O   0  0  0  0  0  1  0  0  0  0  0  0
    1.0927   -0.6049    0.0000 O   0  0  0  0  0  0  0  0  0  0  0  0
    0.9974   -4.0503    2.0728 C   0  0  0  0  0  0  0  0  0  0  0  0
    0.8203   -4.9430    2.4196 H   0  0  0  0  0  0  0  0  0  0  0  0
    1.5946   -3.5373    2.8265 H   0  0  0  0  0  0  0  0  0  0  0  0
    1.7218   -4.1688    1.2671 H   0  0  0  0  0  0  0  0  0  0  0  0
   -0.1783   -3.1738    1.6008 C   0  0  0  0  0  0  0  0  0  0  0  0
    0.1963   -2.3711    1.1596 H   0  0  0  0  0  0  0  0  0  0  0  0
   -0.7995   -3.7277    0.8970 H   0  0  0  0  0  0  0  0  0  0  0  0
   -0.9855   -2.7158    2.8166 C   0  0  0  0  0  0  0  0  0  0  0  0
   -0.4386   -2.0543    3.3301 H   0  0  0  0  0  0  0  0  0  0  0  0
   -1.8126   -2.2552    2.4899 H   0  0  0  0  0  0  0  0  0  0  0  0
   -1.2827   -3.5203    3.4893 H   0  0  0  0  0  0  0  0  0  0  0  0
  1  5  1  0
  5  6  1  0
  5  7  2  0
  1  2  1  0
  1  3  1  0
  1  4  1  0
  8 12  1  0
 12 15  1  0
  8  9  1  0
  8 10  1  0
  8 11  1  0
 12 13  1  0
 12 14  1  0
 15 16  1  0
 15 17  1  0
 15 18  1  0
M  CHG  1   6  -1
M  END
>  <PDB_ID>  (530) 
pdb2c5u

>  <RESIDUE_NAME>  (530) 
ASP   ILE

>  <FRAG_NAME>  (530) 
ACET   PRPA

>  <FRAG_ATOM_NUM>  (530) 
fragi: 7  fragj: 11

>  <atom.prop.CHAIN_ID>  (530) 
A A A A A A A Z Z Z Z Z Z Z Z Z Z Z

>  <atom.prop.IS_HEAVY_ATOM>  (530) 
1 0 0 0 1 1 1 1 0 0 0 1 0 0 1 0 0 0

>  <DIFUSE_FUNC_ATOM>  (530) 
atom 6   atom 7   

>  <FINAL_SINGLE_POINT_ENERGY>  (530) 
0

>  <NONCOV_INTER_ENERGY_QM>  (530) 
0

>  <FF_Energy>  (530) 
2.03

>  <QM_Energy>  (530) 
-5.23

>  <Index>  (530) 
37587

$$$$
ACET-pdb2c5u-A-ASP-101:PRPA-pdb2c5u-A-ILE-167
     RDKit          3D

 18 16  0  0  0  0  0  0  0  0999 V2000
    0.0228    1.5246   -0.0313 C   0  0  0  0  0  0  0  0  0  0  0  0
   -0.1535    1.8270   -0.9618 H   0  0  0  0  0  0  0  0  0  0  0  0
    0.9168    1.8368    0.2710 H   0  0  0  0  0  0  0  0  0  0  0  0
   -0.7261    1.9824    0.6149 H   0  0  0  0  0  0  0  0  0  0  0  0
    0.0000    0.0000    0.0000 C   0  0  0  0  0  0  0  0  0  0  0  0
   -1.0927   -0.5989    0.0000 O   0  0  0  0  0  1  0  0  0  0  0  0
    1.0927   -0.6049    0.0000 O   0  0  0  0  0  0  0  0  0  0  0  0
    0.9974   -4.0503    2.0728 C   0  0  0  0  0  0  0  0  0  0  0  0
    0.8203   -4.9430    2.4196 H   0  0  0  0  0  0  0  0  0  0  0  0
    1.5946   -3.5373    2.8265 H   0  0  0  0  0  0  0  0  0  0  0  0
    1.7218   -4.1688    1.2671 H   0  0  0  0  0  0  0  0  0  0  0  0
   -0.1783   -3.1738    1.6008 C   0  0  0  0  0  0  0  0  0  0  0  0
    0.1963   -2.3711    1.1596 H   0  0  0  0  0  0  0  0  0  0  0  0
   -0.7536   -2.8474    2.4672 H   0  0  0  0  0  0  0  0  0  0  0  0
   -1.0435   -3.9452    0.6206 C   0  0  0  0  0  0  0  0  0  0  0  0
   -1.7906   -3.3629    0.3027 H   0  0  0  0  0  0  0  0  0  0  0  0
   -0.4912   -4.2314   -0.1616 H   0  0  0  0  0  0  0  0  0  0  0  0
   -1.4226   -4.7531    1.0707 H   0  0  0  0  0  0  0  0  0  0  0  0
  1  5  1  0
  5  6  1  0
  5  7  2  0
  1  2  1  0
  1  3  1  0
  1  4  1  0
  8 12  1  0
 12 15  1  0
  8  9  1  0
  8 10  1  0
  8 11  1  0
 12 13  1  0
 12 14  1  0
 15 16  1  0
 15 17  1  0
 15 18  1  0
M  CHG  1   6  -1
M  END
>  <PDB_ID>  (531) 
pdb2c5u

>  <RESIDUE_NAME>  (531) 
ASP   ILE

>  <FRAG_NAME>  (531) 
ACET   PRPA

>  <FRAG_ATOM_NUM>  (531) 
fragi: 7  fragj: 11

>  <atom.prop.CHAIN_ID>  (531) 
A A A A A A A Z Z Z Z Z Z Z Z Z Z Z

>  <atom.prop.IS_HEAVY_ATOM>  (531) 
1 0 0 0 1 1 1 1 0 0 0 1 0 0 1 0 0 0

>  <DIFUSE_FUNC_ATOM>  (531) 
atom 6   atom 7   

>  <FINAL_SINGLE_POINT_ENERGY>  (531) 
0

>  <NONCOV_INTER_ENERGY_QM>  (531) 
0

>  <FF_Energy>  (531) 
2.19

>  <QM_Energy>  (531) 
-5.19

>  <Index>  (531) 
37595

$$$$
ACET-pdb2bht-D-GLU-248:PRPA-pdb2bht-D-ARG-18
     RDKit          3D

 18 16  0  0  0  0  0  0  0  0999 V2000
   -0.0002    1.5160    0.0052 C   0  0  0  0  0  0  0  0  0  0  0  0
    0.7730    1.8153   -0.5283 H   0  0  0  0  0  0  0  0  0  0  0  0
    0.0687    1.8099    0.9443 H   0  0  0  0  0  0  0  0  0  0  0  0
   -0.9011    1.9529   -0.4256 H   0  0  0  0  0  0  0  0  0  0  0  0
    0.0000    0.0000    0.0000 C   0  0  0  0  0  0  0  0  0  0  0  0
   -1.0975   -0.5954    0.0000 O   0  0  0  0  0  1  0  0  0  0  0  0
    1.0975   -0.6010   -0.0000 O   0  0  0  0  0  0  0  0  0  0  0  0
    2.7506   -2.4478   -1.3537 C   0  0  0  0  0  0  0  0  0  0  0  0
    2.8434   -1.4689   -1.2238 H   0  0  0  0  0  0  0  0  0  0  0  0
    3.4806   -2.7971   -1.9268 H   0  0  0  0  0  0  0  0  0  0  0  0
    2.8190   -2.9303   -0.3787 H   0  0  0  0  0  0  0  0  0  0  0  0
    1.4278   -2.7083   -2.0637 C   0  0  0  0  0  0  0  0  0  0  0  0
    1.1692   -3.6609   -1.9429 H   0  0  0  0  0  0  0  0  0  0  0  0
    0.7282   -2.1090   -1.6891 H   0  0  0  0  0  0  0  0  0  0  0  0
    1.5467   -2.4304   -3.5520 C   0  0  0  0  0  0  0  0  0  0  0  0
    1.2417   -1.4944   -3.7187 H   0  0  0  0  0  0  0  0  0  0  0  0
    2.5081   -2.5222   -3.8083 H   0  0  0  0  0  0  0  0  0  0  0  0
    0.9486   -3.1142   -4.1542 H   0  0  0  0  0  0  0  0  0  0  0  0
  1  5  1  0
  5  6  1  0
  5  7  2  0
  1  2  1  0
  1  3  1  0
  1  4  1  0
  8 12  1  0
 12 15  1  0
  8  9  1  0
  8 10  1  0
  8 11  1  0
 12 13  1  0
 12 14  1  0
 15 16  1  0
 15 17  1  0
 15 18  1  0
M  CHG  1   6  -1
M  END
>  <PDB_ID>  (532) 
pdb2bht

>  <RESIDUE_NAME>  (532) 
GLU   ARG

>  <FRAG_NAME>  (532) 
ACET   PRPA

>  <FRAG_ATOM_NUM>  (532) 
fragi: 7  fragj: 11

>  <atom.prop.CHAIN_ID>  (532) 
A A A A A A A Z Z Z Z Z Z Z Z Z Z Z

>  <atom.prop.IS_HEAVY_ATOM>  (532) 
1 0 0 0 1 1 1 1 0 0 0 1 0 0 1 0 0 0

>  <DIFUSE_FUNC_ATOM>  (532) 
atom 6   atom 7   

>  <FINAL_SINGLE_POINT_ENERGY>  (532) 
0

>  <NONCOV_INTER_ENERGY_QM>  (532) 
0

>  <FF_Energy>  (532) 
4.72

>  <QM_Energy>  (532) 
-3.25

>  <Index>  (532) 
37614

$$$$
ACET-pdb1bll-E-GLU-12:PRPA-pdb1bll-E-GLN-19
     RDKit          3D

 18 16  0  0  0  0  0  0  0  0999 V2000
    0.0353    1.5459   -0.0351 C   0  0  0  0  0  0  0  0  0  0  0  0
    0.7682    1.8040   -0.6730 H   0  0  0  0  0  0  0  0  0  0  0  0
    0.2942    1.8501    0.8878 H   0  0  0  0  0  0  0  0  0  0  0  0
   -0.8608    2.0951   -0.3240 H   0  0  0  0  0  0  0  0  0  0  0  0
    0.0000    0.0000    0.0000 C   0  0  0  0  0  0  0  0  0  0  0  0
   -1.0695   -0.6155   -0.0000 O   0  0  0  0  0  1  0  0  0  0  0  0
    1.0695   -0.6211    0.0000 O   0  0  0  0  0  0  0  0  0  0  0  0
   -0.5795   -2.8615   -3.3366 C   0  0  0  0  0  0  0  0  0  0  0  0
   -1.1978   -2.6850   -4.1257 H   0  0  0  0  0  0  0  0  0  0  0  0
   -1.1728   -2.7945   -2.4246 H   0  0  0  0  0  0  0  0  0  0  0  0
   -0.1313   -3.8458   -3.4713 H   0  0  0  0  0  0  0  0  0  0  0  0
    0.5056   -1.7733   -3.3157 C   0  0  0  0  0  0  0  0  0  0  0  0
    1.0328   -1.8556   -2.4662 H   0  0  0  0  0  0  0  0  0  0  0  0
    1.1231   -1.9146   -4.0955 H   0  0  0  0  0  0  0  0  0  0  0  0
   -0.0177   -0.3177   -3.3972 C   0  0  0  0  0  0  0  0  0  0  0  0
   -0.6385   -0.1648   -2.5918 H   0  0  0  0  0  0  0  0  0  0  0  0
    0.7822    0.3092   -3.2426 H   0  0  0  0  0  0  0  0  0  0  0  0
   -0.5417    0.0266   -4.2888 H   0  0  0  0  0  0  0  0  0  0  0  0
  1  5  1  0
  5  6  1  0
  5  7  2  0
  1  2  1  0
  1  3  1  0
  1  4  1  0
  8 12  1  0
 12 15  1  0
  8  9  1  0
  8 10  1  0
  8 11  1  0
 12 13  1  0
 12 14  1  0
 15 16  1  0
 15 17  1  0
 15 18  1  0
M  CHG  1   6  -1
M  END
>  <PDB_ID>  (533) 
pdb1bll

>  <RESIDUE_NAME>  (533) 
GLU   GLN

>  <FRAG_NAME>  (533) 
ACET   PRPA

>  <FRAG_ATOM_NUM>  (533) 
fragi: 7  fragj: 11

>  <atom.prop.CHAIN_ID>  (533) 
A A A A A A A Z Z Z Z Z Z Z Z Z Z Z

>  <atom.prop.IS_HEAVY_ATOM>  (533) 
1 0 0 0 1 1 1 1 0 0 0 1 0 0 1 0 0 0

>  <DIFUSE_FUNC_ATOM>  (533) 
atom 6   atom 7   

>  <FINAL_SINGLE_POINT_ENERGY>  (533) 
0

>  <NONCOV_INTER_ENERGY_QM>  (533) 
0

>  <FF_Energy>  (533) 
7.84

>  <QM_Energy>  (533) 
-5.81

>  <Index>  (533) 
37726

$$$$
ACET-pdb1bk0-A-ASP-179:PRPA-pdb1bk0-A-LYS-176
     RDKit          3D

 18 16  0  0  0  0  0  0  0  0999 V2000
    0.0371    1.5013    0.0216 C   0  0  0  0  0  0  0  0  0  0  0  0
    0.0057    1.8433   -0.9091 H   0  0  0  0  0  0  0  0  0  0  0  0
    0.8645    1.8034    0.4789 H   0  0  0  0  0  0  0  0  0  0  0  0
   -0.8106    1.9277    0.5578 H   0  0  0  0  0  0  0  0  0  0  0  0
    0.0000    0.0000    0.0000 C   0  0  0  0  0  0  0  0  0  0  0  0
   -1.1003   -0.5888   -0.0000 O   0  0  0  0  0  1  0  0  0  0  0  0
    1.1003   -0.6026   -0.0000 O   0  0  0  0  0  0  0  0  0  0  0  0
   -1.4246   -4.2512    2.1084 C   0  0  0  0  0  0  0  0  0  0  0  0
   -1.4235   -4.9410    2.8619 H   0  0  0  0  0  0  0  0  0  0  0  0
   -2.1226   -4.5695    1.4337 H   0  0  0  0  0  0  0  0  0  0  0  0
   -1.7511   -3.2950    2.5171 H   0  0  0  0  0  0  0  0  0  0  0  0
   -0.0745   -4.2553    1.4474 C   0  0  0  0  0  0  0  0  0  0  0  0
    0.6386   -4.0891    2.1830 H   0  0  0  0  0  0  0  0  0  0  0  0
    0.1200   -5.2229    1.1275 H   0  0  0  0  0  0  0  0  0  0  0  0
    0.2031   -3.3301    0.3163 C   0  0  0  0  0  0  0  0  0  0  0  0
    0.2186   -2.3517    0.6871 H   0  0  0  0  0  0  0  0  0  0  0  0
    1.1930   -3.4729    0.0087 H   0  0  0  0  0  0  0  0  0  0  0  0
   -0.4303   -3.3448   -0.5706 H   0  0  0  0  0  0  0  0  0  0  0  0
  1  5  1  0
  5  6  1  0
  5  7  2  0
  1  2  1  0
  1  3  1  0
  1  4  1  0
  8 12  1  0
 12 15  1  0
  8  9  1  0
  8 10  1  0
  8 11  1  0
 12 13  1  0
 12 14  1  0
 15 16  1  0
 15 17  1  0
 15 18  1  0
M  CHG  1   6  -1
M  END
>  <PDB_ID>  (534) 
pdb1bk0

>  <RESIDUE_NAME>  (534) 
ASP   LYS

>  <FRAG_NAME>  (534) 
ACET   PRPA

>  <FRAG_ATOM_NUM>  (534) 
fragi: 7  fragj: 11

>  <atom.prop.CHAIN_ID>  (534) 
A A A A A A A Z Z Z Z Z Z Z Z Z Z Z

>  <atom.prop.IS_HEAVY_ATOM>  (534) 
1 0 0 0 1 1 1 1 0 0 0 1 0 0 1 0 0 0

>  <DIFUSE_FUNC_ATOM>  (534) 
atom 6   atom 7   

>  <FINAL_SINGLE_POINT_ENERGY>  (534) 
0

>  <NONCOV_INTER_ENERGY_QM>  (534) 
0

>  <FF_Energy>  (534) 
11.71

>  <QM_Energy>  (534) 
0.81

>  <Index>  (534) 
37727

$$$$
ACET-pdb2c5u-A-GLU-100:PRPA-pdb2c5u-A-ILE-177
     RDKit          3D

 18 16  0  0  0  0  0  0  0  0999 V2000
    0.0309    1.5222    0.0051 C   0  0  0  0  0  0  0  0  0  0  0  0
   -0.7239    1.8329   -0.5459 H   0  0  0  0  0  0  0  0  0  0  0  0
    0.8985    1.7989   -0.3692 H   0  0  0  0  0  0  0  0  0  0  0  0
   -0.0693    1.9510    1.0022 H   0  0  0  0  0  0  0  0  0  0  0  0
    0.0000    0.0000    0.0000 C   0  0  0  0  0  0  0  0  0  0  0  0
   -1.0967   -0.6119   -0.0000 O   0  0  0  0  0  1  0  0  0  0  0  0
    1.0967   -0.5826    0.0000 O   0  0  0  0  0  0  0  0  0  0  0  0
   -3.5668    2.6960   -2.3051 C   0  0  0  0  0  0  0  0  0  0  0  0
   -3.0598    3.2379   -1.6533 H   0  0  0  0  0  0  0  0  0  0  0  0
   -4.3034    3.3375   -2.7888 H   0  0  0  0  0  0  0  0  0  0  0  0
   -4.0655    1.8854   -1.7738 H   0  0  0  0  0  0  0  0  0  0  0  0
   -2.5813    2.1972   -3.3690 C   0  0  0  0  0  0  0  0  0  0  0  0
   -3.0695    1.5696   -3.9800 H   0  0  0  0  0  0  0  0  0  0  0  0
   -2.2827    2.9872   -3.9109 H   0  0  0  0  0  0  0  0  0  0  0  0
   -1.3552    1.4952   -2.8215 C   0  0  0  0  0  0  0  0  0  0  0  0
   -1.6404    0.6959   -2.2941 H   0  0  0  0  0  0  0  0  0  0  0  0
   -0.7737    1.2061   -3.5799 H   0  0  0  0  0  0  0  0  0  0  0  0
   -0.8507    2.1239   -2.2323 H   0  0  0  0  0  0  0  0  0  0  0  0
  1  5  1  0
  5  6  1  0
  5  7  2  0
  1  2  1  0
  1  3  1  0
  1  4  1  0
  8 12  1  0
 12 15  1  0
  8  9  1  0
  8 10  1  0
  8 11  1  0
 12 13  1  0
 12 14  1  0
 15 16  1  0
 15 17  1  0
 15 18  1  0
M  CHG  1   6  -1
M  END
>  <PDB_ID>  (535) 
pdb2c5u

>  <RESIDUE_NAME>  (535) 
GLU   ILE

>  <FRAG_NAME>  (535) 
ACET   PRPA

>  <FRAG_ATOM_NUM>  (535) 
fragi: 7  fragj: 11

>  <atom.prop.CHAIN_ID>  (535) 
A A A A A A A Z Z Z Z Z Z Z Z Z Z Z

>  <atom.prop.IS_HEAVY_ATOM>  (535) 
1 0 0 0 1 1 1 1 0 0 0 1 0 0 1 0 0 0

>  <DIFUSE_FUNC_ATOM>  (535) 
atom 6   atom 7   

>  <FINAL_SINGLE_POINT_ENERGY>  (535) 
0

>  <NONCOV_INTER_ENERGY_QM>  (535) 
0

>  <FF_Energy>  (535) 
2.48

>  <QM_Energy>  (535) 
1.11

>  <Index>  (535) 
37776

$$$$
ACET-pdb2c9p-B-GLU-11:PRPA-pdb2c9p-B-VAL-97
     RDKit          3D

 18 16  0  0  0  0  0  0  0  0999 V2000
    0.0080    1.5168   -0.0229 C   0  0  0  0  0  0  0  0  0  0  0  0
    0.2132    1.8022   -0.9422 H   0  0  0  0  0  0  0  0  0  0  0  0
    0.6892    1.8227    0.6186 H   0  0  0  0  0  0  0  0  0  0  0  0
   -0.9464    1.9601    0.2611 H   0  0  0  0  0  0  0  0  0  0  0  0
    0.0000    0.0000    0.0000 C   0  0  0  0  0  0  0  0  0  0  0  0
   -1.0931   -0.5957   -0.0000 O   0  0  0  0  0  1  0  0  0  0  0  0
    1.0931   -0.6016   -0.0000 O   0  0  0  0  0  0  0  0  0  0  0  0
   -3.2384   -2.9899   -0.1226 C   0  0  0  0  0  0  0  0  0  0  0  0
   -2.5359   -2.4228   -0.5481 H   0  0  0  0  0  0  0  0  0  0  0  0
   -3.4165   -3.8508   -0.7670 H   0  0  0  0  0  0  0  0  0  0  0  0
   -2.8559   -3.3390    0.8365 H   0  0  0  0  0  0  0  0  0  0  0  0
   -4.5226   -2.1751    0.1274 C   0  0  0  0  0  0  0  0  0  0  0  0
   -5.0640   -2.6613    0.8038 H   0  0  0  0  0  0  0  0  0  0  0  0
   -5.0930   -2.0554   -0.7937 H   0  0  0  0  0  0  0  0  0  0  0  0
   -4.1790   -0.8129    0.7308 C   0  0  0  0  0  0  0  0  0  0  0  0
   -4.9184   -0.1694    0.5379 H   0  0  0  0  0  0  0  0  0  0  0  0
   -4.0667   -0.9082    1.7185 H   0  0  0  0  0  0  0  0  0  0  0  0
   -3.3288   -0.4771    0.3272 H   0  0  0  0  0  0  0  0  0  0  0  0
  1  5  1  0
  5  6  1  0
  5  7  2  0
  1  2  1  0
  1  3  1  0
  1  4  1  0
  8 12  1  0
 12 15  1  0
  8  9  1  0
  8 10  1  0
  8 11  1  0
 12 13  1  0
 12 14  1  0
 15 16  1  0
 15 17  1  0
 15 18  1  0
M  CHG  1   6  -1
M  END
>  <PDB_ID>  (536) 
pdb2c9p

>  <RESIDUE_NAME>  (536) 
GLU   VAL

>  <FRAG_NAME>  (536) 
ACET   PRPA

>  <FRAG_ATOM_NUM>  (536) 
fragi: 7  fragj: 11

>  <atom.prop.CHAIN_ID>  (536) 
A A A A A A A Z Z Z Z Z Z Z Z Z Z Z

>  <atom.prop.IS_HEAVY_ATOM>  (536) 
1 0 0 0 1 1 1 1 0 0 0 1 0 0 1 0 0 0

>  <DIFUSE_FUNC_ATOM>  (536) 
atom 6   atom 7   

>  <FINAL_SINGLE_POINT_ENERGY>  (536) 
0

>  <NONCOV_INTER_ENERGY_QM>  (536) 
0

>  <FF_Energy>  (536) 
1.98

>  <QM_Energy>  (536) 
-4.27

>  <Index>  (536) 
37844

$$$$
ACET-pdb2bht-D-ASP-145:PRPA-pdb2bht-D-GLU-51
     RDKit          3D

 18 16  0  0  0  0  0  0  0  0999 V2000
   -0.0056    1.5181    0.0125 C   0  0  0  0  0  0  0  0  0  0  0  0
    0.6489    1.8441   -0.6565 H   0  0  0  0  0  0  0  0  0  0  0  0
    0.2334    1.8307    0.9218 H   0  0  0  0  0  0  0  0  0  0  0  0
   -0.9834    1.9274   -0.2415 H   0  0  0  0  0  0  0  0  0  0  0  0
    0.0000    0.0000    0.0000 C   0  0  0  0  0  0  0  0  0  0  0  0
   -1.0985   -0.5958   -0.0000 O   0  0  0  0  0  1  0  0  0  0  0  0
    1.0985   -0.5949    0.0000 O   0  0  0  0  0  0  0  0  0  0  0  0
    2.2038   -2.3734    3.5729 C   0  0  0  0  0  0  0  0  0  0  0  0
    1.6442   -2.9593    4.1627 H   0  0  0  0  0  0  0  0  0  0  0  0
    2.6843   -1.6002    4.1725 H   0  0  0  0  0  0  0  0  0  0  0  0
    2.9580   -2.9784    3.0697 H   0  0  0  0  0  0  0  0  0  0  0  0
    1.2600   -1.7571    2.5417 C   0  0  0  0  0  0  0  0  0  0  0  0
    1.6512   -0.8938    2.2555 H   0  0  0  0  0  0  0  0  0  0  0  0
    1.1906   -2.3878    1.7833 H   0  0  0  0  0  0  0  0  0  0  0  0
   -0.1480   -1.4799    3.0380 C   0  0  0  0  0  0  0  0  0  0  0  0
   -0.1007   -0.7754    3.7244 H   0  0  0  0  0  0  0  0  0  0  0  0
   -0.7001   -1.2096    2.2695 H   0  0  0  0  0  0  0  0  0  0  0  0
   -0.6203   -2.3511    3.4919 H   0  0  0  0  0  0  0  0  0  0  0  0
  1  5  1  0
  5  6  1  0
  5  7  2  0
  1  2  1  0
  1  3  1  0
  1  4  1  0
  8 12  1  0
 12 15  1  0
  8  9  1  0
  8 10  1  0
  8 11  1  0
 12 13  1  0
 12 14  1  0
 15 16  1  0
 15 17  1  0
 15 18  1  0
M  CHG  1   6  -1
M  END
>  <PDB_ID>  (537) 
pdb2bht

>  <RESIDUE_NAME>  (537) 
ASP   GLU

>  <FRAG_NAME>  (537) 
ACET   PRPA

>  <FRAG_ATOM_NUM>  (537) 
fragi: 7  fragj: 11

>  <atom.prop.CHAIN_ID>  (537) 
A A A A A A A Z Z Z Z Z Z Z Z Z Z Z

>  <atom.prop.IS_HEAVY_ATOM>  (537) 
1 0 0 0 1 1 1 1 0 0 0 1 0 0 1 0 0 0

>  <DIFUSE_FUNC_ATOM>  (537) 
atom 6   atom 7   

>  <FINAL_SINGLE_POINT_ENERGY>  (537) 
0

>  <NONCOV_INTER_ENERGY_QM>  (537) 
0

>  <FF_Energy>  (537) 
4.22

>  <QM_Energy>  (537) 
-2.66

>  <Index>  (537) 
38058

$$$$
ACET-pdb2bht-D-ASP-62:PRPA-pdb2bht-D-LYS-59
     RDKit          3D

 18 16  0  0  0  0  0  0  0  0999 V2000
    0.0087    1.5142    0.0025 C   0  0  0  0  0  0  0  0  0  0  0  0
    0.1228    1.8360   -0.9299 H   0  0  0  0  0  0  0  0  0  0  0  0
    0.7563    1.8304    0.5741 H   0  0  0  0  0  0  0  0  0  0  0  0
   -0.9158    1.9392    0.3933 H   0  0  0  0  0  0  0  0  0  0  0  0
    0.0000    0.0000    0.0000 C   0  0  0  0  0  0  0  0  0  0  0  0
   -1.0959   -0.5963   -0.0000 O   0  0  0  0  0  1  0  0  0  0  0  0
    1.0959   -0.6016   -0.0000 O   0  0  0  0  0  0  0  0  0  0  0  0
   -0.4455   -0.9152   -3.4593 C   0  0  0  0  0  0  0  0  0  0  0  0
   -0.4689   -1.3573   -4.3648 H   0  0  0  0  0  0  0  0  0  0  0  0
    0.5892   -0.6870   -3.2035 H   0  0  0  0  0  0  0  0  0  0  0  0
   -1.0503   -0.0094   -3.5006 H   0  0  0  0  0  0  0  0  0  0  0  0
   -1.0523   -1.9074   -2.4692 C   0  0  0  0  0  0  0  0  0  0  0  0
   -0.4982   -2.7376   -2.4778 H   0  0  0  0  0  0  0  0  0  0  0  0
   -1.0268   -1.4962   -1.5586 H   0  0  0  0  0  0  0  0  0  0  0  0
   -2.4931   -2.2934   -2.7785 C   0  0  0  0  0  0  0  0  0  0  0  0
   -3.0039   -1.4701   -3.0287 H   0  0  0  0  0  0  0  0  0  0  0  0
   -2.5010   -2.9365   -3.5437 H   0  0  0  0  0  0  0  0  0  0  0  0
   -2.9751   -2.7599   -1.9194 H   0  0  0  0  0  0  0  0  0  0  0  0
  1  5  1  0
  5  6  1  0
  5  7  2  0
  1  2  1  0
  1  3  1  0
  1  4  1  0
  8 12  1  0
 12 15  1  0
  8  9  1  0
  8 10  1  0
  8 11  1  0
 12 13  1  0
 12 14  1  0
 15 16  1  0
 15 17  1  0
 15 18  1  0
M  CHG  1   6  -1
M  END
>  <PDB_ID>  (538) 
pdb2bht

>  <RESIDUE_NAME>  (538) 
ASP   LYS

>  <FRAG_NAME>  (538) 
ACET   PRPA

>  <FRAG_ATOM_NUM>  (538) 
fragi: 7  fragj: 11

>  <atom.prop.CHAIN_ID>  (538) 
A A A A A A A Z Z Z Z Z Z Z Z Z Z Z

>  <atom.prop.IS_HEAVY_ATOM>  (538) 
1 0 0 0 1 1 1 1 0 0 0 1 0 0 1 0 0 0

>  <DIFUSE_FUNC_ATOM>  (538) 
atom 6   atom 7   

>  <FINAL_SINGLE_POINT_ENERGY>  (538) 
0

>  <NONCOV_INTER_ENERGY_QM>  (538) 
0

>  <FF_Energy>  (538) 
5.09

>  <QM_Energy>  (538) 
-0.52

>  <Index>  (538) 
38172

$$$$
ACET-pdb2bht-D-ASP-62:PRPA-pdb2bht-D-LYS-59
     RDKit          3D

 18 16  0  0  0  0  0  0  0  0999 V2000
    0.0087    1.5142    0.0025 C   0  0  0  0  0  0  0  0  0  0  0  0
    0.1228    1.8360   -0.9299 H   0  0  0  0  0  0  0  0  0  0  0  0
    0.7563    1.8304    0.5741 H   0  0  0  0  0  0  0  0  0  0  0  0
   -0.9158    1.9392    0.3933 H   0  0  0  0  0  0  0  0  0  0  0  0
    0.0000    0.0000    0.0000 C   0  0  0  0  0  0  0  0  0  0  0  0
   -1.0959   -0.5963   -0.0000 O   0  0  0  0  0  1  0  0  0  0  0  0
    1.0959   -0.6016   -0.0000 O   0  0  0  0  0  0  0  0  0  0  0  0
   -1.0523   -1.9074   -2.4692 C   0  0  0  0  0  0  0  0  0  0  0  0
   -0.4982   -2.7376   -2.4778 H   0  0  0  0  0  0  0  0  0  0  0  0
   -1.0268   -1.4962   -1.5586 H   0  0  0  0  0  0  0  0  0  0  0  0
   -0.6193   -1.1993   -3.1758 H   0  0  0  0  0  0  0  0  0  0  0  0
   -2.4931   -2.2934   -2.7785 C   0  0  0  0  0  0  0  0  0  0  0  0
   -3.0039   -1.4701   -3.0287 H   0  0  0  0  0  0  0  0  0  0  0  0
   -2.5010   -2.9365   -3.5437 H   0  0  0  0  0  0  0  0  0  0  0  0
   -3.1656   -2.9443   -1.5800 C   0  0  0  0  0  0  0  0  0  0  0  0
   -3.5512   -3.8161   -1.8618 H   0  0  0  0  0  0  0  0  0  0  0  0
   -2.4890   -3.0780   -0.8635 H   0  0  0  0  0  0  0  0  0  0  0  0
   -3.9683   -2.3196   -1.1880 H   0  0  0  0  0  0  0  0  0  0  0  0
  1  5  1  0
  5  6  1  0
  5  7  2  0
  1  2  1  0
  1  3  1  0
  1  4  1  0
  8 12  1  0
 12 15  1  0
  8  9  1  0
  8 10  1  0
  8 11  1  0
 12 13  1  0
 12 14  1  0
 15 16  1  0
 15 17  1  0
 15 18  1  0
M  CHG  1   6  -1
M  END
>  <PDB_ID>  (539) 
pdb2bht

>  <RESIDUE_NAME>  (539) 
ASP   LYS

>  <FRAG_NAME>  (539) 
ACET   PRPA

>  <FRAG_ATOM_NUM>  (539) 
fragi: 7  fragj: 11

>  <atom.prop.CHAIN_ID>  (539) 
A A A A A A A Z Z Z Z Z Z Z Z Z Z Z

>  <atom.prop.IS_HEAVY_ATOM>  (539) 
1 0 0 0 1 1 1 1 0 0 0 1 0 0 1 0 0 0

>  <DIFUSE_FUNC_ATOM>  (539) 
atom 6   atom 7   

>  <FINAL_SINGLE_POINT_ENERGY>  (539) 
0

>  <NONCOV_INTER_ENERGY_QM>  (539) 
0

>  <FF_Energy>  (539) 
47.58

>  <QM_Energy>  (539) 
-0.13

>  <Index>  (539) 
38173

$$$$
ACET-pdb2bht-D-GLU-53:PRPA-pdb2bht-D-PRO-60
     RDKit          3D

 18 16  0  0  0  0  0  0  0  0999 V2000
   -0.0098    1.5186   -0.0076 C   0  0  0  0  0  0  0  0  0  0  0  0
    0.1378    1.8112   -0.9319 H   0  0  0  0  0  0  0  0  0  0  0  0
    0.6967    1.8218    0.6017 H   0  0  0  0  0  0  0  0  0  0  0  0
   -0.9608    1.9269    0.3345 H   0  0  0  0  0  0  0  0  0  0  0  0
    0.0000    0.0000    0.0000 C   0  0  0  0  0  0  0  0  0  0  0  0
   -1.0991   -0.5991    0.0000 O   0  0  0  0  0  1  0  0  0  0  0  0
    1.0991   -0.5914   -0.0000 O   0  0  0  0  0  0  0  0  0  0  0  0
    3.5290   -0.3797   -2.0688 C   0  0  0  0  0  0  0  0  0  0  0  0
    4.1659   -0.5130   -2.8340 H   0  0  0  0  0  0  0  0  0  0  0  0
    2.9923   -1.2185   -1.9440 H   0  0  0  0  0  0  0  0  0  0  0  0
    4.0712   -0.1301   -1.1568 H   0  0  0  0  0  0  0  0  0  0  0  0
    2.6400    0.7929   -2.3112 C   0  0  0  0  0  0  0  0  0  0  0  0
    2.4286    0.8795   -3.2911 H   0  0  0  0  0  0  0  0  0  0  0  0
    1.7750    0.6910   -1.8074 H   0  0  0  0  0  0  0  0  0  0  0  0
    3.4053    1.9924   -1.8215 C   0  0  0  0  0  0  0  0  0  0  0  0
    3.9800    2.3785   -2.5403 H   0  0  0  0  0  0  0  0  0  0  0  0
    2.7938    2.6961   -1.4639 H   0  0  0  0  0  0  0  0  0  0  0  0
    4.0187    1.5763   -1.0223 H   0  0  0  0  0  0  0  0  0  0  0  0
  1  5  1  0
  5  6  1  0
  5  7  2  0
  1  2  1  0
  1  3  1  0
  1  4  1  0
  8 12  1  0
 12 15  1  0
  8  9  1  0
  8 10  1  0
  8 11  1  0
 12 13  1  0
 12 14  1  0
 15 16  1  0
 15 17  1  0
 15 18  1  0
M  CHG  1   6  -1
M  END
>  <PDB_ID>  (540) 
pdb2bht

>  <RESIDUE_NAME>  (540) 
GLU   PRO

>  <FRAG_NAME>  (540) 
ACET   PRPA

>  <FRAG_ATOM_NUM>  (540) 
fragi: 7  fragj: 11

>  <atom.prop.CHAIN_ID>  (540) 
A A A A A A A Z Z Z Z Z Z Z Z Z Z Z

>  <atom.prop.IS_HEAVY_ATOM>  (540) 
1 0 0 0 1 1 1 1 0 0 0 1 0 0 1 0 0 0

>  <DIFUSE_FUNC_ATOM>  (540) 
atom 6   atom 7   

>  <FINAL_SINGLE_POINT_ENERGY>  (540) 
0

>  <NONCOV_INTER_ENERGY_QM>  (540) 
0

>  <FF_Energy>  (540) 
2.46

>  <QM_Energy>  (540) 
-3.58

>  <Index>  (540) 
38193

$$$$
ACET-pdb2c83-A-GLU-165:PRPA-pdb2c83-A-VAL-188
     RDKit          3D

 18 16  0  0  0  0  0  0  0  0999 V2000
   -0.0300    1.5028   -0.0260 C   0  0  0  0  0  0  0  0  0  0  0  0
    0.8703    1.8176   -0.2282 H   0  0  0  0  0  0  0  0  0  0  0  0
   -0.3689    1.8105    0.8350 H   0  0  0  0  0  0  0  0  0  0  0  0
   -0.7036    1.8490   -0.8100 H   0  0  0  0  0  0  0  0  0  0  0  0
    0.0000    0.0000    0.0000 C   0  0  0  0  0  0  0  0  0  0  0  0
   -1.0931   -0.5967   -0.0000 O   0  0  0  0  0  1  0  0  0  0  0  0
    1.0931   -0.5951   -0.0000 O   0  0  0  0  0  0  0  0  0  0  0  0
    4.5749    3.8766    0.9399 C   0  0  0  0  0  0  0  0  0  0  0  0
    4.6371    2.9449    1.3525 H   0  0  0  0  0  0  0  0  0  0  0  0
    5.1308    4.5664    1.5748 H   0  0  0  0  0  0  0  0  0  0  0  0
    4.9448    3.8044   -0.0828 H   0  0  0  0  0  0  0  0  0  0  0  0
    3.0662    4.2944    0.9315 C   0  0  0  0  0  0  0  0  0  0  0  0
    3.0364    5.2112    0.5485 H   0  0  0  0  0  0  0  0  0  0  0  0
    2.6283    4.1987    1.9251 H   0  0  0  0  0  0  0  0  0  0  0  0
    2.3263    3.3886    0.0615 C   0  0  0  0  0  0  0  0  0  0  0  0
    1.4517    3.7988   -0.2356 H   0  0  0  0  0  0  0  0  0  0  0  0
    2.8569    3.1637   -0.7693 H   0  0  0  0  0  0  0  0  0  0  0  0
    2.1129    2.5202    0.5340 H   0  0  0  0  0  0  0  0  0  0  0  0
  1  5  1  0
  5  6  1  0
  5  7  2  0
  1  2  1  0
  1  3  1  0
  1  4  1  0
  8 12  1  0
 12 15  1  0
  8  9  1  0
  8 10  1  0
  8 11  1  0
 12 13  1  0
 12 14  1  0
 15 16  1  0
 15 17  1  0
 15 18  1  0
M  CHG  1   6  -1
M  END
>  <PDB_ID>  (541) 
pdb2c83

>  <RESIDUE_NAME>  (541) 
GLU   VAL

>  <FRAG_NAME>  (541) 
ACET   PRPA

>  <FRAG_ATOM_NUM>  (541) 
fragi: 7  fragj: 11

>  <atom.prop.CHAIN_ID>  (541) 
A A A A A A A Z Z Z Z Z Z Z Z Z Z Z

>  <atom.prop.IS_HEAVY_ATOM>  (541) 
1 0 0 0 1 1 1 1 0 0 0 1 0 0 1 0 0 0

>  <DIFUSE_FUNC_ATOM>  (541) 
atom 6   atom 7   

>  <FINAL_SINGLE_POINT_ENERGY>  (541) 
0

>  <NONCOV_INTER_ENERGY_QM>  (541) 
0

>  <FF_Energy>  (541) 
30.67

>  <QM_Energy>  (541) 
5.43

>  <Index>  (541) 
38214

$$$$
ACET-pdb2c83-A-GLU-165:PRPA-pdb2c83-A-VAL-188
     RDKit          3D

 18 16  0  0  0  0  0  0  0  0999 V2000
   -0.0300    1.5028   -0.0260 C   0  0  0  0  0  0  0  0  0  0  0  0
    0.8703    1.8176   -0.2282 H   0  0  0  0  0  0  0  0  0  0  0  0
   -0.3689    1.8105    0.8350 H   0  0  0  0  0  0  0  0  0  0  0  0
   -0.7036    1.8490   -0.8100 H   0  0  0  0  0  0  0  0  0  0  0  0
    0.0000    0.0000    0.0000 C   0  0  0  0  0  0  0  0  0  0  0  0
   -1.0931   -0.5967   -0.0000 O   0  0  0  0  0  1  0  0  0  0  0  0
    1.0931   -0.5951   -0.0000 O   0  0  0  0  0  0  0  0  0  0  0  0
    2.3263    3.3886    0.0615 C   0  0  0  0  0  0  0  0  0  0  0  0
    1.4517    3.7988   -0.2356 H   0  0  0  0  0  0  0  0  0  0  0  0
    2.8569    3.1637   -0.7693 H   0  0  0  0  0  0  0  0  0  0  0  0
    2.1129    2.5202    0.5340 H   0  0  0  0  0  0  0  0  0  0  0  0
    3.0662    4.2944    0.9315 C   0  0  0  0  0  0  0  0  0  0  0  0
    3.0364    5.2112    0.5485 H   0  0  0  0  0  0  0  0  0  0  0  0
    4.1166    4.0035    0.9374 H   0  0  0  0  0  0  0  0  0  0  0  0
    2.4472    4.1592    2.3363 C   0  0  0  0  0  0  0  0  0  0  0  0
    2.2805    3.1942    2.5217 H   0  0  0  0  0  0  0  0  0  0  0  0
    3.0847    4.5326    3.0049 H   0  0  0  0  0  0  0  0  0  0  0  0
    1.5896    4.6660    2.3587 H   0  0  0  0  0  0  0  0  0  0  0  0
  1  5  1  0
  5  6  1  0
  5  7  2  0
  1  2  1  0
  1  3  1  0
  1  4  1  0
  8 12  1  0
 12 15  1  0
  8  9  1  0
  8 10  1  0
  8 11  1  0
 12 13  1  0
 12 14  1  0
 15 16  1  0
 15 17  1  0
 15 18  1  0
M  CHG  1   6  -1
M  END
>  <PDB_ID>  (542) 
pdb2c83

>  <RESIDUE_NAME>  (542) 
GLU   VAL

>  <FRAG_NAME>  (542) 
ACET   PRPA

>  <FRAG_ATOM_NUM>  (542) 
fragi: 7  fragj: 11

>  <atom.prop.CHAIN_ID>  (542) 
A A A A A A A Z Z Z Z Z Z Z Z Z Z Z

>  <atom.prop.IS_HEAVY_ATOM>  (542) 
1 0 0 0 1 1 1 1 0 0 0 1 0 0 1 0 0 0

>  <DIFUSE_FUNC_ATOM>  (542) 
atom 6   atom 7   

>  <FINAL_SINGLE_POINT_ENERGY>  (542) 
0

>  <NONCOV_INTER_ENERGY_QM>  (542) 
0

>  <FF_Energy>  (542) 
30.5

>  <QM_Energy>  (542) 
5.37

>  <Index>  (542) 
38224

$$$$
ACET-pdb1bol-A-ASP-64:PRPA-pdb1bol-A-ARG-67
     RDKit          3D

 18 16  0  0  0  0  0  0  0  0999 V2000
    0.0303    1.5236    0.0420 C   0  0  0  0  0  0  0  0  0  0  0  0
    0.8695    1.8344   -0.4025 H   0  0  0  0  0  0  0  0  0  0  0  0
    0.0307    1.8121    0.9981 H   0  0  0  0  0  0  0  0  0  0  0  0
   -0.8138    2.0002   -0.4565 H   0  0  0  0  0  0  0  0  0  0  0  0
    0.0000    0.0000    0.0000 C   0  0  0  0  0  0  0  0  0  0  0  0
   -1.0809   -0.6049   -0.0000 O   0  0  0  0  0  1  0  0  0  0  0  0
    1.0809   -0.5905   -0.0000 O   0  0  0  0  0  0  0  0  0  0  0  0
   -0.2212    0.2213    3.6811 C   0  0  0  0  0  0  0  0  0  0  0  0
   -0.2384    0.5547    2.7741 H   0  0  0  0  0  0  0  0  0  0  0  0
    0.2642    0.7673    4.3130 H   0  0  0  0  0  0  0  0  0  0  0  0
   -1.2400    0.0646    4.0356 H   0  0  0  0  0  0  0  0  0  0  0  0
    0.3898   -1.1465    3.6713 C   0  0  0  0  0  0  0  0  0  0  0  0
    0.6077   -1.4269    4.5968 H   0  0  0  0  0  0  0  0  0  0  0  0
   -0.2309   -1.7914    3.2439 H   0  0  0  0  0  0  0  0  0  0  0  0
    1.6664   -1.1187    2.8714 C   0  0  0  0  0  0  0  0  0  0  0  0
    1.9082   -2.0617    2.6376 H   0  0  0  0  0  0  0  0  0  0  0  0
    1.4954   -0.6022    2.0313 H   0  0  0  0  0  0  0  0  0  0  0  0
    2.4881   -0.6585    3.4202 H   0  0  0  0  0  0  0  0  0  0  0  0
  1  5  1  0
  5  6  1  0
  5  7  2  0
  1  2  1  0
  1  3  1  0
  1  4  1  0
  8 12  1  0
 12 15  1  0
  8  9  1  0
  8 10  1  0
  8 11  1  0
 12 13  1  0
 12 14  1  0
 15 16  1  0
 15 17  1  0
 15 18  1  0
M  CHG  1   6  -1
M  END
>  <PDB_ID>  (543) 
pdb1bol

>  <RESIDUE_NAME>  (543) 
ASP   ARG

>  <FRAG_NAME>  (543) 
ACET   PRPA

>  <FRAG_ATOM_NUM>  (543) 
fragi: 7  fragj: 11

>  <atom.prop.CHAIN_ID>  (543) 
A A A A A A A Z Z Z Z Z Z Z Z Z Z Z

>  <atom.prop.IS_HEAVY_ATOM>  (543) 
1 0 0 0 1 1 1 1 0 0 0 1 0 0 1 0 0 0

>  <DIFUSE_FUNC_ATOM>  (543) 
atom 6   atom 7   

>  <FINAL_SINGLE_POINT_ENERGY>  (543) 
0

>  <NONCOV_INTER_ENERGY_QM>  (543) 
0

>  <FF_Energy>  (543) 
48.29

>  <QM_Energy>  (543) 
-3.07

>  <Index>  (543) 
38255

$$$$
ACET-pdb1bgx-T-ASP-488:PRPA-pdb1bgx-L-LYN-39
     RDKit          3D

 18 16  0  0  0  0  0  0  0  0999 V2000
    0.0397    1.5158   -0.0192 C   0  0  0  0  0  0  0  0  0  0  0  0
    0.5321    1.8122   -0.8366 H   0  0  0  0  0  0  0  0  0  0  0  0
    0.5218    1.8341    0.7955 H   0  0  0  0  0  0  0  0  0  0  0  0
   -0.9437    1.9859   -0.0319 H   0  0  0  0  0  0  0  0  0  0  0  0
    0.0000    0.0000    0.0000 C   0  0  0  0  0  0  0  0  0  0  0  0
   -1.0951   -0.5987   -0.0000 O   0  0  0  0  0  1  0  0  0  0  0  0
    1.0951   -0.5860    0.0000 O   0  0  0  0  0  0  0  0  0  0  0  0
    4.2007   -2.5375   -1.7821 C   0  0  0  0  0  0  0  0  0  0  0  0
    5.1299   -2.2157   -1.9725 H   0  0  0  0  0  0  0  0  0  0  0  0
    3.7509   -2.8812   -2.7136 H   0  0  0  0  0  0  0  0  0  0  0  0
    4.2517   -3.3603   -1.0691 H   0  0  0  0  0  0  0  0  0  0  0  0
    3.3758   -1.3961   -1.1723 C   0  0  0  0  0  0  0  0  0  0  0  0
    3.2751   -0.6818   -1.8642 H   0  0  0  0  0  0  0  0  0  0  0  0
    2.4748   -1.7591   -0.9349 H   0  0  0  0  0  0  0  0  0  0  0  0
    3.9856   -0.7714    0.0744 C   0  0  0  0  0  0  0  0  0  0  0  0
    4.0862   -1.4779    0.7764 H   0  0  0  0  0  0  0  0  0  0  0  0
    4.8865   -0.4011   -0.1543 H   0  0  0  0  0  0  0  0  0  0  0  0
    3.3621    0.0312    0.4684 H   0  0  0  0  0  0  0  0  0  0  0  0
  1  5  1  0
  5  6  1  0
  5  7  2  0
  1  2  1  0
  1  3  1  0
  1  4  1  0
  8 12  1  0
 12 15  1  0
  8  9  1  0
  8 10  1  0
  8 11  1  0
 12 13  1  0
 12 14  1  0
 15 16  1  0
 15 17  1  0
 15 18  1  0
M  CHG  1   6  -1
M  END
>  <PDB_ID>  (544) 
pdb1bgx

>  <RESIDUE_NAME>  (544) 
ASP   LYN

>  <FRAG_NAME>  (544) 
ACET   PRPA

>  <FRAG_ATOM_NUM>  (544) 
fragi: 7  fragj: 11

>  <atom.prop.CHAIN_ID>  (544) 
A A A A A A A Z Z Z Z Z Z Z Z Z Z Z

>  <atom.prop.IS_HEAVY_ATOM>  (544) 
1 0 0 0 1 1 1 1 0 0 0 1 0 0 1 0 0 0

>  <DIFUSE_FUNC_ATOM>  (544) 
atom 6   atom 7   

>  <FINAL_SINGLE_POINT_ENERGY>  (544) 
0

>  <NONCOV_INTER_ENERGY_QM>  (544) 
0

>  <FF_Energy>  (544) 
1.63

>  <QM_Energy>  (544) 
-0.28

>  <Index>  (544) 
38301

$$$$
ACET-pdb2b43-D-GLU-296:PRPA-pdb2b43-D-ARG-74
     RDKit          3D

 18 16  0  0  0  0  0  0  0  0999 V2000
    0.0152    1.5444    0.0156 C   0  0  0  0  0  0  0  0  0  0  0  0
    0.6192    1.8409   -0.6956 H   0  0  0  0  0  0  0  0  0  0  0  0
    0.3044    1.8268    0.9065 H   0  0  0  0  0  0  0  0  0  0  0  0
   -0.9616    1.9899   -0.1733 H   0  0  0  0  0  0  0  0  0  0  0  0
    0.0000    0.0000    0.0000 C   0  0  0  0  0  0  0  0  0  0  0  0
   -1.0810   -0.6343   -0.0000 O   0  0  0  0  0  1  0  0  0  0  0  0
    1.0810   -0.5968   -0.0000 O   0  0  0  0  0  0  0  0  0  0  0  0
    0.3178    0.2716    4.9792 C   0  0  0  0  0  0  0  0  0  0  0  0
    0.9195    0.8093    4.4062 H   0  0  0  0  0  0  0  0  0  0  0  0
    0.8106   -0.4647    5.4207 H   0  0  0  0  0  0  0  0  0  0  0  0
   -0.0976    0.9210    5.7499 H   0  0  0  0  0  0  0  0  0  0  0  0
   -0.7551   -0.3320    4.1061 C   0  0  0  0  0  0  0  0  0  0  0  0
   -0.4154   -1.2013    3.7044 H   0  0  0  0  0  0  0  0  0  0  0  0
   -1.5638   -0.5646    4.6755 H   0  0  0  0  0  0  0  0  0  0  0  0
   -1.2471    0.5422    2.9537 C   0  0  0  0  0  0  0  0  0  0  0  0
   -0.5001    0.5917    2.2643 H   0  0  0  0  0  0  0  0  0  0  0  0
   -2.0228    0.0543    2.5084 H   0  0  0  0  0  0  0  0  0  0  0  0
   -1.5665    1.5567    3.1918 H   0  0  0  0  0  0  0  0  0  0  0  0
  1  5  1  0
  5  6  1  0
  5  7  2  0
  1  2  1  0
  1  3  1  0
  1  4  1  0
  8 12  1  0
 12 15  1  0
  8  9  1  0
  8 10  1  0
  8 11  1  0
 12 13  1  0
 12 14  1  0
 15 16  1  0
 15 17  1  0
 15 18  1  0
M  CHG  1   6  -1
M  END
>  <PDB_ID>  (545) 
pdb2b43

>  <RESIDUE_NAME>  (545) 
GLU   ARG

>  <FRAG_NAME>  (545) 
ACET   PRPA

>  <FRAG_ATOM_NUM>  (545) 
fragi: 7  fragj: 11

>  <atom.prop.CHAIN_ID>  (545) 
A A A A A A A Z Z Z Z Z Z Z Z Z Z Z

>  <atom.prop.IS_HEAVY_ATOM>  (545) 
1 0 0 0 1 1 1 1 0 0 0 1 0 0 1 0 0 0

>  <DIFUSE_FUNC_ATOM>  (545) 
atom 6   atom 7   

>  <FINAL_SINGLE_POINT_ENERGY>  (545) 
0

>  <NONCOV_INTER_ENERGY_QM>  (545) 
0

>  <FF_Energy>  (545) 
6.29

>  <QM_Energy>  (545) 
-1.46

>  <Index>  (545) 
38343

$$$$
ACET-pdb1bm3-H-ASP-73:PRPA-pdb1bm3-H-LYS-76
     RDKit          3D

 18 16  0  0  0  0  0  0  0  0999 V2000
    0.1984    1.4915   -0.0319 C   0  0  0  0  0  0  0  0  0  0  0  0
    0.5178    1.7377   -0.9969 H   0  0  0  0  0  0  0  0  0  0  0  0
    1.0423    1.7011    0.5492 H   0  0  0  0  0  0  0  0  0  0  0  0
   -0.5792    2.2023    0.2479 H   0  0  0  0  0  0  0  0  0  0  0  0
    0.0000    0.0000    0.0000 C   0  0  0  0  0  0  0  0  0  0  0  0
   -1.0447   -0.6325    0.0000 O   0  0  0  0  0  1  0  0  0  0  0  0
    1.0447   -0.6896    0.0000 O   0  0  0  0  0  0  0  0  0  0  0  0
    2.5275   -1.3887    2.6859 C   0  0  0  0  0  0  0  0  0  0  0  0
    2.4400   -0.5706    2.0684 H   0  0  0  0  0  0  0  0  0  0  0  0
    3.5115   -1.3904    2.9868 H   0  0  0  0  0  0  0  0  0  0  0  0
    1.9153   -1.2014    3.5680 H   0  0  0  0  0  0  0  0  0  0  0  0
    2.3107   -2.6334    1.8266 C   0  0  0  0  0  0  0  0  0  0  0  0
    2.2553   -3.4221    2.4108 H   0  0  0  0  0  0  0  0  0  0  0  0
    1.5003   -2.5136    1.2841 H   0  0  0  0  0  0  0  0  0  0  0  0
    3.5146   -2.7697    0.9110 C   0  0  0  0  0  0  0  0  0  0  0  0
    3.9938   -1.8635    0.8757 H   0  0  0  0  0  0  0  0  0  0  0  0
    4.1784   -3.4162    1.3492 H   0  0  0  0  0  0  0  0  0  0  0  0
    3.3491   -3.1021   -0.1138 H   0  0  0  0  0  0  0  0  0  0  0  0
  1  5  1  0
  5  6  1  0
  5  7  2  0
  1  2  1  0
  1  3  1  0
  1  4  1  0
  8 12  1  0
 12 15  1  0
  8  9  1  0
  8 10  1  0
  8 11  1  0
 12 13  1  0
 12 14  1  0
 15 16  1  0
 15 17  1  0
 15 18  1  0
M  CHG  1   6  -1
M  END
>  <PDB_ID>  (546) 
pdb1bm3

>  <RESIDUE_NAME>  (546) 
ASP   LYS

>  <FRAG_NAME>  (546) 
ACET   PRPA

>  <FRAG_ATOM_NUM>  (546) 
fragi: 7  fragj: 11

>  <atom.prop.CHAIN_ID>  (546) 
A A A A A A A Z Z Z Z Z Z Z Z Z Z Z

>  <atom.prop.IS_HEAVY_ATOM>  (546) 
1 0 0 0 1 1 1 1 0 0 0 1 0 0 1 0 0 0

>  <DIFUSE_FUNC_ATOM>  (546) 
atom 6   atom 7   

>  <FINAL_SINGLE_POINT_ENERGY>  (546) 
0

>  <NONCOV_INTER_ENERGY_QM>  (546) 
0

>  <FF_Energy>  (546) 
2.68

>  <QM_Energy>  (546) 
-4.64

>  <Index>  (546) 
38377

$$$$
ACET-pdb2bht-D-GLU-5:PRPA-pdb2bht-D-LEU-82
     RDKit          3D

 18 16  0  0  0  0  0  0  0  0999 V2000
    0.0046    1.5146   -0.0136 C   0  0  0  0  0  0  0  0  0  0  0  0
    0.4060    1.8044   -0.8636 H   0  0  0  0  0  0  0  0  0  0  0  0
    0.5244    1.8185    0.7641 H   0  0  0  0  0  0  0  0  0  0  0  0
   -0.9954    1.9431    0.0547 H   0  0  0  0  0  0  0  0  0  0  0  0
    0.0000    0.0000    0.0000 C   0  0  0  0  0  0  0  0  0  0  0  0
   -1.0977   -0.5944    0.0000 O   0  0  0  0  0  1  0  0  0  0  0  0
    1.0977   -0.5974   -0.0000 O   0  0  0  0  0  0  0  0  0  0  0  0
    4.2112   -1.7672    2.0970 C   0  0  0  0  0  0  0  0  0  0  0  0
    3.8612   -2.2288    2.9197 H   0  0  0  0  0  0  0  0  0  0  0  0
    5.2190   -1.4060    2.3018 H   0  0  0  0  0  0  0  0  0  0  0  0
    4.2117   -2.4842    1.2761 H   0  0  0  0  0  0  0  0  0  0  0  0
    3.2903   -0.5980    1.7345 C   0  0  0  0  0  0  0  0  0  0  0  0
    3.8076    0.0280    1.1547 H   0  0  0  0  0  0  0  0  0  0  0  0
    2.5141   -0.9667    1.2296 H   0  0  0  0  0  0  0  0  0  0  0  0
    2.7323    0.2169    2.9009 C   0  0  0  0  0  0  0  0  0  0  0  0
    1.9130    0.7016    2.5975 H   0  0  0  0  0  0  0  0  0  0  0  0
    2.4770   -0.4379    3.7340 H   0  0  0  0  0  0  0  0  0  0  0  0
    3.4504    0.9771    3.2083 H   0  0  0  0  0  0  0  0  0  0  0  0
  1  5  1  0
  5  6  1  0
  5  7  2  0
  1  2  1  0
  1  3  1  0
  1  4  1  0
  8 12  1  0
 12 15  1  0
  8  9  1  0
  8 10  1  0
  8 11  1  0
 12 13  1  0
 12 14  1  0
 15 16  1  0
 15 17  1  0
 15 18  1  0
M  CHG  1   6  -1
M  END
>  <PDB_ID>  (547) 
pdb2bht

>  <RESIDUE_NAME>  (547) 
GLU   LEU

>  <FRAG_NAME>  (547) 
ACET   PRPA

>  <FRAG_ATOM_NUM>  (547) 
fragi: 7  fragj: 11

>  <atom.prop.CHAIN_ID>  (547) 
A A A A A A A Z Z Z Z Z Z Z Z Z Z Z

>  <atom.prop.IS_HEAVY_ATOM>  (547) 
1 0 0 0 1 1 1 1 0 0 0 1 0 0 1 0 0 0

>  <DIFUSE_FUNC_ATOM>  (547) 
atom 6   atom 7   

>  <FINAL_SINGLE_POINT_ENERGY>  (547) 
0

>  <NONCOV_INTER_ENERGY_QM>  (547) 
0

>  <FF_Energy>  (547) 
20.14

>  <QM_Energy>  (547) 
-1.5

>  <Index>  (547) 
38380

$$$$
ACET-pdb1bm3-H-ASP-73:PRPA-pdb1bm3-H-LYS-76
     RDKit          3D

 18 16  0  0  0  0  0  0  0  0999 V2000
    0.1984    1.4915   -0.0319 C   0  0  0  0  0  0  0  0  0  0  0  0
    0.5178    1.7377   -0.9969 H   0  0  0  0  0  0  0  0  0  0  0  0
    1.0423    1.7011    0.5492 H   0  0  0  0  0  0  0  0  0  0  0  0
   -0.5792    2.2023    0.2479 H   0  0  0  0  0  0  0  0  0  0  0  0
    0.0000    0.0000    0.0000 C   0  0  0  0  0  0  0  0  0  0  0  0
   -1.0447   -0.6325    0.0000 O   0  0  0  0  0  1  0  0  0  0  0  0
    1.0447   -0.6896    0.0000 O   0  0  0  0  0  0  0  0  0  0  0  0
    2.3107   -2.6334    1.8266 C   0  0  0  0  0  0  0  0  0  0  0  0
    2.2553   -3.4221    2.4108 H   0  0  0  0  0  0  0  0  0  0  0  0
    1.5003   -2.5136    1.2841 H   0  0  0  0  0  0  0  0  0  0  0  0
    2.4654   -1.7455    2.4396 H   0  0  0  0  0  0  0  0  0  0  0  0
    3.5146   -2.7697    0.9110 C   0  0  0  0  0  0  0  0  0  0  0  0
    3.9938   -1.8635    0.8757 H   0  0  0  0  0  0  0  0  0  0  0  0
    4.1784   -3.4162    1.3492 H   0  0  0  0  0  0  0  0  0  0  0  0
    3.2844   -3.2321   -0.5146 C   0  0  0  0  0  0  0  0  0  0  0  0
    2.9500   -4.1411   -0.5126 H   0  0  0  0  0  0  0  0  0  0  0  0
    2.7233   -2.5933   -0.9792 H   0  0  0  0  0  0  0  0  0  0  0  0
    4.2845   -3.2158   -0.9476 H   0  0  0  0  0  0  0  0  0  0  0  0
  1  5  1  0
  5  6  1  0
  5  7  2  0
  1  2  1  0
  1  3  1  0
  1  4  1  0
  8 12  1  0
 12 15  1  0
  8  9  1  0
  8 10  1  0
  8 11  1  0
 12 13  1  0
 12 14  1  0
 15 16  1  0
 15 17  1  0
 15 18  1  0
M  CHG  1   6  -1
M  END
>  <PDB_ID>  (548) 
pdb1bm3

>  <RESIDUE_NAME>  (548) 
ASP   LYS

>  <FRAG_NAME>  (548) 
ACET   PRPA

>  <FRAG_ATOM_NUM>  (548) 
fragi: 7  fragj: 11

>  <atom.prop.CHAIN_ID>  (548) 
A A A A A A A Z Z Z Z Z Z Z Z Z Z Z

>  <atom.prop.IS_HEAVY_ATOM>  (548) 
1 0 0 0 1 1 1 1 0 0 0 1 0 0 1 0 0 0

>  <DIFUSE_FUNC_ATOM>  (548) 
atom 6   atom 7   

>  <FINAL_SINGLE_POINT_ENERGY>  (548) 
0

>  <NONCOV_INTER_ENERGY_QM>  (548) 
0

>  <FF_Energy>  (548) 
2.26

>  <QM_Energy>  (548) 
-4.43

>  <Index>  (548) 
38387

$$$$
ACET-pdb2bht-D-GLU-5:PRPA-pdb2bht-D-LEU-82
     RDKit          3D

 18 16  0  0  0  0  0  0  0  0999 V2000
    0.0046    1.5146   -0.0136 C   0  0  0  0  0  0  0  0  0  0  0  0
    0.4060    1.8044   -0.8636 H   0  0  0  0  0  0  0  0  0  0  0  0
    0.5244    1.8185    0.7641 H   0  0  0  0  0  0  0  0  0  0  0  0
   -0.9954    1.9431    0.0547 H   0  0  0  0  0  0  0  0  0  0  0  0
    0.0000    0.0000    0.0000 C   0  0  0  0  0  0  0  0  0  0  0  0
   -1.0977   -0.5944    0.0000 O   0  0  0  0  0  1  0  0  0  0  0  0
    1.0977   -0.5974   -0.0000 O   0  0  0  0  0  0  0  0  0  0  0  0
    3.2903   -0.5980    1.7345 C   0  0  0  0  0  0  0  0  0  0  0  0
    3.8076    0.0280    1.1547 H   0  0  0  0  0  0  0  0  0  0  0  0
    2.5141   -0.9667    1.2296 H   0  0  0  0  0  0  0  0  0  0  0  0
    3.9456   -1.4300    1.9925 H   0  0  0  0  0  0  0  0  0  0  0  0
    2.7323    0.2169    2.9009 C   0  0  0  0  0  0  0  0  0  0  0  0
    1.9130    0.7016    2.5975 H   0  0  0  0  0  0  0  0  0  0  0  0
    3.4504    0.9771    3.2083 H   0  0  0  0  0  0  0  0  0  0  0  0
    2.3757   -0.6979    4.0648 C   0  0  0  0  0  0  0  0  0  0  0  0
    3.1946   -1.1841    4.3697 H   0  0  0  0  0  0  0  0  0  0  0  0
    2.0124   -0.1520    4.8200 H   0  0  0  0  0  0  0  0  0  0  0  0
    1.6854   -1.3592    3.7709 H   0  0  0  0  0  0  0  0  0  0  0  0
  1  5  1  0
  5  6  1  0
  5  7  2  0
  1  2  1  0
  1  3  1  0
  1  4  1  0
  8 12  1  0
 12 15  1  0
  8  9  1  0
  8 10  1  0
  8 11  1  0
 12 13  1  0
 12 14  1  0
 15 16  1  0
 15 17  1  0
 15 18  1  0
M  CHG  1   6  -1
M  END
>  <PDB_ID>  (549) 
pdb2bht

>  <RESIDUE_NAME>  (549) 
GLU   LEU

>  <FRAG_NAME>  (549) 
ACET   PRPA

>  <FRAG_ATOM_NUM>  (549) 
fragi: 7  fragj: 11

>  <atom.prop.CHAIN_ID>  (549) 
A A A A A A A Z Z Z Z Z Z Z Z Z Z Z

>  <atom.prop.IS_HEAVY_ATOM>  (549) 
1 0 0 0 1 1 1 1 0 0 0 1 0 0 1 0 0 0

>  <DIFUSE_FUNC_ATOM>  (549) 
atom 6   atom 7   

>  <FINAL_SINGLE_POINT_ENERGY>  (549) 
0

>  <NONCOV_INTER_ENERGY_QM>  (549) 
0

>  <FF_Energy>  (549) 
20.25

>  <QM_Energy>  (549) 
-1.48

>  <Index>  (549) 
38390

$$$$
ACET-pdb2bht-D-GLU-5:PRPA-pdb2bht-D-LEU-82
     RDKit          3D

 18 16  0  0  0  0  0  0  0  0999 V2000
    0.0046    1.5146   -0.0136 C   0  0  0  0  0  0  0  0  0  0  0  0
    0.4060    1.8044   -0.8636 H   0  0  0  0  0  0  0  0  0  0  0  0
    0.5244    1.8185    0.7641 H   0  0  0  0  0  0  0  0  0  0  0  0
   -0.9954    1.9431    0.0547 H   0  0  0  0  0  0  0  0  0  0  0  0
    0.0000    0.0000    0.0000 C   0  0  0  0  0  0  0  0  0  0  0  0
   -1.0977   -0.5944    0.0000 O   0  0  0  0  0  1  0  0  0  0  0  0
    1.0977   -0.5974   -0.0000 O   0  0  0  0  0  0  0  0  0  0  0  0
    3.2903   -0.5980    1.7345 C   0  0  0  0  0  0  0  0  0  0  0  0
    3.8076    0.0280    1.1547 H   0  0  0  0  0  0  0  0  0  0  0  0
    2.5141   -0.9667    1.2296 H   0  0  0  0  0  0  0  0  0  0  0  0
    3.9456   -1.4300    1.9925 H   0  0  0  0  0  0  0  0  0  0  0  0
    2.7323    0.2169    2.9009 C   0  0  0  0  0  0  0  0  0  0  0  0
    1.9130    0.7016    2.5975 H   0  0  0  0  0  0  0  0  0  0  0  0
    2.4770   -0.4379    3.7340 H   0  0  0  0  0  0  0  0  0  0  0  0
    3.7347    1.2781    3.3300 C   0  0  0  0  0  0  0  0  0  0  0  0
    3.9212    1.8918    2.5626 H   0  0  0  0  0  0  0  0  0  0  0  0
    3.3581    1.8047    4.0937 H   0  0  0  0  0  0  0  0  0  0  0  0
    4.5861    0.8373    3.6175 H   0  0  0  0  0  0  0  0  0  0  0  0
  1  5  1  0
  5  6  1  0
  5  7  2  0
  1  2  1  0
  1  3  1  0
  1  4  1  0
  8 12  1  0
 12 15  1  0
  8  9  1  0
  8 10  1  0
  8 11  1  0
 12 13  1  0
 12 14  1  0
 15 16  1  0
 15 17  1  0
 15 18  1  0
M  CHG  1   6  -1
M  END
>  <PDB_ID>  (550) 
pdb2bht

>  <RESIDUE_NAME>  (550) 
GLU   LEU

>  <FRAG_NAME>  (550) 
ACET   PRPA

>  <FRAG_ATOM_NUM>  (550) 
fragi: 7  fragj: 11

>  <atom.prop.CHAIN_ID>  (550) 
A A A A A A A Z Z Z Z Z Z Z Z Z Z Z

>  <atom.prop.IS_HEAVY_ATOM>  (550) 
1 0 0 0 1 1 1 1 0 0 0 1 0 0 1 0 0 0

>  <DIFUSE_FUNC_ATOM>  (550) 
atom 6   atom 7   

>  <FINAL_SINGLE_POINT_ENERGY>  (550) 
0

>  <NONCOV_INTER_ENERGY_QM>  (550) 
0

>  <FF_Energy>  (550) 
20.11

>  <QM_Energy>  (550) 
-1.12

>  <Index>  (550) 
38401

$$$$
ACET-pdb1boz-A-GLU-123:PRPA-pdb1boz-A-LEU-93
     RDKit          3D

 18 16  0  0  0  0  0  0  0  0999 V2000
   -0.1739    1.5013    0.0447 C   0  0  0  0  0  0  0  0  0  0  0  0
    0.3743    1.8843   -0.7084 H   0  0  0  0  0  0  0  0  0  0  0  0
    0.2223    1.8171    0.9160 H   0  0  0  0  0  0  0  0  0  0  0  0
   -1.1837    1.9039   -0.0344 H   0  0  0  0  0  0  0  0  0  0  0  0
    0.0000    0.0000    0.0000 C   0  0  0  0  0  0  0  0  0  0  0  0
   -1.0921   -0.6285    0.0000 O   0  0  0  0  0  1  0  0  0  0  0  0
    1.0921   -0.5951   -0.0000 O   0  0  0  0  0  0  0  0  0  0  0  0
    1.4222   -1.3319    2.5487 C   0  0  0  0  0  0  0  0  0  0  0  0
    1.9312   -0.8082    1.8831 H   0  0  0  0  0  0  0  0  0  0  0  0
    0.4926   -1.4859    2.2579 H   0  0  0  0  0  0  0  0  0  0  0  0
    1.9072   -2.3023    2.6550 H   0  0  0  0  0  0  0  0  0  0  0  0
    1.3722   -0.5105    3.8401 C   0  0  0  0  0  0  0  0  0  0  0  0
    1.0720   -1.0978    4.5861 H   0  0  0  0  0  0  0  0  0  0  0  0
    0.6763    0.3122    3.6760 H   0  0  0  0  0  0  0  0  0  0  0  0
    2.7552    0.0395    4.1518 C   0  0  0  0  0  0  0  0  0  0  0  0
    3.0608    0.6239    3.3997 H   0  0  0  0  0  0  0  0  0  0  0  0
    2.7205    0.5757    4.9961 H   0  0  0  0  0  0  0  0  0  0  0  0
    3.3988   -0.7179    4.2659 H   0  0  0  0  0  0  0  0  0  0  0  0
  1  5  1  0
  5  6  1  0
  5  7  2  0
  1  2  1  0
  1  3  1  0
  1  4  1  0
  8 12  1  0
 12 15  1  0
  8  9  1  0
  8 10  1  0
  8 11  1  0
 12 13  1  0
 12 14  1  0
 15 16  1  0
 15 17  1  0
 15 18  1  0
M  CHG  1   6  -1
M  END
>  <PDB_ID>  (551) 
pdb1boz

>  <RESIDUE_NAME>  (551) 
GLU   LEU

>  <FRAG_NAME>  (551) 
ACET   PRPA

>  <FRAG_ATOM_NUM>  (551) 
fragi: 7  fragj: 11

>  <atom.prop.CHAIN_ID>  (551) 
A A A A A A A Z Z Z Z Z Z Z Z Z Z Z

>  <atom.prop.IS_HEAVY_ATOM>  (551) 
1 0 0 0 1 1 1 1 0 0 0 1 0 0 1 0 0 0

>  <DIFUSE_FUNC_ATOM>  (551) 
atom 6   atom 7   

>  <FINAL_SINGLE_POINT_ENERGY>  (551) 
0

>  <NONCOV_INTER_ENERGY_QM>  (551) 
0

>  <FF_Energy>  (551) 
10.6

>  <QM_Energy>  (551) 
0.99

>  <Index>  (551) 
38749

$$$$
ACET-pdb1boz-A-GLU-123:PRPA-pdb1boz-A-LEU-93
     RDKit          3D

 18 16  0  0  0  0  0  0  0  0999 V2000
   -0.1739    1.5013    0.0447 C   0  0  0  0  0  0  0  0  0  0  0  0
    0.3743    1.8843   -0.7084 H   0  0  0  0  0  0  0  0  0  0  0  0
    0.2223    1.8171    0.9160 H   0  0  0  0  0  0  0  0  0  0  0  0
   -1.1837    1.9039   -0.0344 H   0  0  0  0  0  0  0  0  0  0  0  0
    0.0000    0.0000    0.0000 C   0  0  0  0  0  0  0  0  0  0  0  0
   -1.0921   -0.6285    0.0000 O   0  0  0  0  0  1  0  0  0  0  0  0
    1.0921   -0.5951   -0.0000 O   0  0  0  0  0  0  0  0  0  0  0  0
    1.4222   -1.3319    2.5487 C   0  0  0  0  0  0  0  0  0  0  0  0
    1.9312   -0.8082    1.8831 H   0  0  0  0  0  0  0  0  0  0  0  0
    0.4926   -1.4859    2.2579 H   0  0  0  0  0  0  0  0  0  0  0  0
    1.9072   -2.3023    2.6550 H   0  0  0  0  0  0  0  0  0  0  0  0
    1.3722   -0.5105    3.8401 C   0  0  0  0  0  0  0  0  0  0  0  0
    1.0720   -1.0978    4.5861 H   0  0  0  0  0  0  0  0  0  0  0  0
    2.3636   -0.1163    4.0636 H   0  0  0  0  0  0  0  0  0  0  0  0
    0.3981    0.6412    3.6104 C   0  0  0  0  0  0  0  0  0  0  0  0
   -0.5066    0.2735    3.3938 H   0  0  0  0  0  0  0  0  0  0  0  0
    0.3422    1.1993    4.4381 H   0  0  0  0  0  0  0  0  0  0  0  0
    0.7214    1.2036    2.8492 H   0  0  0  0  0  0  0  0  0  0  0  0
  1  5  1  0
  5  6  1  0
  5  7  2  0
  1  2  1  0
  1  3  1  0
  1  4  1  0
  8 12  1  0
 12 15  1  0
  8  9  1  0
  8 10  1  0
  8 11  1  0
 12 13  1  0
 12 14  1  0
 15 16  1  0
 15 17  1  0
 15 18  1  0
M  CHG  1   6  -1
M  END
>  <PDB_ID>  (552) 
pdb1boz

>  <RESIDUE_NAME>  (552) 
GLU   LEU

>  <FRAG_NAME>  (552) 
ACET   PRPA

>  <FRAG_ATOM_NUM>  (552) 
fragi: 7  fragj: 11

>  <atom.prop.CHAIN_ID>  (552) 
A A A A A A A Z Z Z Z Z Z Z Z Z Z Z

>  <atom.prop.IS_HEAVY_ATOM>  (552) 
1 0 0 0 1 1 1 1 0 0 0 1 0 0 1 0 0 0

>  <DIFUSE_FUNC_ATOM>  (552) 
atom 6   atom 7   

>  <FINAL_SINGLE_POINT_ENERGY>  (552) 
0

>  <NONCOV_INTER_ENERGY_QM>  (552) 
0

>  <FF_Energy>  (552) 
11.19

>  <QM_Energy>  (552) 
0.75

>  <Index>  (552) 
38752

$$$$
ACET-pdb2car-A-ASP-124:PRPA-pdb2car-A-GLN-127
     RDKit          3D

 18 16  0  0  0  0  0  0  0  0999 V2000
   -0.4694    1.4355   -0.1218 C   0  0  0  0  0  0  0  0  0  0  0  0
    0.1386    1.9117   -0.5932 H   0  0  0  0  0  0  0  0  0  0  0  0
   -0.9211    1.6695    0.6256 H   0  0  0  0  0  0  0  0  0  0  0  0
   -1.2158    1.0950   -0.8395 H   0  0  0  0  0  0  0  0  0  0  0  0
    0.0000    0.0000    0.0000 C   0  0  0  0  0  0  0  0  0  0  0  0
   -1.0915   -0.6951   -0.0000 O   0  0  0  0  0  1  0  0  0  0  0  0
    1.0915   -0.6187    0.0000 O   0  0  0  0  0  0  0  0  0  0  0  0
    0.0441   -3.4586    0.2637 C   0  0  0  0  0  0  0  0  0  0  0  0
   -0.3472   -4.3703    0.4127 H   0  0  0  0  0  0  0  0  0  0  0  0
   -0.2583   -2.8096    1.0855 H   0  0  0  0  0  0  0  0  0  0  0  0
    1.1280   -3.5731    0.2557 H   0  0  0  0  0  0  0  0  0  0  0  0
   -0.3534   -3.0432   -1.1530 C   0  0  0  0  0  0  0  0  0  0  0  0
   -1.3918   -2.9565   -1.1693 H   0  0  0  0  0  0  0  0  0  0  0  0
   -0.0307   -2.0603   -1.2888 H   0  0  0  0  0  0  0  0  0  0  0  0
    0.0564   -3.8255   -2.3541 C   0  0  0  0  0  0  0  0  0  0  0  0
   -0.3808   -3.4775   -3.1449 H   0  0  0  0  0  0  0  0  0  0  0  0
    1.0224   -3.8729   -2.4083 H   0  0  0  0  0  0  0  0  0  0  0  0
   -0.3268   -4.8279   -2.1633 H   0  0  0  0  0  0  0  0  0  0  0  0
  1  5  1  0
  5  6  1  0
  5  7  2  0
  1  2  1  0
  1  3  1  0
  1  4  1  0
  8 12  1  0
 12 15  1  0
  8  9  1  0
  8 10  1  0
  8 11  1  0
 12 13  1  0
 12 14  1  0
 15 16  1  0
 15 17  1  0
 15 18  1  0
M  CHG  1   6  -1
M  END
>  <PDB_ID>  (553) 
pdb2car

>  <RESIDUE_NAME>  (553) 
ASP   GLN

>  <FRAG_NAME>  (553) 
ACET   PRPA

>  <FRAG_ATOM_NUM>  (553) 
fragi: 7  fragj: 11

>  <atom.prop.CHAIN_ID>  (553) 
A A A A A A A Z Z Z Z Z Z Z Z Z Z Z

>  <atom.prop.IS_HEAVY_ATOM>  (553) 
1 0 0 0 1 1 1 1 0 0 0 1 0 0 1 0 0 0

>  <DIFUSE_FUNC_ATOM>  (553) 
atom 6   atom 7   

>  <FINAL_SINGLE_POINT_ENERGY>  (553) 
0

>  <NONCOV_INTER_ENERGY_QM>  (553) 
0

>  <FF_Energy>  (553) 
14.35

>  <QM_Energy>  (553) 
0.7

>  <Index>  (553) 
38873

$$$$
ACET-pdb1b0p-A-GLU-713:PRPA-pdb1b0p-A-LYS-710
     RDKit          3D

 18 16  0  0  0  0  0  0  0  0999 V2000
    0.0186    1.5298   -0.0489 C   0  0  0  0  0  0  0  0  0  0  0  0
    0.8592    1.8203    0.3462 H   0  0  0  0  0  0  0  0  0  0  0  0
   -0.7711    1.8420    0.4253 H   0  0  0  0  0  0  0  0  0  0  0  0
   -0.0263    1.8769   -1.0813 H   0  0  0  0  0  0  0  0  0  0  0  0
    0.0000    0.0000    0.0000 C   0  0  0  0  0  0  0  0  0  0  0  0
   -1.1043   -0.6131    0.0000 O   0  0  0  0  0  1  0  0  0  0  0  0
    1.1043   -0.5976    0.0000 O   0  0  0  0  0  0  0  0  0  0  0  0
   -4.4652    0.5601    1.3096 C   0  0  0  0  0  0  0  0  0  0  0  0
   -4.9688    1.3441    1.6687 H   0  0  0  0  0  0  0  0  0  0  0  0
   -4.8408   -0.2831    1.6933 H   0  0  0  0  0  0  0  0  0  0  0  0
   -4.6094    0.5321    0.2295 H   0  0  0  0  0  0  0  0  0  0  0  0
   -3.0399    0.6788    1.6953 C   0  0  0  0  0  0  0  0  0  0  0  0
   -2.4579    0.5665    0.8895 H   0  0  0  0  0  0  0  0  0  0  0  0
   -2.8704    1.5730    2.1076 H   0  0  0  0  0  0  0  0  0  0  0  0
   -2.6891   -0.3899    2.6972 C   0  0  0  0  0  0  0  0  0  0  0  0
   -3.4755   -0.5750    3.2721 H   0  0  0  0  0  0  0  0  0  0  0  0
   -2.3981   -1.2092    2.2212 H   0  0  0  0  0  0  0  0  0  0  0  0
   -1.8704   -0.0618    3.3375 H   0  0  0  0  0  0  0  0  0  0  0  0
  1  5  1  0
  5  6  1  0
  5  7  2  0
  1  2  1  0
  1  3  1  0
  1  4  1  0
  8 12  1  0
 12 15  1  0
  8  9  1  0
  8 10  1  0
  8 11  1  0
 12 13  1  0
 12 14  1  0
 15 16  1  0
 15 17  1  0
 15 18  1  0
M  CHG  1   6  -1
M  END
>  <PDB_ID>  (554) 
pdb1b0p

>  <RESIDUE_NAME>  (554) 
GLU   LYS

>  <FRAG_NAME>  (554) 
ACET   PRPA

>  <FRAG_ATOM_NUM>  (554) 
fragi: 7  fragj: 11

>  <atom.prop.CHAIN_ID>  (554) 
A A A A A A A Z Z Z Z Z Z Z Z Z Z Z

>  <atom.prop.IS_HEAVY_ATOM>  (554) 
1 0 0 0 1 1 1 1 0 0 0 1 0 0 1 0 0 0

>  <DIFUSE_FUNC_ATOM>  (554) 
atom 6   atom 7   

>  <FINAL_SINGLE_POINT_ENERGY>  (554) 
0

>  <NONCOV_INTER_ENERGY_QM>  (554) 
0

>  <FF_Energy>  (554) 
12.49

>  <QM_Energy>  (554) 
-2.23

>  <Index>  (554) 
39141

$$$$
ACET-pdb1b0p-A-GLU-713:PRPA-pdb1b0p-A-LYS-710
     RDKit          3D

 18 16  0  0  0  0  0  0  0  0999 V2000
    0.0186    1.5298   -0.0489 C   0  0  0  0  0  0  0  0  0  0  0  0
    0.8592    1.8203    0.3462 H   0  0  0  0  0  0  0  0  0  0  0  0
   -0.7711    1.8420    0.4253 H   0  0  0  0  0  0  0  0  0  0  0  0
   -0.0263    1.8769   -1.0813 H   0  0  0  0  0  0  0  0  0  0  0  0
    0.0000    0.0000    0.0000 C   0  0  0  0  0  0  0  0  0  0  0  0
   -1.1043   -0.6131    0.0000 O   0  0  0  0  0  1  0  0  0  0  0  0
    1.1043   -0.5976    0.0000 O   0  0  0  0  0  0  0  0  0  0  0  0
   -3.0399    0.6788    1.6953 C   0  0  0  0  0  0  0  0  0  0  0  0
   -2.4579    0.5665    0.8895 H   0  0  0  0  0  0  0  0  0  0  0  0
   -2.8704    1.5730    2.1076 H   0  0  0  0  0  0  0  0  0  0  0  0
   -4.0886    0.5914    1.4114 H   0  0  0  0  0  0  0  0  0  0  0  0
   -2.6891   -0.3899    2.6972 C   0  0  0  0  0  0  0  0  0  0  0  0
   -3.4755   -0.5750    3.2721 H   0  0  0  0  0  0  0  0  0  0  0  0
   -2.3981   -1.2092    2.2212 H   0  0  0  0  0  0  0  0  0  0  0  0
   -1.5379    0.0715    3.5975 C   0  0  0  0  0  0  0  0  0  0  0  0
   -0.7494    0.2818    3.0267 H   0  0  0  0  0  0  0  0  0  0  0  0
   -1.8266    0.8842    4.0950 H   0  0  0  0  0  0  0  0  0  0  0  0
   -1.2740   -0.7133    4.3065 H   0  0  0  0  0  0  0  0  0  0  0  0
  1  5  1  0
  5  6  1  0
  5  7  2  0
  1  2  1  0
  1  3  1  0
  1  4  1  0
  8 12  1  0
 12 15  1  0
  8  9  1  0
  8 10  1  0
  8 11  1  0
 12 13  1  0
 12 14  1  0
 15 16  1  0
 15 17  1  0
 15 18  1  0
M  CHG  1   6  -1
M  END
>  <PDB_ID>  (555) 
pdb1b0p

>  <RESIDUE_NAME>  (555) 
GLU   LYS

>  <FRAG_NAME>  (555) 
ACET   PRPA

>  <FRAG_ATOM_NUM>  (555) 
fragi: 7  fragj: 11

>  <atom.prop.CHAIN_ID>  (555) 
A A A A A A A Z Z Z Z Z Z Z Z Z Z Z

>  <atom.prop.IS_HEAVY_ATOM>  (555) 
1 0 0 0 1 1 1 1 0 0 0 1 0 0 1 0 0 0

>  <DIFUSE_FUNC_ATOM>  (555) 
atom 6   atom 7   

>  <FINAL_SINGLE_POINT_ENERGY>  (555) 
0

>  <NONCOV_INTER_ENERGY_QM>  (555) 
0

>  <FF_Energy>  (555) 
20.61

>  <QM_Energy>  (555) 
-3.14

>  <Index>  (555) 
39143

$$$$
ACET-pdb2boy-C-GLU-56:PRPA-pdb2boy-C-ILE-74
     RDKit          3D

 18 16  0  0  0  0  0  0  0  0999 V2000
   -0.0346    1.5411    0.0824 C   0  0  0  0  0  0  0  0  0  0  0  0
   -0.6329    1.7731    0.8342 H   0  0  0  0  0  0  0  0  0  0  0  0
   -0.3976    1.8635   -0.7785 H   0  0  0  0  0  0  0  0  0  0  0  0
    0.9346    2.0102    0.2513 H   0  0  0  0  0  0  0  0  0  0  0  0
    0.0000    0.0000    0.0000 C   0  0  0  0  0  0  0  0  0  0  0  0
   -1.0852   -0.5974   -0.0000 O   0  0  0  0  0  1  0  0  0  0  0  0
    1.0852   -0.6304    0.0000 O   0  0  0  0  0  0  0  0  0  0  0  0
   -1.3762   -1.5329    3.4003 C   0  0  0  0  0  0  0  0  0  0  0  0
   -2.0437   -0.9985    2.8531 H   0  0  0  0  0  0  0  0  0  0  0  0
   -1.7539   -1.5253    4.4228 H   0  0  0  0  0  0  0  0  0  0  0  0
   -1.3297   -2.5268    2.9552 H   0  0  0  0  0  0  0  0  0  0  0  0
   -0.0105   -0.8293    3.2634 C   0  0  0  0  0  0  0  0  0  0  0  0
    0.2204   -0.7909    2.2935 H   0  0  0  0  0  0  0  0  0  0  0  0
   -0.0689    0.1993    3.6191 H   0  0  0  0  0  0  0  0  0  0  0  0
    1.1063   -1.6105    3.9820 C   0  0  0  0  0  0  0  0  0  0  0  0
    0.9840   -1.5340    4.9555 H   0  0  0  0  0  0  0  0  0  0  0  0
    1.0773   -2.5524    3.6951 H   0  0  0  0  0  0  0  0  0  0  0  0
    2.0974   -1.2259    3.7411 H   0  0  0  0  0  0  0  0  0  0  0  0
  1  5  1  0
  5  6  1  0
  5  7  2  0
  1  2  1  0
  1  3  1  0
  1  4  1  0
  8 12  1  0
 12 15  1  0
  8  9  1  0
  8 10  1  0
  8 11  1  0
 12 13  1  0
 12 14  1  0
 15 16  1  0
 15 17  1  0
 15 18  1  0
M  CHG  1   6  -1
M  END
>  <PDB_ID>  (556) 
pdb2boy

>  <RESIDUE_NAME>  (556) 
GLU   ILE

>  <FRAG_NAME>  (556) 
ACET   PRPA

>  <FRAG_ATOM_NUM>  (556) 
fragi: 7  fragj: 11

>  <atom.prop.CHAIN_ID>  (556) 
A A A A A A A Z Z Z Z Z Z Z Z Z Z Z

>  <atom.prop.IS_HEAVY_ATOM>  (556) 
1 0 0 0 1 1 1 1 0 0 0 1 0 0 1 0 0 0

>  <DIFUSE_FUNC_ATOM>  (556) 
atom 6   atom 7   

>  <FINAL_SINGLE_POINT_ENERGY>  (556) 
0

>  <NONCOV_INTER_ENERGY_QM>  (556) 
0

>  <FF_Energy>  (556) 
1.97

>  <QM_Energy>  (556) 
-4.71

>  <Index>  (556) 
39164

$$$$
ACET-pdb1bn6-A-GLU-110:PRPA-pdb1bn6-A-LYS-135
     RDKit          3D

 18 16  0  0  0  0  0  0  0  0999 V2000
   -0.0221    1.4861   -0.0091 C   0  0  0  0  0  0  0  0  0  0  0  0
    0.6920    1.7837   -0.5901 H   0  0  0  0  0  0  0  0  0  0  0  0
    0.0468    1.7836    0.9089 H   0  0  0  0  0  0  0  0  0  0  0  0
   -0.9891    1.7663   -0.4266 H   0  0  0  0  0  0  0  0  0  0  0  0
    0.0000    0.0000    0.0000 C   0  0  0  0  0  0  0  0  0  0  0  0
   -1.1377   -0.6047   -0.0000 O   0  0  0  0  0  1  0  0  0  0  0  0
    1.1377   -0.5582    0.0000 O   0  0  0  0  0  0  0  0  0  0  0  0
   -2.4066   -1.4723   -4.7560 C   0  0  0  0  0  0  0  0  0  0  0  0
   -3.3085   -1.0877   -4.8663 H   0  0  0  0  0  0  0  0  0  0  0  0
   -2.4293   -2.4591   -4.7585 H   0  0  0  0  0  0  0  0  0  0  0  0
   -1.8069   -1.1554   -5.6093 H   0  0  0  0  0  0  0  0  0  0  0  0
   -1.8134   -0.9893   -3.4651 C   0  0  0  0  0  0  0  0  0  0  0  0
   -0.8829   -1.3216   -3.3913 H   0  0  0  0  0  0  0  0  0  0  0  0
   -1.8409    0.0001   -3.4453 H   0  0  0  0  0  0  0  0  0  0  0  0
   -2.6351   -1.5407   -2.3740 C   0  0  0  0  0  0  0  0  0  0  0  0
   -2.3159   -1.2009   -1.4845 H   0  0  0  0  0  0  0  0  0  0  0  0
   -3.5986   -1.2851   -2.4921 H   0  0  0  0  0  0  0  0  0  0  0  0
   -2.6072   -2.6290   -2.3191 H   0  0  0  0  0  0  0  0  0  0  0  0
  1  5  1  0
  5  6  1  0
  5  7  2  0
  1  2  1  0
  1  3  1  0
  1  4  1  0
  8 12  1  0
 12 15  1  0
  8  9  1  0
  8 10  1  0
  8 11  1  0
 12 13  1  0
 12 14  1  0
 15 16  1  0
 15 17  1  0
 15 18  1  0
M  CHG  1   6  -1
M  END
>  <PDB_ID>  (557) 
pdb1bn6

>  <RESIDUE_NAME>  (557) 
GLU   LYS

>  <FRAG_NAME>  (557) 
ACET   PRPA

>  <FRAG_ATOM_NUM>  (557) 
fragi: 7  fragj: 11

>  <atom.prop.CHAIN_ID>  (557) 
A A A A A A A Z Z Z Z Z Z Z Z Z Z Z

>  <atom.prop.IS_HEAVY_ATOM>  (557) 
1 0 0 0 1 1 1 1 0 0 0 1 0 0 1 0 0 0

>  <DIFUSE_FUNC_ATOM>  (557) 
atom 6   atom 7   

>  <FINAL_SINGLE_POINT_ENERGY>  (557) 
0

>  <NONCOV_INTER_ENERGY_QM>  (557) 
0

>  <FF_Energy>  (557) 
11.38

>  <QM_Energy>  (557) 
-2.5

>  <Index>  (557) 
39285

$$$$
ACET-pdb1bqb-A-GLU-29:PRPA-pdb1bqb-A-LEU-51
     RDKit          3D

 18 16  0  0  0  0  0  0  0  0999 V2000
    0.0004    1.5193   -0.0129 C   0  0  0  0  0  0  0  0  0  0  0  0
    0.8787    1.8195    0.3046 H   0  0  0  0  0  0  0  0  0  0  0  0
   -0.7333    1.8221    0.5644 H   0  0  0  0  0  0  0  0  0  0  0  0
   -0.1589    1.9305   -1.0097 H   0  0  0  0  0  0  0  0  0  0  0  0
    0.0000    0.0000    0.0000 C   0  0  0  0  0  0  0  0  0  0  0  0
   -1.0977   -0.6050    0.0000 O   0  0  0  0  0  1  0  0  0  0  0  0
    1.0977   -0.5871    0.0000 O   0  0  0  0  0  0  0  0  0  0  0  0
   -0.2553   -0.4772    5.6487 C   0  0  0  0  0  0  0  0  0  0  0  0
    0.3465   -1.2947    5.6741 H   0  0  0  0  0  0  0  0  0  0  0  0
   -1.1782   -0.7757    5.9442 H   0  0  0  0  0  0  0  0  0  0  0  0
    0.1157    0.2214    6.3986 H   0  0  0  0  0  0  0  0  0  0  0  0
   -0.3664   -0.0480    4.1940 C   0  0  0  0  0  0  0  0  0  0  0  0
   -1.0420    0.6845    4.1199 H   0  0  0  0  0  0  0  0  0  0  0  0
    0.5975    0.3097    3.8323 H   0  0  0  0  0  0  0  0  0  0  0  0
   -0.8366   -1.2423    3.3697 C   0  0  0  0  0  0  0  0  0  0  0  0
   -1.7286   -1.5472    3.7047 H   0  0  0  0  0  0  0  0  0  0  0  0
   -0.9144   -0.9741    2.4088 H   0  0  0  0  0  0  0  0  0  0  0  0
   -0.1744   -1.9874    3.4556 H   0  0  0  0  0  0  0  0  0  0  0  0
  1  5  1  0
  5  6  1  0
  5  7  2  0
  1  2  1  0
  1  3  1  0
  1  4  1  0
  8 12  1  0
 12 15  1  0
  8  9  1  0
  8 10  1  0
  8 11  1  0
 12 13  1  0
 12 14  1  0
 15 16  1  0
 15 17  1  0
 15 18  1  0
M  CHG  1   6  -1
M  END
>  <PDB_ID>  (558) 
pdb1bqb

>  <RESIDUE_NAME>  (558) 
GLU   LEU

>  <FRAG_NAME>  (558) 
ACET   PRPA

>  <FRAG_ATOM_NUM>  (558) 
fragi: 7  fragj: 11

>  <atom.prop.CHAIN_ID>  (558) 
A A A A A A A Z Z Z Z Z Z Z Z Z Z Z

>  <atom.prop.IS_HEAVY_ATOM>  (558) 
1 0 0 0 1 1 1 1 0 0 0 1 0 0 1 0 0 0

>  <DIFUSE_FUNC_ATOM>  (558) 
atom 6   atom 7   

>  <FINAL_SINGLE_POINT_ENERGY>  (558) 
0

>  <NONCOV_INTER_ENERGY_QM>  (558) 
0

>  <FF_Energy>  (558) 
7.74

>  <QM_Energy>  (558) 
-3.63

>  <Index>  (558) 
39293

$$$$
ACET-pdb2bht-D-ASP-231:PRPA-pdb2bht-D-GLU-201
     RDKit          3D

 18 16  0  0  0  0  0  0  0  0999 V2000
   -0.0072    1.5161    0.0136 C   0  0  0  0  0  0  0  0  0  0  0  0
   -0.1454    1.8436   -0.9128 H   0  0  0  0  0  0  0  0  0  0  0  0
    0.8605    1.8378    0.3723 H   0  0  0  0  0  0  0  0  0  0  0  0
   -0.8021    1.9251    0.6372 H   0  0  0  0  0  0  0  0  0  0  0  0
    0.0000    0.0000    0.0000 C   0  0  0  0  0  0  0  0  0  0  0  0
   -1.0977   -0.5953   -0.0000 O   0  0  0  0  0  1  0  0  0  0  0  0
    1.0977   -0.5967   -0.0000 O   0  0  0  0  0  0  0  0  0  0  0  0
    1.5079   -1.0819    2.7268 C   0  0  0  0  0  0  0  0  0  0  0  0
    0.8984   -1.0844    1.9286 H   0  0  0  0  0  0  0  0  0  0  0  0
    0.9785   -0.6821    3.5918 H   0  0  0  0  0  0  0  0  0  0  0  0
    1.8479   -2.0978    2.9282 H   0  0  0  0  0  0  0  0  0  0  0  0
    2.6773   -0.1817    2.3371 C   0  0  0  0  0  0  0  0  0  0  0  0
    2.8190   -0.2752    1.3660 H   0  0  0  0  0  0  0  0  0  0  0  0
    2.4424    0.7422    2.5849 H   0  0  0  0  0  0  0  0  0  0  0  0
    3.9896   -0.5221    3.0267 C   0  0  0  0  0  0  0  0  0  0  0  0
    4.2057    0.2051    3.6514 H   0  0  0  0  0  0  0  0  0  0  0  0
    3.8837   -1.3865    3.4831 H   0  0  0  0  0  0  0  0  0  0  0  0
    4.8208   -0.6166    2.3279 H   0  0  0  0  0  0  0  0  0  0  0  0
  1  5  1  0
  5  6  1  0
  5  7  2  0
  1  2  1  0
  1  3  1  0
  1  4  1  0
  8 12  1  0
 12 15  1  0
  8  9  1  0
  8 10  1  0
  8 11  1  0
 12 13  1  0
 12 14  1  0
 15 16  1  0
 15 17  1  0
 15 18  1  0
M  CHG  1   6  -1
M  END
>  <PDB_ID>  (559) 
pdb2bht

>  <RESIDUE_NAME>  (559) 
ASP   GLU

>  <FRAG_NAME>  (559) 
ACET   PRPA

>  <FRAG_ATOM_NUM>  (559) 
fragi: 7  fragj: 11

>  <atom.prop.CHAIN_ID>  (559) 
A A A A A A A Z Z Z Z Z Z Z Z Z Z Z

>  <atom.prop.IS_HEAVY_ATOM>  (559) 
1 0 0 0 1 1 1 1 0 0 0 1 0 0 1 0 0 0

>  <DIFUSE_FUNC_ATOM>  (559) 
atom 6   atom 7   

>  <FINAL_SINGLE_POINT_ENERGY>  (559) 
0

>  <NONCOV_INTER_ENERGY_QM>  (559) 
0

>  <FF_Energy>  (559) 
20.08

>  <QM_Energy>  (559) 
-0.99

>  <Index>  (559) 
39351

$$$$
ACET-pdb1auw-D-ASP-31:PRPA-pdb1auw-D-ILE-28
     RDKit          3D

 18 16  0  0  0  0  0  0  0  0999 V2000
    0.0339    1.5266   -0.0140 C   0  0  0  0  0  0  0  0  0  0  0  0
    0.5217    1.8246   -0.8280 H   0  0  0  0  0  0  0  0  0  0  0  0
    0.5033    1.8400    0.8047 H   0  0  0  0  0  0  0  0  0  0  0  0
   -0.9565    1.9816   -0.0300 H   0  0  0  0  0  0  0  0  0  0  0  0
    0.0000    0.0000    0.0000 C   0  0  0  0  0  0  0  0  0  0  0  0
   -1.0907   -0.6024    0.0000 O   0  0  0  0  0  1  0  0  0  0  0  0
    1.0907   -0.6021   -0.0000 O   0  0  0  0  0  0  0  0  0  0  0  0
   -2.1282   -2.8081    1.7426 C   0  0  0  0  0  0  0  0  0  0  0  0
   -1.8448   -2.4369    0.8455 H   0  0  0  0  0  0  0  0  0  0  0  0
   -1.2852   -2.6603    2.4175 H   0  0  0  0  0  0  0  0  0  0  0  0
   -3.0112   -2.2454    2.0456 H   0  0  0  0  0  0  0  0  0  0  0  0
   -2.4676   -4.2983    1.6092 C   0  0  0  0  0  0  0  0  0  0  0  0
   -1.6432   -4.7781    1.3351 H   0  0  0  0  0  0  0  0  0  0  0  0
   -2.7891   -4.7049    2.5681 H   0  0  0  0  0  0  0  0  0  0  0  0
   -3.5150   -4.4933    0.5188 C   0  0  0  0  0  0  0  0  0  0  0  0
   -3.7084   -5.4673    0.4325 H   0  0  0  0  0  0  0  0  0  0  0  0
   -4.3487   -4.0201    0.7948 H   0  0  0  0  0  0  0  0  0  0  0  0
   -3.2016   -4.1084   -0.4517 H   0  0  0  0  0  0  0  0  0  0  0  0
  1  5  1  0
  5  6  1  0
  5  7  2  0
  1  2  1  0
  1  3  1  0
  1  4  1  0
  8 12  1  0
 12 15  1  0
  8  9  1  0
  8 10  1  0
  8 11  1  0
 12 13  1  0
 12 14  1  0
 15 16  1  0
 15 17  1  0
 15 18  1  0
M  CHG  1   6  -1
M  END
>  <PDB_ID>  (560) 
pdb1auw

>  <RESIDUE_NAME>  (560) 
ASP   ILE

>  <FRAG_NAME>  (560) 
ACET   PRPA

>  <FRAG_ATOM_NUM>  (560) 
fragi: 7  fragj: 11

>  <atom.prop.CHAIN_ID>  (560) 
A A A A A A A Z Z Z Z Z Z Z Z Z Z Z

>  <atom.prop.IS_HEAVY_ATOM>  (560) 
1 0 0 0 1 1 1 1 0 0 0 1 0 0 1 0 0 0

>  <DIFUSE_FUNC_ATOM>  (560) 
atom 6   atom 7   

>  <FINAL_SINGLE_POINT_ENERGY>  (560) 
0

>  <NONCOV_INTER_ENERGY_QM>  (560) 
0

>  <FF_Energy>  (560) 
3.32

>  <QM_Energy>  (560) 
-2.33

>  <Index>  (560) 
39430

$$$$
ACET-pdb1auw-D-ASP-31:PRPA-pdb1auw-D-ILE-28
     RDKit          3D

 18 16  0  0  0  0  0  0  0  0999 V2000
    0.0339    1.5266   -0.0140 C   0  0  0  0  0  0  0  0  0  0  0  0
    0.5217    1.8246   -0.8280 H   0  0  0  0  0  0  0  0  0  0  0  0
    0.5033    1.8400    0.8047 H   0  0  0  0  0  0  0  0  0  0  0  0
   -0.9565    1.9816   -0.0300 H   0  0  0  0  0  0  0  0  0  0  0  0
    0.0000    0.0000    0.0000 C   0  0  0  0  0  0  0  0  0  0  0  0
   -1.0907   -0.6024    0.0000 O   0  0  0  0  0  1  0  0  0  0  0  0
    1.0907   -0.6021   -0.0000 O   0  0  0  0  0  0  0  0  0  0  0  0
   -2.1282   -2.8081    1.7426 C   0  0  0  0  0  0  0  0  0  0  0  0
   -1.8448   -2.4369    0.8455 H   0  0  0  0  0  0  0  0  0  0  0  0
   -1.2852   -2.6603    2.4175 H   0  0  0  0  0  0  0  0  0  0  0  0
   -3.0112   -2.2454    2.0456 H   0  0  0  0  0  0  0  0  0  0  0  0
   -2.4676   -4.2983    1.6092 C   0  0  0  0  0  0  0  0  0  0  0  0
   -1.6432   -4.7781    1.3351 H   0  0  0  0  0  0  0  0  0  0  0  0
   -3.2165   -4.4377    0.8296 H   0  0  0  0  0  0  0  0  0  0  0  0
   -2.9166   -4.8663    2.9486 C   0  0  0  0  0  0  0  0  0  0  0  0
   -3.0871   -5.8460    2.8549 H   0  0  0  0  0  0  0  0  0  0  0  0
   -2.2025   -4.7174    3.6304 H   0  0  0  0  0  0  0  0  0  0  0  0
   -3.7550   -4.4093    3.2402 H   0  0  0  0  0  0  0  0  0  0  0  0
  1  5  1  0
  5  6  1  0
  5  7  2  0
  1  2  1  0
  1  3  1  0
  1  4  1  0
  8 12  1  0
 12 15  1  0
  8  9  1  0
  8 10  1  0
  8 11  1  0
 12 13  1  0
 12 14  1  0
 15 16  1  0
 15 17  1  0
 15 18  1  0
M  CHG  1   6  -1
M  END
>  <PDB_ID>  (561) 
pdb1auw

>  <RESIDUE_NAME>  (561) 
ASP   ILE

>  <FRAG_NAME>  (561) 
ACET   PRPA

>  <FRAG_ATOM_NUM>  (561) 
fragi: 7  fragj: 11

>  <atom.prop.CHAIN_ID>  (561) 
A A A A A A A Z Z Z Z Z Z Z Z Z Z Z

>  <atom.prop.IS_HEAVY_ATOM>  (561) 
1 0 0 0 1 1 1 1 0 0 0 1 0 0 1 0 0 0

>  <DIFUSE_FUNC_ATOM>  (561) 
atom 6   atom 7   

>  <FINAL_SINGLE_POINT_ENERGY>  (561) 
0

>  <NONCOV_INTER_ENERGY_QM>  (561) 
0

>  <FF_Energy>  (561) 
10.94

>  <QM_Energy>  (561) 
-2.09

>  <Index>  (561) 
39433

$$$$
ACET-pdb1b3u-B-ASP-253:PRPA-pdb1b3u-B-VAL-258
     RDKit          3D

 18 16  0  0  0  0  0  0  0  0999 V2000
    0.0070    1.5251   -0.0013 C   0  0  0  0  0  0  0  0  0  0  0  0
    0.9288    1.8378    0.1949 H   0  0  0  0  0  0  0  0  0  0  0  0
   -0.6268    1.8460    0.6906 H   0  0  0  0  0  0  0  0  0  0  0  0
   -0.2962    1.9466   -0.9597 H   0  0  0  0  0  0  0  0  0  0  0  0
    0.0000    0.0000    0.0000 C   0  0  0  0  0  0  0  0  0  0  0  0
   -1.0972   -0.6016    0.0000 O   0  0  0  0  0  1  0  0  0  0  0  0
    1.0972   -0.5993   -0.0000 O   0  0  0  0  0  0  0  0  0  0  0  0
   -0.9610    1.2844    5.1036 C   0  0  0  0  0  0  0  0  0  0  0  0
   -0.5446    1.0391    5.9887 H   0  0  0  0  0  0  0  0  0  0  0  0
   -2.0043    0.9691    5.1205 H   0  0  0  0  0  0  0  0  0  0  0  0
   -0.8722    2.3638    4.9813 H   0  0  0  0  0  0  0  0  0  0  0  0
   -0.1662    0.5322    3.9968 C   0  0  0  0  0  0  0  0  0  0  0  0
    0.0790   -0.3552    4.3693 H   0  0  0  0  0  0  0  0  0  0  0  0
    0.7262    1.0915    3.7157 H   0  0  0  0  0  0  0  0  0  0  0  0
   -1.0461    0.3071    2.8085 C   0  0  0  0  0  0  0  0  0  0  0  0
   -0.8898    1.0216    2.1204 H   0  0  0  0  0  0  0  0  0  0  0  0
   -0.8487   -0.5869    2.3952 H   0  0  0  0  0  0  0  0  0  0  0  0
   -2.0122    0.3293    3.0826 H   0  0  0  0  0  0  0  0  0  0  0  0
  1  5  1  0
  5  6  1  0
  5  7  2  0
  1  2  1  0
  1  3  1  0
  1  4  1  0
  8 12  1  0
 12 15  1  0
  8  9  1  0
  8 10  1  0
  8 11  1  0
 12 13  1  0
 12 14  1  0
 15 16  1  0
 15 17  1  0
 15 18  1  0
M  CHG  1   6  -1
M  END
>  <PDB_ID>  (562) 
pdb1b3u

>  <RESIDUE_NAME>  (562) 
ASP   VAL

>  <FRAG_NAME>  (562) 
ACET   PRPA

>  <FRAG_ATOM_NUM>  (562) 
fragi: 7  fragj: 11

>  <atom.prop.CHAIN_ID>  (562) 
A A A A A A A Z Z Z Z Z Z Z Z Z Z Z

>  <atom.prop.IS_HEAVY_ATOM>  (562) 
1 0 0 0 1 1 1 1 0 0 0 1 0 0 1 0 0 0

>  <DIFUSE_FUNC_ATOM>  (562) 
atom 6   atom 7   

>  <FINAL_SINGLE_POINT_ENERGY>  (562) 
0

>  <NONCOV_INTER_ENERGY_QM>  (562) 
0

>  <FF_Energy>  (562) 
22.41

>  <QM_Energy>  (562) 
1.97

>  <Index>  (562) 
39564

$$$$
ACET-pdb1b3u-B-ASP-253:PRPA-pdb1b3u-B-VAL-258
     RDKit          3D

 18 16  0  0  0  0  0  0  0  0999 V2000
    0.0070    1.5251   -0.0013 C   0  0  0  0  0  0  0  0  0  0  0  0
    0.9288    1.8378    0.1949 H   0  0  0  0  0  0  0  0  0  0  0  0
   -0.6268    1.8460    0.6906 H   0  0  0  0  0  0  0  0  0  0  0  0
   -0.2962    1.9466   -0.9597 H   0  0  0  0  0  0  0  0  0  0  0  0
    0.0000    0.0000    0.0000 C   0  0  0  0  0  0  0  0  0  0  0  0
   -1.0972   -0.6016    0.0000 O   0  0  0  0  0  1  0  0  0  0  0  0
    1.0972   -0.5993   -0.0000 O   0  0  0  0  0  0  0  0  0  0  0  0
   -1.0461    0.3071    2.8085 C   0  0  0  0  0  0  0  0  0  0  0  0
   -0.8898    1.0216    2.1204 H   0  0  0  0  0  0  0  0  0  0  0  0
   -0.8487   -0.5869    2.3952 H   0  0  0  0  0  0  0  0  0  0  0  0
   -2.0122    0.3293    3.0826 H   0  0  0  0  0  0  0  0  0  0  0  0
   -0.1662    0.5322    3.9968 C   0  0  0  0  0  0  0  0  0  0  0  0
    0.0790   -0.3552    4.3693 H   0  0  0  0  0  0  0  0  0  0  0  0
   -0.7228    1.0590    4.7720 H   0  0  0  0  0  0  0  0  0  0  0  0
    1.0802    1.3134    3.6042 C   0  0  0  0  0  0  0  0  0  0  0  0
    1.1286    2.1517    4.1472 H   0  0  0  0  0  0  0  0  0  0  0  0
    1.8890    0.7526    3.7781 H   0  0  0  0  0  0  0  0  0  0  0  0
    1.0326    1.5434    2.6322 H   0  0  0  0  0  0  0  0  0  0  0  0
  1  5  1  0
  5  6  1  0
  5  7  2  0
  1  2  1  0
  1  3  1  0
  1  4  1  0
  8 12  1  0
 12 15  1  0
  8  9  1  0
  8 10  1  0
  8 11  1  0
 12 13  1  0
 12 14  1  0
 15 16  1  0
 15 17  1  0
 15 18  1  0
M  CHG  1   6  -1
M  END
>  <PDB_ID>  (563) 
pdb1b3u

>  <RESIDUE_NAME>  (563) 
ASP   VAL

>  <FRAG_NAME>  (563) 
ACET   PRPA

>  <FRAG_ATOM_NUM>  (563) 
fragi: 7  fragj: 11

>  <atom.prop.CHAIN_ID>  (563) 
A A A A A A A Z Z Z Z Z Z Z Z Z Z Z

>  <atom.prop.IS_HEAVY_ATOM>  (563) 
1 0 0 0 1 1 1 1 0 0 0 1 0 0 1 0 0 0

>  <DIFUSE_FUNC_ATOM>  (563) 
atom 6   atom 7   

>  <FINAL_SINGLE_POINT_ENERGY>  (563) 
0

>  <NONCOV_INTER_ENERGY_QM>  (563) 
0

>  <FF_Energy>  (563) 
22.35

>  <QM_Energy>  (563) 
1.35

>  <Index>  (563) 
39579

$$$$
ACET-pdb1boz-A-ASP-152:PRPA-pdb1boz-A-LYS-155
     RDKit          3D

 18 16  0  0  0  0  0  0  0  0999 V2000
    0.0714    1.4975    0.0220 C   0  0  0  0  0  0  0  0  0  0  0  0
    0.6737    1.8072   -0.7296 H   0  0  0  0  0  0  0  0  0  0  0  0
    0.4925    1.7928    0.8925 H   0  0  0  0  0  0  0  0  0  0  0  0
   -0.8725    2.0332   -0.0789 H   0  0  0  0  0  0  0  0  0  0  0  0
    0.0000    0.0000    0.0000 C   0  0  0  0  0  0  0  0  0  0  0  0
   -1.0726   -0.6209    0.0000 O   0  0  0  0  0  1  0  0  0  0  0  0
    1.0726   -0.6727    0.0000 O   0  0  0  0  0  0  0  0  0  0  0  0
    1.8079   -0.6020    4.0708 C   0  0  0  0  0  0  0  0  0  0  0  0
    2.0396   -0.8906    4.9884 H   0  0  0  0  0  0  0  0  0  0  0  0
    1.6332   -1.3783    3.4840 H   0  0  0  0  0  0  0  0  0  0  0  0
    0.9342    0.0493    4.0958 H   0  0  0  0  0  0  0  0  0  0  0  0
    3.0116    0.1800    3.4926 C   0  0  0  0  0  0  0  0  0  0  0  0
    2.8522    1.1421    3.6294 H   0  0  0  0  0  0  0  0  0  0  0  0
    3.8303   -0.1272    3.9460 H   0  0  0  0  0  0  0  0  0  0  0  0
    3.1406   -0.0939    1.9953 C   0  0  0  0  0  0  0  0  0  0  0  0
    2.2712    0.0934    1.5564 H   0  0  0  0  0  0  0  0  0  0  0  0
    3.8539    0.4849    1.6207 H   0  0  0  0  0  0  0  0  0  0  0  0
    3.4060   -1.1395    1.8390 H   0  0  0  0  0  0  0  0  0  0  0  0
  1  5  1  0
  5  6  1  0
  5  7  2  0
  1  2  1  0
  1  3  1  0
  1  4  1  0
  8 12  1  0
 12 15  1  0
  8  9  1  0
  8 10  1  0
  8 11  1  0
 12 13  1  0
 12 14  1  0
 15 16  1  0
 15 17  1  0
 15 18  1  0
M  CHG  1   6  -1
M  END
>  <PDB_ID>  (564) 
pdb1boz

>  <RESIDUE_NAME>  (564) 
ASP   LYS

>  <FRAG_NAME>  (564) 
ACET   PRPA

>  <FRAG_ATOM_NUM>  (564) 
fragi: 7  fragj: 11

>  <atom.prop.CHAIN_ID>  (564) 
A A A A A A A Z Z Z Z Z Z Z Z Z Z Z

>  <atom.prop.IS_HEAVY_ATOM>  (564) 
1 0 0 0 1 1 1 1 0 0 0 1 0 0 1 0 0 0

>  <DIFUSE_FUNC_ATOM>  (564) 
atom 6   atom 7   

>  <FINAL_SINGLE_POINT_ENERGY>  (564) 
0

>  <NONCOV_INTER_ENERGY_QM>  (564) 
0

>  <FF_Energy>  (564) 
9.97

>  <QM_Energy>  (564) 
-1.04

>  <Index>  (564) 
39708

$$$$
