@<TRIPOS>MOLECULE
LIG
 9 8 0 0 0
SMALL
GASTEIGER

@<TRIPOS>ATOM
      1  C         -1.4800   -5.7290   -2.3110 C.3     1  ETO1       -0.0418
      2  H         -2.2920   -6.3220   -2.4030 H       1  ETO1        0.0252
      3  H         -0.7630   -6.2440   -1.6710 H       1  ETO1        0.0252
      4  H         -1.1030   -5.5330   -3.3140 H       1  ETO1        0.0252
      5  C         -1.9370   -4.4220   -1.6950 C.3     1  ETO1        0.0414
      6  H         -1.2780   -3.6970   -1.9340 H       1  ETO1        0.0554
      7  H         -2.8320   -4.1710   -2.0860 H       1  ETO1        0.0554
      8  O         -2.0640   -4.4620   -0.2800 O.3     1  ETO1       -0.3953
      9  H         -2.9320   -4.0450   -0.0140 H       1  ETO1        0.2094
@<TRIPOS>BOND
     1     4     1    1
     2     2     1    1
     3     1     5    1
     4     1     3    1
     5     7     5    1
     6     6     5    1
     7     5     8    1
     8     8     9    1
