ETOH-pdb1a5v-A-THR-80:MIME-pdb1a5v-A-HIE-104
     RDKit          3D

 21 20  0  0  0  0  0  0  0  0999 V2000
   -2.2196   -4.6591   -2.5647 C   0  0  0  0  0  0  0  0  0  0  0  0
   -2.3971   -5.6098   -2.3306 H   0  0  0  0  0  0  0  0  0  0  0  0
   -3.0757   -4.1646   -2.6740 H   0  0  0  0  0  0  0  0  0  0  0  0
   -1.6794   -4.6035   -3.3979 H   0  0  0  0  0  0  0  0  0  0  0  0
   -1.4071   -4.0009   -1.3973 C   0  0  0  0  0  0  0  0  0  0  0  0
   -0.4839   -3.7218   -1.7112 H   0  0  0  0  0  0  0  0  0  0  0  0
   -1.2808   -4.6824   -0.5560 H   0  0  0  0  0  0  0  0  0  0  0  0
   -2.1167   -2.8414   -0.9552 O   0  0  0  0  0  0  0  0  0  0  0  0
   -1.6005   -2.3679   -0.2329 H   0  0  0  0  0  0  0  0  0  0  0  0
   -0.0236    2.6452    0.1071 C   0  0  0  0  0  0  0  0  0  0  0  0
    0.5780    2.9367    0.8579 H   0  0  0  0  0  0  0  0  0  0  0  0
   -0.9657    2.9179    0.3266 H   0  0  0  0  0  0  0  0  0  0  0  0
    0.2828    3.1576   -0.8047 H   0  0  0  0  0  0  0  0  0  0  0  0
    0.0292    1.1556    0.0060 C   0  0  0  0  0  0  0  0  0  0  0  0
    1.1004    0.3152    0.0000 C   0  0  0  0  0  0  0  0  0  0  0  0
    2.0637    0.6148   -0.0008 H   0  0  0  0  0  0  0  0  0  0  0  0
    0.6442   -0.9351   -0.0040 N   0  0  0  0  0  0  0  0  0  0  0  0
    1.1962   -1.7794   -0.0073 H   0  0  0  0  0  0  0  0  0  0  0  0
   -0.6734   -0.9031   -0.0019 C   0  0  0  0  0  0  0  0  0  0  0  0
   -1.2762   -1.7042   -0.0021 H   0  0  0  0  0  0  0  0  0  0  0  0
   -1.1004    0.3674   -0.0000 N   0  0  0  0  0  0  0  0  0  0  0  0
  1  5  1  0
  5  8  1  0
  1  2  1  0
  1  3  1  0
  1  4  1  0
  5  6  1  0
  5  7  1  0
  8  9  1  0
 10 14  1  0
 14 15  2  0
 15 17  1  0
 17 19  1  0
 19 21  2  0
 21 14  1  0
 10 11  1  0
 10 12  1  0
 10 13  1  0
 15 16  1  0
 17 18  1  0
 19 20  1  0
M  END
>  <PDB_ID>  (1) 
pdb1a5v

>  <RESIDUE_NAME>  (1) 
THR   HIE

>  <FRAG_NAME>  (1) 
ETOH   MIME

>  <FRAG_ATOM_NUM>  (1) 
fragi: 9  fragj: 12

>  <atom.prop.CHAIN_ID>  (1) 
A A A A A A A A A Z Z Z Z Z Z Z Z Z Z Z Z

>  <atom.prop.IS_HEAVY_ATOM>  (1) 
1 0 0 0 1 0 0 1 0 1 0 0 0 1 1 0 1 0 1 0 1

>  <DIFUSE_FUNC_ATOM>  (1) 
n/a

>  <FINAL_SINGLE_POINT_ENERGY>  (1) 
0

>  <NONCOV_INTER_ENERGY_QM>  (1) 
0

>  <FF_Energy>  (1) 
33.08

>  <QM_Energy>  (1) 
57.2

>  <source>  (1) 
ETOH_MIME

>  <Index>  (1) 
344

$$$$
ETOH-pdb6cxo-B-SER-512:MIME-pdb6cxo-B-HIE-196
     RDKit          3D

 21 20  0  0  0  0  0  0  0  0999 V2000
   -2.6337   -3.7923   -0.7390 C   0  0  0  0  0  0  0  0  0  0  0  0
   -2.2202   -3.1090   -1.3089 H   0  0  0  0  0  0  0  0  0  0  0  0
   -3.2361   -4.4414   -1.3746 H   0  0  0  0  0  0  0  0  0  0  0  0
   -1.8539   -4.4548   -0.3634 H   0  0  0  0  0  0  0  0  0  0  0  0
   -3.4519   -3.2006    0.3995 C   0  0  0  0  0  0  0  0  0  0  0  0
   -4.3193   -2.9012    0.0513 H   0  0  0  0  0  0  0  0  0  0  0  0
   -3.5434   -3.8697    1.1121 H   0  0  0  0  0  0  0  0  0  0  0  0
   -2.7351   -2.0853    0.8949 O   0  0  0  0  0  0  0  0  0  0  0  0
   -1.7542   -2.2555    0.8130 H   0  0  0  0  0  0  0  0  0  0  0  0
   -0.0712    2.6326    0.0616 C   0  0  0  0  0  0  0  0  0  0  0  0
   -0.8401    2.9200   -0.5228 H   0  0  0  0  0  0  0  0  0  0  0  0
    0.7779    3.0128   -0.3238 H   0  0  0  0  0  0  0  0  0  0  0  0
   -0.2170    3.0474    1.0590 H   0  0  0  0  0  0  0  0  0  0  0  0
    0.0196    1.1405    0.0262 C   0  0  0  0  0  0  0  0  0  0  0  0
    1.1095    0.3419    0.0000 C   0  0  0  0  0  0  0  0  0  0  0  0
    2.0606    0.6368   -0.0073 H   0  0  0  0  0  0  0  0  0  0  0  0
    0.6563   -0.9473   -0.0142 N   0  0  0  0  0  0  0  0  0  0  0  0
    1.2033   -1.7704   -0.0263 H   0  0  0  0  0  0  0  0  0  0  0  0
   -0.6759   -0.8920   -0.0119 C   0  0  0  0  0  0  0  0  0  0  0  0
   -1.2749   -1.7091   -0.0163 H   0  0  0  0  0  0  0  0  0  0  0  0
   -1.1095    0.3568   -0.0000 N   0  0  0  0  0  0  0  0  0  0  0  0
  1  5  1  0
  5  8  1  0
  1  2  1  0
  1  3  1  0
  1  4  1  0
  5  6  1  0
  5  7  1  0
  8  9  1  0
 10 14  1  0
 14 15  2  0
 15 17  1  0
 17 19  1  0
 19 21  2  0
 21 14  1  0
 10 11  1  0
 10 12  1  0
 10 13  1  0
 15 16  1  0
 17 18  1  0
 19 20  1  0
M  END
>  <PDB_ID>  (2) 
pdb6cxo

>  <RESIDUE_NAME>  (2) 
SER   HIE

>  <FRAG_NAME>  (2) 
ETOH   MIME

>  <FRAG_ATOM_NUM>  (2) 
fragi: 9  fragj: 12

>  <atom.prop.CHAIN_ID>  (2) 
A A A A A A A A A Z Z Z Z Z Z Z Z Z Z Z Z

>  <atom.prop.IS_HEAVY_ATOM>  (2) 
1 0 0 0 1 0 0 1 0 1 0 0 0 1 1 0 1 0 1 0 1

>  <DIFUSE_FUNC_ATOM>  (2) 
n/a

>  <FINAL_SINGLE_POINT_ENERGY>  (2) 
0

>  <NONCOV_INTER_ENERGY_QM>  (2) 
0

>  <FF_Energy>  (2) 
21.27

>  <QM_Energy>  (2) 
27.0

>  <source>  (2) 
ETOH_MIME

>  <Index>  (2) 
855

$$$$
ETOH-pdb2d1f-A-THR-324:MIME-pdb2d1f-A-HIE-191
     RDKit          3D

 21 20  0  0  0  0  0  0  0  0999 V2000
   -1.4676   -4.3051   -2.4764 C   0  0  0  0  0  0  0  0  0  0  0  0
   -0.5632   -4.6897   -2.6892 H   0  0  0  0  0  0  0  0  0  0  0  0
   -1.5519   -3.3313   -2.9587 H   0  0  0  0  0  0  0  0  0  0  0  0
   -2.2286   -4.9863   -2.8571 H   0  0  0  0  0  0  0  0  0  0  0  0
   -1.5174   -4.2298   -0.9406 C   0  0  0  0  0  0  0  0  0  0  0  0
   -2.3649   -3.7377   -0.6622 H   0  0  0  0  0  0  0  0  0  0  0  0
   -1.4927   -5.2287   -0.5049 H   0  0  0  0  0  0  0  0  0  0  0  0
   -0.3895   -3.4795   -0.4732 O   0  0  0  0  0  0  0  0  0  0  0  0
   -0.6814   -2.5709   -0.1565 H   0  0  0  0  0  0  0  0  0  0  0  0
   -0.1682    2.6432    0.0056 C   0  0  0  0  0  0  0  0  0  0  0  0
    0.7399    3.0535    0.1052 H   0  0  0  0  0  0  0  0  0  0  0  0
   -0.7266    2.8828    0.8025 H   0  0  0  0  0  0  0  0  0  0  0  0
   -0.6424    3.0303   -0.8963 H   0  0  0  0  0  0  0  0  0  0  0  0
   -0.0158    1.1646   -0.0347 C   0  0  0  0  0  0  0  0  0  0  0  0
    1.0917    0.3861    0.0000 C   0  0  0  0  0  0  0  0  0  0  0  0
    2.0372    0.7016    0.0121 H   0  0  0  0  0  0  0  0  0  0  0  0
    0.6678   -0.9181    0.0153 N   0  0  0  0  0  0  0  0  0  0  0  0
    1.2630   -1.7244    0.0219 H   0  0  0  0  0  0  0  0  0  0  0  0
   -0.6520   -0.9387    0.0195 C   0  0  0  0  0  0  0  0  0  0  0  0
   -1.2208   -1.7573    0.0356 H   0  0  0  0  0  0  0  0  0  0  0  0
   -1.0917    0.3060   -0.0000 N   0  0  0  0  0  0  0  0  0  0  0  0
  1  5  1  0
  5  8  1  0
  1  2  1  0
  1  3  1  0
  1  4  1  0
  5  6  1  0
  5  7  1  0
  8  9  1  0
 10 14  1  0
 14 15  2  0
 15 17  1  0
 17 19  1  0
 19 21  2  0
 21 14  1  0
 10 11  1  0
 10 12  1  0
 10 13  1  0
 15 16  1  0
 17 18  1  0
 19 20  1  0
M  END
>  <PDB_ID>  (3) 
pdb2d1f

>  <RESIDUE_NAME>  (3) 
THR   HIE

>  <FRAG_NAME>  (3) 
ETOH   MIME

>  <FRAG_ATOM_NUM>  (3) 
fragi: 9  fragj: 12

>  <atom.prop.CHAIN_ID>  (3) 
A A A A A A A A A Z Z Z Z Z Z Z Z Z Z Z Z

>  <atom.prop.IS_HEAVY_ATOM>  (3) 
1 0 0 0 1 0 0 1 0 1 0 0 0 1 1 0 1 0 1 0 1

>  <DIFUSE_FUNC_ATOM>  (3) 
n/a

>  <FINAL_SINGLE_POINT_ENERGY>  (3) 
0

>  <NONCOV_INTER_ENERGY_QM>  (3) 
0

>  <FF_Energy>  (3) 
10.67

>  <QM_Energy>  (3) 
26.32

>  <source>  (3) 
ETOH_MIME

>  <Index>  (3) 
1063

$$$$
ETOH-pdb4e1o-B-THR-154:MIME-pdb4e1o-B-HIE-271
     RDKit          3D

 21 20  0  0  0  0  0  0  0  0999 V2000
   -3.1954   -1.5581    2.8182 C   0  0  0  0  0  0  0  0  0  0  0  0
   -2.9249   -0.7747    2.2565 H   0  0  0  0  0  0  0  0  0  0  0  0
   -4.1083   -1.8645    2.5437 H   0  0  0  0  0  0  0  0  0  0  0  0
   -3.2127   -1.2863    3.7814 H   0  0  0  0  0  0  0  0  0  0  0  0
   -2.1923   -2.6983    2.6250 C   0  0  0  0  0  0  0  0  0  0  0  0
   -2.5185   -3.5442    3.0859 H   0  0  0  0  0  0  0  0  0  0  0  0
   -1.2095   -2.4402    3.0196 H   0  0  0  0  0  0  0  0  0  0  0  0
   -2.0700   -2.9681    1.2240 O   0  0  0  0  0  0  0  0  0  0  0  0
   -1.8135   -2.1323    0.7278 H   0  0  0  0  0  0  0  0  0  0  0  0
   -0.1775    2.6513   -0.0052 C   0  0  0  0  0  0  0  0  0  0  0  0
    0.3864    3.0362    0.7359 H   0  0  0  0  0  0  0  0  0  0  0  0
   -1.1423    2.8665    0.1880 H   0  0  0  0  0  0  0  0  0  0  0  0
    0.1069    3.1229   -0.9459 H   0  0  0  0  0  0  0  0  0  0  0  0
   -0.0169    1.1652    0.0030 C   0  0  0  0  0  0  0  0  0  0  0  0
    1.0905    0.3890   -0.0000 C   0  0  0  0  0  0  0  0  0  0  0  0
    2.0355    0.7034   -0.0015 H   0  0  0  0  0  0  0  0  0  0  0  0
    0.6691   -0.9174    0.0019 N   0  0  0  0  0  0  0  0  0  0  0  0
    1.2659   -1.7219    0.0067 H   0  0  0  0  0  0  0  0  0  0  0  0
   -0.6522   -0.9417   -0.0049 C   0  0  0  0  0  0  0  0  0  0  0  0
   -1.2190   -1.7592   -0.0119 H   0  0  0  0  0  0  0  0  0  0  0  0
   -1.0905    0.3049    0.0000 N   0  0  0  0  0  0  0  0  0  0  0  0
  1  5  1  0
  5  8  1  0
  1  2  1  0
  1  3  1  0
  1  4  1  0
  5  6  1  0
  5  7  1  0
  8  9  1  0
 10 14  1  0
 14 15  2  0
 15 17  1  0
 17 19  1  0
 19 21  2  0
 21 14  1  0
 10 11  1  0
 10 12  1  0
 10 13  1  0
 15 16  1  0
 17 18  1  0
 19 20  1  0
M  END
>  <PDB_ID>  (4) 
pdb4e1o

>  <RESIDUE_NAME>  (4) 
THR   HIE

>  <FRAG_NAME>  (4) 
ETOH   MIME

>  <FRAG_ATOM_NUM>  (4) 
fragi: 9  fragj: 12

>  <atom.prop.CHAIN_ID>  (4) 
A A A A A A A A A Z Z Z Z Z Z Z Z Z Z Z Z

>  <atom.prop.IS_HEAVY_ATOM>  (4) 
1 0 0 0 1 0 0 1 0 1 0 0 0 1 1 0 1 0 1 0 1

>  <DIFUSE_FUNC_ATOM>  (4) 
n/a

>  <FINAL_SINGLE_POINT_ENERGY>  (4) 
0

>  <NONCOV_INTER_ENERGY_QM>  (4) 
0

>  <FF_Energy>  (4) 
5.89

>  <QM_Energy>  (4) 
20.97

>  <source>  (4) 
ETOH_MIME

>  <Index>  (4) 
1237

$$$$
ETOH-pdb4e1o-F-THR-154:MIME-pdb4e1o-F-HIE-271
     RDKit          3D

 21 20  0  0  0  0  0  0  0  0999 V2000
   -3.4318   -1.5159    2.6561 C   0  0  0  0  0  0  0  0  0  0  0  0
   -4.2352   -1.7517    2.1092 H   0  0  0  0  0  0  0  0  0  0  0  0
   -3.6936   -1.4447    3.6191 H   0  0  0  0  0  0  0  0  0  0  0  0
   -3.0628   -0.6393    2.3452 H   0  0  0  0  0  0  0  0  0  0  0  0
   -2.3649   -2.6061    2.4949 C   0  0  0  0  0  0  0  0  0  0  0  0
   -2.6988   -3.4541    2.9461 H   0  0  0  0  0  0  0  0  0  0  0  0
   -1.4094   -2.3219    2.9356 H   0  0  0  0  0  0  0  0  0  0  0  0
   -2.1590   -2.8935    1.1017 O   0  0  0  0  0  0  0  0  0  0  0  0
   -1.9348   -2.0508    0.6026 H   0  0  0  0  0  0  0  0  0  0  0  0
   -0.1702    2.6572   -0.0383 C   0  0  0  0  0  0  0  0  0  0  0  0
    0.3691    3.0400    0.7211 H   0  0  0  0  0  0  0  0  0  0  0  0
   -1.1405    2.8748    0.1203 H   0  0  0  0  0  0  0  0  0  0  0  0
    0.1495    3.1205   -0.9717 H   0  0  0  0  0  0  0  0  0  0  0  0
   -0.0150    1.1671   -0.0189 C   0  0  0  0  0  0  0  0  0  0  0  0
    1.0917    0.3864   -0.0000 C   0  0  0  0  0  0  0  0  0  0  0  0
    2.0374    0.7002    0.0046 H   0  0  0  0  0  0  0  0  0  0  0  0
    0.6687   -0.9205    0.0119 N   0  0  0  0  0  0  0  0  0  0  0  0
    1.2627   -1.7260    0.0219 H   0  0  0  0  0  0  0  0  0  0  0  0
   -0.6537   -0.9405    0.0070 C   0  0  0  0  0  0  0  0  0  0  0  0
   -1.2229   -1.7574    0.0098 H   0  0  0  0  0  0  0  0  0  0  0  0
   -1.0917    0.3076    0.0000 N   0  0  0  0  0  0  0  0  0  0  0  0
  1  5  1  0
  5  8  1  0
  1  2  1  0
  1  3  1  0
  1  4  1  0
  5  6  1  0
  5  7  1  0
  8  9  1  0
 10 14  1  0
 14 15  2  0
 15 17  1  0
 17 19  1  0
 19 21  2  0
 21 14  1  0
 10 11  1  0
 10 12  1  0
 10 13  1  0
 15 16  1  0
 17 18  1  0
 19 20  1  0
M  END
>  <PDB_ID>  (5) 
pdb4e1o

>  <RESIDUE_NAME>  (5) 
THR   HIE

>  <FRAG_NAME>  (5) 
ETOH   MIME

>  <FRAG_ATOM_NUM>  (5) 
fragi: 9  fragj: 12

>  <atom.prop.CHAIN_ID>  (5) 
A A A A A A A A A Z Z Z Z Z Z Z Z Z Z Z Z

>  <atom.prop.IS_HEAVY_ATOM>  (5) 
1 0 0 0 1 0 0 1 0 1 0 0 0 1 1 0 1 0 1 0 1

>  <DIFUSE_FUNC_ATOM>  (5) 
n/a

>  <FINAL_SINGLE_POINT_ENERGY>  (5) 
0

>  <NONCOV_INTER_ENERGY_QM>  (5) 
0

>  <FF_Energy>  (5) 
9.33

>  <QM_Energy>  (5) 
26.48

>  <source>  (5) 
ETOH_MIME

>  <Index>  (5) 
1263

$$$$
ETOH-pdb1ds7-B-THR-215:MIME-pdb1ds7-A-HIE-47
     RDKit          3D

 21 20  0  0  0  0  0  0  0  0999 V2000
   -2.1326   -5.3484   -1.1894 C   0  0  0  0  0  0  0  0  0  0  0  0
   -1.5749   -5.8701   -0.5407 H   0  0  0  0  0  0  0  0  0  0  0  0
   -2.9781   -5.0567   -0.7374 H   0  0  0  0  0  0  0  0  0  0  0  0
   -2.3614   -5.9322   -1.9704 H   0  0  0  0  0  0  0  0  0  0  0  0
   -1.3572   -4.1268   -1.6689 C   0  0  0  0  0  0  0  0  0  0  0  0
   -1.9895   -3.3779   -1.9503 H   0  0  0  0  0  0  0  0  0  0  0  0
   -0.7182   -4.3818   -2.5143 H   0  0  0  0  0  0  0  0  0  0  0  0
   -0.5504   -3.6492   -0.5855 O   0  0  0  0  0  0  0  0  0  0  0  0
   -0.6958   -2.6643   -0.4492 H   0  0  0  0  0  0  0  0  0  0  0  0
   -0.1696    2.6523   -0.1089 C   0  0  0  0  0  0  0  0  0  0  0  0
    0.3738    3.0757    0.6196 H   0  0  0  0  0  0  0  0  0  0  0  0
   -1.1363    2.8796    0.0304 H   0  0  0  0  0  0  0  0  0  0  0  0
    0.1545    3.0470   -1.0719 H   0  0  0  0  0  0  0  0  0  0  0  0
   -0.0158    1.1671   -0.0097 C   0  0  0  0  0  0  0  0  0  0  0  0
    1.0906    0.3871   -0.0000 C   0  0  0  0  0  0  0  0  0  0  0  0
    2.0368    0.7016    0.0045 H   0  0  0  0  0  0  0  0  0  0  0  0
    0.6679   -0.9177    0.0044 N   0  0  0  0  0  0  0  0  0  0  0  0
    1.2639   -1.7236    0.0054 H   0  0  0  0  0  0  0  0  0  0  0  0
   -0.6521   -0.9410    0.0053 C   0  0  0  0  0  0  0  0  0  0  0  0
   -1.2200   -1.7591    0.0105 H   0  0  0  0  0  0  0  0  0  0  0  0
   -1.0906    0.3046    0.0000 N   0  0  0  0  0  0  0  0  0  0  0  0
  1  5  1  0
  5  8  1  0
  1  2  1  0
  1  3  1  0
  1  4  1  0
  5  6  1  0
  5  7  1  0
  8  9  1  0
 10 14  1  0
 14 15  2  0
 15 17  1  0
 17 19  1  0
 19 21  2  0
 21 14  1  0
 10 11  1  0
 10 12  1  0
 10 13  1  0
 15 16  1  0
 17 18  1  0
 19 20  1  0
M  END
>  <PDB_ID>  (6) 
pdb1ds7

>  <RESIDUE_NAME>  (6) 
THR   HIE

>  <FRAG_NAME>  (6) 
ETOH   MIME

>  <FRAG_ATOM_NUM>  (6) 
fragi: 9  fragj: 12

>  <atom.prop.CHAIN_ID>  (6) 
A A A A A A A A A Z Z Z Z Z Z Z Z Z Z Z Z

>  <atom.prop.IS_HEAVY_ATOM>  (6) 
1 0 0 0 1 0 0 1 0 1 0 0 0 1 1 0 1 0 1 0 1

>  <DIFUSE_FUNC_ATOM>  (6) 
n/a

>  <FINAL_SINGLE_POINT_ENERGY>  (6) 
0

>  <NONCOV_INTER_ENERGY_QM>  (6) 
0

>  <FF_Energy>  (6) 
4.74

>  <QM_Energy>  (6) 
14.03

>  <source>  (6) 
ETOH_MIME

>  <Index>  (6) 
1286

$$$$
ETOH-pdb1dty-A-THR-254:MIME-pdb1dty-A-HIE-262
     RDKit          3D

 21 20  0  0  0  0  0  0  0  0999 V2000
   -3.9984   -4.1086   -0.5195 C   0  0  0  0  0  0  0  0  0  0  0  0
   -4.2465   -4.7707   -1.2292 H   0  0  0  0  0  0  0  0  0  0  0  0
   -4.3559   -4.4215    0.3627 H   0  0  0  0  0  0  0  0  0  0  0  0
   -4.4036   -3.2202   -0.7424 H   0  0  0  0  0  0  0  0  0  0  0  0
   -2.4817   -3.9782   -0.4435 C   0  0  0  0  0  0  0  0  0  0  0  0
   -2.0582   -3.6753   -1.3273 H   0  0  0  0  0  0  0  0  0  0  0  0
   -2.0328   -4.9268   -0.1491 H   0  0  0  0  0  0  0  0  0  0  0  0
   -2.2330   -2.9682    0.5382 O   0  0  0  0  0  0  0  0  0  0  0  0
   -1.8652   -2.1392    0.1034 H   0  0  0  0  0  0  0  0  0  0  0  0
   -0.1667    2.6537    0.0008 C   0  0  0  0  0  0  0  0  0  0  0  0
   -1.1516    2.8734   -0.0480 H   0  0  0  0  0  0  0  0  0  0  0  0
    0.2721    3.0167   -0.8344 H   0  0  0  0  0  0  0  0  0  0  0  0
    0.2621    3.1568    0.8675 H   0  0  0  0  0  0  0  0  0  0  0  0
   -0.0155    1.1702    0.0035 C   0  0  0  0  0  0  0  0  0  0  0  0
    1.0873    0.3877   -0.0000 C   0  0  0  0  0  0  0  0  0  0  0  0
    2.0362    0.7005   -0.0004 H   0  0  0  0  0  0  0  0  0  0  0  0
    0.6678   -0.9228   -0.0016 N   0  0  0  0  0  0  0  0  0  0  0  0
    1.2642   -1.7250   -0.0031 H   0  0  0  0  0  0  0  0  0  0  0  0
   -0.6523   -0.9435   -0.0018 C   0  0  0  0  0  0  0  0  0  0  0  0
   -1.2227   -1.7575   -0.0018 H   0  0  0  0  0  0  0  0  0  0  0  0
   -1.0873    0.3084   -0.0000 N   0  0  0  0  0  0  0  0  0  0  0  0
  1  5  1  0
  5  8  1  0
  1  2  1  0
  1  3  1  0
  1  4  1  0
  5  6  1  0
  5  7  1  0
  8  9  1  0
 10 14  1  0
 14 15  2  0
 15 17  1  0
 17 19  1  0
 19 21  2  0
 21 14  1  0
 10 11  1  0
 10 12  1  0
 10 13  1  0
 15 16  1  0
 17 18  1  0
 19 20  1  0
M  END
>  <PDB_ID>  (7) 
pdb1dty

>  <RESIDUE_NAME>  (7) 
THR   HIE

>  <FRAG_NAME>  (7) 
ETOH   MIME

>  <FRAG_ATOM_NUM>  (7) 
fragi: 9  fragj: 12

>  <atom.prop.CHAIN_ID>  (7) 
A A A A A A A A A Z Z Z Z Z Z Z Z Z Z Z Z

>  <atom.prop.IS_HEAVY_ATOM>  (7) 
1 0 0 0 1 0 0 1 0 1 0 0 0 1 1 0 1 0 1 0 1

>  <DIFUSE_FUNC_ATOM>  (7) 
n/a

>  <FINAL_SINGLE_POINT_ENERGY>  (7) 
0

>  <NONCOV_INTER_ENERGY_QM>  (7) 
0

>  <FF_Energy>  (7) 
36.7

>  <QM_Energy>  (7) 
57.77

>  <source>  (7) 
ETOH_MIME

>  <Index>  (7) 
1328

$$$$
ETOH-pdb4e34-D-SER-8:MIME-pdb4e34-B-HIE-349
     RDKit          3D

 21 20  0  0  0  0  0  0  0  0999 V2000
   -0.3346   -5.2066   -0.5143 C   0  0  0  0  0  0  0  0  0  0  0  0
   -1.0475   -5.6888   -0.0057 H   0  0  0  0  0  0  0  0  0  0  0  0
    0.3706   -4.7886    0.2041 H   0  0  0  0  0  0  0  0  0  0  0  0
    0.1954   -5.9292   -1.1348 H   0  0  0  0  0  0  0  0  0  0  0  0
   -0.9036   -4.1055   -1.4135 C   0  0  0  0  0  0  0  0  0  0  0  0
   -0.1467   -3.6210   -1.8424 H   0  0  0  0  0  0  0  0  0  0  0  0
   -1.4770   -4.5277   -2.1108 H   0  0  0  0  0  0  0  0  0  0  0  0
   -1.6788   -3.1897   -0.6692 O   0  0  0  0  0  0  0  0  0  0  0  0
   -1.0910   -2.4639   -0.3128 H   0  0  0  0  0  0  0  0  0  0  0  0
   -0.1791    2.6525   -0.0196 C   0  0  0  0  0  0  0  0  0  0  0  0
    0.6374    3.0644    0.4061 H   0  0  0  0  0  0  0  0  0  0  0  0
   -0.9808    2.8899    0.5441 H   0  0  0  0  0  0  0  0  0  0  0  0
   -0.3108    3.0794   -1.0139 H   0  0  0  0  0  0  0  0  0  0  0  0
   -0.0177    1.1666   -0.0062 C   0  0  0  0  0  0  0  0  0  0  0  0
    1.0909    0.3914   -0.0000 C   0  0  0  0  0  0  0  0  0  0  0  0
    2.0357    0.7057    0.0027 H   0  0  0  0  0  0  0  0  0  0  0  0
    0.6687   -0.9180    0.0031 N   0  0  0  0  0  0  0  0  0  0  0  0
    1.2678   -1.7215    0.0051 H   0  0  0  0  0  0  0  0  0  0  0  0
   -0.6510   -0.9431    0.0032 C   0  0  0  0  0  0  0  0  0  0  0  0
   -1.2179   -1.7610    0.0066 H   0  0  0  0  0  0  0  0  0  0  0  0
   -1.0909    0.3031    0.0000 N   0  0  0  0  0  0  0  0  0  0  0  0
  1  5  1  0
  5  8  1  0
  1  2  1  0
  1  3  1  0
  1  4  1  0
  5  6  1  0
  5  7  1  0
  8  9  1  0
 10 14  1  0
 14 15  2  0
 15 17  1  0
 17 19  1  0
 19 21  2  0
 21 14  1  0
 10 11  1  0
 10 12  1  0
 10 13  1  0
 15 16  1  0
 17 18  1  0
 19 20  1  0
M  END
>  <PDB_ID>  (8) 
pdb4e34

>  <RESIDUE_NAME>  (8) 
SER   HIE

>  <FRAG_NAME>  (8) 
ETOH   MIME

>  <FRAG_ATOM_NUM>  (8) 
fragi: 9  fragj: 12

>  <atom.prop.CHAIN_ID>  (8) 
A A A A A A A A A Z Z Z Z Z Z Z Z Z Z Z Z

>  <atom.prop.IS_HEAVY_ATOM>  (8) 
1 0 0 0 1 0 0 1 0 1 0 0 0 1 1 0 1 0 1 0 1

>  <DIFUSE_FUNC_ATOM>  (8) 
n/a

>  <FINAL_SINGLE_POINT_ENERGY>  (8) 
0

>  <NONCOV_INTER_ENERGY_QM>  (8) 
0

>  <FF_Energy>  (8) 
41.23

>  <QM_Energy>  (8) 
57.87

>  <source>  (8) 
ETOH_MIME

>  <Index>  (8) 
1361

$$$$
ETOH-pdb5m43-A-SER-36:MIME-pdb5m43-A-HIE-54
     RDKit          3D

 21 20  0  0  0  0  0  0  0  0999 V2000
   -3.1435   -4.1070    2.1686 C   0  0  0  0  0  0  0  0  0  0  0  0
   -3.8185   -4.5730    1.6049 H   0  0  0  0  0  0  0  0  0  0  0  0
   -3.4856   -3.0857    2.3358 H   0  0  0  0  0  0  0  0  0  0  0  0
   -3.1036   -4.6111    3.1342 H   0  0  0  0  0  0  0  0  0  0  0  0
   -1.7776   -4.1378    1.4778 C   0  0  0  0  0  0  0  0  0  0  0  0
   -1.0885   -3.7912    2.1068 H   0  0  0  0  0  0  0  0  0  0  0  0
   -1.5659   -5.0761    1.2204 H   0  0  0  0  0  0  0  0  0  0  0  0
   -1.7676   -3.3275    0.2974 O   0  0  0  0  0  0  0  0  0  0  0  0
   -1.5181   -2.3951    0.5452 H   0  0  0  0  0  0  0  0  0  0  0  0
   -0.1709    2.6438   -0.0131 C   0  0  0  0  0  0  0  0  0  0  0  0
   -0.4166    2.9259   -0.9472 H   0  0  0  0  0  0  0  0  0  0  0  0
    0.7155    3.0586    0.2222 H   0  0  0  0  0  0  0  0  0  0  0  0
   -0.9275    3.0138    0.6788 H   0  0  0  0  0  0  0  0  0  0  0  0
   -0.0196    1.1638    0.0090 C   0  0  0  0  0  0  0  0  0  0  0  0
    1.0916    0.3868   -0.0000 C   0  0  0  0  0  0  0  0  0  0  0  0
    2.0348    0.7058   -0.0061 H   0  0  0  0  0  0  0  0  0  0  0  0
    0.6716   -0.9156    0.0029 N   0  0  0  0  0  0  0  0  0  0  0  0
    1.2658   -1.7224    0.0134 H   0  0  0  0  0  0  0  0  0  0  0  0
   -0.6520   -0.9392   -0.0119 C   0  0  0  0  0  0  0  0  0  0  0  0
   -1.2169   -1.7600   -0.0291 H   0  0  0  0  0  0  0  0  0  0  0  0
   -1.0916    0.3042    0.0000 N   0  0  0  0  0  0  0  0  0  0  0  0
  1  5  1  0
  5  8  1  0
  1  2  1  0
  1  3  1  0
  1  4  1  0
  5  6  1  0
  5  7  1  0
  8  9  1  0
 10 14  1  0
 14 15  2  0
 15 17  1  0
 17 19  1  0
 19 21  2  0
 21 14  1  0
 10 11  1  0
 10 12  1  0
 10 13  1  0
 15 16  1  0
 17 18  1  0
 19 20  1  0
M  END
>  <PDB_ID>  (9) 
pdb5m43

>  <RESIDUE_NAME>  (9) 
SER   HIE

>  <FRAG_NAME>  (9) 
ETOH   MIME

>  <FRAG_ATOM_NUM>  (9) 
fragi: 9  fragj: 12

>  <atom.prop.CHAIN_ID>  (9) 
A A A A A A A A A Z Z Z Z Z Z Z Z Z Z Z Z

>  <atom.prop.IS_HEAVY_ATOM>  (9) 
1 0 0 0 1 0 0 1 0 1 0 0 0 1 1 0 1 0 1 0 1

>  <DIFUSE_FUNC_ATOM>  (9) 
n/a

>  <FINAL_SINGLE_POINT_ENERGY>  (9) 
0

>  <NONCOV_INTER_ENERGY_QM>  (9) 
0

>  <FF_Energy>  (9) 
23.79

>  <QM_Energy>  (9) 
34.83

>  <source>  (9) 
ETOH_MIME

>  <Index>  (9) 
1769

$$$$
ETOH-pdb2dr3-F-SER-218:MIME-pdb2dr3-F-HIE-222
     RDKit          3D

 21 20  0  0  0  0  0  0  0  0999 V2000
   -2.7304   -5.1876   -0.0967 C   0  0  0  0  0  0  0  0  0  0  0  0
   -2.0493   -5.9085    0.0593 H   0  0  0  0  0  0  0  0  0  0  0  0
   -3.4377   -5.5427   -0.8461 H   0  0  0  0  0  0  0  0  0  0  0  0
   -3.2433   -5.0018    0.8470 H   0  0  0  0  0  0  0  0  0  0  0  0
   -2.0552   -3.9023   -0.5604 C   0  0  0  0  0  0  0  0  0  0  0  0
   -1.4538   -4.1095   -1.3194 H   0  0  0  0  0  0  0  0  0  0  0  0
   -2.7520   -3.2502   -0.8266 H   0  0  0  0  0  0  0  0  0  0  0  0
   -1.2914   -3.3568    0.5006 O   0  0  0  0  0  0  0  0  0  0  0  0
   -1.1254   -2.3870    0.3279 H   0  0  0  0  0  0  0  0  0  0  0  0
   -0.1742    2.6555   -0.0156 C   0  0  0  0  0  0  0  0  0  0  0  0
   -1.0976    2.8734   -0.3490 H   0  0  0  0  0  0  0  0  0  0  0  0
    0.4967    3.0381   -0.6598 H   0  0  0  0  0  0  0  0  0  0  0  0
   -0.0319    3.1232    0.9587 H   0  0  0  0  0  0  0  0  0  0  0  0
   -0.0168    1.1681    0.0017 C   0  0  0  0  0  0  0  0  0  0  0  0
    1.0916    0.3886    0.0000 C   0  0  0  0  0  0  0  0  0  0  0  0
    2.0372    0.7029    0.0002 H   0  0  0  0  0  0  0  0  0  0  0  0
    0.6690   -0.9188   -0.0015 N   0  0  0  0  0  0  0  0  0  0  0  0
    1.2658   -1.7238   -0.0047 H   0  0  0  0  0  0  0  0  0  0  0  0
   -0.6522   -0.9426   -0.0003 C   0  0  0  0  0  0  0  0  0  0  0  0
   -1.2196   -1.7608    0.0012 H   0  0  0  0  0  0  0  0  0  0  0  0
   -1.0916    0.3046   -0.0000 N   0  0  0  0  0  0  0  0  0  0  0  0
  1  5  1  0
  5  8  1  0
  1  2  1  0
  1  3  1  0
  1  4  1  0
  5  6  1  0
  5  7  1  0
  8  9  1  0
 10 14  1  0
 14 15  2  0
 15 17  1  0
 17 19  1  0
 19 21  2  0
 21 14  1  0
 10 11  1  0
 10 12  1  0
 10 13  1  0
 15 16  1  0
 17 18  1  0
 19 20  1  0
M  END
>  <PDB_ID>  (10) 
pdb2dr3

>  <RESIDUE_NAME>  (10) 
SER   HIE

>  <FRAG_NAME>  (10) 
ETOH   MIME

>  <FRAG_ATOM_NUM>  (10) 
fragi: 9  fragj: 12

>  <atom.prop.CHAIN_ID>  (10) 
A A A A A A A A A Z Z Z Z Z Z Z Z Z Z Z Z

>  <atom.prop.IS_HEAVY_ATOM>  (10) 
1 0 0 0 1 0 0 1 0 1 0 0 0 1 1 0 1 0 1 0 1

>  <DIFUSE_FUNC_ATOM>  (10) 
n/a

>  <FINAL_SINGLE_POINT_ENERGY>  (10) 
0

>  <NONCOV_INTER_ENERGY_QM>  (10) 
0

>  <FF_Energy>  (10) 
44.63

>  <QM_Energy>  (10) 
69.17

>  <source>  (10) 
ETOH_MIME

>  <Index>  (10) 
1966

$$$$
ETOH-pdb3ib3-A-SER-169:MIME-pdb3ib3-A-HIE-274
     RDKit          3D

 21 20  0  0  0  0  0  0  0  0999 V2000
   -0.5303   -2.4517   -2.9752 C   0  0  0  0  0  0  0  0  0  0  0  0
   -0.3308   -1.6293   -2.4297 H   0  0  0  0  0  0  0  0  0  0  0  0
   -1.1333   -2.1493   -3.8314 H   0  0  0  0  0  0  0  0  0  0  0  0
    0.4205   -2.8818   -3.2898 H   0  0  0  0  0  0  0  0  0  0  0  0
   -1.3067   -3.3484   -2.0115 C   0  0  0  0  0  0  0  0  0  0  0  0
   -2.1260   -2.8793   -1.7260 H   0  0  0  0  0  0  0  0  0  0  0  0
   -1.5123   -4.2007   -2.4630 H   0  0  0  0  0  0  0  0  0  0  0  0
   -0.4961   -3.6041   -0.8784 O   0  0  0  0  0  0  0  0  0  0  0  0
   -0.2242   -2.7381   -0.4603 H   0  0  0  0  0  0  0  0  0  0  0  0
   -0.1657    2.6485    0.0130 C   0  0  0  0  0  0  0  0  0  0  0  0
   -1.1400    2.8679    0.1523 H   0  0  0  0  0  0  0  0  0  0  0  0
    0.1069    2.9949   -0.8938 H   0  0  0  0  0  0  0  0  0  0  0  0
    0.4253    3.1522    0.7780 H   0  0  0  0  0  0  0  0  0  0  0  0
   -0.0134    1.1684    0.0139 C   0  0  0  0  0  0  0  0  0  0  0  0
    1.0969    0.3802   -0.0000 C   0  0  0  0  0  0  0  0  0  0  0  0
    2.0410    0.6956   -0.0063 H   0  0  0  0  0  0  0  0  0  0  0  0
    0.6706   -0.9239   -0.0023 N   0  0  0  0  0  0  0  0  0  0  0  0
    1.2581   -1.7314    0.0015 H   0  0  0  0  0  0  0  0  0  0  0  0
   -0.6572   -0.9388   -0.0116 C   0  0  0  0  0  0  0  0  0  0  0  0
   -1.2273   -1.7541   -0.0244 H   0  0  0  0  0  0  0  0  0  0  0  0
   -1.0969    0.3140    0.0000 N   0  0  0  0  0  0  0  0  0  0  0  0
  1  5  1  0
  5  8  1  0
  1  2  1  0
  1  3  1  0
  1  4  1  0
  5  6  1  0
  5  7  1  0
  8  9  1  0
 10 14  1  0
 14 15  2  0
 15 17  1  0
 17 19  1  0
 19 21  2  0
 21 14  1  0
 10 11  1  0
 10 12  1  0
 10 13  1  0
 15 16  1  0
 17 18  1  0
 19 20  1  0
M  END
>  <PDB_ID>  (11) 
pdb3ib3

>  <RESIDUE_NAME>  (11) 
SER   HIE

>  <FRAG_NAME>  (11) 
ETOH   MIME

>  <FRAG_ATOM_NUM>  (11) 
fragi: 9  fragj: 12

>  <atom.prop.CHAIN_ID>  (11) 
A A A A A A A A A Z Z Z Z Z Z Z Z Z Z Z Z

>  <atom.prop.IS_HEAVY_ATOM>  (11) 
1 0 0 0 1 0 0 1 0 1 0 0 0 1 1 0 1 0 1 0 1

>  <DIFUSE_FUNC_ATOM>  (11) 
n/a

>  <FINAL_SINGLE_POINT_ENERGY>  (11) 
0

>  <NONCOV_INTER_ENERGY_QM>  (11) 
0

>  <FF_Energy>  (11) 
3.16

>  <QM_Energy>  (11) 
9.61

>  <source>  (11) 
ETOH_MIME

>  <Index>  (11) 
1975

$$$$
ETOH-pdb2dsb-D-THR-58:MIME-pdb2dsb-D-HIE-142
     RDKit          3D

 21 20  0  0  0  0  0  0  0  0999 V2000
   -2.4508   -4.8689   -0.8676 C   0  0  0  0  0  0  0  0  0  0  0  0
   -1.8371   -5.6355   -0.6604 H   0  0  0  0  0  0  0  0  0  0  0  0
   -3.3865   -5.2169   -0.9665 H   0  0  0  0  0  0  0  0  0  0  0  0
   -2.1660   -4.4467   -1.7323 H   0  0  0  0  0  0  0  0  0  0  0  0
   -2.3958   -3.8448    0.2508 C   0  0  0  0  0  0  0  0  0  0  0  0
   -1.4272   -3.6594    0.5169 H   0  0  0  0  0  0  0  0  0  0  0  0
   -2.9310   -4.2183    1.1239 H   0  0  0  0  0  0  0  0  0  0  0  0
   -2.9808   -2.6141   -0.1980 O   0  0  0  0  0  0  0  0  0  0  0  0
   -2.3422   -1.8510   -0.0522 H   0  0  0  0  0  0  0  0  0  0  0  0
   -0.1832    2.6608    0.0582 C   0  0  0  0  0  0  0  0  0  0  0  0
   -1.1682    2.8687    0.0670 H   0  0  0  0  0  0  0  0  0  0  0  0
    0.2162    3.0496   -0.7795 H   0  0  0  0  0  0  0  0  0  0  0  0
    0.2855    3.1295    0.9234 H   0  0  0  0  0  0  0  0  0  0  0  0
   -0.0182    1.1697    0.0076 C   0  0  0  0  0  0  0  0  0  0  0  0
    1.0905    0.3922    0.0000 C   0  0  0  0  0  0  0  0  0  0  0  0
    2.0351    0.7062   -0.0012 H   0  0  0  0  0  0  0  0  0  0  0  0
    0.6688   -0.9174   -0.0030 N   0  0  0  0  0  0  0  0  0  0  0  0
    1.2686   -1.7213   -0.0051 H   0  0  0  0  0  0  0  0  0  0  0  0
   -0.6506   -0.9460   -0.0046 C   0  0  0  0  0  0  0  0  0  0  0  0
   -1.2172   -1.7641   -0.0076 H   0  0  0  0  0  0  0  0  0  0  0  0
   -1.0905    0.3015   -0.0000 N   0  0  0  0  0  0  0  0  0  0  0  0
  1  5  1  0
  5  8  1  0
  1  2  1  0
  1  3  1  0
  1  4  1  0
  5  6  1  0
  5  7  1  0
  8  9  1  0
 10 14  1  0
 14 15  2  0
 15 17  1  0
 17 19  1  0
 19 21  2  0
 21 14  1  0
 10 11  1  0
 10 12  1  0
 10 13  1  0
 15 16  1  0
 17 18  1  0
 19 20  1  0
M  END
>  <PDB_ID>  (12) 
pdb2dsb

>  <RESIDUE_NAME>  (12) 
THR   HIE

>  <FRAG_NAME>  (12) 
ETOH   MIME

>  <FRAG_ATOM_NUM>  (12) 
fragi: 9  fragj: 12

>  <atom.prop.CHAIN_ID>  (12) 
A A A A A A A A A Z Z Z Z Z Z Z Z Z Z Z Z

>  <atom.prop.IS_HEAVY_ATOM>  (12) 
1 0 0 0 1 0 0 1 0 1 0 0 0 1 1 0 1 0 1 0 1

>  <DIFUSE_FUNC_ATOM>  (12) 
n/a

>  <FINAL_SINGLE_POINT_ENERGY>  (12) 
0

>  <NONCOV_INTER_ENERGY_QM>  (12) 
0

>  <FF_Energy>  (12) 
5.34

>  <QM_Energy>  (12) 
15.55

>  <source>  (12) 
ETOH_MIME

>  <Index>  (12) 
2003

$$$$
ETOH-pdb6o0w-A-SER-83:MIME-pdb6o0w-A-HIE-116
     RDKit          3D

 21 20  0  0  0  0  0  0  0  0999 V2000
   -0.7868   -3.7775   -2.9663 C   0  0  0  0  0  0  0  0  0  0  0  0
    0.0560   -4.3121   -3.0373 H   0  0  0  0  0  0  0  0  0  0  0  0
   -0.5478   -2.7372   -3.1876 H   0  0  0  0  0  0  0  0  0  0  0  0
   -1.4890   -4.1498   -3.7121 H   0  0  0  0  0  0  0  0  0  0  0  0
   -1.4178   -3.9505   -1.5710 C   0  0  0  0  0  0  0  0  0  0  0  0
   -2.2095   -3.3508   -1.5067 H   0  0  0  0  0  0  0  0  0  0  0  0
   -1.6959   -4.9005   -1.4674 H   0  0  0  0  0  0  0  0  0  0  0  0
   -0.4982   -3.6203   -0.5482 O   0  0  0  0  0  0  0  0  0  0  0  0
   -0.5454   -2.6397   -0.3594 H   0  0  0  0  0  0  0  0  0  0  0  0
   -0.1824    2.6589    0.0334 C   0  0  0  0  0  0  0  0  0  0  0  0
    0.5735    3.0551    0.5699 H   0  0  0  0  0  0  0  0  0  0  0  0
   -1.0480    2.8764    0.5009 H   0  0  0  0  0  0  0  0  0  0  0  0
   -0.1922    3.1227   -0.9529 H   0  0  0  0  0  0  0  0  0  0  0  0
   -0.0177    1.1701    0.0142 C   0  0  0  0  0  0  0  0  0  0  0  0
    1.0905    0.3921    0.0000 C   0  0  0  0  0  0  0  0  0  0  0  0
    2.0361    0.7050   -0.0041 H   0  0  0  0  0  0  0  0  0  0  0  0
    0.6686   -0.9203   -0.0077 N   0  0  0  0  0  0  0  0  0  0  0  0
    1.2678   -1.7212   -0.0135 H   0  0  0  0  0  0  0  0  0  0  0  0
   -0.6509   -0.9440   -0.0065 C   0  0  0  0  0  0  0  0  0  0  0  0
   -1.2195   -1.7621   -0.0091 H   0  0  0  0  0  0  0  0  0  0  0  0
   -1.0905    0.3021   -0.0000 N   0  0  0  0  0  0  0  0  0  0  0  0
  1  5  1  0
  5  8  1  0
  1  2  1  0
  1  3  1  0
  1  4  1  0
  5  6  1  0
  5  7  1  0
  8  9  1  0
 10 14  1  0
 14 15  2  0
 15 17  1  0
 17 19  1  0
 19 21  2  0
 21 14  1  0
 10 11  1  0
 10 12  1  0
 10 13  1  0
 15 16  1  0
 17 18  1  0
 19 20  1  0
M  END
>  <PDB_ID>  (13) 
pdb6o0w

>  <RESIDUE_NAME>  (13) 
SER   HIE

>  <FRAG_NAME>  (13) 
ETOH   MIME

>  <FRAG_ATOM_NUM>  (13) 
fragi: 9  fragj: 12

>  <atom.prop.CHAIN_ID>  (13) 
A A A A A A A A A Z Z Z Z Z Z Z Z Z Z Z Z

>  <atom.prop.IS_HEAVY_ATOM>  (13) 
1 0 0 0 1 0 0 1 0 1 0 0 0 1 1 0 1 0 1 0 1

>  <DIFUSE_FUNC_ATOM>  (13) 
n/a

>  <FINAL_SINGLE_POINT_ENERGY>  (13) 
0

>  <NONCOV_INTER_ENERGY_QM>  (13) 
0

>  <FF_Energy>  (13) 
5.28

>  <QM_Energy>  (13) 
15.73

>  <source>  (13) 
ETOH_MIME

>  <Index>  (13) 
2128

$$$$
ETOH-pdb1m9u-A-THR-89:MIME-pdb1m9u-A-HIE-107
     RDKit          3D

 21 20  0  0  0  0  0  0  0  0999 V2000
   -3.4767   -3.7560    1.5911 C   0  0  0  0  0  0  0  0  0  0  0  0
   -4.2066   -3.9163    0.9342 H   0  0  0  0  0  0  0  0  0  0  0  0
   -3.4481   -2.6931    1.8311 H   0  0  0  0  0  0  0  0  0  0  0  0
   -3.7115   -4.2868    2.5137 H   0  0  0  0  0  0  0  0  0  0  0  0
   -2.1323   -4.2870    1.0989 C   0  0  0  0  0  0  0  0  0  0  0  0
   -1.4276   -4.1383    1.8228 H   0  0  0  0  0  0  0  0  0  0  0  0
   -2.2159   -5.3484    0.8654 H   0  0  0  0  0  0  0  0  0  0  0  0
   -1.7253   -3.5578   -0.0697 O   0  0  0  0  0  0  0  0  0  0  0  0
   -1.5932   -2.5868    0.1544 H   0  0  0  0  0  0  0  0  0  0  0  0
   -0.1744    2.6466   -0.0024 C   0  0  0  0  0  0  0  0  0  0  0  0
   -1.1022    2.8645   -0.3271 H   0  0  0  0  0  0  0  0  0  0  0  0
    0.4882    3.0352   -0.6549 H   0  0  0  0  0  0  0  0  0  0  0  0
   -0.0211    3.1013    0.9763 H   0  0  0  0  0  0  0  0  0  0  0  0
   -0.0148    1.1667    0.0004 C   0  0  0  0  0  0  0  0  0  0  0  0
    1.0928    0.3913   -0.0000 C   0  0  0  0  0  0  0  0  0  0  0  0
    2.0371    0.7029    0.0013 H   0  0  0  0  0  0  0  0  0  0  0  0
    0.6674   -0.9183   -0.0007 N   0  0  0  0  0  0  0  0  0  0  0  0
    1.2654   -1.7222   -0.0029 H   0  0  0  0  0  0  0  0  0  0  0  0
   -0.6527   -0.9437    0.0003 C   0  0  0  0  0  0  0  0  0  0  0  0
   -1.2205   -1.7614    0.0013 H   0  0  0  0  0  0  0  0  0  0  0  0
   -1.0928    0.3041    0.0000 N   0  0  0  0  0  0  0  0  0  0  0  0
  1  5  1  0
  5  8  1  0
  1  2  1  0
  1  3  1  0
  1  4  1  0
  5  6  1  0
  5  7  1  0
  8  9  1  0
 10 14  1  0
 14 15  2  0
 15 17  1  0
 17 19  1  0
 19 21  2  0
 21 14  1  0
 10 11  1  0
 10 12  1  0
 10 13  1  0
 15 16  1  0
 17 18  1  0
 19 20  1  0
M  END
>  <PDB_ID>  (14) 
pdb1m9u

>  <RESIDUE_NAME>  (14) 
THR   HIE

>  <FRAG_NAME>  (14) 
ETOH   MIME

>  <FRAG_ATOM_NUM>  (14) 
fragi: 9  fragj: 12

>  <atom.prop.CHAIN_ID>  (14) 
A A A A A A A A A Z Z Z Z Z Z Z Z Z Z Z Z

>  <atom.prop.IS_HEAVY_ATOM>  (14) 
1 0 0 0 1 0 0 1 0 1 0 0 0 1 1 0 1 0 1 0 1

>  <DIFUSE_FUNC_ATOM>  (14) 
n/a

>  <FINAL_SINGLE_POINT_ENERGY>  (14) 
0

>  <NONCOV_INTER_ENERGY_QM>  (14) 
0

>  <FF_Energy>  (14) 
10.72

>  <QM_Energy>  (14) 
28.8

>  <source>  (14) 
ETOH_MIME

>  <Index>  (14) 
2879

$$$$
ETOH-pdb1m9u-C-THR-89:MIME-pdb1m9u-C-HIE-107
     RDKit          3D

 21 20  0  0  0  0  0  0  0  0999 V2000
   -2.8098   -3.7327    2.7372 C   0  0  0  0  0  0  0  0  0  0  0  0
   -3.6170   -3.9894    2.2225 H   0  0  0  0  0  0  0  0  0  0  0  0
   -2.8239   -2.6561    2.9071 H   0  0  0  0  0  0  0  0  0  0  0  0
   -2.8631   -4.2019    3.7197 H   0  0  0  0  0  0  0  0  0  0  0  0
   -1.4908   -4.1786    2.0454 C   0  0  0  0  0  0  0  0  0  0  0  0
   -0.7060   -3.8664    2.6160 H   0  0  0  0  0  0  0  0  0  0  0  0
   -1.4568   -5.2615    1.9264 H   0  0  0  0  0  0  0  0  0  0  0  0
   -1.3869   -3.5600    0.7564 O   0  0  0  0  0  0  0  0  0  0  0  0
   -1.3484   -2.5598    0.8513 H   0  0  0  0  0  0  0  0  0  0  0  0
   -0.1820    2.6468   -0.1252 C   0  0  0  0  0  0  0  0  0  0  0  0
   -1.1396    2.8439   -0.3467 H   0  0  0  0  0  0  0  0  0  0  0  0
    0.4008    2.9730   -0.8732 H   0  0  0  0  0  0  0  0  0  0  0  0
    0.0868    3.1759    0.7890 H   0  0  0  0  0  0  0  0  0  0  0  0
   -0.0170    1.1666   -0.0079 C   0  0  0  0  0  0  0  0  0  0  0  0
    1.0902    0.3900    0.0000 C   0  0  0  0  0  0  0  0  0  0  0  0
    2.0358    0.7044    0.0033 H   0  0  0  0  0  0  0  0  0  0  0  0
    0.6675   -0.9172    0.0044 N   0  0  0  0  0  0  0  0  0  0  0  0
    1.2659   -1.7217    0.0068 H   0  0  0  0  0  0  0  0  0  0  0  0
   -0.6505   -0.9413    0.0036 C   0  0  0  0  0  0  0  0  0  0  0  0
   -1.2184   -1.7611    0.0077 H   0  0  0  0  0  0  0  0  0  0  0  0
   -1.0902    0.3019   -0.0000 N   0  0  0  0  0  0  0  0  0  0  0  0
  1  5  1  0
  5  8  1  0
  1  2  1  0
  1  3  1  0
  1  4  1  0
  5  6  1  0
  5  7  1  0
  8  9  1  0
 10 14  1  0
 14 15  2  0
 15 17  1  0
 17 19  1  0
 19 21  2  0
 21 14  1  0
 10 11  1  0
 10 12  1  0
 10 13  1  0
 15 16  1  0
 17 18  1  0
 19 20  1  0
M  END
>  <PDB_ID>  (15) 
pdb1m9u

>  <RESIDUE_NAME>  (15) 
THR   HIE

>  <FRAG_NAME>  (15) 
ETOH   MIME

>  <FRAG_ATOM_NUM>  (15) 
fragi: 9  fragj: 12

>  <atom.prop.CHAIN_ID>  (15) 
A A A A A A A A A Z Z Z Z Z Z Z Z Z Z Z Z

>  <atom.prop.IS_HEAVY_ATOM>  (15) 
1 0 0 0 1 0 0 1 0 1 0 0 0 1 1 0 1 0 1 0 1

>  <DIFUSE_FUNC_ATOM>  (15) 
n/a

>  <FINAL_SINGLE_POINT_ENERGY>  (15) 
0

>  <NONCOV_INTER_ENERGY_QM>  (15) 
0

>  <FF_Energy>  (15) 
4.21

>  <QM_Energy>  (15) 
11.98

>  <source>  (15) 
ETOH_MIME

>  <Index>  (15) 
2883

$$$$
ETOH-pdb3isa-C-SER-98:MIME-pdb3isa-C-HIE-48
     RDKit          3D

 21 20  0  0  0  0  0  0  0  0999 V2000
    0.1820   -3.1756    3.1047 C   0  0  0  0  0  0  0  0  0  0  0  0
    0.5640   -2.2777    2.8297 H   0  0  0  0  0  0  0  0  0  0  0  0
    1.0141   -3.8382    3.3427 H   0  0  0  0  0  0  0  0  0  0  0  0
   -0.4871   -2.9991    3.9469 H   0  0  0  0  0  0  0  0  0  0  0  0
   -0.6461   -3.7521    1.9642 C   0  0  0  0  0  0  0  0  0  0  0  0
   -0.0473   -3.9662    1.2041 H   0  0  0  0  0  0  0  0  0  0  0  0
   -1.1165   -4.5647    2.2834 H   0  0  0  0  0  0  0  0  0  0  0  0
   -1.6128   -2.8014    1.5350 O   0  0  0  0  0  0  0  0  0  0  0  0
   -1.1469   -1.9969    1.1704 H   0  0  0  0  0  0  0  0  0  0  0  0
   -0.1660    2.6624   -0.0538 C   0  0  0  0  0  0  0  0  0  0  0  0
    0.4316    3.0247   -0.7737 H   0  0  0  0  0  0  0  0  0  0  0  0
    0.1364    3.0259    0.8318 H   0  0  0  0  0  0  0  0  0  0  0  0
   -1.1884    2.9903   -0.2416 H   0  0  0  0  0  0  0  0  0  0  0  0
   -0.0141    1.1664   -0.0247 C   0  0  0  0  0  0  0  0  0  0  0  0
    1.0908    0.3848    0.0000 C   0  0  0  0  0  0  0  0  0  0  0  0
    2.0371    0.6997    0.0055 H   0  0  0  0  0  0  0  0  0  0  0  0
    0.6669   -0.9160    0.0167 N   0  0  0  0  0  0  0  0  0  0  0  0
    1.2621   -1.7247    0.0326 H   0  0  0  0  0  0  0  0  0  0  0  0
   -0.6528   -0.9402    0.0081 C   0  0  0  0  0  0  0  0  0  0  0  0
   -1.2205   -1.7587    0.0091 H   0  0  0  0  0  0  0  0  0  0  0  0
   -1.0908    0.3050   -0.0000 N   0  0  0  0  0  0  0  0  0  0  0  0
  1  5  1  0
  5  8  1  0
  1  2  1  0
  1  3  1  0
  1  4  1  0
  5  6  1  0
  5  7  1  0
  8  9  1  0
 10 14  1  0
 14 15  2  0
 15 17  1  0
 17 19  1  0
 19 21  2  0
 21 14  1  0
 10 11  1  0
 10 12  1  0
 10 13  1  0
 15 16  1  0
 17 18  1  0
 19 20  1  0
M  END
>  <PDB_ID>  (16) 
pdb3isa

>  <RESIDUE_NAME>  (16) 
SER   HIE

>  <FRAG_NAME>  (16) 
ETOH   MIME

>  <FRAG_ATOM_NUM>  (16) 
fragi: 9  fragj: 12

>  <atom.prop.CHAIN_ID>  (16) 
A A A A A A A A A Z Z Z Z Z Z Z Z Z Z Z Z

>  <atom.prop.IS_HEAVY_ATOM>  (16) 
1 0 0 0 1 0 0 1 0 1 0 0 0 1 1 0 1 0 1 0 1

>  <DIFUSE_FUNC_ATOM>  (16) 
n/a

>  <FINAL_SINGLE_POINT_ENERGY>  (16) 
0

>  <NONCOV_INTER_ENERGY_QM>  (16) 
0

>  <FF_Energy>  (16) 
9.13

>  <QM_Energy>  (16) 
19.14

>  <source>  (16) 
ETOH_MIME

>  <Index>  (16) 
2922

$$$$
ETOH-pdb3isa-D-SER-98:MIME-pdb3isa-D-HIE-48
     RDKit          3D

 21 20  0  0  0  0  0  0  0  0999 V2000
    0.6328   -3.0973    3.1123 C   0  0  0  0  0  0  0  0  0  0  0  0
    1.0462   -2.2527    2.7591 H   0  0  0  0  0  0  0  0  0  0  0  0
    1.4364   -3.7958    3.3456 H   0  0  0  0  0  0  0  0  0  0  0  0
    0.0640   -2.8354    4.0044 H   0  0  0  0  0  0  0  0  0  0  0  0
   -0.3074   -3.6900    2.0730 C   0  0  0  0  0  0  0  0  0  0  0  0
    0.2220   -3.9668    1.2740 H   0  0  0  0  0  0  0  0  0  0  0  0
   -0.7671   -4.4851    2.4654 H   0  0  0  0  0  0  0  0  0  0  0  0
   -1.2948   -2.7507    1.6624 O   0  0  0  0  0  0  0  0  0  0  0  0
   -1.0152   -2.3326    0.8002 H   0  0  0  0  0  0  0  0  0  0  0  0
   -0.1686    2.6635   -0.0136 C   0  0  0  0  0  0  0  0  0  0  0  0
    0.3825    3.0330   -0.7679 H   0  0  0  0  0  0  0  0  0  0  0  0
    0.1932    3.0184    0.8540 H   0  0  0  0  0  0  0  0  0  0  0  0
   -1.2001    2.9958   -0.1308 H   0  0  0  0  0  0  0  0  0  0  0  0
   -0.0153    1.1675   -0.0087 C   0  0  0  0  0  0  0  0  0  0  0  0
    1.0902    0.3843   -0.0000 C   0  0  0  0  0  0  0  0  0  0  0  0
    2.0370    0.6992   -0.0008 H   0  0  0  0  0  0  0  0  0  0  0  0
    0.6671   -0.9187    0.0108 N   0  0  0  0  0  0  0  0  0  0  0  0
    1.2625   -1.7248    0.0252 H   0  0  0  0  0  0  0  0  0  0  0  0
   -0.6518   -0.9392   -0.0021 C   0  0  0  0  0  0  0  0  0  0  0  0
   -1.2208   -1.7580   -0.0109 H   0  0  0  0  0  0  0  0  0  0  0  0
   -1.0902    0.3061    0.0000 N   0  0  0  0  0  0  0  0  0  0  0  0
  1  5  1  0
  5  8  1  0
  1  2  1  0
  1  3  1  0
  1  4  1  0
  5  6  1  0
  5  7  1  0
  8  9  1  0
 10 14  1  0
 14 15  2  0
 15 17  1  0
 17 19  1  0
 19 21  2  0
 21 14  1  0
 10 11  1  0
 10 12  1  0
 10 13  1  0
 15 16  1  0
 17 18  1  0
 19 20  1  0
M  END
>  <PDB_ID>  (17) 
pdb3isa

>  <RESIDUE_NAME>  (17) 
SER   HIE

>  <FRAG_NAME>  (17) 
ETOH   MIME

>  <FRAG_ATOM_NUM>  (17) 
fragi: 9  fragj: 12

>  <atom.prop.CHAIN_ID>  (17) 
A A A A A A A A A Z Z Z Z Z Z Z Z Z Z Z Z

>  <atom.prop.IS_HEAVY_ATOM>  (17) 
1 0 0 0 1 0 0 1 0 1 0 0 0 1 1 0 1 0 1 0 1

>  <DIFUSE_FUNC_ATOM>  (17) 
n/a

>  <FINAL_SINGLE_POINT_ENERGY>  (17) 
0

>  <NONCOV_INTER_ENERGY_QM>  (17) 
0

>  <FF_Energy>  (17) 
14.19

>  <QM_Energy>  (17) 
29.78

>  <source>  (17) 
ETOH_MIME

>  <Index>  (17) 
2925

$$$$
ETOH-pdb3isa-F-SER-98:MIME-pdb3isa-F-HIE-48
     RDKit          3D

 21 20  0  0  0  0  0  0  0  0999 V2000
    0.4082   -3.4491    2.9028 C   0  0  0  0  0  0  0  0  0  0  0  0
    0.8456   -2.5896    2.6060 H   0  0  0  0  0  0  0  0  0  0  0  0
    1.1846   -4.2062    3.0124 H   0  0  0  0  0  0  0  0  0  0  0  0
   -0.1022   -3.2497    3.8450 H   0  0  0  0  0  0  0  0  0  0  0  0
   -0.6400   -3.8744    1.8730 C   0  0  0  0  0  0  0  0  0  0  0  0
   -0.1899   -4.0097    0.9972 H   0  0  0  0  0  0  0  0  0  0  0  0
   -1.0618   -4.7210    2.1793 H   0  0  0  0  0  0  0  0  0  0  0  0
   -1.6346   -2.8832    1.7373 O   0  0  0  0  0  0  0  0  0  0  0  0
   -1.2642   -2.1013    1.2356 H   0  0  0  0  0  0  0  0  0  0  0  0
   -0.1914    2.6669    0.0437 C   0  0  0  0  0  0  0  0  0  0  0  0
    0.2241    3.0401   -0.7943 H   0  0  0  0  0  0  0  0  0  0  0  0
    0.3152    3.0286    0.8353 H   0  0  0  0  0  0  0  0  0  0  0  0
   -1.2270    3.0013    0.1045 H   0  0  0  0  0  0  0  0  0  0  0  0
   -0.0192    1.1687    0.0241 C   0  0  0  0  0  0  0  0  0  0  0  0
    1.0899    0.3883   -0.0000 C   0  0  0  0  0  0  0  0  0  0  0  0
    2.0342    0.7059   -0.0098 H   0  0  0  0  0  0  0  0  0  0  0  0
    0.6693   -0.9154   -0.0089 N   0  0  0  0  0  0  0  0  0  0  0  0
    1.2672   -1.7209   -0.0109 H   0  0  0  0  0  0  0  0  0  0  0  0
   -0.6501   -0.9427   -0.0153 C   0  0  0  0  0  0  0  0  0  0  0  0
   -1.2152   -1.7620   -0.0288 H   0  0  0  0  0  0  0  0  0  0  0  0
   -1.0899    0.3011    0.0000 N   0  0  0  0  0  0  0  0  0  0  0  0
  1  5  1  0
  5  8  1  0
  1  2  1  0
  1  3  1  0
  1  4  1  0
  5  6  1  0
  5  7  1  0
  8  9  1  0
 10 14  1  0
 14 15  2  0
 15 17  1  0
 17 19  1  0
 19 21  2  0
 21 14  1  0
 10 11  1  0
 10 12  1  0
 10 13  1  0
 15 16  1  0
 17 18  1  0
 19 20  1  0
M  END
>  <PDB_ID>  (18) 
pdb3isa

>  <RESIDUE_NAME>  (18) 
SER   HIE

>  <FRAG_NAME>  (18) 
ETOH   MIME

>  <FRAG_ATOM_NUM>  (18) 
fragi: 9  fragj: 12

>  <atom.prop.CHAIN_ID>  (18) 
A A A A A A A A A Z Z Z Z Z Z Z Z Z Z Z Z

>  <atom.prop.IS_HEAVY_ATOM>  (18) 
1 0 0 0 1 0 0 1 0 1 0 0 0 1 1 0 1 0 1 0 1

>  <DIFUSE_FUNC_ATOM>  (18) 
n/a

>  <FINAL_SINGLE_POINT_ENERGY>  (18) 
0

>  <NONCOV_INTER_ENERGY_QM>  (18) 
0

>  <FF_Energy>  (18) 
3.44

>  <QM_Energy>  (18) 
9.34

>  <source>  (18) 
ETOH_MIME

>  <Index>  (18) 
2929

$$$$
ETOH-pdb1mhy-G-SER-66:MIME-pdb1mhy-B-HIE-315
     RDKit          3D

 21 20  0  0  0  0  0  0  0  0999 V2000
   -4.0142   -2.8501   -1.0647 C   0  0  0  0  0  0  0  0  0  0  0  0
   -4.1451   -3.4169   -0.2491 H   0  0  0  0  0  0  0  0  0  0  0  0
   -4.7492   -3.1365   -1.8171 H   0  0  0  0  0  0  0  0  0  0  0  0
   -4.1729   -1.8152   -0.7617 H   0  0  0  0  0  0  0  0  0  0  0  0
   -2.5838   -3.0909   -1.5794 C   0  0  0  0  0  0  0  0  0  0  0  0
   -2.5834   -3.9064   -2.1479 H   0  0  0  0  0  0  0  0  0  0  0  0
   -2.2995   -2.2992   -2.1091 H   0  0  0  0  0  0  0  0  0  0  0  0
   -1.6747   -3.2772   -0.4997 O   0  0  0  0  0  0  0  0  0  0  0  0
   -1.3571   -2.3873   -0.1791 H   0  0  0  0  0  0  0  0  0  0  0  0
   -0.1865    2.6591   -0.0745 C   0  0  0  0  0  0  0  0  0  0  0  0
   -1.1126    2.8681   -0.4078 H   0  0  0  0  0  0  0  0  0  0  0  0
    0.4806    3.0294   -0.7310 H   0  0  0  0  0  0  0  0  0  0  0  0
   -0.0446    3.1696    0.8780 H   0  0  0  0  0  0  0  0  0  0  0  0
   -0.0230    1.1687   -0.0135 C   0  0  0  0  0  0  0  0  0  0  0  0
    1.0904    0.3934    0.0000 C   0  0  0  0  0  0  0  0  0  0  0  0
    2.0331    0.7120    0.0047 H   0  0  0  0  0  0  0  0  0  0  0  0
    0.6714   -0.9154    0.0071 N   0  0  0  0  0  0  0  0  0  0  0  0
    1.2513   -1.7102    0.0158 H   0  0  0  0  0  0  0  0  0  0  0  0
   -0.6484   -0.9454    0.0064 C   0  0  0  0  0  0  0  0  0  0  0  0
   -1.2120   -1.7654    0.0116 H   0  0  0  0  0  0  0  0  0  0  0  0
   -1.0904    0.2986   -0.0000 N   0  0  0  0  0  0  0  0  0  0  0  0
  1  5  1  0
  5  8  1  0
  1  2  1  0
  1  3  1  0
  1  4  1  0
  5  6  1  0
  5  7  1  0
  8  9  1  0
 10 14  1  0
 14 15  2  0
 15 17  1  0
 17 19  1  0
 19 21  2  0
 21 14  1  0
 10 11  1  0
 10 12  1  0
 10 13  1  0
 15 16  1  0
 17 18  1  0
 19 20  1  0
M  END
>  <PDB_ID>  (19) 
pdb1mhy

>  <RESIDUE_NAME>  (19) 
SER   HIE

>  <FRAG_NAME>  (19) 
ETOH   MIME

>  <FRAG_ATOM_NUM>  (19) 
fragi: 9  fragj: 12

>  <atom.prop.CHAIN_ID>  (19) 
A A A A A A A A A Z Z Z Z Z Z Z Z Z Z Z Z

>  <atom.prop.IS_HEAVY_ATOM>  (19) 
1 0 0 0 1 0 0 1 0 1 0 0 0 1 1 0 1 0 1 0 1

>  <DIFUSE_FUNC_ATOM>  (19) 
n/a

>  <FINAL_SINGLE_POINT_ENERGY>  (19) 
0

>  <NONCOV_INTER_ENERGY_QM>  (19) 
0

>  <FF_Energy>  (19) 
58.28

>  <QM_Energy>  (19) 
78.01

>  <source>  (19) 
ETOH_MIME

>  <Index>  (19) 
3086

$$$$
ETOH-pdb1n1m-A-SER-630:MIME-pdb1n1m-A-HIE-740
     RDKit          3D

 21 20  0  0  0  0  0  0  0  0999 V2000
    1.0683   -4.3849   -1.4400 C   0  0  0  0  0  0  0  0  0  0  0  0
    1.7231   -3.7361   -1.0460 H   0  0  0  0  0  0  0  0  0  0  0  0
    1.1457   -4.3341   -2.5261 H   0  0  0  0  0  0  0  0  0  0  0  0
    1.3384   -5.3811   -1.0898 H   0  0  0  0  0  0  0  0  0  0  0  0
   -0.3626   -4.0298   -1.0360 C   0  0  0  0  0  0  0  0  0  0  0  0
   -0.6837   -3.2870   -1.6160 H   0  0  0  0  0  0  0  0  0  0  0  0
   -0.9373   -4.8338   -1.1581 H   0  0  0  0  0  0  0  0  0  0  0  0
   -0.4170   -3.6219    0.3131 O   0  0  0  0  0  0  0  0  0  0  0  0
   -0.5910   -2.6377    0.3604 H   0  0  0  0  0  0  0  0  0  0  0  0
   -0.1782    2.6532    0.0443 C   0  0  0  0  0  0  0  0  0  0  0  0
    0.3145    3.0037    0.8463 H   0  0  0  0  0  0  0  0  0  0  0  0
   -1.1554    2.8610    0.1486 H   0  0  0  0  0  0  0  0  0  0  0  0
    0.1970    3.1506   -0.8500 H   0  0  0  0  0  0  0  0  0  0  0  0
   -0.0149    1.1676    0.0024 C   0  0  0  0  0  0  0  0  0  0  0  0
    1.0908    0.3890   -0.0000 C   0  0  0  0  0  0  0  0  0  0  0  0
    2.0376    0.7024    0.0011 H   0  0  0  0  0  0  0  0  0  0  0  0
    0.6680   -0.9178   -0.0014 N   0  0  0  0  0  0  0  0  0  0  0  0
    1.2648   -1.7231   -0.0040 H   0  0  0  0  0  0  0  0  0  0  0  0
   -0.6531   -0.9420   -0.0010 C   0  0  0  0  0  0  0  0  0  0  0  0
   -1.2199   -1.7609   -0.0007 H   0  0  0  0  0  0  0  0  0  0  0  0
   -1.0908    0.3032   -0.0000 N   0  0  0  0  0  0  0  0  0  0  0  0
  1  5  1  0
  5  8  1  0
  1  2  1  0
  1  3  1  0
  1  4  1  0
  5  6  1  0
  5  7  1  0
  8  9  1  0
 10 14  1  0
 14 15  2  0
 15 17  1  0
 17 19  1  0
 19 21  2  0
 21 14  1  0
 10 11  1  0
 10 12  1  0
 10 13  1  0
 15 16  1  0
 17 18  1  0
 19 20  1  0
M  END
>  <PDB_ID>  (20) 
pdb1n1m

>  <RESIDUE_NAME>  (20) 
SER   HIE

>  <FRAG_NAME>  (20) 
ETOH   MIME

>  <FRAG_ATOM_NUM>  (20) 
fragi: 9  fragj: 12

>  <atom.prop.CHAIN_ID>  (20) 
A A A A A A A A A Z Z Z Z Z Z Z Z Z Z Z Z

>  <atom.prop.IS_HEAVY_ATOM>  (20) 
1 0 0 0 1 0 0 1 0 1 0 0 0 1 1 0 1 0 1 0 1

>  <DIFUSE_FUNC_ATOM>  (20) 
n/a

>  <FINAL_SINGLE_POINT_ENERGY>  (20) 
0

>  <NONCOV_INTER_ENERGY_QM>  (20) 
0

>  <FF_Energy>  (20) 
6.58

>  <QM_Energy>  (20) 
16.51

>  <source>  (20) 
ETOH_MIME

>  <Index>  (20) 
3641

$$$$
ETOH-pdb4kpk-A-THR-9:MIME-pdb4kpk-A-HIE-55
     RDKit          3D

 21 20  0  0  0  0  0  0  0  0999 V2000
   -2.9060   -3.8564    1.9891 C   0  0  0  0  0  0  0  0  0  0  0  0
   -2.9022   -3.4319    2.8950 H   0  0  0  0  0  0  0  0  0  0  0  0
   -3.2950   -3.2179    1.3243 H   0  0  0  0  0  0  0  0  0  0  0  0
   -3.4617   -4.6886    2.0141 H   0  0  0  0  0  0  0  0  0  0  0  0
   -1.4717   -4.2096    1.5827 C   0  0  0  0  0  0  0  0  0  0  0  0
   -1.3688   -5.2167    1.5586 H   0  0  0  0  0  0  0  0  0  0  0  0
   -0.7520   -3.7954    2.2887 H   0  0  0  0  0  0  0  0  0  0  0  0
   -1.1531   -3.6953    0.2743 O   0  0  0  0  0  0  0  0  0  0  0  0
   -0.8741   -2.7329    0.3398 H   0  0  0  0  0  0  0  0  0  0  0  0
   -0.1935    2.6312    0.0391 C   0  0  0  0  0  0  0  0  0  0  0  0
    0.3722    3.0063    0.7887 H   0  0  0  0  0  0  0  0  0  0  0  0
   -1.1605    2.8350    0.2536 H   0  0  0  0  0  0  0  0  0  0  0  0
    0.0784    3.1170   -0.8979 H   0  0  0  0  0  0  0  0  0  0  0  0
   -0.0236    1.1620    0.0210 C   0  0  0  0  0  0  0  0  0  0  0  0
    1.0942    0.3942   -0.0000 C   0  0  0  0  0  0  0  0  0  0  0  0
    2.0333    0.7141   -0.0127 H   0  0  0  0  0  0  0  0  0  0  0  0
    0.6725   -0.9115    0.0002 N   0  0  0  0  0  0  0  0  0  0  0  0
    1.2715   -1.7169    0.0143 H   0  0  0  0  0  0  0  0  0  0  0  0
   -0.6489   -0.9437   -0.0211 C   0  0  0  0  0  0  0  0  0  0  0  0
   -1.2103   -1.7652   -0.0485 H   0  0  0  0  0  0  0  0  0  0  0  0
   -1.0942    0.2990    0.0000 N   0  0  0  0  0  0  0  0  0  0  0  0
  1  5  1  0
  5  8  1  0
  1  2  1  0
  1  3  1  0
  1  4  1  0
  5  6  1  0
  5  7  1  0
  8  9  1  0
 10 14  1  0
 14 15  2  0
 15 17  1  0
 17 19  1  0
 19 21  2  0
 21 14  1  0
 10 11  1  0
 10 12  1  0
 10 13  1  0
 15 16  1  0
 17 18  1  0
 19 20  1  0
M  END
>  <PDB_ID>  (21) 
pdb4kpk

>  <RESIDUE_NAME>  (21) 
THR   HIE

>  <FRAG_NAME>  (21) 
ETOH   MIME

>  <FRAG_ATOM_NUM>  (21) 
fragi: 9  fragj: 12

>  <atom.prop.CHAIN_ID>  (21) 
A A A A A A A A A Z Z Z Z Z Z Z Z Z Z Z Z

>  <atom.prop.IS_HEAVY_ATOM>  (21) 
1 0 0 0 1 0 0 1 0 1 0 0 0 1 1 0 1 0 1 0 1

>  <DIFUSE_FUNC_ATOM>  (21) 
n/a

>  <FINAL_SINGLE_POINT_ENERGY>  (21) 
0

>  <NONCOV_INTER_ENERGY_QM>  (21) 
0

>  <FF_Energy>  (21) 
6.86

>  <QM_Energy>  (21) 
17.21

>  <source>  (21) 
ETOH_MIME

>  <Index>  (21) 
3811

$$$$
ETOH-pdb4kpq-E-SER-228:MIME-pdb4kpq-E-HIE-183
     RDKit          3D

 21 20  0  0  0  0  0  0  0  0999 V2000
   -1.9171   -4.1140    3.3652 C   0  0  0  0  0  0  0  0  0  0  0  0
   -1.5840   -4.1506    4.3072 H   0  0  0  0  0  0  0  0  0  0  0  0
   -2.1383   -5.1303    3.0393 H   0  0  0  0  0  0  0  0  0  0  0  0
   -2.8344   -3.5252    3.3595 H   0  0  0  0  0  0  0  0  0  0  0  0
   -0.8623   -3.4858    2.4572 C   0  0  0  0  0  0  0  0  0  0  0  0
   -0.7651   -2.5245    2.6943 H   0  0  0  0  0  0  0  0  0  0  0  0
    0.0006   -3.9622    2.5900 H   0  0  0  0  0  0  0  0  0  0  0  0
   -1.2413   -3.5902    1.0961 O   0  0  0  0  0  0  0  0  0  0  0  0
   -1.2221   -2.6847    0.6744 H   0  0  0  0  0  0  0  0  0  0  0  0
   -0.1758    2.6548    0.0025 C   0  0  0  0  0  0  0  0  0  0  0  0
   -0.7094    2.9136   -0.8096 H   0  0  0  0  0  0  0  0  0  0  0  0
    0.7376    3.0690   -0.0697 H   0  0  0  0  0  0  0  0  0  0  0  0
   -0.6719    3.0428    0.8921 H   0  0  0  0  0  0  0  0  0  0  0  0
   -0.0173    1.1671    0.0081 C   0  0  0  0  0  0  0  0  0  0  0  0
    1.0908    0.3892    0.0000 C   0  0  0  0  0  0  0  0  0  0  0  0
    2.0359    0.7039   -0.0020 H   0  0  0  0  0  0  0  0  0  0  0  0
    0.6689   -0.9180   -0.0035 N   0  0  0  0  0  0  0  0  0  0  0  0
    1.2656   -1.7217   -0.0060 H   0  0  0  0  0  0  0  0  0  0  0  0
   -0.6516   -0.9418   -0.0045 C   0  0  0  0  0  0  0  0  0  0  0  0
   -1.2185   -1.7609   -0.0064 H   0  0  0  0  0  0  0  0  0  0  0  0
   -1.0908    0.3035   -0.0000 N   0  0  0  0  0  0  0  0  0  0  0  0
  1  5  1  0
  5  8  1  0
  1  2  1  0
  1  3  1  0
  1  4  1  0
  5  6  1  0
  5  7  1  0
  8  9  1  0
 10 14  1  0
 14 15  2  0
 15 17  1  0
 17 19  1  0
 19 21  2  0
 21 14  1  0
 10 11  1  0
 10 12  1  0
 10 13  1  0
 15 16  1  0
 17 18  1  0
 19 20  1  0
M  END
>  <PDB_ID>  (22) 
pdb4kpq

>  <RESIDUE_NAME>  (22) 
SER   HIE

>  <FRAG_NAME>  (22) 
ETOH   MIME

>  <FRAG_ATOM_NUM>  (22) 
fragi: 9  fragj: 12

>  <atom.prop.CHAIN_ID>  (22) 
A A A A A A A A A Z Z Z Z Z Z Z Z Z Z Z Z

>  <atom.prop.IS_HEAVY_ATOM>  (22) 
1 0 0 0 1 0 0 1 0 1 0 0 0 1 1 0 1 0 1 0 1

>  <DIFUSE_FUNC_ATOM>  (22) 
n/a

>  <FINAL_SINGLE_POINT_ENERGY>  (22) 
0

>  <NONCOV_INTER_ENERGY_QM>  (22) 
0

>  <FF_Energy>  (22) 
3.97

>  <QM_Energy>  (22) 
11.96

>  <source>  (22) 
ETOH_MIME

>  <Index>  (22) 
3875

$$$$
ETOH-pdb2nrj-A-SER-152:MIME-pdb2nrj-A-HIE-76
     RDKit          3D

 21 20  0  0  0  0  0  0  0  0999 V2000
   -1.7207   -4.0073    3.2940 C   0  0  0  0  0  0  0  0  0  0  0  0
   -1.6312   -4.9776    3.0347 H   0  0  0  0  0  0  0  0  0  0  0  0
   -2.1542   -3.9588    4.2930 H   0  0  0  0  0  0  0  0  0  0  0  0
   -0.7240   -3.5665    3.2703 H   0  0  0  0  0  0  0  0  0  0  0  0
   -2.6367   -3.2862    2.3014 C   0  0  0  0  0  0  0  0  0  0  0  0
   -3.5264   -3.7338    2.3047 H   0  0  0  0  0  0  0  0  0  0  0  0
   -2.7309   -2.3364    2.5863 H   0  0  0  0  0  0  0  0  0  0  0  0
   -2.1022   -3.3262    0.9943 O   0  0  0  0  0  0  0  0  0  0  0  0
   -1.8240   -2.4067    0.7176 H   0  0  0  0  0  0  0  0  0  0  0  0
   -0.1842    2.6509    0.0206 C   0  0  0  0  0  0  0  0  0  0  0  0
    0.7165    3.0711   -0.1379 H   0  0  0  0  0  0  0  0  0  0  0  0
   -0.5045    2.9206    0.9362 H   0  0  0  0  0  0  0  0  0  0  0  0
   -0.8870    3.0216   -0.7255 H   0  0  0  0  0  0  0  0  0  0  0  0
   -0.0198    1.1657    0.0009 C   0  0  0  0  0  0  0  0  0  0  0  0
    1.0901    0.3898   -0.0000 C   0  0  0  0  0  0  0  0  0  0  0  0
    2.0341    0.7070    0.0002 H   0  0  0  0  0  0  0  0  0  0  0  0
    0.6692   -0.9157   -0.0004 N   0  0  0  0  0  0  0  0  0  0  0  0
    1.2680   -1.7207   -0.0015 H   0  0  0  0  0  0  0  0  0  0  0  0
   -0.6494   -0.9427   -0.0006 C   0  0  0  0  0  0  0  0  0  0  0  0
   -1.2160   -1.7614    0.0006 H   0  0  0  0  0  0  0  0  0  0  0  0
   -1.0901    0.3028    0.0000 N   0  0  0  0  0  0  0  0  0  0  0  0
  1  5  1  0
  5  8  1  0
  1  2  1  0
  1  3  1  0
  1  4  1  0
  5  6  1  0
  5  7  1  0
  8  9  1  0
 10 14  1  0
 14 15  2  0
 15 17  1  0
 17 19  1  0
 19 21  2  0
 21 14  1  0
 10 11  1  0
 10 12  1  0
 10 13  1  0
 15 16  1  0
 17 18  1  0
 19 20  1  0
M  END
>  <PDB_ID>  (23) 
pdb2nrj

>  <RESIDUE_NAME>  (23) 
SER   HIE

>  <FRAG_NAME>  (23) 
ETOH   MIME

>  <FRAG_ATOM_NUM>  (23) 
fragi: 9  fragj: 12

>  <atom.prop.CHAIN_ID>  (23) 
A A A A A A A A A Z Z Z Z Z Z Z Z Z Z Z Z

>  <atom.prop.IS_HEAVY_ATOM>  (23) 
1 0 0 0 1 0 0 1 0 1 0 0 0 1 1 0 1 0 1 0 1

>  <DIFUSE_FUNC_ATOM>  (23) 
n/a

>  <FINAL_SINGLE_POINT_ENERGY>  (23) 
0

>  <NONCOV_INTER_ENERGY_QM>  (23) 
0

>  <FF_Energy>  (23) 
2.99

>  <QM_Energy>  (23) 
12.05

>  <source>  (23) 
ETOH_MIME

>  <Index>  (23) 
3987

$$$$
ETOH-pdb3k5h-C-SER-44:MIME-pdb3k5h-C-HIE-49
     RDKit          3D

 21 20  0  0  0  0  0  0  0  0999 V2000
    1.9751   -4.7839    0.6617 C   0  0  0  0  0  0  0  0  0  0  0  0
    1.9674   -5.6130    0.1692 H   0  0  0  0  0  0  0  0  0  0  0  0
    2.5265   -4.9509    1.5869 H   0  0  0  0  0  0  0  0  0  0  0  0
    2.6721   -4.0936    0.1865 H   0  0  0  0  0  0  0  0  0  0  0  0
    0.6693   -3.9899    0.9293 C   0  0  0  0  0  0  0  0  0  0  0  0
    0.0130   -4.5941    1.3488 H   0  0  0  0  0  0  0  0  0  0  0  0
    0.8814   -3.2214    1.5089 H   0  0  0  0  0  0  0  0  0  0  0  0
    0.1329   -3.5051   -0.3117 O   0  0  0  0  0  0  0  0  0  0  0  0
   -0.3838   -2.6718   -0.1376 H   0  0  0  0  0  0  0  0  0  0  0  0
   -0.2000    2.6564    0.0475 C   0  0  0  0  0  0  0  0  0  0  0  0
    0.6956    3.0886   -0.0652 H   0  0  0  0  0  0  0  0  0  0  0  0
   -0.5773    2.9062    0.9408 H   0  0  0  0  0  0  0  0  0  0  0  0
   -0.8694    3.0154   -0.7342 H   0  0  0  0  0  0  0  0  0  0  0  0
   -0.0158    1.1686    0.0114 C   0  0  0  0  0  0  0  0  0  0  0  0
    1.0936    0.3926   -0.0000 C   0  0  0  0  0  0  0  0  0  0  0  0
    2.0376    0.7069    0.0001 H   0  0  0  0  0  0  0  0  0  0  0  0
    0.6695   -0.9142   -0.0093 N   0  0  0  0  0  0  0  0  0  0  0  0
    1.2692   -1.7197   -0.0208 H   0  0  0  0  0  0  0  0  0  0  0  0
   -0.6537   -0.9472   -0.0022 C   0  0  0  0  0  0  0  0  0  0  0  0
   -1.2158   -1.7658    0.0018 H   0  0  0  0  0  0  0  0  0  0  0  0
   -1.0936    0.3003    0.0000 N   0  0  0  0  0  0  0  0  0  0  0  0
  1  5  1  0
  5  8  1  0
  1  2  1  0
  1  3  1  0
  1  4  1  0
  5  6  1  0
  5  7  1  0
  8  9  1  0
 10 14  1  0
 14 15  2  0
 15 17  1  0
 17 19  1  0
 19 21  2  0
 21 14  1  0
 10 11  1  0
 10 12  1  0
 10 13  1  0
 15 16  1  0
 17 18  1  0
 19 20  1  0
M  END
>  <PDB_ID>  (24) 
pdb3k5h

>  <RESIDUE_NAME>  (24) 
SER   HIE

>  <FRAG_NAME>  (24) 
ETOH   MIME

>  <FRAG_ATOM_NUM>  (24) 
fragi: 9  fragj: 12

>  <atom.prop.CHAIN_ID>  (24) 
A A A A A A A A A Z Z Z Z Z Z Z Z Z Z Z Z

>  <atom.prop.IS_HEAVY_ATOM>  (24) 
1 0 0 0 1 0 0 1 0 1 0 0 0 1 1 0 1 0 1 0 1

>  <DIFUSE_FUNC_ATOM>  (24) 
n/a

>  <FINAL_SINGLE_POINT_ENERGY>  (24) 
0

>  <NONCOV_INTER_ENERGY_QM>  (24) 
0

>  <FF_Energy>  (24) 
8.38

>  <QM_Energy>  (24) 
14.58

>  <source>  (24) 
ETOH_MIME

>  <Index>  (24) 
4024

$$$$
ETOH-pdb3kb6-A-THR-310:MIME-pdb3kb6-A-HIE-69
     RDKit          3D

 21 20  0  0  0  0  0  0  0  0999 V2000
   -3.7024   -1.8354    2.0061 C   0  0  0  0  0  0  0  0  0  0  0  0
   -4.6770   -2.0669    1.9840 H   0  0  0  0  0  0  0  0  0  0  0  0
   -3.4840   -1.4131    2.8885 H   0  0  0  0  0  0  0  0  0  0  0  0
   -3.5019   -1.1850    1.2713 H   0  0  0  0  0  0  0  0  0  0  0  0
   -2.8681   -3.0972    1.8186 C   0  0  0  0  0  0  0  0  0  0  0  0
   -3.4149   -3.9287    2.0236 H   0  0  0  0  0  0  0  0  0  0  0  0
   -1.9986   -3.0678    2.4753 H   0  0  0  0  0  0  0  0  0  0  0  0
   -2.4076   -3.1951    0.4569 O   0  0  0  0  0  0  0  0  0  0  0  0
   -2.0099   -2.3212    0.1631 H   0  0  0  0  0  0  0  0  0  0  0  0
   -0.1827    2.6426   -0.0516 C   0  0  0  0  0  0  0  0  0  0  0  0
    0.3357    3.0305    0.7145 H   0  0  0  0  0  0  0  0  0  0  0  0
   -1.1548    2.8531    0.0727 H   0  0  0  0  0  0  0  0  0  0  0  0
    0.1649    3.0881   -0.9837 H   0  0  0  0  0  0  0  0  0  0  0  0
   -0.0159    1.1640   -0.0332 C   0  0  0  0  0  0  0  0  0  0  0  0
    1.0929    0.3910   -0.0000 C   0  0  0  0  0  0  0  0  0  0  0  0
    2.0366    0.7042    0.0136 H   0  0  0  0  0  0  0  0  0  0  0  0
    0.6692   -0.9186    0.0136 N   0  0  0  0  0  0  0  0  0  0  0  0
    1.2654   -1.7225    0.0171 H   0  0  0  0  0  0  0  0  0  0  0  0
   -0.6533   -0.9404    0.0196 C   0  0  0  0  0  0  0  0  0  0  0  0
   -1.2191   -1.7601    0.0370 H   0  0  0  0  0  0  0  0  0  0  0  0
   -1.0929    0.3041   -0.0000 N   0  0  0  0  0  0  0  0  0  0  0  0
  1  5  1  0
  5  8  1  0
  1  2  1  0
  1  3  1  0
  1  4  1  0
  5  6  1  0
  5  7  1  0
  8  9  1  0
 10 14  1  0
 14 15  2  0
 15 17  1  0
 17 19  1  0
 19 21  2  0
 21 14  1  0
 10 11  1  0
 10 12  1  0
 10 13  1  0
 15 16  1  0
 17 18  1  0
 19 20  1  0
M  END
>  <PDB_ID>  (25) 
pdb3kb6

>  <RESIDUE_NAME>  (25) 
THR   HIE

>  <FRAG_NAME>  (25) 
ETOH   MIME

>  <FRAG_ATOM_NUM>  (25) 
fragi: 9  fragj: 12

>  <atom.prop.CHAIN_ID>  (25) 
A A A A A A A A A Z Z Z Z Z Z Z Z Z Z Z Z

>  <atom.prop.IS_HEAVY_ATOM>  (25) 
1 0 0 0 1 0 0 1 0 1 0 0 0 1 1 0 1 0 1 0 1

>  <DIFUSE_FUNC_ATOM>  (25) 
n/a

>  <FINAL_SINGLE_POINT_ENERGY>  (25) 
0

>  <NONCOV_INTER_ENERGY_QM>  (25) 
0

>  <FF_Energy>  (25) 
6.92

>  <QM_Energy>  (25) 
22.7

>  <source>  (25) 
ETOH_MIME

>  <Index>  (25) 
4374

$$$$
ETOH-pdb6sd8-A-SER-272:MIME-pdb6sd8-A-HIE-255
     RDKit          3D

 21 20  0  0  0  0  0  0  0  0999 V2000
   -0.5354   -3.0166    3.6991 C   0  0  0  0  0  0  0  0  0  0  0  0
   -1.4152   -3.4343    3.4633 H   0  0  0  0  0  0  0  0  0  0  0  0
   -0.7015   -1.9548    3.8808 H   0  0  0  0  0  0  0  0  0  0  0  0
   -0.1698   -3.4945    4.6079 H   0  0  0  0  0  0  0  0  0  0  0  0
    0.4520   -3.2372    2.5481 C   0  0  0  0  0  0  0  0  0  0  0  0
    1.0864   -2.4779    2.5198 H   0  0  0  0  0  0  0  0  0  0  0  0
    0.9279   -4.0932    2.6941 H   0  0  0  0  0  0  0  0  0  0  0  0
   -0.2503   -3.3022    1.3137 O   0  0  0  0  0  0  0  0  0  0  0  0
   -0.3961   -2.3777    0.9665 H   0  0  0  0  0  0  0  0  0  0  0  0
   -0.1754    2.6562    0.0047 C   0  0  0  0  0  0  0  0  0  0  0  0
   -1.0849    2.8709    0.3798 H   0  0  0  0  0  0  0  0  0  0  0  0
   -0.1408    2.9811   -0.9484 H   0  0  0  0  0  0  0  0  0  0  0  0
    0.5850    3.1761    0.5875 H   0  0  0  0  0  0  0  0  0  0  0  0
   -0.0139    1.1678   -0.0040 C   0  0  0  0  0  0  0  0  0  0  0  0
    1.0917    0.3888   -0.0000 C   0  0  0  0  0  0  0  0  0  0  0  0
    2.0384    0.7006    0.0031 H   0  0  0  0  0  0  0  0  0  0  0  0
    0.6674   -0.9185    0.0009 N   0  0  0  0  0  0  0  0  0  0  0  0
    1.2636   -1.7237   -0.0004 H   0  0  0  0  0  0  0  0  0  0  0  0
   -0.6535   -0.9421    0.0031 C   0  0  0  0  0  0  0  0  0  0  0  0
   -1.2206   -1.7603    0.0065 H   0  0  0  0  0  0  0  0  0  0  0  0
   -1.0917    0.3040    0.0000 N   0  0  0  0  0  0  0  0  0  0  0  0
  1  5  1  0
  5  8  1  0
  1  2  1  0
  1  3  1  0
  1  4  1  0
  5  6  1  0
  5  7  1  0
  8  9  1  0
 10 14  1  0
 14 15  2  0
 15 17  1  0
 17 19  1  0
 19 21  2  0
 21 14  1  0
 10 11  1  0
 10 12  1  0
 10 13  1  0
 15 16  1  0
 17 18  1  0
 19 20  1  0
M  END
>  <PDB_ID>  (26) 
pdb6sd8

>  <RESIDUE_NAME>  (26) 
SER   HIE

>  <FRAG_NAME>  (26) 
ETOH   MIME

>  <FRAG_ATOM_NUM>  (26) 
fragi: 9  fragj: 12

>  <atom.prop.CHAIN_ID>  (26) 
A A A A A A A A A Z Z Z Z Z Z Z Z Z Z Z Z

>  <atom.prop.IS_HEAVY_ATOM>  (26) 
1 0 0 0 1 0 0 1 0 1 0 0 0 1 1 0 1 0 1 0 1

>  <DIFUSE_FUNC_ATOM>  (26) 
n/a

>  <FINAL_SINGLE_POINT_ENERGY>  (26) 
0

>  <NONCOV_INTER_ENERGY_QM>  (26) 
0

>  <FF_Energy>  (26) 
3.05

>  <QM_Energy>  (26) 
8.5

>  <source>  (26) 
ETOH_MIME

>  <Index>  (26) 
4389

$$$$
ETOH-pdb6sd8-X-SER-272:MIME-pdb6sd8-X-HIE-255
     RDKit          3D

 21 20  0  0  0  0  0  0  0  0999 V2000
   -0.8258   -3.1010    3.5728 C   0  0  0  0  0  0  0  0  0  0  0  0
   -1.7101   -3.4907    3.2959 H   0  0  0  0  0  0  0  0  0  0  0  0
   -0.9640   -2.0330    3.7412 H   0  0  0  0  0  0  0  0  0  0  0  0
   -0.5139   -3.5965    4.4922 H   0  0  0  0  0  0  0  0  0  0  0  0
    0.1848   -3.3566    2.4509 C   0  0  0  0  0  0  0  0  0  0  0  0
    0.8477   -2.6199    2.4416 H   0  0  0  0  0  0  0  0  0  0  0  0
    0.6287   -4.2282    2.6121 H   0  0  0  0  0  0  0  0  0  0  0  0
   -0.4771   -3.4003    1.1930 O   0  0  0  0  0  0  0  0  0  0  0  0
   -0.6485   -2.4692    0.8769 H   0  0  0  0  0  0  0  0  0  0  0  0
   -0.1781    2.6523   -0.0063 C   0  0  0  0  0  0  0  0  0  0  0  0
   -1.0952    2.8746    0.3412 H   0  0  0  0  0  0  0  0  0  0  0  0
   -0.1105    2.9716   -0.9578 H   0  0  0  0  0  0  0  0  0  0  0  0
    0.5660    3.1743    0.5954 H   0  0  0  0  0  0  0  0  0  0  0  0
   -0.0174    1.1663    0.0043 C   0  0  0  0  0  0  0  0  0  0  0  0
    1.0915    0.3900   -0.0000 C   0  0  0  0  0  0  0  0  0  0  0  0
    2.0359    0.7048   -0.0002 H   0  0  0  0  0  0  0  0  0  0  0  0
    0.6693   -0.9179   -0.0029 N   0  0  0  0  0  0  0  0  0  0  0  0
    1.2664   -1.7228   -0.0065 H   0  0  0  0  0  0  0  0  0  0  0  0
   -0.6518   -0.9424   -0.0014 C   0  0  0  0  0  0  0  0  0  0  0  0
   -1.2188   -1.7614    0.0006 H   0  0  0  0  0  0  0  0  0  0  0  0
   -1.0915    0.3040    0.0000 N   0  0  0  0  0  0  0  0  0  0  0  0
  1  5  1  0
  5  8  1  0
  1  2  1  0
  1  3  1  0
  1  4  1  0
  5  6  1  0
  5  7  1  0
  8  9  1  0
 10 14  1  0
 14 15  2  0
 15 17  1  0
 17 19  1  0
 19 21  2  0
 21 14  1  0
 10 11  1  0
 10 12  1  0
 10 13  1  0
 15 16  1  0
 17 18  1  0
 19 20  1  0
M  END
>  <PDB_ID>  (27) 
pdb6sd8

>  <RESIDUE_NAME>  (27) 
SER   HIE

>  <FRAG_NAME>  (27) 
ETOH   MIME

>  <FRAG_ATOM_NUM>  (27) 
fragi: 9  fragj: 12

>  <atom.prop.CHAIN_ID>  (27) 
A A A A A A A A A Z Z Z Z Z Z Z Z Z Z Z Z

>  <atom.prop.IS_HEAVY_ATOM>  (27) 
1 0 0 0 1 0 0 1 0 1 0 0 0 1 1 0 1 0 1 0 1

>  <DIFUSE_FUNC_ATOM>  (27) 
n/a

>  <FINAL_SINGLE_POINT_ENERGY>  (27) 
0

>  <NONCOV_INTER_ENERGY_QM>  (27) 
0

>  <FF_Energy>  (27) 
3.67

>  <QM_Energy>  (27) 
10.37

>  <source>  (27) 
ETOH_MIME

>  <Index>  (27) 
4396

$$$$
ETOH-pdb6spz-Q-SER-425:MIME-pdb6spz-A-HIE-225
     RDKit          3D

 21 20  0  0  0  0  0  0  0  0999 V2000
   -0.5302   -5.3112   -0.4124 C   0  0  0  0  0  0  0  0  0  0  0  0
   -1.3042   -5.7336    0.1035 H   0  0  0  0  0  0  0  0  0  0  0  0
    0.1938   -4.9467    0.3163 H   0  0  0  0  0  0  0  0  0  0  0  0
   -0.1454   -6.0609   -1.1037 H   0  0  0  0  0  0  0  0  0  0  0  0
   -1.1321   -4.1466   -1.1979 C   0  0  0  0  0  0  0  0  0  0  0  0
   -0.4000   -3.6682   -1.6736 H   0  0  0  0  0  0  0  0  0  0  0  0
   -1.7891   -4.5082   -1.8537 H   0  0  0  0  0  0  0  0  0  0  0  0
   -1.7918   -3.2410   -0.3355 O   0  0  0  0  0  0  0  0  0  0  0  0
   -1.4014   -2.3273   -0.4468 H   0  0  0  0  0  0  0  0  0  0  0  0
   -0.1791    2.6599    0.0128 C   0  0  0  0  0  0  0  0  0  0  0  0
    0.5492    3.0519    0.5858 H   0  0  0  0  0  0  0  0  0  0  0  0
   -1.0671    2.8768    0.4326 H   0  0  0  0  0  0  0  0  0  0  0  0
   -0.1353    3.1157   -0.9764 H   0  0  0  0  0  0  0  0  0  0  0  0
   -0.0174    1.1686    0.0003 C   0  0  0  0  0  0  0  0  0  0  0  0
    1.0918    0.3900   -0.0000 C   0  0  0  0  0  0  0  0  0  0  0  0
    2.0364    0.7043    0.0004 H   0  0  0  0  0  0  0  0  0  0  0  0
    0.6693   -0.9187    0.0011 N   0  0  0  0  0  0  0  0  0  0  0  0
    1.2661   -1.7221    0.0024 H   0  0  0  0  0  0  0  0  0  0  0  0
   -0.6519   -0.9435   -0.0014 C   0  0  0  0  0  0  0  0  0  0  0  0
   -1.2192   -1.7616   -0.0036 H   0  0  0  0  0  0  0  0  0  0  0  0
   -1.0918    0.3035   -0.0000 N   0  0  0  0  0  0  0  0  0  0  0  0
  1  5  1  0
  5  8  1  0
  1  2  1  0
  1  3  1  0
  1  4  1  0
  5  6  1  0
  5  7  1  0
  8  9  1  0
 10 14  1  0
 14 15  2  0
 15 17  1  0
 17 19  1  0
 19 21  2  0
 21 14  1  0
 10 11  1  0
 10 12  1  0
 10 13  1  0
 15 16  1  0
 17 18  1  0
 19 20  1  0
M  END
>  <PDB_ID>  (28) 
pdb6spz

>  <RESIDUE_NAME>  (28) 
SER   HIE

>  <FRAG_NAME>  (28) 
ETOH   MIME

>  <FRAG_ATOM_NUM>  (28) 
fragi: 9  fragj: 12

>  <atom.prop.CHAIN_ID>  (28) 
A A A A A A A A A Z Z Z Z Z Z Z Z Z Z Z Z

>  <atom.prop.IS_HEAVY_ATOM>  (28) 
1 0 0 0 1 0 0 1 0 1 0 0 0 1 1 0 1 0 1 0 1

>  <DIFUSE_FUNC_ATOM>  (28) 
n/a

>  <FINAL_SINGLE_POINT_ENERGY>  (28) 
0

>  <NONCOV_INTER_ENERGY_QM>  (28) 
0

>  <FF_Energy>  (28) 
48.55

>  <QM_Energy>  (28) 
62.65

>  <source>  (28) 
ETOH_MIME

>  <Index>  (28) 
4496

$$$$
ETOH-pdb3kgw-A-SER-101:MIME-pdb3kgw-A-HIE-284
     RDKit          3D

 21 20  0  0  0  0  0  0  0  0999 V2000
   -1.9364   -4.5231   -3.0678 C   0  0  0  0  0  0  0  0  0  0  0  0
   -2.4070   -5.2593   -2.5816 H   0  0  0  0  0  0  0  0  0  0  0  0
   -0.9126   -4.8444   -3.2591 H   0  0  0  0  0  0  0  0  0  0  0  0
   -2.4453   -4.3663   -4.0190 H   0  0  0  0  0  0  0  0  0  0  0  0
   -1.9672   -3.2369   -2.1858 C   0  0  0  0  0  0  0  0  0  0  0  0
   -1.5784   -2.4876   -2.7084 H   0  0  0  0  0  0  0  0  0  0  0  0
   -2.9116   -3.0415   -1.9474 H   0  0  0  0  0  0  0  0  0  0  0  0
   -1.2058   -3.3946   -0.9655 O   0  0  0  0  0  0  0  0  0  0  0  0
   -1.2599   -2.5491   -0.4455 H   0  0  0  0  0  0  0  0  0  0  0  0
   -0.1770    2.6627   -0.0387 C   0  0  0  0  0  0  0  0  0  0  0  0
   -1.1272    2.8762   -0.2944 H   0  0  0  0  0  0  0  0  0  0  0  0
    0.4335    3.0387   -0.7456 H   0  0  0  0  0  0  0  0  0  0  0  0
    0.0494    3.1408    0.9143 H   0  0  0  0  0  0  0  0  0  0  0  0
   -0.0184    1.1679   -0.0310 C   0  0  0  0  0  0  0  0  0  0  0  0
    1.0907    0.3880   -0.0000 C   0  0  0  0  0  0  0  0  0  0  0  0
    2.0354    0.7043    0.0141 H   0  0  0  0  0  0  0  0  0  0  0  0
    0.6707   -0.9220    0.0094 N   0  0  0  0  0  0  0  0  0  0  0  0
    1.2651   -1.7246    0.0060 H   0  0  0  0  0  0  0  0  0  0  0  0
   -0.6523   -0.9407    0.0216 C   0  0  0  0  0  0  0  0  0  0  0  0
   -1.2206   -1.7582    0.0442 H   0  0  0  0  0  0  0  0  0  0  0  0
   -1.0907    0.3068    0.0000 N   0  0  0  0  0  0  0  0  0  0  0  0
  1  5  1  0
  5  8  1  0
  1  2  1  0
  1  3  1  0
  1  4  1  0
  5  6  1  0
  5  7  1  0
  8  9  1  0
 10 14  1  0
 14 15  2  0
 15 17  1  0
 17 19  1  0
 19 21  2  0
 21 14  1  0
 10 11  1  0
 10 12  1  0
 10 13  1  0
 15 16  1  0
 17 18  1  0
 19 20  1  0
M  END
>  <PDB_ID>  (29) 
pdb3kgw

>  <RESIDUE_NAME>  (29) 
SER   HIE

>  <FRAG_NAME>  (29) 
ETOH   MIME

>  <FRAG_ATOM_NUM>  (29) 
fragi: 9  fragj: 12

>  <atom.prop.CHAIN_ID>  (29) 
A A A A A A A A A Z Z Z Z Z Z Z Z Z Z Z Z

>  <atom.prop.IS_HEAVY_ATOM>  (29) 
1 0 0 0 1 0 0 1 0 1 0 0 0 1 1 0 1 0 1 0 1

>  <DIFUSE_FUNC_ATOM>  (29) 
n/a

>  <FINAL_SINGLE_POINT_ENERGY>  (29) 
0

>  <NONCOV_INTER_ENERGY_QM>  (29) 
0

>  <FF_Energy>  (29) 
9.57

>  <QM_Energy>  (29) 
28.92

>  <source>  (29) 
ETOH_MIME

>  <Index>  (29) 
4684

$$$$
ETOH-pdb5ovq-A-SER-74:MIME-pdb5ovq-A-HIE-81
     RDKit          3D

 21 20  0  0  0  0  0  0  0  0999 V2000
   -0.5218   -5.4558    0.6654 C   0  0  0  0  0  0  0  0  0  0  0  0
   -0.6047   -6.3960    0.9870 H   0  0  0  0  0  0  0  0  0  0  0  0
    0.2753   -4.9729    1.2307 H   0  0  0  0  0  0  0  0  0  0  0  0
   -0.2330   -5.4808   -0.3853 H   0  0  0  0  0  0  0  0  0  0  0  0
   -1.8601   -4.7355    0.8055 C   0  0  0  0  0  0  0  0  0  0  0  0
   -2.5871   -5.3566    0.5463 H   0  0  0  0  0  0  0  0  0  0  0  0
   -1.9671   -4.4386    1.7452 H   0  0  0  0  0  0  0  0  0  0  0  0
   -1.8863   -3.6081   -0.0443 O   0  0  0  0  0  0  0  0  0  0  0  0
   -1.1373   -2.9896    0.1950 H   0  0  0  0  0  0  0  0  0  0  0  0
   -0.1590    2.6448    0.0394 C   0  0  0  0  0  0  0  0  0  0  0  0
    0.4496    3.0395   -0.6635 H   0  0  0  0  0  0  0  0  0  0  0  0
    0.1524    2.9772    0.9409 H   0  0  0  0  0  0  0  0  0  0  0  0
   -1.1748    2.9998   -0.1341 H   0  0  0  0  0  0  0  0  0  0  0  0
   -0.0129    1.1634    0.0095 C   0  0  0  0  0  0  0  0  0  0  0  0
    1.0919    0.3860   -0.0000 C   0  0  0  0  0  0  0  0  0  0  0  0
    2.0384    0.6996    0.0014 H   0  0  0  0  0  0  0  0  0  0  0  0
    0.6672   -0.9160   -0.0109 N   0  0  0  0  0  0  0  0  0  0  0  0
    1.2613   -1.7242   -0.0268 H   0  0  0  0  0  0  0  0  0  0  0  0
   -0.6543   -0.9392    0.0014 C   0  0  0  0  0  0  0  0  0  0  0  0
   -1.2209   -1.7581    0.0113 H   0  0  0  0  0  0  0  0  0  0  0  0
   -1.0919    0.3057    0.0000 N   0  0  0  0  0  0  0  0  0  0  0  0
  1  5  1  0
  5  8  1  0
  1  2  1  0
  1  3  1  0
  1  4  1  0
  5  6  1  0
  5  7  1  0
  8  9  1  0
 10 14  1  0
 14 15  2  0
 15 17  1  0
 17 19  1  0
 19 21  2  0
 21 14  1  0
 10 11  1  0
 10 12  1  0
 10 13  1  0
 15 16  1  0
 17 18  1  0
 19 20  1  0
M  END
>  <PDB_ID>  (30) 
pdb5ovq

>  <RESIDUE_NAME>  (30) 
SER   HIE

>  <FRAG_NAME>  (30) 
ETOH   MIME

>  <FRAG_ATOM_NUM>  (30) 
fragi: 9  fragj: 12

>  <atom.prop.CHAIN_ID>  (30) 
A A A A A A A A A Z Z Z Z Z Z Z Z Z Z Z Z

>  <atom.prop.IS_HEAVY_ATOM>  (30) 
1 0 0 0 1 0 0 1 0 1 0 0 0 1 1 0 1 0 1 0 1

>  <DIFUSE_FUNC_ATOM>  (30) 
n/a

>  <FINAL_SINGLE_POINT_ENERGY>  (30) 
0

>  <NONCOV_INTER_ENERGY_QM>  (30) 
0

>  <FF_Energy>  (30) 
6.13

>  <QM_Energy>  (30) 
11.27

>  <source>  (30) 
ETOH_MIME

>  <Index>  (30) 
4775

$$$$
ETOH-pdb5ovq-H-SER-74:MIME-pdb5ovq-H-HIE-81
     RDKit          3D

 21 20  0  0  0  0  0  0  0  0999 V2000
   -0.6268   -5.4449    0.7549 C   0  0  0  0  0  0  0  0  0  0  0  0
   -0.7433   -6.3811    1.0713 H   0  0  0  0  0  0  0  0  0  0  0  0
    0.1838   -4.9882    1.3228 H   0  0  0  0  0  0  0  0  0  0  0  0
   -0.3209   -5.4768   -0.2907 H   0  0  0  0  0  0  0  0  0  0  0  0
   -1.9502   -4.6989    0.9190 C   0  0  0  0  0  0  0  0  0  0  0  0
   -2.6969   -5.3106    0.6710 H   0  0  0  0  0  0  0  0  0  0  0  0
   -2.0438   -4.4161    1.8708 H   0  0  0  0  0  0  0  0  0  0  0  0
   -1.9996   -3.5506    0.0911 O   0  0  0  0  0  0  0  0  0  0  0  0
   -1.2982   -2.9004    0.3800 H   0  0  0  0  0  0  0  0  0  0  0  0
   -0.1642    2.6490    0.0317 C   0  0  0  0  0  0  0  0  0  0  0  0
    0.4369    3.0402   -0.6809 H   0  0  0  0  0  0  0  0  0  0  0  0
    0.1643    2.9836    0.9280 H   0  0  0  0  0  0  0  0  0  0  0  0
   -1.1817    3.0061   -0.1275 H   0  0  0  0  0  0  0  0  0  0  0  0
   -0.0163    1.1652    0.0051 C   0  0  0  0  0  0  0  0  0  0  0  0
    1.0917    0.3880   -0.0000 C   0  0  0  0  0  0  0  0  0  0  0  0
    2.0368    0.7030   -0.0017 H   0  0  0  0  0  0  0  0  0  0  0  0
    0.6688   -0.9178   -0.0014 N   0  0  0  0  0  0  0  0  0  0  0  0
    1.2640   -1.7231   -0.0016 H   0  0  0  0  0  0  0  0  0  0  0  0
   -0.6526   -0.9409   -0.0037 C   0  0  0  0  0  0  0  0  0  0  0  0
   -1.2203   -1.7596   -0.0058 H   0  0  0  0  0  0  0  0  0  0  0  0
   -1.0917    0.3055    0.0000 N   0  0  0  0  0  0  0  0  0  0  0  0
  1  5  1  0
  5  8  1  0
  1  2  1  0
  1  3  1  0
  1  4  1  0
  5  6  1  0
  5  7  1  0
  8  9  1  0
 10 14  1  0
 14 15  2  0
 15 17  1  0
 17 19  1  0
 19 21  2  0
 21 14  1  0
 10 11  1  0
 10 12  1  0
 10 13  1  0
 15 16  1  0
 17 18  1  0
 19 20  1  0
M  END
>  <PDB_ID>  (31) 
pdb5ovq

>  <RESIDUE_NAME>  (31) 
SER   HIE

>  <FRAG_NAME>  (31) 
ETOH   MIME

>  <FRAG_ATOM_NUM>  (31) 
fragi: 9  fragj: 12

>  <atom.prop.CHAIN_ID>  (31) 
A A A A A A A A A Z Z Z Z Z Z Z Z Z Z Z Z

>  <atom.prop.IS_HEAVY_ATOM>  (31) 
1 0 0 0 1 0 0 1 0 1 0 0 0 1 1 0 1 0 1 0 1

>  <DIFUSE_FUNC_ATOM>  (31) 
n/a

>  <FINAL_SINGLE_POINT_ENERGY>  (31) 
0

>  <NONCOV_INTER_ENERGY_QM>  (31) 
0

>  <FF_Energy>  (31) 
6.37

>  <QM_Energy>  (31) 
12.24

>  <source>  (31) 
ETOH_MIME

>  <Index>  (31) 
4802

$$$$
ETOH-pdb5ovq-L-SER-74:MIME-pdb5ovq-L-HIE-81
     RDKit          3D

 21 20  0  0  0  0  0  0  0  0999 V2000
   -0.5896   -5.4614    0.7965 C   0  0  0  0  0  0  0  0  0  0  0  0
   -0.6957   -6.3968    1.1263 H   0  0  0  0  0  0  0  0  0  0  0  0
    0.2225   -4.9913    1.3511 H   0  0  0  0  0  0  0  0  0  0  0  0
   -0.3036   -5.5045   -0.2544 H   0  0  0  0  0  0  0  0  0  0  0  0
   -1.9116   -4.7140    0.9698 C   0  0  0  0  0  0  0  0  0  0  0  0
   -2.6611   -5.3276    0.7365 H   0  0  0  0  0  0  0  0  0  0  0  0
   -1.9921   -4.4210    1.9191 H   0  0  0  0  0  0  0  0  0  0  0  0
   -1.9693   -3.5752    0.1294 O   0  0  0  0  0  0  0  0  0  0  0  0
   -1.2215   -2.9529    0.3594 H   0  0  0  0  0  0  0  0  0  0  0  0
   -0.1689    2.6492   -0.0061 C   0  0  0  0  0  0  0  0  0  0  0  0
    0.4138    3.0345   -0.7360 H   0  0  0  0  0  0  0  0  0  0  0  0
    0.1752    2.9940    0.8793 H   0  0  0  0  0  0  0  0  0  0  0  0
   -1.1914    2.9991   -0.1477 H   0  0  0  0  0  0  0  0  0  0  0  0
   -0.0173    1.1648   -0.0201 C   0  0  0  0  0  0  0  0  0  0  0  0
    1.0919    0.3890    0.0000 C   0  0  0  0  0  0  0  0  0  0  0  0
    2.0362    0.7045    0.0113 H   0  0  0  0  0  0  0  0  0  0  0  0
    0.6694   -0.9174    0.0043 N   0  0  0  0  0  0  0  0  0  0  0  0
    1.2653   -1.7230   -0.0013 H   0  0  0  0  0  0  0  0  0  0  0  0
   -0.6522   -0.9412    0.0158 C   0  0  0  0  0  0  0  0  0  0  0  0
   -1.2191   -1.7596    0.0343 H   0  0  0  0  0  0  0  0  0  0  0  0
   -1.0919    0.3049    0.0000 N   0  0  0  0  0  0  0  0  0  0  0  0
  1  5  1  0
  5  8  1  0
  1  2  1  0
  1  3  1  0
  1  4  1  0
  5  6  1  0
  5  7  1  0
  8  9  1  0
 10 14  1  0
 14 15  2  0
 15 17  1  0
 17 19  1  0
 19 21  2  0
 21 14  1  0
 10 11  1  0
 10 12  1  0
 10 13  1  0
 15 16  1  0
 17 18  1  0
 19 20  1  0
M  END
>  <PDB_ID>  (32) 
pdb5ovq

>  <RESIDUE_NAME>  (32) 
SER   HIE

>  <FRAG_NAME>  (32) 
ETOH   MIME

>  <FRAG_ATOM_NUM>  (32) 
fragi: 9  fragj: 12

>  <atom.prop.CHAIN_ID>  (32) 
A A A A A A A A A Z Z Z Z Z Z Z Z Z Z Z Z

>  <atom.prop.IS_HEAVY_ATOM>  (32) 
1 0 0 0 1 0 0 1 0 1 0 0 0 1 1 0 1 0 1 0 1

>  <DIFUSE_FUNC_ATOM>  (32) 
n/a

>  <FINAL_SINGLE_POINT_ENERGY>  (32) 
0

>  <NONCOV_INTER_ENERGY_QM>  (32) 
0

>  <FF_Energy>  (32) 
6.13

>  <QM_Energy>  (32) 
11.41

>  <source>  (32) 
ETOH_MIME

>  <Index>  (32) 
4816

$$$$
ETOH-pdb1nx0-C-SER-607:MIME-pdb1nx0-A-HIE-129
     RDKit          3D

 21 20  0  0  0  0  0  0  0  0999 V2000
   -1.5488   -4.4680   -0.1125 C   0  0  0  0  0  0  0  0  0  0  0  0
   -1.8382   -3.6877   -0.6845 H   0  0  0  0  0  0  0  0  0  0  0  0
   -2.2094   -5.3091   -0.3228 H   0  0  0  0  0  0  0  0  0  0  0  0
   -0.5145   -4.7007   -0.3658 H   0  0  0  0  0  0  0  0  0  0  0  0
   -1.6424   -4.0851    1.3656 C   0  0  0  0  0  0  0  0  0  0  0  0
   -2.5751   -3.8078    1.5657 H   0  0  0  0  0  0  0  0  0  0  0  0
   -1.3892   -4.8736    1.9160 H   0  0  0  0  0  0  0  0  0  0  0  0
   -0.7668   -3.0143    1.6590 O   0  0  0  0  0  0  0  0  0  0  0  0
   -1.0028   -2.2242    1.0932 H   0  0  0  0  0  0  0  0  0  0  0  0
   -0.1821    2.6526   -0.1194 C   0  0  0  0  0  0  0  0  0  0  0  0
   -1.0496    2.8412   -0.5857 H   0  0  0  0  0  0  0  0  0  0  0  0
    0.5716    3.0115   -0.6761 H   0  0  0  0  0  0  0  0  0  0  0  0
   -0.1811    3.1572    0.8467 H   0  0  0  0  0  0  0  0  0  0  0  0
   -0.0197    1.1686   -0.0069 C   0  0  0  0  0  0  0  0  0  0  0  0
    1.0907    0.3918    0.0000 C   0  0  0  0  0  0  0  0  0  0  0  0
    2.0349    0.7078    0.0035 H   0  0  0  0  0  0  0  0  0  0  0  0
    0.6696   -0.9173    0.0029 N   0  0  0  0  0  0  0  0  0  0  0  0
    1.2691   -1.7198    0.0040 H   0  0  0  0  0  0  0  0  0  0  0  0
   -0.6500   -0.9441    0.0039 C   0  0  0  0  0  0  0  0  0  0  0  0
   -1.2161   -1.7631    0.0070 H   0  0  0  0  0  0  0  0  0  0  0  0
   -1.0907    0.3010    0.0000 N   0  0  0  0  0  0  0  0  0  0  0  0
  1  5  1  0
  5  8  1  0
  1  2  1  0
  1  3  1  0
  1  4  1  0
  5  6  1  0
  5  7  1  0
  8  9  1  0
 10 14  1  0
 14 15  2  0
 15 17  1  0
 17 19  1  0
 19 21  2  0
 21 14  1  0
 10 11  1  0
 10 12  1  0
 10 13  1  0
 15 16  1  0
 17 18  1  0
 19 20  1  0
M  END
>  <PDB_ID>  (33) 
pdb1nx0

>  <RESIDUE_NAME>  (33) 
SER   HIE

>  <FRAG_NAME>  (33) 
ETOH   MIME

>  <FRAG_ATOM_NUM>  (33) 
fragi: 9  fragj: 12

>  <atom.prop.CHAIN_ID>  (33) 
A A A A A A A A A Z Z Z Z Z Z Z Z Z Z Z Z

>  <atom.prop.IS_HEAVY_ATOM>  (33) 
1 0 0 0 1 0 0 1 0 1 0 0 0 1 1 0 1 0 1 0 1

>  <DIFUSE_FUNC_ATOM>  (33) 
n/a

>  <FINAL_SINGLE_POINT_ENERGY>  (33) 
0

>  <NONCOV_INTER_ENERGY_QM>  (33) 
0

>  <FF_Energy>  (33) 
4.64

>  <QM_Energy>  (33) 
14.69

>  <source>  (33) 
ETOH_MIME

>  <Index>  (33) 
4915

$$$$
ETOH-pdb3kom-B-SER-385:MIME-pdb3kom-B-HIE-462
     RDKit          3D

 21 20  0  0  0  0  0  0  0  0999 V2000
   -2.5730   -4.3731   -0.5883 C   0  0  0  0  0  0  0  0  0  0  0  0
   -2.8965   -5.3204   -0.7294 H   0  0  0  0  0  0  0  0  0  0  0  0
   -2.1278   -4.0279   -1.5215 H   0  0  0  0  0  0  0  0  0  0  0  0
   -3.4295   -3.7649   -0.2977 H   0  0  0  0  0  0  0  0  0  0  0  0
   -1.5524   -4.3513    0.5452 C   0  0  0  0  0  0  0  0  0  0  0  0
   -1.8640   -4.9627    1.2719 H   0  0  0  0  0  0  0  0  0  0  0  0
   -0.6734   -4.6730    0.1932 H   0  0  0  0  0  0  0  0  0  0  0  0
   -1.3829   -3.0518    1.0804 O   0  0  0  0  0  0  0  0  0  0  0  0
   -1.5640   -2.3720    0.3700 H   0  0  0  0  0  0  0  0  0  0  0  0
   -0.1813    2.6545   -0.0280 C   0  0  0  0  0  0  0  0  0  0  0  0
   -0.7429    2.9079   -0.8168 H   0  0  0  0  0  0  0  0  0  0  0  0
    0.7240    3.0721   -0.1189 H   0  0  0  0  0  0  0  0  0  0  0  0
   -0.6553    3.0172    0.8840 H   0  0  0  0  0  0  0  0  0  0  0  0
   -0.0128    1.1653   -0.0289 C   0  0  0  0  0  0  0  0  0  0  0  0
    1.0932    0.3853   -0.0000 C   0  0  0  0  0  0  0  0  0  0  0  0
    2.0393    0.6987    0.0127 H   0  0  0  0  0  0  0  0  0  0  0  0
    0.6675   -0.9188    0.0099 N   0  0  0  0  0  0  0  0  0  0  0  0
    1.2610   -1.7266    0.0093 H   0  0  0  0  0  0  0  0  0  0  0  0
   -0.6546   -0.9402    0.0189 C   0  0  0  0  0  0  0  0  0  0  0  0
   -1.2230   -1.7569    0.0376 H   0  0  0  0  0  0  0  0  0  0  0  0
   -1.0932    0.3084    0.0000 N   0  0  0  0  0  0  0  0  0  0  0  0
  1  5  1  0
  5  8  1  0
  1  2  1  0
  1  3  1  0
  1  4  1  0
  5  6  1  0
  5  7  1  0
  8  9  1  0
 10 14  1  0
 14 15  2  0
 15 17  1  0
 17 19  1  0
 19 21  2  0
 21 14  1  0
 10 11  1  0
 10 12  1  0
 10 13  1  0
 15 16  1  0
 17 18  1  0
 19 20  1  0
M  END
>  <PDB_ID>  (34) 
pdb3kom

>  <RESIDUE_NAME>  (34) 
SER   HIE

>  <FRAG_NAME>  (34) 
ETOH   MIME

>  <FRAG_ATOM_NUM>  (34) 
fragi: 9  fragj: 12

>  <atom.prop.CHAIN_ID>  (34) 
A A A A A A A A A Z Z Z Z Z Z Z Z Z Z Z Z

>  <atom.prop.IS_HEAVY_ATOM>  (34) 
1 0 0 0 1 0 0 1 0 1 0 0 0 1 1 0 1 0 1 0 1

>  <DIFUSE_FUNC_ATOM>  (34) 
n/a

>  <FINAL_SINGLE_POINT_ENERGY>  (34) 
0

>  <NONCOV_INTER_ENERGY_QM>  (34) 
0

>  <FF_Energy>  (34) 
37.04

>  <QM_Energy>  (34) 
58.94

>  <source>  (34) 
ETOH_MIME

>  <Index>  (34) 
5093

$$$$
ETOH-pdb1o5i-C-SER-28:MIME-pdb1o5i-C-HIE-49
     RDKit          3D

 21 20  0  0  0  0  0  0  0  0999 V2000
   -4.0130   -4.5940    1.0049 C   0  0  0  0  0  0  0  0  0  0  0  0
   -4.8012   -4.0359    1.3143 H   0  0  0  0  0  0  0  0  0  0  0  0
   -3.4953   -4.9459    1.8972 H   0  0  0  0  0  0  0  0  0  0  0  0
   -4.3910   -5.4051    0.3826 H   0  0  0  0  0  0  0  0  0  0  0  0
   -3.1202   -3.7105    0.1432 C   0  0  0  0  0  0  0  0  0  0  0  0
   -2.1832   -4.0056    0.2482 H   0  0  0  0  0  0  0  0  0  0  0  0
   -3.4160   -3.7813   -0.7981 H   0  0  0  0  0  0  0  0  0  0  0  0
   -3.2480   -2.3859    0.5778 O   0  0  0  0  0  0  0  0  0  0  0  0
   -2.4552   -1.8505    0.2808 H   0  0  0  0  0  0  0  0  0  0  0  0
   -0.1789    2.6421   -0.0423 C   0  0  0  0  0  0  0  0  0  0  0  0
    0.7320    3.0683   -0.0278 H   0  0  0  0  0  0  0  0  0  0  0  0
   -0.6778    2.9274    0.7825 H   0  0  0  0  0  0  0  0  0  0  0  0
   -0.7189    3.0053   -0.9167 H   0  0  0  0  0  0  0  0  0  0  0  0
   -0.0161    1.1654   -0.0149 C   0  0  0  0  0  0  0  0  0  0  0  0
    1.0915    0.3902    0.0000 C   0  0  0  0  0  0  0  0  0  0  0  0
    2.0372    0.7034    0.0041 H   0  0  0  0  0  0  0  0  0  0  0  0
    0.6676   -0.9183    0.0098 N   0  0  0  0  0  0  0  0  0  0  0  0
    1.2648   -1.7223    0.0180 H   0  0  0  0  0  0  0  0  0  0  0  0
   -0.6516   -0.9416    0.0051 C   0  0  0  0  0  0  0  0  0  0  0  0
   -1.2196   -1.7599    0.0062 H   0  0  0  0  0  0  0  0  0  0  0  0
   -1.0915    0.3043   -0.0000 N   0  0  0  0  0  0  0  0  0  0  0  0
  1  5  1  0
  5  8  1  0
  1  2  1  0
  1  3  1  0
  1  4  1  0
  5  6  1  0
  5  7  1  0
  8  9  1  0
 10 14  1  0
 14 15  2  0
 15 17  1  0
 17 19  1  0
 19 21  2  0
 21 14  1  0
 10 11  1  0
 10 12  1  0
 10 13  1  0
 15 16  1  0
 17 18  1  0
 19 20  1  0
M  END
>  <PDB_ID>  (35) 
pdb1o5i

>  <RESIDUE_NAME>  (35) 
SER   HIE

>  <FRAG_NAME>  (35) 
ETOH   MIME

>  <FRAG_ATOM_NUM>  (35) 
fragi: 9  fragj: 12

>  <atom.prop.CHAIN_ID>  (35) 
A A A A A A A A A Z Z Z Z Z Z Z Z Z Z Z Z

>  <atom.prop.IS_HEAVY_ATOM>  (35) 
1 0 0 0 1 0 0 1 0 1 0 0 0 1 1 0 1 0 1 0 1

>  <DIFUSE_FUNC_ATOM>  (35) 
n/a

>  <FINAL_SINGLE_POINT_ENERGY>  (35) 
0

>  <NONCOV_INTER_ENERGY_QM>  (35) 
0

>  <FF_Energy>  (35) 
2.92

>  <QM_Energy>  (35) 
9.1

>  <source>  (35) 
ETOH_MIME

>  <Index>  (35) 
5167

$$$$
ETOH-pdb4m1e-B-THR-108:MIME-pdb4m1e-B-HIE-165
     RDKit          3D

 21 20  0  0  0  0  0  0  0  0999 V2000
   -2.9302   -2.1541   -2.2957 C   0  0  0  0  0  0  0  0  0  0  0  0
   -3.4850   -1.7505   -1.5691 H   0  0  0  0  0  0  0  0  0  0  0  0
   -2.1278   -1.5823   -2.4638 H   0  0  0  0  0  0  0  0  0  0  0  0
   -3.4724   -2.2264   -3.1315 H   0  0  0  0  0  0  0  0  0  0  0  0
   -2.4711   -3.5611   -1.8636 C   0  0  0  0  0  0  0  0  0  0  0  0
   -2.1311   -4.0759   -2.6738 H   0  0  0  0  0  0  0  0  0  0  0  0
   -3.2927   -4.1191   -1.4145 H   0  0  0  0  0  0  0  0  0  0  0  0
   -1.3892   -3.4471   -0.9190 O   0  0  0  0  0  0  0  0  0  0  0  0
   -1.2811   -2.4917   -0.6304 H   0  0  0  0  0  0  0  0  0  0  0  0
   -0.1638    2.6547   -0.0033 C   0  0  0  0  0  0  0  0  0  0  0  0
   -0.7157    2.9118    0.8001 H   0  0  0  0  0  0  0  0  0  0  0  0
   -0.6682    2.9290   -0.8320 H   0  0  0  0  0  0  0  0  0  0  0  0
    0.7803    3.1985    0.0294 H   0  0  0  0  0  0  0  0  0  0  0  0
   -0.0139    1.1662   -0.0149 C   0  0  0  0  0  0  0  0  0  0  0  0
    1.0925    0.3849    0.0000 C   0  0  0  0  0  0  0  0  0  0  0  0
    2.0379    0.6988    0.0044 H   0  0  0  0  0  0  0  0  0  0  0  0
    0.6665   -0.9162    0.0098 N   0  0  0  0  0  0  0  0  0  0  0  0
    1.2624   -1.7243    0.0175 H   0  0  0  0  0  0  0  0  0  0  0  0
   -0.6526   -0.9403    0.0051 C   0  0  0  0  0  0  0  0  0  0  0  0
   -1.2205   -1.7587    0.0071 H   0  0  0  0  0  0  0  0  0  0  0  0
   -1.0925    0.3053   -0.0000 N   0  0  0  0  0  0  0  0  0  0  0  0
  1  5  1  0
  5  8  1  0
  1  2  1  0
  1  3  1  0
  1  4  1  0
  5  6  1  0
  5  7  1  0
  8  9  1  0
 10 14  1  0
 14 15  2  0
 15 17  1  0
 17 19  1  0
 19 21  2  0
 21 14  1  0
 10 11  1  0
 10 12  1  0
 10 13  1  0
 15 16  1  0
 17 18  1  0
 19 20  1  0
M  END
>  <PDB_ID>  (36) 
pdb4m1e

>  <RESIDUE_NAME>  (36) 
THR   HIE

>  <FRAG_NAME>  (36) 
ETOH   MIME

>  <FRAG_ATOM_NUM>  (36) 
fragi: 9  fragj: 12

>  <atom.prop.CHAIN_ID>  (36) 
A A A A A A A A A Z Z Z Z Z Z Z Z Z Z Z Z

>  <atom.prop.IS_HEAVY_ATOM>  (36) 
1 0 0 0 1 0 0 1 0 1 0 0 0 1 1 0 1 0 1 0 1

>  <DIFUSE_FUNC_ATOM>  (36) 
n/a

>  <FINAL_SINGLE_POINT_ENERGY>  (36) 
0

>  <NONCOV_INTER_ENERGY_QM>  (36) 
0

>  <FF_Energy>  (36) 
7.34

>  <QM_Energy>  (36) 
23.64

>  <source>  (36) 
ETOH_MIME

>  <Index>  (36) 
5764

$$$$
ETOH-pdb4m1e-C-THR-31:MIME-pdb4m1e-C-HIE-62
     RDKit          3D

 21 20  0  0  0  0  0  0  0  0999 V2000
   -2.4776   -3.2278    2.5231 C   0  0  0  0  0  0  0  0  0  0  0  0
   -2.7590   -3.4226    3.4677 H   0  0  0  0  0  0  0  0  0  0  0  0
   -2.5966   -2.2466    2.3463 H   0  0  0  0  0  0  0  0  0  0  0  0
   -3.0690   -3.7432    1.8962 H   0  0  0  0  0  0  0  0  0  0  0  0
   -1.0340   -3.6220    2.3182 C   0  0  0  0  0  0  0  0  0  0  0  0
   -0.8798   -4.5989    2.5681 H   0  0  0  0  0  0  0  0  0  0  0  0
   -0.3802   -2.9982    2.9277 H   0  0  0  0  0  0  0  0  0  0  0  0
   -0.7046   -3.4564    0.9325 O   0  0  0  0  0  0  0  0  0  0  0  0
   -0.8029   -2.4926    0.6632 H   0  0  0  0  0  0  0  0  0  0  0  0
   -0.1735    2.6566    0.0031 C   0  0  0  0  0  0  0  0  0  0  0  0
   -0.9317    2.8904   -0.6101 H   0  0  0  0  0  0  0  0  0  0  0  0
    0.6717    3.0625   -0.3539 H   0  0  0  0  0  0  0  0  0  0  0  0
   -0.3757    3.0804    0.9868 H   0  0  0  0  0  0  0  0  0  0  0  0
   -0.0160    1.1687    0.0209 C   0  0  0  0  0  0  0  0  0  0  0  0
    1.0918    0.3903    0.0000 C   0  0  0  0  0  0  0  0  0  0  0  0
    2.0374    0.7041   -0.0052 H   0  0  0  0  0  0  0  0  0  0  0  0
    0.6702   -0.9186   -0.0117 N   0  0  0  0  0  0  0  0  0  0  0  0
    1.2661   -1.7233   -0.0222 H   0  0  0  0  0  0  0  0  0  0  0  0
   -0.6543   -0.9436   -0.0092 C   0  0  0  0  0  0  0  0  0  0  0  0
   -1.2195   -1.7611   -0.0117 H   0  0  0  0  0  0  0  0  0  0  0  0
   -1.0918    0.3032    0.0000 N   0  0  0  0  0  0  0  0  0  0  0  0
  1  5  1  0
  5  8  1  0
  1  2  1  0
  1  3  1  0
  1  4  1  0
  5  6  1  0
  5  7  1  0
  8  9  1  0
 10 14  1  0
 14 15  2  0
 15 17  1  0
 17 19  1  0
 19 21  2  0
 21 14  1  0
 10 11  1  0
 10 12  1  0
 10 13  1  0
 15 16  1  0
 17 18  1  0
 19 20  1  0
M  END
>  <PDB_ID>  (37) 
pdb4m1e

>  <RESIDUE_NAME>  (37) 
THR   HIE

>  <FRAG_NAME>  (37) 
ETOH   MIME

>  <FRAG_ATOM_NUM>  (37) 
fragi: 9  fragj: 12

>  <atom.prop.CHAIN_ID>  (37) 
A A A A A A A A A Z Z Z Z Z Z Z Z Z Z Z Z

>  <atom.prop.IS_HEAVY_ATOM>  (37) 
1 0 0 0 1 0 0 1 0 1 0 0 0 1 1 0 1 0 1 0 1

>  <DIFUSE_FUNC_ATOM>  (37) 
n/a

>  <FINAL_SINGLE_POINT_ENERGY>  (37) 
0

>  <NONCOV_INTER_ENERGY_QM>  (37) 
0

>  <FF_Energy>  (37) 
6.24

>  <QM_Energy>  (37) 
18.68

>  <source>  (37) 
ETOH_MIME

>  <Index>  (37) 
5767

$$$$
ETOH-pdb1pgn-A-SER-128:MIME-pdb1pgn-A-HIE-186
     RDKit          3D

 21 20  0  0  0  0  0  0  0  0999 V2000
   -1.3998   -4.3090    3.2818 C   0  0  0  0  0  0  0  0  0  0  0  0
   -2.2304   -4.4878    2.7649 H   0  0  0  0  0  0  0  0  0  0  0  0
   -1.6748   -4.1031    4.3163 H   0  0  0  0  0  0  0  0  0  0  0  0
   -0.7990   -5.2183    3.2868 H   0  0  0  0  0  0  0  0  0  0  0  0
   -0.5873   -3.1523    2.6652 C   0  0  0  0  0  0  0  0  0  0  0  0
   -1.0322   -2.2922    2.8941 H   0  0  0  0  0  0  0  0  0  0  0  0
    0.3340   -3.1742    3.0419 H   0  0  0  0  0  0  0  0  0  0  0  0
   -0.5051   -3.2647    1.2401 O   0  0  0  0  0  0  0  0  0  0  0  0
   -0.7329   -2.3852    0.8305 H   0  0  0  0  0  0  0  0  0  0  0  0
   -0.2028    2.6119    0.3581 C   0  0  0  0  0  0  0  0  0  0  0  0
    0.5459    2.8835    0.9840 H   0  0  0  0  0  0  0  0  0  0  0  0
   -1.0744    2.7230    0.8624 H   0  0  0  0  0  0  0  0  0  0  0  0
   -0.2058    3.2848   -0.4993 H   0  0  0  0  0  0  0  0  0  0  0  0
   -0.0360    1.1646    0.0300 C   0  0  0  0  0  0  0  0  0  0  0  0
    1.0727    0.4236    0.0000 C   0  0  0  0  0  0  0  0  0  0  0  0
    2.0162    0.7514   -0.0087 H   0  0  0  0  0  0  0  0  0  0  0  0
    0.6683   -0.8762   -0.0152 N   0  0  0  0  0  0  0  0  0  0  0  0
    1.3071   -1.6771   -0.0271 H   0  0  0  0  0  0  0  0  0  0  0  0
   -0.6323   -0.9736   -0.0148 C   0  0  0  0  0  0  0  0  0  0  0  0
   -1.1697   -1.7959   -0.0216 H   0  0  0  0  0  0  0  0  0  0  0  0
   -1.0727    0.2616   -0.0000 N   0  0  0  0  0  0  0  0  0  0  0  0
  1  5  1  0
  5  8  1  0
  1  2  1  0
  1  3  1  0
  1  4  1  0
  5  6  1  0
  5  7  1  0
  8  9  1  0
 10 14  1  0
 14 15  2  0
 15 17  1  0
 17 19  1  0
 19 21  2  0
 21 14  1  0
 10 11  1  0
 10 12  1  0
 10 13  1  0
 15 16  1  0
 17 18  1  0
 19 20  1  0
M  END
>  <PDB_ID>  (38) 
pdb1pgn

>  <RESIDUE_NAME>  (38) 
SER   HIE

>  <FRAG_NAME>  (38) 
ETOH   MIME

>  <FRAG_ATOM_NUM>  (38) 
fragi: 9  fragj: 12

>  <atom.prop.CHAIN_ID>  (38) 
A A A A A A A A A Z Z Z Z Z Z Z Z Z Z Z Z

>  <atom.prop.IS_HEAVY_ATOM>  (38) 
1 0 0 0 1 0 0 1 0 1 0 0 0 1 1 0 1 0 1 0 1

>  <DIFUSE_FUNC_ATOM>  (38) 
n/a

>  <FINAL_SINGLE_POINT_ENERGY>  (38) 
0

>  <NONCOV_INTER_ENERGY_QM>  (38) 
0

>  <FF_Energy>  (38) 
6.4

>  <QM_Energy>  (38) 
17.78

>  <source>  (38) 
ETOH_MIME

>  <Index>  (38) 
6551

$$$$
ETOH-pdb1pk8-B-THR-241:MIME-pdb1pk8-B-HIE-236
     RDKit          3D

 21 20  0  0  0  0  0  0  0  0999 V2000
   -3.5482   -4.1346   -1.1736 C   0  0  0  0  0  0  0  0  0  0  0  0
   -4.3288   -4.7613   -1.1681 H   0  0  0  0  0  0  0  0  0  0  0  0
   -3.8059   -3.2874   -1.6407 H   0  0  0  0  0  0  0  0  0  0  0  0
   -2.7826   -4.5616   -1.6574 H   0  0  0  0  0  0  0  0  0  0  0  0
   -3.1339   -3.8203    0.2667 C   0  0  0  0  0  0  0  0  0  0  0  0
   -3.4026   -4.5766    0.8941 H   0  0  0  0  0  0  0  0  0  0  0  0
   -3.6025   -2.8979    0.6096 H   0  0  0  0  0  0  0  0  0  0  0  0
   -1.7126   -3.6738    0.3219 O   0  0  0  0  0  0  0  0  0  0  0  0
   -1.4576   -2.7010    0.2821 H   0  0  0  0  0  0  0  0  0  0  0  0
   -0.1802    2.6530    0.0003 C   0  0  0  0  0  0  0  0  0  0  0  0
   -0.7399    2.9110   -0.7943 H   0  0  0  0  0  0  0  0  0  0  0  0
    0.7296    3.0698   -0.0994 H   0  0  0  0  0  0  0  0  0  0  0  0
   -0.6494    3.0368    0.9063 H   0  0  0  0  0  0  0  0  0  0  0  0
   -0.0187    1.1669   -0.0015 C   0  0  0  0  0  0  0  0  0  0  0  0
    1.0910    0.3917    0.0000 C   0  0  0  0  0  0  0  0  0  0  0  0
    2.0356    0.7069    0.0013 H   0  0  0  0  0  0  0  0  0  0  0  0
    0.6698   -0.9173    0.0006 N   0  0  0  0  0  0  0  0  0  0  0  0
    1.2681   -1.7202   -0.0004 H   0  0  0  0  0  0  0  0  0  0  0  0
   -0.6511   -0.9432    0.0009 C   0  0  0  0  0  0  0  0  0  0  0  0
   -1.2169   -1.7626    0.0027 H   0  0  0  0  0  0  0  0  0  0  0  0
   -1.0910    0.3019    0.0000 N   0  0  0  0  0  0  0  0  0  0  0  0
  1  5  1  0
  5  8  1  0
  1  2  1  0
  1  3  1  0
  1  4  1  0
  5  6  1  0
  5  7  1  0
  8  9  1  0
 10 14  1  0
 14 15  2  0
 15 17  1  0
 17 19  1  0
 19 21  2  0
 21 14  1  0
 10 11  1  0
 10 12  1  0
 10 13  1  0
 15 16  1  0
 17 18  1  0
 19 20  1  0
M  END
>  <PDB_ID>  (39) 
pdb1pk8

>  <RESIDUE_NAME>  (39) 
THR   HIE

>  <FRAG_NAME>  (39) 
ETOH   MIME

>  <FRAG_ATOM_NUM>  (39) 
fragi: 9  fragj: 12

>  <atom.prop.CHAIN_ID>  (39) 
A A A A A A A A A Z Z Z Z Z Z Z Z Z Z Z Z

>  <atom.prop.IS_HEAVY_ATOM>  (39) 
1 0 0 0 1 0 0 1 0 1 0 0 0 1 1 0 1 0 1 0 1

>  <DIFUSE_FUNC_ATOM>  (39) 
n/a

>  <FINAL_SINGLE_POINT_ENERGY>  (39) 
0

>  <NONCOV_INTER_ENERGY_QM>  (39) 
0

>  <FF_Energy>  (39) 
6.14

>  <QM_Energy>  (39) 
19.66

>  <source>  (39) 
ETOH_MIME

>  <Index>  (39) 
6654

$$$$
ETOH-pdb4mx2-A-SER-149:MIME-pdb4mx2-A-HIE-118
     RDKit          3D

 21 20  0  0  0  0  0  0  0  0999 V2000
   -2.5468   -5.6692    0.4097 C   0  0  0  0  0  0  0  0  0  0  0  0
   -3.3527   -5.3053    0.8971 H   0  0  0  0  0  0  0  0  0  0  0  0
   -1.9401   -6.2241    1.1252 H   0  0  0  0  0  0  0  0  0  0  0  0
   -2.9056   -6.3119   -0.3943 H   0  0  0  0  0  0  0  0  0  0  0  0
   -1.7549   -4.4833   -0.1279 C   0  0  0  0  0  0  0  0  0  0  0  0
   -0.8723   -4.8021   -0.4505 H   0  0  0  0  0  0  0  0  0  0  0  0
   -2.2659   -4.0612   -0.8671 H   0  0  0  0  0  0  0  0  0  0  0  0
   -1.5501   -3.5213    0.8980 O   0  0  0  0  0  0  0  0  0  0  0  0
   -0.9038   -2.8303    0.5799 H   0  0  0  0  0  0  0  0  0  0  0  0
   -0.0675    2.6344    0.0203 C   0  0  0  0  0  0  0  0  0  0  0  0
    0.8657    3.0117    0.0551 H   0  0  0  0  0  0  0  0  0  0  0  0
   -0.5548    2.9210    0.8536 H   0  0  0  0  0  0  0  0  0  0  0  0
   -0.5818    3.0514   -0.8455 H   0  0  0  0  0  0  0  0  0  0  0  0
    0.0236    1.1454    0.0137 C   0  0  0  0  0  0  0  0  0  0  0  0
    1.1146    0.3444    0.0000 C   0  0  0  0  0  0  0  0  0  0  0  0
    2.0648    0.6351   -0.0063 H   0  0  0  0  0  0  0  0  0  0  0  0
    0.6551   -0.9495   -0.0014 N   0  0  0  0  0  0  0  0  0  0  0  0
    1.2034   -1.7716    0.0043 H   0  0  0  0  0  0  0  0  0  0  0  0
   -0.6787   -0.8951   -0.0123 C   0  0  0  0  0  0  0  0  0  0  0  0
   -1.2767   -1.7125   -0.0276 H   0  0  0  0  0  0  0  0  0  0  0  0
   -1.1146    0.3548   -0.0000 N   0  0  0  0  0  0  0  0  0  0  0  0
  1  5  1  0
  5  8  1  0
  1  2  1  0
  1  3  1  0
  1  4  1  0
  5  6  1  0
  5  7  1  0
  8  9  1  0
 10 14  1  0
 14 15  2  0
 15 17  1  0
 17 19  1  0
 19 21  2  0
 21 14  1  0
 10 11  1  0
 10 12  1  0
 10 13  1  0
 15 16  1  0
 17 18  1  0
 19 20  1  0
M  END
>  <PDB_ID>  (40) 
pdb4mx2

>  <RESIDUE_NAME>  (40) 
SER   HIE

>  <FRAG_NAME>  (40) 
ETOH   MIME

>  <FRAG_ATOM_NUM>  (40) 
fragi: 9  fragj: 12

>  <atom.prop.CHAIN_ID>  (40) 
A A A A A A A A A Z Z Z Z Z Z Z Z Z Z Z Z

>  <atom.prop.IS_HEAVY_ATOM>  (40) 
1 0 0 0 1 0 0 1 0 1 0 0 0 1 1 0 1 0 1 0 1

>  <DIFUSE_FUNC_ATOM>  (40) 
n/a

>  <FINAL_SINGLE_POINT_ENERGY>  (40) 
0

>  <NONCOV_INTER_ENERGY_QM>  (40) 
0

>  <FF_Energy>  (40) 
5.14

>  <QM_Energy>  (40) 
10.14

>  <source>  (40) 
ETOH_MIME

>  <Index>  (40) 
6812

$$$$
ETOH-pdb4mx2-D-SER-149:MIME-pdb4mx2-D-HIE-118
     RDKit          3D

 21 20  0  0  0  0  0  0  0  0999 V2000
   -2.5714   -5.6813    0.0660 C   0  0  0  0  0  0  0  0  0  0  0  0
   -3.4366   -5.3320    0.4577 H   0  0  0  0  0  0  0  0  0  0  0  0
   -2.0470   -6.2316    0.8472 H   0  0  0  0  0  0  0  0  0  0  0  0
   -2.8217   -6.3114   -0.7875 H   0  0  0  0  0  0  0  0  0  0  0  0
   -1.7516   -4.4723   -0.3667 C   0  0  0  0  0  0  0  0  0  0  0  0
   -0.8286   -4.7627   -0.5710 H   0  0  0  0  0  0  0  0  0  0  0  0
   -2.1796   -4.0577   -1.1567 H   0  0  0  0  0  0  0  0  0  0  0  0
   -1.7156   -3.5248    0.6904 O   0  0  0  0  0  0  0  0  0  0  0  0
   -1.0323   -2.8252    0.4861 H   0  0  0  0  0  0  0  0  0  0  0  0
   -0.0774    2.6340   -0.0272 C   0  0  0  0  0  0  0  0  0  0  0  0
    0.8330    3.0170    0.1721 H   0  0  0  0  0  0  0  0  0  0  0  0
   -0.7096    2.9247    0.7004 H   0  0  0  0  0  0  0  0  0  0  0  0
   -0.4277    3.0420   -0.9753 H   0  0  0  0  0  0  0  0  0  0  0  0
    0.0191    1.1443   -0.0047 C   0  0  0  0  0  0  0  0  0  0  0  0
    1.1096    0.3474    0.0000 C   0  0  0  0  0  0  0  0  0  0  0  0
    2.0606    0.6386    0.0029 H   0  0  0  0  0  0  0  0  0  0  0  0
    0.6533   -0.9481   -0.0008 N   0  0  0  0  0  0  0  0  0  0  0  0
    1.2069   -1.7686   -0.0067 H   0  0  0  0  0  0  0  0  0  0  0  0
   -0.6725   -0.8960    0.0054 C   0  0  0  0  0  0  0  0  0  0  0  0
   -1.2732   -1.7134    0.0156 H   0  0  0  0  0  0  0  0  0  0  0  0
   -1.1096    0.3524   -0.0000 N   0  0  0  0  0  0  0  0  0  0  0  0
  1  5  1  0
  5  8  1  0
  1  2  1  0
  1  3  1  0
  1  4  1  0
  5  6  1  0
  5  7  1  0
  8  9  1  0
 10 14  1  0
 14 15  2  0
 15 17  1  0
 17 19  1  0
 19 21  2  0
 21 14  1  0
 10 11  1  0
 10 12  1  0
 10 13  1  0
 15 16  1  0
 17 18  1  0
 19 20  1  0
M  END
>  <PDB_ID>  (41) 
pdb4mx2

>  <RESIDUE_NAME>  (41) 
SER   HIE

>  <FRAG_NAME>  (41) 
ETOH   MIME

>  <FRAG_ATOM_NUM>  (41) 
fragi: 9  fragj: 12

>  <atom.prop.CHAIN_ID>  (41) 
A A A A A A A A A Z Z Z Z Z Z Z Z Z Z Z Z

>  <atom.prop.IS_HEAVY_ATOM>  (41) 
1 0 0 0 1 0 0 1 0 1 0 0 0 1 1 0 1 0 1 0 1

>  <DIFUSE_FUNC_ATOM>  (41) 
n/a

>  <FINAL_SINGLE_POINT_ENERGY>  (41) 
0

>  <NONCOV_INTER_ENERGY_QM>  (41) 
0

>  <FF_Energy>  (41) 
6.49

>  <QM_Energy>  (41) 
12.68

>  <source>  (41) 
ETOH_MIME

>  <Index>  (41) 
6819

$$$$
ETOH-pdb3lub-I-THR-168:MIME-pdb3lub-I-HIE-36
     RDKit          3D

 21 20  0  0  0  0  0  0  0  0999 V2000
   -3.0564   -3.1728    0.2552 C   0  0  0  0  0  0  0  0  0  0  0  0
   -2.7344   -2.2810    0.5831 H   0  0  0  0  0  0  0  0  0  0  0  0
   -3.0909   -3.1586   -0.7469 H   0  0  0  0  0  0  0  0  0  0  0  0
   -3.9800   -3.3379    0.6110 H   0  0  0  0  0  0  0  0  0  0  0  0
   -2.1172   -4.2673    0.7257 C   0  0  0  0  0  0  0  0  0  0  0  0
   -2.1395   -5.1023    0.1359 H   0  0  0  0  0  0  0  0  0  0  0  0
   -2.3570   -4.5521    1.7501 H   0  0  0  0  0  0  0  0  0  0  0  0
   -0.8028   -3.7228    0.6789 O   0  0  0  0  0  0  0  0  0  0  0  0
   -0.8356   -2.7349    0.4838 H   0  0  0  0  0  0  0  0  0  0  0  0
   -0.1682    2.6534   -0.0789 C   0  0  0  0  0  0  0  0  0  0  0  0
   -1.1508    2.8725   -0.0191 H   0  0  0  0  0  0  0  0  0  0  0  0
    0.1735    2.9854   -0.9680 H   0  0  0  0  0  0  0  0  0  0  0  0
    0.3583    3.1786    0.7181 H   0  0  0  0  0  0  0  0  0  0  0  0
   -0.0146    1.1658   -0.0432 C   0  0  0  0  0  0  0  0  0  0  0  0
    1.0931    0.3857   -0.0000 C   0  0  0  0  0  0  0  0  0  0  0  0
    2.0384    0.7020    0.0045 H   0  0  0  0  0  0  0  0  0  0  0  0
    0.6695   -0.9176    0.0378 N   0  0  0  0  0  0  0  0  0  0  0  0
    1.2627   -1.7237    0.0814 H   0  0  0  0  0  0  0  0  0  0  0  0
   -0.6549   -0.9407    0.0054 C   0  0  0  0  0  0  0  0  0  0  0  0
   -1.2198   -1.7594   -0.0102 H   0  0  0  0  0  0  0  0  0  0  0  0
   -1.0931    0.3068   -0.0000 N   0  0  0  0  0  0  0  0  0  0  0  0
  1  5  1  0
  5  8  1  0
  1  2  1  0
  1  3  1  0
  1  4  1  0
  5  6  1  0
  5  7  1  0
  8  9  1  0
 10 14  1  0
 14 15  2  0
 15 17  1  0
 17 19  1  0
 19 21  2  0
 21 14  1  0
 10 11  1  0
 10 12  1  0
 10 13  1  0
 15 16  1  0
 17 18  1  0
 19 20  1  0
M  END
>  <PDB_ID>  (42) 
pdb3lub

>  <RESIDUE_NAME>  (42) 
THR   HIE

>  <FRAG_NAME>  (42) 
ETOH   MIME

>  <FRAG_ATOM_NUM>  (42) 
fragi: 9  fragj: 12

>  <atom.prop.CHAIN_ID>  (42) 
A A A A A A A A A Z Z Z Z Z Z Z Z Z Z Z Z

>  <atom.prop.IS_HEAVY_ATOM>  (42) 
1 0 0 0 1 0 0 1 0 1 0 0 0 1 1 0 1 0 1 0 1

>  <DIFUSE_FUNC_ATOM>  (42) 
n/a

>  <FINAL_SINGLE_POINT_ENERGY>  (42) 
0

>  <NONCOV_INTER_ENERGY_QM>  (42) 
0

>  <FF_Energy>  (42) 
4.8

>  <QM_Energy>  (42) 
15.09

>  <source>  (42) 
ETOH_MIME

>  <Index>  (42) 
6884

$$$$
ETOH-pdb2pjd-A-SER-66:MIME-pdb2pjd-A-HIE-45
     RDKit          3D

 21 20  0  0  0  0  0  0  0  0999 V2000
   -1.4755   -3.7382    3.2590 C   0  0  0  0  0  0  0  0  0  0  0  0
   -1.7055   -4.3784    3.9949 H   0  0  0  0  0  0  0  0  0  0  0  0
   -1.4548   -2.7334    3.6810 H   0  0  0  0  0  0  0  0  0  0  0  0
   -0.4868   -3.9963    2.8796 H   0  0  0  0  0  0  0  0  0  0  0  0
   -2.4935   -3.8436    2.1160 C   0  0  0  0  0  0  0  0  0  0  0  0
   -2.7381   -4.8009    1.9926 H   0  0  0  0  0  0  0  0  0  0  0  0
   -3.3015   -3.3125    2.3576 H   0  0  0  0  0  0  0  0  0  0  0  0
   -1.9602   -3.3427    0.8980 O   0  0  0  0  0  0  0  0  0  0  0  0
   -1.8261   -2.3562    0.9761 H   0  0  0  0  0  0  0  0  0  0  0  0
   -0.1948    2.6430   -0.1473 C   0  0  0  0  0  0  0  0  0  0  0  0
   -1.0671    2.8219   -0.6039 H   0  0  0  0  0  0  0  0  0  0  0  0
    0.5530    2.9976   -0.7090 H   0  0  0  0  0  0  0  0  0  0  0  0
   -0.1873    3.1555    0.8146 H   0  0  0  0  0  0  0  0  0  0  0  0
   -0.0248    1.1697   -0.0034 C   0  0  0  0  0  0  0  0  0  0  0  0
    1.0909    0.3927   -0.0000 C   0  0  0  0  0  0  0  0  0  0  0  0
    2.0328    0.7121    0.0014 H   0  0  0  0  0  0  0  0  0  0  0  0
    0.6731   -0.9183    0.0015 N   0  0  0  0  0  0  0  0  0  0  0  0
    1.2728   -1.7192    0.0017 H   0  0  0  0  0  0  0  0  0  0  0  0
   -0.6483   -0.9456    0.0020 C   0  0  0  0  0  0  0  0  0  0  0  0
   -1.2135   -1.7646    0.0052 H   0  0  0  0  0  0  0  0  0  0  0  0
   -1.0909    0.3016   -0.0000 N   0  0  0  0  0  0  0  0  0  0  0  0
  1  5  1  0
  5  8  1  0
  1  2  1  0
  1  3  1  0
  1  4  1  0
  5  6  1  0
  5  7  1  0
  8  9  1  0
 10 14  1  0
 14 15  2  0
 15 17  1  0
 17 19  1  0
 19 21  2  0
 21 14  1  0
 10 11  1  0
 10 12  1  0
 10 13  1  0
 15 16  1  0
 17 18  1  0
 19 20  1  0
M  END
>  <PDB_ID>  (43) 
pdb2pjd

>  <RESIDUE_NAME>  (43) 
SER   HIE

>  <FRAG_NAME>  (43) 
ETOH   MIME

>  <FRAG_ATOM_NUM>  (43) 
fragi: 9  fragj: 12

>  <atom.prop.CHAIN_ID>  (43) 
A A A A A A A A A Z Z Z Z Z Z Z Z Z Z Z Z

>  <atom.prop.IS_HEAVY_ATOM>  (43) 
1 0 0 0 1 0 0 1 0 1 0 0 0 1 1 0 1 0 1 0 1

>  <DIFUSE_FUNC_ATOM>  (43) 
n/a

>  <FINAL_SINGLE_POINT_ENERGY>  (43) 
0

>  <NONCOV_INTER_ENERGY_QM>  (43) 
0

>  <FF_Energy>  (43) 
1.79

>  <QM_Energy>  (43) 
7.4

>  <source>  (43) 
ETOH_MIME

>  <Index>  (43) 
6895

$$$$
ETOH-pdb2ppy-A-THR-12:MIME-pdb2ppy-A-HIE-25
     RDKit          3D

 21 20  0  0  0  0  0  0  0  0999 V2000
   -3.9550   -4.5834    0.4830 C   0  0  0  0  0  0  0  0  0  0  0  0
   -3.8276   -4.5477    1.4770 H   0  0  0  0  0  0  0  0  0  0  0  0
   -4.9263   -4.4473    0.2718 H   0  0  0  0  0  0  0  0  0  0  0  0
   -3.6705   -5.4846    0.1481 H   0  0  0  0  0  0  0  0  0  0  0  0
   -3.1245   -3.4993   -0.1832 C   0  0  0  0  0  0  0  0  0  0  0  0
   -3.6470   -2.6254   -0.2247 H   0  0  0  0  0  0  0  0  0  0  0  0
   -2.8503   -3.7901   -1.1973 H   0  0  0  0  0  0  0  0  0  0  0  0
   -1.9388   -3.2785    0.5861 O   0  0  0  0  0  0  0  0  0  0  0  0
   -1.6115   -2.3356    0.4627 H   0  0  0  0  0  0  0  0  0  0  0  0
   -0.1819    2.6574    0.0173 C   0  0  0  0  0  0  0  0  0  0  0  0
    0.4044    3.0345    0.7434 H   0  0  0  0  0  0  0  0  0  0  0  0
   -1.1404    2.8690    0.2392 H   0  0  0  0  0  0  0  0  0  0  0  0
    0.0726    3.1433   -0.9247 H   0  0  0  0  0  0  0  0  0  0  0  0
   -0.0175    1.1673    0.0005 C   0  0  0  0  0  0  0  0  0  0  0  0
    1.0914    0.3888   -0.0000 C   0  0  0  0  0  0  0  0  0  0  0  0
    2.0363    0.7041    0.0008 H   0  0  0  0  0  0  0  0  0  0  0  0
    0.6692   -0.9179   -0.0009 N   0  0  0  0  0  0  0  0  0  0  0  0
    1.2656   -1.7230   -0.0032 H   0  0  0  0  0  0  0  0  0  0  0  0
   -0.6517   -0.9426    0.0004 C   0  0  0  0  0  0  0  0  0  0  0  0
   -1.2185   -1.7601    0.0026 H   0  0  0  0  0  0  0  0  0  0  0  0
   -1.0914    0.3045    0.0000 N   0  0  0  0  0  0  0  0  0  0  0  0
  1  5  1  0
  5  8  1  0
  1  2  1  0
  1  3  1  0
  1  4  1  0
  5  6  1  0
  5  7  1  0
  8  9  1  0
 10 14  1  0
 14 15  2  0
 15 17  1  0
 17 19  1  0
 19 21  2  0
 21 14  1  0
 10 11  1  0
 10 12  1  0
 10 13  1  0
 15 16  1  0
 17 18  1  0
 19 20  1  0
M  END
>  <PDB_ID>  (44) 
pdb2ppy

>  <RESIDUE_NAME>  (44) 
THR   HIE

>  <FRAG_NAME>  (44) 
ETOH   MIME

>  <FRAG_ATOM_NUM>  (44) 
fragi: 9  fragj: 12

>  <atom.prop.CHAIN_ID>  (44) 
A A A A A A A A A Z Z Z Z Z Z Z Z Z Z Z Z

>  <atom.prop.IS_HEAVY_ATOM>  (44) 
1 0 0 0 1 0 0 1 0 1 0 0 0 1 1 0 1 0 1 0 1

>  <DIFUSE_FUNC_ATOM>  (44) 
n/a

>  <FINAL_SINGLE_POINT_ENERGY>  (44) 
0

>  <NONCOV_INTER_ENERGY_QM>  (44) 
0

>  <FF_Energy>  (44) 
17.57

>  <QM_Energy>  (44) 
40.48

>  <source>  (44) 
ETOH_MIME

>  <Index>  (44) 
7202

$$$$
ETOH-pdb2ppy-D-THR-12:MIME-pdb2ppy-D-HIE-25
     RDKit          3D

 21 20  0  0  0  0  0  0  0  0999 V2000
   -4.0457   -4.5632    0.3967 C   0  0  0  0  0  0  0  0  0  0  0  0
   -3.6198   -4.9044    1.2372 H   0  0  0  0  0  0  0  0  0  0  0  0
   -4.9520   -4.1937    0.6147 H   0  0  0  0  0  0  0  0  0  0  0  0
   -4.1472   -5.3214   -0.2510 H   0  0  0  0  0  0  0  0  0  0  0  0
   -3.1782   -3.4730   -0.2156 C   0  0  0  0  0  0  0  0  0  0  0  0
   -3.6587   -2.5735   -0.2107 H   0  0  0  0  0  0  0  0  0  0  0  0
   -2.9211   -3.7229   -1.2450 H   0  0  0  0  0  0  0  0  0  0  0  0
   -1.9841   -3.3514    0.5606 O   0  0  0  0  0  0  0  0  0  0  0  0
   -1.6171   -2.4166    0.4969 H   0  0  0  0  0  0  0  0  0  0  0  0
   -0.1798    2.6566    0.0479 C   0  0  0  0  0  0  0  0  0  0  0  0
    0.4177    3.0206    0.7740 H   0  0  0  0  0  0  0  0  0  0  0  0
   -1.1348    2.8646    0.2953 H   0  0  0  0  0  0  0  0  0  0  0  0
    0.0566    3.1647   -0.8870 H   0  0  0  0  0  0  0  0  0  0  0  0
   -0.0170    1.1688    0.0046 C   0  0  0  0  0  0  0  0  0  0  0  0
    1.0918    0.3890   -0.0000 C   0  0  0  0  0  0  0  0  0  0  0  0
    2.0365    0.7025    0.0002 H   0  0  0  0  0  0  0  0  0  0  0  0
    0.6680   -0.9196   -0.0031 N   0  0  0  0  0  0  0  0  0  0  0  0
    1.2653   -1.7239   -0.0072 H   0  0  0  0  0  0  0  0  0  0  0  0
   -0.6510   -0.9418   -0.0015 C   0  0  0  0  0  0  0  0  0  0  0  0
   -1.2197   -1.7610   -0.0007 H   0  0  0  0  0  0  0  0  0  0  0  0
   -1.0918    0.3036   -0.0000 N   0  0  0  0  0  0  0  0  0  0  0  0
  1  5  1  0
  5  8  1  0
  1  2  1  0
  1  3  1  0
  1  4  1  0
  5  6  1  0
  5  7  1  0
  8  9  1  0
 10 14  1  0
 14 15  2  0
 15 17  1  0
 17 19  1  0
 19 21  2  0
 21 14  1  0
 10 11  1  0
 10 12  1  0
 10 13  1  0
 15 16  1  0
 17 18  1  0
 19 20  1  0
M  END
>  <PDB_ID>  (45) 
pdb2ppy

>  <RESIDUE_NAME>  (45) 
THR   HIE

>  <FRAG_NAME>  (45) 
ETOH   MIME

>  <FRAG_ATOM_NUM>  (45) 
fragi: 9  fragj: 12

>  <atom.prop.CHAIN_ID>  (45) 
A A A A A A A A A Z Z Z Z Z Z Z Z Z Z Z Z

>  <atom.prop.IS_HEAVY_ATOM>  (45) 
1 0 0 0 1 0 0 1 0 1 0 0 0 1 1 0 1 0 1 0 1

>  <DIFUSE_FUNC_ATOM>  (45) 
n/a

>  <FINAL_SINGLE_POINT_ENERGY>  (45) 
0

>  <NONCOV_INTER_ENERGY_QM>  (45) 
0

>  <FF_Energy>  (45) 
11.21

>  <QM_Energy>  (45) 
29.79

>  <source>  (45) 
ETOH_MIME

>  <Index>  (45) 
7206

$$$$
ETOH-pdb5v7i-A-SER-142:MIME-pdb5v7i-C-HIE-328
     RDKit          3D

 21 20  0  0  0  0  0  0  0  0999 V2000
    0.7764   -5.5496   -0.7437 C   0  0  0  0  0  0  0  0  0  0  0  0
    0.9261   -5.3750    0.2265 H   0  0  0  0  0  0  0  0  0  0  0  0
    1.7274   -5.4292   -1.2627 H   0  0  0  0  0  0  0  0  0  0  0  0
    0.4459   -6.5829   -0.8493 H   0  0  0  0  0  0  0  0  0  0  0  0
   -0.2653   -4.5543   -1.2885 C   0  0  0  0  0  0  0  0  0  0  0  0
    0.2077   -3.8761   -1.8440 H   0  0  0  0  0  0  0  0  0  0  0  0
   -0.9192   -5.0579   -1.8463 H   0  0  0  0  0  0  0  0  0  0  0  0
   -0.9496   -3.9048   -0.2390 O   0  0  0  0  0  0  0  0  0  0  0  0
   -0.8643   -2.9142   -0.3445 H   0  0  0  0  0  0  0  0  0  0  0  0
   -0.1812    2.6514    0.0300 C   0  0  0  0  0  0  0  0  0  0  0  0
    0.0909    3.0049   -0.8714 H   0  0  0  0  0  0  0  0  0  0  0  0
    0.4409    3.0332    0.7228 H   0  0  0  0  0  0  0  0  0  0  0  0
   -1.1993    2.9738    0.2484 H   0  0  0  0  0  0  0  0  0  0  0  0
   -0.0171    1.1663    0.0208 C   0  0  0  0  0  0  0  0  0  0  0  0
    1.0913    0.3868    0.0000 C   0  0  0  0  0  0  0  0  0  0  0  0
    2.0364    0.7030   -0.0069 H   0  0  0  0  0  0  0  0  0  0  0  0
    0.6690   -0.9184   -0.0097 N   0  0  0  0  0  0  0  0  0  0  0  0
    1.2644   -1.7231   -0.0148 H   0  0  0  0  0  0  0  0  0  0  0  0
   -0.6519   -0.9400   -0.0111 C   0  0  0  0  0  0  0  0  0  0  0  0
   -1.2203   -1.7588   -0.0186 H   0  0  0  0  0  0  0  0  0  0  0  0
   -1.0913    0.3053    0.0000 N   0  0  0  0  0  0  0  0  0  0  0  0
  1  5  1  0
  5  8  1  0
  1  2  1  0
  1  3  1  0
  1  4  1  0
  5  6  1  0
  5  7  1  0
  8  9  1  0
 10 14  1  0
 14 15  2  0
 15 17  1  0
 17 19  1  0
 19 21  2  0
 21 14  1  0
 10 11  1  0
 10 12  1  0
 10 13  1  0
 15 16  1  0
 17 18  1  0
 19 20  1  0
M  END
>  <PDB_ID>  (46) 
pdb5v7i

>  <RESIDUE_NAME>  (46) 
SER   HIE

>  <FRAG_NAME>  (46) 
ETOH   MIME

>  <FRAG_ATOM_NUM>  (46) 
fragi: 9  fragj: 12

>  <atom.prop.CHAIN_ID>  (46) 
A A A A A A A A A Z Z Z Z Z Z Z Z Z Z Z Z

>  <atom.prop.IS_HEAVY_ATOM>  (46) 
1 0 0 0 1 0 0 1 0 1 0 0 0 1 1 0 1 0 1 0 1

>  <DIFUSE_FUNC_ATOM>  (46) 
n/a

>  <FINAL_SINGLE_POINT_ENERGY>  (46) 
0

>  <NONCOV_INTER_ENERGY_QM>  (46) 
0

>  <FF_Energy>  (46) 
3.78

>  <QM_Energy>  (46) 
9.02

>  <source>  (46) 
ETOH_MIME

>  <Index>  (46) 
7375

$$$$
ETOH-pdb3m4r-A-SER-128:MIME-pdb3m4r-A-HIE-201
     RDKit          3D

 21 20  0  0  0  0  0  0  0  0999 V2000
    0.0299   -5.0183    1.2945 C   0  0  0  0  0  0  0  0  0  0  0  0
    0.0072   -5.4942    2.1861 H   0  0  0  0  0  0  0  0  0  0  0  0
    1.0031   -4.5389    1.1886 H   0  0  0  0  0  0  0  0  0  0  0  0
   -0.1507   -5.7638    0.5201 H   0  0  0  0  0  0  0  0  0  0  0  0
   -1.0815   -3.9720    1.2398 C   0  0  0  0  0  0  0  0  0  0  0  0
   -1.9073   -4.3566    1.6360 H   0  0  0  0  0  0  0  0  0  0  0  0
   -0.7937   -3.1686    1.7501 H   0  0  0  0  0  0  0  0  0  0  0  0
   -1.3496   -3.5903   -0.1040 O   0  0  0  0  0  0  0  0  0  0  0  0
   -1.2688   -2.5987   -0.1887 H   0  0  0  0  0  0  0  0  0  0  0  0
   -0.1649    2.6535    0.1003 C   0  0  0  0  0  0  0  0  0  0  0  0
    0.6167    3.0341    0.6042 H   0  0  0  0  0  0  0  0  0  0  0  0
   -1.0070    2.8625    0.6087 H   0  0  0  0  0  0  0  0  0  0  0  0
   -0.2178    3.1217   -0.8827 H   0  0  0  0  0  0  0  0  0  0  0  0
   -0.0086    1.1706    0.0395 C   0  0  0  0  0  0  0  0  0  0  0  0
    1.0931    0.3858   -0.0000 C   0  0  0  0  0  0  0  0  0  0  0  0
    2.0417    0.6922   -0.0005 H   0  0  0  0  0  0  0  0  0  0  0  0
    0.6644   -0.9256   -0.0392 N   0  0  0  0  0  0  0  0  0  0  0  0
    1.2583   -1.7282   -0.0884 H   0  0  0  0  0  0  0  0  0  0  0  0
   -0.6558   -0.9427   -0.0003 C   0  0  0  0  0  0  0  0  0  0  0  0
   -1.2291   -1.7555    0.0252 H   0  0  0  0  0  0  0  0  0  0  0  0
   -1.0931    0.3120   -0.0000 N   0  0  0  0  0  0  0  0  0  0  0  0
  1  5  1  0
  5  8  1  0
  1  2  1  0
  1  3  1  0
  1  4  1  0
  5  6  1  0
  5  7  1  0
  8  9  1  0
 10 14  1  0
 14 15  2  0
 15 17  1  0
 17 19  1  0
 19 21  2  0
 21 14  1  0
 10 11  1  0
 10 12  1  0
 10 13  1  0
 15 16  1  0
 17 18  1  0
 19 20  1  0
M  END
>  <PDB_ID>  (47) 
pdb3m4r

>  <RESIDUE_NAME>  (47) 
SER   HIE

>  <FRAG_NAME>  (47) 
ETOH   MIME

>  <FRAG_ATOM_NUM>  (47) 
fragi: 9  fragj: 12

>  <atom.prop.CHAIN_ID>  (47) 
A A A A A A A A A Z Z Z Z Z Z Z Z Z Z Z Z

>  <atom.prop.IS_HEAVY_ATOM>  (47) 
1 0 0 0 1 0 0 1 0 1 0 0 0 1 1 0 1 0 1 0 1

>  <DIFUSE_FUNC_ATOM>  (47) 
n/a

>  <FINAL_SINGLE_POINT_ENERGY>  (47) 
0

>  <NONCOV_INTER_ENERGY_QM>  (47) 
0

>  <FF_Energy>  (47) 
14.43

>  <QM_Energy>  (47) 
35.14

>  <source>  (47) 
ETOH_MIME

>  <Index>  (47) 
7389

$$$$
ETOH-pdb5vtb-A-SER-392:MIME-pdb5vtb-A-HIE-373
     RDKit          3D

 21 20  0  0  0  0  0  0  0  0999 V2000
   -0.5101   -4.6400   -2.2195 C   0  0  0  0  0  0  0  0  0  0  0  0
   -0.6427   -4.9441   -3.1623 H   0  0  0  0  0  0  0  0  0  0  0  0
   -0.5854   -5.5115   -1.5691 H   0  0  0  0  0  0  0  0  0  0  0  0
    0.4944   -4.2261   -2.1321 H   0  0  0  0  0  0  0  0  0  0  0  0
   -1.5806   -3.6008   -1.8883 C   0  0  0  0  0  0  0  0  0  0  0  0
   -1.3680   -2.7522   -2.3757 H   0  0  0  0  0  0  0  0  0  0  0  0
   -2.4693   -3.9447   -2.1958 H   0  0  0  0  0  0  0  0  0  0  0  0
   -1.6556   -3.3225   -0.4987 O   0  0  0  0  0  0  0  0  0  0  0  0
   -1.6706   -2.3341   -0.3580 H   0  0  0  0  0  0  0  0  0  0  0  0
   -0.0849    2.6417    0.0516 C   0  0  0  0  0  0  0  0  0  0  0  0
   -0.9654    2.9136   -0.3456 H   0  0  0  0  0  0  0  0  0  0  0  0
    0.6552    3.0239   -0.5078 H   0  0  0  0  0  0  0  0  0  0  0  0
   -0.0125    3.0604    1.0553 H   0  0  0  0  0  0  0  0  0  0  0  0
    0.0137    1.1433    0.0133 C   0  0  0  0  0  0  0  0  0  0  0  0
    1.1087    0.3467    0.0000 C   0  0  0  0  0  0  0  0  0  0  0  0
    2.0582    0.6455   -0.0019 H   0  0  0  0  0  0  0  0  0  0  0  0
    0.6581   -0.9428   -0.0090 N   0  0  0  0  0  0  0  0  0  0  0  0
    1.2113   -1.7657   -0.0200 H   0  0  0  0  0  0  0  0  0  0  0  0
   -0.6719   -0.8977   -0.0043 C   0  0  0  0  0  0  0  0  0  0  0  0
   -1.2667   -1.7161   -0.0024 H   0  0  0  0  0  0  0  0  0  0  0  0
   -1.1087    0.3504   -0.0000 N   0  0  0  0  0  0  0  0  0  0  0  0
  1  5  1  0
  5  8  1  0
  1  2  1  0
  1  3  1  0
  1  4  1  0
  5  6  1  0
  5  7  1  0
  8  9  1  0
 10 14  1  0
 14 15  2  0
 15 17  1  0
 17 19  1  0
 19 21  2  0
 21 14  1  0
 10 11  1  0
 10 12  1  0
 10 13  1  0
 15 16  1  0
 17 18  1  0
 19 20  1  0
M  END
>  <PDB_ID>  (48) 
pdb5vtb

>  <RESIDUE_NAME>  (48) 
SER   HIE

>  <FRAG_NAME>  (48) 
ETOH   MIME

>  <FRAG_ATOM_NUM>  (48) 
fragi: 9  fragj: 12

>  <atom.prop.CHAIN_ID>  (48) 
A A A A A A A A A Z Z Z Z Z Z Z Z Z Z Z Z

>  <atom.prop.IS_HEAVY_ATOM>  (48) 
1 0 0 0 1 0 0 1 0 1 0 0 0 1 1 0 1 0 1 0 1

>  <DIFUSE_FUNC_ATOM>  (48) 
n/a

>  <FINAL_SINGLE_POINT_ENERGY>  (48) 
0

>  <NONCOV_INTER_ENERGY_QM>  (48) 
0

>  <FF_Energy>  (48) 
22.32

>  <QM_Energy>  (48) 
43.98

>  <source>  (48) 
ETOH_MIME

>  <Index>  (48) 
7929

$$$$
ETOH-pdb4oaj-B-SER-18:MIME-pdb4oaj-A-HIE-384
     RDKit          3D

 21 20  0  0  0  0  0  0  0  0999 V2000
   -0.4442   -5.1800   -0.7952 C   0  0  0  0  0  0  0  0  0  0  0  0
   -1.2648   -5.6104   -0.3782 H   0  0  0  0  0  0  0  0  0  0  0  0
    0.2083   -4.8467    0.0118 H   0  0  0  0  0  0  0  0  0  0  0  0
    0.0267   -5.9191   -1.4433 H   0  0  0  0  0  0  0  0  0  0  0  0
   -0.9599   -3.9889   -1.5921 C   0  0  0  0  0  0  0  0  0  0  0  0
   -0.2179   -3.3493   -1.7374 H   0  0  0  0  0  0  0  0  0  0  0  0
   -1.3264   -4.3102   -2.4546 H   0  0  0  0  0  0  0  0  0  0  0  0
   -1.9938   -3.3379   -0.8659 O   0  0  0  0  0  0  0  0  0  0  0  0
   -1.7313   -2.3905   -0.6946 H   0  0  0  0  0  0  0  0  0  0  0  0
   -0.1766    2.6482   -0.0416 C   0  0  0  0  0  0  0  0  0  0  0  0
    0.3883    3.0377    0.6942 H   0  0  0  0  0  0  0  0  0  0  0  0
   -1.1406    2.8645    0.1493 H   0  0  0  0  0  0  0  0  0  0  0  0
    0.1095    3.1027   -0.9902 H   0  0  0  0  0  0  0  0  0  0  0  0
   -0.0159    1.1654   -0.0225 C   0  0  0  0  0  0  0  0  0  0  0  0
    1.0903    0.3871   -0.0000 C   0  0  0  0  0  0  0  0  0  0  0  0
    2.0369    0.7020    0.0077 H   0  0  0  0  0  0  0  0  0  0  0  0
    0.6684   -0.9183    0.0119 N   0  0  0  0  0  0  0  0  0  0  0  0
    1.2637   -1.7241    0.0173 H   0  0  0  0  0  0  0  0  0  0  0  0
   -0.6525   -0.9398    0.0105 C   0  0  0  0  0  0  0  0  0  0  0  0
   -1.2205   -1.7579    0.0187 H   0  0  0  0  0  0  0  0  0  0  0  0
   -1.0903    0.3056    0.0000 N   0  0  0  0  0  0  0  0  0  0  0  0
  1  5  1  0
  5  8  1  0
  1  2  1  0
  1  3  1  0
  1  4  1  0
  5  6  1  0
  5  7  1  0
  8  9  1  0
 10 14  1  0
 14 15  2  0
 15 17  1  0
 17 19  1  0
 19 21  2  0
 21 14  1  0
 10 11  1  0
 10 12  1  0
 10 13  1  0
 15 16  1  0
 17 18  1  0
 19 20  1  0
M  END
>  <PDB_ID>  (49) 
pdb4oaj

>  <RESIDUE_NAME>  (49) 
SER   HIE

>  <FRAG_NAME>  (49) 
ETOH   MIME

>  <FRAG_ATOM_NUM>  (49) 
fragi: 9  fragj: 12

>  <atom.prop.CHAIN_ID>  (49) 
A A A A A A A A A Z Z Z Z Z Z Z Z Z Z Z Z

>  <atom.prop.IS_HEAVY_ATOM>  (49) 
1 0 0 0 1 0 0 1 0 1 0 0 0 1 1 0 1 0 1 0 1

>  <DIFUSE_FUNC_ATOM>  (49) 
n/a

>  <FINAL_SINGLE_POINT_ENERGY>  (49) 
0

>  <NONCOV_INTER_ENERGY_QM>  (49) 
0

>  <FF_Energy>  (49) 
6.08

>  <QM_Energy>  (49) 
16.72

>  <source>  (49) 
ETOH_MIME

>  <Index>  (49) 
8505

$$$$
ETOH-pdb3nfl-G-SER-14:MIME-pdb3nfl-C-HIE-579
     RDKit          3D

 21 20  0  0  0  0  0  0  0  0999 V2000
   -0.5362   -5.2804   -0.8211 C   0  0  0  0  0  0  0  0  0  0  0  0
   -1.3110   -5.8189   -0.4541 H   0  0  0  0  0  0  0  0  0  0  0  0
    0.0095   -4.8607    0.0240 H   0  0  0  0  0  0  0  0  0  0  0  0
    0.0749   -5.9490   -1.4275 H   0  0  0  0  0  0  0  0  0  0  0  0
   -1.0929   -4.1653   -1.7054 C   0  0  0  0  0  0  0  0  0  0  0  0
   -0.3286   -3.7099   -2.1684 H   0  0  0  0  0  0  0  0  0  0  0  0
   -1.6946   -4.5739   -2.3972 H   0  0  0  0  0  0  0  0  0  0  0  0
   -1.8277   -3.1970   -0.9773 O   0  0  0  0  0  0  0  0  0  0  0  0
   -1.2572   -2.3912   -0.8251 H   0  0  0  0  0  0  0  0  0  0  0  0
   -0.0727    2.6404    0.0251 C   0  0  0  0  0  0  0  0  0  0  0  0
    0.5775    2.9932    0.7125 H   0  0  0  0  0  0  0  0  0  0  0  0
   -1.0040    2.8978    0.3164 H   0  0  0  0  0  0  0  0  0  0  0  0
    0.1384    3.1105   -0.9354 H   0  0  0  0  0  0  0  0  0  0  0  0
    0.0183    1.1437    0.0204 C   0  0  0  0  0  0  0  0  0  0  0  0
    1.1108    0.3469   -0.0000 C   0  0  0  0  0  0  0  0  0  0  0  0
    2.0610    0.6417    0.0010 H   0  0  0  0  0  0  0  0  0  0  0  0
    0.6577   -0.9472   -0.0202 N   0  0  0  0  0  0  0  0  0  0  0  0
    1.2066   -1.7674   -0.0465 H   0  0  0  0  0  0  0  0  0  0  0  0
   -0.6760   -0.8951   -0.0002 C   0  0  0  0  0  0  0  0  0  0  0  0
   -1.2716   -1.7139    0.0137 H   0  0  0  0  0  0  0  0  0  0  0  0
   -1.1108    0.3517   -0.0000 N   0  0  0  0  0  0  0  0  0  0  0  0
  1  5  1  0
  5  8  1  0
  1  2  1  0
  1  3  1  0
  1  4  1  0
  5  6  1  0
  5  7  1  0
  8  9  1  0
 10 14  1  0
 14 15  2  0
 15 17  1  0
 17 19  1  0
 19 21  2  0
 21 14  1  0
 10 11  1  0
 10 12  1  0
 10 13  1  0
 15 16  1  0
 17 18  1  0
 19 20  1  0
M  END
>  <PDB_ID>  (50) 
pdb3nfl

>  <RESIDUE_NAME>  (50) 
SER   HIE

>  <FRAG_NAME>  (50) 
ETOH   MIME

>  <FRAG_ATOM_NUM>  (50) 
fragi: 9  fragj: 12

>  <atom.prop.CHAIN_ID>  (50) 
A A A A A A A A A Z Z Z Z Z Z Z Z Z Z Z Z

>  <atom.prop.IS_HEAVY_ATOM>  (50) 
1 0 0 0 1 0 0 1 0 1 0 0 0 1 1 0 1 0 1 0 1

>  <DIFUSE_FUNC_ATOM>  (50) 
n/a

>  <FINAL_SINGLE_POINT_ENERGY>  (50) 
0

>  <NONCOV_INTER_ENERGY_QM>  (50) 
0

>  <FF_Energy>  (50) 
9.98

>  <QM_Energy>  (50) 
19.92

>  <source>  (50) 
ETOH_MIME

>  <Index>  (50) 
9315

$$$$
ETOH-pdb4pby-A-SER-392:MIME-pdb4pby-A-HIE-373
     RDKit          3D

 21 20  0  0  0  0  0  0  0  0999 V2000
   -0.0802   -4.8224   -1.7750 C   0  0  0  0  0  0  0  0  0  0  0  0
   -0.1484   -5.1595   -2.7189 H   0  0  0  0  0  0  0  0  0  0  0  0
   -0.1805   -5.6788   -1.1083 H   0  0  0  0  0  0  0  0  0  0  0  0
    0.8928   -4.3459   -1.6554 H   0  0  0  0  0  0  0  0  0  0  0  0
   -1.1919   -3.8051   -1.5438 C   0  0  0  0  0  0  0  0  0  0  0  0
   -0.9562   -2.9584   -2.0196 H   0  0  0  0  0  0  0  0  0  0  0  0
   -2.0440   -4.1711   -1.9171 H   0  0  0  0  0  0  0  0  0  0  0  0
   -1.3704   -3.5295   -0.1743 O   0  0  0  0  0  0  0  0  0  0  0  0
   -1.5200   -2.5485   -0.0437 H   0  0  0  0  0  0  0  0  0  0  0  0
   -0.1885    2.6308   -0.0076 C   0  0  0  0  0  0  0  0  0  0  0  0
   -1.0769    2.8511   -0.4198 H   0  0  0  0  0  0  0  0  0  0  0  0
    0.5391    3.0333   -0.5688 H   0  0  0  0  0  0  0  0  0  0  0  0
   -0.1474    3.0819    0.9839 H   0  0  0  0  0  0  0  0  0  0  0  0
   -0.0196    1.1627    0.0204 C   0  0  0  0  0  0  0  0  0  0  0  0
    1.0865    0.3919   -0.0000 C   0  0  0  0  0  0  0  0  0  0  0  0
    2.0324    0.7085   -0.0061 H   0  0  0  0  0  0  0  0  0  0  0  0
    0.6686   -0.9161   -0.0108 N   0  0  0  0  0  0  0  0  0  0  0  0
    1.2689   -1.7178   -0.0202 H   0  0  0  0  0  0  0  0  0  0  0  0
   -0.6490   -0.9420   -0.0096 C   0  0  0  0  0  0  0  0  0  0  0  0
   -1.2168   -1.7596   -0.0136 H   0  0  0  0  0  0  0  0  0  0  0  0
   -1.0865    0.3035    0.0000 N   0  0  0  0  0  0  0  0  0  0  0  0
  1  5  1  0
  5  8  1  0
  1  2  1  0
  1  3  1  0
  1  4  1  0
  5  6  1  0
  5  7  1  0
  8  9  1  0
 10 14  1  0
 14 15  2  0
 15 17  1  0
 17 19  1  0
 19 21  2  0
 21 14  1  0
 10 11  1  0
 10 12  1  0
 10 13  1  0
 15 16  1  0
 17 18  1  0
 19 20  1  0
M  END
>  <PDB_ID>  (51) 
pdb4pby

>  <RESIDUE_NAME>  (51) 
SER   HIE

>  <FRAG_NAME>  (51) 
ETOH   MIME

>  <FRAG_ATOM_NUM>  (51) 
fragi: 9  fragj: 12

>  <atom.prop.CHAIN_ID>  (51) 
A A A A A A A A A Z Z Z Z Z Z Z Z Z Z Z Z

>  <atom.prop.IS_HEAVY_ATOM>  (51) 
1 0 0 0 1 0 0 1 0 1 0 0 0 1 1 0 1 0 1 0 1

>  <DIFUSE_FUNC_ATOM>  (51) 
n/a

>  <FINAL_SINGLE_POINT_ENERGY>  (51) 
0

>  <NONCOV_INTER_ENERGY_QM>  (51) 
0

>  <FF_Energy>  (51) 
17.09

>  <QM_Energy>  (51) 
39.36

>  <source>  (51) 
ETOH_MIME

>  <Index>  (51) 
9686

$$$$
ETOH-pdb4q3p-B-SER-301:MIME-pdb4q3p-B-HIE-141
     RDKit          3D

 21 20  0  0  0  0  0  0  0  0999 V2000
    1.2471   -4.6277   -2.2353 C   0  0  0  0  0  0  0  0  0  0  0  0
    0.6138   -5.2397   -2.7178 H   0  0  0  0  0  0  0  0  0  0  0  0
    2.1448   -5.1926   -1.9840 H   0  0  0  0  0  0  0  0  0  0  0  0
    1.4946   -3.8066   -2.9080 H   0  0  0  0  0  0  0  0  0  0  0  0
    0.5948   -4.1062   -0.9574 C   0  0  0  0  0  0  0  0  0  0  0  0
    0.3415   -4.8830   -0.3851 H   0  0  0  0  0  0  0  0  0  0  0  0
    1.2505   -3.5293   -0.4745 H   0  0  0  0  0  0  0  0  0  0  0  0
   -0.5633   -3.3468   -1.2418 O   0  0  0  0  0  0  0  0  0  0  0  0
   -0.4772   -2.4390   -0.8328 H   0  0  0  0  0  0  0  0  0  0  0  0
   -0.1772    2.6565   -0.0037 C   0  0  0  0  0  0  0  0  0  0  0  0
    0.2197    3.0178   -0.8558 H   0  0  0  0  0  0  0  0  0  0  0  0
    0.3430    3.0318    0.7722 H   0  0  0  0  0  0  0  0  0  0  0  0
   -1.2125    2.9888    0.0726 H   0  0  0  0  0  0  0  0  0  0  0  0
   -0.0153    1.1690   -0.0032 C   0  0  0  0  0  0  0  0  0  0  0  0
    1.0911    0.3876    0.0000 C   0  0  0  0  0  0  0  0  0  0  0  0
    2.0369    0.7023    0.0009 H   0  0  0  0  0  0  0  0  0  0  0  0
    0.6692   -0.9190    0.0015 N   0  0  0  0  0  0  0  0  0  0  0  0
    1.2633   -1.7240    0.0020 H   0  0  0  0  0  0  0  0  0  0  0  0
   -0.6539   -0.9410    0.0017 C   0  0  0  0  0  0  0  0  0  0  0  0
   -1.2204   -1.7599    0.0037 H   0  0  0  0  0  0  0  0  0  0  0  0
   -1.0911    0.3034   -0.0000 N   0  0  0  0  0  0  0  0  0  0  0  0
  1  5  1  0
  5  8  1  0
  1  2  1  0
  1  3  1  0
  1  4  1  0
  5  6  1  0
  5  7  1  0
  8  9  1  0
 10 14  1  0
 14 15  2  0
 15 17  1  0
 17 19  1  0
 19 21  2  0
 21 14  1  0
 10 11  1  0
 10 12  1  0
 10 13  1  0
 15 16  1  0
 17 18  1  0
 19 20  1  0
M  END
>  <PDB_ID>  (52) 
pdb4q3p

>  <RESIDUE_NAME>  (52) 
SER   HIE

>  <FRAG_NAME>  (52) 
ETOH   MIME

>  <FRAG_ATOM_NUM>  (52) 
fragi: 9  fragj: 12

>  <atom.prop.CHAIN_ID>  (52) 
A A A A A A A A A Z Z Z Z Z Z Z Z Z Z Z Z

>  <atom.prop.IS_HEAVY_ATOM>  (52) 
1 0 0 0 1 0 0 1 0 1 0 0 0 1 1 0 1 0 1 0 1

>  <DIFUSE_FUNC_ATOM>  (52) 
n/a

>  <FINAL_SINGLE_POINT_ENERGY>  (52) 
0

>  <NONCOV_INTER_ENERGY_QM>  (52) 
0

>  <FF_Energy>  (52) 
7.0

>  <QM_Energy>  (52) 
14.38

>  <source>  (52) 
ETOH_MIME

>  <Index>  (52) 
10712

$$$$
ETOH-pdb5yta-A-SER-263:MIME-pdb5yta-A-HIE-272
     RDKit          3D

 21 20  0  0  0  0  0  0  0  0999 V2000
   -3.1349   -4.5748   -2.2022 C   0  0  0  0  0  0  0  0  0  0  0  0
   -3.2621   -5.2505   -1.4655 H   0  0  0  0  0  0  0  0  0  0  0  0
   -2.3501   -4.9337   -2.8682 H   0  0  0  0  0  0  0  0  0  0  0  0
   -4.0808   -4.4833   -2.7360 H   0  0  0  0  0  0  0  0  0  0  0  0
   -2.7531   -3.2086   -1.6471 C   0  0  0  0  0  0  0  0  0  0  0  0
   -2.3339   -2.6768   -2.3683 H   0  0  0  0  0  0  0  0  0  0  0  0
   -3.5686   -2.7662   -1.3039 H   0  0  0  0  0  0  0  0  0  0  0  0
   -1.8399   -3.3864   -0.6028 O   0  0  0  0  0  0  0  0  0  0  0  0
   -1.5785   -2.4976   -0.2214 H   0  0  0  0  0  0  0  0  0  0  0  0
   -0.1559    2.6595   -0.0259 C   0  0  0  0  0  0  0  0  0  0  0  0
   -1.0054    2.8824   -0.5202 H   0  0  0  0  0  0  0  0  0  0  0  0
    0.6196    3.0360   -0.5484 H   0  0  0  0  0  0  0  0  0  0  0  0
   -0.1840    3.1389    0.9527 H   0  0  0  0  0  0  0  0  0  0  0  0
   -0.0133    1.1656    0.0167 C   0  0  0  0  0  0  0  0  0  0  0  0
    1.0905    0.3863   -0.0000 C   0  0  0  0  0  0  0  0  0  0  0  0
    2.0372    0.7002   -0.0045 H   0  0  0  0  0  0  0  0  0  0  0  0
    0.6669   -0.9168   -0.0088 N   0  0  0  0  0  0  0  0  0  0  0  0
    1.2626   -1.7234   -0.0163 H   0  0  0  0  0  0  0  0  0  0  0  0
   -0.6536   -0.9406   -0.0079 C   0  0  0  0  0  0  0  0  0  0  0  0
   -1.2216   -1.7582   -0.0111 H   0  0  0  0  0  0  0  0  0  0  0  0
   -1.0905    0.3055    0.0000 N   0  0  0  0  0  0  0  0  0  0  0  0
  1  5  1  0
  5  8  1  0
  1  2  1  0
  1  3  1  0
  1  4  1  0
  5  6  1  0
  5  7  1  0
  8  9  1  0
 10 14  1  0
 14 15  2  0
 15 17  1  0
 17 19  1  0
 19 21  2  0
 21 14  1  0
 10 11  1  0
 10 12  1  0
 10 13  1  0
 15 16  1  0
 17 18  1  0
 19 20  1  0
M  END
>  <PDB_ID>  (53) 
pdb5yta

>  <RESIDUE_NAME>  (53) 
SER   HIE

>  <FRAG_NAME>  (53) 
ETOH   MIME

>  <FRAG_ATOM_NUM>  (53) 
fragi: 9  fragj: 12

>  <atom.prop.CHAIN_ID>  (53) 
A A A A A A A A A Z Z Z Z Z Z Z Z Z Z Z Z

>  <atom.prop.IS_HEAVY_ATOM>  (53) 
1 0 0 0 1 0 0 1 0 1 0 0 0 1 1 0 1 0 1 0 1

>  <DIFUSE_FUNC_ATOM>  (53) 
n/a

>  <FINAL_SINGLE_POINT_ENERGY>  (53) 
0

>  <NONCOV_INTER_ENERGY_QM>  (53) 
0

>  <FF_Energy>  (53) 
13.85

>  <QM_Energy>  (53) 
37.69

>  <source>  (53) 
ETOH_MIME

>  <Index>  (53) 
11094

$$$$
ETOH-pdb4qfw-D-SER-251:MIME-pdb4qfw-C-HIE-117
     RDKit          3D

 21 20  0  0  0  0  0  0  0  0999 V2000
   -2.2294   -4.9993   -0.6922 C   0  0  0  0  0  0  0  0  0  0  0  0
   -2.1670   -5.7266   -0.0010 H   0  0  0  0  0  0  0  0  0  0  0  0
   -2.7442   -5.3967   -1.5668 H   0  0  0  0  0  0  0  0  0  0  0  0
   -2.7995   -4.1780   -0.2580 H   0  0  0  0  0  0  0  0  0  0  0  0
   -0.7506   -4.6559   -0.9617 C   0  0  0  0  0  0  0  0  0  0  0  0
   -0.2150   -5.4929   -0.8940 H   0  0  0  0  0  0  0  0  0  0  0  0
   -0.6779   -4.2766   -1.8798 H   0  0  0  0  0  0  0  0  0  0  0  0
   -0.2587   -3.7119   -0.0281 O   0  0  0  0  0  0  0  0  0  0  0  0
   -0.5962   -2.8013   -0.2643 H   0  0  0  0  0  0  0  0  0  0  0  0
   -0.1882    2.6493    0.0436 C   0  0  0  0  0  0  0  0  0  0  0  0
   -1.0253    2.8995   -0.4717 H   0  0  0  0  0  0  0  0  0  0  0  0
    0.5986    3.0738   -0.4355 H   0  0  0  0  0  0  0  0  0  0  0  0
   -0.2559    3.0736    1.0453 H   0  0  0  0  0  0  0  0  0  0  0  0
   -0.0271    1.1687   -0.0147 C   0  0  0  0  0  0  0  0  0  0  0  0
    1.0876    0.3926    0.0000 C   0  0  0  0  0  0  0  0  0  0  0  0
    2.0303    0.7154    0.0071 H   0  0  0  0  0  0  0  0  0  0  0  0
    0.6704   -0.9083    0.0066 N   0  0  0  0  0  0  0  0  0  0  0  0
    1.2755   -1.7140    0.0071 H   0  0  0  0  0  0  0  0  0  0  0  0
   -0.6434   -0.9460    0.0081 C   0  0  0  0  0  0  0  0  0  0  0  0
   -1.2049   -1.7690    0.0163 H   0  0  0  0  0  0  0  0  0  0  0  0
   -1.0876    0.2930   -0.0000 N   0  0  0  0  0  0  0  0  0  0  0  0
  1  5  1  0
  5  8  1  0
  1  2  1  0
  1  3  1  0
  1  4  1  0
  5  6  1  0
  5  7  1  0
  8  9  1  0
 10 14  1  0
 14 15  2  0
 15 17  1  0
 17 19  1  0
 19 21  2  0
 21 14  1  0
 10 11  1  0
 10 12  1  0
 10 13  1  0
 15 16  1  0
 17 18  1  0
 19 20  1  0
M  END
>  <PDB_ID>  (54) 
pdb4qfw

>  <RESIDUE_NAME>  (54) 
SER   HIE

>  <FRAG_NAME>  (54) 
ETOH   MIME

>  <FRAG_ATOM_NUM>  (54) 
fragi: 9  fragj: 12

>  <atom.prop.CHAIN_ID>  (54) 
A A A A A A A A A Z Z Z Z Z Z Z Z Z Z Z Z

>  <atom.prop.IS_HEAVY_ATOM>  (54) 
1 0 0 0 1 0 0 1 0 1 0 0 0 1 1 0 1 0 1 0 1

>  <DIFUSE_FUNC_ATOM>  (54) 
n/a

>  <FINAL_SINGLE_POINT_ENERGY>  (54) 
0

>  <NONCOV_INTER_ENERGY_QM>  (54) 
0

>  <FF_Energy>  (54) 
3.48

>  <QM_Energy>  (54) 
9.73

>  <source>  (54) 
ETOH_MIME

>  <Index>  (54) 
11150

$$$$
ETOH-pdb4r12-A-THR-419:MIME-pdb4r12-A-HIE-363
     RDKit          3D

 21 20  0  0  0  0  0  0  0  0999 V2000
   -2.6277   -1.0071   -3.0128 C   0  0  0  0  0  0  0  0  0  0  0  0
   -2.9530   -0.3407   -2.3395 H   0  0  0  0  0  0  0  0  0  0  0  0
   -1.6350   -0.9161   -3.1137 H   0  0  0  0  0  0  0  0  0  0  0  0
   -3.0674   -0.8267   -3.8953 H   0  0  0  0  0  0  0  0  0  0  0  0
   -2.9699   -2.4188   -2.5465 C   0  0  0  0  0  0  0  0  0  0  0  0
   -2.8158   -3.0717   -3.3102 H   0  0  0  0  0  0  0  0  0  0  0  0
   -4.0101   -2.5033   -2.2321 H   0  0  0  0  0  0  0  0  0  0  0  0
   -2.1096   -2.7794   -1.4556 O   0  0  0  0  0  0  0  0  0  0  0  0
   -2.3332   -2.2350   -0.6412 H   0  0  0  0  0  0  0  0  0  0  0  0
   -0.1828    2.6553    0.0033 C   0  0  0  0  0  0  0  0  0  0  0  0
   -0.7803    2.9056   -0.7631 H   0  0  0  0  0  0  0  0  0  0  0  0
    0.7188    3.0734   -0.1362 H   0  0  0  0  0  0  0  0  0  0  0  0
   -0.6117    3.0477    0.9254 H   0  0  0  0  0  0  0  0  0  0  0  0
   -0.0200    1.1667    0.0128 C   0  0  0  0  0  0  0  0  0  0  0  0
    1.0912    0.3920   -0.0000 C   0  0  0  0  0  0  0  0  0  0  0  0
    2.0348    0.7076   -0.0021 H   0  0  0  0  0  0  0  0  0  0  0  0
    0.6702   -0.9181   -0.0066 N   0  0  0  0  0  0  0  0  0  0  0  0
    1.2689   -1.7206   -0.0136 H   0  0  0  0  0  0  0  0  0  0  0  0
   -0.6502   -0.9434   -0.0063 C   0  0  0  0  0  0  0  0  0  0  0  0
   -1.2170   -1.7626   -0.0090 H   0  0  0  0  0  0  0  0  0  0  0  0
   -1.0912    0.3029    0.0000 N   0  0  0  0  0  0  0  0  0  0  0  0
  1  5  1  0
  5  8  1  0
  1  2  1  0
  1  3  1  0
  1  4  1  0
  5  6  1  0
  5  7  1  0
  8  9  1  0
 10 14  1  0
 14 15  2  0
 15 17  1  0
 17 19  1  0
 19 21  2  0
 21 14  1  0
 10 11  1  0
 10 12  1  0
 10 13  1  0
 15 16  1  0
 17 18  1  0
 19 20  1  0
M  END
>  <PDB_ID>  (55) 
pdb4r12

>  <RESIDUE_NAME>  (55) 
THR   HIE

>  <FRAG_NAME>  (55) 
ETOH   MIME

>  <FRAG_ATOM_NUM>  (55) 
fragi: 9  fragj: 12

>  <atom.prop.CHAIN_ID>  (55) 
A A A A A A A A A Z Z Z Z Z Z Z Z Z Z Z Z

>  <atom.prop.IS_HEAVY_ATOM>  (55) 
1 0 0 0 1 0 0 1 0 1 0 0 0 1 1 0 1 0 1 0 1

>  <DIFUSE_FUNC_ATOM>  (55) 
n/a

>  <FINAL_SINGLE_POINT_ENERGY>  (55) 
0

>  <NONCOV_INTER_ENERGY_QM>  (55) 
0

>  <FF_Energy>  (55) 
0.6

>  <QM_Energy>  (55) 
7.43

>  <source>  (55) 
ETOH_MIME

>  <Index>  (55) 
11730

$$$$
ETOH-pdb1uim-A-THR-315:MIME-pdb1uim-A-HIE-182
     RDKit          3D

 21 20  0  0  0  0  0  0  0  0999 V2000
   -3.3386   -4.1300   -0.0588 C   0  0  0  0  0  0  0  0  0  0  0  0
   -2.7993   -4.6244   -0.7396 H   0  0  0  0  0  0  0  0  0  0  0  0
   -3.6827   -3.1927   -0.4960 H   0  0  0  0  0  0  0  0  0  0  0  0
   -4.2074   -4.7359    0.1982 H   0  0  0  0  0  0  0  0  0  0  0  0
   -2.4969   -3.8974    1.2195 C   0  0  0  0  0  0  0  0  0  0  0  0
   -2.9995   -3.2508    1.8271 H   0  0  0  0  0  0  0  0  0  0  0  0
   -2.3138   -4.8409    1.7337 H   0  0  0  0  0  0  0  0  0  0  0  0
   -1.2421   -3.3013    0.8685 O   0  0  0  0  0  0  0  0  0  0  0  0
   -1.3754   -2.3439    0.5899 H   0  0  0  0  0  0  0  0  0  0  0  0
   -0.1740    2.6566    0.0320 C   0  0  0  0  0  0  0  0  0  0  0  0
    0.5295    3.0594   -0.5612 H   0  0  0  0  0  0  0  0  0  0  0  0
   -0.0214    2.9732    0.9736 H   0  0  0  0  0  0  0  0  0  0  0  0
   -1.1553    2.9952   -0.3007 H   0  0  0  0  0  0  0  0  0  0  0  0
   -0.0171    1.1678    0.0051 C   0  0  0  0  0  0  0  0  0  0  0  0
    1.0904    0.3883    0.0000 C   0  0  0  0  0  0  0  0  0  0  0  0
    2.0367    0.7029   -0.0008 H   0  0  0  0  0  0  0  0  0  0  0  0
    0.6688   -0.9187   -0.0025 N   0  0  0  0  0  0  0  0  0  0  0  0
    1.2658   -1.7235   -0.0047 H   0  0  0  0  0  0  0  0  0  0  0  0
   -0.6517   -0.9415   -0.0026 C   0  0  0  0  0  0  0  0  0  0  0  0
   -1.2198   -1.7597   -0.0024 H   0  0  0  0  0  0  0  0  0  0  0  0
   -1.0904    0.3041   -0.0000 N   0  0  0  0  0  0  0  0  0  0  0  0
  1  5  1  0
  5  8  1  0
  1  2  1  0
  1  3  1  0
  1  4  1  0
  5  6  1  0
  5  7  1  0
  8  9  1  0
 10 14  1  0
 14 15  2  0
 15 17  1  0
 17 19  1  0
 19 21  2  0
 21 14  1  0
 10 11  1  0
 10 12  1  0
 10 13  1  0
 15 16  1  0
 17 18  1  0
 19 20  1  0
M  END
>  <PDB_ID>  (56) 
pdb1uim

>  <RESIDUE_NAME>  (56) 
THR   HIE

>  <FRAG_NAME>  (56) 
ETOH   MIME

>  <FRAG_ATOM_NUM>  (56) 
fragi: 9  fragj: 12

>  <atom.prop.CHAIN_ID>  (56) 
A A A A A A A A A Z Z Z Z Z Z Z Z Z Z Z Z

>  <atom.prop.IS_HEAVY_ATOM>  (56) 
1 0 0 0 1 0 0 1 0 1 0 0 0 1 1 0 1 0 1 0 1

>  <DIFUSE_FUNC_ATOM>  (56) 
n/a

>  <FINAL_SINGLE_POINT_ENERGY>  (56) 
0

>  <NONCOV_INTER_ENERGY_QM>  (56) 
0

>  <FF_Energy>  (56) 
18.64

>  <QM_Energy>  (56) 
40.96

>  <source>  (56) 
ETOH_MIME

>  <Index>  (56) 
11828

$$$$
ETOH-pdb3pea-B-THR-17:MIME-pdb3pea-B-HIE-53
     RDKit          3D

 21 20  0  0  0  0  0  0  0  0999 V2000
   -2.5429   -1.1065   -3.4613 C   0  0  0  0  0  0  0  0  0  0  0  0
   -2.1864   -0.3119   -2.9810 H   0  0  0  0  0  0  0  0  0  0  0  0
   -3.5361   -1.3376   -3.0764 H   0  0  0  0  0  0  0  0  0  0  0  0
   -2.6602   -0.8533   -4.5150 H   0  0  0  0  0  0  0  0  0  0  0  0
   -1.5873   -2.2920   -3.3112 C   0  0  0  0  0  0  0  0  0  0  0  0
   -1.9521   -3.0829   -3.8409 H   0  0  0  0  0  0  0  0  0  0  0  0
   -0.5850   -2.0363   -3.6547 H   0  0  0  0  0  0  0  0  0  0  0  0
   -1.5253   -2.6725   -1.9312 O   0  0  0  0  0  0  0  0  0  0  0  0
   -1.5360   -1.8572   -1.3434 H   0  0  0  0  0  0  0  0  0  0  0  0
   -0.1810    2.6409    0.0473 C   0  0  0  0  0  0  0  0  0  0  0  0
    0.7385    3.0615    0.0151 H   0  0  0  0  0  0  0  0  0  0  0  0
   -0.6045    2.8972    0.9290 H   0  0  0  0  0  0  0  0  0  0  0  0
   -0.7866    3.0292   -0.7716 H   0  0  0  0  0  0  0  0  0  0  0  0
   -0.0140    1.1644    0.0284 C   0  0  0  0  0  0  0  0  0  0  0  0
    1.0905    0.3883    0.0000 C   0  0  0  0  0  0  0  0  0  0  0  0
    2.0377    0.7008   -0.0016 H   0  0  0  0  0  0  0  0  0  0  0  0
    0.6675   -0.9183   -0.0233 N   0  0  0  0  0  0  0  0  0  0  0  0
    1.2635   -1.7233   -0.0502 H   0  0  0  0  0  0  0  0  0  0  0  0
   -0.6535   -0.9415   -0.0051 C   0  0  0  0  0  0  0  0  0  0  0  0
   -1.2214   -1.7579    0.0030 H   0  0  0  0  0  0  0  0  0  0  0  0
   -1.0905    0.3071   -0.0000 N   0  0  0  0  0  0  0  0  0  0  0  0
  1  5  1  0
  5  8  1  0
  1  2  1  0
  1  3  1  0
  1  4  1  0
  5  6  1  0
  5  7  1  0
  8  9  1  0
 10 14  1  0
 14 15  2  0
 15 17  1  0
 17 19  1  0
 19 21  2  0
 21 14  1  0
 10 11  1  0
 10 12  1  0
 10 13  1  0
 15 16  1  0
 17 18  1  0
 19 20  1  0
M  END
>  <PDB_ID>  (57) 
pdb3pea

>  <RESIDUE_NAME>  (57) 
THR   HIE

>  <FRAG_NAME>  (57) 
ETOH   MIME

>  <FRAG_ATOM_NUM>  (57) 
fragi: 9  fragj: 12

>  <atom.prop.CHAIN_ID>  (57) 
A A A A A A A A A Z Z Z Z Z Z Z Z Z Z Z Z

>  <atom.prop.IS_HEAVY_ATOM>  (57) 
1 0 0 0 1 0 0 1 0 1 0 0 0 1 1 0 1 0 1 0 1

>  <DIFUSE_FUNC_ATOM>  (57) 
n/a

>  <FINAL_SINGLE_POINT_ENERGY>  (57) 
0

>  <NONCOV_INTER_ENERGY_QM>  (57) 
0

>  <FF_Energy>  (57) 
-0.83

>  <QM_Energy>  (57) 
5.68

>  <source>  (57) 
ETOH_MIME

>  <Index>  (57) 
12026

$$$$
ETOH-pdb1v2a-B-SER-90:MIME-pdb1v2a-A-HIE-59
     RDKit          3D

 21 20  0  0  0  0  0  0  0  0999 V2000
   -1.1773   -5.8632   -0.4920 C   0  0  0  0  0  0  0  0  0  0  0  0
   -1.9761   -6.4150   -0.7436 H   0  0  0  0  0  0  0  0  0  0  0  0
   -0.9327   -6.0746    0.5490 H   0  0  0  0  0  0  0  0  0  0  0  0
   -0.3491   -6.1575   -1.1366 H   0  0  0  0  0  0  0  0  0  0  0  0
   -1.5166   -4.3755   -0.7072 C   0  0  0  0  0  0  0  0  0  0  0  0
   -1.7595   -4.2430   -1.6686 H   0  0  0  0  0  0  0  0  0  0  0  0
   -2.3015   -4.1445   -0.1309 H   0  0  0  0  0  0  0  0  0  0  0  0
   -0.4362   -3.5193   -0.3809 O   0  0  0  0  0  0  0  0  0  0  0  0
   -0.7909   -2.6491   -0.0428 H   0  0  0  0  0  0  0  0  0  0  0  0
   -0.1694    2.6581   -0.0128 C   0  0  0  0  0  0  0  0  0  0  0  0
    0.2075    3.0213    0.8477 H   0  0  0  0  0  0  0  0  0  0  0  0
   -1.1526    2.8730   -0.0438 H   0  0  0  0  0  0  0  0  0  0  0  0
    0.3258    3.1480   -0.8511 H   0  0  0  0  0  0  0  0  0  0  0  0
   -0.0151    1.1672   -0.0005 C   0  0  0  0  0  0  0  0  0  0  0  0
    1.0918    0.3879    0.0000 C   0  0  0  0  0  0  0  0  0  0  0  0
    2.0377    0.7015    0.0017 H   0  0  0  0  0  0  0  0  0  0  0  0
    0.6681   -0.9188    0.0005 N   0  0  0  0  0  0  0  0  0  0  0  0
    1.2642   -1.7241   -0.0018 H   0  0  0  0  0  0  0  0  0  0  0  0
   -0.6529   -0.9414    0.0000 C   0  0  0  0  0  0  0  0  0  0  0  0
   -1.2205   -1.7599    0.0013 H   0  0  0  0  0  0  0  0  0  0  0  0
   -1.0918    0.3051    0.0000 N   0  0  0  0  0  0  0  0  0  0  0  0
  1  5  1  0
  5  8  1  0
  1  2  1  0
  1  3  1  0
  1  4  1  0
  5  6  1  0
  5  7  1  0
  8  9  1  0
 10 14  1  0
 14 15  2  0
 15 17  1  0
 17 19  1  0
 19 21  2  0
 21 14  1  0
 10 11  1  0
 10 12  1  0
 10 13  1  0
 15 16  1  0
 17 18  1  0
 19 20  1  0
M  END
>  <PDB_ID>  (58) 
pdb1v2a

>  <RESIDUE_NAME>  (58) 
SER   HIE

>  <FRAG_NAME>  (58) 
ETOH   MIME

>  <FRAG_ATOM_NUM>  (58) 
fragi: 9  fragj: 12

>  <atom.prop.CHAIN_ID>  (58) 
A A A A A A A A A Z Z Z Z Z Z Z Z Z Z Z Z

>  <atom.prop.IS_HEAVY_ATOM>  (58) 
1 0 0 0 1 0 0 1 0 1 0 0 0 1 1 0 1 0 1 0 1

>  <DIFUSE_FUNC_ATOM>  (58) 
n/a

>  <FINAL_SINGLE_POINT_ENERGY>  (58) 
0

>  <NONCOV_INTER_ENERGY_QM>  (58) 
0

>  <FF_Energy>  (58) 
10.18

>  <QM_Energy>  (58) 
25.49

>  <source>  (58) 
ETOH_MIME

>  <Index>  (58) 
12406

$$$$
ETOH-pdb2x3v-C-SER-259:MIME-pdb2x3v-C-HIE-263
     RDKit          3D

 21 20  0  0  0  0  0  0  0  0999 V2000
   -2.4819   -1.7264    3.5095 C   0  0  0  0  0  0  0  0  0  0  0  0
   -2.1048   -1.5228    4.4326 H   0  0  0  0  0  0  0  0  0  0  0  0
   -3.3613   -2.3578    3.6368 H   0  0  0  0  0  0  0  0  0  0  0  0
   -2.6889   -0.7731    3.0233 H   0  0  0  0  0  0  0  0  0  0  0  0
   -1.4158   -2.4810    2.7150 C   0  0  0  0  0  0  0  0  0  0  0  0
   -0.6314   -1.8859    2.5850 H   0  0  0  0  0  0  0  0  0  0  0  0
   -1.1557   -3.2955    3.2209 H   0  0  0  0  0  0  0  0  0  0  0  0
   -1.9222   -2.8640    1.4499 O   0  0  0  0  0  0  0  0  0  0  0  0
   -1.7805   -2.1221    0.7952 H   0  0  0  0  0  0  0  0  0  0  0  0
   -0.1767    2.6575   -0.0120 C   0  0  0  0  0  0  0  0  0  0  0  0
   -1.1589    2.8709    0.0539 H   0  0  0  0  0  0  0  0  0  0  0  0
    0.1645    3.0117   -0.8919 H   0  0  0  0  0  0  0  0  0  0  0  0
    0.3493    3.1620    0.7984 H   0  0  0  0  0  0  0  0  0  0  0  0
   -0.0184    1.1677   -0.0125 C   0  0  0  0  0  0  0  0  0  0  0  0
    1.0908    0.3910    0.0000 C   0  0  0  0  0  0  0  0  0  0  0  0
    2.0354    0.7064    0.0049 H   0  0  0  0  0  0  0  0  0  0  0  0
    0.6692   -0.9175    0.0071 N   0  0  0  0  0  0  0  0  0  0  0  0
    1.2674   -1.7211    0.0115 H   0  0  0  0  0  0  0  0  0  0  0  0
   -0.6508   -0.9436    0.0054 C   0  0  0  0  0  0  0  0  0  0  0  0
   -1.2165   -1.7624    0.0090 H   0  0  0  0  0  0  0  0  0  0  0  0
   -1.0908    0.3023   -0.0000 N   0  0  0  0  0  0  0  0  0  0  0  0
  1  5  1  0
  5  8  1  0
  1  2  1  0
  1  3  1  0
  1  4  1  0
  5  6  1  0
  5  7  1  0
  8  9  1  0
 10 14  1  0
 14 15  2  0
 15 17  1  0
 17 19  1  0
 19 21  2  0
 21 14  1  0
 10 11  1  0
 10 12  1  0
 10 13  1  0
 15 16  1  0
 17 18  1  0
 19 20  1  0
M  END
>  <PDB_ID>  (59) 
pdb2x3v

>  <RESIDUE_NAME>  (59) 
SER   HIE

>  <FRAG_NAME>  (59) 
ETOH   MIME

>  <FRAG_ATOM_NUM>  (59) 
fragi: 9  fragj: 12

>  <atom.prop.CHAIN_ID>  (59) 
A A A A A A A A A Z Z Z Z Z Z Z Z Z Z Z Z

>  <atom.prop.IS_HEAVY_ATOM>  (59) 
1 0 0 0 1 0 0 1 0 1 0 0 0 1 1 0 1 0 1 0 1

>  <DIFUSE_FUNC_ATOM>  (59) 
n/a

>  <FINAL_SINGLE_POINT_ENERGY>  (59) 
0

>  <NONCOV_INTER_ENERGY_QM>  (59) 
0

>  <FF_Energy>  (59) 
6.29

>  <QM_Energy>  (59) 
20.97

>  <source>  (59) 
ETOH_MIME

>  <Index>  (59) 
12570

$$$$
ETOH-pdb3qdl-A-THR-208:MIME-pdb3qdl-B-HIE-53
     RDKit          3D

 21 20  0  0  0  0  0  0  0  0999 V2000
   -1.9666   -5.4100    0.1087 C   0  0  0  0  0  0  0  0  0  0  0  0
   -1.5584   -5.5189    1.0170 H   0  0  0  0  0  0  0  0  0  0  0  0
   -2.9582   -5.2992    0.2028 H   0  0  0  0  0  0  0  0  0  0  0  0
   -1.7763   -6.2271   -0.4382 H   0  0  0  0  0  0  0  0  0  0  0  0
   -1.3750   -4.1820   -0.5779 C   0  0  0  0  0  0  0  0  0  0  0  0
   -2.1198   -3.5507   -0.8712 H   0  0  0  0  0  0  0  0  0  0  0  0
   -0.7928   -4.4632   -1.4556 H   0  0  0  0  0  0  0  0  0  0  0  0
   -0.5372   -3.4881    0.3558 O   0  0  0  0  0  0  0  0  0  0  0  0
   -0.6820   -2.4958    0.2841 H   0  0  0  0  0  0  0  0  0  0  0  0
   -0.1785    2.6566    0.0036 C   0  0  0  0  0  0  0  0  0  0  0  0
    0.5734    3.0529    0.5399 H   0  0  0  0  0  0  0  0  0  0  0  0
   -1.0473    2.8788    0.4578 H   0  0  0  0  0  0  0  0  0  0  0  0
   -0.1770    3.1025   -0.9910 H   0  0  0  0  0  0  0  0  0  0  0  0
   -0.0182    1.1674   -0.0052 C   0  0  0  0  0  0  0  0  0  0  0  0
    1.0912    0.3897   -0.0000 C   0  0  0  0  0  0  0  0  0  0  0  0
    2.0361    0.7056    0.0010 H   0  0  0  0  0  0  0  0  0  0  0  0
    0.6699   -0.9178    0.0038 N   0  0  0  0  0  0  0  0  0  0  0  0
    1.2669   -1.7217    0.0074 H   0  0  0  0  0  0  0  0  0  0  0  0
   -0.6518   -0.9426    0.0014 C   0  0  0  0  0  0  0  0  0  0  0  0
   -1.2175   -1.7618    0.0023 H   0  0  0  0  0  0  0  0  0  0  0  0
   -1.0912    0.3032    0.0000 N   0  0  0  0  0  0  0  0  0  0  0  0
  1  5  1  0
  5  8  1  0
  1  2  1  0
  1  3  1  0
  1  4  1  0
  5  6  1  0
  5  7  1  0
  8  9  1  0
 10 14  1  0
 14 15  2  0
 15 17  1  0
 17 19  1  0
 19 21  2  0
 21 14  1  0
 10 11  1  0
 10 12  1  0
 10 13  1  0
 15 16  1  0
 17 18  1  0
 19 20  1  0
M  END
>  <PDB_ID>  (60) 
pdb3qdl

>  <RESIDUE_NAME>  (60) 
THR   HIE

>  <FRAG_NAME>  (60) 
ETOH   MIME

>  <FRAG_ATOM_NUM>  (60) 
fragi: 9  fragj: 12

>  <atom.prop.CHAIN_ID>  (60) 
A A A A A A A A A Z Z Z Z Z Z Z Z Z Z Z Z

>  <atom.prop.IS_HEAVY_ATOM>  (60) 
1 0 0 0 1 0 0 1 0 1 0 0 0 1 1 0 1 0 1 0 1

>  <DIFUSE_FUNC_ATOM>  (60) 
n/a

>  <FINAL_SINGLE_POINT_ENERGY>  (60) 
0

>  <NONCOV_INTER_ENERGY_QM>  (60) 
0

>  <FF_Energy>  (60) 
14.2

>  <QM_Energy>  (60) 
32.46

>  <source>  (60) 
ETOH_MIME

>  <Index>  (60) 
13126

$$$$
ETOH-pdb2xu7-B-SER-392:MIME-pdb2xu7-B-HIE-373
     RDKit          3D

 21 20  0  0  0  0  0  0  0  0999 V2000
   -0.1208   -4.6777   -1.9012 C   0  0  0  0  0  0  0  0  0  0  0  0
   -0.2148   -5.0100   -2.8378 H   0  0  0  0  0  0  0  0  0  0  0  0
   -0.1315   -5.5432   -1.2386 H   0  0  0  0  0  0  0  0  0  0  0  0
    0.8323   -4.1538   -1.8300 H   0  0  0  0  0  0  0  0  0  0  0  0
   -1.3238   -3.7870   -1.6191 C   0  0  0  0  0  0  0  0  0  0  0  0
   -1.2552   -2.9532   -2.1504 H   0  0  0  0  0  0  0  0  0  0  0  0
   -2.1587   -4.2756   -1.8340 H   0  0  0  0  0  0  0  0  0  0  0  0
   -1.3781   -3.4128   -0.2073 O   0  0  0  0  0  0  0  0  0  0  0  0
   -1.4557   -2.4251   -0.1503 H   0  0  0  0  0  0  0  0  0  0  0  0
   -0.1677    2.6742    0.0282 C   0  0  0  0  0  0  0  0  0  0  0  0
   -1.0395    2.8905   -0.4077 H   0  0  0  0  0  0  0  0  0  0  0  0
    0.5818    3.0531   -0.5102 H   0  0  0  0  0  0  0  0  0  0  0  0
   -0.1473    3.1062    1.0287 H   0  0  0  0  0  0  0  0  0  0  0  0
   -0.0145    1.1685    0.0498 C   0  0  0  0  0  0  0  0  0  0  0  0
    1.0878    0.3899    0.0000 C   0  0  0  0  0  0  0  0  0  0  0  0
    2.0360    0.7022   -0.0182 H   0  0  0  0  0  0  0  0  0  0  0  0
    0.6682   -0.9248   -0.0175 N   0  0  0  0  0  0  0  0  0  0  0  0
    1.2643   -1.7243   -0.0204 H   0  0  0  0  0  0  0  0  0  0  0  0
   -0.6537   -0.9429   -0.0323 C   0  0  0  0  0  0  0  0  0  0  0  0
   -1.2253   -1.7556   -0.0620 H   0  0  0  0  0  0  0  0  0  0  0  0
   -1.0878    0.3093   -0.0000 N   0  0  0  0  0  0  0  0  0  0  0  0
  1  5  1  0
  5  8  1  0
  1  2  1  0
  1  3  1  0
  1  4  1  0
  5  6  1  0
  5  7  1  0
  8  9  1  0
 10 14  1  0
 14 15  2  0
 15 17  1  0
 17 19  1  0
 19 21  2  0
 21 14  1  0
 10 11  1  0
 10 12  1  0
 10 13  1  0
 15 16  1  0
 17 18  1  0
 19 20  1  0
M  END
>  <PDB_ID>  (61) 
pdb2xu7

>  <RESIDUE_NAME>  (61) 
SER   HIE

>  <FRAG_NAME>  (61) 
ETOH   MIME

>  <FRAG_ATOM_NUM>  (61) 
fragi: 9  fragj: 12

>  <atom.prop.CHAIN_ID>  (61) 
A A A A A A A A A Z Z Z Z Z Z Z Z Z Z Z Z

>  <atom.prop.IS_HEAVY_ATOM>  (61) 
1 0 0 0 1 0 0 1 0 1 0 0 0 1 1 0 1 0 1 0 1

>  <DIFUSE_FUNC_ATOM>  (61) 
n/a

>  <FINAL_SINGLE_POINT_ENERGY>  (61) 
0

>  <NONCOV_INTER_ENERGY_QM>  (61) 
0

>  <FF_Energy>  (61) 
42.14

>  <QM_Energy>  (61) 
66.28

>  <source>  (61) 
ETOH_MIME

>  <Index>  (61) 
13222

$$$$
ETOH-pdb2y0f-C-THR-10:MIME-pdb2y0f-C-HIE-22
     RDKit          3D

 21 20  0  0  0  0  0  0  0  0999 V2000
   -1.9718   -2.2007   -2.3725 C   0  0  0  0  0  0  0  0  0  0  0  0
   -2.2588   -1.2486   -2.2099 H   0  0  0  0  0  0  0  0  0  0  0  0
   -1.0334   -2.3135   -2.0239 H   0  0  0  0  0  0  0  0  0  0  0  0
   -1.9618   -2.3638   -3.3664 H   0  0  0  0  0  0  0  0  0  0  0  0
   -2.9017   -3.1522   -1.6937 C   0  0  0  0  0  0  0  0  0  0  0  0
   -2.7818   -4.0943   -2.0708 H   0  0  0  0  0  0  0  0  0  0  0  0
   -3.9372   -2.8441   -1.8383 H   0  0  0  0  0  0  0  0  0  0  0  0
   -2.6078   -3.1861   -0.3032 O   0  0  0  0  0  0  0  0  0  0  0  0
   -2.1751   -2.3245   -0.0105 H   0  0  0  0  0  0  0  0  0  0  0  0
   -0.1795    2.6510   -0.0186 C   0  0  0  0  0  0  0  0  0  0  0  0
   -1.0573    2.8645   -0.4545 H   0  0  0  0  0  0  0  0  0  0  0  0
    0.5624    3.0335   -0.5738 H   0  0  0  0  0  0  0  0  0  0  0  0
   -0.1523    3.0974    0.9754 H   0  0  0  0  0  0  0  0  0  0  0  0
   -0.0214    1.1669    0.0165 C   0  0  0  0  0  0  0  0  0  0  0  0
    1.0906    0.3894    0.0000 C   0  0  0  0  0  0  0  0  0  0  0  0
    2.0342    0.7088   -0.0024 H   0  0  0  0  0  0  0  0  0  0  0  0
    0.6718   -0.9155   -0.0111 N   0  0  0  0  0  0  0  0  0  0  0  0
    1.2692   -1.7202   -0.0241 H   0  0  0  0  0  0  0  0  0  0  0  0
   -0.6504   -0.9426   -0.0054 C   0  0  0  0  0  0  0  0  0  0  0  0
   -1.2145   -1.7623   -0.0033 H   0  0  0  0  0  0  0  0  0  0  0  0
   -1.0906    0.3019   -0.0000 N   0  0  0  0  0  0  0  0  0  0  0  0
  1  5  1  0
  5  8  1  0
  1  2  1  0
  1  3  1  0
  1  4  1  0
  5  6  1  0
  5  7  1  0
  8  9  1  0
 10 14  1  0
 14 15  2  0
 15 17  1  0
 17 19  1  0
 19 21  2  0
 21 14  1  0
 10 11  1  0
 10 12  1  0
 10 13  1  0
 15 16  1  0
 17 18  1  0
 19 20  1  0
M  END
>  <PDB_ID>  (62) 
pdb2y0f

>  <RESIDUE_NAME>  (62) 
THR   HIE

>  <FRAG_NAME>  (62) 
ETOH   MIME

>  <FRAG_ATOM_NUM>  (62) 
fragi: 9  fragj: 12

>  <atom.prop.CHAIN_ID>  (62) 
A A A A A A A A A Z Z Z Z Z Z Z Z Z Z Z Z

>  <atom.prop.IS_HEAVY_ATOM>  (62) 
1 0 0 0 1 0 0 1 0 1 0 0 0 1 1 0 1 0 1 0 1

>  <DIFUSE_FUNC_ATOM>  (62) 
n/a

>  <FINAL_SINGLE_POINT_ENERGY>  (62) 
0

>  <NONCOV_INTER_ENERGY_QM>  (62) 
0

>  <FF_Energy>  (62) 
4.13

>  <QM_Energy>  (62) 
16.2

>  <source>  (62) 
ETOH_MIME

>  <Index>  (62) 
13343

$$$$
ETOH-pdb2y0f-D-THR-10:MIME-pdb2y0f-D-HIE-22
     RDKit          3D

 21 20  0  0  0  0  0  0  0  0999 V2000
   -2.1888   -3.0995   -1.2135 C   0  0  0  0  0  0  0  0  0  0  0  0
   -2.3446   -2.1142   -1.2579 H   0  0  0  0  0  0  0  0  0  0  0  0
   -1.2102   -3.2893   -1.2527 H   0  0  0  0  0  0  0  0  0  0  0  0
   -2.6509   -3.5488   -1.9759 H   0  0  0  0  0  0  0  0  0  0  0  0
   -2.7585   -3.6435    0.1177 C   0  0  0  0  0  0  0  0  0  0  0  0
   -2.6029   -4.6438    0.1999 H   0  0  0  0  0  0  0  0  0  0  0  0
   -3.8272   -3.4512    0.2127 H   0  0  0  0  0  0  0  0  0  0  0  0
   -2.0780   -2.9881    1.1920 O   0  0  0  0  0  0  0  0  0  0  0  0
   -1.8154   -2.0547    0.9239 H   0  0  0  0  0  0  0  0  0  0  0  0
   -0.1763    2.6487    0.0156 C   0  0  0  0  0  0  0  0  0  0  0  0
   -1.1495    2.8636   -0.0779 H   0  0  0  0  0  0  0  0  0  0  0  0
    0.3204    3.0149   -0.7735 H   0  0  0  0  0  0  0  0  0  0  0  0
    0.2040    3.1221    0.9208 H   0  0  0  0  0  0  0  0  0  0  0  0
   -0.0146    1.1668    0.0341 C   0  0  0  0  0  0  0  0  0  0  0  0
    1.0904    0.3862   -0.0000 C   0  0  0  0  0  0  0  0  0  0  0  0
    2.0374    0.7000   -0.0093 H   0  0  0  0  0  0  0  0  0  0  0  0
    0.6676   -0.9194   -0.0190 N   0  0  0  0  0  0  0  0  0  0  0  0
    1.2626   -1.7242   -0.0332 H   0  0  0  0  0  0  0  0  0  0  0  0
   -0.6529   -0.9398   -0.0151 C   0  0  0  0  0  0  0  0  0  0  0  0
   -1.2225   -1.7580   -0.0224 H   0  0  0  0  0  0  0  0  0  0  0  0
   -1.0904    0.3063    0.0000 N   0  0  0  0  0  0  0  0  0  0  0  0
  1  5  1  0
  5  8  1  0
  1  2  1  0
  1  3  1  0
  1  4  1  0
  5  6  1  0
  5  7  1  0
  8  9  1  0
 10 14  1  0
 14 15  2  0
 15 17  1  0
 17 19  1  0
 19 21  2  0
 21 14  1  0
 10 11  1  0
 10 12  1  0
 10 13  1  0
 15 16  1  0
 17 18  1  0
 19 20  1  0
M  END
>  <PDB_ID>  (63) 
pdb2y0f

>  <RESIDUE_NAME>  (63) 
THR   HIE

>  <FRAG_NAME>  (63) 
ETOH   MIME

>  <FRAG_ATOM_NUM>  (63) 
fragi: 9  fragj: 12

>  <atom.prop.CHAIN_ID>  (63) 
A A A A A A A A A Z Z Z Z Z Z Z Z Z Z Z Z

>  <atom.prop.IS_HEAVY_ATOM>  (63) 
1 0 0 0 1 0 0 1 0 1 0 0 0 1 1 0 1 0 1 0 1

>  <DIFUSE_FUNC_ATOM>  (63) 
n/a

>  <FINAL_SINGLE_POINT_ENERGY>  (63) 
0

>  <NONCOV_INTER_ENERGY_QM>  (63) 
0

>  <FF_Energy>  (63) 
9.9

>  <QM_Energy>  (63) 
21.62

>  <source>  (63) 
ETOH_MIME

>  <Index>  (63) 
13346

$$$$
ETOH-pdb1w19-D-THR-52:MIME-pdb1w19-D-HIE-73
     RDKit          3D

 21 20  0  0  0  0  0  0  0  0999 V2000
    0.7730   -4.0673    2.1747 C   0  0  0  0  0  0  0  0  0  0  0  0
    0.9864   -4.7540    1.4814 H   0  0  0  0  0  0  0  0  0  0  0  0
    1.4497   -3.3327    2.1382 H   0  0  0  0  0  0  0  0  0  0  0  0
    0.7839   -4.4897    3.0802 H   0  0  0  0  0  0  0  0  0  0  0  0
   -0.6271   -3.4847    1.9012 C   0  0  0  0  0  0  0  0  0  0  0  0
   -0.7373   -2.5094    2.1860 H   0  0  0  0  0  0  0  0  0  0  0  0
   -1.3963   -4.0816    2.3913 H   0  0  0  0  0  0  0  0  0  0  0  0
   -0.7818   -3.5560    0.4811 O   0  0  0  0  0  0  0  0  0  0  0  0
   -0.8609   -2.6326    0.0899 H   0  0  0  0  0  0  0  0  0  0  0  0
   -0.1933    2.6542    0.0458 C   0  0  0  0  0  0  0  0  0  0  0  0
    0.5071    3.0335    0.6526 H   0  0  0  0  0  0  0  0  0  0  0  0
   -1.0992    2.8530    0.4230 H   0  0  0  0  0  0  0  0  0  0  0  0
   -0.1074    3.1272   -0.9325 H   0  0  0  0  0  0  0  0  0  0  0  0
   -0.0193    1.1679   -0.0115 C   0  0  0  0  0  0  0  0  0  0  0  0
    1.0927    0.3889    0.0000 C   0  0  0  0  0  0  0  0  0  0  0  0
    2.0358    0.7035    0.0052 H   0  0  0  0  0  0  0  0  0  0  0  0
    0.6701   -0.9217    0.0062 N   0  0  0  0  0  0  0  0  0  0  0  0
    1.2665   -1.7243    0.0086 H   0  0  0  0  0  0  0  0  0  0  0  0
   -0.6508   -0.9418    0.0053 C   0  0  0  0  0  0  0  0  0  0  0  0
   -1.2203   -1.7589    0.0089 H   0  0  0  0  0  0  0  0  0  0  0  0
   -1.0927    0.3067   -0.0000 N   0  0  0  0  0  0  0  0  0  0  0  0
  1  5  1  0
  5  8  1  0
  1  2  1  0
  1  3  1  0
  1  4  1  0
  5  6  1  0
  5  7  1  0
  8  9  1  0
 10 14  1  0
 14 15  2  0
 15 17  1  0
 17 19  1  0
 19 21  2  0
 21 14  1  0
 10 11  1  0
 10 12  1  0
 10 13  1  0
 15 16  1  0
 17 18  1  0
 19 20  1  0
M  END
>  <PDB_ID>  (64) 
pdb1w19

>  <RESIDUE_NAME>  (64) 
THR   HIE

>  <FRAG_NAME>  (64) 
ETOH   MIME

>  <FRAG_ATOM_NUM>  (64) 
fragi: 9  fragj: 12

>  <atom.prop.CHAIN_ID>  (64) 
A A A A A A A A A Z Z Z Z Z Z Z Z Z Z Z Z

>  <atom.prop.IS_HEAVY_ATOM>  (64) 
1 0 0 0 1 0 0 1 0 1 0 0 0 1 1 0 1 0 1 0 1

>  <DIFUSE_FUNC_ATOM>  (64) 
n/a

>  <FINAL_SINGLE_POINT_ENERGY>  (64) 
0

>  <NONCOV_INTER_ENERGY_QM>  (64) 
0

>  <FF_Energy>  (64) 
11.25

>  <QM_Energy>  (64) 
28.48

>  <source>  (64) 
ETOH_MIME

>  <Index>  (64) 
13456

$$$$
ETOH-pdb2yb8-B-SER-396:MIME-pdb2yb8-B-HIE-377
     RDKit          3D

 21 20  0  0  0  0  0  0  0  0999 V2000
   -0.6539   -4.6054   -2.0681 C   0  0  0  0  0  0  0  0  0  0  0  0
   -0.8380   -4.9053   -3.0035 H   0  0  0  0  0  0  0  0  0  0  0  0
   -0.7257   -5.4730   -1.4122 H   0  0  0  0  0  0  0  0  0  0  0  0
    0.3624   -4.2128   -2.0363 H   0  0  0  0  0  0  0  0  0  0  0  0
   -1.6889   -3.5382   -1.7098 C   0  0  0  0  0  0  0  0  0  0  0  0
   -1.4329   -2.6783   -2.1585 H   0  0  0  0  0  0  0  0  0  0  0  0
   -2.5852   -3.8305   -2.0552 H   0  0  0  0  0  0  0  0  0  0  0  0
   -1.7920   -3.3107   -0.3124 O   0  0  0  0  0  0  0  0  0  0  0  0
   -1.8203   -2.3276   -0.1371 H   0  0  0  0  0  0  0  0  0  0  0  0
   -0.0712    2.6411   -0.0209 C   0  0  0  0  0  0  0  0  0  0  0  0
   -0.9517    2.8996   -0.4150 H   0  0  0  0  0  0  0  0  0  0  0  0
    0.6688    2.9978   -0.5887 H   0  0  0  0  0  0  0  0  0  0  0  0
    0.0103    3.0731    0.9766 H   0  0  0  0  0  0  0  0  0  0  0  0
    0.0221    1.1451   -0.0005 C   0  0  0  0  0  0  0  0  0  0  0  0
    1.1117    0.3454   -0.0000 C   0  0  0  0  0  0  0  0  0  0  0  0
    2.0631    0.6367    0.0025 H   0  0  0  0  0  0  0  0  0  0  0  0
    0.6541   -0.9469   -0.0014 N   0  0  0  0  0  0  0  0  0  0  0  0
    1.2044   -1.7701   -0.0045 H   0  0  0  0  0  0  0  0  0  0  0  0
   -0.6762   -0.8948    0.0019 C   0  0  0  0  0  0  0  0  0  0  0  0
   -1.2736   -1.7136    0.0065 H   0  0  0  0  0  0  0  0  0  0  0  0
   -1.1117    0.3512    0.0000 N   0  0  0  0  0  0  0  0  0  0  0  0
  1  5  1  0
  5  8  1  0
  1  2  1  0
  1  3  1  0
  1  4  1  0
  5  6  1  0
  5  7  1  0
  8  9  1  0
 10 14  1  0
 14 15  2  0
 15 17  1  0
 17 19  1  0
 19 21  2  0
 21 14  1  0
 10 11  1  0
 10 12  1  0
 10 13  1  0
 15 16  1  0
 17 18  1  0
 19 20  1  0
M  END
>  <PDB_ID>  (65) 
pdb2yb8

>  <RESIDUE_NAME>  (65) 
SER   HIE

>  <FRAG_NAME>  (65) 
ETOH   MIME

>  <FRAG_ATOM_NUM>  (65) 
fragi: 9  fragj: 12

>  <atom.prop.CHAIN_ID>  (65) 
A A A A A A A A A Z Z Z Z Z Z Z Z Z Z Z Z

>  <atom.prop.IS_HEAVY_ATOM>  (65) 
1 0 0 0 1 0 0 1 0 1 0 0 0 1 1 0 1 0 1 0 1

>  <DIFUSE_FUNC_ATOM>  (65) 
n/a

>  <FINAL_SINGLE_POINT_ENERGY>  (65) 
0

>  <NONCOV_INTER_ENERGY_QM>  (65) 
0

>  <FF_Energy>  (65) 
22.99

>  <QM_Energy>  (65) 
42.18

>  <source>  (65) 
ETOH_MIME

>  <Index>  (65) 
13584

$$$$
ETOH-pdb3qxb-A-SER-76:MIME-pdb3qxb-A-HIE-96
     RDKit          3D

 21 20  0  0  0  0  0  0  0  0999 V2000
    0.2274   -3.6760    3.2125 C   0  0  0  0  0  0  0  0  0  0  0  0
    0.7137   -2.7887    3.1360 H   0  0  0  0  0  0  0  0  0  0  0  0
    0.9724   -4.4613    3.3405 H   0  0  0  0  0  0  0  0  0  0  0  0
   -0.4561   -3.6103    4.0590 H   0  0  0  0  0  0  0  0  0  0  0  0
   -0.6054   -3.8846    1.9188 C   0  0  0  0  0  0  0  0  0  0  0  0
    0.0014   -3.8207    1.1395 H   0  0  0  0  0  0  0  0  0  0  0  0
   -1.0385   -4.7741    1.9622 H   0  0  0  0  0  0  0  0  0  0  0  0
   -1.6250   -2.8773    1.7997 O   0  0  0  0  0  0  0  0  0  0  0  0
   -1.2693   -2.1203    1.2590 H   0  0  0  0  0  0  0  0  0  0  0  0
   -0.1525    2.6584    0.0455 C   0  0  0  0  0  0  0  0  0  0  0  0
    0.4126    3.0248    0.7937 H   0  0  0  0  0  0  0  0  0  0  0  0
   -1.1153    2.8793    0.2379 H   0  0  0  0  0  0  0  0  0  0  0  0
    0.1403    3.1396   -0.8877 H   0  0  0  0  0  0  0  0  0  0  0  0
   -0.0061    1.1668    0.0339 C   0  0  0  0  0  0  0  0  0  0  0  0
    1.0923    0.3823   -0.0000 C   0  0  0  0  0  0  0  0  0  0  0  0
    2.0421    0.6876   -0.0011 H   0  0  0  0  0  0  0  0  0  0  0  0
    0.6615   -0.9246   -0.0342 N   0  0  0  0  0  0  0  0  0  0  0  0
    1.2537   -1.7296   -0.0779 H   0  0  0  0  0  0  0  0  0  0  0  0
   -0.6554   -0.9379    0.0003 C   0  0  0  0  0  0  0  0  0  0  0  0
   -1.2317   -1.7521    0.0235 H   0  0  0  0  0  0  0  0  0  0  0  0
   -1.0923    0.3135   -0.0000 N   0  0  0  0  0  0  0  0  0  0  0  0
  1  5  1  0
  5  8  1  0
  1  2  1  0
  1  3  1  0
  1  4  1  0
  5  6  1  0
  5  7  1  0
  8  9  1  0
 10 14  1  0
 14 15  2  0
 15 17  1  0
 17 19  1  0
 19 21  2  0
 21 14  1  0
 10 11  1  0
 10 12  1  0
 10 13  1  0
 15 16  1  0
 17 18  1  0
 19 20  1  0
M  END
>  <PDB_ID>  (66) 
pdb3qxb

>  <RESIDUE_NAME>  (66) 
SER   HIE

>  <FRAG_NAME>  (66) 
ETOH   MIME

>  <FRAG_ATOM_NUM>  (66) 
fragi: 9  fragj: 12

>  <atom.prop.CHAIN_ID>  (66) 
A A A A A A A A A Z Z Z Z Z Z Z Z Z Z Z Z

>  <atom.prop.IS_HEAVY_ATOM>  (66) 
1 0 0 0 1 0 0 1 0 1 0 0 0 1 1 0 1 0 1 0 1

>  <DIFUSE_FUNC_ATOM>  (66) 
n/a

>  <FINAL_SINGLE_POINT_ENERGY>  (66) 
0

>  <NONCOV_INTER_ENERGY_QM>  (66) 
0

>  <FF_Energy>  (66) 
3.9

>  <QM_Energy>  (66) 
9.69

>  <source>  (66) 
ETOH_MIME

>  <Index>  (66) 
13752

$$$$
ETOH-pdb3qyy-B-SER-156:MIME-pdb3qyy-B-HIE-223
     RDKit          3D

 21 20  0  0  0  0  0  0  0  0999 V2000
    0.6905   -4.4604    0.4136 C   0  0  0  0  0  0  0  0  0  0  0  0
    0.4812   -3.8420   -0.3601 H   0  0  0  0  0  0  0  0  0  0  0  0
    0.2531   -5.4342    0.1936 H   0  0  0  0  0  0  0  0  0  0  0  0
    1.7744   -4.5045    0.5199 H   0  0  0  0  0  0  0  0  0  0  0  0
    0.0731   -3.8658    1.6824 C   0  0  0  0  0  0  0  0  0  0  0  0
    0.0071   -4.5794    2.3710 H   0  0  0  0  0  0  0  0  0  0  0  0
    0.6534   -3.1257    2.0042 H   0  0  0  0  0  0  0  0  0  0  0  0
   -1.2228   -3.3558    1.4184 O   0  0  0  0  0  0  0  0  0  0  0  0
   -1.1487   -2.4262    1.0595 H   0  0  0  0  0  0  0  0  0  0  0  0
   -0.1707    2.6554    0.0208 C   0  0  0  0  0  0  0  0  0  0  0  0
   -1.1216    2.8787   -0.2146 H   0  0  0  0  0  0  0  0  0  0  0  0
    0.4327    3.0466   -0.6812 H   0  0  0  0  0  0  0  0  0  0  0  0
    0.0706    3.1039    0.9844 H   0  0  0  0  0  0  0  0  0  0  0  0
   -0.0163    1.1672   -0.0015 C   0  0  0  0  0  0  0  0  0  0  0  0
    1.0908    0.3883   -0.0000 C   0  0  0  0  0  0  0  0  0  0  0  0
    2.0365    0.7026    0.0007 H   0  0  0  0  0  0  0  0  0  0  0  0
    0.6683   -0.9179    0.0012 N   0  0  0  0  0  0  0  0  0  0  0  0
    1.2645   -1.7233    0.0018 H   0  0  0  0  0  0  0  0  0  0  0  0
   -0.6521   -0.9416    0.0003 C   0  0  0  0  0  0  0  0  0  0  0  0
   -1.2196   -1.7607    0.0012 H   0  0  0  0  0  0  0  0  0  0  0  0
   -1.0908    0.3041   -0.0000 N   0  0  0  0  0  0  0  0  0  0  0  0
  1  5  1  0
  5  8  1  0
  1  2  1  0
  1  3  1  0
  1  4  1  0
  5  6  1  0
  5  7  1  0
  8  9  1  0
 10 14  1  0
 14 15  2  0
 15 17  1  0
 17 19  1  0
 19 21  2  0
 21 14  1  0
 10 11  1  0
 10 12  1  0
 10 13  1  0
 15 16  1  0
 17 18  1  0
 19 20  1  0
M  END
>  <PDB_ID>  (67) 
pdb3qyy

>  <RESIDUE_NAME>  (67) 
SER   HIE

>  <FRAG_NAME>  (67) 
ETOH   MIME

>  <FRAG_ATOM_NUM>  (67) 
fragi: 9  fragj: 12

>  <atom.prop.CHAIN_ID>  (67) 
A A A A A A A A A Z Z Z Z Z Z Z Z Z Z Z Z

>  <atom.prop.IS_HEAVY_ATOM>  (67) 
1 0 0 0 1 0 0 1 0 1 0 0 0 1 1 0 1 0 1 0 1

>  <DIFUSE_FUNC_ATOM>  (67) 
n/a

>  <FINAL_SINGLE_POINT_ENERGY>  (67) 
0

>  <NONCOV_INTER_ENERGY_QM>  (67) 
0

>  <FF_Energy>  (67) 
3.6

>  <QM_Energy>  (67) 
9.73

>  <source>  (67) 
ETOH_MIME

>  <Index>  (67) 
13866

$$$$
ETOH-pdb4uox-A-THR-280:MIME-pdb4uox-A-HIE-288
     RDKit          3D

 21 20  0  0  0  0  0  0  0  0999 V2000
   -3.9588   -4.6858    0.0778 C   0  0  0  0  0  0  0  0  0  0  0  0
   -4.2079   -4.8893    1.0262 H   0  0  0  0  0  0  0  0  0  0  0  0
   -4.5434   -3.9482   -0.2656 H   0  0  0  0  0  0  0  0  0  0  0  0
   -4.0990   -5.5053   -0.4826 H   0  0  0  0  0  0  0  0  0  0  0  0
   -2.4967   -4.2592    0.0093 C   0  0  0  0  0  0  0  0  0  0  0  0
   -2.2969   -3.8291   -0.8961 H   0  0  0  0  0  0  0  0  0  0  0  0
   -1.8532   -5.1298    0.1362 H   0  0  0  0  0  0  0  0  0  0  0  0
   -2.2189   -3.2904    1.0326 O   0  0  0  0  0  0  0  0  0  0  0  0
   -2.2186   -2.3638    0.6437 H   0  0  0  0  0  0  0  0  0  0  0  0
   -0.1711    2.6495   -0.0034 C   0  0  0  0  0  0  0  0  0  0  0  0
   -1.1560    2.8627   -0.0137 H   0  0  0  0  0  0  0  0  0  0  0  0
    0.2381    3.0074   -0.8521 H   0  0  0  0  0  0  0  0  0  0  0  0
    0.2928    3.1409    0.8519 H   0  0  0  0  0  0  0  0  0  0  0  0
   -0.0141    1.1670    0.0012 C   0  0  0  0  0  0  0  0  0  0  0  0
    1.0914    0.3867    0.0000 C   0  0  0  0  0  0  0  0  0  0  0  0
    2.0379    0.6993    0.0014 H   0  0  0  0  0  0  0  0  0  0  0  0
    0.6677   -0.9188   -0.0020 N   0  0  0  0  0  0  0  0  0  0  0  0
    1.2619   -1.7251   -0.0068 H   0  0  0  0  0  0  0  0  0  0  0  0
   -0.6536   -0.9415    0.0007 C   0  0  0  0  0  0  0  0  0  0  0  0
   -1.2223   -1.7585    0.0057 H   0  0  0  0  0  0  0  0  0  0  0  0
   -1.0914    0.3065    0.0000 N   0  0  0  0  0  0  0  0  0  0  0  0
  1  5  1  0
  5  8  1  0
  1  2  1  0
  1  3  1  0
  1  4  1  0
  5  6  1  0
  5  7  1  0
  8  9  1  0
 10 14  1  0
 14 15  2  0
 15 17  1  0
 17 19  1  0
 19 21  2  0
 21 14  1  0
 10 11  1  0
 10 12  1  0
 10 13  1  0
 15 16  1  0
 17 18  1  0
 19 20  1  0
M  END
>  <PDB_ID>  (68) 
pdb4uox

>  <RESIDUE_NAME>  (68) 
THR   HIE

>  <FRAG_NAME>  (68) 
ETOH   MIME

>  <FRAG_ATOM_NUM>  (68) 
fragi: 9  fragj: 12

>  <atom.prop.CHAIN_ID>  (68) 
A A A A A A A A A Z Z Z Z Z Z Z Z Z Z Z Z

>  <atom.prop.IS_HEAVY_ATOM>  (68) 
1 0 0 0 1 0 0 1 0 1 0 0 0 1 1 0 1 0 1 0 1

>  <DIFUSE_FUNC_ATOM>  (68) 
n/a

>  <FINAL_SINGLE_POINT_ENERGY>  (68) 
0

>  <NONCOV_INTER_ENERGY_QM>  (68) 
0

>  <FF_Energy>  (68) 
1.28

>  <QM_Energy>  (68) 
6.8

>  <source>  (68) 
ETOH_MIME

>  <Index>  (68) 
13894

$$$$
ETOH-pdb2ymu-A-THR-339:MIME-pdb2ymu-A-HIE-336
     RDKit          3D

 21 20  0  0  0  0  0  0  0  0999 V2000
   -2.6782   -5.2767   -1.5922 C   0  0  0  0  0  0  0  0  0  0  0  0
   -2.4256   -5.4430   -2.5404 H   0  0  0  0  0  0  0  0  0  0  0  0
   -2.8735   -6.1373   -1.1316 H   0  0  0  0  0  0  0  0  0  0  0  0
   -3.4691   -4.6739   -1.5477 H   0  0  0  0  0  0  0  0  0  0  0  0
   -1.4779   -4.5826   -0.8678 C   0  0  0  0  0  0  0  0  0  0  0  0
   -0.5913   -4.9956   -1.1390 H   0  0  0  0  0  0  0  0  0  0  0  0
   -1.5702   -4.6545    0.2159 H   0  0  0  0  0  0  0  0  0  0  0  0
   -1.4716   -3.1951   -1.2525 O   0  0  0  0  0  0  0  0  0  0  0  0
   -1.2014   -2.6210   -0.4737 H   0  0  0  0  0  0  0  0  0  0  0  0
   -0.1777    2.6558    0.0381 C   0  0  0  0  0  0  0  0  0  0  0  0
   -1.0297    2.8926   -0.4454 H   0  0  0  0  0  0  0  0  0  0  0  0
    0.5942    3.0677   -0.4615 H   0  0  0  0  0  0  0  0  0  0  0  0
   -0.2130    3.0811    1.0411 H   0  0  0  0  0  0  0  0  0  0  0  0
   -0.0165    1.1688    0.0106 C   0  0  0  0  0  0  0  0  0  0  0  0
    1.0943    0.3900   -0.0000 C   0  0  0  0  0  0  0  0  0  0  0  0
    2.0386    0.7041   -0.0031 H   0  0  0  0  0  0  0  0  0  0  0  0
    0.6718   -0.9210   -0.0026 N   0  0  0  0  0  0  0  0  0  0  0  0
    1.2653   -1.7249   -0.0031 H   0  0  0  0  0  0  0  0  0  0  0  0
   -0.6552   -0.9425   -0.0079 C   0  0  0  0  0  0  0  0  0  0  0  0
   -1.2208   -1.7613   -0.0142 H   0  0  0  0  0  0  0  0  0  0  0  0
   -1.0943    0.3047    0.0000 N   0  0  0  0  0  0  0  0  0  0  0  0
  1  5  1  0
  5  8  1  0
  1  2  1  0
  1  3  1  0
  1  4  1  0
  5  6  1  0
  5  7  1  0
  8  9  1  0
 10 14  1  0
 14 15  2  0
 15 17  1  0
 17 19  1  0
 19 21  2  0
 21 14  1  0
 10 11  1  0
 10 12  1  0
 10 13  1  0
 15 16  1  0
 17 18  1  0
 19 20  1  0
M  END
>  <PDB_ID>  (69) 
pdb2ymu

>  <RESIDUE_NAME>  (69) 
THR   HIE

>  <FRAG_NAME>  (69) 
ETOH   MIME

>  <FRAG_ATOM_NUM>  (69) 
fragi: 9  fragj: 12

>  <atom.prop.CHAIN_ID>  (69) 
A A A A A A A A A Z Z Z Z Z Z Z Z Z Z Z Z

>  <atom.prop.IS_HEAVY_ATOM>  (69) 
1 0 0 0 1 0 0 1 0 1 0 0 0 1 1 0 1 0 1 0 1

>  <DIFUSE_FUNC_ATOM>  (69) 
n/a

>  <FINAL_SINGLE_POINT_ENERGY>  (69) 
0

>  <NONCOV_INTER_ENERGY_QM>  (69) 
0

>  <FF_Energy>  (69) 
12.19

>  <QM_Energy>  (69) 
27.45

>  <source>  (69) 
ETOH_MIME

>  <Index>  (69) 
13935

$$$$
ETOH-pdb2yxg-B-SER-171:MIME-pdb2yxg-C-HIE-231
     RDKit          3D

 21 20  0  0  0  0  0  0  0  0999 V2000
   -4.1556   -4.2733    0.7514 C   0  0  0  0  0  0  0  0  0  0  0  0
   -4.3492   -3.4539    1.2977 H   0  0  0  0  0  0  0  0  0  0  0  0
   -4.1450   -5.1401    1.4121 H   0  0  0  0  0  0  0  0  0  0  0  0
   -4.9538   -4.3659    0.0149 H   0  0  0  0  0  0  0  0  0  0  0  0
   -2.7997   -4.0517    0.0538 C   0  0  0  0  0  0  0  0  0  0  0  0
   -2.4815   -4.9309   -0.2980 H   0  0  0  0  0  0  0  0  0  0  0  0
   -2.9404   -3.4182   -0.7065 H   0  0  0  0  0  0  0  0  0  0  0  0
   -1.8422   -3.5241    0.9317 O   0  0  0  0  0  0  0  0  0  0  0  0
   -1.6574   -2.5671    0.7000 H   0  0  0  0  0  0  0  0  0  0  0  0
   -0.1746    2.6676    0.0088 C   0  0  0  0  0  0  0  0  0  0  0  0
    0.5257    3.0466    0.6289 H   0  0  0  0  0  0  0  0  0  0  0  0
   -1.0818    2.8807    0.3959 H   0  0  0  0  0  0  0  0  0  0  0  0
   -0.0835    3.1465   -0.9660 H   0  0  0  0  0  0  0  0  0  0  0  0
   -0.0173    1.1767   -0.0165 C   0  0  0  0  0  0  0  0  0  0  0  0
    1.0996    0.3956   -0.0000 C   0  0  0  0  0  0  0  0  0  0  0  0
    2.0403    0.7085    0.0098 H   0  0  0  0  0  0  0  0  0  0  0  0
    0.6732   -0.9227    0.0018 N   0  0  0  0  0  0  0  0  0  0  0  0
    1.2709   -1.7232   -0.0060 H   0  0  0  0  0  0  0  0  0  0  0  0
   -0.6559   -0.9511    0.0147 C   0  0  0  0  0  0  0  0  0  0  0  0
   -1.2188   -1.7676    0.0339 H   0  0  0  0  0  0  0  0  0  0  0  0
   -1.0996    0.3015   -0.0000 N   0  0  0  0  0  0  0  0  0  0  0  0
  1  5  1  0
  5  8  1  0
  1  2  1  0
  1  3  1  0
  1  4  1  0
  5  6  1  0
  5  7  1  0
  8  9  1  0
 10 14  1  0
 14 15  2  0
 15 17  1  0
 17 19  1  0
 19 21  2  0
 21 14  1  0
 10 11  1  0
 10 12  1  0
 10 13  1  0
 15 16  1  0
 17 18  1  0
 19 20  1  0
M  END
>  <PDB_ID>  (70) 
pdb2yxg

>  <RESIDUE_NAME>  (70) 
SER   HIE

>  <FRAG_NAME>  (70) 
ETOH   MIME

>  <FRAG_ATOM_NUM>  (70) 
fragi: 9  fragj: 12

>  <atom.prop.CHAIN_ID>  (70) 
A A A A A A A A A Z Z Z Z Z Z Z Z Z Z Z Z

>  <atom.prop.IS_HEAVY_ATOM>  (70) 
1 0 0 0 1 0 0 1 0 1 0 0 0 1 1 0 1 0 1 0 1

>  <DIFUSE_FUNC_ATOM>  (70) 
n/a

>  <FINAL_SINGLE_POINT_ENERGY>  (70) 
0

>  <NONCOV_INTER_ENERGY_QM>  (70) 
0

>  <FF_Energy>  (70) 
4.02

>  <QM_Energy>  (70) 
12.82

>  <source>  (70) 
ETOH_MIME

>  <Index>  (70) 
14168

$$$$
ETOH-pdb2yxg-C-SER-171:MIME-pdb2yxg-B-HIE-231
     RDKit          3D

 21 20  0  0  0  0  0  0  0  0999 V2000
   -3.6943   -4.7107    0.3283 C   0  0  0  0  0  0  0  0  0  0  0  0
   -3.9973   -3.9653    0.9277 H   0  0  0  0  0  0  0  0  0  0  0  0
   -3.6045   -5.6115    0.9355 H   0  0  0  0  0  0  0  0  0  0  0  0
   -4.4473   -4.8506   -0.4473 H   0  0  0  0  0  0  0  0  0  0  0  0
   -2.3614   -4.3334   -0.3498 C   0  0  0  0  0  0  0  0  0  0  0  0
   -1.9444   -5.1641   -0.7043 H   0  0  0  0  0  0  0  0  0  0  0  0
   -2.5573   -3.7028   -1.0943 H   0  0  0  0  0  0  0  0  0  0  0  0
   -1.4820   -3.7200    0.5646 O   0  0  0  0  0  0  0  0  0  0  0  0
   -1.5060   -2.7274    0.4413 H   0  0  0  0  0  0  0  0  0  0  0  0
   -0.1627    2.6545    0.0553 C   0  0  0  0  0  0  0  0  0  0  0  0
    0.6092    3.0403    0.5789 H   0  0  0  0  0  0  0  0  0  0  0  0
   -1.0147    2.8734    0.5496 H   0  0  0  0  0  0  0  0  0  0  0  0
   -0.1947    3.1321   -0.9239 H   0  0  0  0  0  0  0  0  0  0  0  0
   -0.0102    1.1690    0.0153 C   0  0  0  0  0  0  0  0  0  0  0  0
    1.0909    0.3924   -0.0000 C   0  0  0  0  0  0  0  0  0  0  0  0
    2.0392    0.7028   -0.0082 H   0  0  0  0  0  0  0  0  0  0  0  0
    0.6674   -0.9152   -0.0016 N   0  0  0  0  0  0  0  0  0  0  0  0
    1.2651   -1.7208    0.0042 H   0  0  0  0  0  0  0  0  0  0  0  0
   -0.6573   -0.9460   -0.0138 C   0  0  0  0  0  0  0  0  0  0  0  0
   -1.2193   -1.7633   -0.0286 H   0  0  0  0  0  0  0  0  0  0  0  0
   -1.0909    0.2999    0.0000 N   0  0  0  0  0  0  0  0  0  0  0  0
  1  5  1  0
  5  8  1  0
  1  2  1  0
  1  3  1  0
  1  4  1  0
  5  6  1  0
  5  7  1  0
  8  9  1  0
 10 14  1  0
 14 15  2  0
 15 17  1  0
 17 19  1  0
 19 21  2  0
 21 14  1  0
 10 11  1  0
 10 12  1  0
 10 13  1  0
 15 16  1  0
 17 18  1  0
 19 20  1  0
M  END
>  <PDB_ID>  (71) 
pdb2yxg

>  <RESIDUE_NAME>  (71) 
SER   HIE

>  <FRAG_NAME>  (71) 
ETOH   MIME

>  <FRAG_ATOM_NUM>  (71) 
fragi: 9  fragj: 12

>  <atom.prop.CHAIN_ID>  (71) 
A A A A A A A A A Z Z Z Z Z Z Z Z Z Z Z Z

>  <atom.prop.IS_HEAVY_ATOM>  (71) 
1 0 0 0 1 0 0 1 0 1 0 0 0 1 1 0 1 0 1 0 1

>  <DIFUSE_FUNC_ATOM>  (71) 
n/a

>  <FINAL_SINGLE_POINT_ENERGY>  (71) 
0

>  <NONCOV_INTER_ENERGY_QM>  (71) 
0

>  <FF_Energy>  (71) 
4.24

>  <QM_Energy>  (71) 
13.69

>  <source>  (71) 
ETOH_MIME

>  <Index>  (71) 
14169

$$$$
ETOH-pdb4w9w-A-SER-284:MIME-pdb4w9w-A-HIE-291
     RDKit          3D

 21 20  0  0  0  0  0  0  0  0999 V2000
    0.1592   -5.5131    1.7155 C   0  0  0  0  0  0  0  0  0  0  0  0
   -0.7689   -5.9028    1.8701 H   0  0  0  0  0  0  0  0  0  0  0  0
    0.7881   -5.7960    2.5596 H   0  0  0  0  0  0  0  0  0  0  0  0
    0.5177   -5.8873    0.7566 H   0  0  0  0  0  0  0  0  0  0  0  0
    0.0382   -4.0003    1.6125 C   0  0  0  0  0  0  0  0  0  0  0  0
   -0.4475   -3.6598    2.3996 H   0  0  0  0  0  0  0  0  0  0  0  0
    0.9406   -3.6082    1.5425 H   0  0  0  0  0  0  0  0  0  0  0  0
   -0.6952   -3.6878    0.4428 O   0  0  0  0  0  0  0  0  0  0  0  0
   -0.6044   -2.7127    0.2422 H   0  0  0  0  0  0  0  0  0  0  0  0
   -0.1775    2.6608   -0.0384 C   0  0  0  0  0  0  0  0  0  0  0  0
    0.5571    3.0580   -0.5954 H   0  0  0  0  0  0  0  0  0  0  0  0
   -0.0971    3.0060    0.9004 H   0  0  0  0  0  0  0  0  0  0  0  0
   -1.1354    2.9851   -0.4450 H   0  0  0  0  0  0  0  0  0  0  0  0
   -0.0168    1.1792   -0.0196 C   0  0  0  0  0  0  0  0  0  0  0  0
    1.0926    0.3801   -0.0000 C   0  0  0  0  0  0  0  0  0  0  0  0
    2.0398    0.7008    0.0030 H   0  0  0  0  0  0  0  0  0  0  0  0
    0.6751   -0.9205    0.0156 N   0  0  0  0  0  0  0  0  0  0  0  0
    1.2614   -1.7292    0.0317 H   0  0  0  0  0  0  0  0  0  0  0  0
   -0.6583   -0.9410    0.0040 C   0  0  0  0  0  0  0  0  0  0  0  0
   -1.2201   -1.7615   -0.0004 H   0  0  0  0  0  0  0  0  0  0  0  0
   -1.0926    0.3022   -0.0000 N   0  0  0  0  0  0  0  0  0  0  0  0
  1  5  1  0
  5  8  1  0
  1  2  1  0
  1  3  1  0
  1  4  1  0
  5  6  1  0
  5  7  1  0
  8  9  1  0
 10 14  1  0
 14 15  2  0
 15 17  1  0
 17 19  1  0
 19 21  2  0
 21 14  1  0
 10 11  1  0
 10 12  1  0
 10 13  1  0
 15 16  1  0
 17 18  1  0
 19 20  1  0
M  END
>  <PDB_ID>  (72) 
pdb4w9w

>  <RESIDUE_NAME>  (72) 
SER   HIE

>  <FRAG_NAME>  (72) 
ETOH   MIME

>  <FRAG_ATOM_NUM>  (72) 
fragi: 9  fragj: 12

>  <atom.prop.CHAIN_ID>  (72) 
A A A A A A A A A Z Z Z Z Z Z Z Z Z Z Z Z

>  <atom.prop.IS_HEAVY_ATOM>  (72) 
1 0 0 0 1 0 0 1 0 1 0 0 0 1 1 0 1 0 1 0 1

>  <DIFUSE_FUNC_ATOM>  (72) 
n/a

>  <FINAL_SINGLE_POINT_ENERGY>  (72) 
0

>  <NONCOV_INTER_ENERGY_QM>  (72) 
0

>  <FF_Energy>  (72) 
6.69

>  <QM_Energy>  (72) 
16.19

>  <source>  (72) 
ETOH_MIME

>  <Index>  (72) 
14289

$$$$
ETOH-pdb2z5l-A-SER-270:MIME-pdb2z5l-A-HIE-295
     RDKit          3D

 21 20  0  0  0  0  0  0  0  0999 V2000
   -2.7084   -4.5827    0.2193 C   0  0  0  0  0  0  0  0  0  0  0  0
   -3.0512   -5.3028   -0.3892 H   0  0  0  0  0  0  0  0  0  0  0  0
   -3.2926   -3.6800    0.0406 H   0  0  0  0  0  0  0  0  0  0  0  0
   -2.8453   -4.9184    1.2472 H   0  0  0  0  0  0  0  0  0  0  0  0
   -1.2269   -4.3210   -0.0384 C   0  0  0  0  0  0  0  0  0  0  0  0
   -0.7305   -5.1829    0.0349 H   0  0  0  0  0  0  0  0  0  0  0  0
   -1.1218   -3.9486   -0.9586 H   0  0  0  0  0  0  0  0  0  0  0  0
   -0.6925   -3.4008    0.8934 O   0  0  0  0  0  0  0  0  0  0  0  0
   -0.8704   -2.4677    0.5820 H   0  0  0  0  0  0  0  0  0  0  0  0
   -0.1612    2.6545   -0.0319 C   0  0  0  0  0  0  0  0  0  0  0  0
    0.3128    3.0082   -0.8472 H   0  0  0  0  0  0  0  0  0  0  0  0
    0.2858    3.0342    0.7858 H   0  0  0  0  0  0  0  0  0  0  0  0
   -1.1970    2.9935   -0.0538 H   0  0  0  0  0  0  0  0  0  0  0  0
   -0.0117    1.1687   -0.0047 C   0  0  0  0  0  0  0  0  0  0  0  0
    1.0916    0.3832   -0.0000 C   0  0  0  0  0  0  0  0  0  0  0  0
    2.0395    0.6960    0.0029 H   0  0  0  0  0  0  0  0  0  0  0  0
    0.6678   -0.9205    0.0019 N   0  0  0  0  0  0  0  0  0  0  0  0
    1.2591   -1.7283    0.0017 H   0  0  0  0  0  0  0  0  0  0  0  0
   -0.6561   -0.9385    0.0028 C   0  0  0  0  0  0  0  0  0  0  0  0
   -1.2242   -1.7565    0.0047 H   0  0  0  0  0  0  0  0  0  0  0  0
   -1.0916    0.3072    0.0000 N   0  0  0  0  0  0  0  0  0  0  0  0
  1  5  1  0
  5  8  1  0
  1  2  1  0
  1  3  1  0
  1  4  1  0
  5  6  1  0
  5  7  1  0
  8  9  1  0
 10 14  1  0
 14 15  2  0
 15 17  1  0
 17 19  1  0
 19 21  2  0
 21 14  1  0
 10 11  1  0
 10 12  1  0
 10 13  1  0
 15 16  1  0
 17 18  1  0
 19 20  1  0
M  END
>  <PDB_ID>  (73) 
pdb2z5l

>  <RESIDUE_NAME>  (73) 
SER   HIE

>  <FRAG_NAME>  (73) 
ETOH   MIME

>  <FRAG_ATOM_NUM>  (73) 
fragi: 9  fragj: 12

>  <atom.prop.CHAIN_ID>  (73) 
A A A A A A A A A Z Z Z Z Z Z Z Z Z Z Z Z

>  <atom.prop.IS_HEAVY_ATOM>  (73) 
1 0 0 0 1 0 0 1 0 1 0 0 0 1 1 0 1 0 1 0 1

>  <DIFUSE_FUNC_ATOM>  (73) 
n/a

>  <FINAL_SINGLE_POINT_ENERGY>  (73) 
0

>  <NONCOV_INTER_ENERGY_QM>  (73) 
0

>  <FF_Energy>  (73) 
10.83

>  <QM_Energy>  (73) 
27.1

>  <source>  (73) 
ETOH_MIME

>  <Index>  (73) 
14451

$$$$
ETOH-pdb1xdp-A-SER-472:MIME-pdb1xdp-A-HIE-454
     RDKit          3D

 21 20  0  0  0  0  0  0  0  0999 V2000
   -2.1421   -2.4786    3.2455 C   0  0  0  0  0  0  0  0  0  0  0  0
   -1.1781   -2.3088    3.1434 H   0  0  0  0  0  0  0  0  0  0  0  0
   -2.2727   -3.3731    3.8544 H   0  0  0  0  0  0  0  0  0  0  0  0
   -2.5675   -1.6728    3.8437 H   0  0  0  0  0  0  0  0  0  0  0  0
   -2.9016   -2.5794    1.9227 C   0  0  0  0  0  0  0  0  0  0  0  0
   -3.5903   -3.2990    2.0020 H   0  0  0  0  0  0  0  0  0  0  0  0
   -3.3519   -1.7051    1.7443 H   0  0  0  0  0  0  0  0  0  0  0  0
   -2.0417   -2.8822    0.8412 O   0  0  0  0  0  0  0  0  0  0  0  0
   -1.5921   -2.0466    0.5271 H   0  0  0  0  0  0  0  0  0  0  0  0
   -0.1784    2.6521   -0.0391 C   0  0  0  0  0  0  0  0  0  0  0  0
   -1.1377    2.8576   -0.2657 H   0  0  0  0  0  0  0  0  0  0  0  0
    0.4063    3.0142   -0.7739 H   0  0  0  0  0  0  0  0  0  0  0  0
    0.0824    3.1400    0.9001 H   0  0  0  0  0  0  0  0  0  0  0  0
   -0.0152    1.1674   -0.0016 C   0  0  0  0  0  0  0  0  0  0  0  0
    1.0918    0.3876    0.0000 C   0  0  0  0  0  0  0  0  0  0  0  0
    2.0371    0.7009    0.0016 H   0  0  0  0  0  0  0  0  0  0  0  0
    0.6682   -0.9186    0.0009 N   0  0  0  0  0  0  0  0  0  0  0  0
    1.2642   -1.7244   -0.0005 H   0  0  0  0  0  0  0  0  0  0  0  0
   -0.6531   -0.9417    0.0007 C   0  0  0  0  0  0  0  0  0  0  0  0
   -1.2214   -1.7595    0.0028 H   0  0  0  0  0  0  0  0  0  0  0  0
   -1.0918    0.3053   -0.0000 N   0  0  0  0  0  0  0  0  0  0  0  0
  1  5  1  0
  5  8  1  0
  1  2  1  0
  1  3  1  0
  1  4  1  0
  5  6  1  0
  5  7  1  0
  8  9  1  0
 10 14  1  0
 14 15  2  0
 15 17  1  0
 17 19  1  0
 19 21  2  0
 21 14  1  0
 10 11  1  0
 10 12  1  0
 10 13  1  0
 15 16  1  0
 17 18  1  0
 19 20  1  0
M  END
>  <PDB_ID>  (74) 
pdb1xdp

>  <RESIDUE_NAME>  (74) 
SER   HIE

>  <FRAG_NAME>  (74) 
ETOH   MIME

>  <FRAG_ATOM_NUM>  (74) 
fragi: 9  fragj: 12

>  <atom.prop.CHAIN_ID>  (74) 
A A A A A A A A A Z Z Z Z Z Z Z Z Z Z Z Z

>  <atom.prop.IS_HEAVY_ATOM>  (74) 
1 0 0 0 1 0 0 1 0 1 0 0 0 1 1 0 1 0 1 0 1

>  <DIFUSE_FUNC_ATOM>  (74) 
n/a

>  <FINAL_SINGLE_POINT_ENERGY>  (74) 
0

>  <NONCOV_INTER_ENERGY_QM>  (74) 
0

>  <FF_Energy>  (74) 
53.7

>  <QM_Energy>  (74) 
71.53

>  <source>  (74) 
ETOH_MIME

>  <Index>  (74) 
14556

$$$$
ETOH-pdb1xdp-B-SER-472:MIME-pdb1xdp-B-HIE-454
     RDKit          3D

 21 20  0  0  0  0  0  0  0  0999 V2000
   -2.2259   -2.3759    3.3142 C   0  0  0  0  0  0  0  0  0  0  0  0
   -1.2586   -2.2159    3.2257 H   0  0  0  0  0  0  0  0  0  0  0  0
   -2.3742   -3.2520    3.9456 H   0  0  0  0  0  0  0  0  0  0  0  0
   -2.6586   -1.5511    3.8806 H   0  0  0  0  0  0  0  0  0  0  0  0
   -2.9649   -2.5175    1.9769 C   0  0  0  0  0  0  0  0  0  0  0  0
   -3.6398   -3.2465    2.0605 H   0  0  0  0  0  0  0  0  0  0  0  0
   -3.4200   -1.6539    1.7718 H   0  0  0  0  0  0  0  0  0  0  0  0
   -2.0734   -2.8323    0.9198 O   0  0  0  0  0  0  0  0  0  0  0  0
   -1.6259   -1.9971    0.6017 H   0  0  0  0  0  0  0  0  0  0  0  0
   -0.1825    2.6567   -0.0781 C   0  0  0  0  0  0  0  0  0  0  0  0
   -1.1387    2.8550   -0.3150 H   0  0  0  0  0  0  0  0  0  0  0  0
    0.4080    3.0020   -0.8149 H   0  0  0  0  0  0  0  0  0  0  0  0
    0.0704    3.1660    0.8519 H   0  0  0  0  0  0  0  0  0  0  0  0
   -0.0182    1.1670   -0.0077 C   0  0  0  0  0  0  0  0  0  0  0  0
    1.0926    0.3898    0.0000 C   0  0  0  0  0  0  0  0  0  0  0  0
    2.0359    0.7056    0.0034 H   0  0  0  0  0  0  0  0  0  0  0  0
    0.6690   -0.9176    0.0034 N   0  0  0  0  0  0  0  0  0  0  0  0
    1.2660   -1.7225    0.0039 H   0  0  0  0  0  0  0  0  0  0  0  0
   -0.6508   -0.9421    0.0042 C   0  0  0  0  0  0  0  0  0  0  0  0
   -1.2176   -1.7617    0.0078 H   0  0  0  0  0  0  0  0  0  0  0  0
   -1.0926    0.3029   -0.0000 N   0  0  0  0  0  0  0  0  0  0  0  0
  1  5  1  0
  5  8  1  0
  1  2  1  0
  1  3  1  0
  1  4  1  0
  5  6  1  0
  5  7  1  0
  8  9  1  0
 10 14  1  0
 14 15  2  0
 15 17  1  0
 17 19  1  0
 19 21  2  0
 21 14  1  0
 10 11  1  0
 10 12  1  0
 10 13  1  0
 15 16  1  0
 17 18  1  0
 19 20  1  0
M  END
>  <PDB_ID>  (75) 
pdb1xdp

>  <RESIDUE_NAME>  (75) 
SER   HIE

>  <FRAG_NAME>  (75) 
ETOH   MIME

>  <FRAG_ATOM_NUM>  (75) 
fragi: 9  fragj: 12

>  <atom.prop.CHAIN_ID>  (75) 
A A A A A A A A A Z Z Z Z Z Z Z Z Z Z Z Z

>  <atom.prop.IS_HEAVY_ATOM>  (75) 
1 0 0 0 1 0 0 1 0 1 0 0 0 1 1 0 1 0 1 0 1

>  <DIFUSE_FUNC_ATOM>  (75) 
n/a

>  <FINAL_SINGLE_POINT_ENERGY>  (75) 
0

>  <NONCOV_INTER_ENERGY_QM>  (75) 
0

>  <FF_Energy>  (75) 
39.72

>  <QM_Energy>  (75) 
59.32

>  <source>  (75) 
ETOH_MIME

>  <Index>  (75) 
14560

$$$$
ETOH-pdb4wnk-A-SER-418:MIME-pdb4wnk-A-HIE-445
     RDKit          3D

 21 20  0  0  0  0  0  0  0  0999 V2000
    0.7231   -4.9586   -1.4068 C   0  0  0  0  0  0  0  0  0  0  0  0
    0.1024   -5.7445   -1.2770 H   0  0  0  0  0  0  0  0  0  0  0  0
    1.6464   -5.3271   -1.8536 H   0  0  0  0  0  0  0  0  0  0  0  0
    0.2167   -4.2403   -2.0515 H   0  0  0  0  0  0  0  0  0  0  0  0
    1.0050   -4.3350   -0.0328 C   0  0  0  0  0  0  0  0  0  0  0  0
    1.2887   -5.0557    0.5890 H   0  0  0  0  0  0  0  0  0  0  0  0
    1.7260   -3.6591   -0.1356 H   0  0  0  0  0  0  0  0  0  0  0  0
   -0.1522   -3.7139    0.4662 O   0  0  0  0  0  0  0  0  0  0  0  0
   -0.1508   -2.7443    0.2171 H   0  0  0  0  0  0  0  0  0  0  0  0
   -0.1874    2.6620    0.0018 C   0  0  0  0  0  0  0  0  0  0  0  0
   -1.1211    2.8765   -0.3142 H   0  0  0  0  0  0  0  0  0  0  0  0
    0.4643    3.0537   -0.6616 H   0  0  0  0  0  0  0  0  0  0  0  0
   -0.0279    3.1354    0.9706 H   0  0  0  0  0  0  0  0  0  0  0  0
   -0.0208    1.1686   -0.0035 C   0  0  0  0  0  0  0  0  0  0  0  0
    1.0882    0.3897    0.0000 C   0  0  0  0  0  0  0  0  0  0  0  0
    2.0335    0.7070    0.0018 H   0  0  0  0  0  0  0  0  0  0  0  0
    0.6700   -0.9184    0.0026 N   0  0  0  0  0  0  0  0  0  0  0  0
    1.2688   -1.7205    0.0047 H   0  0  0  0  0  0  0  0  0  0  0  0
   -0.6492   -0.9425    0.0009 C   0  0  0  0  0  0  0  0  0  0  0  0
   -1.2166   -1.7613    0.0010 H   0  0  0  0  0  0  0  0  0  0  0  0
   -1.0882    0.3026   -0.0000 N   0  0  0  0  0  0  0  0  0  0  0  0
  1  5  1  0
  5  8  1  0
  1  2  1  0
  1  3  1  0
  1  4  1  0
  5  6  1  0
  5  7  1  0
  8  9  1  0
 10 14  1  0
 14 15  2  0
 15 17  1  0
 17 19  1  0
 19 21  2  0
 21 14  1  0
 10 11  1  0
 10 12  1  0
 10 13  1  0
 15 16  1  0
 17 18  1  0
 19 20  1  0
M  END
>  <PDB_ID>  (76) 
pdb4wnk

>  <RESIDUE_NAME>  (76) 
SER   HIE

>  <FRAG_NAME>  (76) 
ETOH   MIME

>  <FRAG_ATOM_NUM>  (76) 
fragi: 9  fragj: 12

>  <atom.prop.CHAIN_ID>  (76) 
A A A A A A A A A Z Z Z Z Z Z Z Z Z Z Z Z

>  <atom.prop.IS_HEAVY_ATOM>  (76) 
1 0 0 0 1 0 0 1 0 1 0 0 0 1 1 0 1 0 1 0 1

>  <DIFUSE_FUNC_ATOM>  (76) 
n/a

>  <FINAL_SINGLE_POINT_ENERGY>  (76) 
0

>  <NONCOV_INTER_ENERGY_QM>  (76) 
0

>  <FF_Energy>  (76) 
5.09

>  <QM_Energy>  (76) 
10.18

>  <source>  (76) 
ETOH_MIME

>  <Index>  (76) 
14620

$$$$
ETOH-pdb2zuk-B-SER-247:MIME-pdb2zuk-B-HIE-255
     RDKit          3D

 21 20  0  0  0  0  0  0  0  0999 V2000
   -2.5746   -4.0192   -2.2529 C   0  0  0  0  0  0  0  0  0  0  0  0
   -2.3049   -4.0146   -3.2302 H   0  0  0  0  0  0  0  0  0  0  0  0
   -3.4087   -4.7119   -2.1408 H   0  0  0  0  0  0  0  0  0  0  0  0
   -1.7031   -4.3097   -1.6663 H   0  0  0  0  0  0  0  0  0  0  0  0
   -3.0069   -2.6264   -1.8210 C   0  0  0  0  0  0  0  0  0  0  0  0
   -2.3578   -1.9638   -2.1712 H   0  0  0  0  0  0  0  0  0  0  0  0
   -3.9170   -2.4489   -2.1705 H   0  0  0  0  0  0  0  0  0  0  0  0
   -3.0294   -2.5540   -0.4125 O   0  0  0  0  0  0  0  0  0  0  0  0
   -2.4794   -1.7765   -0.1069 H   0  0  0  0  0  0  0  0  0  0  0  0
   -0.1831    2.6485    0.0012 C   0  0  0  0  0  0  0  0  0  0  0  0
   -1.0656    2.8736   -0.4346 H   0  0  0  0  0  0  0  0  0  0  0  0
    0.5518    3.0540   -0.5609 H   0  0  0  0  0  0  0  0  0  0  0  0
   -0.1547    3.0946    0.9953 H   0  0  0  0  0  0  0  0  0  0  0  0
   -0.0185    1.1659   -0.0126 C   0  0  0  0  0  0  0  0  0  0  0  0
    1.0903    0.3920   -0.0000 C   0  0  0  0  0  0  0  0  0  0  0  0
    2.0345    0.7082    0.0025 H   0  0  0  0  0  0  0  0  0  0  0  0
    0.6690   -0.9159    0.0086 N   0  0  0  0  0  0  0  0  0  0  0  0
    1.2684   -1.7195    0.0160 H   0  0  0  0  0  0  0  0  0  0  0  0
   -0.6506   -0.9425    0.0040 C   0  0  0  0  0  0  0  0  0  0  0  0
   -1.2150   -1.7631    0.0054 H   0  0  0  0  0  0  0  0  0  0  0  0
   -1.0903    0.3005    0.0000 N   0  0  0  0  0  0  0  0  0  0  0  0
  1  5  1  0
  5  8  1  0
  1  2  1  0
  1  3  1  0
  1  4  1  0
  5  6  1  0
  5  7  1  0
  8  9  1  0
 10 14  1  0
 14 15  2  0
 15 17  1  0
 17 19  1  0
 19 21  2  0
 21 14  1  0
 10 11  1  0
 10 12  1  0
 10 13  1  0
 15 16  1  0
 17 18  1  0
 19 20  1  0
M  END
>  <PDB_ID>  (77) 
pdb2zuk

>  <RESIDUE_NAME>  (77) 
SER   HIE

>  <FRAG_NAME>  (77) 
ETOH   MIME

>  <FRAG_ATOM_NUM>  (77) 
fragi: 9  fragj: 12

>  <atom.prop.CHAIN_ID>  (77) 
A A A A A A A A A Z Z Z Z Z Z Z Z Z Z Z Z

>  <atom.prop.IS_HEAVY_ATOM>  (77) 
1 0 0 0 1 0 0 1 0 1 0 0 0 1 1 0 1 0 1 0 1

>  <DIFUSE_FUNC_ATOM>  (77) 
n/a

>  <FINAL_SINGLE_POINT_ENERGY>  (77) 
0

>  <NONCOV_INTER_ENERGY_QM>  (77) 
0

>  <FF_Energy>  (77) 
0.17

>  <QM_Energy>  (77) 
7.82

>  <source>  (77) 
ETOH_MIME

>  <Index>  (77) 
15011

$$$$
ETOH-pdb1xtq-A-SER-4:MIME-pdb1xtq-A-HIE-55
     RDKit          3D

 21 20  0  0  0  0  0  0  0  0999 V2000
   -2.6392   -1.8703    4.0527 C   0  0  0  0  0  0  0  0  0  0  0  0
   -2.0372   -1.8544    4.8480 H   0  0  0  0  0  0  0  0  0  0  0  0
   -3.2608   -2.7635    4.1140 H   0  0  0  0  0  0  0  0  0  0  0  0
   -3.2854   -0.9938    4.1005 H   0  0  0  0  0  0  0  0  0  0  0  0
   -1.8555   -1.8486    2.7411 C   0  0  0  0  0  0  0  0  0  0  0  0
   -1.2111   -1.0916    2.7648 H   0  0  0  0  0  0  0  0  0  0  0  0
   -1.3712   -2.7120    2.6424 H   0  0  0  0  0  0  0  0  0  0  0  0
   -2.7284   -1.6799    1.6398 O   0  0  0  0  0  0  0  0  0  0  0  0
   -2.3335   -1.0240    0.9973 H   0  0  0  0  0  0  0  0  0  0  0  0
   -0.1766    2.6573    0.0370 C   0  0  0  0  0  0  0  0  0  0  0  0
   -1.1189    2.8685    0.3248 H   0  0  0  0  0  0  0  0  0  0  0  0
   -0.0442    3.0142   -0.8965 H   0  0  0  0  0  0  0  0  0  0  0  0
    0.5170    3.1652    0.7071 H   0  0  0  0  0  0  0  0  0  0  0  0
   -0.0178    1.1678   -0.0005 C   0  0  0  0  0  0  0  0  0  0  0  0
    1.0903    0.3893    0.0000 C   0  0  0  0  0  0  0  0  0  0  0  0
    2.0354    0.7049    0.0001 H   0  0  0  0  0  0  0  0  0  0  0  0
    0.6688   -0.9168    0.0006 N   0  0  0  0  0  0  0  0  0  0  0  0
    1.2661   -1.7213    0.0014 H   0  0  0  0  0  0  0  0  0  0  0  0
   -0.6510   -0.9428   -0.0001 C   0  0  0  0  0  0  0  0  0  0  0  0
   -1.2180   -1.7618   -0.0002 H   0  0  0  0  0  0  0  0  0  0  0  0
   -1.0903    0.3025    0.0000 N   0  0  0  0  0  0  0  0  0  0  0  0
  1  5  1  0
  5  8  1  0
  1  2  1  0
  1  3  1  0
  1  4  1  0
  5  6  1  0
  5  7  1  0
  8  9  1  0
 10 14  1  0
 14 15  2  0
 15 17  1  0
 17 19  1  0
 19 21  2  0
 21 14  1  0
 10 11  1  0
 10 12  1  0
 10 13  1  0
 15 16  1  0
 17 18  1  0
 19 20  1  0
M  END
>  <PDB_ID>  (78) 
pdb1xtq

>  <RESIDUE_NAME>  (78) 
SER   HIE

>  <FRAG_NAME>  (78) 
ETOH   MIME

>  <FRAG_ATOM_NUM>  (78) 
fragi: 9  fragj: 12

>  <atom.prop.CHAIN_ID>  (78) 
A A A A A A A A A Z Z Z Z Z Z Z Z Z Z Z Z

>  <atom.prop.IS_HEAVY_ATOM>  (78) 
1 0 0 0 1 0 0 1 0 1 0 0 0 1 1 0 1 0 1 0 1

>  <DIFUSE_FUNC_ATOM>  (78) 
n/a

>  <FINAL_SINGLE_POINT_ENERGY>  (78) 
0

>  <NONCOV_INTER_ENERGY_QM>  (78) 
0

>  <FF_Energy>  (78) 
-4.84

>  <QM_Energy>  (78) 
0.7

>  <source>  (78) 
ETOH_MIME

>  <Index>  (78) 
15040

$$$$
ETOH-pdb3shr-A-SER-230:MIME-pdb3shr-A-HIE-208
     RDKit          3D

 21 20  0  0  0  0  0  0  0  0999 V2000
   -1.9659   -4.0644    1.3066 C   0  0  0  0  0  0  0  0  0  0  0  0
   -1.5333   -3.2952    1.8132 H   0  0  0  0  0  0  0  0  0  0  0  0
   -2.1708   -4.8619    2.0207 H   0  0  0  0  0  0  0  0  0  0  0  0
   -2.8609   -3.6810    0.8167 H   0  0  0  0  0  0  0  0  0  0  0  0
   -0.9822   -4.5561    0.2449 C   0  0  0  0  0  0  0  0  0  0  0  0
   -0.0635   -4.5506    0.6311 H   0  0  0  0  0  0  0  0  0  0  0  0
   -1.2349   -5.4820   -0.0217 H   0  0  0  0  0  0  0  0  0  0  0  0
   -1.0069   -3.7238   -0.8995 O   0  0  0  0  0  0  0  0  0  0  0  0
   -1.0399   -2.7661   -0.6153 H   0  0  0  0  0  0  0  0  0  0  0  0
   -0.1765    2.6580    0.0729 C   0  0  0  0  0  0  0  0  0  0  0  0
   -1.0001    2.9106   -0.4461 H   0  0  0  0  0  0  0  0  0  0  0  0
    0.6224    3.0800   -0.3702 H   0  0  0  0  0  0  0  0  0  0  0  0
   -0.2639    3.0454    1.0879 H   0  0  0  0  0  0  0  0  0  0  0  0
   -0.0174    1.1680    0.0067 C   0  0  0  0  0  0  0  0  0  0  0  0
    1.0915    0.3899    0.0000 C   0  0  0  0  0  0  0  0  0  0  0  0
    2.0361    0.7045   -0.0021 H   0  0  0  0  0  0  0  0  0  0  0  0
    0.6691   -0.9174   -0.0028 N   0  0  0  0  0  0  0  0  0  0  0  0
    1.2661   -1.7221   -0.0053 H   0  0  0  0  0  0  0  0  0  0  0  0
   -0.6517   -0.9426   -0.0038 C   0  0  0  0  0  0  0  0  0  0  0  0
   -1.2176   -1.7623   -0.0054 H   0  0  0  0  0  0  0  0  0  0  0  0
   -1.0915    0.3020   -0.0000 N   0  0  0  0  0  0  0  0  0  0  0  0
  1  5  1  0
  5  8  1  0
  1  2  1  0
  1  3  1  0
  1  4  1  0
  5  6  1  0
  5  7  1  0
  8  9  1  0
 10 14  1  0
 14 15  2  0
 15 17  1  0
 17 19  1  0
 19 21  2  0
 21 14  1  0
 10 11  1  0
 10 12  1  0
 10 13  1  0
 15 16  1  0
 17 18  1  0
 19 20  1  0
M  END
>  <PDB_ID>  (79) 
pdb3shr

>  <RESIDUE_NAME>  (79) 
SER   HIE

>  <FRAG_NAME>  (79) 
ETOH   MIME

>  <FRAG_ATOM_NUM>  (79) 
fragi: 9  fragj: 12

>  <atom.prop.CHAIN_ID>  (79) 
A A A A A A A A A Z Z Z Z Z Z Z Z Z Z Z Z

>  <atom.prop.IS_HEAVY_ATOM>  (79) 
1 0 0 0 1 0 0 1 0 1 0 0 0 1 1 0 1 0 1 0 1

>  <DIFUSE_FUNC_ATOM>  (79) 
n/a

>  <FINAL_SINGLE_POINT_ENERGY>  (79) 
0

>  <NONCOV_INTER_ENERGY_QM>  (79) 
0

>  <FF_Energy>  (79) 
3.76

>  <QM_Energy>  (79) 
11.48

>  <source>  (79) 
ETOH_MIME

>  <Index>  (79) 
15286

$$$$
ETOH-pdb4xh0-A-THR-377:MIME-pdb4xh0-A-HIE-358
     RDKit          3D

 21 20  0  0  0  0  0  0  0  0999 V2000
   -1.7286   -5.7831   -0.0157 C   0  0  0  0  0  0  0  0  0  0  0  0
   -1.2466   -6.5838    0.3402 H   0  0  0  0  0  0  0  0  0  0  0  0
   -2.6996   -5.9972   -0.1246 H   0  0  0  0  0  0  0  0  0  0  0  0
   -1.3415   -5.5257   -0.9010 H   0  0  0  0  0  0  0  0  0  0  0  0
   -1.5710   -4.6134    0.9697 C   0  0  0  0  0  0  0  0  0  0  0  0
   -1.3204   -4.9548    1.8975 H   0  0  0  0  0  0  0  0  0  0  0  0
   -2.4987   -4.0462    1.0442 H   0  0  0  0  0  0  0  0  0  0  0  0
   -0.5201   -3.7548    0.5093 O   0  0  0  0  0  0  0  0  0  0  0  0
   -0.8513   -2.8086    0.4291 H   0  0  0  0  0  0  0  0  0  0  0  0
   -0.1656    2.6559    0.0016 C   0  0  0  0  0  0  0  0  0  0  0  0
    0.6657    3.0608   -0.3919 H   0  0  0  0  0  0  0  0  0  0  0  0
   -0.2520    2.9592    0.9551 H   0  0  0  0  0  0  0  0  0  0  0  0
   -1.0320    3.0028   -0.5615 H   0  0  0  0  0  0  0  0  0  0  0  0
   -0.0143    1.1691   -0.0070 C   0  0  0  0  0  0  0  0  0  0  0  0
    1.0931    0.3899   -0.0000 C   0  0  0  0  0  0  0  0  0  0  0  0
    2.0384    0.7021    0.0035 H   0  0  0  0  0  0  0  0  0  0  0  0
    0.6681   -0.9195    0.0018 N   0  0  0  0  0  0  0  0  0  0  0  0
    1.2646   -1.7239   -0.0002 H   0  0  0  0  0  0  0  0  0  0  0  0
   -0.6538   -0.9437    0.0051 C   0  0  0  0  0  0  0  0  0  0  0  0
   -1.2203   -1.7613    0.0122 H   0  0  0  0  0  0  0  0  0  0  0  0
   -1.0931    0.3043    0.0000 N   0  0  0  0  0  0  0  0  0  0  0  0
  1  5  1  0
  5  8  1  0
  1  2  1  0
  1  3  1  0
  1  4  1  0
  5  6  1  0
  5  7  1  0
  8  9  1  0
 10 14  1  0
 14 15  2  0
 15 17  1  0
 17 19  1  0
 19 21  2  0
 21 14  1  0
 10 11  1  0
 10 12  1  0
 10 13  1  0
 15 16  1  0
 17 18  1  0
 19 20  1  0
M  END
>  <PDB_ID>  (80) 
pdb4xh0

>  <RESIDUE_NAME>  (80) 
THR   HIE

>  <FRAG_NAME>  (80) 
ETOH   MIME

>  <FRAG_ATOM_NUM>  (80) 
fragi: 9  fragj: 12

>  <atom.prop.CHAIN_ID>  (80) 
A A A A A A A A A Z Z Z Z Z Z Z Z Z Z Z Z

>  <atom.prop.IS_HEAVY_ATOM>  (80) 
1 0 0 0 1 0 0 1 0 1 0 0 0 1 1 0 1 0 1 0 1

>  <DIFUSE_FUNC_ATOM>  (80) 
n/a

>  <FINAL_SINGLE_POINT_ENERGY>  (80) 
0

>  <NONCOV_INTER_ENERGY_QM>  (80) 
0

>  <FF_Energy>  (80) 
3.14

>  <QM_Energy>  (80) 
10.2

>  <source>  (80) 
ETOH_MIME

>  <Index>  (80) 
15332

$$$$
ETOH-pdb4xri-A-SER-109:MIME-pdb4xri-A-HIE-149
     RDKit          3D

 21 20  0  0  0  0  0  0  0  0999 V2000
   -4.5698   -1.7418    0.4429 C   0  0  0  0  0  0  0  0  0  0  0  0
   -4.2385   -0.8464    0.0975 H   0  0  0  0  0  0  0  0  0  0  0  0
   -4.1121   -1.9160    1.4166 H   0  0  0  0  0  0  0  0  0  0  0  0
   -5.6584   -1.7004    0.4810 H   0  0  0  0  0  0  0  0  0  0  0  0
   -4.1341   -2.8276   -0.5442 C   0  0  0  0  0  0  0  0  0  0  0  0
   -4.2833   -3.7183   -0.1265 H   0  0  0  0  0  0  0  0  0  0  0  0
   -4.6757   -2.7407   -1.3745 H   0  0  0  0  0  0  0  0  0  0  0  0
   -2.7636   -2.6915   -0.8697 O   0  0  0  0  0  0  0  0  0  0  0  0
   -2.4296   -1.8067   -0.5473 H   0  0  0  0  0  0  0  0  0  0  0  0
   -0.1665    2.6566    0.0021 C   0  0  0  0  0  0  0  0  0  0  0  0
    0.4870    3.0409    0.6635 H   0  0  0  0  0  0  0  0  0  0  0  0
   -1.0982    2.8765    0.3105 H   0  0  0  0  0  0  0  0  0  0  0  0
    0.0015    3.1180   -0.9710 H   0  0  0  0  0  0  0  0  0  0  0  0
   -0.0110    1.1701   -0.0043 C   0  0  0  0  0  0  0  0  0  0  0  0
    1.0901    0.3839    0.0000 C   0  0  0  0  0  0  0  0  0  0  0  0
    2.0399    0.6962    0.0039 H   0  0  0  0  0  0  0  0  0  0  0  0
    0.6676   -0.9210    0.0021 N   0  0  0  0  0  0  0  0  0  0  0  0
    1.2585   -1.7278    0.0018 H   0  0  0  0  0  0  0  0  0  0  0  0
   -0.6566   -0.9375    0.0022 C   0  0  0  0  0  0  0  0  0  0  0  0
   -1.2248   -1.7571    0.0041 H   0  0  0  0  0  0  0  0  0  0  0  0
   -1.0901    0.3045   -0.0000 N   0  0  0  0  0  0  0  0  0  0  0  0
  1  5  1  0
  5  8  1  0
  1  2  1  0
  1  3  1  0
  1  4  1  0
  5  6  1  0
  5  7  1  0
  8  9  1  0
 10 14  1  0
 14 15  2  0
 15 17  1  0
 17 19  1  0
 19 21  2  0
 21 14  1  0
 10 11  1  0
 10 12  1  0
 10 13  1  0
 15 16  1  0
 17 18  1  0
 19 20  1  0
M  END
>  <PDB_ID>  (81) 
pdb4xri

>  <RESIDUE_NAME>  (81) 
SER   HIE

>  <FRAG_NAME>  (81) 
ETOH   MIME

>  <FRAG_ATOM_NUM>  (81) 
fragi: 9  fragj: 12

>  <atom.prop.CHAIN_ID>  (81) 
A A A A A A A A A Z Z Z Z Z Z Z Z Z Z Z Z

>  <atom.prop.IS_HEAVY_ATOM>  (81) 
1 0 0 0 1 0 0 1 0 1 0 0 0 1 1 0 1 0 1 0 1

>  <DIFUSE_FUNC_ATOM>  (81) 
n/a

>  <FINAL_SINGLE_POINT_ENERGY>  (81) 
0

>  <NONCOV_INTER_ENERGY_QM>  (81) 
0

>  <FF_Energy>  (81) 
-0.87

>  <QM_Energy>  (81) 
5.46

>  <source>  (81) 
ETOH_MIME

>  <Index>  (81) 
15538

$$$$
ETOH-pdb4y7o-A-THR-971:MIME-pdb4y7o-B-HIE-978
     RDKit          3D

 21 20  0  0  0  0  0  0  0  0999 V2000
   -3.4654   -3.9624    2.1571 C   0  0  0  0  0  0  0  0  0  0  0  0
   -4.2757   -4.4599    2.4748 H   0  0  0  0  0  0  0  0  0  0  0  0
   -2.6423   -4.4499    2.4557 H   0  0  0  0  0  0  0  0  0  0  0  0
   -3.4671   -3.0431    2.5562 H   0  0  0  0  0  0  0  0  0  0  0  0
   -3.4838   -3.8646    0.6368 C   0  0  0  0  0  0  0  0  0  0  0  0
   -4.1782   -3.1462    0.4116 H   0  0  0  0  0  0  0  0  0  0  0  0
   -3.7717   -4.8013    0.1594 H   0  0  0  0  0  0  0  0  0  0  0  0
   -2.2178   -3.4260    0.1364 O   0  0  0  0  0  0  0  0  0  0  0  0
   -2.1510   -2.4230    0.1808 H   0  0  0  0  0  0  0  0  0  0  0  0
   -0.0642    2.6516    0.0103 C   0  0  0  0  0  0  0  0  0  0  0  0
    0.8579    3.0215    0.1380 H   0  0  0  0  0  0  0  0  0  0  0  0
   -0.6357    2.9203    0.7882 H   0  0  0  0  0  0  0  0  0  0  0  0
   -0.4889    3.0783   -0.8984 H   0  0  0  0  0  0  0  0  0  0  0  0
    0.0252    1.1485   -0.0165 C   0  0  0  0  0  0  0  0  0  0  0  0
    1.1128    0.3474    0.0000 C   0  0  0  0  0  0  0  0  0  0  0  0
    2.0647    0.6361    0.0013 H   0  0  0  0  0  0  0  0  0  0  0  0
    0.6528   -0.9468    0.0160 N   0  0  0  0  0  0  0  0  0  0  0  0
    1.2048   -1.7683    0.0346 H   0  0  0  0  0  0  0  0  0  0  0  0
   -0.6780   -0.8977    0.0005 C   0  0  0  0  0  0  0  0  0  0  0  0
   -1.2735   -1.7164   -0.0081 H   0  0  0  0  0  0  0  0  0  0  0  0
   -1.1128    0.3486   -0.0000 N   0  0  0  0  0  0  0  0  0  0  0  0
  1  5  1  0
  5  8  1  0
  1  2  1  0
  1  3  1  0
  1  4  1  0
  5  6  1  0
  5  7  1  0
  8  9  1  0
 10 14  1  0
 14 15  2  0
 15 17  1  0
 17 19  1  0
 19 21  2  0
 21 14  1  0
 10 11  1  0
 10 12  1  0
 10 13  1  0
 15 16  1  0
 17 18  1  0
 19 20  1  0
M  END
>  <PDB_ID>  (82) 
pdb4y7o

>  <RESIDUE_NAME>  (82) 
THR   HIE

>  <FRAG_NAME>  (82) 
ETOH   MIME

>  <FRAG_ATOM_NUM>  (82) 
fragi: 9  fragj: 12

>  <atom.prop.CHAIN_ID>  (82) 
A A A A A A A A A Z Z Z Z Z Z Z Z Z Z Z Z

>  <atom.prop.IS_HEAVY_ATOM>  (82) 
1 0 0 0 1 0 0 1 0 1 0 0 0 1 1 0 1 0 1 0 1

>  <DIFUSE_FUNC_ATOM>  (82) 
n/a

>  <FINAL_SINGLE_POINT_ENERGY>  (82) 
0

>  <NONCOV_INTER_ENERGY_QM>  (82) 
0

>  <FF_Energy>  (82) 
3.21

>  <QM_Energy>  (82) 
12.16

>  <source>  (82) 
ETOH_MIME

>  <Index>  (82) 
15798

$$$$
ETOH-pdb4yhe-B-THR-120:MIME-pdb4yhe-B-HIE-126
     RDKit          3D

 21 20  0  0  0  0  0  0  0  0999 V2000
   -3.3988   -2.5513   -1.6456 C   0  0  0  0  0  0  0  0  0  0  0  0
   -3.1934   -1.7606   -1.0677 H   0  0  0  0  0  0  0  0  0  0  0  0
   -3.6033   -2.2403   -2.5741 H   0  0  0  0  0  0  0  0  0  0  0  0
   -4.1922   -3.0367   -1.2749 H   0  0  0  0  0  0  0  0  0  0  0  0
   -2.1898   -3.4926   -1.6748 C   0  0  0  0  0  0  0  0  0  0  0  0
   -1.5284   -3.1819   -2.3854 H   0  0  0  0  0  0  0  0  0  0  0  0
   -2.4767   -4.5205   -1.8970 H   0  0  0  0  0  0  0  0  0  0  0  0
   -1.5370   -3.4313   -0.3927 O   0  0  0  0  0  0  0  0  0  0  0  0
   -1.4704   -2.4778   -0.0835 H   0  0  0  0  0  0  0  0  0  0  0  0
   -0.1830    2.6586    0.0155 C   0  0  0  0  0  0  0  0  0  0  0  0
   -1.0694    2.8810   -0.3955 H   0  0  0  0  0  0  0  0  0  0  0  0
    0.5478    3.0576   -0.5424 H   0  0  0  0  0  0  0  0  0  0  0  0
   -0.1393    3.0935    1.0139 H   0  0  0  0  0  0  0  0  0  0  0  0
   -0.0194    1.1663    0.0161 C   0  0  0  0  0  0  0  0  0  0  0  0
    1.0896    0.3910    0.0000 C   0  0  0  0  0  0  0  0  0  0  0  0
    2.0337    0.7071   -0.0002 H   0  0  0  0  0  0  0  0  0  0  0  0
    0.6674   -0.9154   -0.0144 N   0  0  0  0  0  0  0  0  0  0  0  0
    1.2689   -1.7191   -0.0329 H   0  0  0  0  0  0  0  0  0  0  0  0
   -0.6480   -0.9435   -0.0018 C   0  0  0  0  0  0  0  0  0  0  0  0
   -1.2156   -1.7631    0.0064 H   0  0  0  0  0  0  0  0  0  0  0  0
   -1.0896    0.3015   -0.0000 N   0  0  0  0  0  0  0  0  0  0  0  0
  1  5  1  0
  5  8  1  0
  1  2  1  0
  1  3  1  0
  1  4  1  0
  5  6  1  0
  5  7  1  0
  8  9  1  0
 10 14  1  0
 14 15  2  0
 15 17  1  0
 17 19  1  0
 19 21  2  0
 21 14  1  0
 10 11  1  0
 10 12  1  0
 10 13  1  0
 15 16  1  0
 17 18  1  0
 19 20  1  0
M  END
>  <PDB_ID>  (83) 
pdb4yhe

>  <RESIDUE_NAME>  (83) 
THR   HIE

>  <FRAG_NAME>  (83) 
ETOH   MIME

>  <FRAG_ATOM_NUM>  (83) 
fragi: 9  fragj: 12

>  <atom.prop.CHAIN_ID>  (83) 
A A A A A A A A A Z Z Z Z Z Z Z Z Z Z Z Z

>  <atom.prop.IS_HEAVY_ATOM>  (83) 
1 0 0 0 1 0 0 1 0 1 0 0 0 1 1 0 1 0 1 0 1

>  <DIFUSE_FUNC_ATOM>  (83) 
n/a

>  <FINAL_SINGLE_POINT_ENERGY>  (83) 
0

>  <NONCOV_INTER_ENERGY_QM>  (83) 
0

>  <FF_Energy>  (83) 
24.66

>  <QM_Energy>  (83) 
52.85

>  <source>  (83) 
ETOH_MIME

>  <Index>  (83) 
16040

$$$$
ETOH-pdb3tgh-A-SER-31:MIME-pdb3tgh-A-HIE-302
     RDKit          3D

 21 20  0  0  0  0  0  0  0  0999 V2000
   -3.9546   -3.5329    0.0046 C   0  0  0  0  0  0  0  0  0  0  0  0
   -4.5509   -3.5501   -0.7968 H   0  0  0  0  0  0  0  0  0  0  0  0
   -4.1330   -2.6008    0.5408 H   0  0  0  0  0  0  0  0  0  0  0  0
   -4.2284   -4.3704    0.6462 H   0  0  0  0  0  0  0  0  0  0  0  0
   -2.4743   -3.6771   -0.3732 C   0  0  0  0  0  0  0  0  0  0  0  0
   -1.9213   -3.5410    0.4471 H   0  0  0  0  0  0  0  0  0  0  0  0
   -2.3254   -4.5986   -0.7293 H   0  0  0  0  0  0  0  0  0  0  0  0
   -2.0863   -2.7344   -1.3538 O   0  0  0  0  0  0  0  0  0  0  0  0
   -1.8011   -1.8866   -0.9083 H   0  0  0  0  0  0  0  0  0  0  0  0
   -0.1732    2.6533    0.0146 C   0  0  0  0  0  0  0  0  0  0  0  0
   -0.9801    2.8947   -0.5429 H   0  0  0  0  0  0  0  0  0  0  0  0
    0.6402    3.0610   -0.4242 H   0  0  0  0  0  0  0  0  0  0  0  0
   -0.2897    3.0835    1.0094 H   0  0  0  0  0  0  0  0  0  0  0  0
   -0.0183    1.1668   -0.0041 C   0  0  0  0  0  0  0  0  0  0  0  0
    1.0911    0.3886   -0.0000 C   0  0  0  0  0  0  0  0  0  0  0  0
    2.0353    0.7051    0.0018 H   0  0  0  0  0  0  0  0  0  0  0  0
    0.6695   -0.9176    0.0016 N   0  0  0  0  0  0  0  0  0  0  0  0
    1.2667   -1.7226    0.0006 H   0  0  0  0  0  0  0  0  0  0  0  0
   -0.6512   -0.9429    0.0024 C   0  0  0  0  0  0  0  0  0  0  0  0
   -1.2190   -1.7603    0.0053 H   0  0  0  0  0  0  0  0  0  0  0  0
   -1.0911    0.3051   -0.0000 N   0  0  0  0  0  0  0  0  0  0  0  0
  1  5  1  0
  5  8  1  0
  1  2  1  0
  1  3  1  0
  1  4  1  0
  5  6  1  0
  5  7  1  0
  8  9  1  0
 10 14  1  0
 14 15  2  0
 15 17  1  0
 17 19  1  0
 19 21  2  0
 21 14  1  0
 10 11  1  0
 10 12  1  0
 10 13  1  0
 15 16  1  0
 17 18  1  0
 19 20  1  0
M  END
>  <PDB_ID>  (84) 
pdb3tgh

>  <RESIDUE_NAME>  (84) 
SER   HIE

>  <FRAG_NAME>  (84) 
ETOH   MIME

>  <FRAG_ATOM_NUM>  (84) 
fragi: 9  fragj: 12

>  <atom.prop.CHAIN_ID>  (84) 
A A A A A A A A A Z Z Z Z Z Z Z Z Z Z Z Z

>  <atom.prop.IS_HEAVY_ATOM>  (84) 
1 0 0 0 1 0 0 1 0 1 0 0 0 1 1 0 1 0 1 0 1

>  <DIFUSE_FUNC_ATOM>  (84) 
n/a

>  <FINAL_SINGLE_POINT_ENERGY>  (84) 
0

>  <NONCOV_INTER_ENERGY_QM>  (84) 
0

>  <FF_Energy>  (84) 
8.29

>  <QM_Energy>  (84) 
21.11

>  <source>  (84) 
ETOH_MIME

>  <Index>  (84) 
16051

$$$$
ETOH-pdb3u37-H-SER-142:MIME-pdb3u37-H-HIE-351
     RDKit          3D

 21 20  0  0  0  0  0  0  0  0999 V2000
   -5.0873   -2.7156   -0.8994 C   0  0  0  0  0  0  0  0  0  0  0  0
   -5.8332   -2.9226   -0.2408 H   0  0  0  0  0  0  0  0  0  0  0  0
   -5.0799   -3.5079   -1.6480 H   0  0  0  0  0  0  0  0  0  0  0  0
   -5.2709   -1.7228   -1.3103 H   0  0  0  0  0  0  0  0  0  0  0  0
   -3.8014   -2.7038   -0.0815 C   0  0  0  0  0  0  0  0  0  0  0  0
   -3.9511   -2.1741    0.7467 H   0  0  0  0  0  0  0  0  0  0  0  0
   -3.5565   -3.6408    0.1477 H   0  0  0  0  0  0  0  0  0  0  0  0
   -2.7470   -2.1193   -0.8188 O   0  0  0  0  0  0  0  0  0  0  0  0
   -2.3982   -1.3205   -0.3287 H   0  0  0  0  0  0  0  0  0  0  0  0
   -0.2131    2.6647    0.0097 C   0  0  0  0  0  0  0  0  0  0  0  0
   -0.1816    2.9760    0.9667 H   0  0  0  0  0  0  0  0  0  0  0  0
   -1.1227    2.8789   -0.3640 H   0  0  0  0  0  0  0  0  0  0  0  0
    0.5447    3.1961   -0.5660 H   0  0  0  0  0  0  0  0  0  0  0  0
   -0.0492    1.1667    0.0030 C   0  0  0  0  0  0  0  0  0  0  0  0
    1.0959    0.3766    0.0000 C   0  0  0  0  0  0  0  0  0  0  0  0
    2.0269    0.7279    0.0019 H   0  0  0  0  0  0  0  0  0  0  0  0
    0.6958   -0.9143   -0.0034 N   0  0  0  0  0  0  0  0  0  0  0  0
    1.2822   -1.7253   -0.0099 H   0  0  0  0  0  0  0  0  0  0  0  0
   -0.6466   -0.9500    0.0005 C   0  0  0  0  0  0  0  0  0  0  0  0
   -1.2049   -1.7598    0.0045 H   0  0  0  0  0  0  0  0  0  0  0  0
   -1.0959    0.3211   -0.0000 N   0  0  0  0  0  0  0  0  0  0  0  0
  1  5  1  0
  5  8  1  0
  1  2  1  0
  1  3  1  0
  1  4  1  0
  5  6  1  0
  5  7  1  0
  8  9  1  0
 10 14  1  0
 14 15  2  0
 15 17  1  0
 17 19  1  0
 19 21  2  0
 21 14  1  0
 10 11  1  0
 10 12  1  0
 10 13  1  0
 15 16  1  0
 17 18  1  0
 19 20  1  0
M  END
>  <PDB_ID>  (85) 
pdb3u37

>  <RESIDUE_NAME>  (85) 
SER   HIE

>  <FRAG_NAME>  (85) 
ETOH   MIME

>  <FRAG_ATOM_NUM>  (85) 
fragi: 9  fragj: 12

>  <atom.prop.CHAIN_ID>  (85) 
A A A A A A A A A Z Z Z Z Z Z Z Z Z Z Z Z

>  <atom.prop.IS_HEAVY_ATOM>  (85) 
1 0 0 0 1 0 0 1 0 1 0 0 0 1 1 0 1 0 1 0 1

>  <DIFUSE_FUNC_ATOM>  (85) 
n/a

>  <FINAL_SINGLE_POINT_ENERGY>  (85) 
0

>  <NONCOV_INTER_ENERGY_QM>  (85) 
0

>  <FF_Energy>  (85) 
7.2

>  <QM_Energy>  (85) 
13.35

>  <source>  (85) 
ETOH_MIME

>  <Index>  (85) 
16650

$$$$
ETOH-pdb4zm3-A-THR-90:MIME-pdb4zm3-A-HIE-312
     RDKit          3D

 21 20  0  0  0  0  0  0  0  0999 V2000
   -3.2278   -3.0010   -0.3129 C   0  0  0  0  0  0  0  0  0  0  0  0
   -3.4060   -2.1717    0.2238 H   0  0  0  0  0  0  0  0  0  0  0  0
   -2.8363   -2.7380   -1.1985 H   0  0  0  0  0  0  0  0  0  0  0  0
   -4.0952   -3.4803   -0.4698 H   0  0  0  0  0  0  0  0  0  0  0  0
   -2.2646   -3.9041    0.4323 C   0  0  0  0  0  0  0  0  0  0  0  0
   -2.4742   -4.8789    0.2061 H   0  0  0  0  0  0  0  0  0  0  0  0
   -2.3994   -3.7463    1.5024 H   0  0  0  0  0  0  0  0  0  0  0  0
   -0.8939   -3.6549    0.0677 O   0  0  0  0  0  0  0  0  0  0  0  0
   -0.7338   -2.6672   -0.0203 H   0  0  0  0  0  0  0  0  0  0  0  0
   -0.1884    2.6564   -0.0087 C   0  0  0  0  0  0  0  0  0  0  0  0
   -1.1487    2.8706    0.1919 H   0  0  0  0  0  0  0  0  0  0  0  0
    0.0305    2.9874   -0.9311 H   0  0  0  0  0  0  0  0  0  0  0  0
    0.4460    3.1742    0.7107 H   0  0  0  0  0  0  0  0  0  0  0  0
   -0.0204    1.1676    0.0116 C   0  0  0  0  0  0  0  0  0  0  0  0
    1.0923    0.3922    0.0000 C   0  0  0  0  0  0  0  0  0  0  0  0
    2.0348    0.7091   -0.0064 H   0  0  0  0  0  0  0  0  0  0  0  0
    0.6709   -0.9176    0.0007 N   0  0  0  0  0  0  0  0  0  0  0  0
    1.2686   -1.7197    0.0087 H   0  0  0  0  0  0  0  0  0  0  0  0
   -0.6505   -0.9435   -0.0123 C   0  0  0  0  0  0  0  0  0  0  0  0
   -1.2159   -1.7635   -0.0269 H   0  0  0  0  0  0  0  0  0  0  0  0
   -1.0923    0.3013    0.0000 N   0  0  0  0  0  0  0  0  0  0  0  0
  1  5  1  0
  5  8  1  0
  1  2  1  0
  1  3  1  0
  1  4  1  0
  5  6  1  0
  5  7  1  0
  8  9  1  0
 10 14  1  0
 14 15  2  0
 15 17  1  0
 17 19  1  0
 19 21  2  0
 21 14  1  0
 10 11  1  0
 10 12  1  0
 10 13  1  0
 15 16  1  0
 17 18  1  0
 19 20  1  0
M  END
>  <PDB_ID>  (86) 
pdb4zm3

>  <RESIDUE_NAME>  (86) 
THR   HIE

>  <FRAG_NAME>  (86) 
ETOH   MIME

>  <FRAG_ATOM_NUM>  (86) 
fragi: 9  fragj: 12

>  <atom.prop.CHAIN_ID>  (86) 
A A A A A A A A A Z Z Z Z Z Z Z Z Z Z Z Z

>  <atom.prop.IS_HEAVY_ATOM>  (86) 
1 0 0 0 1 0 0 1 0 1 0 0 0 1 1 0 1 0 1 0 1

>  <DIFUSE_FUNC_ATOM>  (86) 
n/a

>  <FINAL_SINGLE_POINT_ENERGY>  (86) 
0

>  <NONCOV_INTER_ENERGY_QM>  (86) 
0

>  <FF_Energy>  (86) 
8.92

>  <QM_Energy>  (86) 
25.09

>  <source>  (86) 
ETOH_MIME

>  <Index>  (86) 
16790

$$$$
ETOH-pdb4zm3-B-THR-90:MIME-pdb4zm3-B-HIE-312
     RDKit          3D

 21 20  0  0  0  0  0  0  0  0999 V2000
   -3.2981   -2.9591   -0.4749 C   0  0  0  0  0  0  0  0  0  0  0  0
   -4.0788   -3.4857   -0.8127 H   0  0  0  0  0  0  0  0  0  0  0  0
   -3.6165   -2.2757    0.1823 H   0  0  0  0  0  0  0  0  0  0  0  0
   -2.8506   -2.4991   -1.2424 H   0  0  0  0  0  0  0  0  0  0  0  0
   -2.3013   -3.9019    0.2093 C   0  0  0  0  0  0  0  0  0  0  0  0
   -2.5351   -4.8647   -0.0363 H   0  0  0  0  0  0  0  0  0  0  0  0
   -2.3823   -3.7813    1.2896 H   0  0  0  0  0  0  0  0  0  0  0  0
   -0.9453   -3.6556   -0.2080 O   0  0  0  0  0  0  0  0  0  0  0  0
   -0.7499   -2.6709   -0.1874 H   0  0  0  0  0  0  0  0  0  0  0  0
   -0.1728    2.6469   -0.0052 C   0  0  0  0  0  0  0  0  0  0  0  0
   -1.1263    2.8579    0.2388 H   0  0  0  0  0  0  0  0  0  0  0  0
    0.0006    2.9865   -0.9367 H   0  0  0  0  0  0  0  0  0  0  0  0
    0.5016    3.1400    0.6949 H   0  0  0  0  0  0  0  0  0  0  0  0
   -0.0133    1.1667   -0.0147 C   0  0  0  0  0  0  0  0  0  0  0  0
    1.0970    0.3873    0.0000 C   0  0  0  0  0  0  0  0  0  0  0  0
    2.0403    0.7010    0.0075 H   0  0  0  0  0  0  0  0  0  0  0  0
    0.6702   -0.9178    0.0036 N   0  0  0  0  0  0  0  0  0  0  0  0
    1.2636   -1.7255   -0.0010 H   0  0  0  0  0  0  0  0  0  0  0  0
   -0.6568   -0.9427    0.0110 C   0  0  0  0  0  0  0  0  0  0  0  0
   -1.2213   -1.7600    0.0257 H   0  0  0  0  0  0  0  0  0  0  0  0
   -1.0970    0.3064    0.0000 N   0  0  0  0  0  0  0  0  0  0  0  0
  1  5  1  0
  5  8  1  0
  1  2  1  0
  1  3  1  0
  1  4  1  0
  5  6  1  0
  5  7  1  0
  8  9  1  0
 10 14  1  0
 14 15  2  0
 15 17  1  0
 17 19  1  0
 19 21  2  0
 21 14  1  0
 10 11  1  0
 10 12  1  0
 10 13  1  0
 15 16  1  0
 17 18  1  0
 19 20  1  0
M  END
>  <PDB_ID>  (87) 
pdb4zm3

>  <RESIDUE_NAME>  (87) 
THR   HIE

>  <FRAG_NAME>  (87) 
ETOH   MIME

>  <FRAG_ATOM_NUM>  (87) 
fragi: 9  fragj: 12

>  <atom.prop.CHAIN_ID>  (87) 
A A A A A A A A A Z Z Z Z Z Z Z Z Z Z Z Z

>  <atom.prop.IS_HEAVY_ATOM>  (87) 
1 0 0 0 1 0 0 1 0 1 0 0 0 1 1 0 1 0 1 0 1

>  <DIFUSE_FUNC_ATOM>  (87) 
n/a

>  <FINAL_SINGLE_POINT_ENERGY>  (87) 
0

>  <NONCOV_INTER_ENERGY_QM>  (87) 
0

>  <FF_Energy>  (87) 
8.23

>  <QM_Energy>  (87) 
23.26

>  <source>  (87) 
ETOH_MIME

>  <Index>  (87) 
16792

$$$$
ETOH-pdb4zm3-C-THR-90:MIME-pdb4zm3-C-HIE-312
     RDKit          3D

 21 20  0  0  0  0  0  0  0  0999 V2000
   -3.1459   -3.0114   -0.5324 C   0  0  0  0  0  0  0  0  0  0  0  0
   -2.9866   -3.0253   -1.5265 H   0  0  0  0  0  0  0  0  0  0  0  0
   -4.1022   -3.2762   -0.3593 H   0  0  0  0  0  0  0  0  0  0  0  0
   -3.0118   -2.0691   -0.2032 H   0  0  0  0  0  0  0  0  0  0  0  0
   -2.2091   -3.9478    0.1618 C   0  0  0  0  0  0  0  0  0  0  0  0
   -2.4105   -4.9074   -0.1268 H   0  0  0  0  0  0  0  0  0  0  0  0
   -2.3605   -3.8553    1.2373 H   0  0  0  0  0  0  0  0  0  0  0  0
   -0.8282   -3.6717   -0.1692 O   0  0  0  0  0  0  0  0  0  0  0  0
   -0.6646   -2.6822   -0.1593 H   0  0  0  0  0  0  0  0  0  0  0  0
   -0.1952    2.6454    0.0160 C   0  0  0  0  0  0  0  0  0  0  0  0
   -1.1581    2.8466    0.2326 H   0  0  0  0  0  0  0  0  0  0  0  0
   -0.0038    2.9812   -0.9143 H   0  0  0  0  0  0  0  0  0  0  0  0
    0.4563    3.1490    0.7301 H   0  0  0  0  0  0  0  0  0  0  0  0
   -0.0207    1.1680    0.0178 C   0  0  0  0  0  0  0  0  0  0  0  0
    1.0912    0.3928   -0.0000 C   0  0  0  0  0  0  0  0  0  0  0  0
    2.0342    0.7096   -0.0057 H   0  0  0  0  0  0  0  0  0  0  0  0
    0.6696   -0.9173   -0.0081 N   0  0  0  0  0  0  0  0  0  0  0  0
    1.2701   -1.7195   -0.0125 H   0  0  0  0  0  0  0  0  0  0  0  0
   -0.6490   -0.9455   -0.0097 C   0  0  0  0  0  0  0  0  0  0  0  0
   -1.2155   -1.7629   -0.0160 H   0  0  0  0  0  0  0  0  0  0  0  0
   -1.0912    0.3020    0.0000 N   0  0  0  0  0  0  0  0  0  0  0  0
  1  5  1  0
  5  8  1  0
  1  2  1  0
  1  3  1  0
  1  4  1  0
  5  6  1  0
  5  7  1  0
  8  9  1  0
 10 14  1  0
 14 15  2  0
 15 17  1  0
 17 19  1  0
 19 21  2  0
 21 14  1  0
 10 11  1  0
 10 12  1  0
 10 13  1  0
 15 16  1  0
 17 18  1  0
 19 20  1  0
M  END
