@<TRIPOS>MOLECULE
MOL
    9     8     1     0     0
SMALL
bcc


@<TRIPOS>ATOM
      1 C1           4.1500    -2.5950    -1.5780 c3         1 MOL      -0.174100
      2 H1           3.7960    -2.3410    -0.6690 hc         1 MOL       0.065367
      3 H2           4.7450    -1.8500    -1.9050 hc         1 MOL       0.065367
      4 H3           4.7810    -3.4740    -1.4430 hc         1 MOL       0.065367
      5 C2           3.0030    -2.7650    -2.5270 c          1 MOL       0.656100
      6 N1           1.8450    -2.1630    -2.2660 n          1 MOL      -0.683000
      7 H4           1.7930    -1.6020    -1.4250 hn         1 MOL       0.310000
      8 H5           1.0730    -2.2580    -2.8650 hn         1 MOL       0.310000
      9 O1           3.1680    -3.4740    -3.5880 o          1 MOL      -0.613100
@<TRIPOS>BOND
     1     1     5 1   
     2     5     6 1   
     3     5     9 2   
     4     1     2 1   
     5     1     3 1   
     6     1     4 1   
     7     6     7 1   
     8     6     8 1   
@<TRIPOS>SUBSTRUCTURE
     1 MOL         1 TEMP              0 ****  ****    0 ROOT
