@<TRIPOS>MOLECULE
MOL
    7     6     1     0     0
SMALL
bcc


@<TRIPOS>ATOM
      1 C1           3.4270     0.6320     2.5690 c3         1 MOL      -0.200100
      2 H1           3.1740     0.6850     1.6100 hc         1 MOL       0.006700
      3 H2           2.8280     1.1990     3.1200 hc         1 MOL       0.006700
      4 H3           3.3040    -0.4010     2.8920 hc         1 MOL       0.006700
      5 C2           4.8520     1.1290     2.7260 c          1 MOL       0.901600
      6 O1           5.7290     0.7380     1.9160 o          1 MOL      -0.861300
      7 O2           5.0920     1.9130     3.6660 o          1 MOL      -0.861300
@<TRIPOS>BOND
     1     1     5 1   
     2     5     6 1   
     3     5     7 1   
     4     1     2 1   
     5     1     3 1   
     6     1     4 1   
@<TRIPOS>SUBSTRUCTURE
     1 MOL         1 TEMP              0 ****  ****    0 ROOT
