@<TRIPOS>MOLECULE
MOL
   11    10     1     0     0
SMALL
bcc


@<TRIPOS>ATOM
      1 C1          -0.7300    -0.9110     3.0520 c3         1 MOL      -0.142100
      2 H1          -0.9820     0.0610     3.0130 hc         1 MOL       0.086700
      3 H2           0.2600    -0.9920     2.8930 hc         1 MOL       0.086700
      4 H3          -1.2130    -1.3980     2.3190 hc         1 MOL       0.086700
      5 C2          -1.0890    -1.4860     4.3810 c3         1 MOL       0.106800
      6 H4          -0.3410    -2.0250     4.7340 hx         1 MOL       0.114700
      7 H5          -1.3470    -0.7260     5.1180 hx         1 MOL       0.114700
      8 N1          -2.2710    -2.3380     4.2340 n4         1 MOL      -0.842600
      9 H6          -2.8390    -2.2750     5.0560 hn         1 MOL       0.462133
     10 H7          -2.8070    -2.0420     3.4420 hn         1 MOL       0.462133
     11 H8          -1.9900    -3.2900     4.1020 hn         1 MOL       0.462133
@<TRIPOS>BOND
     1     1     5 1   
     2     5     8 1   
     3     1     2 1   
     4     1     3 1   
     5     1     4 1   
     6     5     6 1   
     7     5     7 1   
     8     8     9 1   
     9     8    10 1   
    10     8    11 1   
@<TRIPOS>SUBSTRUCTURE
     1 MOL         1 TEMP              0 ****  ****    0 ROOT
