@<TRIPOS>MOLECULE
MOL
    9     8     1     0     0
SMALL
bcc


@<TRIPOS>ATOM
      1 C1          -2.5510     3.7040     1.5340 c3         1 MOL      -0.136100
      2 H1          -2.3440     3.0520     0.7770 hc         1 MOL       0.042367
      3 H2          -2.6080     4.7140     1.1280 hc         1 MOL       0.042367
      4 H3          -3.4710     3.3660     2.0100 hc         1 MOL       0.042367
      5 C2          -1.4670     3.8530     2.7220 c3         1 MOL       0.126400
      6 H4          -1.5950     4.7340     3.1250 h1         1 MOL       0.043200
      7 H5          -1.4940     3.1840     3.5830 h1         1 MOL       0.043200
      8 O1          -0.2270     3.8560     1.9510 oh         1 MOL      -0.599800
      9 H6          -0.2200     3.0780     1.3220 ho         1 MOL       0.396000
@<TRIPOS>BOND
     1     1     5 1   
     2     5     8 1   
     3     1     2 1   
     4     1     3 1   
     5     1     4 1   
     6     5     6 1   
     7     5     7 1   
     8     8     9 1   
@<TRIPOS>SUBSTRUCTURE
     1 MOL         1 TEMP              0 ****  ****    0 ROOT
