@<TRIPOS>MOLECULE
MOL
    3     2     1     0     0
SMALL
bcc


@<TRIPOS>ATOM
      1 O1           0.6340     0.6950     2.7060 oh         1 MOL      -0.785000
      2 H1           0.3570    -0.1850     3.0920 ho         1 MOL       0.392000
      3 H2          -0.1090     1.1370     2.2060 ho         1 MOL       0.392000
@<TRIPOS>BOND
     1     1     2 1   
     2     1     3 1   
@<TRIPOS>SUBSTRUCTURE
     1 MOL         1 TEMP              0 ****  ****    0 ROOT
