@<TRIPOS>MOLECULE
MOL
   15    15     1     0     0
SMALL
bcc


@<TRIPOS>ATOM
      1 C1           1.3570    -1.6120     3.4510 c3         1 MOL      -0.053800
      2 H1           1.3380    -0.8760     2.8110 hc         1 MOL       0.044033
      3 H2           1.7480    -2.4310     3.0930 hc         1 MOL       0.044033
      4 H3           1.9560    -1.2990     4.3070 hc         1 MOL       0.044033
      5 C2          -0.0650    -1.9130     3.8650 ca         1 MOL      -0.077300
      6 C3          -0.3630    -3.0880     4.5640 ca         1 MOL      -0.131000
      7 H4           0.3790    -3.7440     4.7370 ha         1 MOL       0.130000
      8 C4          -1.6230    -3.3570     5.0110 ca         1 MOL      -0.127000
      9 H5          -1.8050    -4.2190     5.5120 ha         1 MOL       0.130000
     10 C5          -2.6320    -2.4650     4.7800 ca         1 MOL      -0.135000
     11 H6          -3.5590    -2.6500     5.1100 ha         1 MOL       0.130000
     12 C6          -2.3690    -1.2950     4.0830 ca         1 MOL      -0.127000
     13 H7          -3.1140    -0.6320     3.8970 ha         1 MOL       0.130000
     14 C7          -1.0830    -1.0240     3.6320 ca         1 MOL      -0.131000
     15 H8          -0.9070    -0.1730     3.1360 ha         1 MOL       0.130000
@<TRIPOS>BOND
     1     1     5 1   
     2     5     6 ar  
     3     6     8 ar  
     4     8    10 ar  
     5    10    12 ar  
     6    12    14 ar  
     7    14     5 ar  
     8     1     2 1   
     9     1     3 1   
    10     1     4 1   
    11     6     7 1   
    12     8     9 1   
    13    10    11 1   
    14    12    13 1   
    15    14    15 1   
@<TRIPOS>SUBSTRUCTURE
     1 MOL         1 TEMP              0 ****  ****    0 ROOT
