@<TRIPOS>MOLECULE
MOL
   13    12     1     0     0
SMALL
bcc


@<TRIPOS>ATOM
      1 C1           2.5340    -5.5160     2.7500 c3         1 MOL      -0.004400
      2 H1           3.1730    -4.8790     3.1590 h1         1 MOL       0.081367
      3 H2           3.0340    -6.3300     2.4910 h1         1 MOL       0.081367
      4 H3           1.7630    -5.7750     3.4770 h1         1 MOL       0.081367
      5 N1           1.9400    -4.9180     1.5740 nh         1 MOL      -0.399100
      6 H4           1.9910    -4.0410     1.5080 hn         1 MOL       0.328700
      7 C2           1.3410    -5.5410     0.6070 cz         1 MOL       0.521300
      8 N2           1.2520    -6.8650     0.6410 nh         1 MOL      -0.503200
      9 H5           1.5970    -7.3120     1.3140 hn         1 MOL       0.328950
     10 H6           0.8470    -7.2960    -0.0120 hn         1 MOL       0.328950
     11 N3           0.8080    -4.9640    -0.4250 nh         1 MOL      -0.503200
     12 H7           0.8390    -4.0880    -0.5050 hn         1 MOL       0.328950
     13 H8           0.4160    -5.4490    -1.0470 hn         1 MOL       0.328950
@<TRIPOS>BOND
     1     1     5 1   
     2     5     7 2   
     3     7     8 1   
     4     7    11 1   
     5     1     2 1   
     6     1     3 1   
     7     1     4 1   
     8     5     6 1   
     9     8     9 1   
    10     8    10 1   
    11    11    12 1   
    12    11    13 1   
@<TRIPOS>SUBSTRUCTURE
     1 MOL         1 TEMP              0 ****  ****    0 ROOT
