@<TRIPOS>MOLECULE
MOL
   12    12     1     0     0
SMALL
bcc


@<TRIPOS>ATOM
      1 C1           3.1250    -2.0140    -5.4380 c3         1 MOL      -0.024800
      2 H1           2.9060    -2.6090    -6.2000 hc         1 MOL       0.049367
      3 H2           4.1040    -1.9630    -5.2990 hc         1 MOL       0.049367
      4 H3           2.7560    -1.0140    -5.6640 hc         1 MOL       0.049367
      5 C2           2.4820    -2.5520    -4.1970 cc         1 MOL      -0.214900
      6 C3           2.7770    -2.4390    -2.8810 cd         1 MOL       0.294200
      7 H4           3.5670    -1.9570    -2.4910 h4         1 MOL       0.041100
      8 N1           1.8020    -3.1010    -2.1380 nd         1 MOL      -0.666000
      9 C4           0.9490    -3.6160    -2.9900 cc         1 MOL       0.384400
     10 H5           0.1390    -4.1640    -2.7520 h5         1 MOL       0.059100
     11 N2           1.3050    -3.3100    -4.2500 na         1 MOL      -0.319900
     12 H6           0.8250    -3.5700    -5.0670 hn         1 MOL       0.298700
@<TRIPOS>BOND
     1     1     5 1   
     2     5     6 2   
     3     6     8 1   
     4     8     9 2   
     5     9    11 1   
     6    11     5 1   
     7     1     2 1   
     8     1     3 1   
     9     1     4 1   
    10     6     7 1   
    11     9    10 1   
    12    11    12 1   
@<TRIPOS>SUBSTRUCTURE
     1 MOL         1 TEMP              0 ****  ****    0 ROOT
