@<TRIPOS>MOLECULE
MOL
   12    12     1     0     0
SMALL
bcc


@<TRIPOS>ATOM
      1 C1          -4.1880    -0.8640    -1.5090 c3         1 MOL      -0.113400
      2 H1          -4.8780    -1.4940    -1.8330 hc         1 MOL       0.046033
      3 H2          -3.3750    -1.3440    -1.2130 hc         1 MOL       0.046033
      4 H3          -3.9250    -0.1770    -2.3130 hc         1 MOL       0.046033
      5 C2          -4.7540    -0.1070    -0.3220 cc         1 MOL       0.304600
      6 C3          -6.0350     0.1010     0.0490 cd         1 MOL      -0.261600
      7 H4          -6.8480    -0.2620    -0.3930 h4         1 MOL       0.176000
      8 N1          -5.9900     0.9050     1.1470 na         1 MOL      -0.322900
      9 H5          -6.7820     1.2230     1.6790 hn         1 MOL       0.298700
     10 C4          -4.7210     1.2200     1.4230 cd         1 MOL       0.386400
     11 H6          -4.4150     1.7870     2.1720 h5         1 MOL       0.059100
     12 N2          -3.9500     0.6320     0.5140 nc         1 MOL      -0.664000
@<TRIPOS>BOND
     1     1     5 1   
     2     5     6 2   
     3     6     8 1   
     4     8    10 1   
     5    10    12 2   
     6    12     5 1   
     7     1     2 1   
     8     1     3 1   
     9     1     4 1   
    10     6     7 1   
    11     8     9 1   
    12    10    11 1   
@<TRIPOS>SUBSTRUCTURE
     1 MOL         1 TEMP              0 ****  ****    0 ROOT
