@<TRIPOS>MOLECULE
MOL
   13    13     1     0     0
SMALL
bcc


@<TRIPOS>ATOM
      1 C1           5.5520    -1.0790    -4.5750 c3         1 MOL      -0.062800
      2 H1           5.7290    -1.7880    -5.2680 hc         1 MOL       0.093033
      3 H2           6.3950    -0.9460    -4.0390 hc         1 MOL       0.093033
      4 H3           5.3070    -0.1450    -5.0820 hc         1 MOL       0.093033
      5 C2           4.4840    -1.5730    -3.6540 cc         1 MOL      -0.042600
      6 C3           4.3500    -1.4300    -2.3160 cd         1 MOL      -0.124300
      7 H4           4.9880    -0.9640    -1.7040 h4         1 MOL       0.239000
      8 N1           3.1760    -2.0400    -1.9480 na         1 MOL      -0.127100
      9 H5           2.8150    -2.0980    -1.0180 hn         1 MOL       0.364700
     10 C4           2.6050    -2.5390    -3.0290 cc         1 MOL      -0.011600
     11 H6           1.7370    -3.0290    -3.0560 h5         1 MOL       0.265000
     12 N2           3.3770    -2.2800    -4.0770 na         1 MOL      -0.139100
     13 H7           3.1890    -2.5530    -5.0160 hn         1 MOL       0.361700
@<TRIPOS>BOND
     1     1     5 1   
     2     5     6 2   
     3     6     8 1   
     4     8    10 2   
     5    10    12 1   
     6    12     5 1   
     7     1     2 1   
     8     1     3 1   
     9     1     4 1   
    10     6     7 1   
    11     8     9 1   
    12    10    11 1   
    13    12    13 1   
@<TRIPOS>SUBSTRUCTURE
     1 MOL         1 TEMP              0 ****  ****    0 ROOT
