@<TRIPOS>MOLECULE
MOL
   19    20     1     0     0
SMALL
bcc


@<TRIPOS>ATOM
      1 C1           2.0740     3.0580     3.5390 c3         1 MOL      -0.022900
      2 H1           1.2200     3.4860     3.7080 hc         1 MOL       0.039367
      3 H2           2.0120     2.5950     2.6890 hc         1 MOL       0.039367
      4 H3           2.8490     3.8220     3.4750 hc         1 MOL       0.039367
      5 C2           2.3480     2.0690     4.6170 cc         1 MOL      -0.134400
      6 C3           2.9440     2.2400     5.8180 cd         1 MOL      -0.109100
      7 H4           3.2730     3.0530     6.1250 h4         1 MOL       0.164000
      8 N1           3.0060     1.0680     6.5280 na         1 MOL      -0.195400
      9 H5           3.3510     0.9650     7.3090 hn         1 MOL       0.297700
     10 C4           2.4160     0.0860     5.7640 ca         1 MOL      -0.044200
     11 C5           2.2310    -1.2760     6.0300 ca         1 MOL      -0.148000
     12 H6           2.5140    -1.6530     6.8330 ha         1 MOL       0.130000
     13 C6           1.6150    -2.0350     5.0700 ca         1 MOL      -0.113000
     14 H7           1.4810    -2.9430     5.2200 ha         1 MOL       0.128000
     15 C7           1.1870    -1.4700     3.8760 ca         1 MOL      -0.160000
     16 H8           0.7730    -2.0110     3.2420 ha         1 MOL       0.128000
     17 C8           1.3580    -0.1270     3.6010 ca         1 MOL      -0.081000
     18 H9           1.0660     0.2410     2.7990 ha         1 MOL       0.133000
     19 C9           1.9860     0.6610     4.5720 ca         1 MOL      -0.091800
@<TRIPOS>BOND
     1     1     5 1   
     2     5     6 2   
     3     6     8 1   
     4     8    10 1   
     5    10    11 ar  
     6    11    13 ar  
     7    13    15 ar  
     8    15    17 ar  
     9    17    19 ar  
    10    19     5 1   
    11    19    10 ar  
    12     1     2 1   
    13     1     3 1   
    14     1     4 1   
    15     6     7 1   
    16     8     9 1   
    17    11    12 1   
    18    13    14 1   
    19    15    16 1   
    20    17    18 1   
@<TRIPOS>SUBSTRUCTURE
     1 MOL         1 TEMP              0 ****  ****    0 ROOT
