@<TRIPOS>MOLECULE
MOL
   16    16     1     0     0
SMALL
bcc


@<TRIPOS>ATOM
      1 C1          -0.4750     0.7440    -4.9190 c3         1 MOL      -0.048800
      2 H1          -0.5300     0.3450    -4.0370 hc         1 MOL       0.042700
      3 H2           0.3080     0.3850    -5.3650 hc         1 MOL       0.042700
      4 H3          -1.3670     0.4870    -5.4900 hc         1 MOL       0.042700
      5 C2          -0.3390     2.2320    -4.7890 ca         1 MOL      -0.112300
      6 C3           0.0040     3.0670    -5.8010 ca         1 MOL      -0.095000
      7 H4           0.1950     2.7220    -6.6440 ha         1 MOL       0.133000
      8 C4           0.0730     4.4570    -5.5780 ca         1 MOL      -0.181500
      9 H5           0.3300     5.0270    -6.2670 ha         1 MOL       0.140500
     10 C5          -0.2440     4.9680    -4.3420 ca         1 MOL       0.118100
     11 O1          -0.2910     6.3370    -4.1430 oh         1 MOL      -0.499100
     12 H6          -0.6960     6.7670    -4.9470 ho         1 MOL       0.418000
     13 C6          -0.6680     4.1580    -3.3240 ca         1 MOL      -0.181500
     14 H7          -0.9270     4.5080    -2.5020 ha         1 MOL       0.140500
     15 C7          -0.6950     2.8120    -3.5670 ca         1 MOL      -0.095000
     16 H8          -0.9670     2.2490    -2.8780 ha         1 MOL       0.133000
@<TRIPOS>BOND
     1     1     5 1   
     2     5     6 ar  
     3     6     8 ar  
     4     8    10 ar  
     5    10    11 1   
     6    10    13 ar  
     7    13    15 ar  
     8    15     5 ar  
     9     1     2 1   
    10     1     3 1   
    11     1     4 1   
    12     6     7 1   
    13     8     9 1   
    14    11    12 1   
    15    13    14 1   
    16    15    16 1   
@<TRIPOS>SUBSTRUCTURE
     1 MOL         1 TEMP              0 ****  ****    0 ROOT
