@<TRIPOS>MOLECULE
MOL
    9     8     1     0     0
SMALL
bcc


@<TRIPOS>ATOM
      1 C1           4.6990    -3.5710     1.9790 c3         1 MOL      -0.045000
      2 H1           5.1800    -2.7710     1.4730 h1         1 MOL       0.061700
      3 H2           5.4810    -4.2890     1.9900 h1         1 MOL       0.061700
      4 H3           4.5580    -3.2470     3.0100 h1         1 MOL       0.061700
      5 S1           3.3090    -4.1570     1.0730 ss         1 MOL      -0.281200
      6 C2           2.4610    -2.6350     0.7780 c3         1 MOL      -0.045000
      7 H4           2.8910    -2.1380     0.0170 h1         1 MOL       0.061700
      8 H5           1.4990    -2.8120     0.5450 h1         1 MOL       0.061700
      9 H6           2.4910    -2.0560     1.5990 h1         1 MOL       0.061700
@<TRIPOS>BOND
     1     1     5 1   
     2     5     6 1   
     3     1     2 1   
     4     1     3 1   
     5     1     4 1   
     6     6     7 1   
     7     6     8 1   
     8     6     9 1   
@<TRIPOS>SUBSTRUCTURE
     1 MOL         1 TEMP              0 ****  ****    0 ROOT
