@<TRIPOS>MOLECULE
MOL
   19    19     1     0     0
SMALL
bcc


@<TRIPOS>ATOM
      1 C1          -1.1300     6.5640    -0.6070 c3         1 MOL      -0.169100
      2 H1          -1.2900     6.6760     0.3770 hc         1 MOL       0.064367
      3 H2          -0.0650     6.4400    -0.8010 hc         1 MOL       0.064367
      4 H3          -1.5370     7.4010    -1.1740 hc         1 MOL       0.064367
      5 C2          -1.8610     5.3040    -1.0620 c          1 MOL       0.657100
      6 O1          -1.4170     4.5770    -1.9550 o          1 MOL      -0.607100
      7 N1          -3.0030     5.0080    -0.4590 n          1 MOL      -0.473800
      8 C3          -3.8690     3.9130    -0.9800 c3         1 MOL       0.089500
      9 H4          -3.3890     3.0240    -0.8900 h1         1 MOL       0.048700
     10 H5          -4.1960     4.0800    -2.0060 h1         1 MOL       0.048700
     11 C4          -5.0240     3.9020     0.0180 c3         1 MOL      -0.090900
     12 H6          -5.8260     4.3920    -0.3540 hc         1 MOL       0.052200
     13 H7          -5.3110     2.9560     0.2280 hc         1 MOL       0.052200
     14 C5          -4.5280     4.5890     1.2700 c3         1 MOL      -0.090900
     15 H8          -5.2850     5.0150     1.7570 hc         1 MOL       0.052200
     16 H9          -4.0610     3.9380     1.8610 hc         1 MOL       0.052200
     17 C6          -3.5580     5.6400     0.7520 c3         1 MOL       0.089500
     18 H10         -4.0330     6.4850     0.5250 h1         1 MOL       0.048700
     19 H11         -2.8380     5.8230     1.4180 h1         1 MOL       0.048700
@<TRIPOS>BOND
     1     1     5 1   
     2     5     6 2   
     3     5     7 1   
     4     7     8 1   
     5     8    11 1   
     6    11    14 1   
     7    14    17 1   
     8    17     7 1   
     9     1     2 1   
    10     1     3 1   
    11     1     4 1   
    12     8     9 1   
    13     8    10 1   
    14    11    12 1   
    15    11    13 1   
    16    14    15 1   
    17    14    16 1   
    18    17    18 1   
    19    17    19 1   
@<TRIPOS>SUBSTRUCTURE
     1 MOL         1 TEMP              0 ****  ****    0 ROOT
