@<TRIPOS>MOLECULE
MOL
   12    11     1     0     0
SMALL
bcc


@<TRIPOS>ATOM
      1 C1          -4.0470     3.5080     1.0060 c3         1 MOL       0.080300
      2 H1          -3.1450     3.0840     0.9570 h1         1 MOL       0.043367
      3 H2          -4.2100     3.8490     2.0280 h1         1 MOL       0.043367
      4 H3          -4.0880     4.3430     0.3070 h1         1 MOL       0.043367
      5 N1          -5.0630     2.4920     0.6490 n          1 MOL      -0.582900
      6 H4          -6.0670     2.6880     0.5910 hn         1 MOL       0.306500
      7 C2          -4.6980     1.2380     0.3820 c          1 MOL       0.657100
      8 O1          -3.5100     0.8380     0.3710 o          1 MOL      -0.610100
      9 C3          -5.7930     0.2750     0.1320 c3         1 MOL      -0.175100
     10 H5          -6.6440     0.7590    -0.0860 hc         1 MOL       0.064700
     11 H6          -5.5110    -0.3630    -0.7060 hc         1 MOL       0.064700
     12 H7          -5.9310    -0.3590     1.0090 hc         1 MOL       0.064700
@<TRIPOS>BOND
     1     1     5 1   
     2     5     7 1   
     3     7     8 2   
     4     7     9 1   
     5     1     2 1   
     6     1     3 1   
     7     1     4 1   
     8     5     6 1   
     9     9    10 1   
    10     9    11 1   
    11     9    12 1   
@<TRIPOS>SUBSTRUCTURE
     1 MOL         1 TEMP              0 ****  ****    0 ROOT
