@<TRIPOS>MOLECULE
MOL
   11    10     1     0     0
SMALL
bcc


@<TRIPOS>ATOM
      1 C1          -5.2120     1.4190     2.4350 c3         1 MOL      -0.093100
      2 H1          -5.7080     2.1740     2.8470 hc         1 MOL       0.032367
      3 H2          -5.6260     0.5520     2.6850 hc         1 MOL       0.032367
      4 H3          -5.2600     1.5250     1.3510 hc         1 MOL       0.032367
      5 C2          -3.7810     1.4380     2.9730 c3         1 MOL      -0.081400
      6 H4          -3.2140     0.8230     2.4170 hc         1 MOL       0.036700
      7 H5          -3.4160     2.3690     2.9000 hc         1 MOL       0.036700
      8 C3          -3.6860     0.9910     4.4420 c3         1 MOL      -0.093100
      9 H6          -4.1810     1.6470     5.0010 hc         1 MOL       0.032367
     10 H7          -4.0950     0.0890     4.5220 hc         1 MOL       0.032367
     11 H8          -2.6520     0.9440     4.7830 hc         1 MOL       0.032367
@<TRIPOS>BOND
     1     1     5 1   
     2     5     8 1   
     3     1     2 1   
     4     1     3 1   
     5     1     4 1   
     6     5     6 1   
     7     5     7 1   
     8     8     9 1   
     9     8    10 1   
    10     8    11 1   
@<TRIPOS>SUBSTRUCTURE
     1 MOL         1 TEMP              0 ****  ****    0 ROOT
