ACET-pdb2cov-D-GLU-397:PRPA-pdb2cov-D-ARG-429
     RDKit          3D

 18 16  0  0  0  0  0  0  0  0999 V2000
   -0.0320    1.4882   -0.1026 C   0  0  0  0  0  0  0  0  0  0  0  0
   -0.5156    1.7383   -0.9270 H   0  0  0  0  0  0  0  0  0  0  0  0
    0.8973    1.8242   -0.1138 H   0  0  0  0  0  0  0  0  0  0  0  0
   -0.5400    1.9819    0.7258 H   0  0  0  0  0  0  0  0  0  0  0  0
    0.0000    0.0000    0.0000 C   0  0  0  0  0  0  0  0  0  0  0  0
   -1.0669   -0.6001    0.0000 O   0  0  0  0  0  1  0  0  0  0  0  0
    1.0669   -0.5707    0.0000 O   0  0  0  0  0  0  0  0  0  0  0  0
    1.9983    0.1383   -3.4570 C   0  0  0  0  0  0  0  0  0  0  0  0
    1.5991    0.5313   -2.5845 H   0  0  0  0  0  0  0  0  0  0  0  0
    1.1635   -0.1390   -4.0071 H   0  0  0  0  0  0  0  0  0  0  0  0
    2.4896    0.9520   -3.9903 H   0  0  0  0  0  0  0  0  0  0  0  0
    2.7321   -1.0524   -3.1207 C   0  0  0  0  0  0  0  0  0  0  0  0
    3.2168   -1.4822   -3.8589 H   0  0  0  0  0  0  0  0  0  0  0  0
    3.2631   -1.0109   -2.2955 H   0  0  0  0  0  0  0  0  0  0  0  0
    1.5957   -2.3629   -2.6909 C   0  0  0  0  0  0  0  0  0  0  0  0
    2.1120   -2.7831   -1.8623 H   0  0  0  0  0  0  0  0  0  0  0  0
    0.8515   -1.7949   -2.1869 H   0  0  0  0  0  0  0  0  0  0  0  0
    1.1526   -3.1352   -3.3196 H   0  0  0  0  0  0  0  0  0  0  0  0
  1  5  1  0
  5  6  1  0
  5  7  2  0
  1  2  1  0
  1  3  1  0
  1  4  1  0
  8 12  1  0
 12 15  1  0
  8  9  1  0
  8 10  1  0
  8 11  1  0
 12 13  1  0
 12 14  1  0
 15 16  1  0
 15 17  1  0
 15 18  1  0
M  CHG  1   6  -1
M  END
>  <PDB_ID>  (1) 
pdb2cov

>  <RESIDUE_NAME>  (1) 
GLU   ARG

>  <FRAG_NAME>  (1) 
ACET   PRPA

>  <FRAG_ATOM_NUM>  (1) 
fragi: 7  fragj: 11

>  <atom.prop.CHAIN_ID>  (1) 
A A A A A A A Z Z Z Z Z Z Z Z Z Z Z

>  <atom.prop.IS_HEAVY_ATOM>  (1) 
1 0 0 0 1 1 1 1 0 0 0 1 0 0 1 0 0 0

>  <DIFUSE_FUNC_ATOM>  (1) 
atom 6   atom 7   

>  <FINAL_SINGLE_POINT_ENERGY>  (1) 
0

>  <NONCOV_INTER_ENERGY_QM>  (1) 
0

>  <Tinker_Supermolecular_Energy>  (1) 
-27.64

>  <QM_Energy>  (1) 
-5.28

>  <source>  (1) 
ACET_PRPA_01

>  <Index>  (1) 
6225