ETAM-pdb2a1k-A-LYS-136:MSM-pdb2a1k-A-MET-219
     RDKit          3D

 20 18  0  0  0  0  0  0  0  0999 V2000
    1.2224    0.8979    0.0000 C   0  0  0  0  0  0  0  0  0  0  0  0
    1.1082    1.5873    0.7211 H   0  0  0  0  0  0  0  0  0  0  0  0
    1.2726    1.3623   -0.8887 H   0  0  0  0  0  0  0  0  0  0  0  0
    2.1542    0.3589    0.1715 H   0  0  0  0  0  0  0  0  0  0  0  0
    0.0000    0.0000    0.0000 C   0  0  0  0  0  0  0  0  0  0  0  0
    0.0024   -0.5584   -0.8164 H   0  0  0  0  0  0  0  0  0  0  0  0
    0.0023   -0.5592    0.8165 H   0  0  0  0  0  0  0  0  0  0  0  0
   -1.2224    0.8650   -0.0000 N   0  0  0  0  0  4  0  0  0  0  0  0
   -1.4253    1.1441    0.9370 H   0  0  0  0  0  0  0  0  0  0  0  0
   -1.0530    1.6703   -0.5642 H   0  0  0  0  0  0  0  0  0  0  0  0
   -1.9894    0.3465   -0.3720 H   0  0  0  0  0  0  0  0  0  0  0  0
   -2.7002   -0.6228   -4.8797 C   0  0  0  0  0  0  0  0  0  0  0  0
   -2.9620   -1.6057   -5.0697 H   0  0  0  0  0  0  0  0  0  0  0  0
   -1.8487   -0.4736   -5.4494 H   0  0  0  0  0  0  0  0  0  0  0  0
   -3.4895    0.0236   -5.2636 H   0  0  0  0  0  0  0  0  0  0  0  0
   -2.3494   -0.3855   -3.1426 S   0  0  0  0  0  0  0  0  0  0  0  0
   -0.5585   -0.5836   -3.1866 C   0  0  0  0  0  0  0  0  0  0  0  0
   -0.3306   -1.4132   -3.6945 H   0  0  0  0  0  0  0  0  0  0  0  0
   -0.1496    0.2091   -3.6381 H   0  0  0  0  0  0  0  0  0  0  0  0
   -0.2115   -0.6549   -2.2523 H   0  0  0  0  0  0  0  0  0  0  0  0
  1  5  1  0
  5  8  1  0
  1  2  1  0
  1  3  1  0
  1  4  1  0
  5  6  1  0
  5  7  1  0
  8  9  1  0
  8 10  1  0
  8 11  1  0
 12 16  1  0
 16 17  1  0
 12 13  1  0
 12 14  1  0
 12 15  1  0
 17 18  1  0
 17 19  1  0
 17 20  1  0
M  CHG  1   8   1
M  END
>  <PDB_ID>  (1) 
pdb2a1k

>  <RESIDUE_NAME>  (1) 
LYS   MET

>  <FRAG_NAME>  (1) 
ETAM   MSM

>  <FRAG_ATOM_NUM>  (1) 
fragi: 11  fragj: 9

>  <atom.prop.CHAIN_ID>  (1) 
A A A A A A A A A A A Z Z Z Z Z Z Z Z Z

>  <atom.prop.IS_HEAVY_ATOM>  (1) 
1 0 0 0 1 0 0 1 0 0 0 1 0 0 0 1 1 0 0 0

>  <DIFUSE_FUNC_ATOM>  (1) 
n/a

>  <FINAL_SINGLE_POINT_ENERGY>  (1) 
0

>  <NONCOV_INTER_ENERGY_QM>  (1) 
0

>  <FF_Energy>  (1) 
41.38

>  <QM_Energy>  (1) 
-2.52

>  <source>  (1) 
ETAM_MSM

>  <Index>  (1) 
28

$$$$
ETAM-pdb1a49-B-LYS-1021:MSM-pdb1a49-A-MET-413
     RDKit          3D

 20 18  0  0  0  0  0  0  0  0999 V2000
    1.2544    0.8787   -0.0000 C   0  0  0  0  0  0  0  0  0  0  0  0
    1.1845    1.5348    0.7470 H   0  0  0  0  0  0  0  0  0  0  0  0
    1.3090    1.3567   -0.8728 H   0  0  0  0  0  0  0  0  0  0  0  0
    2.1722    0.3062    0.1341 H   0  0  0  0  0  0  0  0  0  0  0  0
    0.0000    0.0000    0.0000 C   0  0  0  0  0  0  0  0  0  0  0  0
    0.0321   -0.5959   -0.8164 H   0  0  0  0  0  0  0  0  0  0  0  0
    0.0320   -0.5968    0.8162 H   0  0  0  0  0  0  0  0  0  0  0  0
   -1.2544    0.7693    0.0000 N   0  0  0  0  0  4  0  0  0  0  0  0
   -2.0134    0.1826   -0.2904 H   0  0  0  0  0  0  0  0  0  0  0  0
   -1.4412    1.1148    0.9220 H   0  0  0  0  0  0  0  0  0  0  0  0
   -1.1783    1.5441   -0.6311 H   0  0  0  0  0  0  0  0  0  0  0  0
    2.1230    0.8682   -4.4036 C   0  0  0  0  0  0  0  0  0  0  0  0
    1.6691    1.0376   -5.3078 H   0  0  0  0  0  0  0  0  0  0  0  0
    1.9971   -0.1329   -4.2178 H   0  0  0  0  0  0  0  0  0  0  0  0
    3.1893    1.0659   -4.5123 H   0  0  0  0  0  0  0  0  0  0  0  0
    1.3497    1.8621   -3.1044 S   0  0  0  0  0  0  0  0  0  0  0  0
    1.1121    3.4384   -3.9540 C   0  0  0  0  0  0  0  0  0  0  0  0
    0.1492    3.5372   -4.1993 H   0  0  0  0  0  0  0  0  0  0  0  0
    1.3841    4.1830   -3.3466 H   0  0  0  0  0  0  0  0  0  0  0  0
    1.6741    3.4544   -4.7797 H   0  0  0  0  0  0  0  0  0  0  0  0
  1  5  1  0
  5  8  1  0
  1  2  1  0
  1  3  1  0
  1  4  1  0
  5  6  1  0
  5  7  1  0
  8  9  1  0
  8 10  1  0
  8 11  1  0
 12 16  1  0
 16 17  1  0
 12 13  1  0
 12 14  1  0
 12 15  1  0
 17 18  1  0
 17 19  1  0
 17 20  1  0
M  CHG  1   8   1
M  END
>  <PDB_ID>  (2) 
pdb1a49

>  <RESIDUE_NAME>  (2) 
LYS   MET

>  <FRAG_NAME>  (2) 
ETAM   MSM

>  <FRAG_ATOM_NUM>  (2) 
fragi: 11  fragj: 9

>  <atom.prop.CHAIN_ID>  (2) 
A A A A A A A A A A A Z Z Z Z Z Z Z Z Z

>  <atom.prop.IS_HEAVY_ATOM>  (2) 
1 0 0 0 1 0 0 1 0 0 0 1 0 0 0 1 1 0 0 0

>  <DIFUSE_FUNC_ATOM>  (2) 
n/a

>  <FINAL_SINGLE_POINT_ENERGY>  (2) 
0

>  <NONCOV_INTER_ENERGY_QM>  (2) 
0

>  <FF_Energy>  (2) 
4.1

>  <QM_Energy>  (2) 
-6.42

>  <source>  (2) 
ETAM_MSM

>  <Index>  (2) 
98

$$$$
ETAM-pdb1a49-A-LYS-421:MSM-pdb1a49-B-MET-1013
     RDKit          3D

 20 18  0  0  0  0  0  0  0  0999 V2000
    1.2314    0.8776   -0.0000 C   0  0  0  0  0  0  0  0  0  0  0  0
    0.9953    1.7567    0.4311 H   0  0  0  0  0  0  0  0  0  0  0  0
    1.4950    1.0547   -0.9556 H   0  0  0  0  0  0  0  0  0  0  0  0
    2.0822    0.4456    0.5267 H   0  0  0  0  0  0  0  0  0  0  0  0
    0.0000    0.0000    0.0000 C   0  0  0  0  0  0  0  0  0  0  0  0
    0.0118   -0.5796   -0.8161 H   0  0  0  0  0  0  0  0  0  0  0  0
    0.0117   -0.5800    0.8163 H   0  0  0  0  0  0  0  0  0  0  0  0
   -1.2314    0.8204    0.0000 N   0  0  0  0  0  4  0  0  0  0  0  0
   -1.0800    1.6532    0.5345 H   0  0  0  0  0  0  0  0  0  0  0  0
   -1.4696    1.0682   -0.9399 H   0  0  0  0  0  0  0  0  0  0  0  0
   -1.9829    0.2984    0.4060 H   0  0  0  0  0  0  0  0  0  0  0  0
    1.6399   -3.9397   -1.5710 C   0  0  0  0  0  0  0  0  0  0  0  0
    1.1273   -4.6498   -2.1061 H   0  0  0  0  0  0  0  0  0  0  0  0
    1.4866   -4.1769   -0.5847 H   0  0  0  0  0  0  0  0  0  0  0  0
    2.7023   -4.0496   -1.7889 H   0  0  0  0  0  0  0  0  0  0  0  0
    1.0135   -2.2852   -1.9369 S   0  0  0  0  0  0  0  0  0  0  0  0
    1.2484   -2.3586   -3.7095 C   0  0  0  0  0  0  0  0  0  0  0  0
    0.3621   -2.2875   -4.1701 H   0  0  0  0  0  0  0  0  0  0  0  0
    1.8350   -1.6026   -4.0026 H   0  0  0  0  0  0  0  0  0  0  0  0
    1.6802   -3.2280   -3.9560 H   0  0  0  0  0  0  0  0  0  0  0  0
  1  5  1  0
  5  8  1  0
  1  2  1  0
  1  3  1  0
  1  4  1  0
  5  6  1  0
  5  7  1  0
  8  9  1  0
  8 10  1  0
  8 11  1  0
 12 16  1  0
 16 17  1  0
 12 13  1  0
 12 14  1  0
 12 15  1  0
 17 18  1  0
 17 19  1  0
 17 20  1  0
M  CHG  1   8   1
M  END
>  <PDB_ID>  (3) 
pdb1a49

>  <RESIDUE_NAME>  (3) 
LYS   MET

>  <FRAG_NAME>  (3) 
ETAM   MSM

>  <FRAG_ATOM_NUM>  (3) 
fragi: 11  fragj: 9

>  <atom.prop.CHAIN_ID>  (3) 
A A A A A A A A A A A Z Z Z Z Z Z Z Z Z

>  <atom.prop.IS_HEAVY_ATOM>  (3) 
1 0 0 0 1 0 0 1 0 0 0 1 0 0 0 1 1 0 0 0

>  <DIFUSE_FUNC_ATOM>  (3) 
n/a

>  <FINAL_SINGLE_POINT_ENERGY>  (3) 
0

>  <NONCOV_INTER_ENERGY_QM>  (3) 
0

>  <FF_Energy>  (3) 
6.52

>  <QM_Energy>  (3) 
-6.07

>  <source>  (3) 
ETAM_MSM

>  <Index>  (3) 
99

$$$$
ETAM-pdb1a7x-B-LYS-52:MSM-pdb1a7x-B-MET-49
     RDKit          3D

 20 18  0  0  0  0  0  0  0  0999 V2000
    1.1807    0.9221    0.0000 C   0  0  0  0  0  0  0  0  0  0  0  0
    1.2421    1.3637    0.8939 H   0  0  0  0  0  0  0  0  0  0  0  0
    1.0471    1.6129   -0.7088 H   0  0  0  0  0  0  0  0  0  0  0  0
    2.1038    0.3768   -0.1963 H   0  0  0  0  0  0  0  0  0  0  0  0
    0.0000    0.0000    0.0000 C   0  0  0  0  0  0  0  0  0  0  0  0
    0.0293   -0.5635   -0.8165 H   0  0  0  0  0  0  0  0  0  0  0  0
    0.0289   -0.5639    0.8164 H   0  0  0  0  0  0  0  0  0  0  0  0
   -1.1807    0.8247   -0.0000 N   0  0  0  0  0  4  0  0  0  0  0  0
   -1.0082    1.6261    0.6371 H   0  0  0  0  0  0  0  0  0  0  0  0
   -1.3445    1.1682   -0.9653 H   0  0  0  0  0  0  0  0  0  0  0  0
   -1.9970    0.2790    0.3394 H   0  0  0  0  0  0  0  0  0  0  0  0
   -0.6338    0.0883   -4.2065 C   0  0  0  0  0  0  0  0  0  0  0  0
    0.0417    0.8152   -4.0124 H   0  0  0  0  0  0  0  0  0  0  0  0
   -1.1348    0.3508   -5.0451 H   0  0  0  0  0  0  0  0  0  0  0  0
   -0.1120   -0.8534   -4.3760 H   0  0  0  0  0  0  0  0  0  0  0  0
   -1.7833   -0.0956   -2.8149 S   0  0  0  0  0  0  0  0  0  0  0  0
   -2.7989   -1.3770   -3.4930 C   0  0  0  0  0  0  0  0  0  0  0  0
   -3.7652   -1.2013   -3.2822 H   0  0  0  0  0  0  0  0  0  0  0  0
   -2.6876   -1.4161   -4.4907 H   0  0  0  0  0  0  0  0  0  0  0  0
   -2.5398   -2.2667   -3.1035 H   0  0  0  0  0  0  0  0  0  0  0  0
  1  5  1  0
  5  8  1  0
  1  2  1  0
  1  3  1  0
  1  4  1  0
  5  6  1  0
  5  7  1  0
  8  9  1  0
  8 10  1  0
  8 11  1  0
 12 16  1  0
 16 17  1  0
 12 13  1  0
 12 14  1  0
 12 15  1  0
 17 18  1  0
 17 19  1  0
 17 20  1  0
M  CHG  1   8   1
M  END
>  <PDB_ID>  (4) 
pdb1a7x

>  <RESIDUE_NAME>  (4) 
LYS   MET

>  <FRAG_NAME>  (4) 
ETAM   MSM

>  <FRAG_ATOM_NUM>  (4) 
fragi: 11  fragj: 9

>  <atom.prop.CHAIN_ID>  (4) 
A A A A A A A A A A A Z Z Z Z Z Z Z Z Z

>  <atom.prop.IS_HEAVY_ATOM>  (4) 
1 0 0 0 1 0 0 1 0 0 0 1 0 0 0 1 1 0 0 0

>  <DIFUSE_FUNC_ATOM>  (4) 
n/a

>  <FINAL_SINGLE_POINT_ENERGY>  (4) 
0

>  <NONCOV_INTER_ENERGY_QM>  (4) 
0

>  <FF_Energy>  (4) 
-3.23

>  <QM_Energy>  (4) 
-13.24

>  <source>  (4) 
ETAM_MSM

>  <Index>  (4) 
105

$$$$
ETAM-pdb2af4-C-LYS-218:MSM-pdb2af4-D-MET-177
     RDKit          3D

 20 18  0  0  0  0  0  0  0  0999 V2000
    1.2406    0.9010    0.0000 C   0  0  0  0  0  0  0  0  0  0  0  0
    1.2973    1.3720    0.8935 H   0  0  0  0  0  0  0  0  0  0  0  0
    1.1248    1.6091   -0.7131 H   0  0  0  0  0  0  0  0  0  0  0  0
    2.2008    0.4152   -0.1741 H   0  0  0  0  0  0  0  0  0  0  0  0
    0.0000    0.0000    0.0000 C   0  0  0  0  0  0  0  0  0  0  0  0
   -0.0055   -0.5497   -0.8163 H   0  0  0  0  0  0  0  0  0  0  0  0
   -0.0057   -0.5503    0.8169 H   0  0  0  0  0  0  0  0  0  0  0  0
   -1.2406    0.8866   -0.0000 N   0  0  0  0  0  4  0  0  0  0  0  0
   -2.0434    0.3023   -0.0386 H   0  0  0  0  0  0  0  0  0  0  0  0
   -1.2411    1.4255    0.8348 H   0  0  0  0  0  0  0  0  0  0  0  0
   -1.2022    1.4787   -0.7969 H   0  0  0  0  0  0  0  0  0  0  0  0
    2.2002    5.2320   -1.6087 C   0  0  0  0  0  0  0  0  0  0  0  0
    2.6200    5.2094   -2.5764 H   0  0  0  0  0  0  0  0  0  0  0  0
    2.9343    5.7734   -1.0772 H   0  0  0  0  0  0  0  0  0  0  0  0
    1.3071    5.8551   -1.6570 H   0  0  0  0  0  0  0  0  0  0  0  0
    2.0809    3.5276   -0.9416 S   0  0  0  0  0  0  0  0  0  0  0  0
    2.6490    3.7949    0.7093 C   0  0  0  0  0  0  0  0  0  0  0  0
    1.8799    3.7428    1.3551 H   0  0  0  0  0  0  0  0  0  0  0  0
    3.3277    3.0978    0.9611 H   0  0  0  0  0  0  0  0  0  0  0  0
    3.0753    4.7020    0.7882 H   0  0  0  0  0  0  0  0  0  0  0  0
  1  5  1  0
  5  8  1  0
  1  2  1  0
  1  3  1  0
  1  4  1  0
  5  6  1  0
  5  7  1  0
  8  9  1  0
  8 10  1  0
  8 11  1  0
 12 16  1  0
 16 17  1  0
 12 13  1  0
 12 14  1  0
 12 15  1  0
 17 18  1  0
 17 19  1  0
 17 20  1  0
M  CHG  1   8   1
M  END
>  <PDB_ID>  (5) 
pdb2af4

>  <RESIDUE_NAME>  (5) 
LYS   MET

>  <FRAG_NAME>  (5) 
ETAM   MSM

>  <FRAG_ATOM_NUM>  (5) 
fragi: 11  fragj: 9

>  <atom.prop.CHAIN_ID>  (5) 
A A A A A A A A A A A Z Z Z Z Z Z Z Z Z

>  <atom.prop.IS_HEAVY_ATOM>  (5) 
1 0 0 0 1 0 0 1 0 0 0 1 0 0 0 1 1 0 0 0

>  <DIFUSE_FUNC_ATOM>  (5) 
n/a

>  <FINAL_SINGLE_POINT_ENERGY>  (5) 
0

>  <NONCOV_INTER_ENERGY_QM>  (5) 
0

>  <FF_Energy>  (5) 
20.22

>  <QM_Energy>  (5) 
-0.71

>  <source>  (5) 
ETAM_MSM

>  <Index>  (5) 
107

$$$$
ETAM-pdb1bd0-A-LYS-39:MSM-pdb1bd0-B-MET-312
     RDKit          3D

 20 18  0  0  0  0  0  0  0  0999 V2000
    1.2526    0.8830    0.0000 C   0  0  0  0  0  0  0  0  0  0  0  0
    1.2610    1.4169   -0.8446 H   0  0  0  0  0  0  0  0  0  0  0  0
    2.0561    0.2900    0.0308 H   0  0  0  0  0  0  0  0  0  0  0  0
    1.2921    1.5689    0.8462 H   0  0  0  0  0  0  0  0  0  0  0  0
    0.0000    0.0000    0.0000 C   0  0  0  0  0  0  0  0  0  0  0  0
    0.0260   -0.5885   -0.8164 H   0  0  0  0  0  0  0  0  0  0  0  0
    0.0262   -0.5883    0.8161 H   0  0  0  0  0  0  0  0  0  0  0  0
   -1.2526    0.7884   -0.0000 N   0  0  0  0  0  4  0  0  0  0  0  0
   -1.0982    1.6630   -0.4614 H   0  0  0  0  0  0  0  0  0  0  0  0
   -1.9684    0.2811   -0.4809 H   0  0  0  0  0  0  0  0  0  0  0  0
   -1.5429    0.9582    0.9427 H   0  0  0  0  0  0  0  0  0  0  0  0
   -3.9086    2.9922    1.8772 C   0  0  0  0  0  0  0  0  0  0  0  0
   -3.5567    3.8715    1.4943 H   0  0  0  0  0  0  0  0  0  0  0  0
   -4.6705    3.2434    2.5104 H   0  0  0  0  0  0  0  0  0  0  0  0
   -4.3172    2.3980    1.0599 H   0  0  0  0  0  0  0  0  0  0  0  0
   -2.5935    2.1175    2.7787 S   0  0  0  0  0  0  0  0  0  0  0  0
   -3.6071    1.1403    3.9315 C   0  0  0  0  0  0  0  0  0  0  0  0
   -3.4333    1.4567    4.8595 H   0  0  0  0  0  0  0  0  0  0  0  0
   -4.5681    1.2663    3.7004 H   0  0  0  0  0  0  0  0  0  0  0  0
   -3.3570    0.1796    3.8444 H   0  0  0  0  0  0  0  0  0  0  0  0
  1  5  1  0
  5  8  1  0
  1  2  1  0
  1  3  1  0
  1  4  1  0
  5  6  1  0
  5  7  1  0
  8  9  1  0
  8 10  1  0
  8 11  1  0
 12 16  1  0
 16 17  1  0
 12 13  1  0
 12 14  1  0
 12 15  1  0
 17 18  1  0
 17 19  1  0
 17 20  1  0
M  CHG  1   8   1
M  END
>  <PDB_ID>  (6) 
pdb1bd0

>  <RESIDUE_NAME>  (6) 
LYS   MET

>  <FRAG_NAME>  (6) 
ETAM   MSM

>  <FRAG_ATOM_NUM>  (6) 
fragi: 11  fragj: 9

>  <atom.prop.CHAIN_ID>  (6) 
A A A A A A A A A A A Z Z Z Z Z Z Z Z Z

>  <atom.prop.IS_HEAVY_ATOM>  (6) 
1 0 0 0 1 0 0 1 0 0 0 1 0 0 0 1 1 0 0 0

>  <DIFUSE_FUNC_ATOM>  (6) 
n/a

>  <FINAL_SINGLE_POINT_ENERGY>  (6) 
0

>  <NONCOV_INTER_ENERGY_QM>  (6) 
0

>  <FF_Energy>  (6) 
-5.15

>  <QM_Energy>  (6) 
-15.94

>  <source>  (6) 
ETAM_MSM

>  <Index>  (6) 
390

$$$$
ETAM-pdb2cb8-B-LYS-53:MSM-pdb2cb8-B-MET-47
     RDKit          3D

 20 18  0  0  0  0  0  0  0  0999 V2000
    1.2641    0.8694    0.0000 C   0  0  0  0  0  0  0  0  0  0  0  0
    1.1910    1.5353    0.7386 H   0  0  0  0  0  0  0  0  0  0  0  0
    1.3269    1.3379   -0.8776 H   0  0  0  0  0  0  0  0  0  0  0  0
    2.1764    0.2916    0.1477 H   0  0  0  0  0  0  0  0  0  0  0  0
    0.0000    0.0000    0.0000 C   0  0  0  0  0  0  0  0  0  0  0  0
    0.0163   -0.5901   -0.8160 H   0  0  0  0  0  0  0  0  0  0  0  0
    0.0160   -0.5898    0.8162 H   0  0  0  0  0  0  0  0  0  0  0  0
   -1.2641    0.7996   -0.0000 N   0  0  0  0  0  4  0  0  0  0  0  0
   -1.3506    1.2766    0.8726 H   0  0  0  0  0  0  0  0  0  0  0  0
   -1.2323    1.4622   -0.7456 H   0  0  0  0  0  0  0  0  0  0  0  0
   -2.0409    0.1851   -0.1265 H   0  0  0  0  0  0  0  0  0  0  0  0
   -0.7195    3.9959   -2.9248 C   0  0  0  0  0  0  0  0  0  0  0  0
    0.2595    4.1809   -2.6654 H   0  0  0  0  0  0  0  0  0  0  0  0
   -1.0467    4.8655   -3.3661 H   0  0  0  0  0  0  0  0  0  0  0  0
   -0.7316    3.2049   -3.6747 H   0  0  0  0  0  0  0  0  0  0  0  0
   -1.7076    3.6190   -1.4512 S   0  0  0  0  0  0  0  0  0  0  0  0
   -0.5886    4.1614   -0.1398 C   0  0  0  0  0  0  0  0  0  0  0  0
   -0.7415    5.1311    0.0422 H   0  0  0  0  0  0  0  0  0  0  0  0
   -0.7694    3.6302    0.6863 H   0  0  0  0  0  0  0  0  0  0  0  0
    0.3544    4.0182   -0.4340 H   0  0  0  0  0  0  0  0  0  0  0  0
  1  5  1  0
  5  8  1  0
  1  2  1  0
  1  3  1  0
  1  4  1  0
  5  6  1  0
  5  7  1  0
  8  9  1  0
  8 10  1  0
  8 11  1  0
 12 16  1  0
 16 17  1  0
 12 13  1  0
 12 14  1  0
 12 15  1  0
 17 18  1  0
 17 19  1  0
 17 20  1  0
M  CHG  1   8   1
M  END
>  <PDB_ID>  (7) 
pdb2cb8

>  <RESIDUE_NAME>  (7) 
LYS   MET

>  <FRAG_NAME>  (7) 
ETAM   MSM

>  <FRAG_ATOM_NUM>  (7) 
fragi: 11  fragj: 9

>  <atom.prop.CHAIN_ID>  (7) 
A A A A A A A A A A A Z Z Z Z Z Z Z Z Z

>  <atom.prop.IS_HEAVY_ATOM>  (7) 
1 0 0 0 1 0 0 1 0 0 0 1 0 0 0 1 1 0 0 0

>  <DIFUSE_FUNC_ATOM>  (7) 
n/a

>  <FINAL_SINGLE_POINT_ENERGY>  (7) 
0

>  <NONCOV_INTER_ENERGY_QM>  (7) 
0

>  <FF_Energy>  (7) 
-4.66

>  <QM_Energy>  (7) 
-14.67

>  <source>  (7) 
ETAM_MSM

>  <Index>  (7) 
420

$$$$
ETAM-pdb1buc-A-LYS-237:MSM-pdb1buc-A-MET-241
     RDKit          3D

 20 18  0  0  0  0  0  0  0  0999 V2000
    1.2691    0.8603   -0.0000 C   0  0  0  0  0  0  0  0  0  0  0  0
    1.2075    1.5148   -0.7502 H   0  0  0  0  0  0  0  0  0  0  0  0
    2.0553    0.2623   -0.1357 H   0  0  0  0  0  0  0  0  0  0  0  0
    1.4080    1.4119    0.9299 H   0  0  0  0  0  0  0  0  0  0  0  0
    0.0000    0.0000    0.0000 C   0  0  0  0  0  0  0  0  0  0  0  0
    0.0187   -0.5982   -0.8164 H   0  0  0  0  0  0  0  0  0  0  0  0
    0.0186   -0.5978    0.8159 H   0  0  0  0  0  0  0  0  0  0  0  0
   -1.2691    0.7842   -0.0000 N   0  0  0  0  0  4  0  0  0  0  0  0
   -2.0232    0.1905   -0.2777 H   0  0  0  0  0  0  0  0  0  0  0  0
   -1.4388    1.1361    0.9192 H   0  0  0  0  0  0  0  0  0  0  0  0
   -1.1866    1.5447   -0.6420 H   0  0  0  0  0  0  0  0  0  0  0  0
    1.4659   -1.9816    4.0989 C   0  0  0  0  0  0  0  0  0  0  0  0
    0.8922   -2.2022    4.9343 H   0  0  0  0  0  0  0  0  0  0  0  0
    2.0490   -1.1797    4.4035 H   0  0  0  0  0  0  0  0  0  0  0  0
    2.1284   -2.8276    3.9159 H   0  0  0  0  0  0  0  0  0  0  0  0
    0.4263   -1.5248    2.7109 S   0  0  0  0  0  0  0  0  0  0  0  0
   -0.5127   -3.0697    2.5260 C   0  0  0  0  0  0  0  0  0  0  0  0
   -0.6243   -3.2654    1.5548 H   0  0  0  0  0  0  0  0  0  0  0  0
   -0.0092   -3.8080    2.9672 H   0  0  0  0  0  0  0  0  0  0  0  0
   -1.4047   -2.9583    2.9570 H   0  0  0  0  0  0  0  0  0  0  0  0
  1  5  1  0
  5  8  1  0
  1  2  1  0
  1  3  1  0
  1  4  1  0
  5  6  1  0
  5  7  1  0
  8  9  1  0
  8 10  1  0
  8 11  1  0
 12 16  1  0
 16 17  1  0
 12 13  1  0
 12 14  1  0
 12 15  1  0
 17 18  1  0
 17 19  1  0
 17 20  1  0
M  CHG  1   8   1
M  END
>  <PDB_ID>  (8) 
pdb1buc

>  <RESIDUE_NAME>  (8) 
LYS   MET

>  <FRAG_NAME>  (8) 
ETAM   MSM

>  <FRAG_ATOM_NUM>  (8) 
fragi: 11  fragj: 9

>  <atom.prop.CHAIN_ID>  (8) 
A A A A A A A A A A A Z Z Z Z Z Z Z Z Z

>  <atom.prop.IS_HEAVY_ATOM>  (8) 
1 0 0 0 1 0 0 1 0 0 0 1 0 0 0 1 1 0 0 0

>  <DIFUSE_FUNC_ATOM>  (8) 
n/a

>  <FINAL_SINGLE_POINT_ENERGY>  (8) 
0

>  <NONCOV_INTER_ENERGY_QM>  (8) 
0

>  <FF_Energy>  (8) 
17.56

>  <QM_Energy>  (8) 
-5.54

>  <source>  (8) 
ETAM_MSM

>  <Index>  (8) 
473

$$$$
ETAM-pdb1ca9-E-LYS-389:MSM-pdb1ca9-E-MET-414
     RDKit          3D

 20 18  0  0  0  0  0  0  0  0999 V2000
    1.2344    0.8868   -0.0000 C   0  0  0  0  0  0  0  0  0  0  0  0
    1.2630    1.3875    0.8565 H   0  0  0  0  0  0  0  0  0  0  0  0
    1.1743    1.5093   -0.7701 H   0  0  0  0  0  0  0  0  0  0  0  0
    2.1379    0.2843   -0.0937 H   0  0  0  0  0  0  0  0  0  0  0  0
    0.0000    0.0000    0.0000 C   0  0  0  0  0  0  0  0  0  0  0  0
    0.0131   -0.5738   -0.8161 H   0  0  0  0  0  0  0  0  0  0  0  0
    0.0128   -0.5748    0.8165 H   0  0  0  0  0  0  0  0  0  0  0  0
   -1.2344    0.8280    0.0000 N   0  0  0  0  0  4  0  0  0  0  0  0
   -1.0547    1.6933   -0.4670 H   0  0  0  0  0  0  0  0  0  0  0  0
   -1.9639    0.3368   -0.4763 H   0  0  0  0  0  0  0  0  0  0  0  0
   -1.5131    1.0085    0.9433 H   0  0  0  0  0  0  0  0  0  0  0  0
    1.7135   -0.0427   -4.8229 C   0  0  0  0  0  0  0  0  0  0  0  0
    1.3878    0.2679   -5.7501 H   0  0  0  0  0  0  0  0  0  0  0  0
    2.5703   -0.5832   -5.0128 H   0  0  0  0  0  0  0  0  0  0  0  0
    1.9896    0.8407   -4.2473 H   0  0  0  0  0  0  0  0  0  0  0  0
    0.4971   -1.0273   -4.0076 S   0  0  0  0  0  0  0  0  0  0  0  0
    1.3860   -1.5887   -2.6190 C   0  0  0  0  0  0  0  0  0  0  0  0
    1.1129   -1.0842   -1.7877 H   0  0  0  0  0  0  0  0  0  0  0  0
    1.2186   -2.5710   -2.4566 H   0  0  0  0  0  0  0  0  0  0  0  0
    2.3786   -1.4594   -2.7504 H   0  0  0  0  0  0  0  0  0  0  0  0
  1  5  1  0
  5  8  1  0
  1  2  1  0
  1  3  1  0
  1  4  1  0
  5  6  1  0
  5  7  1  0
  8  9  1  0
  8 10  1  0
  8 11  1  0
 12 16  1  0
 16 17  1  0
 12 13  1  0
 12 14  1  0
 12 15  1  0
 17 18  1  0
 17 19  1  0
 17 20  1  0
M  CHG  1   8   1
M  END
>  <PDB_ID>  (9) 
pdb1ca9

>  <RESIDUE_NAME>  (9) 
LYS   MET

>  <FRAG_NAME>  (9) 
ETAM   MSM

>  <FRAG_ATOM_NUM>  (9) 
fragi: 11  fragj: 9

>  <atom.prop.CHAIN_ID>  (9) 
A A A A A A A A A A A Z Z Z Z Z Z Z Z Z

>  <atom.prop.IS_HEAVY_ATOM>  (9) 
1 0 0 0 1 0 0 1 0 0 0 1 0 0 0 1 1 0 0 0

>  <DIFUSE_FUNC_ATOM>  (9) 
n/a

>  <FINAL_SINGLE_POINT_ENERGY>  (9) 
0

>  <NONCOV_INTER_ENERGY_QM>  (9) 
0

>  <FF_Energy>  (9) 
20.21

>  <QM_Energy>  (9) 
-0.18

>  <source>  (9) 
ETAM_MSM

>  <Index>  (9) 
564

$$$$
ETAM-pdb1dbq-A-LYS-114:MSM-pdb1dbq-A-MET-110
     RDKit          3D

 20 18  0  0  0  0  0  0  0  0999 V2000
    1.2775    0.8709   -0.0000 C   0  0  0  0  0  0  0  0  0  0  0  0
    2.0370    0.2967   -0.2951 H   0  0  0  0  0  0  0  0  0  0  0  0
    1.4298    1.1862    0.9332 H   0  0  0  0  0  0  0  0  0  0  0  0
    1.1938    1.7306   -0.6648 H   0  0  0  0  0  0  0  0  0  0  0  0
    0.0000    0.0000    0.0000 C   0  0  0  0  0  0  0  0  0  0  0  0
    0.0187   -0.5905   -0.8166 H   0  0  0  0  0  0  0  0  0  0  0  0
    0.0184   -0.5906    0.8161 H   0  0  0  0  0  0  0  0  0  0  0  0
   -1.2775    0.7950    0.0000 N   0  0  0  0  0  4  0  0  0  0  0  0
   -1.8914    0.4209    0.6907 H   0  0  0  0  0  0  0  0  0  0  0  0
   -1.0663    1.7465    0.2114 H   0  0  0  0  0  0  0  0  0  0  0  0
   -1.6989    0.7307   -0.9017 H   0  0  0  0  0  0  0  0  0  0  0  0
    0.8218   -0.5357   -4.7307 C   0  0  0  0  0  0  0  0  0  0  0  0
    0.8877   -1.5128   -5.0348 H   0  0  0  0  0  0  0  0  0  0  0  0
    1.5382   -0.0325   -5.2646 H   0  0  0  0  0  0  0  0  0  0  0  0
   -0.1601   -0.1468   -5.0006 H   0  0  0  0  0  0  0  0  0  0  0  0
    1.1687   -0.4111   -2.9428 S   0  0  0  0  0  0  0  0  0  0  0  0
    2.7423    0.5594   -2.9652 C   0  0  0  0  0  0  0  0  0  0  0  0
    3.4941   -0.0715   -2.8207 H   0  0  0  0  0  0  0  0  0  0  0  0
    2.8175    1.0023   -3.8490 H   0  0  0  0  0  0  0  0  0  0  0  0
    2.6988    1.2311   -2.2365 H   0  0  0  0  0  0  0  0  0  0  0  0
  1  5  1  0
  5  8  1  0
  1  2  1  0
  1  3  1  0
  1  4  1  0
  5  6  1  0
  5  7  1  0
  8  9  1  0
  8 10  1  0
  8 11  1  0
 12 16  1  0
 16 17  1  0
 12 13  1  0
 12 14  1  0
 12 15  1  0
 17 18  1  0
 17 19  1  0
 17 20  1  0
M  CHG  1   8   1
M  END
>  <PDB_ID>  (10) 
pdb1dbq

>  <RESIDUE_NAME>  (10) 
LYS   MET

>  <FRAG_NAME>  (10) 
ETAM   MSM

>  <FRAG_ATOM_NUM>  (10) 
fragi: 11  fragj: 9

>  <atom.prop.CHAIN_ID>  (10) 
A A A A A A A A A A A Z Z Z Z Z Z Z Z Z

>  <atom.prop.IS_HEAVY_ATOM>  (10) 
1 0 0 0 1 0 0 1 0 0 0 1 0 0 0 1 1 0 0 0

>  <DIFUSE_FUNC_ATOM>  (10) 
n/a

>  <FINAL_SINGLE_POINT_ENERGY>  (10) 
0

>  <NONCOV_INTER_ENERGY_QM>  (10) 
0

>  <FF_Energy>  (10) 
3.26

>  <QM_Energy>  (10) 
-7.41

>  <source>  (10) 
ETAM_MSM

>  <Index>  (10) 
830

$$$$
ETAM-pdb2dy3-D-LYS-28:MSM-pdb2dy3-D-MET-212
     RDKit          3D

 20 18  0  0  0  0  0  0  0  0999 V2000
    1.2547    0.8692    0.0000 C   0  0  0  0  0  0  0  0  0  0  0  0
    1.2315    1.4587    0.8047 H   0  0  0  0  0  0  0  0  0  0  0  0
    1.2546    1.4252   -0.8281 H   0  0  0  0  0  0  0  0  0  0  0  0
    2.1709    0.2793    0.0252 H   0  0  0  0  0  0  0  0  0  0  0  0
    0.0000    0.0000    0.0000 C   0  0  0  0  0  0  0  0  0  0  0  0
    0.0068   -0.5817   -0.8161 H   0  0  0  0  0  0  0  0  0  0  0  0
    0.0069   -0.5823    0.8164 H   0  0  0  0  0  0  0  0  0  0  0  0
   -1.2547    0.8230    0.0000 N   0  0  0  0  0  4  0  0  0  0  0  0
   -1.1388    1.5928    0.6245 H   0  0  0  0  0  0  0  0  0  0  0  0
   -1.4249    1.1580   -0.9245 H   0  0  0  0  0  0  0  0  0  0  0  0
   -2.0165    0.2541    0.3003 H   0  0  0  0  0  0  0  0  0  0  0  0
    1.5218   -0.5028   -4.7258 C   0  0  0  0  0  0  0  0  0  0  0  0
    1.5652   -0.8281   -5.6958 H   0  0  0  0  0  0  0  0  0  0  0  0
    2.0529   -1.1871   -4.1793 H   0  0  0  0  0  0  0  0  0  0  0  0
    2.0266    0.4610   -4.6606 H   0  0  0  0  0  0  0  0  0  0  0  0
   -0.2163   -0.4467   -4.1532 S   0  0  0  0  0  0  0  0  0  0  0  0
   -0.1765   -1.5525   -2.8080 C   0  0  0  0  0  0  0  0  0  0  0  0
    0.7457   -1.5897   -2.3988 H   0  0  0  0  0  0  0  0  0  0  0  0
   -0.8252   -1.2679   -2.0881 H   0  0  0  0  0  0  0  0  0  0  0  0
   -0.4261   -2.4857   -3.1014 H   0  0  0  0  0  0  0  0  0  0  0  0
  1  5  1  0
  5  8  1  0
  1  2  1  0
  1  3  1  0
  1  4  1  0
  5  6  1  0
  5  7  1  0
  8  9  1  0
  8 10  1  0
  8 11  1  0
 12 16  1  0
 16 17  1  0
 12 13  1  0
 12 14  1  0
 12 15  1  0
 17 18  1  0
 17 19  1  0
 17 20  1  0
M  CHG  1   8   1
M  END
>  <PDB_ID>  (11) 
pdb2dy3

>  <RESIDUE_NAME>  (11) 
LYS   MET

>  <FRAG_NAME>  (11) 
ETAM   MSM

>  <FRAG_ATOM_NUM>  (11) 
fragi: 11  fragj: 9

>  <atom.prop.CHAIN_ID>  (11) 
A A A A A A A A A A A Z Z Z Z Z Z Z Z Z

>  <atom.prop.IS_HEAVY_ATOM>  (11) 
1 0 0 0 1 0 0 1 0 0 0 1 0 0 0 1 1 0 0 0

>  <DIFUSE_FUNC_ATOM>  (11) 
n/a

>  <FINAL_SINGLE_POINT_ENERGY>  (11) 
0

>  <NONCOV_INTER_ENERGY_QM>  (11) 
0

>  <FF_Energy>  (11) 
13.84

>  <QM_Energy>  (11) 
-0.26

>  <source>  (11) 
ETAM_MSM

>  <Index>  (11) 
832

$$$$
ETAM-pdb2dym-C-LYS-149:MSM-pdb2dym-C-MET-163
     RDKit          3D

 20 18  0  0  0  0  0  0  0  0999 V2000
    1.2356    0.8804    0.0000 C   0  0  0  0  0  0  0  0  0  0  0  0
    1.2129    1.4587    0.8102 H   0  0  0  0  0  0  0  0  0  0  0  0
    1.2253    1.4419   -0.8218 H   0  0  0  0  0  0  0  0  0  0  0  0
    2.1497    0.2869    0.0133 H   0  0  0  0  0  0  0  0  0  0  0  0
    0.0000    0.0000    0.0000 C   0  0  0  0  0  0  0  0  0  0  0  0
    0.0106   -0.5766   -0.8162 H   0  0  0  0  0  0  0  0  0  0  0  0
    0.0103   -0.5772    0.8163 H   0  0  0  0  0  0  0  0  0  0  0  0
   -1.2356    0.8270   -0.0000 N   0  0  0  0  0  4  0  0  0  0  0  0
   -1.1396    1.5669    0.6653 H   0  0  0  0  0  0  0  0  0  0  0  0
   -1.3764    1.2128   -0.9117 H   0  0  0  0  0  0  0  0  0  0  0  0
   -2.0185    0.2555    0.2466 H   0  0  0  0  0  0  0  0  0  0  0  0
    0.2394    1.4450    4.0566 C   0  0  0  0  0  0  0  0  0  0  0  0
    0.5406    2.3885    4.3463 H   0  0  0  0  0  0  0  0  0  0  0  0
    1.0670    1.0412    3.5893 H   0  0  0  0  0  0  0  0  0  0  0  0
    0.0383    0.8628    4.9560 H   0  0  0  0  0  0  0  0  0  0  0  0
   -1.1519    1.5372    2.9238 S   0  0  0  0  0  0  0  0  0  0  0  0
   -2.1150    2.8607    3.6449 C   0  0  0  0  0  0  0  0  0  0  0  0
   -3.0893    2.6305    3.6029 H   0  0  0  0  0  0  0  0  0  0  0  0
   -1.8473    2.9905    4.6011 H   0  0  0  0  0  0  0  0  0  0  0  0
   -1.9540    3.7099    3.1383 H   0  0  0  0  0  0  0  0  0  0  0  0
  1  5  1  0
  5  8  1  0
  1  2  1  0
  1  3  1  0
  1  4  1  0
  5  6  1  0
  5  7  1  0
  8  9  1  0
  8 10  1  0
  8 11  1  0
 12 16  1  0
 16 17  1  0
 12 13  1  0
 12 14  1  0
 12 15  1  0
 17 18  1  0
 17 19  1  0
 17 20  1  0
M  CHG  1   8   1
M  END
>  <PDB_ID>  (12) 
pdb2dym

>  <RESIDUE_NAME>  (12) 
LYS   MET

>  <FRAG_NAME>  (12) 
ETAM   MSM

>  <FRAG_ATOM_NUM>  (12) 
fragi: 11  fragj: 9

>  <atom.prop.CHAIN_ID>  (12) 
A A A A A A A A A A A Z Z Z Z Z Z Z Z Z

>  <atom.prop.IS_HEAVY_ATOM>  (12) 
1 0 0 0 1 0 0 1 0 0 0 1 0 0 0 1 1 0 0 0

>  <DIFUSE_FUNC_ATOM>  (12) 
n/a

>  <FINAL_SINGLE_POINT_ENERGY>  (12) 
0

>  <NONCOV_INTER_ENERGY_QM>  (12) 
0

>  <FF_Energy>  (12) 
-4.15

>  <QM_Energy>  (12) 
-15.56

>  <source>  (12) 
ETAM_MSM

>  <Index>  (12) 
838

$$$$
ETAM-pdb2dzd-B-LYS-163:MSM-pdb2dzd-B-MET-173
     RDKit          3D

 20 18  0  0  0  0  0  0  0  0999 V2000
    1.2636    0.8656    0.0000 C   0  0  0  0  0  0  0  0  0  0  0  0
    1.1535    1.5783    0.6779 H   0  0  0  0  0  0  0  0  0  0  0  0
    1.3796    1.2470   -0.9056 H   0  0  0  0  0  0  0  0  0  0  0  0
    2.1380    0.2653    0.2512 H   0  0  0  0  0  0  0  0  0  0  0  0
    0.0000    0.0000    0.0000 C   0  0  0  0  0  0  0  0  0  0  0  0
    0.0170   -0.5928   -0.8161 H   0  0  0  0  0  0  0  0  0  0  0  0
    0.0165   -0.5927    0.8164 H   0  0  0  0  0  0  0  0  0  0  0  0
   -1.2636    0.7940    0.0000 N   0  0  0  0  0  4  0  0  0  0  0  0
   -1.8224    0.5246   -0.7835 H   0  0  0  0  0  0  0  0  0  0  0  0
   -1.7641    0.6170    0.8468 H   0  0  0  0  0  0  0  0  0  0  0  0
   -1.0418    1.7656   -0.0627 H   0  0  0  0  0  0  0  0  0  0  0  0
    1.3497   -2.7866   -1.7242 C   0  0  0  0  0  0  0  0  0  0  0  0
    1.3594   -3.7494   -1.3655 H   0  0  0  0  0  0  0  0  0  0  0  0
    1.5415   -2.1932   -0.9080 H   0  0  0  0  0  0  0  0  0  0  0  0
    2.1668   -2.6735   -2.4367 H   0  0  0  0  0  0  0  0  0  0  0  0
   -0.2546   -2.3900   -2.4348 S   0  0  0  0  0  0  0  0  0  0  0  0
    0.0949   -0.8368   -3.2096 C   0  0  0  0  0  0  0  0  0  0  0  0
    0.7350   -0.9669   -3.9722 H   0  0  0  0  0  0  0  0  0  0  0  0
   -0.7522   -0.4286   -3.5645 H   0  0  0  0  0  0  0  0  0  0  0  0
    0.5065   -0.2040   -2.5464 H   0  0  0  0  0  0  0  0  0  0  0  0
  1  5  1  0
  5  8  1  0
  1  2  1  0
  1  3  1  0
  1  4  1  0
  5  6  1  0
  5  7  1  0
  8  9  1  0
  8 10  1  0
  8 11  1  0
 12 16  1  0
 16 17  1  0
 12 13  1  0
 12 14  1  0
 12 15  1  0
 17 18  1  0
 17 19  1  0
 17 20  1  0
M  CHG  1   8   1
M  END
>  <PDB_ID>  (13) 
pdb2dzd

>  <RESIDUE_NAME>  (13) 
LYS   MET

>  <FRAG_NAME>  (13) 
ETAM   MSM

>  <FRAG_ATOM_NUM>  (13) 
fragi: 11  fragj: 9

>  <atom.prop.CHAIN_ID>  (13) 
A A A A A A A A A A A Z Z Z Z Z Z Z Z Z

>  <atom.prop.IS_HEAVY_ATOM>  (13) 
1 0 0 0 1 0 0 1 0 0 0 1 0 0 0 1 1 0 0 0

>  <DIFUSE_FUNC_ATOM>  (13) 
n/a

>  <FINAL_SINGLE_POINT_ENERGY>  (13) 
0

>  <NONCOV_INTER_ENERGY_QM>  (13) 
0

>  <FF_Energy>  (13) 
7.05

>  <QM_Energy>  (13) 
-3.69

>  <source>  (13) 
ETAM_MSM

>  <Index>  (13) 
846

$$$$
ETAM-pdb2e2d-A-LYS-249:MSM-pdb2e2d-C-MET-1135
     RDKit          3D

 20 18  0  0  0  0  0  0  0  0999 V2000
    1.2516    0.8688    0.0000 C   0  0  0  0  0  0  0  0  0  0  0  0
    1.0369    1.7337    0.4407 H   0  0  0  0  0  0  0  0  0  0  0  0
    1.5328    1.0192   -0.9415 H   0  0  0  0  0  0  0  0  0  0  0  0
    2.0696    0.3927    0.5408 H   0  0  0  0  0  0  0  0  0  0  0  0
    0.0000    0.0000    0.0000 C   0  0  0  0  0  0  0  0  0  0  0  0
    0.0108   -0.5853   -0.8159 H   0  0  0  0  0  0  0  0  0  0  0  0
    0.0114   -0.5856    0.8159 H   0  0  0  0  0  0  0  0  0  0  0  0
   -1.2516    0.8129    0.0000 N   0  0  0  0  0  4  0  0  0  0  0  0
   -1.9224    0.3844   -0.6029 H   0  0  0  0  0  0  0  0  0  0  0  0
   -1.6155    0.8580    0.9294 H   0  0  0  0  0  0  0  0  0  0  0  0
   -1.0461    1.7339   -0.3262 H   0  0  0  0  0  0  0  0  0  0  0  0
   -1.7854   -0.5379   -2.5592 C   0  0  0  0  0  0  0  0  0  0  0  0
   -2.2956    0.2703   -2.1773 H   0  0  0  0  0  0  0  0  0  0  0  0
   -1.3884   -1.0134   -1.7371 H   0  0  0  0  0  0  0  0  0  0  0  0
   -2.5076   -1.2073   -3.0266 H   0  0  0  0  0  0  0  0  0  0  0  0
   -0.4672    0.0103   -3.6753 S   0  0  0  0  0  0  0  0  0  0  0  0
   -1.3558    0.1588   -5.2397 C   0  0  0  0  0  0  0  0  0  0  0  0
   -1.1063    1.0203   -5.6791 H   0  0  0  0  0  0  0  0  0  0  0  0
   -1.1077   -0.6052   -5.8326 H   0  0  0  0  0  0  0  0  0  0  0  0
   -2.3385    0.1426   -5.0618 H   0  0  0  0  0  0  0  0  0  0  0  0
  1  5  1  0
  5  8  1  0
  1  2  1  0
  1  3  1  0
  1  4  1  0
  5  6  1  0
  5  7  1  0
  8  9  1  0
  8 10  1  0
  8 11  1  0
 12 16  1  0
 16 17  1  0
 12 13  1  0
 12 14  1  0
 12 15  1  0
 17 18  1  0
 17 19  1  0
 17 20  1  0
M  CHG  1   8   1
M  END
>  <PDB_ID>  (14) 
pdb2e2d

>  <RESIDUE_NAME>  (14) 
LYS   MET

>  <FRAG_NAME>  (14) 
ETAM   MSM

>  <FRAG_ATOM_NUM>  (14) 
fragi: 11  fragj: 9

>  <atom.prop.CHAIN_ID>  (14) 
A A A A A A A A A A A Z Z Z Z Z Z Z Z Z

>  <atom.prop.IS_HEAVY_ATOM>  (14) 
1 0 0 0 1 0 0 1 0 0 0 1 0 0 0 1 1 0 0 0

>  <DIFUSE_FUNC_ATOM>  (14) 
n/a

>  <FINAL_SINGLE_POINT_ENERGY>  (14) 
0

>  <NONCOV_INTER_ENERGY_QM>  (14) 
0

>  <FF_Energy>  (14) 
10.49

>  <QM_Energy>  (14) 
-0.4

>  <source>  (14) 
ETAM_MSM

>  <Index>  (14) 
854

$$$$
ETAM-pdb2ed6-K-LYS-123:MSM-pdb2ed6-K-MET-91
     RDKit          3D

 20 18  0  0  0  0  0  0  0  0999 V2000
    1.2429    0.8690    0.0000 C   0  0  0  0  0  0  0  0  0  0  0  0
    1.2658    1.3956   -0.8465 H   0  0  0  0  0  0  0  0  0  0  0  0
    2.0449    0.2801    0.0562 H   0  0  0  0  0  0  0  0  0  0  0  0
    1.2576    1.5609    0.8421 H   0  0  0  0  0  0  0  0  0  0  0  0
    0.0000    0.0000    0.0000 C   0  0  0  0  0  0  0  0  0  0  0  0
    0.0172   -0.5901   -0.8166 H   0  0  0  0  0  0  0  0  0  0  0  0
    0.0166   -0.5900    0.8162 H   0  0  0  0  0  0  0  0  0  0  0  0
   -1.2429    0.7990   -0.0000 N   0  0  0  0  0  4  0  0  0  0  0  0
   -1.4250    1.1387    0.9239 H   0  0  0  0  0  0  0  0  0  0  0  0
   -1.1437    1.5761   -0.6237 H   0  0  0  0  0  0  0  0  0  0  0  0
   -2.0096    0.2295   -0.3006 H   0  0  0  0  0  0  0  0  0  0  0  0
   -2.3418    3.8366   -2.5767 C   0  0  0  0  0  0  0  0  0  0  0  0
   -3.0108    4.1527   -1.8840 H   0  0  0  0  0  0  0  0  0  0  0  0
   -2.6696    2.9423   -2.9246 H   0  0  0  0  0  0  0  0  0  0  0  0
   -2.3192    4.5515   -3.3991 H   0  0  0  0  0  0  0  0  0  0  0  0
   -0.6894    3.6616   -1.8319 S   0  0  0  0  0  0  0  0  0  0  0  0
   -0.7117    4.9727   -0.6147 C   0  0  0  0  0  0  0  0  0  0  0  0
   -0.5847    5.8563   -1.0691 H   0  0  0  0  0  0  0  0  0  0  0  0
   -1.5903    4.9712   -0.1339 H   0  0  0  0  0  0  0  0  0  0  0  0
    0.0276    4.8318    0.0461 H   0  0  0  0  0  0  0  0  0  0  0  0
  1  5  1  0
  5  8  1  0
  1  2  1  0
  1  3  1  0
  1  4  1  0
  5  6  1  0
  5  7  1  0
  8  9  1  0
  8 10  1  0
  8 11  1  0
 12 16  1  0
 16 17  1  0
 12 13  1  0
 12 14  1  0
 12 15  1  0
 17 18  1  0
 17 19  1  0
 17 20  1  0
M  CHG  1   8   1
M  END
>  <PDB_ID>  (15) 
pdb2ed6

>  <RESIDUE_NAME>  (15) 
LYS   MET

>  <FRAG_NAME>  (15) 
ETAM   MSM

>  <FRAG_ATOM_NUM>  (15) 
fragi: 11  fragj: 9

>  <atom.prop.CHAIN_ID>  (15) 
A A A A A A A A A A A Z Z Z Z Z Z Z Z Z

>  <atom.prop.IS_HEAVY_ATOM>  (15) 
1 0 0 0 1 0 0 1 0 0 0 1 0 0 0 1 1 0 0 0

>  <DIFUSE_FUNC_ATOM>  (15) 
n/a

>  <FINAL_SINGLE_POINT_ENERGY>  (15) 
0

>  <NONCOV_INTER_ENERGY_QM>  (15) 
0

>  <FF_Energy>  (15) 
-5.44

>  <QM_Energy>  (15) 
-16.28

>  <source>  (15) 
ETAM_MSM

>  <Index>  (15) 
937

$$$$
ETAM-pdb2ed6-E-LYS-123:MSM-pdb2ed6-E-MET-91
     RDKit          3D

 20 18  0  0  0  0  0  0  0  0999 V2000
    1.2459    0.8718    0.0000 C   0  0  0  0  0  0  0  0  0  0  0  0
    1.2391    1.4380   -0.8229 H   0  0  0  0  0  0  0  0  0  0  0  0
    2.0500    0.2794   -0.0047 H   0  0  0  0  0  0  0  0  0  0  0  0
    1.3005    1.5256    0.8705 H   0  0  0  0  0  0  0  0  0  0  0  0
    0.0000    0.0000    0.0000 C   0  0  0  0  0  0  0  0  0  0  0  0
    0.0174   -0.5879   -0.8161 H   0  0  0  0  0  0  0  0  0  0  0  0
    0.0166   -0.5887    0.8163 H   0  0  0  0  0  0  0  0  0  0  0  0
   -1.2459    0.8004    0.0000 N   0  0  0  0  0  4  0  0  0  0  0  0
   -1.9536    0.3187   -0.5190 H   0  0  0  0  0  0  0  0  0  0  0  0
   -1.5584    0.9348    0.9415 H   0  0  0  0  0  0  0  0  0  0  0  0
   -1.0721    1.6908   -0.4221 H   0  0  0  0  0  0  0  0  0  0  0  0
   -3.3823    3.4624   -1.3653 C   0  0  0  0  0  0  0  0  0  0  0  0
   -3.8617    3.6268   -0.4831 H   0  0  0  0  0  0  0  0  0  0  0  0
   -3.7099    2.5643   -1.7131 H   0  0  0  0  0  0  0  0  0  0  0  0
   -3.6744    4.2399   -2.0713 H   0  0  0  0  0  0  0  0  0  0  0  0
   -1.5850    3.4349   -1.1213 S   0  0  0  0  0  0  0  0  0  0  0  0
   -1.4140    4.7680    0.1490 C   0  0  0  0  0  0  0  0  0  0  0  0
   -0.8805    5.5041   -0.2482 H   0  0  0  0  0  0  0  0  0  0  0  0
   -2.3236    5.0807    0.3897 H   0  0  0  0  0  0  0  0  0  0  0  0
   -0.9523    4.3826    0.9380 H   0  0  0  0  0  0  0  0  0  0  0  0
  1  5  1  0
  5  8  1  0
  1  2  1  0
  1  3  1  0
  1  4  1  0
  5  6  1  0
  5  7  1  0
  8  9  1  0
  8 10  1  0
  8 11  1  0
 12 16  1  0
 16 17  1  0
 12 13  1  0
 12 14  1  0
 12 15  1  0
 17 18  1  0
 17 19  1  0
 17 20  1  0
M  CHG  1   8   1
M  END
>  <PDB_ID>  (16) 
pdb2ed6

>  <RESIDUE_NAME>  (16) 
LYS   MET

>  <FRAG_NAME>  (16) 
ETAM   MSM

>  <FRAG_ATOM_NUM>  (16) 
fragi: 11  fragj: 9

>  <atom.prop.CHAIN_ID>  (16) 
A A A A A A A A A A A Z Z Z Z Z Z Z Z Z

>  <atom.prop.IS_HEAVY_ATOM>  (16) 
1 0 0 0 1 0 0 1 0 0 0 1 0 0 0 1 1 0 0 0

>  <DIFUSE_FUNC_ATOM>  (16) 
n/a

>  <FINAL_SINGLE_POINT_ENERGY>  (16) 
0

>  <NONCOV_INTER_ENERGY_QM>  (16) 
0

>  <FF_Energy>  (16) 
-0.93

>  <QM_Energy>  (16) 
-11.91

>  <source>  (16) 
ETAM_MSM

>  <Index>  (16) 
956

$$$$
ETAM-pdb2ed6-F-LYS-123:MSM-pdb2ed6-F-MET-91
     RDKit          3D

 20 18  0  0  0  0  0  0  0  0999 V2000
    1.2523    0.8612   -0.0000 C   0  0  0  0  0  0  0  0  0  0  0  0
    1.2449    1.4365   -0.8159 H   0  0  0  0  0  0  0  0  0  0  0  0
    2.0516    0.2634   -0.0163 H   0  0  0  0  0  0  0  0  0  0  0  0
    1.3178    1.5049    0.8772 H   0  0  0  0  0  0  0  0  0  0  0  0
    0.0000    0.0000    0.0000 C   0  0  0  0  0  0  0  0  0  0  0  0
    0.0111   -0.5908   -0.8163 H   0  0  0  0  0  0  0  0  0  0  0  0
    0.0107   -0.5912    0.8161 H   0  0  0  0  0  0  0  0  0  0  0  0
   -1.2523    0.8048    0.0000 N   0  0  0  0  0  4  0  0  0  0  0  0
   -1.0223    1.7757    0.0530 H   0  0  0  0  0  0  0  0  0  0  0  0
   -1.7611    0.6262   -0.8419 H   0  0  0  0  0  0  0  0  0  0  0  0
   -1.8109    0.5494    0.7886 H   0  0  0  0  0  0  0  0  0  0  0  0
   -3.3102    3.4888   -1.2442 C   0  0  0  0  0  0  0  0  0  0  0  0
   -3.7722    3.6062   -0.3534 H   0  0  0  0  0  0  0  0  0  0  0  0
   -3.5714    2.5836   -1.6102 H   0  0  0  0  0  0  0  0  0  0  0  0
   -3.6460    4.2667   -1.9300 H   0  0  0  0  0  0  0  0  0  0  0  0
   -1.4543    3.5459   -0.9937 S   0  0  0  0  0  0  0  0  0  0  0  0
   -1.3654    4.8051    0.2656 C   0  0  0  0  0  0  0  0  0  0  0  0
   -1.5415    5.7049   -0.1408 H   0  0  0  0  0  0  0  0  0  0  0  0
   -2.0508    4.6252    0.9751 H   0  0  0  0  0  0  0  0  0  0  0  0
   -0.4537    4.8054    0.6824 H   0  0  0  0  0  0  0  0  0  0  0  0
  1  5  1  0
  5  8  1  0
  1  2  1  0
  1  3  1  0
  1  4  1  0
  5  6  1  0
  5  7  1  0
  8  9  1  0
  8 10  1  0
  8 11  1  0
 12 16  1  0
 16 17  1  0
 12 13  1  0
 12 14  1  0
 12 15  1  0
 17 18  1  0
 17 19  1  0
 17 20  1  0
M  CHG  1   8   1
M  END
>  <PDB_ID>  (17) 
pdb2ed6

>  <RESIDUE_NAME>  (17) 
LYS   MET

>  <FRAG_NAME>  (17) 
ETAM   MSM

>  <FRAG_ATOM_NUM>  (17) 
fragi: 11  fragj: 9

>  <atom.prop.CHAIN_ID>  (17) 
A A A A A A A A A A A Z Z Z Z Z Z Z Z Z

>  <atom.prop.IS_HEAVY_ATOM>  (17) 
1 0 0 0 1 0 0 1 0 0 0 1 0 0 0 1 1 0 0 0

>  <DIFUSE_FUNC_ATOM>  (17) 
n/a

>  <FINAL_SINGLE_POINT_ENERGY>  (17) 
0

>  <NONCOV_INTER_ENERGY_QM>  (17) 
0

>  <FF_Energy>  (17) 
-1.91

>  <QM_Energy>  (17) 
-12.21

>  <source>  (17) 
ETAM_MSM

>  <Index>  (17) 
962

$$$$
ETAM-pdb1e0t-D-LYS-266:MSM-pdb1e0t-D-MET-262
     RDKit          3D

 20 18  0  0  0  0  0  0  0  0999 V2000
    1.1195    0.9989   -0.0000 C   0  0  0  0  0  0  0  0  0  0  0  0
    1.0438    1.5766    0.8097 H   0  0  0  0  0  0  0  0  0  0  0  0
    1.0591    1.5591   -0.8232 H   0  0  0  0  0  0  0  0  0  0  0  0
    2.0962    0.5152    0.0151 H   0  0  0  0  0  0  0  0  0  0  0  0
    0.0000    0.0000    0.0000 C   0  0  0  0  0  0  0  0  0  0  0  0
    0.0182   -0.5019   -0.8162 H   0  0  0  0  0  0  0  0  0  0  0  0
    0.0180   -0.5024    0.8162 H   0  0  0  0  0  0  0  0  0  0  0  0
   -1.1195    0.9322   -0.0000 N   0  0  0  0  0  4  0  0  0  0  0  0
   -1.3681    1.1763    0.9427 H   0  0  0  0  0  0  0  0  0  0  0  0
   -0.8738    1.7707   -0.4964 H   0  0  0  0  0  0  0  0  0  0  0  0
   -1.9181    0.5159   -0.4463 H   0  0  0  0  0  0  0  0  0  0  0  0
   -0.0560   -2.1389    3.0815 C   0  0  0  0  0  0  0  0  0  0  0  0
    0.3566   -2.4230    2.1499 H   0  0  0  0  0  0  0  0  0  0  0  0
   -1.0186   -2.5733    3.0173 H   0  0  0  0  0  0  0  0  0  0  0  0
    0.4926   -2.6710    3.8587 H   0  0  0  0  0  0  0  0  0  0  0  0
   -0.1680   -0.3810    3.2076 S   0  0  0  0  0  0  0  0  0  0  0  0
   -0.9204   -0.2468    4.8869 C   0  0  0  0  0  0  0  0  0  0  0  0
   -1.6417    0.4339    4.8484 H   0  0  0  0  0  0  0  0  0  0  0  0
   -1.2870   -1.1354    5.1330 H   0  0  0  0  0  0  0  0  0  0  0  0
   -0.2098    0.0287    5.5225 H   0  0  0  0  0  0  0  0  0  0  0  0
  1  5  1  0
  5  8  1  0
  1  2  1  0
  1  3  1  0
  1  4  1  0
  5  6  1  0
  5  7  1  0
  8  9  1  0
  8 10  1  0
  8 11  1  0
 12 16  1  0
 16 17  1  0
 12 13  1  0
 12 14  1  0
 12 15  1  0
 17 18  1  0
 17 19  1  0
 17 20  1  0
M  CHG  1   8   1
M  END
>  <PDB_ID>  (18) 
pdb1e0t

>  <RESIDUE_NAME>  (18) 
LYS   MET

>  <FRAG_NAME>  (18) 
ETAM   MSM

>  <FRAG_ATOM_NUM>  (18) 
fragi: 11  fragj: 9

>  <atom.prop.CHAIN_ID>  (18) 
A A A A A A A A A A A Z Z Z Z Z Z Z Z Z

>  <atom.prop.IS_HEAVY_ATOM>  (18) 
1 0 0 0 1 0 0 1 0 0 0 1 0 0 0 1 1 0 0 0

>  <DIFUSE_FUNC_ATOM>  (18) 
n/a

>  <FINAL_SINGLE_POINT_ENERGY>  (18) 
0

>  <NONCOV_INTER_ENERGY_QM>  (18) 
0

>  <FF_Energy>  (18) 
0.45

>  <QM_Energy>  (18) 
-11.6

>  <source>  (18) 
ETAM_MSM

>  <Index>  (18) 
1020

$$$$
ETAM-pdb2ed6-C-LYS-123:MSM-pdb2ed6-C-MET-91
     RDKit          3D

 20 18  0  0  0  0  0  0  0  0999 V2000
    1.2450    0.8701    0.0000 C   0  0  0  0  0  0  0  0  0  0  0  0
    1.2324    1.4454   -0.8178 H   0  0  0  0  0  0  0  0  0  0  0  0
    2.0482    0.2769   -0.0191 H   0  0  0  0  0  0  0  0  0  0  0  0
    1.3060    1.5133    0.8779 H   0  0  0  0  0  0  0  0  0  0  0  0
    0.0000    0.0000    0.0000 C   0  0  0  0  0  0  0  0  0  0  0  0
    0.0180   -0.5900   -0.8166 H   0  0  0  0  0  0  0  0  0  0  0  0
    0.0173   -0.5898    0.8159 H   0  0  0  0  0  0  0  0  0  0  0  0
   -1.2450    0.7979   -0.0000 N   0  0  0  0  0  4  0  0  0  0  0  0
   -1.0200    1.7733   -0.0167 H   0  0  0  0  0  0  0  0  0  0  0  0
   -1.7897    0.5703   -0.8081 H   0  0  0  0  0  0  0  0  0  0  0  0
   -1.7750    0.5941    0.8246 H   0  0  0  0  0  0  0  0  0  0  0  0
   -3.4254    3.4984   -1.2032 C   0  0  0  0  0  0  0  0  0  0  0  0
   -3.8900    3.6258   -0.3109 H   0  0  0  0  0  0  0  0  0  0  0  0
   -3.7146    2.5955   -1.5655 H   0  0  0  0  0  0  0  0  0  0  0  0
   -3.7478    4.2812   -1.8897 H   0  0  0  0  0  0  0  0  0  0  0  0
   -1.6061    3.5312   -0.9753 S   0  0  0  0  0  0  0  0  0  0  0  0
   -1.4446    4.7461    0.3316 C   0  0  0  0  0  0  0  0  0  0  0  0
   -2.1852    5.4154    0.2602 H   0  0  0  0  0  0  0  0  0  0  0  0
   -1.4936    4.2904    1.2215 H   0  0  0  0  0  0  0  0  0  0  0  0
   -0.5645    5.2146    0.2466 H   0  0  0  0  0  0  0  0  0  0  0  0
  1  5  1  0
  5  8  1  0
  1  2  1  0
  1  3  1  0
  1  4  1  0
  5  6  1  0
  5  7  1  0
  8  9  1  0
  8 10  1  0
  8 11  1  0
 12 16  1  0
 16 17  1  0
 12 13  1  0
 12 14  1  0
 12 15  1  0
 17 18  1  0
 17 19  1  0
 17 20  1  0
M  CHG  1   8   1
M  END
>  <PDB_ID>  (19) 
pdb2ed6

>  <RESIDUE_NAME>  (19) 
LYS   MET

>  <FRAG_NAME>  (19) 
ETAM   MSM

>  <FRAG_ATOM_NUM>  (19) 
fragi: 11  fragj: 9

>  <atom.prop.CHAIN_ID>  (19) 
A A A A A A A A A A A Z Z Z Z Z Z Z Z Z

>  <atom.prop.IS_HEAVY_ATOM>  (19) 
1 0 0 0 1 0 0 1 0 0 0 1 0 0 0 1 1 0 0 0

>  <DIFUSE_FUNC_ATOM>  (19) 
n/a

>  <FINAL_SINGLE_POINT_ENERGY>  (19) 
0

>  <NONCOV_INTER_ENERGY_QM>  (19) 
0

>  <FF_Energy>  (19) 
-1.99

>  <QM_Energy>  (19) 
-12.12

>  <source>  (19) 
ETAM_MSM

>  <Index>  (19) 
1038

$$$$
ETAM-pdb2ed6-D-LYS-123:MSM-pdb2ed6-D-MET-91
     RDKit          3D

 20 18  0  0  0  0  0  0  0  0999 V2000
    1.2465    0.8700    0.0000 C   0  0  0  0  0  0  0  0  0  0  0  0
    1.2285    1.4534   -0.8104 H   0  0  0  0  0  0  0  0  0  0  0  0
    2.0493    0.2771   -0.0299 H   0  0  0  0  0  0  0  0  0  0  0  0
    1.3141    1.5046    0.8836 H   0  0  0  0  0  0  0  0  0  0  0  0
    0.0000    0.0000    0.0000 C   0  0  0  0  0  0  0  0  0  0  0  0
    0.0162   -0.5886   -0.8164 H   0  0  0  0  0  0  0  0  0  0  0  0
    0.0153   -0.5886    0.8164 H   0  0  0  0  0  0  0  0  0  0  0  0
   -1.2465    0.8022   -0.0000 N   0  0  0  0  0  4  0  0  0  0  0  0
   -1.9500    0.3274   -0.5293 H   0  0  0  0  0  0  0  0  0  0  0  0
   -1.5648    0.9256    0.9400 H   0  0  0  0  0  0  0  0  0  0  0  0
   -1.0689    1.6971   -0.4113 H   0  0  0  0  0  0  0  0  0  0  0  0
   -3.3897    3.5418   -1.2033 C   0  0  0  0  0  0  0  0  0  0  0  0
   -3.8712    3.6996   -0.3235 H   0  0  0  0  0  0  0  0  0  0  0  0
   -3.6911    2.6365   -1.5499 H   0  0  0  0  0  0  0  0  0  0  0  0
   -3.6899    4.3118   -1.9140 H   0  0  0  0  0  0  0  0  0  0  0  0
   -1.5955    3.5646   -0.9603 S   0  0  0  0  0  0  0  0  0  0  0  0
   -1.4137    4.7811    0.3152 C   0  0  0  0  0  0  0  0  0  0  0  0
   -0.8247    4.4280    1.0475 H   0  0  0  0  0  0  0  0  0  0  0  0
   -1.0003    5.6155   -0.0598 H   0  0  0  0  0  0  0  0  0  0  0  0
   -2.3108    5.0107    0.7035 H   0  0  0  0  0  0  0  0  0  0  0  0
  1  5  1  0
  5  8  1  0
  1  2  1  0
  1  3  1  0
  1  4  1  0
  5  6  1  0
  5  7  1  0
  8  9  1  0
  8 10  1  0
  8 11  1  0
 12 16  1  0
 16 17  1  0
 12 13  1  0
 12 14  1  0
 12 15  1  0
 17 18  1  0
 17 19  1  0
 17 20  1  0
M  CHG  1   8   1
M  END
>  <PDB_ID>  (20) 
pdb2ed6

>  <RESIDUE_NAME>  (20) 
LYS   MET

>  <FRAG_NAME>  (20) 
ETAM   MSM

>  <FRAG_ATOM_NUM>  (20) 
fragi: 11  fragj: 9

>  <atom.prop.CHAIN_ID>  (20) 
A A A A A A A A A A A Z Z Z Z Z Z Z Z Z

>  <atom.prop.IS_HEAVY_ATOM>  (20) 
1 0 0 0 1 0 0 1 0 0 0 1 0 0 0 1 1 0 0 0

>  <DIFUSE_FUNC_ATOM>  (20) 
n/a

>  <FINAL_SINGLE_POINT_ENERGY>  (20) 
0

>  <NONCOV_INTER_ENERGY_QM>  (20) 
0

>  <FF_Energy>  (20) 
-2.61

>  <QM_Energy>  (20) 
-13.35

>  <source>  (20) 
ETAM_MSM

>  <Index>  (20) 
1045

$$$$
ETAM-pdb2f5z-B-LYS-92:MSM-pdb2f5z-B-MET-89
     RDKit          3D

 20 18  0  0  0  0  0  0  0  0999 V2000
    1.2705    0.8602   -0.0000 C   0  0  0  0  0  0  0  0  0  0  0  0
    1.2373    1.4738    0.7876 H   0  0  0  0  0  0  0  0  0  0  0  0
    1.2914    1.3939   -0.8433 H   0  0  0  0  0  0  0  0  0  0  0  0
    2.1868    0.2729    0.0598 H   0  0  0  0  0  0  0  0  0  0  0  0
    0.0000    0.0000    0.0000 C   0  0  0  0  0  0  0  0  0  0  0  0
    0.0002   -0.5823   -0.8162 H   0  0  0  0  0  0  0  0  0  0  0  0
   -0.0005   -0.5822    0.8165 H   0  0  0  0  0  0  0  0  0  0  0  0
   -1.2705    0.8313   -0.0000 N   0  0  0  0  0  4  0  0  0  0  0  0
   -1.9785    0.3280    0.4859 H   0  0  0  0  0  0  0  0  0  0  0  0
   -1.0839    1.6951    0.4568 H   0  0  0  0  0  0  0  0  0  0  0  0
   -1.5439    0.9907   -0.9431 H   0  0  0  0  0  0  0  0  0  0  0  0
   -2.5516   -0.3997   -4.0893 C   0  0  0  0  0  0  0  0  0  0  0  0
   -2.2259   -0.3026   -5.0522 H   0  0  0  0  0  0  0  0  0  0  0  0
   -3.5712   -0.3526   -4.1300 H   0  0  0  0  0  0  0  0  0  0  0  0
   -2.2608   -1.3832   -3.7201 H   0  0  0  0  0  0  0  0  0  0  0  0
   -1.8924    0.9270   -3.0562 S   0  0  0  0  0  0  0  0  0  0  0  0
   -2.0909    2.3720   -4.1074 C   0  0  0  0  0  0  0  0  0  0  0  0
   -1.7701    2.1588   -5.0297 H   0  0  0  0  0  0  0  0  0  0  0  0
   -3.0572    2.6284   -4.1408 H   0  0  0  0  0  0  0  0  0  0  0  0
   -1.5562    3.1301   -3.7342 H   0  0  0  0  0  0  0  0  0  0  0  0
  1  5  1  0
  5  8  1  0
  1  2  1  0
  1  3  1  0
  1  4  1  0
  5  6  1  0
  5  7  1  0
  8  9  1  0
  8 10  1  0
  8 11  1  0
 12 16  1  0
 16 17  1  0
 12 13  1  0
 12 14  1  0
 12 15  1  0
 17 18  1  0
 17 19  1  0
 17 20  1  0
M  CHG  1   8   1
M  END
>  <PDB_ID>  (21) 
pdb2f5z

>  <RESIDUE_NAME>  (21) 
LYS   MET

>  <FRAG_NAME>  (21) 
ETAM   MSM

>  <FRAG_ATOM_NUM>  (21) 
fragi: 11  fragj: 9

>  <atom.prop.CHAIN_ID>  (21) 
A A A A A A A A A A A Z Z Z Z Z Z Z Z Z

>  <atom.prop.IS_HEAVY_ATOM>  (21) 
1 0 0 0 1 0 0 1 0 0 0 1 0 0 0 1 1 0 0 0

>  <DIFUSE_FUNC_ATOM>  (21) 
n/a

>  <FINAL_SINGLE_POINT_ENERGY>  (21) 
0

>  <NONCOV_INTER_ENERGY_QM>  (21) 
0

>  <FF_Energy>  (21) 
-5.46

>  <QM_Energy>  (21) 
-16.5

>  <source>  (21) 
ETAM_MSM

>  <Index>  (21) 
1149

$$$$
ETAM-pdb2f5z-F-LYS-92:MSM-pdb2f5z-F-MET-89
     RDKit          3D

 20 18  0  0  0  0  0  0  0  0999 V2000
    1.2580    0.8777   -0.0000 C   0  0  0  0  0  0  0  0  0  0  0  0
    1.2111    1.4977    0.7691 H   0  0  0  0  0  0  0  0  0  0  0  0
    1.2995    1.3694   -0.8563 H   0  0  0  0  0  0  0  0  0  0  0  0
    2.1565    0.2684    0.0978 H   0  0  0  0  0  0  0  0  0  0  0  0
    0.0000    0.0000    0.0000 C   0  0  0  0  0  0  0  0  0  0  0  0
    0.0228   -0.5891   -0.8165 H   0  0  0  0  0  0  0  0  0  0  0  0
    0.0231   -0.5893    0.8166 H   0  0  0  0  0  0  0  0  0  0  0  0
   -1.2580    0.7914   -0.0000 N   0  0  0  0  0  4  0  0  0  0  0  0
   -1.9927    0.2476    0.4048 H   0  0  0  0  0  0  0  0  0  0  0  0
   -1.1262    1.6255    0.5351 H   0  0  0  0  0  0  0  0  0  0  0  0
   -1.4997    1.0323   -0.9404 H   0  0  0  0  0  0  0  0  0  0  0  0
   -1.8291    0.1170   -4.6390 C   0  0  0  0  0  0  0  0  0  0  0  0
   -1.2739    0.3328   -5.4559 H   0  0  0  0  0  0  0  0  0  0  0  0
   -2.8026    0.2107   -4.8950 H   0  0  0  0  0  0  0  0  0  0  0  0
   -1.6315   -0.9080   -4.3253 H   0  0  0  0  0  0  0  0  0  0  0  0
   -1.4231    1.2628   -3.2824 S   0  0  0  0  0  0  0  0  0  0  0  0
   -1.6884    2.8043   -4.0721 C   0  0  0  0  0  0  0  0  0  0  0  0
   -2.2796    3.3952   -3.5091 H   0  0  0  0  0  0  0  0  0  0  0  0
   -0.8133    3.2822   -4.2213 H   0  0  0  0  0  0  0  0  0  0  0  0
   -2.1333    2.6728   -4.9664 H   0  0  0  0  0  0  0  0  0  0  0  0
  1  5  1  0
  5  8  1  0
  1  2  1  0
  1  3  1  0
  1  4  1  0
  5  6  1  0
  5  7  1  0
  8  9  1  0
  8 10  1  0
  8 11  1  0
 12 16  1  0
 16 17  1  0
 12 13  1  0
 12 14  1  0
 12 15  1  0
 17 18  1  0
 17 19  1  0
 17 20  1  0
M  CHG  1   8   1
M  END
>  <PDB_ID>  (22) 
pdb2f5z

>  <RESIDUE_NAME>  (22) 
LYS   MET

>  <FRAG_NAME>  (22) 
ETAM   MSM

>  <FRAG_ATOM_NUM>  (22) 
fragi: 11  fragj: 9

>  <atom.prop.CHAIN_ID>  (22) 
A A A A A A A A A A A Z Z Z Z Z Z Z Z Z

>  <atom.prop.IS_HEAVY_ATOM>  (22) 
1 0 0 0 1 0 0 1 0 0 0 1 0 0 0 1 1 0 0 0

>  <DIFUSE_FUNC_ATOM>  (22) 
n/a

>  <FINAL_SINGLE_POINT_ENERGY>  (22) 
0

>  <NONCOV_INTER_ENERGY_QM>  (22) 
0

>  <FF_Energy>  (22) 
-6.14

>  <QM_Energy>  (22) 
-16.63

>  <source>  (22) 
ETAM_MSM

>  <Index>  (22) 
1201

$$$$
ETAM-pdb1ew6-A-LYS-41:MSM-pdb1ew6-A-MET-49
     RDKit          3D

 20 18  0  0  0  0  0  0  0  0999 V2000
    1.2535    0.8631    0.0000 C   0  0  0  0  0  0  0  0  0  0  0  0
    1.2092    1.4825   -0.7778 H   0  0  0  0  0  0  0  0  0  0  0  0
    2.0464    0.2671   -0.0777 H   0  0  0  0  0  0  0  0  0  0  0  0
    1.3337    1.4472    0.9167 H   0  0  0  0  0  0  0  0  0  0  0  0
    0.0000    0.0000    0.0000 C   0  0  0  0  0  0  0  0  0  0  0  0
    0.0103   -0.5880   -0.8165 H   0  0  0  0  0  0  0  0  0  0  0  0
    0.0096   -0.5888    0.8164 H   0  0  0  0  0  0  0  0  0  0  0  0
   -1.2535    0.8093   -0.0000 N   0  0  0  0  0  4  0  0  0  0  0  0
   -1.9709    0.3062    0.4805 H   0  0  0  0  0  0  0  0  0  0  0  0
   -1.0846    1.6784    0.4626 H   0  0  0  0  0  0  0  0  0  0  0  0
   -1.5361    0.9798   -0.9427 H   0  0  0  0  0  0  0  0  0  0  0  0
    3.5957   -2.2916   -2.5791 C   0  0  0  0  0  0  0  0  0  0  0  0
    3.2212   -3.1732   -2.1990 H   0  0  0  0  0  0  0  0  0  0  0  0
    4.3879   -2.0555   -1.9629 H   0  0  0  0  0  0  0  0  0  0  0  0
    3.9887   -2.4925   -3.5758 H   0  0  0  0  0  0  0  0  0  0  0  0
    2.3400   -0.9916   -2.5319 S   0  0  0  0  0  0  0  0  0  0  0  0
    0.8128   -1.9580   -2.5985 C   0  0  0  0  0  0  0  0  0  0  0  0
    0.3257   -1.8595   -1.7325 H   0  0  0  0  0  0  0  0  0  0  0  0
    0.2443   -1.6206   -3.3466 H   0  0  0  0  0  0  0  0  0  0  0  0
    1.0393   -2.9182   -2.7528 H   0  0  0  0  0  0  0  0  0  0  0  0
  1  5  1  0
  5  8  1  0
  1  2  1  0
  1  3  1  0
  1  4  1  0
  5  6  1  0
  5  7  1  0
  8  9  1  0
  8 10  1  0
  8 11  1  0
 12 16  1  0
 16 17  1  0
 12 13  1  0
 12 14  1  0
 12 15  1  0
 17 18  1  0
 17 19  1  0
 17 20  1  0
M  CHG  1   8   1
M  END
>  <PDB_ID>  (23) 
pdb1ew6

>  <RESIDUE_NAME>  (23) 
LYS   MET

>  <FRAG_NAME>  (23) 
ETAM   MSM

>  <FRAG_ATOM_NUM>  (23) 
fragi: 11  fragj: 9

>  <atom.prop.CHAIN_ID>  (23) 
A A A A A A A A A A A Z Z Z Z Z Z Z Z Z

>  <atom.prop.IS_HEAVY_ATOM>  (23) 
1 0 0 0 1 0 0 1 0 0 0 1 0 0 0 1 1 0 0 0

>  <DIFUSE_FUNC_ATOM>  (23) 
n/a

>  <FINAL_SINGLE_POINT_ENERGY>  (23) 
0

>  <NONCOV_INTER_ENERGY_QM>  (23) 
0

>  <FF_Energy>  (23) 
14.98

>  <QM_Energy>  (23) 
-1.2

>  <source>  (23) 
ETAM_MSM

>  <Index>  (23) 
1232

$$$$
ETAM-pdb2fv2-A-LYS-199:MSM-pdb2fv2-A-MET-195
     RDKit          3D

 20 18  0  0  0  0  0  0  0  0999 V2000
    1.2600    0.8720   -0.0000 C   0  0  0  0  0  0  0  0  0  0  0  0
    1.2318    1.4664   -0.7973 H   0  0  0  0  0  0  0  0  0  0  0  0
    2.0556    0.2762   -0.0397 H   0  0  0  0  0  0  0  0  0  0  0  0
    1.3297    1.4904    0.8949 H   0  0  0  0  0  0  0  0  0  0  0  0
    0.0000    0.0000    0.0000 C   0  0  0  0  0  0  0  0  0  0  0  0
    0.0152   -0.5869   -0.8165 H   0  0  0  0  0  0  0  0  0  0  0  0
    0.0149   -0.5870    0.8164 H   0  0  0  0  0  0  0  0  0  0  0  0
   -1.2600    0.8057   -0.0000 N   0  0  0  0  0  4  0  0  0  0  0  0
   -2.0433    0.1897   -0.0642 H   0  0  0  0  0  0  0  0  0  0  0  0
   -1.3131    1.3313    0.8468 H   0  0  0  0  0  0  0  0  0  0  0  0
   -1.2532    1.4253   -0.7828 H   0  0  0  0  0  0  0  0  0  0  0  0
   -3.1532    3.7861   -0.6412 C   0  0  0  0  0  0  0  0  0  0  0  0
   -3.1463    3.3603    0.2955 H   0  0  0  0  0  0  0  0  0  0  0  0
   -4.0313    3.4651   -1.0726 H   0  0  0  0  0  0  0  0  0  0  0  0
   -3.2007    4.8690   -0.5265 H   0  0  0  0  0  0  0  0  0  0  0  0
   -1.7251    3.2094   -1.6091 S   0  0  0  0  0  0  0  0  0  0  0  0
   -2.4116    3.2621   -3.3095 C   0  0  0  0  0  0  0  0  0  0  0  0
   -1.6934    3.0023   -3.9461 H   0  0  0  0  0  0  0  0  0  0  0  0
   -3.1713    2.6229   -3.3619 H   0  0  0  0  0  0  0  0  0  0  0  0
   -2.7219    4.1881   -3.4947 H   0  0  0  0  0  0  0  0  0  0  0  0
  1  5  1  0
  5  8  1  0
  1  2  1  0
  1  3  1  0
  1  4  1  0
  5  6  1  0
  5  7  1  0
  8  9  1  0
  8 10  1  0
  8 11  1  0
 12 16  1  0
 16 17  1  0
 12 13  1  0
 12 14  1  0
 12 15  1  0
 17 18  1  0
 17 19  1  0
 17 20  1  0
M  CHG  1   8   1
M  END
>  <PDB_ID>  (24) 
pdb2fv2

>  <RESIDUE_NAME>  (24) 
LYS   MET

>  <FRAG_NAME>  (24) 
ETAM   MSM

>  <FRAG_ATOM_NUM>  (24) 
fragi: 11  fragj: 9

>  <atom.prop.CHAIN_ID>  (24) 
A A A A A A A A A A A Z Z Z Z Z Z Z Z Z

>  <atom.prop.IS_HEAVY_ATOM>  (24) 
1 0 0 0 1 0 0 1 0 0 0 1 0 0 0 1 1 0 0 0

>  <DIFUSE_FUNC_ATOM>  (24) 
n/a

>  <FINAL_SINGLE_POINT_ENERGY>  (24) 
0

>  <NONCOV_INTER_ENERGY_QM>  (24) 
0

>  <FF_Energy>  (24) 
-2.03

>  <QM_Energy>  (24) 
-13.41

>  <source>  (24) 
ETAM_MSM

>  <Index>  (24) 
1288

$$$$
ETAM-pdb2fy2-A-LYS-64:MSM-pdb2fy2-A-MET-516
     RDKit          3D

 20 18  0  0  0  0  0  0  0  0999 V2000
    1.2357    0.8730    0.0000 C   0  0  0  0  0  0  0  0  0  0  0  0
    1.1876    1.4898    0.7749 H   0  0  0  0  0  0  0  0  0  0  0  0
    1.2661    1.3785   -0.8523 H   0  0  0  0  0  0  0  0  0  0  0  0
    2.1300    0.2558    0.0861 H   0  0  0  0  0  0  0  0  0  0  0  0
    0.0000    0.0000    0.0000 C   0  0  0  0  0  0  0  0  0  0  0  0
    0.0116   -0.5827   -0.8165 H   0  0  0  0  0  0  0  0  0  0  0  0
    0.0111   -0.5827    0.8161 H   0  0  0  0  0  0  0  0  0  0  0  0
   -1.2357    0.8178   -0.0000 N   0  0  0  0  0  4  0  0  0  0  0  0
   -2.0338    0.2189    0.0805 H   0  0  0  0  0  0  0  0  0  0  0  0
   -1.2169    1.4523    0.7739 H   0  0  0  0  0  0  0  0  0  0  0  0
   -1.2939    1.3362   -0.8536 H   0  0  0  0  0  0  0  0  0  0  0  0
   -2.6688    3.4731    0.3349 C   0  0  0  0  0  0  0  0  0  0  0  0
   -2.9308    2.7500   -0.3299 H   0  0  0  0  0  0  0  0  0  0  0  0
   -1.8562    3.9478   -0.0500 H   0  0  0  0  0  0  0  0  0  0  0  0
   -3.4883    4.1859    0.4266 H   0  0  0  0  0  0  0  0  0  0  0  0
   -2.2681    2.7371    1.9458 S   0  0  0  0  0  0  0  0  0  0  0  0
   -3.8893    2.2285    2.5182 C   0  0  0  0  0  0  0  0  0  0  0  0
   -4.0868    2.6661    3.3967 H   0  0  0  0  0  0  0  0  0  0  0  0
   -4.5812    2.5000    1.8481 H   0  0  0  0  0  0  0  0  0  0  0  0
   -3.9083    1.2337    2.6307 H   0  0  0  0  0  0  0  0  0  0  0  0
  1  5  1  0
  5  8  1  0
  1  2  1  0
  1  3  1  0
  1  4  1  0
  5  6  1  0
  5  7  1  0
  8  9  1  0
  8 10  1  0
  8 11  1  0
 12 16  1  0
 16 17  1  0
 12 13  1  0
 12 14  1  0
 12 15  1  0
 17 18  1  0
 17 19  1  0
 17 20  1  0
M  CHG  1   8   1
M  END
>  <PDB_ID>  (25) 
pdb2fy2

>  <RESIDUE_NAME>  (25) 
LYS   MET

>  <FRAG_NAME>  (25) 
ETAM   MSM

>  <FRAG_ATOM_NUM>  (25) 
fragi: 11  fragj: 9

>  <atom.prop.CHAIN_ID>  (25) 
A A A A A A A A A A A Z Z Z Z Z Z Z Z Z

>  <atom.prop.IS_HEAVY_ATOM>  (25) 
1 0 0 0 1 0 0 1 0 0 0 1 0 0 0 1 1 0 0 0

>  <DIFUSE_FUNC_ATOM>  (25) 
n/a

>  <FINAL_SINGLE_POINT_ENERGY>  (25) 
0

>  <NONCOV_INTER_ENERGY_QM>  (25) 
0

>  <FF_Energy>  (25) 
0.88

>  <QM_Energy>  (25) 
-10.23

>  <source>  (25) 
ETAM_MSM

>  <Index>  (25) 
1305

$$$$
ETAM-pdb1fg4-B-LYS-133:MSM-pdb1fg4-B-MET-130
     RDKit          3D

 20 18  0  0  0  0  0  0  0  0999 V2000
    1.2440    0.8989   -0.0000 C   0  0  0  0  0  0  0  0  0  0  0  0
    1.2769    1.3868    0.8698 H   0  0  0  0  0  0  0  0  0  0  0  0
    1.1592    1.5502   -0.7509 H   0  0  0  0  0  0  0  0  0  0  0  0
    2.1696    0.3367   -0.1233 H   0  0  0  0  0  0  0  0  0  0  0  0
    0.0000    0.0000    0.0000 C   0  0  0  0  0  0  0  0  0  0  0  0
    0.0047   -0.5603   -0.8164 H   0  0  0  0  0  0  0  0  0  0  0  0
    0.0049   -0.5596    0.8161 H   0  0  0  0  0  0  0  0  0  0  0  0
   -1.2440    0.8595   -0.0000 N   0  0  0  0  0  4  0  0  0  0  0  0
   -1.1014    1.6278    0.6174 H   0  0  0  0  0  0  0  0  0  0  0  0
   -1.4063    1.1880   -0.9261 H   0  0  0  0  0  0  0  0  0  0  0  0
   -2.0136    0.3085    0.3086 H   0  0  0  0  0  0  0  0  0  0  0  0
   -0.3355    2.2058   -4.6921 C   0  0  0  0  0  0  0  0  0  0  0  0
   -0.2329    3.2418   -4.6828 H   0  0  0  0  0  0  0  0  0  0  0  0
   -1.2187    2.0574   -5.2222 H   0  0  0  0  0  0  0  0  0  0  0  0
    0.4881    1.7833   -5.2677 H   0  0  0  0  0  0  0  0  0  0  0  0
   -0.5236    1.5846   -2.9869 S   0  0  0  0  0  0  0  0  0  0  0  0
    0.0240   -0.1357   -3.2615 C   0  0  0  0  0  0  0  0  0  0  0  0
   -0.2149   -0.4010   -4.1906 H   0  0  0  0  0  0  0  0  0  0  0  0
    1.0098   -0.1804   -3.1323 H   0  0  0  0  0  0  0  0  0  0  0  0
   -0.4371   -0.7253   -2.6052 H   0  0  0  0  0  0  0  0  0  0  0  0
  1  5  1  0
  5  8  1  0
  1  2  1  0
  1  3  1  0
  1  4  1  0
  5  6  1  0
  5  7  1  0
  8  9  1  0
  8 10  1  0
  8 11  1  0
 12 16  1  0
 16 17  1  0
 12 13  1  0
 12 14  1  0
 12 15  1  0
 17 18  1  0
 17 19  1  0
 17 20  1  0
M  CHG  1   8   1
M  END
>  <PDB_ID>  (26) 
pdb1fg4

>  <RESIDUE_NAME>  (26) 
LYS   MET

>  <FRAG_NAME>  (26) 
ETAM   MSM

>  <FRAG_ATOM_NUM>  (26) 
fragi: 11  fragj: 9

>  <atom.prop.CHAIN_ID>  (26) 
A A A A A A A A A A A Z Z Z Z Z Z Z Z Z

>  <atom.prop.IS_HEAVY_ATOM>  (26) 
1 0 0 0 1 0 0 1 0 0 0 1 0 0 0 1 1 0 0 0

>  <DIFUSE_FUNC_ATOM>  (26) 
n/a

>  <FINAL_SINGLE_POINT_ENERGY>  (26) 
0

>  <NONCOV_INTER_ENERGY_QM>  (26) 
0

>  <FF_Energy>  (26) 
-0.22

>  <QM_Energy>  (26) 
-10.7

>  <source>  (26) 
ETAM_MSM

>  <Index>  (26) 
1394

$$$$
ETAM-pdb2hc4-A-LYS-173:MSM-pdb2hc4-A-MET-275
     RDKit          3D

 20 18  0  0  0  0  0  0  0  0999 V2000
    1.2566    0.8688   -0.0000 C   0  0  0  0  0  0  0  0  0  0  0  0
    1.2375    1.4507    0.8070 H   0  0  0  0  0  0  0  0  0  0  0  0
    1.2551    1.4238   -0.8261 H   0  0  0  0  0  0  0  0  0  0  0  0
    2.1647    0.2663    0.0207 H   0  0  0  0  0  0  0  0  0  0  0  0
    0.0000    0.0000    0.0000 C   0  0  0  0  0  0  0  0  0  0  0  0
    0.0100   -0.5839   -0.8161 H   0  0  0  0  0  0  0  0  0  0  0  0
    0.0090   -0.5841    0.8165 H   0  0  0  0  0  0  0  0  0  0  0  0
   -1.2566    0.8176    0.0000 N   0  0  0  0  0  4  0  0  0  0  0  0
   -1.4466    1.1237   -0.9306 H   0  0  0  0  0  0  0  0  0  0  0  0
   -2.0115    0.2563    0.3333 H   0  0  0  0  0  0  0  0  0  0  0  0
   -1.1322    1.6073    0.5977 H   0  0  0  0  0  0  0  0  0  0  0  0
   -1.0575    4.1508    4.3227 C   0  0  0  0  0  0  0  0  0  0  0  0
   -2.0178    4.4549    4.1125 H   0  0  0  0  0  0  0  0  0  0  0  0
   -0.4625    4.9478    4.0576 H   0  0  0  0  0  0  0  0  0  0  0  0
   -0.9741    4.0068    5.3999 H   0  0  0  0  0  0  0  0  0  0  0  0
   -0.6273    2.6821    3.3532 S   0  0  0  0  0  0  0  0  0  0  0  0
    0.9963    3.1158    2.7550 C   0  0  0  0  0  0  0  0  0  0  0  0
    1.2698    2.4838    2.0263 H   0  0  0  0  0  0  0  0  0  0  0  0
    0.9868    4.0504    2.3930 H   0  0  0  0  0  0  0  0  0  0  0  0
    1.6601    3.0603    3.5039 H   0  0  0  0  0  0  0  0  0  0  0  0
  1  5  1  0
  5  8  1  0
  1  2  1  0
  1  3  1  0
  1  4  1  0
  5  6  1  0
  5  7  1  0
  8  9  1  0
  8 10  1  0
  8 11  1  0
 12 16  1  0
 16 17  1  0
 12 13  1  0
 12 14  1  0
 12 15  1  0
 17 18  1  0
 17 19  1  0
 17 20  1  0
M  CHG  1   8   1
M  END
>  <PDB_ID>  (27) 
pdb2hc4

>  <RESIDUE_NAME>  (27) 
LYS   MET

>  <FRAG_NAME>  (27) 
ETAM   MSM

>  <FRAG_ATOM_NUM>  (27) 
fragi: 11  fragj: 9

>  <atom.prop.CHAIN_ID>  (27) 
A A A A A A A A A A A Z Z Z Z Z Z Z Z Z

>  <atom.prop.IS_HEAVY_ATOM>  (27) 
1 0 0 0 1 0 0 1 0 0 0 1 0 0 0 1 1 0 0 0

>  <DIFUSE_FUNC_ATOM>  (27) 
n/a

>  <FINAL_SINGLE_POINT_ENERGY>  (27) 
0

>  <NONCOV_INTER_ENERGY_QM>  (27) 
0

>  <FF_Energy>  (27) 
7.75

>  <QM_Energy>  (27) 
-6.84

>  <source>  (27) 
ETAM_MSM

>  <Index>  (27) 
1609

$$$$
ETAM-pdb2hyi-I-LYS-198:MSM-pdb2hyi-I-MET-228
     RDKit          3D

 20 18  0  0  0  0  0  0  0  0999 V2000
    1.2495    0.8634   -0.0000 C   0  0  0  0  0  0  0  0  0  0  0  0
    1.2538    1.4131    0.8264 H   0  0  0  0  0  0  0  0  0  0  0  0
    1.2335    1.4423   -0.8062 H   0  0  0  0  0  0  0  0  0  0  0  0
    2.1470    0.2453   -0.0218 H   0  0  0  0  0  0  0  0  0  0  0  0
    0.0000    0.0000    0.0000 C   0  0  0  0  0  0  0  0  0  0  0  0
    0.0072   -0.5854   -0.8159 H   0  0  0  0  0  0  0  0  0  0  0  0
    0.0070   -0.5857    0.8164 H   0  0  0  0  0  0  0  0  0  0  0  0
   -1.2495    0.8180    0.0000 N   0  0  0  0  0  4  0  0  0  0  0  0
   -1.0261    1.7594   -0.2453 H   0  0  0  0  0  0  0  0  0  0  0  0
   -1.8907    0.4394   -0.6661 H   0  0  0  0  0  0  0  0  0  0  0  0
   -1.6574    0.7947    0.9114 H   0  0  0  0  0  0  0  0  0  0  0  0
   -2.7622   -0.1694    3.8937 C   0  0  0  0  0  0  0  0  0  0  0  0
   -3.0115    0.3553    4.7437 H   0  0  0  0  0  0  0  0  0  0  0  0
   -2.6196   -1.1382    4.2123 H   0  0  0  0  0  0  0  0  0  0  0  0
   -3.6099   -0.1472    3.2089 H   0  0  0  0  0  0  0  0  0  0  0  0
   -1.2372    0.4872    3.1734 S   0  0  0  0  0  0  0  0  0  0  0  0
   -1.5505    2.2609    3.1461 C   0  0  0  0  0  0  0  0  0  0  0  0
   -0.6796    2.7499    3.1176 H   0  0  0  0  0  0  0  0  0  0  0  0
   -2.0904    2.4889    2.3365 H   0  0  0  0  0  0  0  0  0  0  0  0
   -2.0545    2.5205    3.9687 H   0  0  0  0  0  0  0  0  0  0  0  0
  1  5  1  0
  5  8  1  0
  1  2  1  0
  1  3  1  0
  1  4  1  0
  5  6  1  0
  5  7  1  0
  8  9  1  0
  8 10  1  0
  8 11  1  0
 12 16  1  0
 16 17  1  0
 12 13  1  0
 12 14  1  0
 12 15  1  0
 17 18  1  0
 17 19  1  0
 17 20  1  0
M  CHG  1   8   1
M  END
>  <PDB_ID>  (28) 
pdb2hyi

>  <RESIDUE_NAME>  (28) 
LYS   MET

>  <FRAG_NAME>  (28) 
ETAM   MSM

>  <FRAG_ATOM_NUM>  (28) 
fragi: 11  fragj: 9

>  <atom.prop.CHAIN_ID>  (28) 
A A A A A A A A A A A Z Z Z Z Z Z Z Z Z

>  <atom.prop.IS_HEAVY_ATOM>  (28) 
1 0 0 0 1 0 0 1 0 0 0 1 0 0 0 1 1 0 0 0

>  <DIFUSE_FUNC_ATOM>  (28) 
n/a

>  <FINAL_SINGLE_POINT_ENERGY>  (28) 
0

>  <NONCOV_INTER_ENERGY_QM>  (28) 
0

>  <FF_Energy>  (28) 
-4.19

>  <QM_Energy>  (28) 
-14.93

>  <source>  (28) 
ETAM_MSM

>  <Index>  (28) 
1722

$$$$
ETAM-pdb2hzm-H-LYS-91:MSM-pdb2hzm-H-MET-80
     RDKit          3D

 20 18  0  0  0  0  0  0  0  0999 V2000
    1.2560    0.8658   -0.0000 C   0  0  0  0  0  0  0  0  0  0  0  0
    1.2145    1.4821   -0.7809 H   0  0  0  0  0  0  0  0  0  0  0  0
    2.0502    0.2699   -0.0735 H   0  0  0  0  0  0  0  0  0  0  0  0
    1.3410    1.4574    0.9116 H   0  0  0  0  0  0  0  0  0  0  0  0
    0.0000    0.0000    0.0000 C   0  0  0  0  0  0  0  0  0  0  0  0
    0.0104   -0.5868   -0.8163 H   0  0  0  0  0  0  0  0  0  0  0  0
    0.0099   -0.5870    0.8162 H   0  0  0  0  0  0  0  0  0  0  0  0
   -1.2560    0.8117    0.0000 N   0  0  0  0  0  4  0  0  0  0  0  0
   -1.0561    1.7261    0.3486 H   0  0  0  0  0  0  0  0  0  0  0  0
   -1.6058    0.8749   -0.9335 H   0  0  0  0  0  0  0  0  0  0  0  0
   -1.9328    0.3682    0.5847 H   0  0  0  0  0  0  0  0  0  0  0  0
    3.3405   -2.8561   -2.5343 C   0  0  0  0  0  0  0  0  0  0  0  0
    2.6632   -3.1311   -3.2401 H   0  0  0  0  0  0  0  0  0  0  0  0
    3.4220   -3.6334   -1.8844 H   0  0  0  0  0  0  0  0  0  0  0  0
    4.3051   -2.6894   -3.0137 H   0  0  0  0  0  0  0  0  0  0  0  0
    2.7843   -1.3638   -1.6698 S   0  0  0  0  0  0  0  0  0  0  0  0
    3.5668   -1.5610   -0.1039 C   0  0  0  0  0  0  0  0  0  0  0  0
    4.5449   -1.7654   -0.2242 H   0  0  0  0  0  0  0  0  0  0  0  0
    3.4808   -0.7187    0.4394 H   0  0  0  0  0  0  0  0  0  0  0  0
    3.1418   -2.3165    0.4073 H   0  0  0  0  0  0  0  0  0  0  0  0
  1  5  1  0
  5  8  1  0
  1  2  1  0
  1  3  1  0
  1  4  1  0
  5  6  1  0
  5  7  1  0
  8  9  1  0
  8 10  1  0
  8 11  1  0
 12 16  1  0
 16 17  1  0
 12 13  1  0
 12 14  1  0
 12 15  1  0
 17 18  1  0
 17 19  1  0
 17 20  1  0
M  CHG  1   8   1
M  END
>  <PDB_ID>  (29) 
pdb2hzm

>  <RESIDUE_NAME>  (29) 
LYS   MET

>  <FRAG_NAME>  (29) 
ETAM   MSM

>  <FRAG_ATOM_NUM>  (29) 
fragi: 11  fragj: 9

>  <atom.prop.CHAIN_ID>  (29) 
A A A A A A A A A A A Z Z Z Z Z Z Z Z Z

>  <atom.prop.IS_HEAVY_ATOM>  (29) 
1 0 0 0 1 0 0 1 0 0 0 1 0 0 0 1 1 0 0 0

>  <DIFUSE_FUNC_ATOM>  (29) 
n/a

>  <FINAL_SINGLE_POINT_ENERGY>  (29) 
0

>  <NONCOV_INTER_ENERGY_QM>  (29) 
0

>  <FF_Energy>  (29) 
7.08

>  <QM_Energy>  (29) 
-4.15

>  <source>  (29) 
ETAM_MSM

>  <Index>  (29) 
1732

$$$$
ETAM-pdb2i0a-B-LYS-20:MSM-pdb2i0a-B-MET-36
     RDKit          3D

 20 18  0  0  0  0  0  0  0  0999 V2000
    1.2570    0.8670    0.0000 C   0  0  0  0  0  0  0  0  0  0  0  0
    1.3132    1.3361    0.8664 H   0  0  0  0  0  0  0  0  0  0  0  0
    1.1997    1.4996   -0.7544 H   0  0  0  0  0  0  0  0  0  0  0  0
    2.1355    0.2341   -0.1250 H   0  0  0  0  0  0  0  0  0  0  0  0
    0.0000    0.0000    0.0000 C   0  0  0  0  0  0  0  0  0  0  0  0
    0.0232   -0.5970   -0.8165 H   0  0  0  0  0  0  0  0  0  0  0  0
    0.0227   -0.5971    0.8162 H   0  0  0  0  0  0  0  0  0  0  0  0
   -1.2570    0.7802   -0.0000 N   0  0  0  0  0  4  0  0  0  0  0  0
   -1.3308    1.2983    0.8534 H   0  0  0  0  0  0  0  0  0  0  0  0
   -1.2586    1.4148   -0.7740 H   0  0  0  0  0  0  0  0  0  0  0  0
   -2.0378    0.1588   -0.0790 H   0  0  0  0  0  0  0  0  0  0  0  0
   -4.5493    1.5199    1.2924 C   0  0  0  0  0  0  0  0  0  0  0  0
   -4.6081    2.4546    0.8612 H   0  0  0  0  0  0  0  0  0  0  0  0
   -5.3197    1.4967    1.9757 H   0  0  0  0  0  0  0  0  0  0  0  0
   -4.7419    0.7708    0.5243 H   0  0  0  0  0  0  0  0  0  0  0  0
   -2.9525    1.3156    2.1379 S   0  0  0  0  0  0  0  0  0  0  0  0
   -3.0397   -0.3878    2.6859 C   0  0  0  0  0  0  0  0  0  0  0  0
   -2.2589   -0.5904    3.2788 H   0  0  0  0  0  0  0  0  0  0  0  0
   -3.8890   -0.5336    3.1949 H   0  0  0  0  0  0  0  0  0  0  0  0
   -3.0206   -0.9972    1.8924 H   0  0  0  0  0  0  0  0  0  0  0  0
  1  5  1  0
  5  8  1  0
  1  2  1  0
  1  3  1  0
  1  4  1  0
  5  6  1  0
  5  7  1  0
  8  9  1  0
  8 10  1  0
  8 11  1  0
 12 16  1  0
 16 17  1  0
 12 13  1  0
 12 14  1  0
 12 15  1  0
 17 18  1  0
 17 19  1  0
 17 20  1  0
M  CHG  1   8   1
M  END
>  <PDB_ID>  (30) 
pdb2i0a

>  <RESIDUE_NAME>  (30) 
LYS   MET

>  <FRAG_NAME>  (30) 
ETAM   MSM

>  <FRAG_ATOM_NUM>  (30) 
fragi: 11  fragj: 9

>  <atom.prop.CHAIN_ID>  (30) 
A A A A A A A A A A A Z Z Z Z Z Z Z Z Z

>  <atom.prop.IS_HEAVY_ATOM>  (30) 
1 0 0 0 1 0 0 1 0 0 0 1 0 0 0 1 1 0 0 0

>  <DIFUSE_FUNC_ATOM>  (30) 
n/a

>  <FINAL_SINGLE_POINT_ENERGY>  (30) 
0

>  <NONCOV_INTER_ENERGY_QM>  (30) 
0

>  <FF_Energy>  (30) 
3.65

>  <QM_Energy>  (30) 
-6.64

>  <source>  (30) 
ETAM_MSM

>  <Index>  (30) 
1736

$$$$
ETAM-pdb1hi9-A-LYS-83:MSM-pdb1hi9-A-MET-63
     RDKit          3D

 20 18  0  0  0  0  0  0  0  0999 V2000
    1.2338    0.8886   -0.0000 C   0  0  0  0  0  0  0  0  0  0  0  0
    1.3988    1.2028    0.9283 H   0  0  0  0  0  0  0  0  0  0  0  0
    1.0698    1.6586   -0.6052 H   0  0  0  0  0  0  0  0  0  0  0  0
    2.1104    0.3428   -0.3493 H   0  0  0  0  0  0  0  0  0  0  0  0
    0.0000    0.0000    0.0000 C   0  0  0  0  0  0  0  0  0  0  0  0
    0.0183   -0.5777   -0.8164 H   0  0  0  0  0  0  0  0  0  0  0  0
    0.0180   -0.5781    0.8159 H   0  0  0  0  0  0  0  0  0  0  0  0
   -1.2338    0.8153   -0.0000 N   0  0  0  0  0  4  0  0  0  0  0  0
   -1.0362    1.7249   -0.3689 H   0  0  0  0  0  0  0  0  0  0  0  0
   -1.9295    0.3720   -0.5674 H   0  0  0  0  0  0  0  0  0  0  0  0
   -1.5778    0.9048    0.9355 H   0  0  0  0  0  0  0  0  0  0  0  0
   -3.9960   -1.0747   -2.2251 C   0  0  0  0  0  0  0  0  0  0  0  0
   -4.7524   -0.8656   -1.5550 H   0  0  0  0  0  0  0  0  0  0  0  0
   -4.4117   -1.7550   -2.8813 H   0  0  0  0  0  0  0  0  0  0  0  0
   -3.7688   -0.1628   -2.7774 H   0  0  0  0  0  0  0  0  0  0  0  0
   -2.5745   -1.7995   -1.3740 S   0  0  0  0  0  0  0  0  0  0  0  0
   -3.3524   -3.1173   -0.4511 C   0  0  0  0  0  0  0  0  0  0  0  0
   -3.0552   -4.0034   -0.8112 H   0  0  0  0  0  0  0  0  0  0  0  0
   -3.0953   -3.0509    0.5151 H   0  0  0  0  0  0  0  0  0  0  0  0
   -4.3482   -3.0451   -0.5340 H   0  0  0  0  0  0  0  0  0  0  0  0
  1  5  1  0
  5  8  1  0
  1  2  1  0
  1  3  1  0
  1  4  1  0
  5  6  1  0
  5  7  1  0
  8  9  1  0
  8 10  1  0
  8 11  1  0
 12 16  1  0
 16 17  1  0
 12 13  1  0
 12 14  1  0
 12 15  1  0
 17 18  1  0
 17 19  1  0
 17 20  1  0
M  CHG  1   8   1
M  END
>  <PDB_ID>  (31) 
pdb1hi9

>  <RESIDUE_NAME>  (31) 
LYS   MET

>  <FRAG_NAME>  (31) 
ETAM   MSM

>  <FRAG_ATOM_NUM>  (31) 
fragi: 11  fragj: 9

>  <atom.prop.CHAIN_ID>  (31) 
A A A A A A A A A A A Z Z Z Z Z Z Z Z Z

>  <atom.prop.IS_HEAVY_ATOM>  (31) 
1 0 0 0 1 0 0 1 0 0 0 1 0 0 0 1 1 0 0 0

>  <DIFUSE_FUNC_ATOM>  (31) 
n/a

>  <FINAL_SINGLE_POINT_ENERGY>  (31) 
0

>  <NONCOV_INTER_ENERGY_QM>  (31) 
0

>  <FF_Energy>  (31) 
-5.09

>  <QM_Energy>  (31) 
-15.41

>  <source>  (31) 
ETAM_MSM

>  <Index>  (31) 
1812

$$$$
ETAM-pdb1hi9-B-LYS-83:MSM-pdb1hi9-B-MET-63
     RDKit          3D

 20 18  0  0  0  0  0  0  0  0999 V2000
    1.2408    0.8894   -0.0000 C   0  0  0  0  0  0  0  0  0  0  0  0
    1.3942    1.2146    0.9265 H   0  0  0  0  0  0  0  0  0  0  0  0
    1.0796    1.6538   -0.6145 H   0  0  0  0  0  0  0  0  0  0  0  0
    2.1225    0.3431   -0.3351 H   0  0  0  0  0  0  0  0  0  0  0  0
    0.0000    0.0000    0.0000 C   0  0  0  0  0  0  0  0  0  0  0  0
    0.0168   -0.5767   -0.8163 H   0  0  0  0  0  0  0  0  0  0  0  0
    0.0170   -0.5765    0.8165 H   0  0  0  0  0  0  0  0  0  0  0  0
   -1.2408    0.8184    0.0000 N   0  0  0  0  0  4  0  0  0  0  0  0
   -1.6595    0.7884    0.9078 H   0  0  0  0  0  0  0  0  0  0  0  0
   -1.0151    1.7643   -0.2323 H   0  0  0  0  0  0  0  0  0  0  0  0
   -1.8809    0.4523   -0.6757 H   0  0  0  0  0  0  0  0  0  0  0  0
   -3.9359   -0.9565   -2.3517 C   0  0  0  0  0  0  0  0  0  0  0  0
   -4.7314   -0.7504   -1.7280 H   0  0  0  0  0  0  0  0  0  0  0  0
   -4.3101   -1.6361   -3.0330 H   0  0  0  0  0  0  0  0  0  0  0  0
   -3.6841   -0.0427   -2.8899 H   0  0  0  0  0  0  0  0  0  0  0  0
   -2.5653   -1.6551   -1.4352 S   0  0  0  0  0  0  0  0  0  0  0  0
   -3.3142   -3.0761   -0.6676 C   0  0  0  0  0  0  0  0  0  0  0  0
   -2.6279   -3.5792   -0.1375 H   0  0  0  0  0  0  0  0  0  0  0  0
   -4.0514   -2.7836   -0.0539 H   0  0  0  0  0  0  0  0  0  0  0  0
   -3.6943   -3.6823   -1.3703 H   0  0  0  0  0  0  0  0  0  0  0  0
  1  5  1  0
  5  8  1  0
  1  2  1  0
  1  3  1  0
  1  4  1  0
  5  6  1  0
  5  7  1  0
  8  9  1  0
  8 10  1  0
  8 11  1  0
 12 16  1  0
 16 17  1  0
 12 13  1  0
 12 14  1  0
 12 15  1  0
 17 18  1  0
 17 19  1  0
 17 20  1  0
M  CHG  1   8   1
M  END
>  <PDB_ID>  (32) 
pdb1hi9

>  <RESIDUE_NAME>  (32) 
LYS   MET

>  <FRAG_NAME>  (32) 
ETAM   MSM

>  <FRAG_ATOM_NUM>  (32) 
fragi: 11  fragj: 9

>  <atom.prop.CHAIN_ID>  (32) 
A A A A A A A A A A A Z Z Z Z Z Z Z Z Z

>  <atom.prop.IS_HEAVY_ATOM>  (32) 
1 0 0 0 1 0 0 1 0 0 0 1 0 0 0 1 1 0 0 0

>  <DIFUSE_FUNC_ATOM>  (32) 
n/a

>  <FINAL_SINGLE_POINT_ENERGY>  (32) 
0

>  <NONCOV_INTER_ENERGY_QM>  (32) 
0

>  <FF_Energy>  (32) 
-4.6

>  <QM_Energy>  (32) 
-14.71

>  <source>  (32) 
ETAM_MSM

>  <Index>  (32) 
1815

$$$$
ETAM-pdb1hi9-C-LYS-83:MSM-pdb1hi9-C-MET-63
     RDKit          3D

 20 18  0  0  0  0  0  0  0  0999 V2000
    1.2432    0.8799    0.0000 C   0  0  0  0  0  0  0  0  0  0  0  0
    1.4143    1.1855    0.9302 H   0  0  0  0  0  0  0  0  0  0  0  0
    1.0805    1.6565   -0.5979 H   0  0  0  0  0  0  0  0  0  0  0  0
    2.1142    0.3312   -0.3586 H   0  0  0  0  0  0  0  0  0  0  0  0
    0.0000    0.0000    0.0000 C   0  0  0  0  0  0  0  0  0  0  0  0
    0.0150   -0.5806   -0.8164 H   0  0  0  0  0  0  0  0  0  0  0  0
    0.0144   -0.5809    0.8162 H   0  0  0  0  0  0  0  0  0  0  0  0
   -1.2432    0.8147   -0.0000 N   0  0  0  0  0  4  0  0  0  0  0  0
   -2.0249    0.2293   -0.2156 H   0  0  0  0  0  0  0  0  0  0  0  0
   -1.3722    1.2252    0.9028 H   0  0  0  0  0  0  0  0  0  0  0  0
   -1.1673    1.5374   -0.6874 H   0  0  0  0  0  0  0  0  0  0  0  0
   -4.0246   -0.9717   -2.1453 C   0  0  0  0  0  0  0  0  0  0  0  0
   -4.7863   -0.7354   -1.4780 H   0  0  0  0  0  0  0  0  0  0  0  0
   -4.4711   -1.6521   -2.7922 H   0  0  0  0  0  0  0  0  0  0  0  0
   -3.7946   -0.0723   -2.7165 H   0  0  0  0  0  0  0  0  0  0  0  0
   -2.6371   -1.7027   -1.3032 S   0  0  0  0  0  0  0  0  0  0  0  0
   -3.3882   -3.0901   -0.4692 C   0  0  0  0  0  0  0  0  0  0  0  0
   -4.2459   -3.3357   -0.9255 H   0  0  0  0  0  0  0  0  0  0  0  0
   -2.7670   -3.8757   -0.4909 H   0  0  0  0  0  0  0  0  0  0  0  0
   -3.5799   -2.8497    0.4843 H   0  0  0  0  0  0  0  0  0  0  0  0
  1  5  1  0
  5  8  1  0
  1  2  1  0
  1  3  1  0
  1  4  1  0
  5  6  1  0
  5  7  1  0
  8  9  1  0
  8 10  1  0
  8 11  1  0
 12 16  1  0
 16 17  1  0
 12 13  1  0
 12 14  1  0
 12 15  1  0
 17 18  1  0
 17 19  1  0
 17 20  1  0
M  CHG  1   8   1
M  END
>  <PDB_ID>  (33) 
pdb1hi9

>  <RESIDUE_NAME>  (33) 
LYS   MET

>  <FRAG_NAME>  (33) 
ETAM   MSM

>  <FRAG_ATOM_NUM>  (33) 
fragi: 11  fragj: 9

>  <atom.prop.CHAIN_ID>  (33) 
A A A A A A A A A A A Z Z Z Z Z Z Z Z Z

>  <atom.prop.IS_HEAVY_ATOM>  (33) 
1 0 0 0 1 0 0 1 0 0 0 1 0 0 0 1 1 0 0 0

>  <DIFUSE_FUNC_ATOM>  (33) 
n/a

>  <FINAL_SINGLE_POINT_ENERGY>  (33) 
0

>  <NONCOV_INTER_ENERGY_QM>  (33) 
0

>  <FF_Energy>  (33) 
-4.87

>  <QM_Energy>  (33) 
-16.36

>  <source>  (33) 
ETAM_MSM

>  <Index>  (33) 
1817

$$$$
ETAM-pdb1hxw-A-LYS-20:MSM-pdb1hxw-A-MET-36
     RDKit          3D

 20 18  0  0  0  0  0  0  0  0999 V2000
    1.2442    0.8706   -0.0000 C   0  0  0  0  0  0  0  0  0  0  0  0
    1.2589    1.3800    0.8131 H   0  0  0  0  0  0  0  0  0  0  0  0
    1.2663    1.3687   -0.8195 H   0  0  0  0  0  0  0  0  0  0  0  0
    2.0295    0.1148    0.0096 H   0  0  0  0  0  0  0  0  0  0  0  0
    0.0000    0.0000    0.0000 C   0  0  0  0  0  0  0  0  0  0  0  0
    0.0338   -0.6022   -0.8167 H   0  0  0  0  0  0  0  0  0  0  0  0
    0.0337   -0.6024    0.8160 H   0  0  0  0  0  0  0  0  0  0  0  0
   -1.2442    0.7586    0.0000 N   0  0  0  0  0  4  0  0  0  0  0  0
   -1.2750    1.3819   -0.8320 H   0  0  0  0  0  0  0  0  0  0  0  0
   -2.0485    0.0939   -0.0536 H   0  0  0  0  0  0  0  0  0  0  0  0
   -1.3255    1.3214    0.8697 H   0  0  0  0  0  0  0  0  0  0  0  0
   -3.2999    3.3875    2.3135 C   0  0  0  0  0  0  0  0  0  0  0  0
   -3.3098    4.2468    1.8402 H   0  0  0  0  0  0  0  0  0  0  0  0
   -3.8161    3.4104    3.1474 H   0  0  0  0  0  0  0  0  0  0  0  0
   -3.6999    2.6112    1.6611 H   0  0  0  0  0  0  0  0  0  0  0  0
   -1.6345    2.8212    2.5960 S   0  0  0  0  0  0  0  0  0  0  0  0
   -1.8794    1.3830    3.6046 C   0  0  0  0  0  0  0  0  0  0  0  0
   -2.8405    1.0954    3.5674 H   0  0  0  0  0  0  0  0  0  0  0  0
   -1.3028    0.6296    3.2762 H   0  0  0  0  0  0  0  0  0  0  0  0
   -1.6373    1.5858    4.5583 H   0  0  0  0  0  0  0  0  0  0  0  0
  1  5  1  0
  5  8  1  0
  1  2  1  0
  1  3  1  0
  1  4  1  0
  5  6  1  0
  5  7  1  0
  8  9  1  0
  8 10  1  0
  8 11  1  0
 12 16  1  0
 16 17  1  0
 12 13  1  0
 12 14  1  0
 12 15  1  0
 17 18  1  0
 17 19  1  0
 17 20  1  0
M  CHG  1   8   1
M  END
>  <PDB_ID>  (34) 
pdb1hxw

>  <RESIDUE_NAME>  (34) 
LYS   MET

>  <FRAG_NAME>  (34) 
ETAM   MSM

>  <FRAG_ATOM_NUM>  (34) 
fragi: 11  fragj: 9

>  <atom.prop.CHAIN_ID>  (34) 
A A A A A A A A A A A Z Z Z Z Z Z Z Z Z

>  <atom.prop.IS_HEAVY_ATOM>  (34) 
1 0 0 0 1 0 0 1 0 0 0 1 0 0 0 1 1 0 0 0

>  <DIFUSE_FUNC_ATOM>  (34) 
n/a

>  <FINAL_SINGLE_POINT_ENERGY>  (34) 
0

>  <NONCOV_INTER_ENERGY_QM>  (34) 
0

>  <FF_Energy>  (34) 
-4.46

>  <QM_Energy>  (34) 
-15.93

>  <source>  (34) 
ETAM_MSM

>  <Index>  (34) 
1903

$$$$
ETAM-pdb1hzd-A-LYS-234:MSM-pdb1hzd-A-MET-230
     RDKit          3D

 20 18  0  0  0  0  0  0  0  0999 V2000
    1.2415    0.8914   -0.0000 C   0  0  0  0  0  0  0  0  0  0  0  0
    1.1514    1.5535    0.7419 H   0  0  0  0  0  0  0  0  0  0  0  0
    1.2834    1.3688   -0.8750 H   0  0  0  0  0  0  0  0  0  0  0  0
    2.1611    0.3232    0.1402 H   0  0  0  0  0  0  0  0  0  0  0  0
    0.0000    0.0000    0.0000 C   0  0  0  0  0  0  0  0  0  0  0  0
    0.0128   -0.5714   -0.8166 H   0  0  0  0  0  0  0  0  0  0  0  0
    0.0118   -0.5708    0.8162 H   0  0  0  0  0  0  0  0  0  0  0  0
   -1.2415    0.8329    0.0000 N   0  0  0  0  0  4  0  0  0  0  0  0
   -1.8281    0.5472    0.7553 H   0  0  0  0  0  0  0  0  0  0  0  0
   -0.9926    1.7929    0.1112 H   0  0  0  0  0  0  0  0  0  0  0  0
   -1.7208    0.7070   -0.8661 H   0  0  0  0  0  0  0  0  0  0  0  0
   -0.4757   -0.9955    3.2198 C   0  0  0  0  0  0  0  0  0  0  0  0
   -0.0553   -0.2475    2.6594 H   0  0  0  0  0  0  0  0  0  0  0  0
   -0.0208   -1.8605    2.9104 H   0  0  0  0  0  0  0  0  0  0  0  0
   -0.2389   -0.8268    4.2704 H   0  0  0  0  0  0  0  0  0  0  0  0
   -2.2507   -1.0780    2.9326 S   0  0  0  0  0  0  0  0  0  0  0  0
   -2.4511   -2.7987    2.6902 C   0  0  0  0  0  0  0  0  0  0  0  0
   -3.1566   -3.1669    3.3096 H   0  0  0  0  0  0  0  0  0  0  0  0
   -2.7316   -2.9948    1.7421 H   0  0  0  0  0  0  0  0  0  0  0  0
   -1.5881   -3.2875    2.8707 H   0  0  0  0  0  0  0  0  0  0  0  0
  1  5  1  0
  5  8  1  0
  1  2  1  0
  1  3  1  0
  1  4  1  0
  5  6  1  0
  5  7  1  0
  8  9  1  0
  8 10  1  0
  8 11  1  0
 12 16  1  0
 16 17  1  0
 12 13  1  0
 12 14  1  0
 12 15  1  0
 17 18  1  0
 17 19  1  0
 17 20  1  0
M  CHG  1   8   1
M  END
>  <PDB_ID>  (35) 
pdb1hzd

>  <RESIDUE_NAME>  (35) 
LYS   MET

>  <FRAG_NAME>  (35) 
ETAM   MSM

>  <FRAG_ATOM_NUM>  (35) 
fragi: 11  fragj: 9

>  <atom.prop.CHAIN_ID>  (35) 
A A A A A A A A A A A Z Z Z Z Z Z Z Z Z

>  <atom.prop.IS_HEAVY_ATOM>  (35) 
1 0 0 0 1 0 0 1 0 0 0 1 0 0 0 1 1 0 0 0

>  <DIFUSE_FUNC_ATOM>  (35) 
n/a

>  <FINAL_SINGLE_POINT_ENERGY>  (35) 
0

>  <NONCOV_INTER_ENERGY_QM>  (35) 
0

>  <FF_Energy>  (35) 
-0.84

>  <QM_Energy>  (35) 
-10.91

>  <source>  (35) 
ETAM_MSM

>  <Index>  (35) 
1926

$$$$
ETAM-pdb2iod-C-LYS-270:MSM-pdb2iod-C-MET-266
     RDKit          3D

 20 18  0  0  0  0  0  0  0  0999 V2000
    1.2261    0.8680    0.0000 C   0  0  0  0  0  0  0  0  0  0  0  0
    1.2253    1.4424    0.8161 H   0  0  0  0  0  0  0  0  0  0  0  0
    1.2252    1.4420   -0.8172 H   0  0  0  0  0  0  0  0  0  0  0  0
    2.1474    0.2854    0.0006 H   0  0  0  0  0  0  0  0  0  0  0  0
    0.0000    0.0000    0.0000 C   0  0  0  0  0  0  0  0  0  0  0  0
    0.0023   -0.5783   -0.8155 H   0  0  0  0  0  0  0  0  0  0  0  0
    0.0018   -0.5781    0.8170 H   0  0  0  0  0  0  0  0  0  0  0  0
   -1.2261    0.8368   -0.0000 N   0  0  0  0  0  4  0  0  0  0  0  0
   -1.0351    1.7086    0.4508 H   0  0  0  0  0  0  0  0  0  0  0  0
   -1.5152    1.0044   -0.9427 H   0  0  0  0  0  0  0  0  0  0  0  0
   -1.9552    0.3596    0.4921 H   0  0  0  0  0  0  0  0  0  0  0  0
   -0.1915   -2.0765    2.2885 C   0  0  0  0  0  0  0  0  0  0  0  0
    0.5836   -1.3647    2.3776 H   0  0  0  0  0  0  0  0  0  0  0  0
    0.0650   -2.5469    1.3785 H   0  0  0  0  0  0  0  0  0  0  0  0
   -0.0304   -2.8123    3.0764 H   0  0  0  0  0  0  0  0  0  0  0  0
   -1.7997   -1.2547    2.1505 S   0  0  0  0  0  0  0  0  0  0  0  0
   -2.0183   -0.4111    3.7224 C   0  0  0  0  0  0  0  0  0  0  0  0
   -1.6115    0.5012    3.6700 H   0  0  0  0  0  0  0  0  0  0  0  0
   -2.9948   -0.3303    3.9242 H   0  0  0  0  0  0  0  0  0  0  0  0
   -1.5704   -0.9353    4.4463 H   0  0  0  0  0  0  0  0  0  0  0  0
  1  5  1  0
  5  8  1  0
  1  2  1  0
  1  3  1  0
  1  4  1  0
  5  6  1  0
  5  7  1  0
  8  9  1  0
  8 10  1  0
  8 11  1  0
 12 16  1  0
 16 17  1  0
 12 13  1  0
 12 14  1  0
 12 15  1  0
 17 18  1  0
 17 19  1  0
 17 20  1  0
M  CHG  1   8   1
M  END
>  <PDB_ID>  (36) 
pdb2iod

>  <RESIDUE_NAME>  (36) 
LYS   MET

>  <FRAG_NAME>  (36) 
ETAM   MSM

>  <FRAG_ATOM_NUM>  (36) 
fragi: 11  fragj: 9

>  <atom.prop.CHAIN_ID>  (36) 
A A A A A A A A A A A Z Z Z Z Z Z Z Z Z

>  <atom.prop.IS_HEAVY_ATOM>  (36) 
1 0 0 0 1 0 0 1 0 0 0 1 0 0 0 1 1 0 0 0

>  <DIFUSE_FUNC_ATOM>  (36) 
n/a

>  <FINAL_SINGLE_POINT_ENERGY>  (36) 
0

>  <NONCOV_INTER_ENERGY_QM>  (36) 
0

>  <FF_Energy>  (36) 
21.73

>  <QM_Energy>  (36) 
-7.6

>  <source>  (36) 
ETAM_MSM

>  <Index>  (36) 
1949

$$$$
ETAM-pdb1hzd-D-LYS-234:MSM-pdb1hzd-D-MET-230
     RDKit          3D

 20 18  0  0  0  0  0  0  0  0999 V2000
    1.2574    0.8705   -0.0000 C   0  0  0  0  0  0  0  0  0  0  0  0
    1.2894    1.3825    0.8533 H   0  0  0  0  0  0  0  0  0  0  0  0
    1.2120    1.4943   -0.7742 H   0  0  0  0  0  0  0  0  0  0  0  0
    2.1695    0.2796   -0.0836 H   0  0  0  0  0  0  0  0  0  0  0  0
    0.0000    0.0000    0.0000 C   0  0  0  0  0  0  0  0  0  0  0  0
    0.0090   -0.5824   -0.8162 H   0  0  0  0  0  0  0  0  0  0  0  0
    0.0087   -0.5826    0.8167 H   0  0  0  0  0  0  0  0  0  0  0  0
   -1.2574    0.8207   -0.0000 N   0  0  0  0  0  4  0  0  0  0  0  0
   -1.9258    0.3905   -0.6016 H   0  0  0  0  0  0  0  0  0  0  0  0
   -1.6161    0.8662    0.9291 H   0  0  0  0  0  0  0  0  0  0  0  0
   -1.0467    1.7389   -0.3276 H   0  0  0  0  0  0  0  0  0  0  0  0
   -0.1827   -1.1104    3.0653 C   0  0  0  0  0  0  0  0  0  0  0  0
    0.0931   -0.2127    2.6683 H   0  0  0  0  0  0  0  0  0  0  0  0
    0.2947   -1.8258    2.5156 H   0  0  0  0  0  0  0  0  0  0  0  0
    0.1635   -1.1639    4.0974 H   0  0  0  0  0  0  0  0  0  0  0  0
   -1.9726   -1.3240    2.9641 S   0  0  0  0  0  0  0  0  0  0  0  0
   -2.0919   -2.9477    2.3380 C   0  0  0  0  0  0  0  0  0  0  0  0
   -1.3501   -3.1348    1.6802 H   0  0  0  0  0  0  0  0  0  0  0  0
   -2.0278   -3.6258    3.0824 H   0  0  0  0  0  0  0  0  0  0  0  0
   -2.9722   -3.0859    1.8633 H   0  0  0  0  0  0  0  0  0  0  0  0
  1  5  1  0
  5  8  1  0
  1  2  1  0
  1  3  1  0
  1  4  1  0
  5  6  1  0
  5  7  1  0
  8  9  1  0
  8 10  1  0
  8 11  1  0
 12 16  1  0
 16 17  1  0
 12 13  1  0
 12 14  1  0
 12 15  1  0
 17 18  1  0
 17 19  1  0
 17 20  1  0
M  CHG  1   8   1
M  END
>  <PDB_ID>  (37) 
pdb1hzd

>  <RESIDUE_NAME>  (37) 
LYS   MET

>  <FRAG_NAME>  (37) 
ETAM   MSM

>  <FRAG_ATOM_NUM>  (37) 
fragi: 11  fragj: 9

>  <atom.prop.CHAIN_ID>  (37) 
A A A A A A A A A A A Z Z Z Z Z Z Z Z Z

>  <atom.prop.IS_HEAVY_ATOM>  (37) 
1 0 0 0 1 0 0 1 0 0 0 1 0 0 0 1 1 0 0 0

>  <DIFUSE_FUNC_ATOM>  (37) 
n/a

>  <FINAL_SINGLE_POINT_ENERGY>  (37) 
0

>  <NONCOV_INTER_ENERGY_QM>  (37) 
0

>  <FF_Energy>  (37) 
2.4

>  <QM_Energy>  (37) 
-8.04

>  <source>  (37) 
ETAM_MSM

>  <Index>  (37) 
1955

$$$$
ETAM-pdb2iy9-A-LYS-325:MSM-pdb2iy9-A-MET-329
     RDKit          3D

 20 18  0  0  0  0  0  0  0  0999 V2000
    1.2517    0.8751   -0.0000 C   0  0  0  0  0  0  0  0  0  0  0  0
    1.3655    1.2630   -0.9075 H   0  0  0  0  0  0  0  0  0  0  0  0
    2.0312    0.3089    0.2392 H   0  0  0  0  0  0  0  0  0  0  0  0
    1.1686    1.6870    0.7225 H   0  0  0  0  0  0  0  0  0  0  0  0
    0.0000    0.0000    0.0000 C   0  0  0  0  0  0  0  0  0  0  0  0
    0.0142   -0.5843   -0.8162 H   0  0  0  0  0  0  0  0  0  0  0  0
    0.0138   -0.5843    0.8163 H   0  0  0  0  0  0  0  0  0  0  0  0
   -1.2517    0.8118   -0.0000 N   0  0  0  0  0  4  0  0  0  0  0  0
   -1.6252    0.8420   -0.9266 H   0  0  0  0  0  0  0  0  0  0  0  0
   -1.9167    0.3934    0.6173 H   0  0  0  0  0  0  0  0  0  0  0  0
   -1.0435    1.7384    0.3087 H   0  0  0  0  0  0  0  0  0  0  0  0
   -1.6839    3.1632   -1.9518 C   0  0  0  0  0  0  0  0  0  0  0  0
   -0.6903    3.0211   -1.6836 H   0  0  0  0  0  0  0  0  0  0  0  0
   -2.1908    3.1061   -1.0469 H   0  0  0  0  0  0  0  0  0  0  0  0
   -1.7866    4.1797   -2.3317 H   0  0  0  0  0  0  0  0  0  0  0  0
   -2.2326    1.8381   -3.0684 S   0  0  0  0  0  0  0  0  0  0  0  0
   -3.9925    2.1608   -3.2243 C   0  0  0  0  0  0  0  0  0  0  0  0
   -4.2943    2.7368   -2.4644 H   0  0  0  0  0  0  0  0  0  0  0  0
   -4.1695    2.6302   -4.0892 H   0  0  0  0  0  0  0  0  0  0  0  0
   -4.4926    1.2948   -3.2061 H   0  0  0  0  0  0  0  0  0  0  0  0
  1  5  1  0
  5  8  1  0
  1  2  1  0
  1  3  1  0
  1  4  1  0
  5  6  1  0
  5  7  1  0
  8  9  1  0
  8 10  1  0
  8 11  1  0
 12 16  1  0
 16 17  1  0
 12 13  1  0
 12 14  1  0
 12 15  1  0
 17 18  1  0
 17 19  1  0
 17 20  1  0
M  CHG  1   8   1
M  END
>  <PDB_ID>  (38) 
pdb2iy9

>  <RESIDUE_NAME>  (38) 
LYS   MET

>  <FRAG_NAME>  (38) 
ETAM   MSM

>  <FRAG_ATOM_NUM>  (38) 
fragi: 11  fragj: 9

>  <atom.prop.CHAIN_ID>  (38) 
A A A A A A A A A A A Z Z Z Z Z Z Z Z Z

>  <atom.prop.IS_HEAVY_ATOM>  (38) 
1 0 0 0 1 0 0 1 0 0 0 1 0 0 0 1 1 0 0 0

>  <DIFUSE_FUNC_ATOM>  (38) 
n/a

>  <FINAL_SINGLE_POINT_ENERGY>  (38) 
0

>  <NONCOV_INTER_ENERGY_QM>  (38) 
0

>  <FF_Energy>  (38) 
-2.33

>  <QM_Energy>  (38) 
-12.44

>  <source>  (38) 
ETAM_MSM

>  <Index>  (38) 
1975

$$$$
ETAM-pdb2iy9-A-LYS-332:MSM-pdb2iy9-A-MET-329
     RDKit          3D

 20 18  0  0  0  0  0  0  0  0999 V2000
    1.2767    0.8569    0.0000 C   0  0  0  0  0  0  0  0  0  0  0  0
    1.0847    1.7138    0.4703 H   0  0  0  0  0  0  0  0  0  0  0  0
    1.5395    1.0350   -0.9435 H   0  0  0  0  0  0  0  0  0  0  0  0
    2.1147    0.3735    0.5022 H   0  0  0  0  0  0  0  0  0  0  0  0
    0.0000    0.0000    0.0000 C   0  0  0  0  0  0  0  0  0  0  0  0
    0.0181   -0.6002   -0.8164 H   0  0  0  0  0  0  0  0  0  0  0  0
    0.0181   -0.6000    0.8164 H   0  0  0  0  0  0  0  0  0  0  0  0
   -1.2767    0.7816   -0.0000 N   0  0  0  0  0  4  0  0  0  0  0  0
   -1.3765    1.2449   -0.8786 H   0  0  0  0  0  0  0  0  0  0  0  0
   -2.0427    0.1570    0.1414 H   0  0  0  0  0  0  0  0  0  0  0  0
   -1.2482    1.4551    0.7365 H   0  0  0  0  0  0  0  0  0  0  0  0
   -1.9272    2.3170    3.5890 C   0  0  0  0  0  0  0  0  0  0  0  0
   -2.7359    1.6791    3.4529 H   0  0  0  0  0  0  0  0  0  0  0  0
   -2.3175    3.0839    4.1710 H   0  0  0  0  0  0  0  0  0  0  0  0
   -1.1807    1.7900    4.1832 H   0  0  0  0  0  0  0  0  0  0  0  0
   -1.3572    2.9647    1.9892 S   0  0  0  0  0  0  0  0  0  0  0  0
   -0.1256    4.1786    2.4744 C   0  0  0  0  0  0  0  0  0  0  0  0
   -0.2678    4.4336    3.4310 H   0  0  0  0  0  0  0  0  0  0  0  0
    0.7881    3.7873    2.3659 H   0  0  0  0  0  0  0  0  0  0  0  0
   -0.2121    4.9900    1.8960 H   0  0  0  0  0  0  0  0  0  0  0  0
  1  5  1  0
  5  8  1  0
  1  2  1  0
  1  3  1  0
  1  4  1  0
  5  6  1  0
  5  7  1  0
  8  9  1  0
  8 10  1  0
  8 11  1  0
 12 16  1  0
 16 17  1  0
 12 13  1  0
 12 14  1  0
 12 15  1  0
 17 18  1  0
 17 19  1  0
 17 20  1  0
M  CHG  1   8   1
M  END
>  <PDB_ID>  (39) 
pdb2iy9

>  <RESIDUE_NAME>  (39) 
LYS   MET

>  <FRAG_NAME>  (39) 
ETAM   MSM

>  <FRAG_ATOM_NUM>  (39) 
fragi: 11  fragj: 9

>  <atom.prop.CHAIN_ID>  (39) 
A A A A A A A A A A A Z Z Z Z Z Z Z Z Z

>  <atom.prop.IS_HEAVY_ATOM>  (39) 
1 0 0 0 1 0 0 1 0 0 0 1 0 0 0 1 1 0 0 0

>  <DIFUSE_FUNC_ATOM>  (39) 
n/a

>  <FINAL_SINGLE_POINT_ENERGY>  (39) 
0

>  <NONCOV_INTER_ENERGY_QM>  (39) 
0

>  <FF_Energy>  (39) 
-3.51

>  <QM_Energy>  (39) 
-14.63

>  <source>  (39) 
ETAM_MSM

>  <Index>  (39) 
1986

$$$$
ETAM-pdb1icf-B-LYS-200:MSM-pdb1icf-B-MET-195
     RDKit          3D

 20 18  0  0  0  0  0  0  0  0999 V2000
    1.2299    0.8544   -0.0000 C   0  0  0  0  0  0  0  0  0  0  0  0
    1.0316    1.7088    0.4719 H   0  0  0  0  0  0  0  0  0  0  0  0
    1.4985    1.0362   -0.9418 H   0  0  0  0  0  0  0  0  0  0  0  0
    2.0520    0.3532    0.5111 H   0  0  0  0  0  0  0  0  0  0  0  0
    0.0000    0.0000    0.0000 C   0  0  0  0  0  0  0  0  0  0  0  0
   -0.0099   -0.5770   -0.8161 H   0  0  0  0  0  0  0  0  0  0  0  0
   -0.0101   -0.5776    0.8159 H   0  0  0  0  0  0  0  0  0  0  0  0
   -1.2299    0.8519    0.0000 N   0  0  0  0  0  4  0  0  0  0  0  0
   -1.1789    1.5015    0.7569 H   0  0  0  0  0  0  0  0  0  0  0  0
   -1.2864    1.3462   -0.8661 H   0  0  0  0  0  0  0  0  0  0  0  0
   -2.0325    0.2683    0.1091 H   0  0  0  0  0  0  0  0  0  0  0  0
   -1.1262    0.3847    5.6396 C   0  0  0  0  0  0  0  0  0  0  0  0
   -1.8781    0.9553    6.0529 H   0  0  0  0  0  0  0  0  0  0  0  0
   -0.2534    0.7988    5.9977 H   0  0  0  0  0  0  0  0  0  0  0  0
   -1.2140   -0.6427    5.9928 H   0  0  0  0  0  0  0  0  0  0  0  0
   -1.1721    0.5501    3.8052 S   0  0  0  0  0  0  0  0  0  0  0  0
   -0.7883   -1.0404    3.2765 C   0  0  0  0  0  0  0  0  0  0  0  0
   -1.6101   -1.6340    3.2580 H   0  0  0  0  0  0  0  0  0  0  0  0
   -0.3971   -1.0374    2.3414 H   0  0  0  0  0  0  0  0  0  0  0  0
   -0.1100   -1.4814    3.8872 H   0  0  0  0  0  0  0  0  0  0  0  0
  1  5  1  0
  5  8  1  0
  1  2  1  0
  1  3  1  0
  1  4  1  0
  5  6  1  0
  5  7  1  0
  8  9  1  0
  8 10  1  0
  8 11  1  0
 12 16  1  0
 16 17  1  0
 12 13  1  0
 12 14  1  0
 12 15  1  0
 17 18  1  0
 17 19  1  0
 17 20  1  0
M  CHG  1   8   1
M  END
>  <PDB_ID>  (40) 
pdb1icf

>  <RESIDUE_NAME>  (40) 
LYS   MET

>  <FRAG_NAME>  (40) 
ETAM   MSM

>  <FRAG_ATOM_NUM>  (40) 
fragi: 11  fragj: 9

>  <atom.prop.CHAIN_ID>  (40) 
A A A A A A A A A A A Z Z Z Z Z Z Z Z Z

>  <atom.prop.IS_HEAVY_ATOM>  (40) 
1 0 0 0 1 0 0 1 0 0 0 1 0 0 0 1 1 0 0 0

>  <DIFUSE_FUNC_ATOM>  (40) 
n/a

>  <FINAL_SINGLE_POINT_ENERGY>  (40) 
0

>  <NONCOV_INTER_ENERGY_QM>  (40) 
0

>  <FF_Energy>  (40) 
6.51

>  <QM_Energy>  (40) 
-4.86

>  <source>  (40) 
ETAM_MSM

>  <Index>  (40) 
1997

$$$$
ETAM-pdb1ixx-D-LYS-53:MSM-pdb1ixx-B-MET-114
     RDKit          3D

 20 18  0  0  0  0  0  0  0  0999 V2000
    1.2460    0.8688   -0.0000 C   0  0  0  0  0  0  0  0  0  0  0  0
    2.0421    0.2854   -0.1377 H   0  0  0  0  0  0  0  0  0  0  0  0
    1.3107    1.3338    0.8793 H   0  0  0  0  0  0  0  0  0  0  0  0
    1.2219    1.6179   -0.7914 H   0  0  0  0  0  0  0  0  0  0  0  0
    0.0000    0.0000    0.0000 C   0  0  0  0  0  0  0  0  0  0  0  0
    0.0127   -0.5867   -0.8161 H   0  0  0  0  0  0  0  0  0  0  0  0
    0.0126   -0.5861    0.8163 H   0  0  0  0  0  0  0  0  0  0  0  0
   -1.2460    0.8094   -0.0000 N   0  0  0  0  0  4  0  0  0  0  0  0
   -1.9130    0.3940   -0.6189 H   0  0  0  0  0  0  0  0  0  0  0  0
   -1.6231    0.8395    0.9256 H   0  0  0  0  0  0  0  0  0  0  0  0
   -1.0397    1.7385   -0.3064 H   0  0  0  0  0  0  0  0  0  0  0  0
   -0.9071    1.3771   -4.0626 C   0  0  0  0  0  0  0  0  0  0  0  0
    0.0302    0.9476   -4.0597 H   0  0  0  0  0  0  0  0  0  0  0  0
   -0.7758    2.2960   -3.6146 H   0  0  0  0  0  0  0  0  0  0  0  0
   -1.2012    1.5430   -5.0989 H   0  0  0  0  0  0  0  0  0  0  0  0
   -2.0721    0.3869   -3.1713 S   0  0  0  0  0  0  0  0  0  0  0  0
   -1.1432   -1.1135   -2.9776 C   0  0  0  0  0  0  0  0  0  0  0  0
   -0.7157   -1.3677   -3.8499 H   0  0  0  0  0  0  0  0  0  0  0  0
   -0.4247   -0.9867   -2.2880 H   0  0  0  0  0  0  0  0  0  0  0  0
   -1.7497   -1.8575   -2.6832 H   0  0  0  0  0  0  0  0  0  0  0  0
  1  5  1  0
  5  8  1  0
  1  2  1  0
  1  3  1  0
  1  4  1  0
  5  6  1  0
  5  7  1  0
  8  9  1  0
  8 10  1  0
  8 11  1  0
 12 16  1  0
 16 17  1  0
 12 13  1  0
 12 14  1  0
 12 15  1  0
 17 18  1  0
 17 19  1  0
 17 20  1  0
M  CHG  1   8   1
M  END
>  <PDB_ID>  (41) 
pdb1ixx

>  <RESIDUE_NAME>  (41) 
LYS   MET

>  <FRAG_NAME>  (41) 
ETAM   MSM

>  <FRAG_ATOM_NUM>  (41) 
fragi: 11  fragj: 9

>  <atom.prop.CHAIN_ID>  (41) 
A A A A A A A A A A A Z Z Z Z Z Z Z Z Z

>  <atom.prop.IS_HEAVY_ATOM>  (41) 
1 0 0 0 1 0 0 1 0 0 0 1 0 0 0 1 1 0 0 0

>  <DIFUSE_FUNC_ATOM>  (41) 
n/a

>  <FINAL_SINGLE_POINT_ENERGY>  (41) 
0

>  <NONCOV_INTER_ENERGY_QM>  (41) 
0

>  <FF_Energy>  (41) 
11.85

>  <QM_Energy>  (41) 
-8.47

>  <source>  (41) 
ETAM_MSM

>  <Index>  (41) 
2113

$$$$
ETAM-pdb1j08-A-LYS-215:MSM-pdb1j08-A-MET-122
     RDKit          3D

 20 18  0  0  0  0  0  0  0  0999 V2000
    1.2460    0.8803   -0.0000 C   0  0  0  0  0  0  0  0  0  0  0  0
    1.2716    1.3925    0.8533 H   0  0  0  0  0  0  0  0  0  0  0  0
    1.1933    1.5040   -0.7740 H   0  0  0  0  0  0  0  0  0  0  0  0
    2.1608    0.2936   -0.0840 H   0  0  0  0  0  0  0  0  0  0  0  0
    0.0000    0.0000    0.0000 C   0  0  0  0  0  0  0  0  0  0  0  0
    0.0143   -0.5799   -0.8158 H   0  0  0  0  0  0  0  0  0  0  0  0
    0.0137   -0.5802    0.8166 H   0  0  0  0  0  0  0  0  0  0  0  0
   -1.2460    0.8168    0.0000 N   0  0  0  0  0  4  0  0  0  0  0  0
   -2.0382    0.2113    0.0689 H   0  0  0  0  0  0  0  0  0  0  0  0
   -1.2325    1.4412    0.7797 H   0  0  0  0  0  0  0  0  0  0  0  0
   -1.2977    1.3415   -0.8495 H   0  0  0  0  0  0  0  0  0  0  0  0
   -1.1195   -2.7813   -3.8593 C   0  0  0  0  0  0  0  0  0  0  0  0
   -1.4669   -3.7325   -3.9745 H   0  0  0  0  0  0  0  0  0  0  0  0
   -0.5421   -2.5835   -4.6753 H   0  0  0  0  0  0  0  0  0  0  0  0
   -1.9678   -2.0969   -3.8554 H   0  0  0  0  0  0  0  0  0  0  0  0
   -0.1683   -2.6248   -2.3486 S   0  0  0  0  0  0  0  0  0  0  0  0
    1.0220   -1.3992   -2.8462 C   0  0  0  0  0  0  0  0  0  0  0  0
    1.0111   -0.6310   -2.2016 H   0  0  0  0  0  0  0  0  0  0  0  0
    1.9410   -1.8012   -2.8602 H   0  0  0  0  0  0  0  0  0  0  0  0
    0.7999   -1.0598   -3.7641 H   0  0  0  0  0  0  0  0  0  0  0  0
  1  5  1  0
  5  8  1  0
  1  2  1  0
  1  3  1  0
  1  4  1  0
  5  6  1  0
  5  7  1  0
  8  9  1  0
  8 10  1  0
  8 11  1  0
 12 16  1  0
 16 17  1  0
 12 13  1  0
 12 14  1  0
 12 15  1  0
 17 18  1  0
 17 19  1  0
 17 20  1  0
M  CHG  1   8   1
M  END
>  <PDB_ID>  (42) 
pdb1j08

>  <RESIDUE_NAME>  (42) 
LYS   MET

>  <FRAG_NAME>  (42) 
ETAM   MSM

>  <FRAG_ATOM_NUM>  (42) 
fragi: 11  fragj: 9

>  <atom.prop.CHAIN_ID>  (42) 
A A A A A A A A A A A Z Z Z Z Z Z Z Z Z

>  <atom.prop.IS_HEAVY_ATOM>  (42) 
1 0 0 0 1 0 0 1 0 0 0 1 0 0 0 1 1 0 0 0

>  <DIFUSE_FUNC_ATOM>  (42) 
n/a

>  <FINAL_SINGLE_POINT_ENERGY>  (42) 
0

>  <NONCOV_INTER_ENERGY_QM>  (42) 
0

>  <FF_Energy>  (42) 
8.06

>  <QM_Energy>  (42) 
-3.51

>  <source>  (42) 
ETAM_MSM

>  <Index>  (42) 
2130

$$$$
ETAM-pdb1j08-E-LYS-215:MSM-pdb1j08-E-MET-122
     RDKit          3D

 20 18  0  0  0  0  0  0  0  0999 V2000
    1.2640    0.8628   -0.0000 C   0  0  0  0  0  0  0  0  0  0  0  0
    1.2431    1.4463    0.8000 H   0  0  0  0  0  0  0  0  0  0  0  0
    1.2751    1.3977   -0.8323 H   0  0  0  0  0  0  0  0  0  0  0  0
    2.1530    0.2332    0.0367 H   0  0  0  0  0  0  0  0  0  0  0  0
    0.0000    0.0000    0.0000 C   0  0  0  0  0  0  0  0  0  0  0  0
    0.0152   -0.5925   -0.8158 H   0  0  0  0  0  0  0  0  0  0  0  0
    0.0146   -0.5926    0.8167 H   0  0  0  0  0  0  0  0  0  0  0  0
   -1.2640    0.7968    0.0000 N   0  0  0  0  0  4  0  0  0  0  0  0
   -1.9719    0.2899    0.4890 H   0  0  0  0  0  0  0  0  0  0  0  0
   -1.1010    1.6720    0.4532 H   0  0  0  0  0  0  0  0  0  0  0  0
   -1.5529    0.9543   -0.9430 H   0  0  0  0  0  0  0  0  0  0  0  0
   -0.9828   -1.4956   -4.5694 C   0  0  0  0  0  0  0  0  0  0  0  0
   -1.5889   -2.2971   -4.7379 H   0  0  0  0  0  0  0  0  0  0  0  0
   -0.2225   -1.5599   -5.2448 H   0  0  0  0  0  0  0  0  0  0  0  0
   -1.5470   -0.5827   -4.7601 H   0  0  0  0  0  0  0  0  0  0  0  0
   -0.3488   -1.5148   -2.8895 S   0  0  0  0  0  0  0  0  0  0  0  0
    0.9902   -0.3613   -3.0245 C   0  0  0  0  0  0  0  0  0  0  0  0
    0.6616    0.5043   -3.4121 H   0  0  0  0  0  0  0  0  0  0  0  0
    1.3844   -0.1820   -2.1182 H   0  0  0  0  0  0  0  0  0  0  0  0
    1.7070   -0.7332   -3.6212 H   0  0  0  0  0  0  0  0  0  0  0  0
  1  5  1  0
  5  8  1  0
  1  2  1  0
  1  3  1  0
  1  4  1  0
  5  6  1  0
  5  7  1  0
  8  9  1  0
  8 10  1  0
  8 11  1  0
 12 16  1  0
 16 17  1  0
 12 13  1  0
 12 14  1  0
 12 15  1  0
 17 18  1  0
 17 19  1  0
 17 20  1  0
M  CHG  1   8   1
M  END
>  <PDB_ID>  (43) 
pdb1j08

>  <RESIDUE_NAME>  (43) 
LYS   MET

>  <FRAG_NAME>  (43) 
ETAM   MSM

>  <FRAG_ATOM_NUM>  (43) 
fragi: 11  fragj: 9

>  <atom.prop.CHAIN_ID>  (43) 
A A A A A A A A A A A Z Z Z Z Z Z Z Z Z

>  <atom.prop.IS_HEAVY_ATOM>  (43) 
1 0 0 0 1 0 0 1 0 0 0 1 0 0 0 1 1 0 0 0

>  <DIFUSE_FUNC_ATOM>  (43) 
n/a

>  <FINAL_SINGLE_POINT_ENERGY>  (43) 
0

>  <NONCOV_INTER_ENERGY_QM>  (43) 
0

>  <FF_Energy>  (43) 
12.77

>  <QM_Energy>  (43) 
-4.41

>  <source>  (43) 
ETAM_MSM

>  <Index>  (43) 
2163

$$$$
ETAM-pdb2o56-F-LYS-78:MSM-pdb2o56-F-MET-67
     RDKit          3D

 20 18  0  0  0  0  0  0  0  0999 V2000
    1.2373    0.8857   -0.0000 C   0  0  0  0  0  0  0  0  0  0  0  0
    1.1715    1.5240    0.7525 H   0  0  0  0  0  0  0  0  0  0  0  0
    1.2907    1.3563   -0.8674 H   0  0  0  0  0  0  0  0  0  0  0  0
    2.1340    0.2795    0.1288 H   0  0  0  0  0  0  0  0  0  0  0  0
    0.0000    0.0000    0.0000 C   0  0  0  0  0  0  0  0  0  0  0  0
    0.0060   -0.5696   -0.8162 H   0  0  0  0  0  0  0  0  0  0  0  0
    0.0058   -0.5704    0.8160 H   0  0  0  0  0  0  0  0  0  0  0  0
   -1.2373    0.8428    0.0000 N   0  0  0  0  0  4  0  0  0  0  0  0
   -1.8701    0.4951   -0.6888 H   0  0  0  0  0  0  0  0  0  0  0  0
   -1.6627    0.7992    0.9015 H   0  0  0  0  0  0  0  0  0  0  0  0
   -0.9906    1.7861   -0.2128 H   0  0  0  0  0  0  0  0  0  0  0  0
   -1.8493    5.1162   -0.6170 C   0  0  0  0  0  0  0  0  0  0  0  0
   -2.1746    5.1559    0.3677 H   0  0  0  0  0  0  0  0  0  0  0  0
   -2.6371    4.6632   -1.1186 H   0  0  0  0  0  0  0  0  0  0  0  0
   -1.7752    6.1416   -0.9792 H   0  0  0  0  0  0  0  0  0  0  0  0
   -0.3486    4.1397   -0.7602 S   0  0  0  0  0  0  0  0  0  0  0  0
    0.5085    4.6442    0.7234 C   0  0  0  0  0  0  0  0  0  0  0  0
    1.2437    3.9950    0.9270 H   0  0  0  0  0  0  0  0  0  0  0  0
    0.9015    5.5566    0.5932 H   0  0  0  0  0  0  0  0  0  0  0  0
   -0.1331    4.6682    1.4930 H   0  0  0  0  0  0  0  0  0  0  0  0
  1  5  1  0
  5  8  1  0
  1  2  1  0
  1  3  1  0
  1  4  1  0
  5  6  1  0
  5  7  1  0
  8  9  1  0
  8 10  1  0
  8 11  1  0
 12 16  1  0
 16 17  1  0
 12 13  1  0
 12 14  1  0
 12 15  1  0
 17 18  1  0
 17 19  1  0
 17 20  1  0
M  CHG  1   8   1
M  END
>  <PDB_ID>  (44) 
pdb2o56

>  <RESIDUE_NAME>  (44) 
LYS   MET

>  <FRAG_NAME>  (44) 
ETAM   MSM

>  <FRAG_ATOM_NUM>  (44) 
fragi: 11  fragj: 9

>  <atom.prop.CHAIN_ID>  (44) 
A A A A A A A A A A A Z Z Z Z Z Z Z Z Z

>  <atom.prop.IS_HEAVY_ATOM>  (44) 
1 0 0 0 1 0 0 1 0 0 0 1 0 0 0 1 1 0 0 0

>  <DIFUSE_FUNC_ATOM>  (44) 
n/a

>  <FINAL_SINGLE_POINT_ENERGY>  (44) 
0

>  <NONCOV_INTER_ENERGY_QM>  (44) 
0

>  <FF_Energy>  (44) 
-5.52

>  <QM_Energy>  (44) 
-15.87

>  <source>  (44) 
ETAM_MSM

>  <Index>  (44) 
2233

$$$$
ETAM-pdb1jtg-A-LYS-215:MSM-pdb1jtg-A-MET-129
     RDKit          3D

 20 18  0  0  0  0  0  0  0  0999 V2000
    1.2574    0.8518   -0.0000 C   0  0  0  0  0  0  0  0  0  0  0  0
    1.2632    1.4064    0.8269 H   0  0  0  0  0  0  0  0  0  0  0  0
    1.2428    1.4374   -0.8058 H   0  0  0  0  0  0  0  0  0  0  0  0
    2.1576    0.2377   -0.0224 H   0  0  0  0  0  0  0  0  0  0  0  0
    0.0000    0.0000    0.0000 C   0  0  0  0  0  0  0  0  0  0  0  0
    0.0046   -0.5913   -0.8159 H   0  0  0  0  0  0  0  0  0  0  0  0
    0.0044   -0.5913    0.8170 H   0  0  0  0  0  0  0  0  0  0  0  0
   -1.2574    0.8125    0.0000 N   0  0  0  0  0  4  0  0  0  0  0  0
   -2.0415    0.2018   -0.0895 H   0  0  0  0  0  0  0  0  0  0  0  0
   -1.3193    1.3198    0.8570 H   0  0  0  0  0  0  0  0  0  0  0  0
   -1.2352    1.4493   -0.7689 H   0  0  0  0  0  0  0  0  0  0  0  0
   -0.6428   -3.9133    0.4343 C   0  0  0  0  0  0  0  0  0  0  0  0
   -0.2831   -3.6444   -0.4722 H   0  0  0  0  0  0  0  0  0  0  0  0
   -1.6420   -4.0401    0.3411 H   0  0  0  0  0  0  0  0  0  0  0  0
   -0.1908   -4.8608    0.7274 H   0  0  0  0  0  0  0  0  0  0  0  0
   -0.2649   -2.6718    1.6693 S   0  0  0  0  0  0  0  0  0  0  0  0
   -1.3730   -3.1107    2.8934 C   0  0  0  0  0  0  0  0  0  0  0  0
   -2.2783   -3.3637    2.5092 H   0  0  0  0  0  0  0  0  0  0  0  0
   -1.0450   -3.9077    3.4311 H   0  0  0  0  0  0  0  0  0  0  0  0
   -1.5299   -2.3514    3.5501 H   0  0  0  0  0  0  0  0  0  0  0  0
  1  5  1  0
  5  8  1  0
  1  2  1  0
  1  3  1  0
  1  4  1  0
  5  6  1  0
  5  7  1  0
  8  9  1  0
  8 10  1  0
  8 11  1  0
 12 16  1  0
 16 17  1  0
 12 13  1  0
 12 14  1  0
 12 15  1  0
 17 18  1  0
 17 19  1  0
 17 20  1  0
M  CHG  1   8   1
M  END
>  <PDB_ID>  (45) 
pdb1jtg

>  <RESIDUE_NAME>  (45) 
LYS   MET

>  <FRAG_NAME>  (45) 
ETAM   MSM

>  <FRAG_ATOM_NUM>  (45) 
fragi: 11  fragj: 9

>  <atom.prop.CHAIN_ID>  (45) 
A A A A A A A A A A A Z Z Z Z Z Z Z Z Z

>  <atom.prop.IS_HEAVY_ATOM>  (45) 
1 0 0 0 1 0 0 1 0 0 0 1 0 0 0 1 1 0 0 0

>  <DIFUSE_FUNC_ATOM>  (45) 
n/a

>  <FINAL_SINGLE_POINT_ENERGY>  (45) 
0

>  <NONCOV_INTER_ENERGY_QM>  (45) 
0

>  <FF_Energy>  (45) 
7.09

>  <QM_Energy>  (45) 
-4.88

>  <source>  (45) 
ETAM_MSM

>  <Index>  (45) 
2357

$$$$
ETAM-pdb1k6c-B-LYS-20:MSM-pdb1k6c-B-MET-36
     RDKit          3D

 20 18  0  0  0  0  0  0  0  0999 V2000
    1.2504    0.8660    0.0000 C   0  0  0  0  0  0  0  0  0  0  0  0
    2.0450    0.2709    0.0848 H   0  0  0  0  0  0  0  0  0  0  0  0
    1.2020    1.4872    0.7769 H   0  0  0  0  0  0  0  0  0  0  0  0
    1.3346    1.4464   -0.9188 H   0  0  0  0  0  0  0  0  0  0  0  0
    0.0000    0.0000    0.0000 C   0  0  0  0  0  0  0  0  0  0  0  0
    0.0073   -0.5839   -0.8157 H   0  0  0  0  0  0  0  0  0  0  0  0
    0.0067   -0.5843    0.8167 H   0  0  0  0  0  0  0  0  0  0  0  0
   -1.2504    0.8209    0.0000 N   0  0  0  0  0  4  0  0  0  0  0  0
   -1.3115    1.3253    0.8596 H   0  0  0  0  0  0  0  0  0  0  0  0
   -1.2225    1.4616   -0.7655 H   0  0  0  0  0  0  0  0  0  0  0  0
   -2.0397    0.2165   -0.0946 H   0  0  0  0  0  0  0  0  0  0  0  0
   -1.1483   -3.0199    3.2992 C   0  0  0  0  0  0  0  0  0  0  0  0
   -1.0281   -2.7331    4.2739 H   0  0  0  0  0  0  0  0  0  0  0  0
   -1.0773   -4.0411    3.2984 H   0  0  0  0  0  0  0  0  0  0  0  0
   -2.1549   -2.7455    2.9837 H   0  0  0  0  0  0  0  0  0  0  0  0
    0.1223   -2.2873    2.2512 S   0  0  0  0  0  0  0  0  0  0  0  0
    0.1096   -3.4905    0.8569 C   0  0  0  0  0  0  0  0  0  0  0  0
    1.0205   -3.8772    0.7722 H   0  0  0  0  0  0  0  0  0  0  0  0
   -0.5545   -4.1991    1.0639 H   0  0  0  0  0  0  0  0  0  0  0  0
   -0.1430   -3.0038    0.0292 H   0  0  0  0  0  0  0  0  0  0  0  0
  1  5  1  0
  5  8  1  0
  1  2  1  0
  1  3  1  0
  1  4  1  0
  5  6  1  0
  5  7  1  0
  8  9  1  0
  8 10  1  0
  8 11  1  0
 12 16  1  0
 16 17  1  0
 12 13  1  0
 12 14  1  0
 12 15  1  0
 17 18  1  0
 17 19  1  0
 17 20  1  0
M  CHG  1   8   1
M  END
>  <PDB_ID>  (46) 
pdb1k6c

>  <RESIDUE_NAME>  (46) 
LYS   MET

>  <FRAG_NAME>  (46) 
ETAM   MSM

>  <FRAG_ATOM_NUM>  (46) 
fragi: 11  fragj: 9

>  <atom.prop.CHAIN_ID>  (46) 
A A A A A A A A A A A Z Z Z Z Z Z Z Z Z

>  <atom.prop.IS_HEAVY_ATOM>  (46) 
1 0 0 0 1 0 0 1 0 0 0 1 0 0 0 1 1 0 0 0

>  <DIFUSE_FUNC_ATOM>  (46) 
n/a

>  <FINAL_SINGLE_POINT_ENERGY>  (46) 
0

>  <NONCOV_INTER_ENERGY_QM>  (46) 
0

>  <FF_Energy>  (46) 
9.98

>  <QM_Energy>  (46) 
-5.06

>  <source>  (46) 
ETAM_MSM

>  <Index>  (46) 
2423

$$$$
ETAM-pdb2owo-A-LYS-374:MSM-pdb2owo-A-MET-321
     RDKit          3D

 20 18  0  0  0  0  0  0  0  0999 V2000
    1.2504    0.8693   -0.0000 C   0  0  0  0  0  0  0  0  0  0  0  0
    1.2752    1.3870    0.8445 H   0  0  0  0  0  0  0  0  0  0  0  0
    1.2148    1.4736   -0.7852 H   0  0  0  0  0  0  0  0  0  0  0  0
    2.1471    0.2530   -0.0652 H   0  0  0  0  0  0  0  0  0  0  0  0
    0.0000    0.0000    0.0000 C   0  0  0  0  0  0  0  0  0  0  0  0
    0.0162   -0.5889   -0.8167 H   0  0  0  0  0  0  0  0  0  0  0  0
    0.0161   -0.5898    0.8168 H   0  0  0  0  0  0  0  0  0  0  0  0
   -1.2504    0.8007    0.0000 N   0  0  0  0  0  4  0  0  0  0  0  0
   -2.0189    0.2181   -0.2644 H   0  0  0  0  0  0  0  0  0  0  0  0
   -1.4102    1.1687    0.9161 H   0  0  0  0  0  0  0  0  0  0  0  0
   -1.1630    1.5545   -0.6517 H   0  0  0  0  0  0  0  0  0  0  0  0
   -1.2206   -1.9114   -2.9707 C   0  0  0  0  0  0  0  0  0  0  0  0
   -0.2398   -1.7225   -3.2229 H   0  0  0  0  0  0  0  0  0  0  0  0
   -1.6207   -2.3769   -3.7988 H   0  0  0  0  0  0  0  0  0  0  0  0
   -1.2341   -2.6139   -2.1374 H   0  0  0  0  0  0  0  0  0  0  0  0
   -2.0942   -0.3710   -2.6277 S   0  0  0  0  0  0  0  0  0  0  0  0
   -3.7336   -0.7921   -3.3162 C   0  0  0  0  0  0  0  0  0  0  0  0
   -3.7061   -0.6630   -4.3026 H   0  0  0  0  0  0  0  0  0  0  0  0
   -3.9357   -1.7418   -3.0976 H   0  0  0  0  0  0  0  0  0  0  0  0
   -4.4134   -0.1915   -2.9078 H   0  0  0  0  0  0  0  0  0  0  0  0
  1  5  1  0
  5  8  1  0
  1  2  1  0
  1  3  1  0
  1  4  1  0
  5  6  1  0
  5  7  1  0
  8  9  1  0
  8 10  1  0
  8 11  1  0
 12 16  1  0
 16 17  1  0
 12 13  1  0
 12 14  1  0
 12 15  1  0
 17 18  1  0
 17 19  1  0
 17 20  1  0
M  CHG  1   8   1
M  END
>  <PDB_ID>  (47) 
pdb2owo

>  <RESIDUE_NAME>  (47) 
LYS   MET

>  <FRAG_NAME>  (47) 
ETAM   MSM

>  <FRAG_ATOM_NUM>  (47) 
fragi: 11  fragj: 9

>  <atom.prop.CHAIN_ID>  (47) 
A A A A A A A A A A A Z Z Z Z Z Z Z Z Z

>  <atom.prop.IS_HEAVY_ATOM>  (47) 
1 0 0 0 1 0 0 1 0 0 0 1 0 0 0 1 1 0 0 0

>  <DIFUSE_FUNC_ATOM>  (47) 
n/a

>  <FINAL_SINGLE_POINT_ENERGY>  (47) 
0

>  <NONCOV_INTER_ENERGY_QM>  (47) 
0

>  <FF_Energy>  (47) 
-2.64

>  <QM_Energy>  (47) 
-14.58

>  <source>  (47) 
ETAM_MSM

>  <Index>  (47) 
2433

$$$$
ETAM-pdb1kj7-A-LYS-20:MSM-pdb1kj7-A-MET-36
     RDKit          3D

 20 18  0  0  0  0  0  0  0  0999 V2000
    1.2329    0.8738    0.0000 C   0  0  0  0  0  0  0  0  0  0  0  0
    1.2134    1.4546    0.8164 H   0  0  0  0  0  0  0  0  0  0  0  0
    1.2130    1.4540   -0.8176 H   0  0  0  0  0  0  0  0  0  0  0  0
    2.1585    0.2981    0.0007 H   0  0  0  0  0  0  0  0  0  0  0  0
    0.0000    0.0000    0.0000 C   0  0  0  0  0  0  0  0  0  0  0  0
    0.0072   -0.5796   -0.8158 H   0  0  0  0  0  0  0  0  0  0  0  0
    0.0076   -0.5785    0.8169 H   0  0  0  0  0  0  0  0  0  0  0  0
   -1.2329    0.8273    0.0000 N   0  0  0  0  0  4  0  0  0  0  0  0
   -1.8453    0.5123   -0.7260 H   0  0  0  0  0  0  0  0  0  0  0  0
   -1.6929    0.7411    0.8839 H   0  0  0  0  0  0  0  0  0  0  0  0
   -0.9922    1.7852   -0.1585 H   0  0  0  0  0  0  0  0  0  0  0  0
   -4.4357    1.8314    2.0284 C   0  0  0  0  0  0  0  0  0  0  0  0
   -4.6373    2.7919    1.7541 H   0  0  0  0  0  0  0  0  0  0  0  0
   -5.1253    1.5833    2.7362 H   0  0  0  0  0  0  0  0  0  0  0  0
   -4.5642    1.1810    1.1631 H   0  0  0  0  0  0  0  0  0  0  0  0
   -2.7657    1.6985    2.6944 S   0  0  0  0  0  0  0  0  0  0  0  0
   -2.8414    0.1077    3.5026 C   0  0  0  0  0  0  0  0  0  0  0  0
   -2.3389   -0.5705    2.9619 H   0  0  0  0  0  0  0  0  0  0  0  0
   -2.4314    0.1712    4.4150 H   0  0  0  0  0  0  0  0  0  0  0  0
   -3.7968   -0.1825    3.5899 H   0  0  0  0  0  0  0  0  0  0  0  0
  1  5  1  0
  5  8  1  0
  1  2  1  0
  1  3  1  0
  1  4  1  0
  5  6  1  0
  5  7  1  0
  8  9  1  0
  8 10  1  0
  8 11  1  0
 12 16  1  0
 16 17  1  0
 12 13  1  0
 12 14  1  0
 12 15  1  0
 17 18  1  0
 17 19  1  0
 17 20  1  0
M  CHG  1   8   1
M  END
>  <PDB_ID>  (48) 
pdb1kj7

>  <RESIDUE_NAME>  (48) 
LYS   MET

>  <FRAG_NAME>  (48) 
ETAM   MSM

>  <FRAG_ATOM_NUM>  (48) 
fragi: 11  fragj: 9

>  <atom.prop.CHAIN_ID>  (48) 
A A A A A A A A A A A Z Z Z Z Z Z Z Z Z

>  <atom.prop.IS_HEAVY_ATOM>  (48) 
1 0 0 0 1 0 0 1 0 0 0 1 0 0 0 1 1 0 0 0

>  <DIFUSE_FUNC_ATOM>  (48) 
n/a

>  <FINAL_SINGLE_POINT_ENERGY>  (48) 
0

>  <NONCOV_INTER_ENERGY_QM>  (48) 
0

>  <FF_Energy>  (48) 
-4.65

>  <QM_Energy>  (48) 
-14.66

>  <source>  (48) 
ETAM_MSM

>  <Index>  (48) 
2463

$$$$
ETAM-pdb1li1-E-LYS-211:MSM-pdb1li1-A-MET-93
     RDKit          3D

 20 18  0  0  0  0  0  0  0  0999 V2000
    1.2323    0.8766    0.0000 C   0  0  0  0  0  0  0  0  0  0  0  0
    1.3128    1.3212   -0.8833 H   0  0  0  0  0  0  0  0  0  0  0  0
    2.0283    0.3141    0.1842 H   0  0  0  0  0  0  0  0  0  0  0  0
    1.1635    1.6451    0.7700 H   0  0  0  0  0  0  0  0  0  0  0  0
    0.0000    0.0000    0.0000 C   0  0  0  0  0  0  0  0  0  0  0  0
    0.0050   -0.5748   -0.8163 H   0  0  0  0  0  0  0  0  0  0  0  0
    0.0048   -0.5754    0.8161 H   0  0  0  0  0  0  0  0  0  0  0  0
   -1.2323    0.8366    0.0000 N   0  0  0  0  0  4  0  0  0  0  0  0
   -0.9886    1.7844    0.2000 H   0  0  0  0  0  0  0  0  0  0  0  0
   -1.6673    0.7843   -0.8980 H   0  0  0  0  0  0  0  0  0  0  0  0
   -1.8629    0.4976    0.6977 H   0  0  0  0  0  0  0  0  0  0  0  0
   -3.2926   -1.7393    0.3132 C   0  0  0  0  0  0  0  0  0  0  0  0
   -3.7573   -2.6468    0.2520 H   0  0  0  0  0  0  0  0  0  0  0  0
   -2.9059   -1.5561   -0.6141 H   0  0  0  0  0  0  0  0  0  0  0  0
   -4.0451   -0.9812    0.5299 H   0  0  0  0  0  0  0  0  0  0  0  0
   -2.0186   -1.7479    1.5542 S   0  0  0  0  0  0  0  0  0  0  0  0
   -2.7010   -3.0123    2.6999 C   0  0  0  0  0  0  0  0  0  0  0  0
   -2.5657   -3.9087    2.2927 H   0  0  0  0  0  0  0  0  0  0  0  0
   -2.2165   -2.9438    3.5642 H   0  0  0  0  0  0  0  0  0  0  0  0
   -3.6689   -2.8296    2.8269 H   0  0  0  0  0  0  0  0  0  0  0  0
  1  5  1  0
  5  8  1  0
  1  2  1  0
  1  3  1  0
  1  4  1  0
  5  6  1  0
  5  7  1  0
  8  9  1  0
  8 10  1  0
  8 11  1  0
 12 16  1  0
 16 17  1  0
 12 13  1  0
 12 14  1  0
 12 15  1  0
 17 18  1  0
 17 19  1  0
 17 20  1  0
M  CHG  1   8   1
M  END
>  <PDB_ID>  (49) 
pdb1li1

>  <RESIDUE_NAME>  (49) 
LYS   MET

>  <FRAG_NAME>  (49) 
ETAM   MSM

>  <FRAG_ATOM_NUM>  (49) 
fragi: 11  fragj: 9

>  <atom.prop.CHAIN_ID>  (49) 
A A A A A A A A A A A Z Z Z Z Z Z Z Z Z

>  <atom.prop.IS_HEAVY_ATOM>  (49) 
1 0 0 0 1 0 0 1 0 0 0 1 0 0 0 1 1 0 0 0

>  <DIFUSE_FUNC_ATOM>  (49) 
n/a

>  <FINAL_SINGLE_POINT_ENERGY>  (49) 
0

>  <NONCOV_INTER_ENERGY_QM>  (49) 
0

>  <FF_Energy>  (49) 
1.55

>  <QM_Energy>  (49) 
-9.95

>  <source>  (49) 
ETAM_MSM

>  <Index>  (49) 
2637

$$$$
ETAM-pdb1li1-B-LYS-211:MSM-pdb1li1-D-MET-93
     RDKit          3D

 20 18  0  0  0  0  0  0  0  0999 V2000
    1.2309    0.8793   -0.0000 C   0  0  0  0  0  0  0  0  0  0  0  0
    1.3070    1.3265   -0.8846 H   0  0  0  0  0  0  0  0  0  0  0  0
    2.0292    0.3149    0.1760 H   0  0  0  0  0  0  0  0  0  0  0  0
    1.1662    1.6444    0.7736 H   0  0  0  0  0  0  0  0  0  0  0  0
    0.0000    0.0000    0.0000 C   0  0  0  0  0  0  0  0  0  0  0  0
    0.0131   -0.5791   -0.8163 H   0  0  0  0  0  0  0  0  0  0  0  0
    0.0128   -0.5790    0.8163 H   0  0  0  0  0  0  0  0  0  0  0  0
   -1.2309    0.8207    0.0000 N   0  0  0  0  0  4  0  0  0  0  0  0
   -1.0849    1.6453    0.5486 H   0  0  0  0  0  0  0  0  0  0  0  0
   -1.4600    1.0828   -0.9382 H   0  0  0  0  0  0  0  0  0  0  0  0
   -1.9866    0.2929    0.3905 H   0  0  0  0  0  0  0  0  0  0  0  0
   -3.2810   -1.7211    0.2873 C   0  0  0  0  0  0  0  0  0  0  0  0
   -3.7471   -2.6261    0.1987 H   0  0  0  0  0  0  0  0  0  0  0  0
   -2.9132   -1.5003   -0.6395 H   0  0  0  0  0  0  0  0  0  0  0  0
   -4.0296   -0.9729    0.5480 H   0  0  0  0  0  0  0  0  0  0  0  0
   -1.9772   -1.7834    1.5022 S   0  0  0  0  0  0  0  0  0  0  0  0
   -2.6620   -3.0530    2.6307 C   0  0  0  0  0  0  0  0  0  0  0  0
   -2.4258   -2.8057    3.5651 H   0  0  0  0  0  0  0  0  0  0  0  0
   -3.6499   -3.0768    2.5168 H   0  0  0  0  0  0  0  0  0  0  0  0
   -2.2643   -3.9330    2.3939 H   0  0  0  0  0  0  0  0  0  0  0  0
  1  5  1  0
  5  8  1  0
  1  2  1  0
  1  3  1  0
  1  4  1  0
  5  6  1  0
  5  7  1  0
  8  9  1  0
  8 10  1  0
  8 11  1  0
 12 16  1  0
 16 17  1  0
 12 13  1  0
 12 14  1  0
 12 15  1  0
 17 18  1  0
 17 19  1  0
 17 20  1  0
M  CHG  1   8   1
M  END
>  <PDB_ID>  (50) 
pdb1li1

>  <RESIDUE_NAME>  (50) 
LYS   MET

>  <FRAG_NAME>  (50) 
ETAM   MSM

>  <FRAG_ATOM_NUM>  (50) 
fragi: 11  fragj: 9

>  <atom.prop.CHAIN_ID>  (50) 
A A A A A A A A A A A Z Z Z Z Z Z Z Z Z

>  <atom.prop.IS_HEAVY_ATOM>  (50) 
1 0 0 0 1 0 0 1 0 0 0 1 0 0 0 1 1 0 0 0

>  <DIFUSE_FUNC_ATOM>  (50) 
n/a

>  <FINAL_SINGLE_POINT_ENERGY>  (50) 
0

>  <NONCOV_INTER_ENERGY_QM>  (50) 
0

>  <FF_Energy>  (50) 
2.69

>  <QM_Energy>  (50) 
-8.28

>  <source>  (50) 
ETAM_MSM

>  <Index>  (50) 
2641

$$$$
ETAM-pdb1lq8-C-LYS-270:MSM-pdb1lq8-C-MET-274
     RDKit          3D

 20 18  0  0  0  0  0  0  0  0999 V2000
    1.2784    0.8487    0.0000 C   0  0  0  0  0  0  0  0  0  0  0  0
    1.2604    1.4434   -0.8005 H   0  0  0  0  0  0  0  0  0  0  0  0
    2.0628    0.2345   -0.0507 H   0  0  0  0  0  0  0  0  0  0  0  0
    1.3742    1.4670    0.8926 H   0  0  0  0  0  0  0  0  0  0  0  0
    0.0000    0.0000    0.0000 C   0  0  0  0  0  0  0  0  0  0  0  0
    0.0093   -0.5977   -0.8159 H   0  0  0  0  0  0  0  0  0  0  0  0
    0.0091   -0.5975    0.8160 H   0  0  0  0  0  0  0  0  0  0  0  0
   -1.2784    0.7964   -0.0000 N   0  0  0  0  0  4  0  0  0  0  0  0
   -2.0493    0.1684    0.0658 H   0  0  0  0  0  0  0  0  0  0  0  0
   -1.2739    1.4148    0.7822 H   0  0  0  0  0  0  0  0  0  0  0  0
   -1.3342    1.3175   -0.8472 H   0  0  0  0  0  0  0  0  0  0  0  0
   -1.7185    1.0464    4.6450 C   0  0  0  0  0  0  0  0  0  0  0  0
   -2.2707    0.3582    5.1493 H   0  0  0  0  0  0  0  0  0  0  0  0
   -2.3190    1.8517    4.4896 H   0  0  0  0  0  0  0  0  0  0  0  0
   -0.8713    1.3456    5.2622 H   0  0  0  0  0  0  0  0  0  0  0  0
   -1.1615    0.3582    3.0448 S   0  0  0  0  0  0  0  0  0  0  0  0
   -1.9390   -1.3190    3.0132 C   0  0  0  0  0  0  0  0  0  0  0  0
   -2.9065   -1.2051    2.8260 H   0  0  0  0  0  0  0  0  0  0  0  0
   -1.4998   -1.8475    2.2972 H   0  0  0  0  0  0  0  0  0  0  0  0
   -1.7978   -1.7398    3.8998 H   0  0  0  0  0  0  0  0  0  0  0  0
  1  5  1  0
  5  8  1  0
  1  2  1  0
  1  3  1  0
  1  4  1  0
  5  6  1  0
  5  7  1  0
  8  9  1  0
  8 10  1  0
  8 11  1  0
 12 16  1  0
 16 17  1  0
 12 13  1  0
 12 14  1  0
 12 15  1  0
 17 18  1  0
 17 19  1  0
 17 20  1  0
M  CHG  1   8   1
M  END
>  <PDB_ID>  (51) 
pdb1lq8

>  <RESIDUE_NAME>  (51) 
LYS   MET

>  <FRAG_NAME>  (51) 
ETAM   MSM

>  <FRAG_ATOM_NUM>  (51) 
fragi: 11  fragj: 9

>  <atom.prop.CHAIN_ID>  (51) 
A A A A A A A A A A A Z Z Z Z Z Z Z Z Z

>  <atom.prop.IS_HEAVY_ATOM>  (51) 
1 0 0 0 1 0 0 1 0 0 0 1 0 0 0 1 1 0 0 0

>  <DIFUSE_FUNC_ATOM>  (51) 
n/a

>  <FINAL_SINGLE_POINT_ENERGY>  (51) 
0

>  <NONCOV_INTER_ENERGY_QM>  (51) 
0

>  <FF_Energy>  (51) 
-2.66

>  <QM_Energy>  (51) 
-13.71

>  <source>  (51) 
ETAM_MSM

>  <Index>  (51) 
2671

$$$$
ETAM-pdb1m0t-A-LYS-382:MSM-pdb1m0t-A-MET-415
     RDKit          3D

 20 18  0  0  0  0  0  0  0  0999 V2000
    1.2546    0.8606   -0.0000 C   0  0  0  0  0  0  0  0  0  0  0  0
    1.2252    1.4716    0.7795 H   0  0  0  0  0  0  0  0  0  0  0  0
    1.2952    1.3687   -0.8488 H   0  0  0  0  0  0  0  0  0  0  0  0
    2.1505    0.2447    0.0783 H   0  0  0  0  0  0  0  0  0  0  0  0
    0.0000    0.0000    0.0000 C   0  0  0  0  0  0  0  0  0  0  0  0
    0.0101   -0.5896   -0.8167 H   0  0  0  0  0  0  0  0  0  0  0  0
    0.0099   -0.5905    0.8165 H   0  0  0  0  0  0  0  0  0  0  0  0
   -1.2546    0.8072   -0.0000 N   0  0  0  0  0  4  0  0  0  0  0  0
   -1.2516    1.4213    0.7874 H   0  0  0  0  0  0  0  0  0  0  0  0
   -1.3037    1.3414   -0.8429 H   0  0  0  0  0  0  0  0  0  0  0  0
   -2.0416    0.1942    0.0547 H   0  0  0  0  0  0  0  0  0  0  0  0
   -0.7094    2.1528    4.8232 C   0  0  0  0  0  0  0  0  0  0  0  0
   -1.4107    1.5939    5.3464 H   0  0  0  0  0  0  0  0  0  0  0  0
   -0.5588    2.9845    5.4264 H   0  0  0  0  0  0  0  0  0  0  0  0
    0.2199    1.5837    4.8025 H   0  0  0  0  0  0  0  0  0  0  0  0
   -1.3538    2.6410    3.2116 S   0  0  0  0  0  0  0  0  0  0  0  0
    0.2181    2.9601    2.3051 C   0  0  0  0  0  0  0  0  0  0  0  0
    0.6387    2.0854    2.0970 H   0  0  0  0  0  0  0  0  0  0  0  0
    0.0004    3.4525    1.4714 H   0  0  0  0  0  0  0  0  0  0  0  0
    0.8090    3.5031    2.8895 H   0  0  0  0  0  0  0  0  0  0  0  0
  1  5  1  0
  5  8  1  0
  1  2  1  0
  1  3  1  0
  1  4  1  0
  5  6  1  0
  5  7  1  0
  8  9  1  0
  8 10  1  0
  8 11  1  0
 12 16  1  0
 16 17  1  0
 12 13  1  0
 12 14  1  0
 12 15  1  0
 17 18  1  0
 17 19  1  0
 17 20  1  0
M  CHG  1   8   1
M  END
>  <PDB_ID>  (52) 
pdb1m0t

>  <RESIDUE_NAME>  (52) 
LYS   MET

>  <FRAG_NAME>  (52) 
ETAM   MSM

>  <FRAG_ATOM_NUM>  (52) 
fragi: 11  fragj: 9

>  <atom.prop.CHAIN_ID>  (52) 
A A A A A A A A A A A Z Z Z Z Z Z Z Z Z

>  <atom.prop.IS_HEAVY_ATOM>  (52) 
1 0 0 0 1 0 0 1 0 0 0 1 0 0 0 1 1 0 0 0

>  <DIFUSE_FUNC_ATOM>  (52) 
n/a

>  <FINAL_SINGLE_POINT_ENERGY>  (52) 
0

>  <NONCOV_INTER_ENERGY_QM>  (52) 
0

>  <FF_Energy>  (52) 
13.87

>  <QM_Energy>  (52) 
-4.96

>  <source>  (52) 
ETAM_MSM

>  <Index>  (52) 
2724

$$$$
ETAM-pdb1m53-A-LYS-233:MSM-pdb1m53-A-MET-120
     RDKit          3D

 20 18  0  0  0  0  0  0  0  0999 V2000
    1.2252    0.8721   -0.0000 C   0  0  0  0  0  0  0  0  0  0  0  0
    1.1280    1.5649    0.7066 H   0  0  0  0  0  0  0  0  0  0  0  0
    1.3175    1.2996   -0.8932 H   0  0  0  0  0  0  0  0  0  0  0  0
    2.1194    0.2832    0.2043 H   0  0  0  0  0  0  0  0  0  0  0  0
    0.0000    0.0000    0.0000 C   0  0  0  0  0  0  0  0  0  0  0  0
    0.0082   -0.5805   -0.8163 H   0  0  0  0  0  0  0  0  0  0  0  0
    0.0087   -0.5807    0.8169 H   0  0  0  0  0  0  0  0  0  0  0  0
   -1.2252    0.8236   -0.0000 N   0  0  0  0  0  4  0  0  0  0  0  0
   -0.9934    1.7726    0.2199 H   0  0  0  0  0  0  0  0  0  0  0  0
   -1.6548    0.7892   -0.9038 H   0  0  0  0  0  0  0  0  0  0  0  0
   -1.8676    0.4730    0.6842 H   0  0  0  0  0  0  0  0  0  0  0  0
   -3.4602    4.4086   -1.5297 C   0  0  0  0  0  0  0  0  0  0  0  0
   -4.2178    4.1988   -2.1958 H   0  0  0  0  0  0  0  0  0  0  0  0
   -2.7319    4.8681   -2.0956 H   0  0  0  0  0  0  0  0  0  0  0  0
   -3.8298    5.1148   -0.7863 H   0  0  0  0  0  0  0  0  0  0  0  0
   -2.8233    2.8890   -0.8037 S   0  0  0  0  0  0  0  0  0  0  0  0
   -2.7027    1.9020   -2.3067 C   0  0  0  0  0  0  0  0  0  0  0  0
   -1.9856    2.2786   -2.8926 H   0  0  0  0  0  0  0  0  0  0  0  0
   -2.4784    0.9587   -2.0647 H   0  0  0  0  0  0  0  0  0  0  0  0
   -3.5776    1.9259   -2.7893 H   0  0  0  0  0  0  0  0  0  0  0  0
  1  5  1  0
  5  8  1  0
  1  2  1  0
  1  3  1  0
  1  4  1  0
  5  6  1  0
  5  7  1  0
  8  9  1  0
  8 10  1  0
  8 11  1  0
 12 16  1  0
 16 17  1  0
 12 13  1  0
 12 14  1  0
 12 15  1  0
 17 18  1  0
 17 19  1  0
 17 20  1  0
M  CHG  1   8   1
M  END
>  <PDB_ID>  (53) 
pdb1m53

>  <RESIDUE_NAME>  (53) 
LYS   MET

>  <FRAG_NAME>  (53) 
ETAM   MSM

>  <FRAG_ATOM_NUM>  (53) 
fragi: 11  fragj: 9

>  <atom.prop.CHAIN_ID>  (53) 
A A A A A A A A A A A Z Z Z Z Z Z Z Z Z

>  <atom.prop.IS_HEAVY_ATOM>  (53) 
1 0 0 0 1 0 0 1 0 0 0 1 0 0 0 1 1 0 0 0

>  <DIFUSE_FUNC_ATOM>  (53) 
n/a

>  <FINAL_SINGLE_POINT_ENERGY>  (53) 
0

>  <NONCOV_INTER_ENERGY_QM>  (53) 
0

>  <FF_Energy>  (53) 
10.92

>  <QM_Energy>  (53) 
-2.02

>  <source>  (53) 
ETAM_MSM

>  <Index>  (53) 
2749

$$$$
ETAM-pdb1mt7-A-LYS-20:MSM-pdb1mt7-A-MET-36
     RDKit          3D

 20 18  0  0  0  0  0  0  0  0999 V2000
    1.2409    0.8704   -0.0000 C   0  0  0  0  0  0  0  0  0  0  0  0
    1.2816    1.3675    0.8588 H   0  0  0  0  0  0  0  0  0  0  0  0
    1.1894    1.4989   -0.7665 H   0  0  0  0  0  0  0  0  0  0  0  0
    2.1407    0.2634   -0.0996 H   0  0  0  0  0  0  0  0  0  0  0  0
    0.0000    0.0000    0.0000 C   0  0  0  0  0  0  0  0  0  0  0  0
    0.0145   -0.5869   -0.8159 H   0  0  0  0  0  0  0  0  0  0  0  0
    0.0145   -0.5872    0.8160 H   0  0  0  0  0  0  0  0  0  0  0  0
   -1.2409    0.8066    0.0000 N   0  0  0  0  0  4  0  0  0  0  0  0
   -1.2350    1.4312    0.7822 H   0  0  0  0  0  0  0  0  0  0  0  0
   -1.2967    1.3368   -0.8472 H   0  0  0  0  0  0  0  0  0  0  0  0
   -2.0356    0.2011    0.0649 H   0  0  0  0  0  0  0  0  0  0  0  0
   -4.0134    1.9600    2.2459 C   0  0  0  0  0  0  0  0  0  0  0  0
   -4.4281    2.8734    1.9992 H   0  0  0  0  0  0  0  0  0  0  0  0
   -4.5247    1.6648    3.0937 H   0  0  0  0  0  0  0  0  0  0  0  0
   -4.2565    1.2578    1.4485 H   0  0  0  0  0  0  0  0  0  0  0  0
   -2.2492    2.1259    2.5841 S   0  0  0  0  0  0  0  0  0  0  0  0
   -1.8740    0.4839    3.2131 C   0  0  0  0  0  0  0  0  0  0  0  0
   -2.7009   -0.0782    3.1896 H   0  0  0  0  0  0  0  0  0  0  0  0
   -1.1674    0.0634    2.6443 H   0  0  0  0  0  0  0  0  0  0  0  0
   -1.5466    0.5552    4.1550 H   0  0  0  0  0  0  0  0  0  0  0  0
  1  5  1  0
  5  8  1  0
  1  2  1  0
  1  3  1  0
  1  4  1  0
  5  6  1  0
  5  7  1  0
  8  9  1  0
  8 10  1  0
  8 11  1  0
 12 16  1  0
 16 17  1  0
 12 13  1  0
 12 14  1  0
 12 15  1  0
 17 18  1  0
 17 19  1  0
 17 20  1  0
M  CHG  1   8   1
M  END
>  <PDB_ID>  (54) 
pdb1mt7

>  <RESIDUE_NAME>  (54) 
LYS   MET

>  <FRAG_NAME>  (54) 
ETAM   MSM

>  <FRAG_ATOM_NUM>  (54) 
fragi: 11  fragj: 9

>  <atom.prop.CHAIN_ID>  (54) 
A A A A A A A A A A A Z Z Z Z Z Z Z Z Z

>  <atom.prop.IS_HEAVY_ATOM>  (54) 
1 0 0 0 1 0 0 1 0 0 0 1 0 0 0 1 1 0 0 0

>  <DIFUSE_FUNC_ATOM>  (54) 
n/a

>  <FINAL_SINGLE_POINT_ENERGY>  (54) 
0

>  <NONCOV_INTER_ENERGY_QM>  (54) 
0

>  <FF_Energy>  (54) 
-2.73

>  <QM_Energy>  (54) 
-12.98

>  <source>  (54) 
ETAM_MSM

>  <Index>  (54) 
2839

$$$$
ETAM-pdb2qx5-A-LYS-275:MSM-pdb2qx5-A-MET-441
     RDKit          3D

 20 18  0  0  0  0  0  0  0  0999 V2000
    1.2253    0.8657   -0.0000 C   0  0  0  0  0  0  0  0  0  0  0  0
    1.2410    1.4020    0.8441 H   0  0  0  0  0  0  0  0  0  0  0  0
    1.1843    1.4828   -0.7857 H   0  0  0  0  0  0  0  0  0  0  0  0
    2.1393    0.2750   -0.0608 H   0  0  0  0  0  0  0  0  0  0  0  0
    0.0000    0.0000    0.0000 C   0  0  0  0  0  0  0  0  0  0  0  0
    0.0012   -0.5789   -0.8168 H   0  0  0  0  0  0  0  0  0  0  0  0
    0.0006   -0.5787    0.8161 H   0  0  0  0  0  0  0  0  0  0  0  0
   -1.2253    0.8356    0.0000 N   0  0  0  0  0  4  0  0  0  0  0  0
   -1.3879    1.1909    0.9208 H   0  0  0  0  0  0  0  0  0  0  0  0
   -1.1086    1.5990   -0.6356 H   0  0  0  0  0  0  0  0  0  0  0  0
   -2.0077    0.2814   -0.2856 H   0  0  0  0  0  0  0  0  0  0  0  0
    2.0602   -0.0753    4.7496 C   0  0  0  0  0  0  0  0  0  0  0  0
    2.7961   -0.0460    4.0353 H   0  0  0  0  0  0  0  0  0  0  0  0
    2.4631   -0.5954    5.5365 H   0  0  0  0  0  0  0  0  0  0  0  0
    1.8562    0.9442    5.0770 H   0  0  0  0  0  0  0  0  0  0  0  0
    0.5920   -0.9107    4.1182 S   0  0  0  0  0  0  0  0  0  0  0  0
    1.2585   -1.7091    2.6597 C   0  0  0  0  0  0  0  0  0  0  0  0
    0.7681   -2.5655    2.4925 H   0  0  0  0  0  0  0  0  0  0  0  0
    1.1519   -1.1052    1.8685 H   0  0  0  0  0  0  0  0  0  0  0  0
    2.2303   -1.9052    2.7991 H   0  0  0  0  0  0  0  0  0  0  0  0
  1  5  1  0
  5  8  1  0
  1  2  1  0
  1  3  1  0
  1  4  1  0
  5  6  1  0
  5  7  1  0
  8  9  1  0
  8 10  1  0
  8 11  1  0
 12 16  1  0
 16 17  1  0
 12 13  1  0
 12 14  1  0
 12 15  1  0
 17 18  1  0
 17 19  1  0
 17 20  1  0
M  CHG  1   8   1
M  END
>  <PDB_ID>  (55) 
pdb2qx5

>  <RESIDUE_NAME>  (55) 
LYS   MET

>  <FRAG_NAME>  (55) 
ETAM   MSM

>  <FRAG_ATOM_NUM>  (55) 
fragi: 11  fragj: 9

>  <atom.prop.CHAIN_ID>  (55) 
A A A A A A A A A A A Z Z Z Z Z Z Z Z Z

>  <atom.prop.IS_HEAVY_ATOM>  (55) 
1 0 0 0 1 0 0 1 0 0 0 1 0 0 0 1 1 0 0 0

>  <DIFUSE_FUNC_ATOM>  (55) 
n/a

>  <FINAL_SINGLE_POINT_ENERGY>  (55) 
0

>  <NONCOV_INTER_ENERGY_QM>  (55) 
0

>  <FF_Energy>  (55) 
9.67

>  <QM_Energy>  (55) 
-1.46

>  <source>  (55) 
ETAM_MSM

>  <Index>  (55) 
2902

$$$$
ETAM-pdb2rjg-B-LYS-356:MSM-pdb2rjg-B-MET-1
     RDKit          3D

 20 18  0  0  0  0  0  0  0  0999 V2000
    1.2776    0.8436   -0.0000 C   0  0  0  0  0  0  0  0  0  0  0  0
    1.3380    1.3235    0.8592 H   0  0  0  0  0  0  0  0  0  0  0  0
    1.2442    1.4642   -0.7651 H   0  0  0  0  0  0  0  0  0  0  0  0
    2.1487    0.1970   -0.1052 H   0  0  0  0  0  0  0  0  0  0  0  0
    0.0000    0.0000    0.0000 C   0  0  0  0  0  0  0  0  0  0  0  0
    0.0016   -0.5947   -0.8160 H   0  0  0  0  0  0  0  0  0  0  0  0
    0.0014   -0.5949    0.8160 H   0  0  0  0  0  0  0  0  0  0  0  0
   -1.2776    0.8102    0.0000 N   0  0  0  0  0  4  0  0  0  0  0  0
   -1.1116    1.6684   -0.4776 H   0  0  0  0  0  0  0  0  0  0  0  0
   -1.9865    0.2892   -0.4652 H   0  0  0  0  0  0  0  0  0  0  0  0
   -1.5433    0.9870    0.9427 H   0  0  0  0  0  0  0  0  0  0  0  0
   -0.2917   -3.8244    3.1534 C   0  0  0  0  0  0  0  0  0  0  0  0
    0.5192   -4.4358    3.2872 H   0  0  0  0  0  0  0  0  0  0  0  0
   -0.9110   -4.3220    2.5074 H   0  0  0  0  0  0  0  0  0  0  0  0
   -0.8045   -3.7243    4.1101 H   0  0  0  0  0  0  0  0  0  0  0  0
    0.2074   -2.2348    2.4684 S   0  0  0  0  0  0  0  0  0  0  0  0
    1.2097   -2.7571    0.8788 C   0  0  0  0  0  0  0  0  0  0  0  0
    1.9184   -3.3460    1.2045 H   0  0  0  0  0  0  0  0  0  0  0  0
    0.5616   -3.2114    0.3053 H   0  0  0  0  0  0  0  0  0  0  0  0
    1.5434   -1.9203    0.5005 H   0  0  0  0  0  0  0  0  0  0  0  0
  1  5  1  0
  5  8  1  0
  1  2  1  0
  1  3  1  0
  1  4  1  0
  5  6  1  0
  5  7  1  0
  8  9  1  0
  8 10  1  0
  8 11  1  0
 12 16  1  0
 16 17  1  0
 12 13  1  0
 12 14  1  0
 12 15  1  0
 17 18  1  0
 17 19  1  0
 17 20  1  0
M  CHG  1   8   1
M  END
>  <PDB_ID>  (56) 
pdb2rjg

>  <RESIDUE_NAME>  (56) 
LYS   MET

>  <FRAG_NAME>  (56) 
ETAM   MSM

>  <FRAG_ATOM_NUM>  (56) 
fragi: 11  fragj: 9

>  <atom.prop.CHAIN_ID>  (56) 
A A A A A A A A A A A Z Z Z Z Z Z Z Z Z

>  <atom.prop.IS_HEAVY_ATOM>  (56) 
1 0 0 0 1 0 0 1 0 0 0 1 0 0 0 1 1 0 0 0

>  <DIFUSE_FUNC_ATOM>  (56) 
n/a

>  <FINAL_SINGLE_POINT_ENERGY>  (56) 
0

>  <NONCOV_INTER_ENERGY_QM>  (56) 
0

>  <FF_Energy>  (56) 
7.17

>  <QM_Energy>  (56) 
-4.93

>  <source>  (56) 
ETAM_MSM

>  <Index>  (56) 
3053

$$$$
ETAM-pdb2v79-A-LYS-78:MSM-pdb2v79-A-MET-74
     RDKit          3D

 20 18  0  0  0  0  0  0  0  0999 V2000
    1.2374    0.8341    0.0000 C   0  0  0  0  0  0  0  0  0  0  0  0
    1.3533    1.2447    0.9115 H   0  0  0  0  0  0  0  0  0  0  0  0
    1.1304    1.5758   -0.6724 H   0  0  0  0  0  0  0  0  0  0  0  0
    2.1368    0.2687   -0.2441 H   0  0  0  0  0  0  0  0  0  0  0  0
    0.0000    0.0000    0.0000 C   0  0  0  0  0  0  0  0  0  0  0  0
    0.0133   -0.6097   -0.8162 H   0  0  0  0  0  0  0  0  0  0  0  0
    0.0127   -0.6102    0.8159 H   0  0  0  0  0  0  0  0  0  0  0  0
   -1.2374    0.7737   -0.0000 N   0  0  0  0  0  4  0  0  0  0  0  0
   -1.8071    0.5160   -0.7869 H   0  0  0  0  0  0  0  0  0  0  0  0
   -1.7542    0.6004    0.8443 H   0  0  0  0  0  0  0  0  0  0  0  0
   -1.0317    1.7549   -0.0574 H   0  0  0  0  0  0  0  0  0  0  0  0
    0.4360   -1.8406    2.8191 C   0  0  0  0  0  0  0  0  0  0  0  0
    1.1214   -1.2038    2.4137 H   0  0  0  0  0  0  0  0  0  0  0  0
    0.2555   -2.5560    2.1162 H   0  0  0  0  0  0  0  0  0  0  0  0
    0.8736   -2.3138    3.6980 H   0  0  0  0  0  0  0  0  0  0  0  0
   -1.0932   -0.9511    3.2280 S   0  0  0  0  0  0  0  0  0  0  0  0
   -0.3978    0.3986    4.1857 C   0  0  0  0  0  0  0  0  0  0  0  0
   -0.6242    0.2739    5.1516 H   0  0  0  0  0  0  0  0  0  0  0  0
    0.5967    0.4084    4.0755 H   0  0  0  0  0  0  0  0  0  0  0  0
   -0.7779    1.2663    3.8644 H   0  0  0  0  0  0  0  0  0  0  0  0
  1  5  1  0
  5  8  1  0
  1  2  1  0
  1  3  1  0
  1  4  1  0
  5  6  1  0
  5  7  1  0
  8  9  1  0
  8 10  1  0
  8 11  1  0
 12 16  1  0
 16 17  1  0
 12 13  1  0
 12 14  1  0
 12 15  1  0
 17 18  1  0
 17 19  1  0
 17 20  1  0
M  CHG  1   8   1
M  END
>  <PDB_ID>  (57) 
pdb2v79

>  <RESIDUE_NAME>  (57) 
LYS   MET

>  <FRAG_NAME>  (57) 
ETAM   MSM

>  <FRAG_ATOM_NUM>  (57) 
fragi: 11  fragj: 9

>  <atom.prop.CHAIN_ID>  (57) 
A A A A A A A A A A A Z Z Z Z Z Z Z Z Z

>  <atom.prop.IS_HEAVY_ATOM>  (57) 
1 0 0 0 1 0 0 1 0 0 0 1 0 0 0 1 1 0 0 0

>  <DIFUSE_FUNC_ATOM>  (57) 
n/a

>  <FINAL_SINGLE_POINT_ENERGY>  (57) 
0

>  <NONCOV_INTER_ENERGY_QM>  (57) 
0

>  <FF_Energy>  (57) 
-0.45

>  <QM_Energy>  (57) 
-11.12

>  <source>  (57) 
ETAM_MSM

>  <Index>  (57) 
3187

$$$$
ETAM-pdb1pne-A-LYS-125:MSM-pdb1pne-A-MET-122
     RDKit          3D

 20 18  0  0  0  0  0  0  0  0999 V2000
    1.2773    0.8534   -0.0000 C   0  0  0  0  0  0  0  0  0  0  0  0
    1.3821    1.2626    0.8952 H   0  0  0  0  0  0  0  0  0  0  0  0
    1.1934    1.5441   -0.7028 H   0  0  0  0  0  0  0  0  0  0  0  0
    2.1553    0.2429   -0.2107 H   0  0  0  0  0  0  0  0  0  0  0  0
    0.0000    0.0000    0.0000 C   0  0  0  0  0  0  0  0  0  0  0  0
    0.0112   -0.5967   -0.8165 H   0  0  0  0  0  0  0  0  0  0  0  0
    0.0114   -0.5967    0.8166 H   0  0  0  0  0  0  0  0  0  0  0  0
   -1.2773    0.7957   -0.0000 N   0  0  0  0  0  4  0  0  0  0  0  0
   -1.5401    0.9844    0.9425 H   0  0  0  0  0  0  0  0  0  0  0  0
   -1.1257    1.6509   -0.4894 H   0  0  0  0  0  0  0  0  0  0  0  0
   -1.9890    0.2650   -0.4533 H   0  0  0  0  0  0  0  0  0  0  0  0
   -4.0178   -1.8180   -2.9171 C   0  0  0  0  0  0  0  0  0  0  0  0
   -3.9389   -1.2923   -3.7813 H   0  0  0  0  0  0  0  0  0  0  0  0
   -4.9407   -2.2406   -2.9089 H   0  0  0  0  0  0  0  0  0  0  0  0
   -3.2672   -2.6083   -2.9154 H   0  0  0  0  0  0  0  0  0  0  0  0
   -3.7902   -0.7475   -1.4931 S   0  0  0  0  0  0  0  0  0  0  0  0
   -4.3469   -1.8383   -0.1919 C   0  0  0  0  0  0  0  0  0  0  0  0
   -4.1255   -1.4408    0.7003 H   0  0  0  0  0  0  0  0  0  0  0  0
   -5.3378   -1.9660   -0.2592 H   0  0  0  0  0  0  0  0  0  0  0  0
   -3.8933   -2.7271   -0.2792 H   0  0  0  0  0  0  0  0  0  0  0  0
  1  5  1  0
  5  8  1  0
  1  2  1  0
  1  3  1  0
  1  4  1  0
  5  6  1  0
  5  7  1  0
  8  9  1  0
  8 10  1  0
  8 11  1  0
 12 16  1  0
 16 17  1  0
 12 13  1  0
 12 14  1  0
 12 15  1  0
 17 18  1  0
 17 19  1  0
 17 20  1  0
M  CHG  1   8   1
M  END
>  <PDB_ID>  (58) 
pdb1pne

>  <RESIDUE_NAME>  (58) 
LYS   MET

>  <FRAG_NAME>  (58) 
ETAM   MSM

>  <FRAG_ATOM_NUM>  (58) 
fragi: 11  fragj: 9

>  <atom.prop.CHAIN_ID>  (58) 
A A A A A A A A A A A Z Z Z Z Z Z Z Z Z

>  <atom.prop.IS_HEAVY_ATOM>  (58) 
1 0 0 0 1 0 0 1 0 0 0 1 0 0 0 1 1 0 0 0

>  <DIFUSE_FUNC_ATOM>  (58) 
n/a

>  <FINAL_SINGLE_POINT_ENERGY>  (58) 
0

>  <NONCOV_INTER_ENERGY_QM>  (58) 
0

>  <FF_Energy>  (58) 
-5.5

>  <QM_Energy>  (58) 
-15.69

>  <source>  (58) 
ETAM_MSM

>  <Index>  (58) 
3327

$$$$
ETAM-pdb1qs1-B-LYS-1247:MSM-pdb1qs1-B-MET-1170
     RDKit          3D

 20 18  0  0  0  0  0  0  0  0999 V2000
    1.2396    0.8667   -0.0000 C   0  0  0  0  0  0  0  0  0  0  0  0
    1.2034    1.4794    0.7823 H   0  0  0  0  0  0  0  0  0  0  0  0
    1.2676    1.3871   -0.8464 H   0  0  0  0  0  0  0  0  0  0  0  0
    2.1445    0.2632    0.0708 H   0  0  0  0  0  0  0  0  0  0  0  0
    0.0000    0.0000    0.0000 C   0  0  0  0  0  0  0  0  0  0  0  0
    0.0102   -0.5850   -0.8162 H   0  0  0  0  0  0  0  0  0  0  0  0
    0.0094   -0.5861    0.8167 H   0  0  0  0  0  0  0  0  0  0  0  0
   -1.2396    0.8142   -0.0000 N   0  0  0  0  0  4  0  0  0  0  0  0
   -1.9743    0.3041    0.4491 H   0  0  0  0  0  0  0  0  0  0  0  0
   -1.0781    1.6697    0.4939 H   0  0  0  0  0  0  0  0  0  0  0  0
   -1.5046    1.0193   -0.9429 H   0  0  0  0  0  0  0  0  0  0  0  0
    0.4766   -3.6690    2.1935 C   0  0  0  0  0  0  0  0  0  0  0  0
    0.2991   -4.0134    3.1430 H   0  0  0  0  0  0  0  0  0  0  0  0
    1.2268   -4.2614    1.8214 H   0  0  0  0  0  0  0  0  0  0  0  0
   -0.4201   -3.8270    1.5943 H   0  0  0  0  0  0  0  0  0  0  0  0
    0.9760   -1.9486    2.2215 S   0  0  0  0  0  0  0  0  0  0  0  0
    2.4684   -2.0618    3.1770 C   0  0  0  0  0  0  0  0  0  0  0  0
    3.1030   -1.3318    2.9102 H   0  0  0  0  0  0  0  0  0  0  0  0
    2.2585   -1.9694    4.1538 H   0  0  0  0  0  0  0  0  0  0  0  0
    2.9094   -2.9497    3.0210 H   0  0  0  0  0  0  0  0  0  0  0  0
  1  5  1  0
  5  8  1  0
  1  2  1  0
  1  3  1  0
  1  4  1  0
  5  6  1  0
  5  7  1  0
  8  9  1  0
  8 10  1  0
  8 11  1  0
 12 16  1  0
 16 17  1  0
 12 13  1  0
 12 14  1  0
 12 15  1  0
 17 18  1  0
 17 19  1  0
 17 20  1  0
M  CHG  1   8   1
M  END
>  <PDB_ID>  (59) 
pdb1qs1

>  <RESIDUE_NAME>  (59) 
LYS   MET

>  <FRAG_NAME>  (59) 
ETAM   MSM

>  <FRAG_ATOM_NUM>  (59) 
fragi: 11  fragj: 9

>  <atom.prop.CHAIN_ID>  (59) 
A A A A A A A A A A A Z Z Z Z Z Z Z Z Z

>  <atom.prop.IS_HEAVY_ATOM>  (59) 
1 0 0 0 1 0 0 1 0 0 0 1 0 0 0 1 1 0 0 0

>  <DIFUSE_FUNC_ATOM>  (59) 
n/a

>  <FINAL_SINGLE_POINT_ENERGY>  (59) 
0

>  <NONCOV_INTER_ENERGY_QM>  (59) 
0

>  <FF_Energy>  (59) 
14.01

>  <QM_Energy>  (59) 
-5.54

>  <source>  (59) 
ETAM_MSM

>  <Index>  (59) 
3581

$$$$
ETAM-pdb1rbo-B-LYS-201:MSM-pdb1rbo-B-MET-266
     RDKit          3D

 20 18  0  0  0  0  0  0  0  0999 V2000
    1.2397    0.8603   -0.0000 C   0  0  0  0  0  0  0  0  0  0  0  0
    2.0453    0.2707    0.0045 H   0  0  0  0  0  0  0  0  0  0  0  0
    1.2373    1.4355    0.8147 H   0  0  0  0  0  0  0  0  0  0  0  0
    1.2952    1.5067   -0.8759 H   0  0  0  0  0  0  0  0  0  0  0  0
    0.0000    0.0000    0.0000 C   0  0  0  0  0  0  0  0  0  0  0  0
    0.0125   -0.5928   -0.8152 H   0  0  0  0  0  0  0  0  0  0  0  0
    0.0125   -0.5917    0.8169 H   0  0  0  0  0  0  0  0  0  0  0  0
   -1.2397    0.8007   -0.0000 N   0  0  0  0  0  4  0  0  0  0  0  0
   -1.0761    1.6769    0.4555 H   0  0  0  0  0  0  0  0  0  0  0  0
   -1.5327    0.9692   -0.9431 H   0  0  0  0  0  0  0  0  0  0  0  0
   -1.9624    0.3060    0.4868 H   0  0  0  0  0  0  0  0  0  0  0  0
   -4.2100   -1.0624   -2.7978 C   0  0  0  0  0  0  0  0  0  0  0  0
   -3.9518   -0.9854   -3.7837 H   0  0  0  0  0  0  0  0  0  0  0  0
   -5.1610   -0.6964   -2.7247 H   0  0  0  0  0  0  0  0  0  0  0  0
   -4.1967   -2.1102   -2.4976 H   0  0  0  0  0  0  0  0  0  0  0  0
   -3.0761   -0.0428   -1.7815 S   0  0  0  0  0  0  0  0  0  0  0  0
   -4.1890    1.0471   -0.9889 C   0  0  0  0  0  0  0  0  0  0  0  0
   -4.1476    0.9352    0.0126 H   0  0  0  0  0  0  0  0  0  0  0  0
   -3.9667    2.0058   -1.2072 H   0  0  0  0  0  0  0  0  0  0  0  0
   -5.1361    0.8692   -1.2858 H   0  0  0  0  0  0  0  0  0  0  0  0
  1  5  1  0
  5  8  1  0
  1  2  1  0
  1  3  1  0
  1  4  1  0
  5  6  1  0
  5  7  1  0
  8  9  1  0
  8 10  1  0
  8 11  1  0
 12 16  1  0
 16 17  1  0
 12 13  1  0
 12 14  1  0
 12 15  1  0
 17 18  1  0
 17 19  1  0
 17 20  1  0
M  CHG  1   8   1
M  END
>  <PDB_ID>  (60) 
pdb1rbo

>  <RESIDUE_NAME>  (60) 
LYS   MET

>  <FRAG_NAME>  (60) 
ETAM   MSM

>  <FRAG_ATOM_NUM>  (60) 
fragi: 11  fragj: 9

>  <atom.prop.CHAIN_ID>  (60) 
A A A A A A A A A A A Z Z Z Z Z Z Z Z Z

>  <atom.prop.IS_HEAVY_ATOM>  (60) 
1 0 0 0 1 0 0 1 0 0 0 1 0 0 0 1 1 0 0 0

>  <DIFUSE_FUNC_ATOM>  (60) 
n/a

>  <FINAL_SINGLE_POINT_ENERGY>  (60) 
0

>  <NONCOV_INTER_ENERGY_QM>  (60) 
0

>  <FF_Energy>  (60) 
9.97

>  <QM_Energy>  (60) 
-6.4

>  <source>  (60) 
ETAM_MSM

>  <Index>  (60) 
3690

$$$$
ETAM-pdb1rbo-L-LYS-201:MSM-pdb1rbo-L-MET-266
     RDKit          3D

 20 18  0  0  0  0  0  0  0  0999 V2000
    1.2407    0.8613    0.0000 C   0  0  0  0  0  0  0  0  0  0  0  0
    2.0455    0.2726    0.0051 H   0  0  0  0  0  0  0  0  0  0  0  0
    1.2367    1.4362    0.8162 H   0  0  0  0  0  0  0  0  0  0  0  0
    1.2955    1.5095   -0.8746 H   0  0  0  0  0  0  0  0  0  0  0  0
    0.0000    0.0000    0.0000 C   0  0  0  0  0  0  0  0  0  0  0  0
    0.0135   -0.5918   -0.8165 H   0  0  0  0  0  0  0  0  0  0  0  0
    0.0135   -0.5921    0.8155 H   0  0  0  0  0  0  0  0  0  0  0  0
   -1.2407    0.8001   -0.0000 N   0  0  0  0  0  4  0  0  0  0  0  0
   -1.9584    0.3104    0.4971 H   0  0  0  0  0  0  0  0  0  0  0  0
   -1.0734    1.6822    0.4449 H   0  0  0  0  0  0  0  0  0  0  0  0
   -1.5409    0.9578   -0.9424 H   0  0  0  0  0  0  0  0  0  0  0  0
   -4.2078   -1.0599   -2.8021 C   0  0  0  0  0  0  0  0  0  0  0  0
   -3.9497   -0.9810   -3.7874 H   0  0  0  0  0  0  0  0  0  0  0  0
   -5.1589   -0.6946   -2.7289 H   0  0  0  0  0  0  0  0  0  0  0  0
   -4.1939   -2.1082   -2.5036 H   0  0  0  0  0  0  0  0  0  0  0  0
   -3.0752   -0.0408   -1.7840 S   0  0  0  0  0  0  0  0  0  0  0  0
   -4.1887    1.0474   -0.9914 C   0  0  0  0  0  0  0  0  0  0  0  0
   -3.7034    1.6393   -0.3345 H   0  0  0  0  0  0  0  0  0  0  0  0
   -4.6513    1.6392   -1.6645 H   0  0  0  0  0  0  0  0  0  0  0  0
   -4.8951    0.5331   -0.4878 H   0  0  0  0  0  0  0  0  0  0  0  0
  1  5  1  0
  5  8  1  0
  1  2  1  0
  1  3  1  0
  1  4  1  0
  5  6  1  0
  5  7  1  0
  8  9  1  0
  8 10  1  0
  8 11  1  0
 12 16  1  0
 16 17  1  0
 12 13  1  0
 12 14  1  0
 12 15  1  0
 17 18  1  0
 17 19  1  0
 17 20  1  0
M  CHG  1   8   1
M  END
>  <PDB_ID>  (61) 
pdb1rbo

>  <RESIDUE_NAME>  (61) 
LYS   MET

>  <FRAG_NAME>  (61) 
ETAM   MSM

>  <FRAG_ATOM_NUM>  (61) 
fragi: 11  fragj: 9

>  <atom.prop.CHAIN_ID>  (61) 
A A A A A A A A A A A Z Z Z Z Z Z Z Z Z

>  <atom.prop.IS_HEAVY_ATOM>  (61) 
1 0 0 0 1 0 0 1 0 0 0 1 0 0 0 1 1 0 0 0

>  <DIFUSE_FUNC_ATOM>  (61) 
n/a

>  <FINAL_SINGLE_POINT_ENERGY>  (61) 
0

>  <NONCOV_INTER_ENERGY_QM>  (61) 
0

>  <FF_Energy>  (61) 
10.55

>  <QM_Energy>  (61) 
-6.46

>  <source>  (61) 
ETAM_MSM

>  <Index>  (61) 
3767

$$$$
ETAM-pdb1sul-A-LYS-190:MSM-pdb1sul-A-MET-1
     RDKit          3D

 20 18  0  0  0  0  0  0  0  0999 V2000
    1.2381    0.8973   -0.0000 C   0  0  0  0  0  0  0  0  0  0  0  0
    1.2546    1.3947   -0.8621 H   0  0  0  0  0  0  0  0  0  0  0  0
    2.0395    0.3114    0.0754 H   0  0  0  0  0  0  0  0  0  0  0  0
    1.2113    1.5998    0.8330 H   0  0  0  0  0  0  0  0  0  0  0  0
    0.0000    0.0000    0.0000 C   0  0  0  0  0  0  0  0  0  0  0  0
    0.0109   -0.5666   -0.8164 H   0  0  0  0  0  0  0  0  0  0  0  0
    0.0108   -0.5666    0.8160 H   0  0  0  0  0  0  0  0  0  0  0  0
   -1.2381    0.8416   -0.0000 N   0  0  0  0  0  4  0  0  0  0  0  0
   -2.0120    0.2844    0.2935 H   0  0  0  0  0  0  0  0  0  0  0  0
   -1.1135    1.6067    0.6289 H   0  0  0  0  0  0  0  0  0  0  0  0
   -1.4003    1.1857   -0.9228 H   0  0  0  0  0  0  0  0  0  0  0  0
   -2.3618   -2.0048    2.9003 C   0  0  0  0  0  0  0  0  0  0  0  0
   -1.4158   -2.3909    2.9651 H   0  0  0  0  0  0  0  0  0  0  0  0
   -2.9815   -2.7172    3.2957 H   0  0  0  0  0  0  0  0  0  0  0  0
   -2.4150   -1.1137    3.5258 H   0  0  0  0  0  0  0  0  0  0  0  0
   -2.7964   -1.6685    1.1746 S   0  0  0  0  0  0  0  0  0  0  0  0
   -2.2347   -3.1653    0.3613 C   0  0  0  0  0  0  0  0  0  0  0  0
   -1.6803   -2.9250   -0.4360 H   0  0  0  0  0  0  0  0  0  0  0  0
   -1.6839   -3.7063    0.9986 H   0  0  0  0  0  0  0  0  0  0  0  0
   -3.0254   -3.7030    0.0662 H   0  0  0  0  0  0  0  0  0  0  0  0
  1  5  1  0
  5  8  1  0
  1  2  1  0
  1  3  1  0
  1  4  1  0
  5  6  1  0
  5  7  1  0
  8  9  1  0
  8 10  1  0
  8 11  1  0
 12 16  1  0
 16 17  1  0
 12 13  1  0
 12 14  1  0
 12 15  1  0
 17 18  1  0
 17 19  1  0
 17 20  1  0
M  CHG  1   8   1
M  END
>  <PDB_ID>  (62) 
pdb1sul

>  <RESIDUE_NAME>  (62) 
LYS   MET

>  <FRAG_NAME>  (62) 
ETAM   MSM

>  <FRAG_ATOM_NUM>  (62) 
fragi: 11  fragj: 9

>  <atom.prop.CHAIN_ID>  (62) 
A A A A A A A A A A A Z Z Z Z Z Z Z Z Z

>  <atom.prop.IS_HEAVY_ATOM>  (62) 
1 0 0 0 1 0 0 1 0 0 0 1 0 0 0 1 1 0 0 0

>  <DIFUSE_FUNC_ATOM>  (62) 
n/a

>  <FINAL_SINGLE_POINT_ENERGY>  (62) 
0

>  <NONCOV_INTER_ENERGY_QM>  (62) 
0

>  <FF_Energy>  (62) 
-5.13

>  <QM_Energy>  (62) 
-15.88

>  <source>  (62) 
ETAM_MSM

>  <Index>  (62) 
3948

$$$$
ETAM-pdb1t2a-D-LYS-229:MSM-pdb1t2a-D-MET-366
     RDKit          3D

 20 18  0  0  0  0  0  0  0  0999 V2000
    1.2018    0.9010    0.0000 C   0  0  0  0  0  0  0  0  0  0  0  0
    1.1274    1.5603   -0.7349 H   0  0  0  0  0  0  0  0  0  0  0  0
    2.0266    0.3606   -0.0892 H   0  0  0  0  0  0  0  0  0  0  0  0
    1.2730    1.4581    0.9342 H   0  0  0  0  0  0  0  0  0  0  0  0
    0.0000    0.0000    0.0000 C   0  0  0  0  0  0  0  0  0  0  0  0
   -0.0171   -0.5401   -0.8158 H   0  0  0  0  0  0  0  0  0  0  0  0
   -0.0169   -0.5398    0.8160 H   0  0  0  0  0  0  0  0  0  0  0  0
   -1.2018    0.9166    0.0000 N   0  0  0  0  0  4  0  0  0  0  0  0
   -1.7071    0.7812    0.8470 H   0  0  0  0  0  0  0  0  0  0  0  0
   -0.8857    1.8585   -0.0655 H   0  0  0  0  0  0  0  0  0  0  0  0
   -1.7761    0.6914   -0.7821 H   0  0  0  0  0  0  0  0  0  0  0  0
   -1.8760    1.9832    3.9587 C   0  0  0  0  0  0  0  0  0  0  0  0
   -2.6906    2.5408    4.2409 H   0  0  0  0  0  0  0  0  0  0  0  0
   -1.2029    2.6603    3.5791 H   0  0  0  0  0  0  0  0  0  0  0  0
   -1.4411    1.5553    4.8620 H   0  0  0  0  0  0  0  0  0  0  0  0
   -2.3272    0.7516    2.7222 S   0  0  0  0  0  0  0  0  0  0  0  0
   -4.0131    0.7388    2.9919 C   0  0  0  0  0  0  0  0  0  0  0  0
   -4.3154    1.5459    3.5291 H   0  0  0  0  0  0  0  0  0  0  0  0
   -4.5348    0.7490    2.1206 H   0  0  0  0  0  0  0  0  0  0  0  0
   -4.3069   -0.0870    3.5057 H   0  0  0  0  0  0  0  0  0  0  0  0
  1  5  1  0
  5  8  1  0
  1  2  1  0
  1  3  1  0
  1  4  1  0
  5  6  1  0
  5  7  1  0
  8  9  1  0
  8 10  1  0
  8 11  1  0
 12 16  1  0
 16 17  1  0
 12 13  1  0
 12 14  1  0
 12 15  1  0
 17 18  1  0
 17 19  1  0
 17 20  1  0
M  CHG  1   8   1
M  END
>  <PDB_ID>  (63) 
pdb1t2a

>  <RESIDUE_NAME>  (63) 
LYS   MET

>  <FRAG_NAME>  (63) 
ETAM   MSM

>  <FRAG_ATOM_NUM>  (63) 
fragi: 11  fragj: 9

>  <atom.prop.CHAIN_ID>  (63) 
A A A A A A A A A A A Z Z Z Z Z Z Z Z Z

>  <atom.prop.IS_HEAVY_ATOM>  (63) 
1 0 0 0 1 0 0 1 0 0 0 1 0 0 0 1 1 0 0 0

>  <DIFUSE_FUNC_ATOM>  (63) 
n/a

>  <FINAL_SINGLE_POINT_ENERGY>  (63) 
0

>  <NONCOV_INTER_ENERGY_QM>  (63) 
0

>  <FF_Energy>  (63) 
-3.25

>  <QM_Energy>  (63) 
-13.97

>  <source>  (63) 
ETAM_MSM

>  <Index>  (63) 
3982

$$$$
ETAM-pdb1t3t-A-LYS-329:MSM-pdb1t3t-A-MET-663
     RDKit          3D

 20 18  0  0  0  0  0  0  0  0999 V2000
    1.2293    0.8731    0.0000 C   0  0  0  0  0  0  0  0  0  0  0  0
    1.0853    1.6280   -0.6296 H   0  0  0  0  0  0  0  0  0  0  0  0
    2.0096    0.3272   -0.2803 H   0  0  0  0  0  0  0  0  0  0  0  0
    1.4115    1.2710    0.9982 H   0  0  0  0  0  0  0  0  0  0  0  0
    0.0000    0.0000    0.0000 C   0  0  0  0  0  0  0  0  0  0  0  0
    0.0074   -0.5793   -0.8158 H   0  0  0  0  0  0  0  0  0  0  0  0
    0.0068   -0.5795    0.8163 H   0  0  0  0  0  0  0  0  0  0  0  0
   -1.2293    0.8280   -0.0000 N   0  0  0  0  0  4  0  0  0  0  0  0
   -1.6650    0.7800   -0.8993 H   0  0  0  0  0  0  0  0  0  0  0  0
   -1.8625    0.4858    0.6949 H   0  0  0  0  0  0  0  0  0  0  0  0
   -0.9929    1.7784    0.2049 H   0  0  0  0  0  0  0  0  0  0  0  0
   -3.4448   -1.9864    2.5946 C   0  0  0  0  0  0  0  0  0  0  0  0
   -4.1213   -2.6458    2.1916 H   0  0  0  0  0  0  0  0  0  0  0  0
   -3.7614   -1.8297    3.5588 H   0  0  0  0  0  0  0  0  0  0  0  0
   -2.4715   -2.4759    2.6297 H   0  0  0  0  0  0  0  0  0  0  0  0
   -3.4278   -0.4393    1.6664 S   0  0  0  0  0  0  0  0  0  0  0  0
   -3.4784    0.7040    3.0206 C   0  0  0  0  0  0  0  0  0  0  0  0
   -4.2914    1.2893    2.9473 H   0  0  0  0  0  0  0  0  0  0  0  0
   -3.5149    0.2053    3.8917 H   0  0  0  0  0  0  0  0  0  0  0  0
   -2.6594    1.2844    3.0128 H   0  0  0  0  0  0  0  0  0  0  0  0
  1  5  1  0
  5  8  1  0
  1  2  1  0
  1  3  1  0
  1  4  1  0
  5  6  1  0
  5  7  1  0
  8  9  1  0
  8 10  1  0
  8 11  1  0
 12 16  1  0
 16 17  1  0
 12 13  1  0
 12 14  1  0
 12 15  1  0
 17 18  1  0
 17 19  1  0
 17 20  1  0
M  CHG  1   8   1
M  END
>  <PDB_ID>  (64) 
pdb1t3t

>  <RESIDUE_NAME>  (64) 
LYS   MET

>  <FRAG_NAME>  (64) 
ETAM   MSM

>  <FRAG_ATOM_NUM>  (64) 
fragi: 11  fragj: 9

>  <atom.prop.CHAIN_ID>  (64) 
A A A A A A A A A A A Z Z Z Z Z Z Z Z Z

>  <atom.prop.IS_HEAVY_ATOM>  (64) 
1 0 0 0 1 0 0 1 0 0 0 1 0 0 0 1 1 0 0 0

>  <DIFUSE_FUNC_ATOM>  (64) 
n/a

>  <FINAL_SINGLE_POINT_ENERGY>  (64) 
0

>  <NONCOV_INTER_ENERGY_QM>  (64) 
0

>  <FF_Energy>  (64) 
-4.22

>  <QM_Energy>  (64) 
-14.99

>  <source>  (64) 
ETAM_MSM

>  <Index>  (64) 
3991

$$$$
ETAM-pdb2zc8-B-LYS-262:MSM-pdb2zc8-B-MET-291
     RDKit          3D

 20 18  0  0  0  0  0  0  0  0999 V2000
    1.2283    0.8889    0.0000 C   0  0  0  0  0  0  0  0  0  0  0  0
    1.1924    1.4866    0.7922 H   0  0  0  0  0  0  0  0  0  0  0  0
    1.2409    1.4196   -0.8396 H   0  0  0  0  0  0  0  0  0  0  0  0
    2.1427    0.2979    0.0523 H   0  0  0  0  0  0  0  0  0  0  0  0
    0.0000    0.0000    0.0000 C   0  0  0  0  0  0  0  0  0  0  0  0
    0.0033   -0.5650   -0.8159 H   0  0  0  0  0  0  0  0  0  0  0  0
    0.0025   -0.5647    0.8161 H   0  0  0  0  0  0  0  0  0  0  0  0
   -1.2283    0.8546   -0.0000 N   0  0  0  0  0  4  0  0  0  0  0  0
   -2.0358    0.2681    0.0296 H   0  0  0  0  0  0  0  0  0  0  0  0
   -1.2135    1.4493    0.8011 H   0  0  0  0  0  0  0  0  0  0  0  0
   -1.2426    1.4075   -0.8310 H   0  0  0  0  0  0  0  0  0  0  0  0
    0.8431    1.4147   -3.7713 C   0  0  0  0  0  0  0  0  0  0  0  0
    1.0764    0.5772   -3.2796 H   0  0  0  0  0  0  0  0  0  0  0  0
    1.6080    2.0545   -3.7267 H   0  0  0  0  0  0  0  0  0  0  0  0
    0.6760    1.1579   -4.8173 H   0  0  0  0  0  0  0  0  0  0  0  0
   -0.6773    2.1568   -3.1260 S   0  0  0  0  0  0  0  0  0  0  0  0
   -0.4562    3.9193   -3.6308 C   0  0  0  0  0  0  0  0  0  0  0  0
    0.3340    3.9714   -4.2282 H   0  0  0  0  0  0  0  0  0  0  0  0
   -1.2775    4.2089   -4.1055 H   0  0  0  0  0  0  0  0  0  0  0  0
   -0.3145    4.4586   -2.8107 H   0  0  0  0  0  0  0  0  0  0  0  0
  1  5  1  0
  5  8  1  0
  1  2  1  0
  1  3  1  0
  1  4  1  0
  5  6  1  0
  5  7  1  0
  8  9  1  0
  8 10  1  0
  8 11  1  0
 12 16  1  0
 16 17  1  0
 12 13  1  0
 12 14  1  0
 12 15  1  0
 17 18  1  0
 17 19  1  0
 17 20  1  0
M  CHG  1   8   1
M  END
>  <PDB_ID>  (65) 
pdb2zc8

>  <RESIDUE_NAME>  (65) 
LYS   MET

>  <FRAG_NAME>  (65) 
ETAM   MSM

>  <FRAG_ATOM_NUM>  (65) 
fragi: 11  fragj: 9

>  <atom.prop.CHAIN_ID>  (65) 
A A A A A A A A A A A Z Z Z Z Z Z Z Z Z

>  <atom.prop.IS_HEAVY_ATOM>  (65) 
1 0 0 0 1 0 0 1 0 0 0 1 0 0 0 1 1 0 0 0

>  <DIFUSE_FUNC_ATOM>  (65) 
n/a

>  <FINAL_SINGLE_POINT_ENERGY>  (65) 
0

>  <NONCOV_INTER_ENERGY_QM>  (65) 
0

>  <FF_Energy>  (65) 
-5.99

>  <QM_Energy>  (65) 
-16.23

>  <source>  (65) 
ETAM_MSM

>  <Index>  (65) 
4074

$$$$
ETAM-pdb2zoq-A-LYS-181:MSM-pdb2zoq-A-MET-125
     RDKit          3D

 20 18  0  0  0  0  0  0  0  0999 V2000
    1.2265    0.8869    0.0000 C   0  0  0  0  0  0  0  0  0  0  0  0
    1.1675    1.5119    0.7746 H   0  0  0  0  0  0  0  0  0  0  0  0
    1.2461    1.4020   -0.8529 H   0  0  0  0  0  0  0  0  0  0  0  0
    2.1436    0.3038    0.0844 H   0  0  0  0  0  0  0  0  0  0  0  0
    0.0000    0.0000    0.0000 C   0  0  0  0  0  0  0  0  0  0  0  0
    0.0123   -0.5736   -0.8163 H   0  0  0  0  0  0  0  0  0  0  0  0
    0.0124   -0.5745    0.8162 H   0  0  0  0  0  0  0  0  0  0  0  0
   -1.2265    0.8293    0.0000 N   0  0  0  0  0  4  0  0  0  0  0  0
   -1.0565    1.6793    0.5006 H   0  0  0  0  0  0  0  0  0  0  0  0
   -1.4855    1.0458   -0.9423 H   0  0  0  0  0  0  0  0  0  0  0  0
   -1.9710    0.3263    0.4413 H   0  0  0  0  0  0  0  0  0  0  0  0
    1.2761    1.7885    5.3028 C   0  0  0  0  0  0  0  0  0  0  0  0
    2.2265    1.8280    4.9138 H   0  0  0  0  0  0  0  0  0  0  0  0
    1.2899    1.0002    5.9635 H   0  0  0  0  0  0  0  0  0  0  0  0
    1.0810    2.7090    5.8531 H   0  0  0  0  0  0  0  0  0  0  0  0
    0.0705    1.4777    3.9824 S   0  0  0  0  0  0  0  0  0  0  0  0
    0.9106    0.1451    3.1467 C   0  0  0  0  0  0  0  0  0  0  0  0
    0.5425   -0.7345    3.4550 H   0  0  0  0  0  0  0  0  0  0  0  0
    0.7784    0.2284    2.1565 H   0  0  0  0  0  0  0  0  0  0  0  0
    1.8910    0.1805    3.3511 H   0  0  0  0  0  0  0  0  0  0  0  0
  1  5  1  0
  5  8  1  0
  1  2  1  0
  1  3  1  0
  1  4  1  0
  5  6  1  0
  5  7  1  0
  8  9  1  0
  8 10  1  0
  8 11  1  0
 12 16  1  0
 16 17  1  0
 12 13  1  0
 12 14  1  0
 12 15  1  0
 17 18  1  0
 17 19  1  0
 17 20  1  0
M  CHG  1   8   1
M  END
>  <PDB_ID>  (66) 
pdb2zoq

>  <RESIDUE_NAME>  (66) 
LYS   MET

>  <FRAG_NAME>  (66) 
ETAM   MSM

>  <FRAG_ATOM_NUM>  (66) 
fragi: 11  fragj: 9

>  <atom.prop.CHAIN_ID>  (66) 
A A A A A A A A A A A Z Z Z Z Z Z Z Z Z

>  <atom.prop.IS_HEAVY_ATOM>  (66) 
1 0 0 0 1 0 0 1 0 0 0 1 0 0 0 1 1 0 0 0

>  <DIFUSE_FUNC_ATOM>  (66) 
n/a

>  <FINAL_SINGLE_POINT_ENERGY>  (66) 
0

>  <NONCOV_INTER_ENERGY_QM>  (66) 
0

>  <FF_Energy>  (66) 
10.54

>  <QM_Energy>  (66) 
-0.64

>  <source>  (66) 
ETAM_MSM

>  <Index>  (66) 
4151

$$$$
ETAM-pdb2zv3-G-LYS-17:MSM-pdb2zv3-G-MET-13
     RDKit          3D

 20 18  0  0  0  0  0  0  0  0999 V2000
    1.2512    0.8573    0.0000 C   0  0  0  0  0  0  0  0  0  0  0  0
    1.2322    1.4420    0.8033 H   0  0  0  0  0  0  0  0  0  0  0  0
    1.2568    1.4066   -0.8287 H   0  0  0  0  0  0  0  0  0  0  0  0
    2.1462    0.2357    0.0276 H   0  0  0  0  0  0  0  0  0  0  0  0
    0.0000    0.0000    0.0000 C   0  0  0  0  0  0  0  0  0  0  0  0
    0.0053   -0.5888   -0.8161 H   0  0  0  0  0  0  0  0  0  0  0  0
    0.0052   -0.5884    0.8168 H   0  0  0  0  0  0  0  0  0  0  0  0
   -1.2512    0.8152   -0.0000 N   0  0  0  0  0  4  0  0  0  0  0  0
   -1.6005    0.8822    0.9333 H   0  0  0  0  0  0  0  0  0  0  0  0
   -1.0485    1.7286   -0.3499 H   0  0  0  0  0  0  0  0  0  0  0  0
   -1.9313    0.3738   -0.5833 H   0  0  0  0  0  0  0  0  0  0  0  0
    0.6610    2.1846    3.6243 C   0  0  0  0  0  0  0  0  0  0  0  0
    0.6097    1.1698    3.6817 H   0  0  0  0  0  0  0  0  0  0  0  0
    0.2102    2.5472    4.4616 H   0  0  0  0  0  0  0  0  0  0  0  0
    1.7078    2.4882    3.6228 H   0  0  0  0  0  0  0  0  0  0  0  0
   -0.1745    2.7805    2.1455 S   0  0  0  0  0  0  0  0  0  0  0  0
   -0.6901    4.4371    2.6624 C   0  0  0  0  0  0  0  0  0  0  0  0
    0.0195    5.0924    2.4113 H   0  0  0  0  0  0  0  0  0  0  0  0
   -1.5453    4.6707    2.2040 H   0  0  0  0  0  0  0  0  0  0  0  0
   -0.8228    4.4434    3.6515 H   0  0  0  0  0  0  0  0  0  0  0  0
  1  5  1  0
  5  8  1  0
  1  2  1  0
  1  3  1  0
  1  4  1  0
  5  6  1  0
  5  7  1  0
  8  9  1  0
  8 10  1  0
  8 11  1  0
 12 16  1  0
 16 17  1  0
 12 13  1  0
 12 14  1  0
 12 15  1  0
 17 18  1  0
 17 19  1  0
 17 20  1  0
M  CHG  1   8   1
M  END
>  <PDB_ID>  (67) 
pdb2zv3

>  <RESIDUE_NAME>  (67) 
LYS   MET

>  <FRAG_NAME>  (67) 
ETAM   MSM

>  <FRAG_ATOM_NUM>  (67) 
fragi: 11  fragj: 9

>  <atom.prop.CHAIN_ID>  (67) 
A A A A A A A A A A A Z Z Z Z Z Z Z Z Z

>  <atom.prop.IS_HEAVY_ATOM>  (67) 
1 0 0 0 1 0 0 1 0 0 0 1 0 0 0 1 1 0 0 0

>  <DIFUSE_FUNC_ATOM>  (67) 
n/a

>  <FINAL_SINGLE_POINT_ENERGY>  (67) 
0

>  <NONCOV_INTER_ENERGY_QM>  (67) 
0

>  <FF_Energy>  (67) 
1.69

>  <QM_Energy>  (67) 
-11.53

>  <source>  (67) 
ETAM_MSM

>  <Index>  (67) 
4181

$$$$
ETAM-pdb1uax-B-LYS-101:MSM-pdb1uax-B-MET-1
     RDKit          3D

 20 18  0  0  0  0  0  0  0  0999 V2000
    1.2504    0.8657    0.0000 C   0  0  0  0  0  0  0  0  0  0  0  0
    1.2591    1.4101    0.8334 H   0  0  0  0  0  0  0  0  0  0  0  0
    1.2252    1.4589   -0.7984 H   0  0  0  0  0  0  0  0  0  0  0  0
    2.1574    0.2621   -0.0360 H   0  0  0  0  0  0  0  0  0  0  0  0
    0.0000    0.0000    0.0000 C   0  0  0  0  0  0  0  0  0  0  0  0
    0.0087   -0.5853   -0.8163 H   0  0  0  0  0  0  0  0  0  0  0  0
    0.0077   -0.5853    0.8167 H   0  0  0  0  0  0  0  0  0  0  0  0
   -1.2504    0.8165    0.0000 N   0  0  0  0  0  4  0  0  0  0  0  0
   -1.0330    1.7520    0.2745 H   0  0  0  0  0  0  0  0  0  0  0  0
   -1.6428    0.8173   -0.9184 H   0  0  0  0  0  0  0  0  0  0  0  0
   -1.9029    0.4200    0.6442 H   0  0  0  0  0  0  0  0  0  0  0  0
    0.0800   -3.3545   -3.2979 C   0  0  0  0  0  0  0  0  0  0  0  0
   -0.0211   -3.9894   -2.4932 H   0  0  0  0  0  0  0  0  0  0  0  0
    0.9913   -3.5980   -3.7122 H   0  0  0  0  0  0  0  0  0  0  0  0
   -0.6996   -3.5936   -4.0212 H   0  0  0  0  0  0  0  0  0  0  0  0
    0.0517   -1.6465   -2.7728 S   0  0  0  0  0  0  0  0  0  0  0  0
    1.0388   -0.8952   -4.0539 C   0  0  0  0  0  0  0  0  0  0  0  0
    0.5887   -1.0120   -4.9416 H   0  0  0  0  0  0  0  0  0  0  0  0
    1.1492    0.0836   -3.8674 H   0  0  0  0  0  0  0  0  0  0  0  0
    1.9422   -1.3273   -4.0843 H   0  0  0  0  0  0  0  0  0  0  0  0
  1  5  1  0
  5  8  1  0
  1  2  1  0
  1  3  1  0
  1  4  1  0
  5  6  1  0
  5  7  1  0
  8  9  1  0
  8 10  1  0
  8 11  1  0
 12 16  1  0
 16 17  1  0
 12 13  1  0
 12 14  1  0
 12 15  1  0
 17 18  1  0
 17 19  1  0
 17 20  1  0
M  CHG  1   8   1
M  END
>  <PDB_ID>  (68) 
pdb1uax

>  <RESIDUE_NAME>  (68) 
LYS   MET

>  <FRAG_NAME>  (68) 
ETAM   MSM

>  <FRAG_ATOM_NUM>  (68) 
fragi: 11  fragj: 9

>  <atom.prop.CHAIN_ID>  (68) 
A A A A A A A A A A A Z Z Z Z Z Z Z Z Z

>  <atom.prop.IS_HEAVY_ATOM>  (68) 
1 0 0 0 1 0 0 1 0 0 0 1 0 0 0 1 1 0 0 0

>  <DIFUSE_FUNC_ATOM>  (68) 
n/a

>  <FINAL_SINGLE_POINT_ENERGY>  (68) 
0

>  <NONCOV_INTER_ENERGY_QM>  (68) 
0

>  <FF_Energy>  (68) 
8.74

>  <QM_Energy>  (68) 
-7.21

>  <source>  (68) 
ETAM_MSM

>  <Index>  (68) 
4261

$$$$
ETAM-pdb1urq-C-LYS-83:MSM-pdb1urq-A-MET-1104
     RDKit          3D

 20 18  0  0  0  0  0  0  0  0999 V2000
    1.2337    0.8930    0.0000 C   0  0  0  0  0  0  0  0  0  0  0  0
    1.2168    1.4554    0.8165 H   0  0  0  0  0  0  0  0  0  0  0  0
    1.2164    1.4554   -0.8166 H   0  0  0  0  0  0  0  0  0  0  0  0
    2.1446    0.2945    0.0006 H   0  0  0  0  0  0  0  0  0  0  0  0
    0.0000    0.0000    0.0000 C   0  0  0  0  0  0  0  0  0  0  0  0
    0.0087   -0.5671   -0.8159 H   0  0  0  0  0  0  0  0  0  0  0  0
    0.0077   -0.5668    0.8161 H   0  0  0  0  0  0  0  0  0  0  0  0
   -1.2337    0.8441   -0.0000 N   0  0  0  0  0  4  0  0  0  0  0  0
   -1.9999    0.3062    0.3463 H   0  0  0  0  0  0  0  0  0  0  0  0
   -1.0873    1.6391    0.5864 H   0  0  0  0  0  0  0  0  0  0  0  0
   -1.4263    1.1445   -0.9332 H   0  0  0  0  0  0  0  0  0  0  0  0
   -2.8541    2.6292    2.4313 C   0  0  0  0  0  0  0  0  0  0  0  0
   -2.8140    2.3637    3.4112 H   0  0  0  0  0  0  0  0  0  0  0  0
   -3.0133    1.7762    1.9016 H   0  0  0  0  0  0  0  0  0  0  0  0
   -3.6770    3.3255    2.2697 H   0  0  0  0  0  0  0  0  0  0  0  0
   -1.2262    3.3675    1.9295 S   0  0  0  0  0  0  0  0  0  0  0  0
   -1.6208    4.1474    0.5393 C   0  0  0  0  0  0  0  0  0  0  0  0
   -1.9693    5.1033    0.6896 H   0  0  0  0  0  0  0  0  0  0  0  0
   -0.8314    4.2487   -0.1124 H   0  0  0  0  0  0  0  0  0  0  0  0
   -2.3571    3.6746   -0.0016 H   0  0  0  0  0  0  0  0  0  0  0  0
  1  5  1  0
  5  8  1  0
  1  2  1  0
  1  3  1  0
  1  4  1  0
  5  6  1  0
  5  7  1  0
  8  9  1  0
  8 10  1  0
  8 11  1  0
 12 16  1  0
 16 17  1  0
 12 13  1  0
 12 14  1  0
 12 15  1  0
 17 18  1  0
 17 19  1  0
 17 20  1  0
M  CHG  1   8   1
M  END
>  <PDB_ID>  (69) 
pdb1urq

>  <RESIDUE_NAME>  (69) 
LYS   MET

>  <FRAG_NAME>  (69) 
ETAM   MSM

>  <FRAG_ATOM_NUM>  (69) 
fragi: 11  fragj: 9

>  <atom.prop.CHAIN_ID>  (69) 
A A A A A A A A A A A Z Z Z Z Z Z Z Z Z

>  <atom.prop.IS_HEAVY_ATOM>  (69) 
1 0 0 0 1 0 0 1 0 0 0 1 0 0 0 1 1 0 0 0

>  <DIFUSE_FUNC_ATOM>  (69) 
n/a

>  <FINAL_SINGLE_POINT_ENERGY>  (69) 
0

>  <NONCOV_INTER_ENERGY_QM>  (69) 
0

>  <FF_Energy>  (69) 
-3.38

>  <QM_Energy>  (69) 
-13.4

>  <source>  (69) 
ETAM_MSM

>  <Index>  (69) 
4307

$$$$
ETAM-pdb1v96-A-LYS-32:MSM-pdb1v96-A-MET-143
     RDKit          3D

 20 18  0  0  0  0  0  0  0  0999 V2000
    1.2379    0.8765    0.0000 C   0  0  0  0  0  0  0  0  0  0  0  0
    2.0401    0.2966   -0.0844 H   0  0  0  0  0  0  0  0  0  0  0  0
    1.2651    1.3902    0.8496 H   0  0  0  0  0  0  0  0  0  0  0  0
    1.2207    1.5763   -0.8356 H   0  0  0  0  0  0  0  0  0  0  0  0
    0.0000    0.0000    0.0000 C   0  0  0  0  0  0  0  0  0  0  0  0
    0.0102   -0.5785   -0.8162 H   0  0  0  0  0  0  0  0  0  0  0  0
    0.0094   -0.5794    0.8163 H   0  0  0  0  0  0  0  0  0  0  0  0
   -1.2379    0.8242    0.0000 N   0  0  0  0  0  4  0  0  0  0  0  0
   -1.9198    0.4000   -0.5958 H   0  0  0  0  0  0  0  0  0  0  0  0
   -1.5977    0.8822    0.9308 H   0  0  0  0  0  0  0  0  0  0  0  0
   -1.0254    1.7418   -0.3345 H   0  0  0  0  0  0  0  0  0  0  0  0
    1.2657   -0.2168    3.6343 C   0  0  0  0  0  0  0  0  0  0  0  0
    0.5012   -0.5143    3.0452 H   0  0  0  0  0  0  0  0  0  0  0  0
    0.8732    0.2725    4.4264 H   0  0  0  0  0  0  0  0  0  0  0  0
    1.8172   -1.0900    3.9828 H   0  0  0  0  0  0  0  0  0  0  0  0
    2.3895    0.8537    2.7218 S   0  0  0  0  0  0  0  0  0  0  0  0
    3.7456    0.8283    3.7637 C   0  0  0  0  0  0  0  0  0  0  0  0
    3.4738    0.9248    4.7376 H   0  0  0  0  0  0  0  0  0  0  0  0
    4.2657   -0.0400    3.6830 H   0  0  0  0  0  0  0  0  0  0  0  0
    4.3921    1.5833    3.5582 H   0  0  0  0  0  0  0  0  0  0  0  0
  1  5  1  0
  5  8  1  0
  1  2  1  0
  1  3  1  0
  1  4  1  0
  5  6  1  0
  5  7  1  0
  8  9  1  0
  8 10  1  0
  8 11  1  0
 12 16  1  0
 16 17  1  0
 12 13  1  0
 12 14  1  0
 12 15  1  0
 17 18  1  0
 17 19  1  0
 17 20  1  0
M  CHG  1   8   1
M  END
>  <PDB_ID>  (70) 
pdb1v96

>  <RESIDUE_NAME>  (70) 
LYS   MET

>  <FRAG_NAME>  (70) 
ETAM   MSM

>  <FRAG_ATOM_NUM>  (70) 
fragi: 11  fragj: 9

>  <atom.prop.CHAIN_ID>  (70) 
A A A A A A A A A A A Z Z Z Z Z Z Z Z Z

>  <atom.prop.IS_HEAVY_ATOM>  (70) 
1 0 0 0 1 0 0 1 0 0 0 1 0 0 0 1 1 0 0 0

>  <DIFUSE_FUNC_ATOM>  (70) 
n/a

>  <FINAL_SINGLE_POINT_ENERGY>  (70) 
0

>  <NONCOV_INTER_ENERGY_QM>  (70) 
0

>  <FF_Energy>  (70) 
11.92

>  <QM_Energy>  (70) 
-0.06

>  <source>  (70) 
ETAM_MSM

>  <Index>  (70) 
4353

$$$$
ETAM-pdb1vdf-D-LYS-62:MSM-pdb1vdf-D-MET-66
     RDKit          3D

 20 18  0  0  0  0  0  0  0  0999 V2000
    1.2323    0.8567   -0.0000 C   0  0  0  0  0  0  0  0  0  0  0  0
    1.6876    0.7680    0.8846 H   0  0  0  0  0  0  0  0  0  0  0  0
    0.9656    1.8068   -0.1485 H   0  0  0  0  0  0  0  0  0  0  0  0
    1.9271    0.5579   -0.7850 H   0  0  0  0  0  0  0  0  0  0  0  0
    0.0000    0.0000    0.0000 C   0  0  0  0  0  0  0  0  0  0  0  0
    0.0098   -0.5919   -0.8158 H   0  0  0  0  0  0  0  0  0  0  0  0
    0.0093   -0.5921    0.8161 H   0  0  0  0  0  0  0  0  0  0  0  0
   -1.2323    0.8062    0.0000 N   0  0  0  0  0  4  0  0  0  0  0  0
   -1.3647    1.2232    0.9021 H   0  0  0  0  0  0  0  0  0  0  0  0
   -1.1646    1.5297   -0.6903 H   0  0  0  0  0  0  0  0  0  0  0  0
   -2.0195    0.2228   -0.2111 H   0  0  0  0  0  0  0  0  0  0  0  0
    2.8805   -1.0616    4.6741 C   0  0  0  0  0  0  0  0  0  0  0  0
    2.2141   -1.3880    5.3819 H   0  0  0  0  0  0  0  0  0  0  0  0
    3.6528   -0.6388    5.2007 H   0  0  0  0  0  0  0  0  0  0  0  0
    3.2561   -1.9190    4.1156 H   0  0  0  0  0  0  0  0  0  0  0  0
    2.1039    0.1717    3.6037 S   0  0  0  0  0  0  0  0  0  0  0  0
    3.4568    0.4996    2.4335 C   0  0  0  0  0  0  0  0  0  0  0  0
    3.7092    1.4625    2.4937 H   0  0  0  0  0  0  0  0  0  0  0  0
    4.2359   -0.0732    2.6735 H   0  0  0  0  0  0  0  0  0  0  0  0
    3.1446    0.2851    1.5117 H   0  0  0  0  0  0  0  0  0  0  0  0
  1  5  1  0
  5  8  1  0
  1  2  1  0
  1  3  1  0
  1  4  1  0
  5  6  1  0
  5  7  1  0
  8  9  1  0
  8 10  1  0
  8 11  1  0
 12 16  1  0
 16 17  1  0
 12 13  1  0
 12 14  1  0
 12 15  1  0
 17 18  1  0
 17 19  1  0
 17 20  1  0
M  CHG  1   8   1
M  END
>  <PDB_ID>  (71) 
pdb1vdf

>  <RESIDUE_NAME>  (71) 
LYS   MET

>  <FRAG_NAME>  (71) 
ETAM   MSM

>  <FRAG_ATOM_NUM>  (71) 
fragi: 11  fragj: 9

>  <atom.prop.CHAIN_ID>  (71) 
A A A A A A A A A A A Z Z Z Z Z Z Z Z Z

>  <atom.prop.IS_HEAVY_ATOM>  (71) 
1 0 0 0 1 0 0 1 0 0 0 1 0 0 0 1 1 0 0 0

>  <DIFUSE_FUNC_ATOM>  (71) 
n/a

>  <FINAL_SINGLE_POINT_ENERGY>  (71) 
0

>  <NONCOV_INTER_ENERGY_QM>  (71) 
0

>  <FF_Energy>  (71) 
7.68

>  <QM_Energy>  (71) 
-3.01

>  <source>  (71) 
ETAM_MSM

>  <Index>  (71) 
4361

$$$$
ETAM-pdb1vpl-A-LYS-127:MSM-pdb1vpl-A-MET-139
     RDKit          3D

 20 18  0  0  0  0  0  0  0  0999 V2000
    1.2370    0.8695   -0.0000 C   0  0  0  0  0  0  0  0  0  0  0  0
    1.2110    1.4531    0.8167 H   0  0  0  0  0  0  0  0  0  0  0  0
    1.2095    1.4534   -0.8169 H   0  0  0  0  0  0  0  0  0  0  0  0
    2.1602    0.2899   -0.0001 H   0  0  0  0  0  0  0  0  0  0  0  0
    0.0000    0.0000    0.0000 C   0  0  0  0  0  0  0  0  0  0  0  0
    0.0055   -0.5799   -0.8161 H   0  0  0  0  0  0  0  0  0  0  0  0
    0.0061   -0.5802    0.8165 H   0  0  0  0  0  0  0  0  0  0  0  0
   -1.2370    0.8282    0.0000 N   0  0  0  0  0  4  0  0  0  0  0  0
   -1.0221    1.7436    0.3386 H   0  0  0  0  0  0  0  0  0  0  0  0
   -1.5938    0.8909   -0.9315 H   0  0  0  0  0  0  0  0  0  0  0  0
   -1.9201    0.4035    0.5929 H   0  0  0  0  0  0  0  0  0  0  0  0
    0.3982    6.2803   -0.3579 C   0  0  0  0  0  0  0  0  0  0  0  0
    0.6908    6.0623    0.6019 H   0  0  0  0  0  0  0  0  0  0  0  0
   -0.5314    6.7066   -0.2668 H   0  0  0  0  0  0  0  0  0  0  0  0
    1.0807    7.0281   -0.7617 H   0  0  0  0  0  0  0  0  0  0  0  0
    0.3034    4.7554   -1.3564 S   0  0  0  0  0  0  0  0  0  0  0  0
    1.9048    3.9550   -1.1968 C   0  0  0  0  0  0  0  0  0  0  0  0
    2.3800    3.9824   -2.0760 H   0  0  0  0  0  0  0  0  0  0  0  0
    2.4487    4.4344   -0.5084 H   0  0  0  0  0  0  0  0  0  0  0  0
    1.7752    3.0036   -0.9175 H   0  0  0  0  0  0  0  0  0  0  0  0
  1  5  1  0
  5  8  1  0
  1  2  1  0
  1  3  1  0
  1  4  1  0
  5  6  1  0
  5  7  1  0
  8  9  1  0
  8 10  1  0
  8 11  1  0
 12 16  1  0
 16 17  1  0
 12 13  1  0
 12 14  1  0
 12 15  1  0
 17 18  1  0
 17 19  1  0
 17 20  1  0
M  CHG  1   8   1
M  END
>  <PDB_ID>  (72) 
pdb1vpl

>  <RESIDUE_NAME>  (72) 
LYS   MET

>  <FRAG_NAME>  (72) 
ETAM   MSM

>  <FRAG_ATOM_NUM>  (72) 
fragi: 11  fragj: 9

>  <atom.prop.CHAIN_ID>  (72) 
A A A A A A A A A A A Z Z Z Z Z Z Z Z Z

>  <atom.prop.IS_HEAVY_ATOM>  (72) 
1 0 0 0 1 0 0 1 0 0 0 1 0 0 0 1 1 0 0 0

>  <DIFUSE_FUNC_ATOM>  (72) 
n/a

>  <FINAL_SINGLE_POINT_ENERGY>  (72) 
0

>  <NONCOV_INTER_ENERGY_QM>  (72) 
0

>  <FF_Energy>  (72) 
6.93

>  <QM_Energy>  (72) 
-3.37

>  <source>  (72) 
ETAM_MSM

>  <Index>  (72) 
4407

$$$$
ETAM-pdb1w27-B-LYS-618:MSM-pdb1w27-B-MET-550
     RDKit          3D

 20 18  0  0  0  0  0  0  0  0999 V2000
    1.2731    0.8689    0.0000 C   0  0  0  0  0  0  0  0  0  0  0  0
    1.9965    0.3605    0.4606 H   0  0  0  0  0  0  0  0  0  0  0  0
    1.0754    1.7098    0.4966 H   0  0  0  0  0  0  0  0  0  0  0  0
    1.6078    1.1233   -1.0056 H   0  0  0  0  0  0  0  0  0  0  0  0
    0.0000    0.0000    0.0000 C   0  0  0  0  0  0  0  0  0  0  0  0
    0.0212   -0.5938   -0.8165 H   0  0  0  0  0  0  0  0  0  0  0  0
    0.0212   -0.5936    0.8162 H   0  0  0  0  0  0  0  0  0  0  0  0
   -1.2731    0.7867   -0.0000 N   0  0  0  0  0  4  0  0  0  0  0  0
   -1.7334    0.6645    0.8774 H   0  0  0  0  0  0  0  0  0  0  0  0
   -1.0616    1.7524   -0.1387 H   0  0  0  0  0  0  0  0  0  0  0  0
   -1.8596    0.4604   -0.7388 H   0  0  0  0  0  0  0  0  0  0  0  0
   -2.6721    2.4913    2.8673 C   0  0  0  0  0  0  0  0  0  0  0  0
   -1.7963    3.0570    2.8595 H   0  0  0  0  0  0  0  0  0  0  0  0
   -3.0497    2.6555    3.8255 H   0  0  0  0  0  0  0  0  0  0  0  0
   -3.3619    2.9585    2.1644 H   0  0  0  0  0  0  0  0  0  0  0  0
   -2.3198    0.7508    2.6024 S   0  0  0  0  0  0  0  0  0  0  0  0
   -0.6877    0.6270    3.4186 C   0  0  0  0  0  0  0  0  0  0  0  0
   -0.8268    0.6077    4.4034 H   0  0  0  0  0  0  0  0  0  0  0  0
   -0.2443   -0.2097    3.1151 H   0  0  0  0  0  0  0  0  0  0  0  0
   -0.1442    1.4195    3.1616 H   0  0  0  0  0  0  0  0  0  0  0  0
  1  5  1  0
  5  8  1  0
  1  2  1  0
  1  3  1  0
  1  4  1  0
  5  6  1  0
  5  7  1  0
  8  9  1  0
  8 10  1  0
  8 11  1  0
 12 16  1  0
 16 17  1  0
 12 13  1  0
 12 14  1  0
 12 15  1  0
 17 18  1  0
 17 19  1  0
 17 20  1  0
M  CHG  1   8   1
M  END
>  <PDB_ID>  (73) 
pdb1w27

>  <RESIDUE_NAME>  (73) 
LYS   MET

>  <FRAG_NAME>  (73) 
ETAM   MSM

>  <FRAG_ATOM_NUM>  (73) 
fragi: 11  fragj: 9

>  <atom.prop.CHAIN_ID>  (73) 
A A A A A A A A A A A Z Z Z Z Z Z Z Z Z

>  <atom.prop.IS_HEAVY_ATOM>  (73) 
1 0 0 0 1 0 0 1 0 0 0 1 0 0 0 1 1 0 0 0

>  <DIFUSE_FUNC_ATOM>  (73) 
n/a

>  <FINAL_SINGLE_POINT_ENERGY>  (73) 
0

>  <NONCOV_INTER_ENERGY_QM>  (73) 
0

>  <FF_Energy>  (73) 
2.52

>  <QM_Energy>  (73) 
-10.78

>  <source>  (73) 
ETAM_MSM

>  <Index>  (73) 
4450

$$$$
ETAM-pdb3a24-B-LYS-33:MSM-pdb3a24-B-MET-24
     RDKit          3D

 20 18  0  0  0  0  0  0  0  0999 V2000
    1.2416    0.8786   -0.0000 C   0  0  0  0  0  0  0  0  0  0  0  0
    1.2041    1.4803    0.7922 H   0  0  0  0  0  0  0  0  0  0  0  0
    1.2511    1.4144   -0.8384 H   0  0  0  0  0  0  0  0  0  0  0  0
    2.1543    0.2850    0.0507 H   0  0  0  0  0  0  0  0  0  0  0  0
    0.0000    0.0000    0.0000 C   0  0  0  0  0  0  0  0  0  0  0  0
    0.0091   -0.5765   -0.8162 H   0  0  0  0  0  0  0  0  0  0  0  0
    0.0087   -0.5766    0.8160 H   0  0  0  0  0  0  0  0  0  0  0  0
   -1.2416    0.8284   -0.0000 N   0  0  0  0  0  4  0  0  0  0  0  0
   -2.0362    0.2318   -0.1064 H   0  0  0  0  0  0  0  0  0  0  0  0
   -1.3061    1.3246    0.8645 H   0  0  0  0  0  0  0  0  0  0  0  0
   -1.2044    1.4773   -0.7581 H   0  0  0  0  0  0  0  0  0  0  0  0
   -1.0471   -0.1116   -4.0380 C   0  0  0  0  0  0  0  0  0  0  0  0
   -0.8787   -1.0891   -4.2195 H   0  0  0  0  0  0  0  0  0  0  0  0
   -0.1533    0.3446   -3.9322 H   0  0  0  0  0  0  0  0  0  0  0  0
   -1.5753    0.3246   -4.8859 H   0  0  0  0  0  0  0  0  0  0  0  0
   -2.0401    0.0829   -2.5001 S   0  0  0  0  0  0  0  0  0  0  0  0
   -2.5683    1.8680   -2.7000 C   0  0  0  0  0  0  0  0  0  0  0  0
   -3.0164    2.1393   -1.8616 H   0  0  0  0  0  0  0  0  0  0  0  0
   -1.7519    2.4006   -2.8624 H   0  0  0  0  0  0  0  0  0  0  0  0
   -3.1865    1.9092   -3.4699 H   0  0  0  0  0  0  0  0  0  0  0  0
  1  5  1  0
  5  8  1  0
  1  2  1  0
  1  3  1  0
  1  4  1  0
  5  6  1  0
  5  7  1  0
  8  9  1  0
  8 10  1  0
  8 11  1  0
 12 16  1  0
 16 17  1  0
 12 13  1  0
 12 14  1  0
 12 15  1  0
 17 18  1  0
 17 19  1  0
 17 20  1  0
M  CHG  1   8   1
M  END
>  <PDB_ID>  (74) 
pdb3a24

>  <RESIDUE_NAME>  (74) 
LYS   MET

>  <FRAG_NAME>  (74) 
ETAM   MSM

>  <FRAG_ATOM_NUM>  (74) 
fragi: 11  fragj: 9

>  <atom.prop.CHAIN_ID>  (74) 
A A A A A A A A A A A Z Z Z Z Z Z Z Z Z

>  <atom.prop.IS_HEAVY_ATOM>  (74) 
1 0 0 0 1 0 0 1 0 0 0 1 0 0 0 1 1 0 0 0

>  <DIFUSE_FUNC_ATOM>  (74) 
n/a

>  <FINAL_SINGLE_POINT_ENERGY>  (74) 
0

>  <NONCOV_INTER_ENERGY_QM>  (74) 
0

>  <FF_Energy>  (74) 
9.04

>  <QM_Energy>  (74) 
-5.78

>  <source>  (74) 
ETAM_MSM

>  <Index>  (74) 
4452

$$$$
ETAM-pdb3adk-A-LYS-4:MSM-pdb3adk-A-MET-1
     RDKit          3D

 20 18  0  0  0  0  0  0  0  0999 V2000
    1.2510    0.8642   -0.0000 C   0  0  0  0  0  0  0  0  0  0  0  0
    1.0370    1.7248    0.4723 H   0  0  0  0  0  0  0  0  0  0  0  0
    1.4895    1.0689   -0.9541 H   0  0  0  0  0  0  0  0  0  0  0  0
    2.1025    0.3905    0.4886 H   0  0  0  0  0  0  0  0  0  0  0  0
    0.0000    0.0000    0.0000 C   0  0  0  0  0  0  0  0  0  0  0  0
    0.0132   -0.5906   -0.8163 H   0  0  0  0  0  0  0  0  0  0  0  0
    0.0130   -0.5905    0.8165 H   0  0  0  0  0  0  0  0  0  0  0  0
   -1.2510    0.8032    0.0000 N   0  0  0  0  0  4  0  0  0  0  0  0
   -1.7239    0.6813    0.8720 H   0  0  0  0  0  0  0  0  0  0  0  0
   -1.0260    1.7690   -0.1265 H   0  0  0  0  0  0  0  0  0  0  0  0
   -1.8419    0.4975   -0.7463 H   0  0  0  0  0  0  0  0  0  0  0  0
   -0.2909    4.1561    4.2048 C   0  0  0  0  0  0  0  0  0  0  0  0
   -0.6522    5.0360    4.5920 H   0  0  0  0  0  0  0  0  0  0  0  0
    0.5509    3.9441    4.7519 H   0  0  0  0  0  0  0  0  0  0  0  0
   -1.0264    3.3749    4.3966 H   0  0  0  0  0  0  0  0  0  0  0  0
    0.0735    4.3056    2.4854 S   0  0  0  0  0  0  0  0  0  0  0  0
    1.2943    3.0411    2.4390 C   0  0  0  0  0  0  0  0  0  0  0  0
    0.9241    2.1807    2.8088 H   0  0  0  0  0  0  0  0  0  0  0  0
    1.5961    2.8778    1.4925 H   0  0  0  0  0  0  0  0  0  0  0  0
    2.0958    3.3042    2.9885 H   0  0  0  0  0  0  0  0  0  0  0  0
  1  5  1  0
  5  8  1  0
  1  2  1  0
  1  3  1  0
  1  4  1  0
  5  6  1  0
  5  7  1  0
  8  9  1  0
  8 10  1  0
  8 11  1  0
 12 16  1  0
 16 17  1  0
 12 13  1  0
 12 14  1  0
 12 15  1  0
 17 18  1  0
 17 19  1  0
 17 20  1  0
M  CHG  1   8   1
M  END
>  <PDB_ID>  (75) 
pdb3adk

>  <RESIDUE_NAME>  (75) 
LYS   MET

>  <FRAG_NAME>  (75) 
ETAM   MSM

>  <FRAG_ATOM_NUM>  (75) 
fragi: 11  fragj: 9

>  <atom.prop.CHAIN_ID>  (75) 
A A A A A A A A A A A Z Z Z Z Z Z Z Z Z

>  <atom.prop.IS_HEAVY_ATOM>  (75) 
1 0 0 0 1 0 0 1 0 0 0 1 0 0 0 1 1 0 0 0

>  <DIFUSE_FUNC_ATOM>  (75) 
n/a

>  <FINAL_SINGLE_POINT_ENERGY>  (75) 
0

>  <NONCOV_INTER_ENERGY_QM>  (75) 
0

>  <FF_Energy>  (75) 
9.26

>  <QM_Energy>  (75) 
-0.74

>  <source>  (75) 
ETAM_MSM

>  <Index>  (75) 
4521

$$$$
ETAM-pdb3aei-B-LYS-74:MSM-pdb3aei-B-MET-27
     RDKit          3D

 20 18  0  0  0  0  0  0  0  0999 V2000
    1.2691    0.8728   -0.0000 C   0  0  0  0  0  0  0  0  0  0  0  0
    1.2395    1.4654   -0.7998 H   0  0  0  0  0  0  0  0  0  0  0  0
    2.0600    0.2705   -0.0454 H   0  0  0  0  0  0  0  0  0  0  0  0
    1.3466    1.4912    0.8942 H   0  0  0  0  0  0  0  0  0  0  0  0
    0.0000    0.0000    0.0000 C   0  0  0  0  0  0  0  0  0  0  0  0
    0.0242   -0.5941   -0.8166 H   0  0  0  0  0  0  0  0  0  0  0  0
    0.0240   -0.5934    0.8159 H   0  0  0  0  0  0  0  0  0  0  0  0
   -1.2691    0.7833    0.0000 N   0  0  0  0  0  4  0  0  0  0  0  0
   -2.0430    0.1584    0.0939 H   0  0  0  0  0  0  0  0  0  0  0  0
   -1.2611    1.4242    0.7662 H   0  0  0  0  0  0  0  0  0  0  0  0
   -1.3454    1.2871   -0.8591 H   0  0  0  0  0  0  0  0  0  0  0  0
    0.8916   -3.1320    1.9057 C   0  0  0  0  0  0  0  0  0  0  0  0
    0.3877   -3.3839    1.0712 H   0  0  0  0  0  0  0  0  0  0  0  0
    0.2237   -2.9393    2.6343 H   0  0  0  0  0  0  0  0  0  0  0  0
    1.5414   -3.9537    2.2069 H   0  0  0  0  0  0  0  0  0  0  0  0
    1.9380   -1.7322    1.6169 S   0  0  0  0  0  0  0  0  0  0  0  0
    2.2462   -1.2444    3.3157 C   0  0  0  0  0  0  0  0  0  0  0  0
    1.5528   -0.5829    3.6043 H   0  0  0  0  0  0  0  0  0  0  0  0
    2.2037   -2.0501    3.9079 H   0  0  0  0  0  0  0  0  0  0  0  0
    3.1533   -0.8275    3.3849 H   0  0  0  0  0  0  0  0  0  0  0  0
  1  5  1  0
  5  8  1  0
  1  2  1  0
  1  3  1  0
  1  4  1  0
  5  6  1  0
  5  7  1  0
  8  9  1  0
  8 10  1  0
  8 11  1  0
 12 16  1  0
 16 17  1  0
 12 13  1  0
 12 14  1  0
 12 15  1  0
 17 18  1  0
 17 19  1  0
 17 20  1  0
M  CHG  1   8   1
M  END
>  <PDB_ID>  (76) 
pdb3aei

>  <RESIDUE_NAME>  (76) 
LYS   MET

>  <FRAG_NAME>  (76) 
ETAM   MSM

>  <FRAG_ATOM_NUM>  (76) 
fragi: 11  fragj: 9

>  <atom.prop.CHAIN_ID>  (76) 
A A A A A A A A A A A Z Z Z Z Z Z Z Z Z

>  <atom.prop.IS_HEAVY_ATOM>  (76) 
1 0 0 0 1 0 0 1 0 0 0 1 0 0 0 1 1 0 0 0

>  <DIFUSE_FUNC_ATOM>  (76) 
n/a

>  <FINAL_SINGLE_POINT_ENERGY>  (76) 
0

>  <NONCOV_INTER_ENERGY_QM>  (76) 
0

>  <FF_Energy>  (76) 
7.4

>  <QM_Energy>  (76) 
-3.01

>  <source>  (76) 
ETAM_MSM

>  <Index>  (76) 
4528

$$$$
ETAM-pdb3afa-E-LYS-64:MSM-pdb3afa-E-MET-90
     RDKit          3D

 20 18  0  0  0  0  0  0  0  0999 V2000
    1.2534    0.8797   -0.0000 C   0  0  0  0  0  0  0  0  0  0  0  0
    2.0509    0.2937   -0.0363 H   0  0  0  0  0  0  0  0  0  0  0  0
    1.2523    1.4296    0.8234 H   0  0  0  0  0  0  0  0  0  0  0  0
    1.2671    1.5427   -0.8650 H   0  0  0  0  0  0  0  0  0  0  0  0
    0.0000    0.0000    0.0000 C   0  0  0  0  0  0  0  0  0  0  0  0
    0.0126   -0.5792   -0.8163 H   0  0  0  0  0  0  0  0  0  0  0  0
    0.0129   -0.5798    0.8165 H   0  0  0  0  0  0  0  0  0  0  0  0
   -1.2534    0.8197    0.0000 N   0  0  0  0  0  4  0  0  0  0  0  0
   -1.9054    0.4200   -0.6408 H   0  0  0  0  0  0  0  0  0  0  0  0
   -1.6416    0.8234    0.9196 H   0  0  0  0  0  0  0  0  0  0  0  0
   -1.0339    1.7530   -0.2779 H   0  0  0  0  0  0  0  0  0  0  0  0
   -1.7966   -2.1113   -5.0236 C   0  0  0  0  0  0  0  0  0  0  0  0
   -1.5499   -1.7333   -5.9444 H   0  0  0  0  0  0  0  0  0  0  0  0
   -2.7702   -1.8296   -4.8639 H   0  0  0  0  0  0  0  0  0  0  0  0
   -1.7477   -3.1993   -5.0669 H   0  0  0  0  0  0  0  0  0  0  0  0
   -0.7158   -1.3948   -3.7392 S   0  0  0  0  0  0  0  0  0  0  0  0
   -1.5250   -1.9986   -2.2510 C   0  0  0  0  0  0  0  0  0  0  0  0
   -2.5121   -1.8635   -2.3318 H   0  0  0  0  0  0  0  0  0  0  0  0
   -1.3290   -2.9723   -2.1377 H   0  0  0  0  0  0  0  0  0  0  0  0
   -1.1822   -1.4941   -1.4585 H   0  0  0  0  0  0  0  0  0  0  0  0
  1  5  1  0
  5  8  1  0
  1  2  1  0
  1  3  1  0
  1  4  1  0
  5  6  1  0
  5  7  1  0
  8  9  1  0
  8 10  1  0
  8 11  1  0
 12 16  1  0
 16 17  1  0
 12 13  1  0
 12 14  1  0
 12 15  1  0
 17 18  1  0
 17 19  1  0
 17 20  1  0
M  CHG  1   8   1
M  END
>  <PDB_ID>  (77) 
pdb3afa

>  <RESIDUE_NAME>  (77) 
LYS   MET

>  <FRAG_NAME>  (77) 
ETAM   MSM

>  <FRAG_ATOM_NUM>  (77) 
fragi: 11  fragj: 9

>  <atom.prop.CHAIN_ID>  (77) 
A A A A A A A A A A A Z Z Z Z Z Z Z Z Z

>  <atom.prop.IS_HEAVY_ATOM>  (77) 
1 0 0 0 1 0 0 1 0 0 0 1 0 0 0 1 1 0 0 0

>  <DIFUSE_FUNC_ATOM>  (77) 
n/a

>  <FINAL_SINGLE_POINT_ENERGY>  (77) 
0

>  <NONCOV_INTER_ENERGY_QM>  (77) 
0

>  <FF_Energy>  (77) 
10.89

>  <QM_Energy>  (77) 
-0.4

>  <source>  (77) 
ETAM_MSM

>  <Index>  (77) 
4529

$$$$
ETAM-pdb3bv0-B-LYS-133:MSM-pdb3bv0-A-MET-165
     RDKit          3D

 20 18  0  0  0  0  0  0  0  0999 V2000
    1.2503    0.8547    0.0000 C   0  0  0  0  0  0  0  0  0  0  0  0
    1.0518    1.7138    0.4636 H   0  0  0  0  0  0  0  0  0  0  0  0
    1.5203    1.0276   -0.9427 H   0  0  0  0  0  0  0  0  0  0  0  0
    2.0739    0.3613    0.5160 H   0  0  0  0  0  0  0  0  0  0  0  0
    0.0000    0.0000    0.0000 C   0  0  0  0  0  0  0  0  0  0  0  0
    0.0048   -0.5893   -0.8159 H   0  0  0  0  0  0  0  0  0  0  0  0
    0.0043   -0.5895    0.8159 H   0  0  0  0  0  0  0  0  0  0  0  0
   -1.2503    0.8158    0.0000 N   0  0  0  0  0  4  0  0  0  0  0  0
   -1.8414    0.5118   -0.7454 H   0  0  0  0  0  0  0  0  0  0  0  0
   -1.7215    0.6969    0.8725 H   0  0  0  0  0  0  0  0  0  0  0  0
   -1.0154    1.7785   -0.1273 H   0  0  0  0  0  0  0  0  0  0  0  0
   -4.3326    1.4316    3.0566 C   0  0  0  0  0  0  0  0  0  0  0  0
   -5.1175    1.1550    2.4720 H   0  0  0  0  0  0  0  0  0  0  0  0
   -4.1032    2.3902    2.8046 H   0  0  0  0  0  0  0  0  0  0  0  0
   -4.6493    1.4103    4.0994 H   0  0  0  0  0  0  0  0  0  0  0  0
   -2.9132    0.3409    2.7805 S   0  0  0  0  0  0  0  0  0  0  0  0
   -1.6760    1.1103    3.7838 C   0  0  0  0  0  0  0  0  0  0  0  0
   -1.5381    0.5841    4.6294 H   0  0  0  0  0  0  0  0  0  0  0  0
   -0.8045    1.1558    3.2858 H   0  0  0  0  0  0  0  0  0  0  0  0
   -1.9581    2.0434    4.0271 H   0  0  0  0  0  0  0  0  0  0  0  0
  1  5  1  0
  5  8  1  0
  1  2  1  0
  1  3  1  0
  1  4  1  0
  5  6  1  0
  5  7  1  0
  8  9  1  0
  8 10  1  0
  8 11  1  0
 12 16  1  0
 16 17  1  0
 12 13  1  0
 12 14  1  0
 12 15  1  0
 17 18  1  0
 17 19  1  0
 17 20  1  0
M  CHG  1   8   1
M  END
>  <PDB_ID>  (78) 
pdb3bv0

>  <RESIDUE_NAME>  (78) 
LYS   MET

>  <FRAG_NAME>  (78) 
ETAM   MSM

>  <FRAG_ATOM_NUM>  (78) 
fragi: 11  fragj: 9

>  <atom.prop.CHAIN_ID>  (78) 
A A A A A A A A A A A Z Z Z Z Z Z Z Z Z

>  <atom.prop.IS_HEAVY_ATOM>  (78) 
1 0 0 0 1 0 0 1 0 0 0 1 0 0 0 1 1 0 0 0

>  <DIFUSE_FUNC_ATOM>  (78) 
n/a

>  <FINAL_SINGLE_POINT_ENERGY>  (78) 
0

>  <NONCOV_INTER_ENERGY_QM>  (78) 
0

>  <FF_Energy>  (78) 
-5.32

>  <QM_Energy>  (78) 
-16.54

>  <source>  (78) 
ETAM_MSM

>  <Index>  (78) 
4885

$$$$
ETAM-pdb3cq0-A-LYS-200:MSM-pdb3cq0-A-MET-196
     RDKit          3D

 20 18  0  0  0  0  0  0  0  0999 V2000
    1.2805    0.8455   -0.0000 C   0  0  0  0  0  0  0  0  0  0  0  0
    1.3565    1.3027   -0.8895 H   0  0  0  0  0  0  0  0  0  0  0  0
    2.0641    0.2304    0.1197 H   0  0  0  0  0  0  0  0  0  0  0  0
    1.3153    1.6049    0.7812 H   0  0  0  0  0  0  0  0  0  0  0  0
    0.0000    0.0000    0.0000 C   0  0  0  0  0  0  0  0  0  0  0  0
    0.0177   -0.6063   -0.8159 H   0  0  0  0  0  0  0  0  0  0  0  0
    0.0168   -0.6068    0.8160 H   0  0  0  0  0  0  0  0  0  0  0  0
   -1.2805    0.7727    0.0000 N   0  0  0  0  0  4  0  0  0  0  0  0
   -2.0462    0.1389    0.0989 H   0  0  0  0  0  0  0  0  0  0  0  0
   -1.2745    1.4172    0.7625 H   0  0  0  0  0  0  0  0  0  0  0  0
   -1.3634    1.2702   -0.8612 H   0  0  0  0  0  0  0  0  0  0  0  0
   -0.4635   -3.0947    3.9427 C   0  0  0  0  0  0  0  0  0  0  0  0
    0.3127   -2.7791    4.5361 H   0  0  0  0  0  0  0  0  0  0  0  0
   -0.2884   -4.0924    3.7750 H   0  0  0  0  0  0  0  0  0  0  0  0
   -1.3898   -2.9977    4.5089 H   0  0  0  0  0  0  0  0  0  0  0  0
   -0.4895   -2.1812    2.3863 S   0  0  0  0  0  0  0  0  0  0  0  0
   -1.7402   -3.0657    1.4625 C   0  0  0  0  0  0  0  0  0  0  0  0
   -2.5652   -2.5035    1.3888 H   0  0  0  0  0  0  0  0  0  0  0  0
   -1.3983   -3.2723    0.5445 H   0  0  0  0  0  0  0  0  0  0  0  0
   -1.9635   -3.9218    1.9321 H   0  0  0  0  0  0  0  0  0  0  0  0
  1  5  1  0
  5  8  1  0
  1  2  1  0
  1  3  1  0
  1  4  1  0
  5  6  1  0
  5  7  1  0
  8  9  1  0
  8 10  1  0
  8 11  1  0
 12 16  1  0
 16 17  1  0
 12 13  1  0
 12 14  1  0
 12 15  1  0
 17 18  1  0
 17 19  1  0
 17 20  1  0
M  CHG  1   8   1
M  END
>  <PDB_ID>  (79) 
pdb3cq0

>  <RESIDUE_NAME>  (79) 
LYS   MET

>  <FRAG_NAME>  (79) 
ETAM   MSM

>  <FRAG_ATOM_NUM>  (79) 
fragi: 11  fragj: 9

>  <atom.prop.CHAIN_ID>  (79) 
A A A A A A A A A A A Z Z Z Z Z Z Z Z Z

>  <atom.prop.IS_HEAVY_ATOM>  (79) 
1 0 0 0 1 0 0 1 0 0 0 1 0 0 0 1 1 0 0 0

>  <DIFUSE_FUNC_ATOM>  (79) 
n/a

>  <FINAL_SINGLE_POINT_ENERGY>  (79) 
0

>  <NONCOV_INTER_ENERGY_QM>  (79) 
0

>  <FF_Energy>  (79) 
5.71

>  <QM_Energy>  (79) 
-6.56

>  <source>  (79) 
ETAM_MSM

>  <Index>  (79) 
5061

$$$$
ETAM-pdb1z6o-A-LYS-77:MSM-pdb1z6o-M-MET-72
     RDKit          3D

 20 18  0  0  0  0  0  0  0  0999 V2000
    1.2367    0.8954   -0.0000 C   0  0  0  0  0  0  0  0  0  0  0  0
    1.1076    1.6053    0.6739 H   0  0  0  0  0  0  0  0  0  0  0  0
    1.3492    1.2702   -0.9064 H   0  0  0  0  0  0  0  0  0  0  0  0
    2.1139    0.3030    0.2606 H   0  0  0  0  0  0  0  0  0  0  0  0
    0.0000    0.0000    0.0000 C   0  0  0  0  0  0  0  0  0  0  0  0
    0.0274   -0.5806   -0.8157 H   0  0  0  0  0  0  0  0  0  0  0  0
    0.0269   -0.5808    0.8167 H   0  0  0  0  0  0  0  0  0  0  0  0
   -1.2367    0.8003    0.0000 N   0  0  0  0  0  4  0  0  0  0  0  0
   -1.5586    0.9280   -0.9408 H   0  0  0  0  0  0  0  0  0  0  0  0
   -1.9459    0.3296    0.5291 H   0  0  0  0  0  0  0  0  0  0  0  0
   -1.0601    1.6972    0.4116 H   0  0  0  0  0  0  0  0  0  0  0  0
   -3.6283    2.9291   -2.9868 C   0  0  0  0  0  0  0  0  0  0  0  0
   -2.7601    3.4469   -3.2101 H   0  0  0  0  0  0  0  0  0  0  0  0
   -4.3438    3.6703   -2.8803 H   0  0  0  0  0  0  0  0  0  0  0  0
   -3.8934    2.3181   -3.8496 H   0  0  0  0  0  0  0  0  0  0  0  0
   -3.4281    2.0201   -1.4049 S   0  0  0  0  0  0  0  0  0  0  0  0
   -3.2175    0.3022   -1.9785 C   0  0  0  0  0  0  0  0  0  0  0  0
   -2.2722    0.0284   -1.8278 H   0  0  0  0  0  0  0  0  0  0  0  0
   -3.8324   -0.2851   -1.4600 H   0  0  0  0  0  0  0  0  0  0  0  0
   -3.4377    0.2595   -2.9484 H   0  0  0  0  0  0  0  0  0  0  0  0
  1  5  1  0
  5  8  1  0
  1  2  1  0
  1  3  1  0
  1  4  1  0
  5  6  1  0
  5  7  1  0
  8  9  1  0
  8 10  1  0
  8 11  1  0
 12 16  1  0
 16 17  1  0
 12 13  1  0
 12 14  1  0
 12 15  1  0
 17 18  1  0
 17 19  1  0
 17 20  1  0
M  CHG  1   8   1
M  END
>  <PDB_ID>  (80) 
pdb1z6o

>  <RESIDUE_NAME>  (80) 
LYS   MET

>  <FRAG_NAME>  (80) 
ETAM   MSM

>  <FRAG_ATOM_NUM>  (80) 
fragi: 11  fragj: 9

>  <atom.prop.CHAIN_ID>  (80) 
A A A A A A A A A A A Z Z Z Z Z Z Z Z Z

>  <atom.prop.IS_HEAVY_ATOM>  (80) 
1 0 0 0 1 0 0 1 0 0 0 1 0 0 0 1 1 0 0 0

>  <DIFUSE_FUNC_ATOM>  (80) 
n/a

>  <FINAL_SINGLE_POINT_ENERGY>  (80) 
0

>  <NONCOV_INTER_ENERGY_QM>  (80) 
0

>  <FF_Energy>  (80) 
8.74

>  <QM_Energy>  (80) 
-1.99

>  <source>  (80) 
ETAM_MSM

>  <Index>  (80) 
5139

$$$$
ETAM-pdb1z6o-B-LYS-77:MSM-pdb1z6o-N-MET-72
     RDKit          3D

 20 18  0  0  0  0  0  0  0  0999 V2000
    1.2368    0.8944    0.0000 C   0  0  0  0  0  0  0  0  0  0  0  0
    1.1075    1.6042    0.6736 H   0  0  0  0  0  0  0  0  0  0  0  0
    1.3497    1.2698   -0.9060 H   0  0  0  0  0  0  0  0  0  0  0  0
    2.1140    0.3024    0.2607 H   0  0  0  0  0  0  0  0  0  0  0  0
    0.0000    0.0000    0.0000 C   0  0  0  0  0  0  0  0  0  0  0  0
    0.0269   -0.5811   -0.8157 H   0  0  0  0  0  0  0  0  0  0  0  0
    0.0260   -0.5809    0.8163 H   0  0  0  0  0  0  0  0  0  0  0  0
   -1.2368    0.8003    0.0000 N   0  0  0  0  0  4  0  0  0  0  0  0
   -2.0179    0.2167   -0.2323 H   0  0  0  0  0  0  0  0  0  0  0  0
   -1.3828    1.1993    0.9078 H   0  0  0  0  0  0  0  0  0  0  0  0
   -1.1639    1.5378   -0.6752 H   0  0  0  0  0  0  0  0  0  0  0  0
   -3.6267    2.9298   -2.9876 C   0  0  0  0  0  0  0  0  0  0  0  0
   -2.7575    3.4466   -3.2103 H   0  0  0  0  0  0  0  0  0  0  0  0
   -4.3413    3.6718   -2.8819 H   0  0  0  0  0  0  0  0  0  0  0  0
   -3.8921    2.3186   -3.8502 H   0  0  0  0  0  0  0  0  0  0  0  0
   -3.4277    2.0205   -1.4058 S   0  0  0  0  0  0  0  0  0  0  0  0
   -3.2175    0.3026   -1.9787 C   0  0  0  0  0  0  0  0  0  0  0  0
   -2.3926    0.2499   -2.5348 H   0  0  0  0  0  0  0  0  0  0  0  0
   -3.1347   -0.2917   -1.1839 H   0  0  0  0  0  0  0  0  0  0  0  0
   -4.0140    0.0458   -2.5190 H   0  0  0  0  0  0  0  0  0  0  0  0
  1  5  1  0
  5  8  1  0
  1  2  1  0
  1  3  1  0
  1  4  1  0
  5  6  1  0
  5  7  1  0
  8  9  1  0
  8 10  1  0
  8 11  1  0
 12 16  1  0
 16 17  1  0
 12 13  1  0
 12 14  1  0
 12 15  1  0
 17 18  1  0
 17 19  1  0
 17 20  1  0
M  CHG  1   8   1
M  END
>  <PDB_ID>  (81) 
pdb1z6o

>  <RESIDUE_NAME>  (81) 
LYS   MET

>  <FRAG_NAME>  (81) 
ETAM   MSM

>  <FRAG_ATOM_NUM>  (81) 
fragi: 11  fragj: 9

>  <atom.prop.CHAIN_ID>  (81) 
A A A A A A A A A A A Z Z Z Z Z Z Z Z Z

>  <atom.prop.IS_HEAVY_ATOM>  (81) 
1 0 0 0 1 0 0 1 0 0 0 1 0 0 0 1 1 0 0 0

>  <DIFUSE_FUNC_ATOM>  (81) 
n/a

>  <FINAL_SINGLE_POINT_ENERGY>  (81) 
0

>  <NONCOV_INTER_ENERGY_QM>  (81) 
0

>  <FF_Energy>  (81) 
5.65

>  <QM_Energy>  (81) 
-4.55

>  <source>  (81) 
ETAM_MSM

>  <Index>  (81) 
5150

$$$$
ETAM-pdb1z6o-E-LYS-77:MSM-pdb1z6o-Q-MET-72
     RDKit          3D

 20 18  0  0  0  0  0  0  0  0999 V2000
    1.2364    0.8958    0.0000 C   0  0  0  0  0  0  0  0  0  0  0  0
    1.1066    1.6046    0.6742 H   0  0  0  0  0  0  0  0  0  0  0  0
    1.3494    1.2706   -0.9060 H   0  0  0  0  0  0  0  0  0  0  0  0
    2.1135    0.3034    0.2606 H   0  0  0  0  0  0  0  0  0  0  0  0
    0.0000    0.0000    0.0000 C   0  0  0  0  0  0  0  0  0  0  0  0
    0.0269   -0.5804   -0.8164 H   0  0  0  0  0  0  0  0  0  0  0  0
    0.0266   -0.5798    0.8165 H   0  0  0  0  0  0  0  0  0  0  0  0
   -1.2364    0.8015    0.0000 N   0  0  0  0  0  4  0  0  0  0  0  0
   -1.2078    1.4684   -0.7475 H   0  0  0  0  0  0  0  0  0  0  0  0
   -2.0296    0.2016   -0.1241 H   0  0  0  0  0  0  0  0  0  0  0  0
   -1.3255    1.2878    0.8719 H   0  0  0  0  0  0  0  0  0  0  0  0
   -3.6270    2.9308   -2.9869 C   0  0  0  0  0  0  0  0  0  0  0  0
   -2.7585    3.4473   -3.2104 H   0  0  0  0  0  0  0  0  0  0  0  0
   -4.3413    3.6736   -2.8813 H   0  0  0  0  0  0  0  0  0  0  0  0
   -3.8925    2.3204   -3.8501 H   0  0  0  0  0  0  0  0  0  0  0  0
   -3.4280    2.0221   -1.4048 S   0  0  0  0  0  0  0  0  0  0  0  0
   -3.2175    0.3036   -1.9791 C   0  0  0  0  0  0  0  0  0  0  0  0
   -2.2498    0.1390   -2.1468 H   0  0  0  0  0  0  0  0  0  0  0  0
   -3.5536   -0.3130   -1.2725 H   0  0  0  0  0  0  0  0  0  0  0  0
   -3.7383    0.1813   -2.8190 H   0  0  0  0  0  0  0  0  0  0  0  0
  1  5  1  0
  5  8  1  0
  1  2  1  0
  1  3  1  0
  1  4  1  0
  5  6  1  0
  5  7  1  0
  8  9  1  0
  8 10  1  0
  8 11  1  0
 12 16  1  0
 16 17  1  0
 12 13  1  0
 12 14  1  0
 12 15  1  0
 17 18  1  0
 17 19  1  0
 17 20  1  0
M  CHG  1   8   1
M  END
>  <PDB_ID>  (82) 
pdb1z6o

>  <RESIDUE_NAME>  (82) 
LYS   MET

>  <FRAG_NAME>  (82) 
ETAM   MSM

>  <FRAG_ATOM_NUM>  (82) 
fragi: 11  fragj: 9

>  <atom.prop.CHAIN_ID>  (82) 
A A A A A A A A A A A Z Z Z Z Z Z Z Z Z

>  <atom.prop.IS_HEAVY_ATOM>  (82) 
1 0 0 0 1 0 0 1 0 0 0 1 0 0 0 1 1 0 0 0

>  <DIFUSE_FUNC_ATOM>  (82) 
n/a

>  <FINAL_SINGLE_POINT_ENERGY>  (82) 
0

>  <NONCOV_INTER_ENERGY_QM>  (82) 
0

>  <FF_Energy>  (82) 
5.43

>  <QM_Energy>  (82) 
-6.36

>  <source>  (82) 
ETAM_MSM

>  <Index>  (82) 
5182

$$$$
ETAM-pdb3dem-B-LYS-40:MSM-pdb3dem-B-MET-117
     RDKit          3D

 20 18  0  0  0  0  0  0  0  0999 V2000
    1.2549    0.8675    0.0000 C   0  0  0  0  0  0  0  0  0  0  0  0
    1.2456    1.4365    0.8143 H   0  0  0  0  0  0  0  0  0  0  0  0
    1.2507    1.4290   -0.8193 H   0  0  0  0  0  0  0  0  0  0  0  0
    2.1586    0.2580    0.0062 H   0  0  0  0  0  0  0  0  0  0  0  0
    0.0000    0.0000    0.0000 C   0  0  0  0  0  0  0  0  0  0  0  0
    0.0074   -0.5832   -0.8166 H   0  0  0  0  0  0  0  0  0  0  0  0
    0.0072   -0.5837    0.8163 H   0  0  0  0  0  0  0  0  0  0  0  0
   -1.2549    0.8200    0.0000 N   0  0  0  0  0  4  0  0  0  0  0  0
   -1.8779    0.4626   -0.6924 H   0  0  0  0  0  0  0  0  0  0  0  0
   -1.6812    0.7642    0.9012 H   0  0  0  0  0  0  0  0  0  0  0  0
   -1.0245    1.7678   -0.2085 H   0  0  0  0  0  0  0  0  0  0  0  0
   -0.3650   -1.7276   -3.7910 C   0  0  0  0  0  0  0  0  0  0  0  0
    0.5868   -1.5473   -3.4724 H   0  0  0  0  0  0  0  0  0  0  0  0
   -0.5587   -1.0424   -4.5208 H   0  0  0  0  0  0  0  0  0  0  0  0
   -0.4088   -2.7271   -4.2237 H   0  0  0  0  0  0  0  0  0  0  0  0
   -1.5309   -1.5696   -2.4417 S   0  0  0  0  0  0  0  0  0  0  0  0
   -1.2002   -3.1374   -1.5987 C   0  0  0  0  0  0  0  0  0  0  0  0
   -0.2152   -3.2951   -1.5785 H   0  0  0  0  0  0  0  0  0  0  0  0
   -1.5548   -3.0878   -0.6671 H   0  0  0  0  0  0  0  0  0  0  0  0
   -1.6522   -3.8765   -2.0951 H   0  0  0  0  0  0  0  0  0  0  0  0
  1  5  1  0
  5  8  1  0
  1  2  1  0
  1  3  1  0
  1  4  1  0
  5  6  1  0
  5  7  1  0
  8  9  1  0
  8 10  1  0
  8 11  1  0
 12 16  1  0
 16 17  1  0
 12 13  1  0
 12 14  1  0
 12 15  1  0
 17 18  1  0
 17 19  1  0
 17 20  1  0
M  CHG  1   8   1
M  END
>  <PDB_ID>  (83) 
pdb3dem

>  <RESIDUE_NAME>  (83) 
LYS   MET

>  <FRAG_NAME>  (83) 
ETAM   MSM

>  <FRAG_ATOM_NUM>  (83) 
fragi: 11  fragj: 9

>  <atom.prop.CHAIN_ID>  (83) 
A A A A A A A A A A A Z Z Z Z Z Z Z Z Z

>  <atom.prop.IS_HEAVY_ATOM>  (83) 
1 0 0 0 1 0 0 1 0 0 0 1 0 0 0 1 1 0 0 0

>  <DIFUSE_FUNC_ATOM>  (83) 
n/a

>  <FINAL_SINGLE_POINT_ENERGY>  (83) 
0

>  <NONCOV_INTER_ENERGY_QM>  (83) 
0

>  <FF_Energy>  (83) 
-1.27

>  <QM_Energy>  (83) 
-11.4

>  <source>  (83) 
ETAM_MSM

>  <Index>  (83) 
5240

$$$$
ETAM-pdb1zmd-F-LYS-92:MSM-pdb1zmd-F-MET-89
     RDKit          3D

 20 18  0  0  0  0  0  0  0  0999 V2000
    1.2573    0.8870   -0.0000 C   0  0  0  0  0  0  0  0  0  0  0  0
    1.1708    1.5475    0.7470 H   0  0  0  0  0  0  0  0  0  0  0  0
    1.2914    1.3757   -0.8728 H   0  0  0  0  0  0  0  0  0  0  0  0
    2.1836    0.3272    0.1294 H   0  0  0  0  0  0  0  0  0  0  0  0
    0.0000    0.0000    0.0000 C   0  0  0  0  0  0  0  0  0  0  0  0
    0.0159   -0.5778   -0.8156 H   0  0  0  0  0  0  0  0  0  0  0  0
    0.0162   -0.5774    0.8167 H   0  0  0  0  0  0  0  0  0  0  0  0
   -1.2573    0.8180    0.0000 N   0  0  0  0  0  4  0  0  0  0  0  0
   -1.0828    1.6831    0.4639 H   0  0  0  0  0  0  0  0  0  0  0  0
   -1.5345    0.9891   -0.9429 H   0  0  0  0  0  0  0  0  0  0  0  0
   -1.9732    0.3150    0.4785 H   0  0  0  0  0  0  0  0  0  0  0  0
   -1.6714    0.4306   -4.6606 C   0  0  0  0  0  0  0  0  0  0  0  0
   -1.1926    0.7535   -5.4993 H   0  0  0  0  0  0  0  0  0  0  0  0
   -2.6695    0.4862   -4.8556 H   0  0  0  0  0  0  0  0  0  0  0  0
   -1.4005   -0.6084   -4.4731 H   0  0  0  0  0  0  0  0  0  0  0  0
   -1.2450    1.4825   -3.2460 S   0  0  0  0  0  0  0  0  0  0  0  0
   -1.3652    3.0991   -3.9304 C   0  0  0  0  0  0  0  0  0  0  0  0
   -1.9978    3.1033   -4.7135 H   0  0  0  0  0  0  0  0  0  0  0  0
   -1.7070    3.7483   -3.2415 H   0  0  0  0  0  0  0  0  0  0  0  0
   -0.4640    3.4151   -4.2470 H   0  0  0  0  0  0  0  0  0  0  0  0
  1  5  1  0
  5  8  1  0
  1  2  1  0
  1  3  1  0
  1  4  1  0
  5  6  1  0
  5  7  1  0
  8  9  1  0
  8 10  1  0
  8 11  1  0
 12 16  1  0
 16 17  1  0
 12 13  1  0
 12 14  1  0
 12 15  1  0
 17 18  1  0
 17 19  1  0
 17 20  1  0
M  CHG  1   8   1
M  END
>  <PDB_ID>  (84) 
pdb1zmd

>  <RESIDUE_NAME>  (84) 
LYS   MET

>  <FRAG_NAME>  (84) 
ETAM   MSM

>  <FRAG_ATOM_NUM>  (84) 
fragi: 11  fragj: 9

>  <atom.prop.CHAIN_ID>  (84) 
A A A A A A A A A A A Z Z Z Z Z Z Z Z Z

>  <atom.prop.IS_HEAVY_ATOM>  (84) 
1 0 0 0 1 0 0 1 0 0 0 1 0 0 0 1 1 0 0 0

>  <DIFUSE_FUNC_ATOM>  (84) 
n/a

>  <FINAL_SINGLE_POINT_ENERGY>  (84) 
0

>  <NONCOV_INTER_ENERGY_QM>  (84) 
0

>  <FF_Energy>  (84) 
-6.17

>  <QM_Energy>  (84) 
-16.92

>  <source>  (84) 
ETAM_MSM

>  <Index>  (84) 
5295

$$$$
ETAM-pdb1zmd-H-LYS-92:MSM-pdb1zmd-H-MET-89
     RDKit          3D

 20 18  0  0  0  0  0  0  0  0999 V2000
    1.2661    0.8765   -0.0000 C   0  0  0  0  0  0  0  0  0  0  0  0
    1.0866    1.6815    0.5586 H   0  0  0  0  0  0  0  0  0  0  0  0
    1.4571    1.1466   -0.9397 H   0  0  0  0  0  0  0  0  0  0  0  0
    2.1344    0.3542    0.4016 H   0  0  0  0  0  0  0  0  0  0  0  0
    0.0000    0.0000    0.0000 C   0  0  0  0  0  0  0  0  0  0  0  0
    0.0089   -0.5783   -0.8158 H   0  0  0  0  0  0  0  0  0  0  0  0
    0.0085   -0.5781    0.8163 H   0  0  0  0  0  0  0  0  0  0  0  0
   -1.2661    0.8262    0.0000 N   0  0  0  0  0  4  0  0  0  0  0  0
   -1.9348    0.3862    0.5927 H   0  0  0  0  0  0  0  0  0  0  0  0
   -1.0532    1.7381    0.3390 H   0  0  0  0  0  0  0  0  0  0  0  0
   -1.6144    0.8782   -0.9312 H   0  0  0  0  0  0  0  0  0  0  0  0
   -1.0730   -0.8609   -4.4759 C   0  0  0  0  0  0  0  0  0  0  0  0
   -0.4077   -0.7883   -5.2418 H   0  0  0  0  0  0  0  0  0  0  0  0
   -2.0009   -0.8565   -4.8915 H   0  0  0  0  0  0  0  0  0  0  0  0
   -0.9190   -1.8109   -3.9641 H   0  0  0  0  0  0  0  0  0  0  0  0
   -0.8785    0.4989   -3.3286 S   0  0  0  0  0  0  0  0  0  0  0  0
   -0.8958    1.9557   -4.5187 C   0  0  0  0  0  0  0  0  0  0  0  0
   -0.3619    2.6753   -4.1047 H   0  0  0  0  0  0  0  0  0  0  0  0
   -0.4952    1.6442   -5.3657 H   0  0  0  0  0  0  0  0  0  0  0  0
   -1.8388    2.2233   -4.6378 H   0  0  0  0  0  0  0  0  0  0  0  0
  1  5  1  0
  5  8  1  0
  1  2  1  0
  1  3  1  0
  1  4  1  0
  5  6  1  0
  5  7  1  0
  8  9  1  0
  8 10  1  0
  8 11  1  0
 12 16  1  0
 16 17  1  0
 12 13  1  0
 12 14  1  0
 12 15  1  0
 17 18  1  0
 17 19  1  0
 17 20  1  0
M  CHG  1   8   1
M  END
>  <PDB_ID>  (85) 
pdb1zmd

>  <RESIDUE_NAME>  (85) 
LYS   MET

>  <FRAG_NAME>  (85) 
ETAM   MSM

>  <FRAG_ATOM_NUM>  (85) 
fragi: 11  fragj: 9

>  <atom.prop.CHAIN_ID>  (85) 
A A A A A A A A A A A Z Z Z Z Z Z Z Z Z

>  <atom.prop.IS_HEAVY_ATOM>  (85) 
1 0 0 0 1 0 0 1 0 0 0 1 0 0 0 1 1 0 0 0

>  <DIFUSE_FUNC_ATOM>  (85) 
n/a

>  <FINAL_SINGLE_POINT_ENERGY>  (85) 
0

>  <NONCOV_INTER_ENERGY_QM>  (85) 
0

>  <FF_Energy>  (85) 
-5.55

>  <QM_Energy>  (85) 
-15.96

>  <source>  (85) 
ETAM_MSM

>  <Index>  (85) 
5297

$$$$
ETAM-pdb3e0c-A-LYS-335:MSM-pdb3e0c-A-MET-350
     RDKit          3D

 20 18  0  0  0  0  0  0  0  0999 V2000
    1.2317    0.8804   -0.0000 C   0  0  0  0  0  0  0  0  0  0  0  0
    1.2148    1.4553    0.8168 H   0  0  0  0  0  0  0  0  0  0  0  0
    1.2133    1.4568   -0.8168 H   0  0  0  0  0  0  0  0  0  0  0  0
    2.1555    0.3020   -0.0001 H   0  0  0  0  0  0  0  0  0  0  0  0
    0.0000    0.0000    0.0000 C   0  0  0  0  0  0  0  0  0  0  0  0
    0.0098   -0.5755   -0.8173 H   0  0  0  0  0  0  0  0  0  0  0  0
    0.0103   -0.5764    0.8154 H   0  0  0  0  0  0  0  0  0  0  0  0
   -1.2317    0.8282   -0.0000 N   0  0  0  0  0  4  0  0  0  0  0  0
   -1.0240    1.7356   -0.3661 H   0  0  0  0  0  0  0  0  0  0  0  0
   -1.9282    0.3905   -0.5688 H   0  0  0  0  0  0  0  0  0  0  0  0
   -1.5733    0.9168    0.9358 H   0  0  0  0  0  0  0  0  0  0  0  0
    1.3449   -2.0102    2.2070 C   0  0  0  0  0  0  0  0  0  0  0  0
    0.4169   -1.5845    2.1518 H   0  0  0  0  0  0  0  0  0  0  0  0
    1.9734   -1.2737    2.5367 H   0  0  0  0  0  0  0  0  0  0  0  0
    1.3202   -2.8091    2.9481 H   0  0  0  0  0  0  0  0  0  0  0  0
    1.8670   -2.6076    0.5802 S   0  0  0  0  0  0  0  0  0  0  0  0
    0.6270   -3.8098    0.1047 C   0  0  0  0  0  0  0  0  0  0  0  0
   -0.0878   -3.3595   -0.4324 H   0  0  0  0  0  0  0  0  0  0  0  0
    1.0516   -4.5301   -0.4458 H   0  0  0  0  0  0  0  0  0  0  0  0
    0.2201   -4.2149    0.9251 H   0  0  0  0  0  0  0  0  0  0  0  0
  1  5  1  0
  5  8  1  0
  1  2  1  0
  1  3  1  0
  1  4  1  0
  5  6  1  0
  5  7  1  0
  8  9  1  0
  8 10  1  0
  8 11  1  0
 12 16  1  0
 16 17  1  0
 12 13  1  0
 12 14  1  0
 12 15  1  0
 17 18  1  0
 17 19  1  0
 17 20  1  0
M  CHG  1   8   1
M  END
>  <PDB_ID>  (86) 
pdb3e0c

>  <RESIDUE_NAME>  (86) 
LYS   MET

>  <FRAG_NAME>  (86) 
ETAM   MSM

>  <FRAG_ATOM_NUM>  (86) 
fragi: 11  fragj: 9

>  <atom.prop.CHAIN_ID>  (86) 
A A A A A A A A A A A Z Z Z Z Z Z Z Z Z

>  <atom.prop.IS_HEAVY_ATOM>  (86) 
1 0 0 0 1 0 0 1 0 0 0 1 0 0 0 1 1 0 0 0

>  <DIFUSE_FUNC_ATOM>  (86) 
n/a

>  <FINAL_SINGLE_POINT_ENERGY>  (86) 
0

>  <NONCOV_INTER_ENERGY_QM>  (86) 
0

>  <FF_Energy>  (86) 
6.87

>  <QM_Energy>  (86) 
-3.37

>  <source>  (86) 
ETAM_MSM

>  <Index>  (86) 
5334

$$$$
ETAM-pdb3e61-A-LYS-196:MSM-pdb3e61-A-MET-208
     RDKit          3D

 20 18  0  0  0  0  0  0  0  0999 V2000
    1.2361    0.8603    0.0000 C   0  0  0  0  0  0  0  0  0  0  0  0
    1.4657    1.0892   -0.9424 H   0  0  0  0  0  0  0  0  0  0  0  0
    1.9810    0.3485    0.4196 H   0  0  0  0  0  0  0  0  0  0  0  0
    1.0707    1.7796    0.5618 H   0  0  0  0  0  0  0  0  0  0  0  0
    0.0000    0.0000    0.0000 C   0  0  0  0  0  0  0  0  0  0  0  0
   -0.0084   -0.5747   -0.8162 H   0  0  0  0  0  0  0  0  0  0  0  0
   -0.0093   -0.5749    0.8162 H   0  0  0  0  0  0  0  0  0  0  0  0
   -1.2361    0.8550   -0.0000 N   0  0  0  0  0  4  0  0  0  0  0  0
   -1.6738    0.7926    0.8937 H   0  0  0  0  0  0  0  0  0  0  0  0
   -0.9767    1.7995   -0.1863 H   0  0  0  0  0  0  0  0  0  0  0  0
   -1.8574    0.5258   -0.7072 H   0  0  0  0  0  0  0  0  0  0  0  0
   -4.0086    1.3719   -2.2490 C   0  0  0  0  0  0  0  0  0  0  0  0
   -3.6575    2.2386   -2.6455 H   0  0  0  0  0  0  0  0  0  0  0  0
   -4.2521    1.5638   -1.2822 H   0  0  0  0  0  0  0  0  0  0  0  0
   -4.9118    1.0831   -2.7864 H   0  0  0  0  0  0  0  0  0  0  0  0
   -2.8122    0.0732   -2.3701 S   0  0  0  0  0  0  0  0  0  0  0  0
   -2.4364    0.1168   -4.1472 C   0  0  0  0  0  0  0  0  0  0  0  0
   -2.0567    1.0096   -4.3757 H   0  0  0  0  0  0  0  0  0  0  0  0
   -1.7750   -0.5989   -4.3548 H   0  0  0  0  0  0  0  0  0  0  0  0
   -3.2778   -0.0371   -4.6589 H   0  0  0  0  0  0  0  0  0  0  0  0
  1  5  1  0
  5  8  1  0
  1  2  1  0
  1  3  1  0
  1  4  1  0
  5  6  1  0
  5  7  1  0
  8  9  1  0
  8 10  1  0
  8 11  1  0
 12 16  1  0
 16 17  1  0
 12 13  1  0
 12 14  1  0
 12 15  1  0
 17 18  1  0
 17 19  1  0
 17 20  1  0
M  CHG  1   8   1
M  END
>  <PDB_ID>  (87) 
pdb3e61

>  <RESIDUE_NAME>  (87) 
LYS   MET

>  <FRAG_NAME>  (87) 
ETAM   MSM

>  <FRAG_ATOM_NUM>  (87) 
fragi: 11  fragj: 9

>  <atom.prop.CHAIN_ID>  (87) 
A A A A A A A A A A A Z Z Z Z Z Z Z Z Z

>  <atom.prop.IS_HEAVY_ATOM>  (87) 
1 0 0 0 1 0 0 1 0 0 0 1 0 0 0 1 1 0 0 0

>  <DIFUSE_FUNC_ATOM>  (87) 
n/a

>  <FINAL_SINGLE_POINT_ENERGY>  (87) 
0

>  <NONCOV_INTER_ENERGY_QM>  (87) 
0

>  <FF_Energy>  (87) 
-2.75

>  <QM_Energy>  (87) 
-13.48

>  <source>  (87) 
ETAM_MSM

>  <Index>  (87) 
5354

$$$$
ETAM-pdb3e96-B-LYS-167:MSM-pdb3e96-B-MET-111
     RDKit          3D

 20 18  0  0  0  0  0  0  0  0999 V2000
    1.2450    0.8832   -0.0000 C   0  0  0  0  0  0  0  0  0  0  0  0
    1.2447    1.4270    0.8279 H   0  0  0  0  0  0  0  0  0  0  0  0
    1.2204    1.4611   -0.8040 H   0  0  0  0  0  0  0  0  0  0  0  0
    2.1488    0.2744   -0.0252 H   0  0  0  0  0  0  0  0  0  0  0  0
    0.0000    0.0000    0.0000 C   0  0  0  0  0  0  0  0  0  0  0  0
    0.0166   -0.5806   -0.8167 H   0  0  0  0  0  0  0  0  0  0  0  0
    0.0164   -0.5809    0.8169 H   0  0  0  0  0  0  0  0  0  0  0  0
   -1.2450    0.8134    0.0000 N   0  0  0  0  0  4  0  0  0  0  0  0
   -1.4187    1.1548   -0.9235 H   0  0  0  0  0  0  0  0  0  0  0  0
   -2.0126    0.2457    0.2964 H   0  0  0  0  0  0  0  0  0  0  0  0
   -1.1383    1.5844    0.6268 H   0  0  0  0  0  0  0  0  0  0  0  0
    0.3165    2.5994    3.8379 C   0  0  0  0  0  0  0  0  0  0  0  0
    0.7940    3.3472    4.3701 H   0  0  0  0  0  0  0  0  0  0  0  0
    1.0231    1.8478    3.7652 H   0  0  0  0  0  0  0  0  0  0  0  0
   -0.4965    2.2249    4.4599 H   0  0  0  0  0  0  0  0  0  0  0  0
   -0.1739    3.1864    2.1959 S   0  0  0  0  0  0  0  0  0  0  0  0
   -1.0193    4.7012    2.6245 C   0  0  0  0  0  0  0  0  0  0  0  0
   -0.5282    5.4834    2.2373 H   0  0  0  0  0  0  0  0  0  0  0  0
   -1.9511    4.6832    2.2589 H   0  0  0  0  0  0  0  0  0  0  0  0
   -1.0576    4.7962    3.6212 H   0  0  0  0  0  0  0  0  0  0  0  0
  1  5  1  0
  5  8  1  0
  1  2  1  0
  1  3  1  0
  1  4  1  0
  5  6  1  0
  5  7  1  0
  8  9  1  0
  8 10  1  0
  8 11  1  0
 12 16  1  0
 16 17  1  0
 12 13  1  0
 12 14  1  0
 12 15  1  0
 17 18  1  0
 17 19  1  0
 17 20  1  0
M  CHG  1   8   1
M  END
>  <PDB_ID>  (88) 
pdb3e96

>  <RESIDUE_NAME>  (88) 
LYS   MET

>  <FRAG_NAME>  (88) 
ETAM   MSM

>  <FRAG_ATOM_NUM>  (88) 
fragi: 11  fragj: 9

>  <atom.prop.CHAIN_ID>  (88) 
A A A A A A A A A A A Z Z Z Z Z Z Z Z Z

>  <atom.prop.IS_HEAVY_ATOM>  (88) 
1 0 0 0 1 0 0 1 0 0 0 1 0 0 0 1 1 0 0 0

>  <DIFUSE_FUNC_ATOM>  (88) 
n/a

>  <FINAL_SINGLE_POINT_ENERGY>  (88) 
0

>  <NONCOV_INTER_ENERGY_QM>  (88) 
0

>  <FF_Energy>  (88) 
-5.03

>  <QM_Energy>  (88) 
-15.78

>  <source>  (88) 
ETAM_MSM

>  <Index>  (88) 
5368

$$$$
ETAM-pdb3ejj-X-LYS-178:MSM-pdb3ejj-X-MET-141
     RDKit          3D

 20 18  0  0  0  0  0  0  0  0999 V2000
    1.2418    0.8856    0.0000 C   0  0  0  0  0  0  0  0  0  0  0  0
    1.2159    1.4710    0.8066 H   0  0  0  0  0  0  0  0  0  0  0  0
    1.2343    1.4432   -0.8263 H   0  0  0  0  0  0  0  0  0  0  0  0
    2.1658    0.3079    0.0211 H   0  0  0  0  0  0  0  0  0  0  0  0
    0.0000    0.0000    0.0000 C   0  0  0  0  0  0  0  0  0  0  0  0
    0.0133   -0.5762   -0.8167 H   0  0  0  0  0  0  0  0  0  0  0  0
    0.0130   -0.5766    0.8160 H   0  0  0  0  0  0  0  0  0  0  0  0
   -1.2418    0.8246    0.0000 N   0  0  0  0  0  4  0  0  0  0  0  0
   -1.0232    1.7499   -0.3053 H   0  0  0  0  0  0  0  0  0  0  0  0
   -1.9106    0.4152   -0.6196 H   0  0  0  0  0  0  0  0  0  0  0  0
   -1.6173    0.8561    0.9256 H   0  0  0  0  0  0  0  0  0  0  0  0
    0.8401    2.9653    2.9324 C   0  0  0  0  0  0  0  0  0  0  0  0
    1.6989    3.4255    3.1876 H   0  0  0  0  0  0  0  0  0  0  0  0
    1.0311    2.3495    2.1589 H   0  0  0  0  0  0  0  0  0  0  0  0
    0.4865    2.3766    3.7789 H   0  0  0  0  0  0  0  0  0  0  0  0
   -0.4235    4.1044    2.5599 S   0  0  0  0  0  0  0  0  0  0  0  0
    0.3781    5.6152    3.0021 C   0  0  0  0  0  0  0  0  0  0  0  0
    0.9378    5.9487    2.2366 H   0  0  0  0  0  0  0  0  0  0  0  0
   -0.3044    6.3167    3.2314 H   0  0  0  0  0  0  0  0  0  0  0  0
    0.9738    5.4729    3.7987 H   0  0  0  0  0  0  0  0  0  0  0  0
  1  5  1  0
  5  8  1  0
  1  2  1  0
  1  3  1  0
  1  4  1  0
  5  6  1  0
  5  7  1  0
  8  9  1  0
  8 10  1  0
  8 11  1  0
 12 16  1  0
 16 17  1  0
 12 13  1  0
 12 14  1  0
 12 15  1  0
 17 18  1  0
 17 19  1  0
 17 20  1  0
M  CHG  1   8   1
M  END
>  <PDB_ID>  (89) 
pdb3ejj

>  <RESIDUE_NAME>  (89) 
LYS   MET

>  <FRAG_NAME>  (89) 
ETAM   MSM

>  <FRAG_ATOM_NUM>  (89) 
fragi: 11  fragj: 9

>  <atom.prop.CHAIN_ID>  (89) 
A A A A A A A A A A A Z Z Z Z Z Z Z Z Z

>  <atom.prop.IS_HEAVY_ATOM>  (89) 
1 0 0 0 1 0 0 1 0 0 0 1 0 0 0 1 1 0 0 0

>  <DIFUSE_FUNC_ATOM>  (89) 
n/a

>  <FINAL_SINGLE_POINT_ENERGY>  (89) 
0

>  <NONCOV_INTER_ENERGY_QM>  (89) 
0

>  <FF_Energy>  (89) 
6.84

>  <QM_Energy>  (89) 
-3.23

>  <source>  (89) 
ETAM_MSM

>  <Index>  (89) 
5400

$$$$
ETAM-pdb4ak4-I-LYS-74:MSM-pdb4ak4-E-MET-66
     RDKit          3D

 20 18  0  0  0  0  0  0  0  0999 V2000
    1.2333    0.8525   -0.0000 C   0  0  0  0  0  0  0  0  0  0  0  0
    1.2840    1.3501   -0.8584 H   0  0  0  0  0  0  0  0  0  0  0  0
    2.0304    0.2704    0.1126 H   0  0  0  0  0  0  0  0  0  0  0  0
    1.2007    1.5692    0.8206 H   0  0  0  0  0  0  0  0  0  0  0  0
    0.0000    0.0000    0.0000 C   0  0  0  0  0  0  0  0  0  0  0  0
   -0.0040   -0.5834   -0.8159 H   0  0  0  0  0  0  0  0  0  0  0  0
   -0.0044   -0.5838    0.8164 H   0  0  0  0  0  0  0  0  0  0  0  0
   -1.2333    0.8356   -0.0000 N   0  0  0  0  0  4  0  0  0  0  0  0
   -1.9099    0.4276    0.6120 H   0  0  0  0  0  0  0  0  0  0  0  0
   -1.0086    1.7573    0.3157 H   0  0  0  0  0  0  0  0  0  0  0  0
   -1.6035    0.8790   -0.9277 H   0  0  0  0  0  0  0  0  0  0  0  0
   -4.2112   -0.9465   -0.3762 C   0  0  0  0  0  0  0  0  0  0  0  0
   -4.0935   -0.0960   -0.9415 H   0  0  0  0  0  0  0  0  0  0  0  0
   -5.2168   -0.9952   -0.1695 H   0  0  0  0  0  0  0  0  0  0  0  0
   -3.9265   -1.8129   -0.9732 H   0  0  0  0  0  0  0  0  0  0  0  0
   -3.2637   -0.8147    1.1569 S   0  0  0  0  0  0  0  0  0  0  0  0
   -3.0872   -2.4981    1.6182 C   0  0  0  0  0  0  0  0  0  0  0  0
   -3.9686   -2.8751    1.9266 H   0  0  0  0  0  0  0  0  0  0  0  0
   -2.7635   -3.0467    0.8376 H   0  0  0  0  0  0  0  0  0  0  0  0
   -2.4220   -2.5917    2.3689 H   0  0  0  0  0  0  0  0  0  0  0  0
  1  5  1  0
  5  8  1  0
  1  2  1  0
  1  3  1  0
  1  4  1  0
  5  6  1  0
  5  7  1  0
  8  9  1  0
  8 10  1  0
  8 11  1  0
 12 16  1  0
 16 17  1  0
 12 13  1  0
 12 14  1  0
 12 15  1  0
 17 18  1  0
 17 19  1  0
 17 20  1  0
M  CHG  1   8   1
M  END
>  <PDB_ID>  (90) 
pdb4ak4

>  <RESIDUE_NAME>  (90) 
LYS   MET

>  <FRAG_NAME>  (90) 
ETAM   MSM

>  <FRAG_ATOM_NUM>  (90) 
fragi: 11  fragj: 9

>  <atom.prop.CHAIN_ID>  (90) 
A A A A A A A A A A A Z Z Z Z Z Z Z Z Z

>  <atom.prop.IS_HEAVY_ATOM>  (90) 
1 0 0 0 1 0 0 1 0 0 0 1 0 0 0 1 1 0 0 0

>  <DIFUSE_FUNC_ATOM>  (90) 
n/a

>  <FINAL_SINGLE_POINT_ENERGY>  (90) 
0

>  <NONCOV_INTER_ENERGY_QM>  (90) 
0

>  <FF_Energy>  (90) 
-0.09

>  <QM_Energy>  (90) 
-11.95

>  <source>  (90) 
ETAM_MSM

>  <Index>  (90) 
5570

$$$$
ETAM-pdb3f65-C-LYS-108:MSM-pdb3f65-C-MET-172
     RDKit          3D

 20 18  0  0  0  0  0  0  0  0999 V2000
    1.2600    0.8745    0.0000 C   0  0  0  0  0  0  0  0  0  0  0  0
    1.1344    1.6043    0.6492 H   0  0  0  0  0  0  0  0  0  0  0  0
    1.4061    1.2130   -0.9135 H   0  0  0  0  0  0  0  0  0  0  0  0
    2.1204    0.2764    0.3002 H   0  0  0  0  0  0  0  0  0  0  0  0
    0.0000    0.0000    0.0000 C   0  0  0  0  0  0  0  0  0  0  0  0
    0.0221   -0.5904   -0.8160 H   0  0  0  0  0  0  0  0  0  0  0  0
    0.0213   -0.5912    0.8167 H   0  0  0  0  0  0  0  0  0  0  0  0
   -1.2600    0.7910   -0.0000 N   0  0  0  0  0  4  0  0  0  0  0  0
   -1.0855    1.6931    0.3935 H   0  0  0  0  0  0  0  0  0  0  0  0
   -1.5877    0.8933   -0.9391 H   0  0  0  0  0  0  0  0  0  0  0  0
   -1.9500    0.3158    0.5458 H   0  0  0  0  0  0  0  0  0  0  0  0
   -1.4972    1.6922   -3.8870 C   0  0  0  0  0  0  0  0  0  0  0  0
   -1.4793    1.6955   -4.9336 H   0  0  0  0  0  0  0  0  0  0  0  0
   -1.1522    2.6530   -3.6519 H   0  0  0  0  0  0  0  0  0  0  0  0
   -2.5466    1.6569   -3.5940 H   0  0  0  0  0  0  0  0  0  0  0  0
   -0.3801    0.4235   -3.2249 S   0  0  0  0  0  0  0  0  0  0  0  0
   -1.1491   -1.1040   -3.8055 C   0  0  0  0  0  0  0  0  0  0  0  0
   -1.2677   -1.0554   -4.7961 H   0  0  0  0  0  0  0  0  0  0  0  0
   -0.5603   -1.8766   -3.5738 H   0  0  0  0  0  0  0  0  0  0  0  0
   -2.0382   -1.2129   -3.3642 H   0  0  0  0  0  0  0  0  0  0  0  0
  1  5  1  0
  5  8  1  0
  1  2  1  0
  1  3  1  0
  1  4  1  0
  5  6  1  0
  5  7  1  0
  8  9  1  0
  8 10  1  0
  8 11  1  0
 12 16  1  0
 16 17  1  0
 12 13  1  0
 12 14  1  0
 12 15  1  0
 17 18  1  0
 17 19  1  0
 17 20  1  0
M  CHG  1   8   1
M  END
>  <PDB_ID>  (91) 
pdb3f65

>  <RESIDUE_NAME>  (91) 
LYS   MET

>  <FRAG_NAME>  (91) 
ETAM   MSM

>  <FRAG_ATOM_NUM>  (91) 
fragi: 11  fragj: 9

>  <atom.prop.CHAIN_ID>  (91) 
A A A A A A A A A A A Z Z Z Z Z Z Z Z Z

>  <atom.prop.IS_HEAVY_ATOM>  (91) 
1 0 0 0 1 0 0 1 0 0 0 1 0 0 0 1 1 0 0 0

>  <DIFUSE_FUNC_ATOM>  (91) 
n/a

>  <FINAL_SINGLE_POINT_ENERGY>  (91) 
0

>  <NONCOV_INTER_ENERGY_QM>  (91) 
0

>  <FF_Energy>  (91) 
-3.62

>  <QM_Energy>  (91) 
-13.71

>  <source>  (91) 
ETAM_MSM

>  <Index>  (91) 
5580

$$$$
ETAM-pdb3fbg-B-LYS-305:MSM-pdb3fbg-B-MET-327
     RDKit          3D

 20 18  0  0  0  0  0  0  0  0999 V2000
    1.2321    0.8744    0.0000 C   0  0  0  0  0  0  0  0  0  0  0  0
    1.2157    1.4522    0.8171 H   0  0  0  0  0  0  0  0  0  0  0  0
    1.2152    1.4524   -0.8165 H   0  0  0  0  0  0  0  0  0  0  0  0
    2.1560    0.2960    0.0007 H   0  0  0  0  0  0  0  0  0  0  0  0
    0.0000    0.0000    0.0000 C   0  0  0  0  0  0  0  0  0  0  0  0
    0.0071   -0.5779   -0.8160 H   0  0  0  0  0  0  0  0  0  0  0  0
    0.0068   -0.5778    0.8169 H   0  0  0  0  0  0  0  0  0  0  0  0
   -1.2321    0.8295   -0.0000 N   0  0  0  0  0  4  0  0  0  0  0  0
   -1.9876    0.3041    0.3913 H   0  0  0  0  0  0  0  0  0  0  0  0
   -1.0792    1.6533    0.5470 H   0  0  0  0  0  0  0  0  0  0  0  0
   -1.4574    1.0907   -0.9388 H   0  0  0  0  0  0  0  0  0  0  0  0
   -0.5477    2.7385    4.3194 C   0  0  0  0  0  0  0  0  0  0  0  0
   -1.3558    3.2710    3.9547 H   0  0  0  0  0  0  0  0  0  0  0  0
    0.0395    3.4517    4.7825 H   0  0  0  0  0  0  0  0  0  0  0  0
   -0.9142    2.0559    5.0860 H   0  0  0  0  0  0  0  0  0  0  0  0
    0.3520    1.9415    2.9769 S   0  0  0  0  0  0  0  0  0  0  0  0
    1.4381    0.8030    3.8559 C   0  0  0  0  0  0  0  0  0  0  0  0
    1.8353    0.1573    3.2052 H   0  0  0  0  0  0  0  0  0  0  0  0
    2.1669    1.3207    4.3034 H   0  0  0  0  0  0  0  0  0  0  0  0
    0.9090    0.3052    4.5420 H   0  0  0  0  0  0  0  0  0  0  0  0
  1  5  1  0
  5  8  1  0
  1  2  1  0
  1  3  1  0
  1  4  1  0
  5  6  1  0
  5  7  1  0
  8  9  1  0
  8 10  1  0
  8 11  1  0
 12 16  1  0
 16 17  1  0
 12 13  1  0
 12 14  1  0
 12 15  1  0
 17 18  1  0
 17 19  1  0
 17 20  1  0
M  CHG  1   8   1
M  END
>  <PDB_ID>  (92) 
pdb3fbg

>  <RESIDUE_NAME>  (92) 
LYS   MET

>  <FRAG_NAME>  (92) 
ETAM   MSM

>  <FRAG_ATOM_NUM>  (92) 
fragi: 11  fragj: 9

>  <atom.prop.CHAIN_ID>  (92) 
A A A A A A A A A A A Z Z Z Z Z Z Z Z Z

>  <atom.prop.IS_HEAVY_ATOM>  (92) 
1 0 0 0 1 0 0 1 0 0 0 1 0 0 0 1 1 0 0 0

>  <DIFUSE_FUNC_ATOM>  (92) 
n/a

>  <FINAL_SINGLE_POINT_ENERGY>  (92) 
0

>  <NONCOV_INTER_ENERGY_QM>  (92) 
0

>  <FF_Energy>  (92) 
-0.24

>  <QM_Energy>  (92) 
-11.76

>  <source>  (92) 
ETAM_MSM

>  <Index>  (92) 
5603

$$$$
ETAM-pdb4hgn-C-LYS-53:MSM-pdb4hgn-C-MET-166
     RDKit          3D

 20 18  0  0  0  0  0  0  0  0999 V2000
    1.2601    0.8598    0.0000 C   0  0  0  0  0  0  0  0  0  0  0  0
    1.2653    1.4189    0.8191 H   0  0  0  0  0  0  0  0  0  0  0  0
    1.2590    1.4267   -0.8142 H   0  0  0  0  0  0  0  0  0  0  0  0
    2.1594    0.2440   -0.0052 H   0  0  0  0  0  0  0  0  0  0  0  0
    0.0000    0.0000    0.0000 C   0  0  0  0  0  0  0  0  0  0  0  0
    0.0064   -0.5882   -0.8160 H   0  0  0  0  0  0  0  0  0  0  0  0
    0.0062   -0.5883    0.8167 H   0  0  0  0  0  0  0  0  0  0  0  0
   -1.2601    0.8149   -0.0000 N   0  0  0  0  0  4  0  0  0  0  0  0
   -2.0232    0.2350   -0.2767 H   0  0  0  0  0  0  0  0  0  0  0  0
   -1.4189    1.1686    0.9184 H   0  0  0  0  0  0  0  0  0  0  0  0
   -1.1578    1.5716   -0.6426 H   0  0  0  0  0  0  0  0  0  0  0  0
   -4.2161   -2.4581    0.5821 C   0  0  0  0  0  0  0  0  0  0  0  0
   -4.6961   -3.1828    0.0320 H   0  0  0  0  0  0  0  0  0  0  0  0
   -4.9483   -2.0419    1.1727 H   0  0  0  0  0  0  0  0  0  0  0  0
   -3.4891   -2.9471    1.2305 H   0  0  0  0  0  0  0  0  0  0  0  0
   -3.4939   -1.2010   -0.5152 S   0  0  0  0  0  0  0  0  0  0  0  0
   -3.0756   -2.1936   -1.9560 C   0  0  0  0  0  0  0  0  0  0  0  0
   -3.9010   -2.3596   -2.4951 H   0  0  0  0  0  0  0  0  0  0  0  0
   -2.4041   -1.7046   -2.5130 H   0  0  0  0  0  0  0  0  0  0  0  0
   -2.6899   -3.0659   -1.6571 H   0  0  0  0  0  0  0  0  0  0  0  0
  1  5  1  0
  5  8  1  0
  1  2  1  0
  1  3  1  0
  1  4  1  0
  5  6  1  0
  5  7  1  0
  8  9  1  0
  8 10  1  0
  8 11  1  0
 12 16  1  0
 16 17  1  0
 12 13  1  0
 12 14  1  0
 12 15  1  0
 17 18  1  0
 17 19  1  0
 17 20  1  0
M  CHG  1   8   1
M  END
>  <PDB_ID>  (93) 
pdb4hgn

>  <RESIDUE_NAME>  (93) 
LYS   MET

>  <FRAG_NAME>  (93) 
ETAM   MSM

>  <FRAG_ATOM_NUM>  (93) 
fragi: 11  fragj: 9

>  <atom.prop.CHAIN_ID>  (93) 
A A A A A A A A A A A Z Z Z Z Z Z Z Z Z

>  <atom.prop.IS_HEAVY_ATOM>  (93) 
1 0 0 0 1 0 0 1 0 0 0 1 0 0 0 1 1 0 0 0

>  <DIFUSE_FUNC_ATOM>  (93) 
n/a

>  <FINAL_SINGLE_POINT_ENERGY>  (93) 
0

>  <NONCOV_INTER_ENERGY_QM>  (93) 
0

>  <FF_Energy>  (93) 
-4.65

>  <QM_Energy>  (93) 
-15.16

>  <source>  (93) 
ETAM_MSM

>  <Index>  (93) 
6611

$$$$
ETAM-pdb4ian-A-LYS-905:MSM-pdb4ian-A-MET-985
     RDKit          3D

 20 18  0  0  0  0  0  0  0  0999 V2000
    1.2281    0.8866    0.0000 C   0  0  0  0  0  0  0  0  0  0  0  0
    1.1578    1.5284   -0.7630 H   0  0  0  0  0  0  0  0  0  0  0  0
    2.0363    0.3115   -0.1182 H   0  0  0  0  0  0  0  0  0  0  0  0
    1.3295    1.4514    0.9267 H   0  0  0  0  0  0  0  0  0  0  0  0
    0.0000    0.0000    0.0000 C   0  0  0  0  0  0  0  0  0  0  0  0
    0.0161   -0.5769   -0.8164 H   0  0  0  0  0  0  0  0  0  0  0  0
    0.0155   -0.5772    0.8161 H   0  0  0  0  0  0  0  0  0  0  0  0
   -1.2281    0.8207    0.0000 N   0  0  0  0  0  4  0  0  0  0  0  0
   -2.0129    0.2523    0.2521 H   0  0  0  0  0  0  0  0  0  0  0  0
   -1.1346    1.5673    0.6612 H   0  0  0  0  0  0  0  0  0  0  0  0
   -1.3776    1.2038   -0.9130 H   0  0  0  0  0  0  0  0  0  0  0  0
   -4.6727    1.7602   -0.0652 C   0  0  0  0  0  0  0  0  0  0  0  0
   -4.6281    0.7957    0.2568 H   0  0  0  0  0  0  0  0  0  0  0  0
   -5.6014    1.8927   -0.4595 H   0  0  0  0  0  0  0  0  0  0  0  0
   -4.5549    2.4233    0.7918 H   0  0  0  0  0  0  0  0  0  0  0  0
   -3.3995    2.0723   -1.3172 S   0  0  0  0  0  0  0  0  0  0  0  0
   -4.1232    3.4820   -2.1589 C   0  0  0  0  0  0  0  0  0  0  0  0
   -4.8299    3.8904   -1.5794 H   0  0  0  0  0  0  0  0  0  0  0  0
   -3.4124    4.1615   -2.3456 H   0  0  0  0  0  0  0  0  0  0  0  0
   -4.5318    3.1827   -3.0210 H   0  0  0  0  0  0  0  0  0  0  0  0
  1  5  1  0
  5  8  1  0
  1  2  1  0
  1  3  1  0
  1  4  1  0
  5  6  1  0
  5  7  1  0
  8  9  1  0
  8 10  1  0
  8 11  1  0
 12 16  1  0
 16 17  1  0
 12 13  1  0
 12 14  1  0
 12 15  1  0
 17 18  1  0
 17 19  1  0
 17 20  1  0
M  CHG  1   8   1
M  END
>  <PDB_ID>  (94) 
pdb4ian

>  <RESIDUE_NAME>  (94) 
LYS   MET

>  <FRAG_NAME>  (94) 
ETAM   MSM

>  <FRAG_ATOM_NUM>  (94) 
fragi: 11  fragj: 9

>  <atom.prop.CHAIN_ID>  (94) 
A A A A A A A A A A A Z Z Z Z Z Z Z Z Z

>  <atom.prop.IS_HEAVY_ATOM>  (94) 
1 0 0 0 1 0 0 1 0 0 0 1 0 0 0 1 1 0 0 0

>  <DIFUSE_FUNC_ATOM>  (94) 
n/a

>  <FINAL_SINGLE_POINT_ENERGY>  (94) 
0

>  <NONCOV_INTER_ENERGY_QM>  (94) 
0

>  <FF_Energy>  (94) 
1.07

>  <QM_Energy>  (94) 
-9.82

>  <source>  (94) 
ETAM_MSM

>  <Index>  (94) 
6733

$$$$
ETAM-pdb4j1q-A-LYS-138:MSM-pdb4j1q-A-MET-132
     RDKit          3D

 20 18  0  0  0  0  0  0  0  0999 V2000
    1.2476    0.8761   -0.0000 C   0  0  0  0  0  0  0  0  0  0  0  0
    2.0405    0.2939    0.1139 H   0  0  0  0  0  0  0  0  0  0  0  0
    1.1735    1.5269    0.7420 H   0  0  0  0  0  0  0  0  0  0  0  0
    1.3322    1.4152   -0.9435 H   0  0  0  0  0  0  0  0  0  0  0  0
    0.0000    0.0000    0.0000 C   0  0  0  0  0  0  0  0  0  0  0  0
    0.0150   -0.5836   -0.8164 H   0  0  0  0  0  0  0  0  0  0  0  0
    0.0147   -0.5838    0.8161 H   0  0  0  0  0  0  0  0  0  0  0  0
   -1.2476    0.8103   -0.0000 N   0  0  0  0  0  4  0  0  0  0  0  0
   -1.0672    1.6981    0.4240 H   0  0  0  0  0  0  0  0  0  0  0  0
   -1.5555    0.9451   -0.9413 H   0  0  0  0  0  0  0  0  0  0  0  0
   -1.9556    0.3301    0.5172 H   0  0  0  0  0  0  0  0  0  0  0  0
    1.2584   -1.9632    4.3165 C   0  0  0  0  0  0  0  0  0  0  0  0
    1.8955   -2.4512    3.6850 H   0  0  0  0  0  0  0  0  0  0  0  0
    0.4588   -2.5849    4.4483 H   0  0  0  0  0  0  0  0  0  0  0  0
    1.7565   -1.8224    5.2758 H   0  0  0  0  0  0  0  0  0  0  0  0
    0.7385   -0.3958    3.6140 S   0  0  0  0  0  0  0  0  0  0  0  0
   -0.8966   -0.8456    3.0479 C   0  0  0  0  0  0  0  0  0  0  0  0
   -1.0212   -0.5425    2.1017 H   0  0  0  0  0  0  0  0  0  0  0  0
   -1.0084   -1.8401    3.0932 H   0  0  0  0  0  0  0  0  0  0  0  0
   -1.5869   -0.4091    3.6281 H   0  0  0  0  0  0  0  0  0  0  0  0
  1  5  1  0
  5  8  1  0
  1  2  1  0
  1  3  1  0
  1  4  1  0
  5  6  1  0
  5  7  1  0
  8  9  1  0
  8 10  1  0
  8 11  1  0
 12 16  1  0
 16 17  1  0
 12 13  1  0
 12 14  1  0
 12 15  1  0
 17 18  1  0
 17 19  1  0
 17 20  1  0
M  CHG  1   8   1
M  END
>  <PDB_ID>  (95) 
pdb4j1q

>  <RESIDUE_NAME>  (95) 
LYS   MET

>  <FRAG_NAME>  (95) 
ETAM   MSM

>  <FRAG_ATOM_NUM>  (95) 
fragi: 11  fragj: 9

>  <atom.prop.CHAIN_ID>  (95) 
A A A A A A A A A A A Z Z Z Z Z Z Z Z Z

>  <atom.prop.IS_HEAVY_ATOM>  (95) 
1 0 0 0 1 0 0 1 0 0 0 1 0 0 0 1 1 0 0 0

>  <DIFUSE_FUNC_ATOM>  (95) 
n/a

>  <FINAL_SINGLE_POINT_ENERGY>  (95) 
0

>  <NONCOV_INTER_ENERGY_QM>  (95) 
0

>  <FF_Energy>  (95) 
11.61

>  <QM_Energy>  (95) 
-1.43

>  <source>  (95) 
ETAM_MSM

>  <Index>  (95) 
6896

$$$$
ETAM-pdb4jzb-B-LYS-273:MSM-pdb4jzb-B-MET-174
     RDKit          3D

 20 18  0  0  0  0  0  0  0  0999 V2000
    1.2394    0.8500    0.0000 C   0  0  0  0  0  0  0  0  0  0  0  0
    1.2979    1.3439    0.8636 H   0  0  0  0  0  0  0  0  0  0  0  0
    1.1949    1.4930   -0.7600 H   0  0  0  0  0  0  0  0  0  0  0  0
    2.1405    0.2468   -0.1114 H   0  0  0  0  0  0  0  0  0  0  0  0
    0.0000    0.0000    0.0000 C   0  0  0  0  0  0  0  0  0  0  0  0
    0.0019   -0.5907   -0.8162 H   0  0  0  0  0  0  0  0  0  0  0  0
    0.0020   -0.5904    0.8165 H   0  0  0  0  0  0  0  0  0  0  0  0
   -1.2394    0.8175    0.0000 N   0  0  0  0  0  4  0  0  0  0  0  0
   -1.9106    0.4051    0.6154 H   0  0  0  0  0  0  0  0  0  0  0  0
   -1.0276    1.7447    0.3104 H   0  0  0  0  0  0  0  0  0  0  0  0
   -1.6147    0.8540   -0.9266 H   0  0  0  0  0  0  0  0  0  0  0  0
   -2.8591   -3.8550   -2.2106 C   0  0  0  0  0  0  0  0  0  0  0  0
   -3.8468   -4.0642   -2.3845 H   0  0  0  0  0  0  0  0  0  0  0  0
   -2.6021   -4.4027   -1.3837 H   0  0  0  0  0  0  0  0  0  0  0  0
   -2.2770   -4.2157   -3.0587 H   0  0  0  0  0  0  0  0  0  0  0  0
   -2.6261   -2.0847   -1.9007 S   0  0  0  0  0  0  0  0  0  0  0  0
   -0.9377   -1.8870   -2.4488 C   0  0  0  0  0  0  0  0  0  0  0  0
   -0.8151   -0.9747   -2.8460 H   0  0  0  0  0  0  0  0  0  0  0  0
   -0.3153   -1.9941   -1.6714 H   0  0  0  0  0  0  0  0  0  0  0  0
   -0.7228   -2.5790   -3.1406 H   0  0  0  0  0  0  0  0  0  0  0  0
  1  5  1  0
  5  8  1  0
  1  2  1  0
  1  3  1  0
  1  4  1  0
  5  6  1  0
  5  7  1  0
  8  9  1  0
  8 10  1  0
  8 11  1  0
 12 16  1  0
 16 17  1  0
 12 13  1  0
 12 14  1  0
 12 15  1  0
 17 18  1  0
 17 19  1  0
 17 20  1  0
M  CHG  1   8   1
M  END
>  <PDB_ID>  (96) 
pdb4jzb

>  <RESIDUE_NAME>  (96) 
LYS   MET

>  <FRAG_NAME>  (96) 
ETAM   MSM

>  <FRAG_ATOM_NUM>  (96) 
fragi: 11  fragj: 9

>  <atom.prop.CHAIN_ID>  (96) 
A A A A A A A A A A A Z Z Z Z Z Z Z Z Z

>  <atom.prop.IS_HEAVY_ATOM>  (96) 
1 0 0 0 1 0 0 1 0 0 0 1 0 0 0 1 1 0 0 0

>  <DIFUSE_FUNC_ATOM>  (96) 
n/a

>  <FINAL_SINGLE_POINT_ENERGY>  (96) 
0

>  <NONCOV_INTER_ENERGY_QM>  (96) 
0

>  <FF_Energy>  (96) 
8.74

>  <QM_Energy>  (96) 
-4.12

>  <source>  (96) 
ETAM_MSM

>  <Index>  (96) 
7059

$$$$
ETAM-pdb4kc7-B-LYS-55:MSM-pdb4kc7-B-MET-41
     RDKit          3D

 20 18  0  0  0  0  0  0  0  0999 V2000
    1.2729    0.8520   -0.0000 C   0  0  0  0  0  0  0  0  0  0  0  0
    2.0521    0.2509    0.0558 H   0  0  0  0  0  0  0  0  0  0  0  0
    1.2323    1.4743    0.7635 H   0  0  0  0  0  0  0  0  0  0  0  0
    1.3291    1.4245   -0.9258 H   0  0  0  0  0  0  0  0  0  0  0  0
    0.0000    0.0000    0.0000 C   0  0  0  0  0  0  0  0  0  0  0  0
    0.0105   -0.5963   -0.8165 H   0  0  0  0  0  0  0  0  0  0  0  0
    0.0108   -0.5965    0.8160 H   0  0  0  0  0  0  0  0  0  0  0  0
   -1.2729    0.7965    0.0000 N   0  0  0  0  0  4  0  0  0  0  0  0
   -1.9455    0.3338    0.5727 H   0  0  0  0  0  0  0  0  0  0  0  0
   -1.0867    1.7072    0.3628 H   0  0  0  0  0  0  0  0  0  0  0  0
   -1.6125    0.8660   -0.9351 H   0  0  0  0  0  0  0  0  0  0  0  0
   -2.6874    3.7707   -2.4764 C   0  0  0  0  0  0  0  0  0  0  0  0
   -2.6187    4.3068   -1.6117 H   0  0  0  0  0  0  0  0  0  0  0  0
   -3.6178    3.3524   -2.4822 H   0  0  0  0  0  0  0  0  0  0  0  0
   -2.5981    4.4513   -3.3231 H   0  0  0  0  0  0  0  0  0  0  0  0
   -1.4146    2.4799   -2.5225 S   0  0  0  0  0  0  0  0  0  0  0  0
   -1.8071    1.7059   -4.0936 C   0  0  0  0  0  0  0  0  0  0  0  0
   -1.1319    1.9813   -4.7793 H   0  0  0  0  0  0  0  0  0  0  0  0
   -1.7893    0.7117   -3.9896 H   0  0  0  0  0  0  0  0  0  0  0  0
   -2.7188    1.9936   -4.3888 H   0  0  0  0  0  0  0  0  0  0  0  0
  1  5  1  0
  5  8  1  0
  1  2  1  0
  1  3  1  0
  1  4  1  0
  5  6  1  0
  5  7  1  0
  8  9  1  0
  8 10  1  0
  8 11  1  0
 12 16  1  0
 16 17  1  0
 12 13  1  0
 12 14  1  0
 12 15  1  0
 17 18  1  0
 17 19  1  0
 17 20  1  0
M  CHG  1   8   1
M  END
>  <PDB_ID>  (97) 
pdb4kc7

>  <RESIDUE_NAME>  (97) 
LYS   MET

>  <FRAG_NAME>  (97) 
ETAM   MSM

>  <FRAG_ATOM_NUM>  (97) 
fragi: 11  fragj: 9

>  <atom.prop.CHAIN_ID>  (97) 
A A A A A A A A A A A Z Z Z Z Z Z Z Z Z

>  <atom.prop.IS_HEAVY_ATOM>  (97) 
1 0 0 0 1 0 0 1 0 0 0 1 0 0 0 1 1 0 0 0

>  <DIFUSE_FUNC_ATOM>  (97) 
n/a

>  <FINAL_SINGLE_POINT_ENERGY>  (97) 
0

>  <NONCOV_INTER_ENERGY_QM>  (97) 
0

>  <FF_Energy>  (97) 
-4.27

>  <QM_Energy>  (97) 
-14.79

>  <source>  (97) 
ETAM_MSM

>  <Index>  (97) 
7132

$$$$
ETAM-pdb3ol3-B-LYS-37:MSM-pdb3ol3-A-MET-9
     RDKit          3D

 20 18  0  0  0  0  0  0  0  0999 V2000
    1.2321    0.8767   -0.0000 C   0  0  0  0  0  0  0  0  0  0  0  0
    1.2142    1.4537    0.8173 H   0  0  0  0  0  0  0  0  0  0  0  0
    1.2136    1.4545   -0.8159 H   0  0  0  0  0  0  0  0  0  0  0  0
    2.1566    0.2992    0.0008 H   0  0  0  0  0  0  0  0  0  0  0  0
    0.0000    0.0000    0.0000 C   0  0  0  0  0  0  0  0  0  0  0  0
    0.0086   -0.5777   -0.8165 H   0  0  0  0  0  0  0  0  0  0  0  0
    0.0079   -0.5787    0.8161 H   0  0  0  0  0  0  0  0  0  0  0  0
   -1.2321    0.8272    0.0000 N   0  0  0  0  0  4  0  0  0  0  0  0
   -2.0236    0.2465    0.1932 H   0  0  0  0  0  0  0  0  0  0  0  0
   -1.1585    1.5354    0.7031 H   0  0  0  0  0  0  0  0  0  0  0  0
   -1.3452    1.2575   -0.8957 H   0  0  0  0  0  0  0  0  0  0  0  0
   -3.6114    1.5145    2.4202 C   0  0  0  0  0  0  0  0  0  0  0  0
   -3.5470    2.3678    2.9858 H   0  0  0  0  0  0  0  0  0  0  0  0
   -4.5040    1.0812    2.6808 H   0  0  0  0  0  0  0  0  0  0  0  0
   -3.6514    1.7948    1.3676 H   0  0  0  0  0  0  0  0  0  0  0  0
   -2.2326    0.3984    2.8012 S   0  0  0  0  0  0  0  0  0  0  0  0
   -0.9025    1.5989    2.8047 C   0  0  0  0  0  0  0  0  0  0  0  0
   -0.1897    1.3073    3.4441 H   0  0  0  0  0  0  0  0  0  0  0  0
   -0.5140    1.6722    1.8855 H   0  0  0  0  0  0  0  0  0  0  0  0
   -1.2564    2.4915    3.0871 H   0  0  0  0  0  0  0  0  0  0  0  0
  1  5  1  0
  5  8  1  0
  1  2  1  0
  1  3  1  0
  1  4  1  0
  5  6  1  0
  5  7  1  0
  8  9  1  0
  8 10  1  0
  8 11  1  0
 12 16  1  0
 16 17  1  0
 12 13  1  0
 12 14  1  0
 12 15  1  0
 17 18  1  0
 17 19  1  0
 17 20  1  0
M  CHG  1   8   1
M  END
>  <PDB_ID>  (98) 
pdb3ol3

>  <RESIDUE_NAME>  (98) 
LYS   MET

>  <FRAG_NAME>  (98) 
ETAM   MSM

>  <FRAG_ATOM_NUM>  (98) 
fragi: 11  fragj: 9

>  <atom.prop.CHAIN_ID>  (98) 
A A A A A A A A A A A Z Z Z Z Z Z Z Z Z

>  <atom.prop.IS_HEAVY_ATOM>  (98) 
1 0 0 0 1 0 0 1 0 0 0 1 0 0 0 1 1 0 0 0

>  <DIFUSE_FUNC_ATOM>  (98) 
n/a

>  <FINAL_SINGLE_POINT_ENERGY>  (98) 
0

>  <NONCOV_INTER_ENERGY_QM>  (98) 
0

>  <FF_Energy>  (98) 
9.31

>  <QM_Energy>  (98) 
-1.96

>  <source>  (98) 
ETAM_MSM

>  <Index>  (98) 
7378

$$$$
ETAM-pdb4mge-B-LYS-99:MSM-pdb4mge-B-MET-1
     RDKit          3D

 20 18  0  0  0  0  0  0  0  0999 V2000
    1.2425    0.8767    0.0000 C   0  0  0  0  0  0  0  0  0  0  0  0
    2.0455    0.2886    0.0627 H   0  0  0  0  0  0  0  0  0  0  0  0
    1.2030    1.4832    0.7901 H   0  0  0  0  0  0  0  0  0  0  0  0
    1.3188    1.4807   -0.9041 H   0  0  0  0  0  0  0  0  0  0  0  0
    0.0000    0.0000    0.0000 C   0  0  0  0  0  0  0  0  0  0  0  0
    0.0125   -0.5809   -0.8166 H   0  0  0  0  0  0  0  0  0  0  0  0
    0.0118   -0.5816    0.8162 H   0  0  0  0  0  0  0  0  0  0  0  0
   -1.2425    0.8180    0.0000 N   0  0  0  0  0  4  0  0  0  0  0  0
   -1.0322    1.7415   -0.3195 H   0  0  0  0  0  0  0  0  0  0  0  0
   -1.9158    0.3987   -0.6084 H   0  0  0  0  0  0  0  0  0  0  0  0
   -1.6115    0.8606    0.9280 H   0  0  0  0  0  0  0  0  0  0  0  0
    4.3419   -2.4685    0.6699 C   0  0  0  0  0  0  0  0  0  0  0  0
    4.8438   -2.0530    1.4614 H   0  0  0  0  0  0  0  0  0  0  0  0
    5.0330   -3.0483    0.1807 H   0  0  0  0  0  0  0  0  0  0  0  0
    3.5607   -3.1200    1.0616 H   0  0  0  0  0  0  0  0  0  0  0  0
    3.6978   -1.1840   -0.4225 S   0  0  0  0  0  0  0  0  0  0  0  0
    5.1820   -0.2080   -0.6772 C   0  0  0  0  0  0  0  0  0  0  0  0
    4.9528    0.7650   -0.6379 H   0  0  0  0  0  0  0  0  0  0  0  0
    5.8495   -0.4223    0.0372 H   0  0  0  0  0  0  0  0  0  0  0  0
    5.5726   -0.4215   -1.5728 H   0  0  0  0  0  0  0  0  0  0  0  0
  1  5  1  0
  5  8  1  0
  1  2  1  0
  1  3  1  0
  1  4  1  0
  5  6  1  0
  5  7  1  0
  8  9  1  0
  8 10  1  0
  8 11  1  0
 12 16  1  0
 16 17  1  0
 12 13  1  0
 12 14  1  0
 12 15  1  0
 17 18  1  0
 17 19  1  0
 17 20  1  0
M  CHG  1   8   1
M  END
>  <PDB_ID>  (99) 
pdb4mge

>  <RESIDUE_NAME>  (99) 
LYS   MET

>  <FRAG_NAME>  (99) 
ETAM   MSM

>  <FRAG_ATOM_NUM>  (99) 
fragi: 11  fragj: 9

>  <atom.prop.CHAIN_ID>  (99) 
A A A A A A A A A A A Z Z Z Z Z Z Z Z Z

>  <atom.prop.IS_HEAVY_ATOM>  (99) 
1 0 0 0 1 0 0 1 0 0 0 1 0 0 0 1 1 0 0 0

>  <DIFUSE_FUNC_ATOM>  (99) 
n/a

>  <FINAL_SINGLE_POINT_ENERGY>  (99) 
0

>  <NONCOV_INTER_ENERGY_QM>  (99) 
0

>  <FF_Energy>  (99) 
6.4

>  <QM_Energy>  (99) 
-3.84

>  <source>  (99) 
ETAM_MSM

>  <Index>  (99) 
7402

$$$$
ETAM-pdb3pqd-F-LYS-228:MSM-pdb3pqd-G-MET-44
     RDKit          3D

 20 18  0  0  0  0  0  0  0  0999 V2000
    1.2656    0.8512   -0.0000 C   0  0  0  0  0  0  0  0  0  0  0  0
    1.0752    1.6960   -0.4895 H   0  0  0  0  0  0  0  0  0  0  0  0
    1.9867    0.3415   -0.4574 H   0  0  0  0  0  0  0  0  0  0  0  0
    1.5856    1.0913    1.0140 H   0  0  0  0  0  0  0  0  0  0  0  0
    0.0000    0.0000    0.0000 C   0  0  0  0  0  0  0  0  0  0  0  0
    0.0177   -0.6032   -0.8165 H   0  0  0  0  0  0  0  0  0  0  0  0
    0.0178   -0.6030    0.8167 H   0  0  0  0  0  0  0  0  0  0  0  0
   -1.2656    0.7779    0.0000 N   0  0  0  0  0  4  0  0  0  0  0  0
   -1.9774    0.2551    0.4685 H   0  0  0  0  0  0  0  0  0  0  0  0
   -1.1223    1.6462    0.4744 H   0  0  0  0  0  0  0  0  0  0  0  0
   -1.5478    0.9552   -0.9428 H   0  0  0  0  0  0  0  0  0  0  0  0
    0.1976   -2.0624   -2.9977 C   0  0  0  0  0  0  0  0  0  0  0  0
    0.4411   -1.0773   -3.1437 H   0  0  0  0  0  0  0  0  0  0  0  0
   -0.0029   -2.4364   -3.9317 H   0  0  0  0  0  0  0  0  0  0  0  0
    1.0730   -2.5773   -2.6017 H   0  0  0  0  0  0  0  0  0  0  0  0
   -1.2606   -2.2068   -1.9259 S   0  0  0  0  0  0  0  0  0  0  0  0
   -1.0906   -3.9005   -1.3785 C   0  0  0  0  0  0  0  0  0  0  0  0
   -1.9286   -4.1908   -0.9130 H   0  0  0  0  0  0  0  0  0  0  0  0
   -0.9282   -4.4958   -2.1676 H   0  0  0  0  0  0  0  0  0  0  0  0
   -0.3179   -3.9741   -0.7447 H   0  0  0  0  0  0  0  0  0  0  0  0
  1  5  1  0
  5  8  1  0
  1  2  1  0
  1  3  1  0
  1  4  1  0
  5  6  1  0
  5  7  1  0
  8  9  1  0
  8 10  1  0
  8 11  1  0
 12 16  1  0
 16 17  1  0
 12 13  1  0
 12 14  1  0
 12 15  1  0
 17 18  1  0
 17 19  1  0
 17 20  1  0
M  CHG  1   8   1
M  END
>  <PDB_ID>  (100) 
pdb3pqd

>  <RESIDUE_NAME>  (100) 
LYS   MET

>  <FRAG_NAME>  (100) 
ETAM   MSM

>  <FRAG_ATOM_NUM>  (100) 
fragi: 11  fragj: 9

>  <atom.prop.CHAIN_ID>  (100) 
A A A A A A A A A A A Z Z Z Z Z Z Z Z Z

>  <atom.prop.IS_HEAVY_ATOM>  (100) 
1 0 0 0 1 0 0 1 0 0 0 1 0 0 0 1 1 0 0 0

>  <DIFUSE_FUNC_ATOM>  (100) 
n/a

>  <FINAL_SINGLE_POINT_ENERGY>  (100) 
0

>  <NONCOV_INTER_ENERGY_QM>  (100) 
0

>  <FF_Energy>  (100) 
3.36

>  <QM_Energy>  (100) 
-7.23

>  <source>  (100) 
ETAM_MSM

>  <Index>  (100) 
7630

$$$$
ETAM-pdb4o6x-A-LYS-53:MSM-pdb4o6x-A-MET-8
     RDKit          3D

 20 18  0  0  0  0  0  0  0  0999 V2000
    1.2294    0.8793    0.0000 C   0  0  0  0  0  0  0  0  0  0  0  0
    1.0589    1.6667    0.5947 H   0  0  0  0  0  0  0  0  0  0  0  0
    1.3912    1.2019   -0.9346 H   0  0  0  0  0  0  0  0  0  0  0  0
    2.1200    0.3591    0.3526 H   0  0  0  0  0  0  0  0  0  0  0  0
    0.0000    0.0000    0.0000 C   0  0  0  0  0  0  0  0  0  0  0  0
    0.0009   -0.5694   -0.8166 H   0  0  0  0  0  0  0  0  0  0  0  0
    0.0008   -0.5700    0.8159 H   0  0  0  0  0  0  0  0  0  0  0  0
   -1.2294    0.8506    0.0000 N   0  0  0  0  0  4  0  0  0  0  0  0
   -1.0860    1.6345   -0.6018 H   0  0  0  0  0  0  0  0  0  0  0  0
   -2.0022    0.3100   -0.3282 H   0  0  0  0  0  0  0  0  0  0  0  0
   -1.4093    1.1677    0.9297 H   0  0  0  0  0  0  0  0  0  0  0  0
    0.5488   -1.2577   -5.3149 C   0  0  0  0  0  0  0  0  0  0  0  0
    1.3219   -1.0535   -5.9654 H   0  0  0  0  0  0  0  0  0  0  0  0
   -0.2906   -1.3029   -5.9117 H   0  0  0  0  0  0  0  0  0  0  0  0
    0.7165   -2.2464   -4.8879 H   0  0  0  0  0  0  0  0  0  0  0  0
    0.3847    0.0672   -4.0841 S   0  0  0  0  0  0  0  0  0  0  0  0
    1.6822   -0.3947   -2.9688 C   0  0  0  0  0  0  0  0  0  0  0  0
    1.5404   -1.3340   -2.6445 H   0  0  0  0  0  0  0  0  0  0  0  0
    2.5716   -0.3436   -3.4329 H   0  0  0  0  0  0  0  0  0  0  0  0
    1.6933    0.2232   -2.1777 H   0  0  0  0  0  0  0  0  0  0  0  0
  1  5  1  0
  5  8  1  0
  1  2  1  0
  1  3  1  0
  1  4  1  0
  5  6  1  0
  5  7  1  0
  8  9  1  0
  8 10  1  0
  8 11  1  0
 12 16  1  0
 16 17  1  0
 12 13  1  0
 12 14  1  0
 12 15  1  0
 17 18  1  0
 17 19  1  0
 17 20  1  0
M  CHG  1   8   1
M  END
>  <PDB_ID>  (101) 
pdb4o6x

>  <RESIDUE_NAME>  (101) 
LYS   MET

>  <FRAG_NAME>  (101) 
ETAM   MSM

>  <FRAG_ATOM_NUM>  (101) 
fragi: 11  fragj: 9

>  <atom.prop.CHAIN_ID>  (101) 
A A A A A A A A A A A Z Z Z Z Z Z Z Z Z

>  <atom.prop.IS_HEAVY_ATOM>  (101) 
1 0 0 0 1 0 0 1 0 0 0 1 0 0 0 1 1 0 0 0

>  <DIFUSE_FUNC_ATOM>  (101) 
n/a

>  <FINAL_SINGLE_POINT_ENERGY>  (101) 
0

>  <NONCOV_INTER_ENERGY_QM>  (101) 
0

>  <FF_Energy>  (101) 
11.59

>  <QM_Energy>  (101) 
-1.58

>  <source>  (101) 
ETAM_MSM

>  <Index>  (101) 
7734

$$$$
ETAM-pdb4omb-D-LYS-303:MSM-pdb4omb-D-MET-57
     RDKit          3D

 20 18  0  0  0  0  0  0  0  0999 V2000
    1.2457    0.8686   -0.0000 C   0  0  0  0  0  0  0  0  0  0  0  0
    2.0450    0.2887    0.0646 H   0  0  0  0  0  0  0  0  0  0  0  0
    1.2001    1.5004    0.7600 H   0  0  0  0  0  0  0  0  0  0  0  0
    1.3166    1.4464   -0.9216 H   0  0  0  0  0  0  0  0  0  0  0  0
    0.0000    0.0000    0.0000 C   0  0  0  0  0  0  0  0  0  0  0  0
    0.0099   -0.5838   -0.8158 H   0  0  0  0  0  0  0  0  0  0  0  0
    0.0095   -0.5841    0.8168 H   0  0  0  0  0  0  0  0  0  0  0  0
   -1.2457    0.8170    0.0000 N   0  0  0  0  0  4  0  0  0  0  0  0
   -1.8359    0.5199   -0.7496 H   0  0  0  0  0  0  0  0  0  0  0  0
   -1.7205    0.6957    0.8703 H   0  0  0  0  0  0  0  0  0  0  0  0
   -1.0095    1.7803   -0.1208 H   0  0  0  0  0  0  0  0  0  0  0  0
   -3.0811    2.4435    3.6428 C   0  0  0  0  0  0  0  0  0  0  0  0
   -3.4023    1.6405    4.2076 H   0  0  0  0  0  0  0  0  0  0  0  0
   -3.9356    2.7839    3.1725 H   0  0  0  0  0  0  0  0  0  0  0  0
   -2.7248    3.2212    4.3182 H   0  0  0  0  0  0  0  0  0  0  0  0
   -1.8608    1.8804    2.3926 S   0  0  0  0  0  0  0  0  0  0  0  0
   -1.1731    0.4201    3.1981 C   0  0  0  0  0  0  0  0  0  0  0  0
   -1.9140   -0.2109    3.4240 H   0  0  0  0  0  0  0  0  0  0  0  0
   -0.5288   -0.0258    2.5779 H   0  0  0  0  0  0  0  0  0  0  0  0
   -0.7004    0.6971    4.0333 H   0  0  0  0  0  0  0  0  0  0  0  0
  1  5  1  0
  5  8  1  0
  1  2  1  0
  1  3  1  0
  1  4  1  0
  5  6  1  0
  5  7  1  0
  8  9  1  0
  8 10  1  0
  8 11  1  0
 12 16  1  0
 16 17  1  0
 12 13  1  0
 12 14  1  0
 12 15  1  0
 17 18  1  0
 17 19  1  0
 17 20  1  0
M  CHG  1   8   1
M  END
>  <PDB_ID>  (102) 
pdb4omb

>  <RESIDUE_NAME>  (102) 
LYS   MET

>  <FRAG_NAME>  (102) 
ETAM   MSM

>  <FRAG_ATOM_NUM>  (102) 
fragi: 11  fragj: 9

>  <atom.prop.CHAIN_ID>  (102) 
A A A A A A A A A A A Z Z Z Z Z Z Z Z Z

>  <atom.prop.IS_HEAVY_ATOM>  (102) 
1 0 0 0 1 0 0 1 0 0 0 1 0 0 0 1 1 0 0 0

>  <DIFUSE_FUNC_ATOM>  (102) 
n/a

>  <FINAL_SINGLE_POINT_ENERGY>  (102) 
0

>  <NONCOV_INTER_ENERGY_QM>  (102) 
0

>  <FF_Energy>  (102) 
11.65

>  <QM_Energy>  (102) 
-4.35

>  <source>  (102) 
ETAM_MSM

>  <Index>  (102) 
7825

$$$$
ETAM-pdb4omb-C-LYS-303:MSM-pdb4omb-C-MET-57
     RDKit          3D

 20 18  0  0  0  0  0  0  0  0999 V2000
    1.2433    0.8629    0.0000 C   0  0  0  0  0  0  0  0  0  0  0  0
    2.0435    0.2816    0.0535 H   0  0  0  0  0  0  0  0  0  0  0  0
    1.2054    1.4887    0.7670 H   0  0  0  0  0  0  0  0  0  0  0  0
    1.3075    1.4484   -0.9172 H   0  0  0  0  0  0  0  0  0  0  0  0
    0.0000    0.0000    0.0000 C   0  0  0  0  0  0  0  0  0  0  0  0
    0.0081   -0.5864   -0.8166 H   0  0  0  0  0  0  0  0  0  0  0  0
    0.0084   -0.5865    0.8162 H   0  0  0  0  0  0  0  0  0  0  0  0
   -1.2433    0.8145   -0.0000 N   0  0  0  0  0  4  0  0  0  0  0  0
   -1.3712    1.2266   -0.9028 H   0  0  0  0  0  0  0  0  0  0  0  0
   -2.0248    0.2287    0.2133 H   0  0  0  0  0  0  0  0  0  0  0  0
   -1.1685    1.5354    0.6889 H   0  0  0  0  0  0  0  0  0  0  0  0
   -3.0055    2.5348    3.6456 C   0  0  0  0  0  0  0  0  0  0  0  0
   -3.3333    1.7361    4.2177 H   0  0  0  0  0  0  0  0  0  0  0  0
   -3.8703    2.9031    3.2101 H   0  0  0  0  0  0  0  0  0  0  0  0
   -2.6119    3.2962    4.3190 H   0  0  0  0  0  0  0  0  0  0  0  0
   -1.8488    1.9552    2.3576 S   0  0  0  0  0  0  0  0  0  0  0  0
   -1.1366    0.4780    3.1815 C   0  0  0  0  0  0  0  0  0  0  0  0
   -0.1791    0.4076    2.9256 H   0  0  0  0  0  0  0  0  0  0  0  0
   -1.2273    0.5930    4.1648 H   0  0  0  0  0  0  0  0  0  0  0  0
   -1.6385   -0.3238    2.8771 H   0  0  0  0  0  0  0  0  0  0  0  0
  1  5  1  0
  5  8  1  0
  1  2  1  0
  1  3  1  0
  1  4  1  0
  5  6  1  0
  5  7  1  0
  8  9  1  0
  8 10  1  0
  8 11  1  0
 12 16  1  0
 16 17  1  0
 12 13  1  0
 12 14  1  0
 12 15  1  0
 17 18  1  0
 17 19  1  0
 17 20  1  0
M  CHG  1   8   1
M  END
>  <PDB_ID>  (103) 
pdb4omb

>  <RESIDUE_NAME>  (103) 
LYS   MET

>  <FRAG_NAME>  (103) 
ETAM   MSM

>  <FRAG_ATOM_NUM>  (103) 
fragi: 11  fragj: 9

>  <atom.prop.CHAIN_ID>  (103) 
A A A A A A A A A A A Z Z Z Z Z Z Z Z Z

>  <atom.prop.IS_HEAVY_ATOM>  (103) 
1 0 0 0 1 0 0 1 0 0 0 1 0 0 0 1 1 0 0 0

>  <DIFUSE_FUNC_ATOM>  (103) 
n/a

>  <FINAL_SINGLE_POINT_ENERGY>  (103) 
0

>  <NONCOV_INTER_ENERGY_QM>  (103) 
0

>  <FF_Energy>  (103) 
10.48

>  <QM_Energy>  (103) 
-3.0

>  <source>  (103) 
ETAM_MSM

>  <Index>  (103) 
7892

$$$$
ETAM-pdb4pfz-B-LYS-80:MSM-pdb4pfz-B-MET-235
     RDKit          3D

 20 18  0  0  0  0  0  0  0  0999 V2000
    1.2367    0.8869   -0.0000 C   0  0  0  0  0  0  0  0  0  0  0  0
    1.2058    1.4764    0.8036 H   0  0  0  0  0  0  0  0  0  0  0  0
    1.2309    1.4413   -0.8289 H   0  0  0  0  0  0  0  0  0  0  0  0
    2.1594    0.3072    0.0274 H   0  0  0  0  0  0  0  0  0  0  0  0
    0.0000    0.0000    0.0000 C   0  0  0  0  0  0  0  0  0  0  0  0
    0.0186   -0.5789   -0.8159 H   0  0  0  0  0  0  0  0  0  0  0  0
    0.0181   -0.5790    0.8166 H   0  0  0  0  0  0  0  0  0  0  0  0
   -1.2367    0.8132    0.0000 N   0  0  0  0  0  4  0  0  0  0  0  0
   -1.8818    0.4440    0.6708 H   0  0  0  0  0  0  0  0  0  0  0  0
   -1.0160    1.7599    0.2381 H   0  0  0  0  0  0  0  0  0  0  0  0
   -1.6542    0.7895   -0.9093 H   0  0  0  0  0  0  0  0  0  0  0  0
   -3.0720    2.1953    2.2298 C   0  0  0  0  0  0  0  0  0  0  0  0
   -3.4021    2.4467    3.1534 H   0  0  0  0  0  0  0  0  0  0  0  0
   -2.9630    1.1888    2.2105 H   0  0  0  0  0  0  0  0  0  0  0  0
   -3.8294    2.4794    1.4993 H   0  0  0  0  0  0  0  0  0  0  0  0
   -1.5097    3.0192    1.8580 S   0  0  0  0  0  0  0  0  0  0  0  0
   -1.8601    4.6846    2.3877 C   0  0  0  0  0  0  0  0  0  0  0  0
   -1.3641    5.3371    1.8097 H   0  0  0  0  0  0  0  0  0  0  0  0
   -2.8434    4.8646    2.3158 H   0  0  0  0  0  0  0  0  0  0  0  0
   -1.5733    4.8054    3.3408 H   0  0  0  0  0  0  0  0  0  0  0  0
  1  5  1  0
  5  8  1  0
  1  2  1  0
  1  3  1  0
  1  4  1  0
  5  6  1  0
  5  7  1  0
  8  9  1  0
  8 10  1  0
  8 11  1  0
 12 16  1  0
 16 17  1  0
 12 13  1  0
 12 14  1  0
 12 15  1  0
 17 18  1  0
 17 19  1  0
 17 20  1  0
M  CHG  1   8   1
M  END
>  <PDB_ID>  (104) 
pdb4pfz

>  <RESIDUE_NAME>  (104) 
LYS   MET

>  <FRAG_NAME>  (104) 
ETAM   MSM

>  <FRAG_ATOM_NUM>  (104) 
fragi: 11  fragj: 9

>  <atom.prop.CHAIN_ID>  (104) 
A A A A A A A A A A A Z Z Z Z Z Z Z Z Z

>  <atom.prop.IS_HEAVY_ATOM>  (104) 
1 0 0 0 1 0 0 1 0 0 0 1 0 0 0 1 1 0 0 0

>  <DIFUSE_FUNC_ATOM>  (104) 
n/a

>  <FINAL_SINGLE_POINT_ENERGY>  (104) 
0

>  <NONCOV_INTER_ENERGY_QM>  (104) 
0

>  <FF_Energy>  (104) 
-0.35

>  <QM_Energy>  (104) 
-11.15

>  <source>  (104) 
ETAM_MSM

>  <Index>  (104) 
7984

$$$$
ETAM-pdb3rnm-C-LYS-92:MSM-pdb3rnm-C-MET-89
     RDKit          3D

 20 18  0  0  0  0  0  0  0  0999 V2000
    1.2530    0.8616   -0.0000 C   0  0  0  0  0  0  0  0  0  0  0  0
    1.0951    1.6472    0.5897 H   0  0  0  0  0  0  0  0  0  0  0  0
    1.4295    1.1598   -0.9323 H   0  0  0  0  0  0  0  0  0  0  0  0
    2.1157    0.3064    0.3682 H   0  0  0  0  0  0  0  0  0  0  0  0
    0.0000    0.0000    0.0000 C   0  0  0  0  0  0  0  0  0  0  0  0
    0.0065   -0.5867   -0.8159 H   0  0  0  0  0  0  0  0  0  0  0  0
    0.0060   -0.5859    0.8164 H   0  0  0  0  0  0  0  0  0  0  0  0
   -1.2530    0.8176    0.0000 N   0  0  0  0  0  4  0  0  0  0  0  0
   -1.9705    0.3178    0.4808 H   0  0  0  0  0  0  0  0  0  0  0  0
   -1.0776    1.6851    0.4623 H   0  0  0  0  0  0  0  0  0  0  0  0
   -1.5331    0.9879   -0.9428 H   0  0  0  0  0  0  0  0  0  0  0  0
   -1.5291   -0.7271   -4.5126 C   0  0  0  0  0  0  0  0  0  0  0  0
   -0.9919   -0.7286   -5.3809 H   0  0  0  0  0  0  0  0  0  0  0  0
   -2.5104   -0.6551   -4.7854 H   0  0  0  0  0  0  0  0  0  0  0  0
   -1.3799   -1.6858   -4.0160 H   0  0  0  0  0  0  0  0  0  0  0  0
   -1.0501    0.6631   -3.4621 S   0  0  0  0  0  0  0  0  0  0  0  0
   -1.4142    2.0685   -4.5060 C   0  0  0  0  0  0  0  0  0  0  0  0
   -1.7337    2.8331   -3.9433 H   0  0  0  0  0  0  0  0  0  0  0  0
   -0.5877    2.3445   -5.0000 H   0  0  0  0  0  0  0  0  0  0  0  0
   -2.1275    1.8232   -5.1657 H   0  0  0  0  0  0  0  0  0  0  0  0
  1  5  1  0
  5  8  1  0
  1  2  1  0
  1  3  1  0
  1  4  1  0
  5  6  1  0
  5  7  1  0
  8  9  1  0
  8 10  1  0
  8 11  1  0
 12 16  1  0
 16 17  1  0
 12 13  1  0
 12 14  1  0
 12 15  1  0
 17 18  1  0
 17 19  1  0
 17 20  1  0
M  CHG  1   8   1
M  END
>  <PDB_ID>  (105) 
pdb3rnm

>  <RESIDUE_NAME>  (105) 
LYS   MET

>  <FRAG_NAME>  (105) 
ETAM   MSM

>  <FRAG_ATOM_NUM>  (105) 
fragi: 11  fragj: 9

>  <atom.prop.CHAIN_ID>  (105) 
A A A A A A A A A A A Z Z Z Z Z Z Z Z Z

>  <atom.prop.IS_HEAVY_ATOM>  (105) 
1 0 0 0 1 0 0 1 0 0 0 1 0 0 0 1 1 0 0 0

>  <DIFUSE_FUNC_ATOM>  (105) 
n/a

>  <FINAL_SINGLE_POINT_ENERGY>  (105) 
0

>  <NONCOV_INTER_ENERGY_QM>  (105) 
0

>  <FF_Energy>  (105) 
-5.94

>  <QM_Energy>  (105) 
-16.25

>  <source>  (105) 
ETAM_MSM

>  <Index>  (105) 
8109

$$$$
ETAM-pdb4rk2-B-LYS-36:MSM-pdb4rk2-B-MET-67
     RDKit          3D

 20 18  0  0  0  0  0  0  0  0999 V2000
    1.2203    0.8881   -0.0000 C   0  0  0  0  0  0  0  0  0  0  0  0
    1.1920    1.4704    0.8020 H   0  0  0  0  0  0  0  0  0  0  0  0
    1.2204    1.4306   -0.8302 H   0  0  0  0  0  0  0  0  0  0  0  0
    2.1259    0.2823    0.0315 H   0  0  0  0  0  0  0  0  0  0  0  0
    0.0000    0.0000    0.0000 C   0  0  0  0  0  0  0  0  0  0  0  0
    0.0121   -0.5733   -0.8167 H   0  0  0  0  0  0  0  0  0  0  0  0
    0.0125   -0.5732    0.8162 H   0  0  0  0  0  0  0  0  0  0  0  0
   -1.2203    0.8308    0.0000 N   0  0  0  0  0  4  0  0  0  0  0  0
   -1.0289    1.7113    0.4374 H   0  0  0  0  0  0  0  0  0  0  0  0
   -1.5212    0.9880   -0.9423 H   0  0  0  0  0  0  0  0  0  0  0  0
   -1.9472    0.3621    0.5052 H   0  0  0  0  0  0  0  0  0  0  0  0
   -2.2204    3.2770   -1.9305 C   0  0  0  0  0  0  0  0  0  0  0  0
   -2.7612    4.0327   -2.3588 H   0  0  0  0  0  0  0  0  0  0  0  0
   -2.6429    2.4068   -2.2647 H   0  0  0  0  0  0  0  0  0  0  0  0
   -1.2005    3.3299   -2.3114 H   0  0  0  0  0  0  0  0  0  0  0  0
   -2.3082    3.3753   -0.1145 S   0  0  0  0  0  0  0  0  0  0  0  0
   -1.6958    5.0257    0.1145 C   0  0  0  0  0  0  0  0  0  0  0  0
   -1.4118    5.1578    1.0684 H   0  0  0  0  0  0  0  0  0  0  0  0
   -0.9070    5.1861   -0.4847 H   0  0  0  0  0  0  0  0  0  0  0  0
   -2.4133    5.6925   -0.1063 H   0  0  0  0  0  0  0  0  0  0  0  0
  1  5  1  0
  5  8  1  0
  1  2  1  0
  1  3  1  0
  1  4  1  0
  5  6  1  0
  5  7  1  0
  8  9  1  0
  8 10  1  0
  8 11  1  0
 12 16  1  0
 16 17  1  0
 12 13  1  0
 12 14  1  0
 12 15  1  0
 17 18  1  0
 17 19  1  0
 17 20  1  0
M  CHG  1   8   1
M  END
>  <PDB_ID>  (106) 
pdb4rk2

>  <RESIDUE_NAME>  (106) 
LYS   MET

>  <FRAG_NAME>  (106) 
ETAM   MSM

>  <FRAG_ATOM_NUM>  (106) 
fragi: 11  fragj: 9

>  <atom.prop.CHAIN_ID>  (106) 
A A A A A A A A A A A Z Z Z Z Z Z Z Z Z

>  <atom.prop.IS_HEAVY_ATOM>  (106) 
1 0 0 0 1 0 0 1 0 0 0 1 0 0 0 1 1 0 0 0

>  <DIFUSE_FUNC_ATOM>  (106) 
n/a

>  <FINAL_SINGLE_POINT_ENERGY>  (106) 
0

>  <NONCOV_INTER_ENERGY_QM>  (106) 
0

>  <FF_Energy>  (106) 
4.15

>  <QM_Energy>  (106) 
-8.35

>  <source>  (106) 
ETAM_MSM

>  <Index>  (106) 
8364

$$$$
ETAM-pdb4ruh-A-LYS-302:MSM-pdb4ruh-A-MET-306
     RDKit          3D

 20 18  0  0  0  0  0  0  0  0999 V2000
    1.2426    0.8744    0.0000 C   0  0  0  0  0  0  0  0  0  0  0  0
    0.9923    1.7790   -0.3271 H   0  0  0  0  0  0  0  0  0  0  0  0
    1.9186    0.4618   -0.5992 H   0  0  0  0  0  0  0  0  0  0  0  0
    1.6589    0.9607    1.0037 H   0  0  0  0  0  0  0  0  0  0  0  0
    0.0000    0.0000    0.0000 C   0  0  0  0  0  0  0  0  0  0  0  0
    0.0071   -0.5782   -0.8162 H   0  0  0  0  0  0  0  0  0  0  0  0
    0.0066   -0.5780    0.8166 H   0  0  0  0  0  0  0  0  0  0  0  0
   -1.2426    0.8299   -0.0000 N   0  0  0  0  0  4  0  0  0  0  0  0
   -1.5778    0.9186    0.9364 H   0  0  0  0  0  0  0  0  0  0  0  0
   -1.0346    1.7333   -0.3706 H   0  0  0  0  0  0  0  0  0  0  0  0
   -1.9353    0.3847   -0.5655 H   0  0  0  0  0  0  0  0  0  0  0  0
   -1.5388    1.7145    3.8813 C   0  0  0  0  0  0  0  0  0  0  0  0
   -1.7747    2.6888    3.9987 H   0  0  0  0  0  0  0  0  0  0  0  0
   -0.5366    1.6462    3.7800 H   0  0  0  0  0  0  0  0  0  0  0  0
   -1.8495    1.1609    4.7673 H   0  0  0  0  0  0  0  0  0  0  0  0
   -2.3733    1.0277    2.4342 S   0  0  0  0  0  0  0  0  0  0  0  0
   -3.4755    2.3768    2.0280 C   0  0  0  0  0  0  0  0  0  0  0  0
   -4.4251    2.0616    2.0742 H   0  0  0  0  0  0  0  0  0  0  0  0
   -3.3434    3.1275    2.6782 H   0  0  0  0  0  0  0  0  0  0  0  0
   -3.2805    2.7041    1.1016 H   0  0  0  0  0  0  0  0  0  0  0  0
  1  5  1  0
  5  8  1  0
  1  2  1  0
  1  3  1  0
  1  4  1  0
  5  6  1  0
  5  7  1  0
  8  9  1  0
  8 10  1  0
  8 11  1  0
 12 16  1  0
 16 17  1  0
 12 13  1  0
 12 14  1  0
 12 15  1  0
 17 18  1  0
 17 19  1  0
 17 20  1  0
M  CHG  1   8   1
M  END
>  <PDB_ID>  (107) 
pdb4ruh

>  <RESIDUE_NAME>  (107) 
LYS   MET

>  <FRAG_NAME>  (107) 
ETAM   MSM

>  <FRAG_ATOM_NUM>  (107) 
fragi: 11  fragj: 9

>  <atom.prop.CHAIN_ID>  (107) 
A A A A A A A A A A A Z Z Z Z Z Z Z Z Z

>  <atom.prop.IS_HEAVY_ATOM>  (107) 
1 0 0 0 1 0 0 1 0 0 0 1 0 0 0 1 1 0 0 0

>  <DIFUSE_FUNC_ATOM>  (107) 
n/a

>  <FINAL_SINGLE_POINT_ENERGY>  (107) 
0

>  <NONCOV_INTER_ENERGY_QM>  (107) 
0

>  <FF_Energy>  (107) 
11.06

>  <QM_Energy>  (107) 
-5.25

>  <source>  (107) 
ETAM_MSM

>  <Index>  (107) 
8401

$$$$
ETAM-pdb4v0k-B-LYS-99:MSM-pdb4v0k-B-MET-136
     RDKit          3D

 20 18  0  0  0  0  0  0  0  0999 V2000
    1.2321    0.8764   -0.0000 C   0  0  0  0  0  0  0  0  0  0  0  0
    1.2154    1.4542    0.8164 H   0  0  0  0  0  0  0  0  0  0  0  0
    1.2143    1.4537   -0.8166 H   0  0  0  0  0  0  0  0  0  0  0  0
    2.1563    0.2984    0.0001 H   0  0  0  0  0  0  0  0  0  0  0  0
    0.0000    0.0000    0.0000 C   0  0  0  0  0  0  0  0  0  0  0  0
    0.0087   -0.5781   -0.8154 H   0  0  0  0  0  0  0  0  0  0  0  0
    0.0076   -0.5777    0.8166 H   0  0  0  0  0  0  0  0  0  0  0  0
   -1.2321    0.8289   -0.0000 N   0  0  0  0  0  4  0  0  0  0  0  0
   -1.0148    1.7484   -0.3268 H   0  0  0  0  0  0  0  0  0  0  0  0
   -1.9128    0.4125   -0.6030 H   0  0  0  0  0  0  0  0  0  0  0  0
   -1.5974    0.8822    0.9288 H   0  0  0  0  0  0  0  0  0  0  0  0
    0.5399   -2.6354   -1.5446 C   0  0  0  0  0  0  0  0  0  0  0  0
   -0.3077   -2.0843   -1.5630 H   0  0  0  0  0  0  0  0  0  0  0  0
    0.7404   -2.8557   -0.5771 H   0  0  0  0  0  0  0  0  0  0  0  0
    0.3788   -3.5601   -2.0987 H   0  0  0  0  0  0  0  0  0  0  0  0
    1.8981   -1.7425   -2.2902 S   0  0  0  0  0  0  0  0  0  0  0  0
    1.5445   -2.0107   -4.0374 C   0  0  0  0  0  0  0  0  0  0  0  0
    2.1049   -1.3925   -4.5864 H   0  0  0  0  0  0  0  0  0  0  0  0
    1.7572   -2.9572   -4.2753 H   0  0  0  0  0  0  0  0  0  0  0  0
    0.5770   -1.8298   -4.2105 H   0  0  0  0  0  0  0  0  0  0  0  0
  1  5  1  0
  5  8  1  0
  1  2  1  0
  1  3  1  0
  1  4  1  0
  5  6  1  0
  5  7  1  0
  8  9  1  0
  8 10  1  0
  8 11  1  0
 12 16  1  0
 16 17  1  0
 12 13  1  0
 12 14  1  0
 12 15  1  0
 17 18  1  0
 17 19  1  0
 17 20  1  0
M  CHG  1   8   1
M  END
>  <PDB_ID>  (108) 
pdb4v0k

>  <RESIDUE_NAME>  (108) 
LYS   MET

>  <FRAG_NAME>  (108) 
ETAM   MSM

>  <FRAG_ATOM_NUM>  (108) 
fragi: 11  fragj: 9

>  <atom.prop.CHAIN_ID>  (108) 
A A A A A A A A A A A Z Z Z Z Z Z Z Z Z

>  <atom.prop.IS_HEAVY_ATOM>  (108) 
1 0 0 0 1 0 0 1 0 0 0 1 0 0 0 1 1 0 0 0

>  <DIFUSE_FUNC_ATOM>  (108) 
n/a

>  <FINAL_SINGLE_POINT_ENERGY>  (108) 
0

>  <NONCOV_INTER_ENERGY_QM>  (108) 
0

>  <FF_Energy>  (108) 
11.43

>  <QM_Energy>  (108) 
-2.1

>  <source>  (108) 
ETAM_MSM

>  <Index>  (108) 
8661

$$$$
ETAM-pdb4w7i-D-LYS-126:MSM-pdb4w7i-D-MET-123
     RDKit          3D

 20 18  0  0  0  0  0  0  0  0999 V2000
    1.2726    0.8375    0.0000 C   0  0  0  0  0  0  0  0  0  0  0  0
    1.2711    1.4155    0.8109 H   0  0  0  0  0  0  0  0  0  0  0  0
    1.2821    1.3989   -0.8223 H   0  0  0  0  0  0  0  0  0  0  0  0
    2.1668    0.2142    0.0130 H   0  0  0  0  0  0  0  0  0  0  0  0
    0.0000    0.0000    0.0000 C   0  0  0  0  0  0  0  0  0  0  0  0
    0.0108   -0.6061   -0.8158 H   0  0  0  0  0  0  0  0  0  0  0  0
    0.0106   -0.6062    0.8162 H   0  0  0  0  0  0  0  0  0  0  0  0
   -1.2726    0.7824    0.0000 N   0  0  0  0  0  4  0  0  0  0  0  0
   -1.7761    0.5904   -0.8409 H   0  0  0  0  0  0  0  0  0  0  0  0
   -1.8221    0.5163    0.7906 H   0  0  0  0  0  0  0  0  0  0  0  0
   -1.0597    1.7572    0.0509 H   0  0  0  0  0  0  0  0  0  0  0  0
   -2.1672   -0.6898   -4.4763 C   0  0  0  0  0  0  0  0  0  0  0  0
   -1.9478   -0.3482   -5.4093 H   0  0  0  0  0  0  0  0  0  0  0  0
   -3.1785   -0.7985   -4.4350 H   0  0  0  0  0  0  0  0  0  0  0  0
   -1.7156   -1.6754   -4.3623 H   0  0  0  0  0  0  0  0  0  0  0  0
   -1.5899    0.4800   -3.2059 S   0  0  0  0  0  0  0  0  0  0  0  0
   -2.8365    1.7673   -3.4144 C   0  0  0  0  0  0  0  0  0  0  0  0
   -3.7244    1.3422   -3.5815 H   0  0  0  0  0  0  0  0  0  0  0  0
   -2.8795    2.3213   -2.5845 H   0  0  0  0  0  0  0  0  0  0  0  0
   -2.5877    2.3441   -4.1915 H   0  0  0  0  0  0  0  0  0  0  0  0
  1  5  1  0
  5  8  1  0
  1  2  1  0
  1  3  1  0
  1  4  1  0
  5  6  1  0
  5  7  1  0
  8  9  1  0
  8 10  1  0
  8 11  1  0
 12 16  1  0
 16 17  1  0
 12 13  1  0
 12 14  1  0
 12 15  1  0
 17 18  1  0
 17 19  1  0
 17 20  1  0
M  CHG  1   8   1
M  END
>  <PDB_ID>  (109) 
pdb4w7i

>  <RESIDUE_NAME>  (109) 
LYS   MET

>  <FRAG_NAME>  (109) 
ETAM   MSM

>  <FRAG_ATOM_NUM>  (109) 
fragi: 11  fragj: 9

>  <atom.prop.CHAIN_ID>  (109) 
A A A A A A A A A A A Z Z Z Z Z Z Z Z Z

>  <atom.prop.IS_HEAVY_ATOM>  (109) 
1 0 0 0 1 0 0 1 0 0 0 1 0 0 0 1 1 0 0 0

>  <DIFUSE_FUNC_ATOM>  (109) 
n/a

>  <FINAL_SINGLE_POINT_ENERGY>  (109) 
0

>  <NONCOV_INTER_ENERGY_QM>  (109) 
0

>  <FF_Energy>  (109) 
-5.3

>  <QM_Energy>  (109) 
-15.7

>  <source>  (109) 
ETAM_MSM

>  <Index>  (109) 
8690

$$$$
ETAM-pdb3w3w-A-LYS-273:MSM-pdb3w3w-A-MET-312
     RDKit          3D

 20 18  0  0  0  0  0  0  0  0999 V2000
    1.2478    0.8621   -0.0000 C   0  0  0  0  0  0  0  0  0  0  0  0
    1.0023    1.7754    0.2525 H   0  0  0  0  0  0  0  0  0  0  0  0
    1.6701    0.8080   -0.8811 H   0  0  0  0  0  0  0  0  0  0  0  0
    1.9250    0.4525    0.7495 H   0  0  0  0  0  0  0  0  0  0  0  0
    0.0000    0.0000    0.0000 C   0  0  0  0  0  0  0  0  0  0  0  0
    0.0157   -0.5939   -0.8163 H   0  0  0  0  0  0  0  0  0  0  0  0
    0.0153   -0.5939    0.8158 H   0  0  0  0  0  0  0  0  0  0  0  0
   -1.2478    0.7949   -0.0000 N   0  0  0  0  0  4  0  0  0  0  0  0
   -1.3791    1.2141   -0.8995 H   0  0  0  0  0  0  0  0  0  0  0  0
   -2.0257    0.1994    0.2044 H   0  0  0  0  0  0  0  0  0  0  0  0
   -1.1882    1.5135    0.6945 H   0  0  0  0  0  0  0  0  0  0  0  0
   -3.9657   -1.7370    1.8022 C   0  0  0  0  0  0  0  0  0  0  0  0
   -3.0654   -1.9590    2.2296 H   0  0  0  0  0  0  0  0  0  0  0  0
   -4.3516   -2.6227    1.4734 H   0  0  0  0  0  0  0  0  0  0  0  0
   -4.6261   -1.3269    2.5664 H   0  0  0  0  0  0  0  0  0  0  0  0
   -3.7303   -0.5899    0.3952 S   0  0  0  0  0  0  0  0  0  0  0  0
   -3.0929   -1.7184   -0.8650 C   0  0  0  0  0  0  0  0  0  0  0  0
   -3.5889   -2.5829   -0.8120 H   0  0  0  0  0  0  0  0  0  0  0  0
   -3.2228   -1.3097   -1.7665 H   0  0  0  0  0  0  0  0  0  0  0  0
   -2.1208   -1.8758   -0.7020 H   0  0  0  0  0  0  0  0  0  0  0  0
  1  5  1  0
  5  8  1  0
  1  2  1  0
  1  3  1  0
  1  4  1  0
  5  6  1  0
  5  7  1  0
  8  9  1  0
  8 10  1  0
  8 11  1  0
 12 16  1  0
 16 17  1  0
 12 13  1  0
 12 14  1  0
 12 15  1  0
 17 18  1  0
 17 19  1  0
 17 20  1  0
M  CHG  1   8   1
M  END
>  <PDB_ID>  (110) 
pdb3w3w

>  <RESIDUE_NAME>  (110) 
LYS   MET

>  <FRAG_NAME>  (110) 
ETAM   MSM

>  <FRAG_ATOM_NUM>  (110) 
fragi: 11  fragj: 9

>  <atom.prop.CHAIN_ID>  (110) 
A A A A A A A A A A A Z Z Z Z Z Z Z Z Z

>  <atom.prop.IS_HEAVY_ATOM>  (110) 
1 0 0 0 1 0 0 1 0 0 0 1 0 0 0 1 1 0 0 0

>  <DIFUSE_FUNC_ATOM>  (110) 
n/a

>  <FINAL_SINGLE_POINT_ENERGY>  (110) 
0

>  <NONCOV_INTER_ENERGY_QM>  (110) 
0

>  <FF_Energy>  (110) 
0.52

>  <QM_Energy>  (110) 
-11.06

>  <source>  (110) 
ETAM_MSM

>  <Index>  (110) 
8848

$$$$
ETAM-pdb3wla-C-LYS-187:MSM-pdb3wla-C-MET-201
     RDKit          3D

 20 18  0  0  0  0  0  0  0  0999 V2000
    1.2605    0.8883   -0.0000 C   0  0  0  0  0  0  0  0  0  0  0  0
    1.5350    1.0568   -0.9446 H   0  0  0  0  0  0  0  0  0  0  0  0
    1.9898    0.4114    0.4851 H   0  0  0  0  0  0  0  0  0  0  0  0
    1.1223    1.8566    0.4809 H   0  0  0  0  0  0  0  0  0  0  0  0
    0.0000    0.0000    0.0000 C   0  0  0  0  0  0  0  0  0  0  0  0
    0.0085   -0.5703   -0.8161 H   0  0  0  0  0  0  0  0  0  0  0  0
    0.0082   -0.5710    0.8160 H   0  0  0  0  0  0  0  0  0  0  0  0
   -1.2605    0.8387    0.0000 N   0  0  0  0  0  4  0  0  0  0  0  0
   -1.0369    1.7492   -0.3331 H   0  0  0  0  0  0  0  0  0  0  0  0
   -1.9299    0.4075   -0.5977 H   0  0  0  0  0  0  0  0  0  0  0  0
   -1.6105    0.8884    0.9304 H   0  0  0  0  0  0  0  0  0  0  0  0
   -5.1532    0.9345   -2.5519 C   0  0  0  0  0  0  0  0  0  0  0  0
   -5.4706    1.5725   -3.2376 H   0  0  0  0  0  0  0  0  0  0  0  0
   -5.7037    0.9875   -1.7317 H   0  0  0  0  0  0  0  0  0  0  0  0
   -5.1514   -0.0813   -2.9471 H   0  0  0  0  0  0  0  0  0  0  0  0
   -3.4022    1.2769   -2.1477 S   0  0  0  0  0  0  0  0  0  0  0  0
   -2.7647    1.1979   -3.8528 C   0  0  0  0  0  0  0  0  0  0  0  0
   -1.9796    1.8054   -3.9292 H   0  0  0  0  0  0  0  0  0  0  0  0
   -2.4933    0.2598   -4.0504 H   0  0  0  0  0  0  0  0  0  0  0  0
   -3.4845    1.4865   -4.4781 H   0  0  0  0  0  0  0  0  0  0  0  0
  1  5  1  0
  5  8  1  0
  1  2  1  0
  1  3  1  0
  1  4  1  0
  5  6  1  0
  5  7  1  0
  8  9  1  0
  8 10  1  0
  8 11  1  0
 12 16  1  0
 16 17  1  0
 12 13  1  0
 12 14  1  0
 12 15  1  0
 17 18  1  0
 17 19  1  0
 17 20  1  0
M  CHG  1   8   1
M  END
>  <PDB_ID>  (111) 
pdb3wla

>  <RESIDUE_NAME>  (111) 
LYS   MET

>  <FRAG_NAME>  (111) 
ETAM   MSM

>  <FRAG_ATOM_NUM>  (111) 
fragi: 11  fragj: 9

>  <atom.prop.CHAIN_ID>  (111) 
A A A A A A A A A A A Z Z Z Z Z Z Z Z Z

>  <atom.prop.IS_HEAVY_ATOM>  (111) 
1 0 0 0 1 0 0 1 0 0 0 1 0 0 0 1 1 0 0 0

>  <DIFUSE_FUNC_ATOM>  (111) 
n/a

>  <FINAL_SINGLE_POINT_ENERGY>  (111) 
0

>  <NONCOV_INTER_ENERGY_QM>  (111) 
0

>  <FF_Energy>  (111) 
-4.21

>  <QM_Energy>  (111) 
-14.21

>  <source>  (111) 
ETAM_MSM

>  <Index>  (111) 
8981

$$$$
ETAM-pdb5aez-A-LYS-16:MSM-pdb5aez-A-MET-1
     RDKit          3D

 20 18  0  0  0  0  0  0  0  0999 V2000
    1.2451    0.8593    0.0000 C   0  0  0  0  0  0  0  0  0  0  0  0
    1.2960    1.3508    0.8551 H   0  0  0  0  0  0  0  0  0  0  0  0
    1.2093    1.4751   -0.7709 H   0  0  0  0  0  0  0  0  0  0  0  0
    2.1261    0.2244   -0.0951 H   0  0  0  0  0  0  0  0  0  0  0  0
    0.0000    0.0000    0.0000 C   0  0  0  0  0  0  0  0  0  0  0  0
    0.0052   -0.5863   -0.8162 H   0  0  0  0  0  0  0  0  0  0  0  0
    0.0048   -0.5863    0.8159 H   0  0  0  0  0  0  0  0  0  0  0  0
   -1.2451    0.8200    0.0000 N   0  0  0  0  0  4  0  0  0  0  0  0
   -1.5836    0.9074    0.9364 H   0  0  0  0  0  0  0  0  0  0  0  0
   -1.0437    1.7262   -0.3701 H   0  0  0  0  0  0  0  0  0  0  0  0
   -1.9353    0.3719   -0.5664 H   0  0  0  0  0  0  0  0  0  0  0  0
   -3.7420    2.4374    2.7354 C   0  0  0  0  0  0  0  0  0  0  0  0
   -3.1078    2.8548    3.4319 H   0  0  0  0  0  0  0  0  0  0  0  0
   -4.6773    2.4939    3.1637 H   0  0  0  0  0  0  0  0  0  0  0  0
   -3.7312    3.0586    1.8397 H   0  0  0  0  0  0  0  0  0  0  0  0
   -3.2950    0.7261    2.4161 S   0  0  0  0  0  0  0  0  0  0  0  0
   -3.0961    0.0912    4.0852 C   0  0  0  0  0  0  0  0  0  0  0  0
   -3.4549    0.7565    4.7398 H   0  0  0  0  0  0  0  0  0  0  0  0
   -3.5973   -0.7698    4.1759 H   0  0  0  0  0  0  0  0  0  0  0  0
   -2.1258   -0.0667    4.2678 H   0  0  0  0  0  0  0  0  0  0  0  0
  1  5  1  0
  5  8  1  0
  1  2  1  0
  1  3  1  0
  1  4  1  0
  5  6  1  0
  5  7  1  0
  8  9  1  0
  8 10  1  0
  8 11  1  0
 12 16  1  0
 16 17  1  0
 12 13  1  0
 12 14  1  0
 12 15  1  0
 17 18  1  0
 17 19  1  0
 17 20  1  0
M  CHG  1   8   1
M  END
>  <PDB_ID>  (112) 
pdb5aez

>  <RESIDUE_NAME>  (112) 
LYS   MET

>  <FRAG_NAME>  (112) 
ETAM   MSM

>  <FRAG_ATOM_NUM>  (112) 
fragi: 11  fragj: 9

>  <atom.prop.CHAIN_ID>  (112) 
A A A A A A A A A A A Z Z Z Z Z Z Z Z Z

>  <atom.prop.IS_HEAVY_ATOM>  (112) 
1 0 0 0 1 0 0 1 0 0 0 1 0 0 0 1 1 0 0 0

>  <DIFUSE_FUNC_ATOM>  (112) 
n/a

>  <FINAL_SINGLE_POINT_ENERGY>  (112) 
0

>  <NONCOV_INTER_ENERGY_QM>  (112) 
0

>  <FF_Energy>  (112) 
-5.23

>  <QM_Energy>  (112) 
-16.71

>  <source>  (112) 
ETAM_MSM

>  <Index>  (112) 
9333

$$$$
ETAM-pdb6a1k-B-LYS-266:MSM-pdb6a1k-A-MET-246
     RDKit          3D

 20 18  0  0  0  0  0  0  0  0999 V2000
    1.1736    0.9328    0.0000 C   0  0  0  0  0  0  0  0  0  0  0  0
    1.4588    1.1094   -0.9259 H   0  0  0  0  0  0  0  0  0  0  0  0
    1.8995    0.5541    0.5459 H   0  0  0  0  0  0  0  0  0  0  0  0
    0.8750    1.8813    0.4465 H   0  0  0  0  0  0  0  0  0  0  0  0
    0.0000    0.0000    0.0000 C   0  0  0  0  0  0  0  0  0  0  0  0
    0.0207   -0.5490   -0.8158 H   0  0  0  0  0  0  0  0  0  0  0  0
    0.0204   -0.5497    0.8165 H   0  0  0  0  0  0  0  0  0  0  0  0
   -1.1736    0.8569   -0.0000 N   0  0  0  0  0  4  0  0  0  0  0  0
   -1.3358    1.2269   -0.9215 H   0  0  0  0  0  0  0  0  0  0  0  0
   -1.9856    0.3370    0.2846 H   0  0  0  0  0  0  0  0  0  0  0  0
   -1.0450    1.6246    0.6366 H   0  0  0  0  0  0  0  0  0  0  0  0
   -2.0291   -0.9564   -4.0933 C   0  0  0  0  0  0  0  0  0  0  0  0
   -1.8360   -1.8482   -4.5251 H   0  0  0  0  0  0  0  0  0  0  0  0
   -1.3949   -0.2768   -4.4895 H   0  0  0  0  0  0  0  0  0  0  0  0
   -3.0555   -0.6648   -4.3158 H   0  0  0  0  0  0  0  0  0  0  0  0
   -1.8327   -1.0517   -2.3143 S   0  0  0  0  0  0  0  0  0  0  0  0
   -3.1295   -2.2166   -1.9330 C   0  0  0  0  0  0  0  0  0  0  0  0
   -2.7729   -2.9365   -1.3330 H   0  0  0  0  0  0  0  0  0  0  0  0
   -3.8834   -1.7455   -1.4699 H   0  0  0  0  0  0  0  0  0  0  0  0
   -3.4715   -2.6321   -2.7785 H   0  0  0  0  0  0  0  0  0  0  0  0
  1  5  1  0
  5  8  1  0
  1  2  1  0
  1  3  1  0
  1  4  1  0
  5  6  1  0
  5  7  1  0
  8  9  1  0
  8 10  1  0
  8 11  1  0
 12 16  1  0
 16 17  1  0
 12 13  1  0
 12 14  1  0
 12 15  1  0
 17 18  1  0
 17 19  1  0
 17 20  1  0
M  CHG  1   8   1
M  END
>  <PDB_ID>  (113) 
pdb6a1k

>  <RESIDUE_NAME>  (113) 
LYS   MET

>  <FRAG_NAME>  (113) 
ETAM   MSM

>  <FRAG_ATOM_NUM>  (113) 
fragi: 11  fragj: 9

>  <atom.prop.CHAIN_ID>  (113) 
A A A A A A A A A A A Z Z Z Z Z Z Z Z Z

>  <atom.prop.IS_HEAVY_ATOM>  (113) 
1 0 0 0 1 0 0 1 0 0 0 1 0 0 0 1 1 0 0 0

>  <DIFUSE_FUNC_ATOM>  (113) 
n/a

>  <FINAL_SINGLE_POINT_ENERGY>  (113) 
0

>  <NONCOV_INTER_ENERGY_QM>  (113) 
0

>  <FF_Energy>  (113) 
1.08

>  <QM_Energy>  (113) 
-11.41

>  <source>  (113) 
ETAM_MSM

>  <Index>  (113) 
9360

$$$$
ETAM-pdb6ahp-B-LYS-158:MSM-pdb6ahp-B-MET-93
     RDKit          3D

 20 18  0  0  0  0  0  0  0  0999 V2000
    1.2239    0.8942    0.0000 C   0  0  0  0  0  0  0  0  0  0  0  0
    2.0363    0.3256    0.0896 H   0  0  0  0  0  0  0  0  0  0  0  0
    1.1597    1.5256    0.7669 H   0  0  0  0  0  0  0  0  0  0  0  0
    1.3016    1.4706   -0.9219 H   0  0  0  0  0  0  0  0  0  0  0  0
    0.0000    0.0000    0.0000 C   0  0  0  0  0  0  0  0  0  0  0  0
    0.0133   -0.5701   -0.8163 H   0  0  0  0  0  0  0  0  0  0  0  0
    0.0130   -0.5694    0.8158 H   0  0  0  0  0  0  0  0  0  0  0  0
   -1.2239    0.8344   -0.0000 N   0  0  0  0  0  4  0  0  0  0  0  0
   -2.0050    0.2835    0.2967 H   0  0  0  0  0  0  0  0  0  0  0  0
   -1.1037    1.6052    0.6268 H   0  0  0  0  0  0  0  0  0  0  0  0
   -1.3932    1.1811   -0.9231 H   0  0  0  0  0  0  0  0  0  0  0  0
   -2.6109    1.4995   -4.2198 C   0  0  0  0  0  0  0  0  0  0  0  0
   -2.8050    2.4524   -3.9976 H   0  0  0  0  0  0  0  0  0  0  0  0
   -3.3035    1.1489   -4.8457 H   0  0  0  0  0  0  0  0  0  0  0  0
   -1.6235    1.4188   -4.6745 H   0  0  0  0  0  0  0  0  0  0  0  0
   -2.5981    0.4883   -2.6730 S   0  0  0  0  0  0  0  0  0  0  0  0
   -4.3366    0.1131   -2.5370 C   0  0  0  0  0  0  0  0  0  0  0  0
   -4.8778    0.8800   -2.8889 H   0  0  0  0  0  0  0  0  0  0  0  0
   -4.5486   -0.7100   -3.0678 H   0  0  0  0  0  0  0  0  0  0  0  0
   -4.5762   -0.0445   -1.5761 H   0  0  0  0  0  0  0  0  0  0  0  0
  1  5  1  0
  5  8  1  0
  1  2  1  0
  1  3  1  0
  1  4  1  0
  5  6  1  0
  5  7  1  0
  8  9  1  0
  8 10  1  0
  8 11  1  0
 12 16  1  0
 16 17  1  0
 12 13  1  0
 12 14  1  0
 12 15  1  0
 17 18  1  0
 17 19  1  0
 17 20  1  0
M  CHG  1   8   1
M  END
>  <PDB_ID>  (114) 
pdb6ahp

>  <RESIDUE_NAME>  (114) 
LYS   MET

>  <FRAG_NAME>  (114) 
ETAM   MSM

>  <FRAG_ATOM_NUM>  (114) 
fragi: 11  fragj: 9

>  <atom.prop.CHAIN_ID>  (114) 
A A A A A A A A A A A Z Z Z Z Z Z Z Z Z

>  <atom.prop.IS_HEAVY_ATOM>  (114) 
1 0 0 0 1 0 0 1 0 0 0 1 0 0 0 1 1 0 0 0

>  <DIFUSE_FUNC_ATOM>  (114) 
n/a

>  <FINAL_SINGLE_POINT_ENERGY>  (114) 
0

>  <NONCOV_INTER_ENERGY_QM>  (114) 
0

>  <FF_Energy>  (114) 
-3.96

>  <QM_Energy>  (114) 
-14.78

>  <source>  (114) 
ETAM_MSM

>  <Index>  (114) 
9368

$$$$
ETAM-pdb5ay9-A-LYS-54:MSM-pdb5ay9-A-MET-1
     RDKit          3D

 20 18  0  0  0  0  0  0  0  0999 V2000
    1.2630    0.8841    0.0000 C   0  0  0  0  0  0  0  0  0  0  0  0
    1.2901    1.3891   -0.8544 H   0  0  0  0  0  0  0  0  0  0  0  0
    2.0558    0.2944    0.0845 H   0  0  0  0  0  0  0  0  0  0  0  0
    1.2621    1.5936    0.8276 H   0  0  0  0  0  0  0  0  0  0  0  0
    0.0000    0.0000    0.0000 C   0  0  0  0  0  0  0  0  0  0  0  0
    0.0213   -0.5833   -0.8166 H   0  0  0  0  0  0  0  0  0  0  0  0
    0.0205   -0.5840    0.8160 H   0  0  0  0  0  0  0  0  0  0  0  0
   -1.2630    0.8023    0.0000 N   0  0  0  0  0  4  0  0  0  0  0  0
   -1.2414    1.4477    0.7609 H   0  0  0  0  0  0  0  0  0  0  0  0
   -1.3352    1.2997   -0.8623 H   0  0  0  0  0  0  0  0  0  0  0  0
   -2.0419    0.1865    0.1011 H   0  0  0  0  0  0  0  0  0  0  0  0
   -2.8728    1.2782    3.2554 C   0  0  0  0  0  0  0  0  0  0  0  0
   -3.4836    1.7579    3.8805 H   0  0  0  0  0  0  0  0  0  0  0  0
   -1.9832    1.7272    3.2385 H   0  0  0  0  0  0  0  0  0  0  0  0
   -2.7403    0.2577    3.6150 H   0  0  0  0  0  0  0  0  0  0  0  0
   -3.5857    1.1753    1.5949 S   0  0  0  0  0  0  0  0  0  0  0  0
   -5.1802    1.9589    1.8032 C   0  0  0  0  0  0  0  0  0  0  0  0
   -5.0791    2.7852    2.3595 H   0  0  0  0  0  0  0  0  0  0  0  0
   -5.5536    2.2065    0.9071 H   0  0  0  0  0  0  0  0  0  0  0  0
   -5.8091    1.3274    2.2605 H   0  0  0  0  0  0  0  0  0  0  0  0
  1  5  1  0
  5  8  1  0
  1  2  1  0
  1  3  1  0
  1  4  1  0
  5  6  1  0
  5  7  1  0
  8  9  1  0
  8 10  1  0
  8 11  1  0
 12 16  1  0
 16 17  1  0
 12 13  1  0
 12 14  1  0
 12 15  1  0
 17 18  1  0
 17 19  1  0
 17 20  1  0
M  CHG  1   8   1
M  END
>  <PDB_ID>  (115) 
pdb5ay9

>  <RESIDUE_NAME>  (115) 
LYS   MET

>  <FRAG_NAME>  (115) 
ETAM   MSM

>  <FRAG_ATOM_NUM>  (115) 
fragi: 11  fragj: 9

>  <atom.prop.CHAIN_ID>  (115) 
A A A A A A A A A A A Z Z Z Z Z Z Z Z Z

>  <atom.prop.IS_HEAVY_ATOM>  (115) 
1 0 0 0 1 0 0 1 0 0 0 1 0 0 0 1 1 0 0 0

>  <DIFUSE_FUNC_ATOM>  (115) 
n/a

>  <FINAL_SINGLE_POINT_ENERGY>  (115) 
0

>  <NONCOV_INTER_ENERGY_QM>  (115) 
0

>  <FF_Energy>  (115) 
0.57

>  <QM_Energy>  (115) 
-10.34

>  <source>  (115) 
ETAM_MSM

>  <Index>  (115) 
9386

$$$$
ETAM-pdb6aph-A-LYS-147:MSM-pdb6aph-A-MET-143
     RDKit          3D

 20 18  0  0  0  0  0  0  0  0999 V2000
    1.2328    0.8746    0.0000 C   0  0  0  0  0  0  0  0  0  0  0  0
    1.2149    1.4529    0.8170 H   0  0  0  0  0  0  0  0  0  0  0  0
    1.2138    1.4532   -0.8166 H   0  0  0  0  0  0  0  0  0  0  0  0
    2.1575    0.2975    0.0010 H   0  0  0  0  0  0  0  0  0  0  0  0
    0.0000    0.0000    0.0000 C   0  0  0  0  0  0  0  0  0  0  0  0
    0.0077   -0.5781   -0.8160 H   0  0  0  0  0  0  0  0  0  0  0  0
    0.0067   -0.5781    0.8167 H   0  0  0  0  0  0  0  0  0  0  0  0
   -1.2328    0.8280    0.0000 N   0  0  0  0  0  4  0  0  0  0  0  0
   -1.8658    0.4841   -0.6929 H   0  0  0  0  0  0  0  0  0  0  0  0
   -1.6658    0.7817    0.9009 H   0  0  0  0  0  0  0  0  0  0  0  0
   -0.9960    1.7774   -0.2074 H   0  0  0  0  0  0  0  0  0  0  0  0
    1.7741    3.6733    3.5187 C   0  0  0  0  0  0  0  0  0  0  0  0
    1.4323    4.5744    3.8565 H   0  0  0  0  0  0  0  0  0  0  0  0
    2.7649    3.8075    3.3069 H   0  0  0  0  0  0  0  0  0  0  0  0
    1.6971    2.9557    4.3355 H   0  0  0  0  0  0  0  0  0  0  0  0
    0.8622    3.1501    2.0382 S   0  0  0  0  0  0  0  0  0  0  0  0
   -0.7849    3.6857    2.5238 C   0  0  0  0  0  0  0  0  0  0  0  0
   -0.8205    4.6847    2.5311 H   0  0  0  0  0  0  0  0  0  0  0  0
   -1.4551    3.3310    1.8716 H   0  0  0  0  0  0  0  0  0  0  0  0
   -0.9910    3.3374    3.4378 H   0  0  0  0  0  0  0  0  0  0  0  0
  1  5  1  0
  5  8  1  0
  1  2  1  0
  1  3  1  0
  1  4  1  0
  5  6  1  0
  5  7  1  0
  8  9  1  0
  8 10  1  0
  8 11  1  0
 12 16  1  0
 16 17  1  0
 12 13  1  0
 12 14  1  0
 12 15  1  0
 17 18  1  0
 17 19  1  0
 17 20  1  0
M  CHG  1   8   1
M  END
>  <PDB_ID>  (116) 
pdb6aph

>  <RESIDUE_NAME>  (116) 
LYS   MET

>  <FRAG_NAME>  (116) 
ETAM   MSM

>  <FRAG_ATOM_NUM>  (116) 
fragi: 11  fragj: 9

>  <atom.prop.CHAIN_ID>  (116) 
A A A A A A A A A A A Z Z Z Z Z Z Z Z Z

>  <atom.prop.IS_HEAVY_ATOM>  (116) 
1 0 0 0 1 0 0 1 0 0 0 1 0 0 0 1 1 0 0 0

>  <DIFUSE_FUNC_ATOM>  (116) 
n/a

>  <FINAL_SINGLE_POINT_ENERGY>  (116) 
0

>  <NONCOV_INTER_ENERGY_QM>  (116) 
0

>  <FF_Energy>  (116) 
19.52

>  <QM_Energy>  (116) 
-0.38

>  <source>  (116) 
ETAM_MSM

>  <Index>  (116) 
9388

$$$$
ETAM-pdb6ay1-G-LYS-10:MSM-pdb6ay1-G-MET-66
     RDKit          3D

 20 18  0  0  0  0  0  0  0  0999 V2000
    1.2327    0.8727    0.0000 C   0  0  0  0  0  0  0  0  0  0  0  0
    1.5825    0.9322    0.9384 H   0  0  0  0  0  0  0  0  0  0  0  0
    0.9760    1.7887   -0.3127 H   0  0  0  0  0  0  0  0  0  0  0  0
    2.0235    0.4892   -0.6447 H   0  0  0  0  0  0  0  0  0  0  0  0
    0.0000    0.0000    0.0000 C   0  0  0  0  0  0  0  0  0  0  0  0
    0.0088   -0.5802   -0.8159 H   0  0  0  0  0  0  0  0  0  0  0  0
    0.0070   -0.5793    0.8168 H   0  0  0  0  0  0  0  0  0  0  0  0
   -1.2327    0.8259   -0.0000 N   0  0  0  0  0  4  0  0  0  0  0  0
   -2.0127    0.2610   -0.2705 H   0  0  0  0  0  0  0  0  0  0  0  0
   -1.3889    1.1924    0.9167 H   0  0  0  0  0  0  0  0  0  0  0  0
   -1.1280    1.5809   -0.6482 H   0  0  0  0  0  0  0  0  0  0  0  0
   -0.9025   -2.6041   -3.4192 C   0  0  0  0  0  0  0  0  0  0  0  0
   -1.8144   -2.1274   -3.3106 H   0  0  0  0  0  0  0  0  0  0  0  0
   -1.0191   -3.4929   -2.9008 H   0  0  0  0  0  0  0  0  0  0  0  0
   -0.7707   -2.8435   -4.4745 H   0  0  0  0  0  0  0  0  0  0  0  0
    0.4252   -1.6107   -2.6871 S   0  0  0  0  0  0  0  0  0  0  0  0
    1.8243   -2.7308   -2.7815 C   0  0  0  0  0  0  0  0  0  0  0  0
    1.9438   -3.0382   -3.7262 H   0  0  0  0  0  0  0  0  0  0  0  0
    2.6524   -2.2574   -2.4785 H   0  0  0  0  0  0  0  0  0  0  0  0
    1.6593   -3.5226   -2.1919 H   0  0  0  0  0  0  0  0  0  0  0  0
  1  5  1  0
  5  8  1  0
  1  2  1  0
  1  3  1  0
  1  4  1  0
  5  6  1  0
  5  7  1  0
  8  9  1  0
  8 10  1  0
  8 11  1  0
 12 16  1  0
 16 17  1  0
 12 13  1  0
 12 14  1  0
 12 15  1  0
 17 18  1  0
 17 19  1  0
 17 20  1  0
M  CHG  1   8   1
M  END
>  <PDB_ID>  (117) 
pdb6ay1

>  <RESIDUE_NAME>  (117) 
LYS   MET

>  <FRAG_NAME>  (117) 
ETAM   MSM

>  <FRAG_ATOM_NUM>  (117) 
fragi: 11  fragj: 9

>  <atom.prop.CHAIN_ID>  (117) 
A A A A A A A A A A A Z Z Z Z Z Z Z Z Z

>  <atom.prop.IS_HEAVY_ATOM>  (117) 
1 0 0 0 1 0 0 1 0 0 0 1 0 0 0 1 1 0 0 0

>  <DIFUSE_FUNC_ATOM>  (117) 
n/a

>  <FINAL_SINGLE_POINT_ENERGY>  (117) 
0

>  <NONCOV_INTER_ENERGY_QM>  (117) 
0

>  <FF_Energy>  (117) 
14.19

>  <QM_Energy>  (117) 
-5.04

>  <source>  (117) 
ETAM_MSM

>  <Index>  (117) 
9417

$$$$
ETAM-pdb5bto-B-LYS-156:MSM-pdb5bto-B-MET-168
     RDKit          3D

 20 18  0  0  0  0  0  0  0  0999 V2000
    1.2432    0.8722    0.0000 C   0  0  0  0  0  0  0  0  0  0  0  0
    1.1857    1.5066    0.7663 H   0  0  0  0  0  0  0  0  0  0  0  0
    1.2763    1.3757   -0.8589 H   0  0  0  0  0  0  0  0  0  0  0  0
    2.1521    0.2788    0.0994 H   0  0  0  0  0  0  0  0  0  0  0  0
    0.0000    0.0000    0.0000 C   0  0  0  0  0  0  0  0  0  0  0  0
    0.0064   -0.5796   -0.8165 H   0  0  0  0  0  0  0  0  0  0  0  0
    0.0061   -0.5794    0.8161 H   0  0  0  0  0  0  0  0  0  0  0  0
   -1.2432    0.8277   -0.0000 N   0  0  0  0  0  4  0  0  0  0  0  0
   -1.9210    0.4024   -0.5972 H   0  0  0  0  0  0  0  0  0  0  0  0
   -1.6012    0.8826    0.9307 H   0  0  0  0  0  0  0  0  0  0  0  0
   -1.0284    1.7443   -0.3337 H   0  0  0  0  0  0  0  0  0  0  0  0
   -0.5931    2.7764   -4.2891 C   0  0  0  0  0  0  0  0  0  0  0  0
   -1.1352    3.5814   -3.9802 H   0  0  0  0  0  0  0  0  0  0  0  0
   -1.2580    2.1195   -4.6962 H   0  0  0  0  0  0  0  0  0  0  0  0
    0.1023    3.0988   -5.0641 H   0  0  0  0  0  0  0  0  0  0  0  0
    0.2808    2.0257   -2.9069 S   0  0  0  0  0  0  0  0  0  0  0  0
    1.2990    3.4121   -2.3897 C   0  0  0  0  0  0  0  0  0  0  0  0
    2.0383    3.5467   -3.0495 H   0  0  0  0  0  0  0  0  0  0  0  0
    0.7379    4.2392   -2.3437 H   0  0  0  0  0  0  0  0  0  0  0  0
    1.6872    3.2226   -1.4881 H   0  0  0  0  0  0  0  0  0  0  0  0
  1  5  1  0
  5  8  1  0
  1  2  1  0
  1  3  1  0
  1  4  1  0
  5  6  1  0
  5  7  1  0
  8  9  1  0
  8 10  1  0
  8 11  1  0
 12 16  1  0
 16 17  1  0
 12 13  1  0
 12 14  1  0
 12 15  1  0
 17 18  1  0
 17 19  1  0
 17 20  1  0
M  CHG  1   8   1
M  END
>  <PDB_ID>  (118) 
pdb5bto

>  <RESIDUE_NAME>  (118) 
LYS   MET

>  <FRAG_NAME>  (118) 
ETAM   MSM

>  <FRAG_ATOM_NUM>  (118) 
fragi: 11  fragj: 9

>  <atom.prop.CHAIN_ID>  (118) 
A A A A A A A A A A A Z Z Z Z Z Z Z Z Z

>  <atom.prop.IS_HEAVY_ATOM>  (118) 
1 0 0 0 1 0 0 1 0 0 0 1 0 0 0 1 1 0 0 0

>  <DIFUSE_FUNC_ATOM>  (118) 
n/a

>  <FINAL_SINGLE_POINT_ENERGY>  (118) 
0

>  <NONCOV_INTER_ENERGY_QM>  (118) 
0

>  <FF_Energy>  (118) 
2.1

>  <QM_Energy>  (118) 
-11.15

>  <source>  (118) 
ETAM_MSM

>  <Index>  (118) 
9510

$$$$
ETAM-pdb6dk2-A-LYS-271:MSM-pdb6dk2-A-MET-53
     RDKit          3D

 20 18  0  0  0  0  0  0  0  0999 V2000
    1.2411    0.8695   -0.0000 C   0  0  0  0  0  0  0  0  0  0  0  0
    1.2775    1.3759    0.8618 H   0  0  0  0  0  0  0  0  0  0  0  0
    1.1794    1.5147   -0.7624 H   0  0  0  0  0  0  0  0  0  0  0  0
    2.1600    0.2926   -0.1038 H   0  0  0  0  0  0  0  0  0  0  0  0
    0.0000    0.0000    0.0000 C   0  0  0  0  0  0  0  0  0  0  0  0
    0.0140   -0.5865   -0.8160 H   0  0  0  0  0  0  0  0  0  0  0  0
    0.0130   -0.5865    0.8162 H   0  0  0  0  0  0  0  0  0  0  0  0
   -1.2411    0.8081    0.0000 N   0  0  0  0  0  4  0  0  0  0  0  0
   -1.9821    0.2851    0.4226 H   0  0  0  0  0  0  0  0  0  0  0  0
   -1.0922    1.6517    0.5185 H   0  0  0  0  0  0  0  0  0  0  0  0
   -1.4917    1.0370   -0.9413 H   0  0  0  0  0  0  0  0  0  0  0  0
   -3.0247   -2.3550   -0.8858 C   0  0  0  0  0  0  0  0  0  0  0  0
   -2.0368   -2.4603   -1.0711 H   0  0  0  0  0  0  0  0  0  0  0  0
   -3.4263   -1.8263   -1.6481 H   0  0  0  0  0  0  0  0  0  0  0  0
   -3.4904   -3.3397   -0.8445 H   0  0  0  0  0  0  0  0  0  0  0  0
   -3.2858   -1.4952    0.6883 S   0  0  0  0  0  0  0  0  0  0  0  0
   -2.1505   -2.3931    1.7470 C   0  0  0  0  0  0  0  0  0  0  0  0
   -1.4625   -2.8535    1.1858 H   0  0  0  0  0  0  0  0  0  0  0  0
   -1.6979   -1.7546    2.3698 H   0  0  0  0  0  0  0  0  0  0  0  0
   -2.6563   -3.0738    2.2785 H   0  0  0  0  0  0  0  0  0  0  0  0
  1  5  1  0
  5  8  1  0
  1  2  1  0
  1  3  1  0
  1  4  1  0
  5  6  1  0
  5  7  1  0
  8  9  1  0
  8 10  1  0
  8 11  1  0
 12 16  1  0
 16 17  1  0
 12 13  1  0
 12 14  1  0
 12 15  1  0
 17 18  1  0
 17 19  1  0
 17 20  1  0
M  CHG  1   8   1
M  END
>  <PDB_ID>  (119) 
pdb6dk2

>  <RESIDUE_NAME>  (119) 
LYS   MET

>  <FRAG_NAME>  (119) 
ETAM   MSM

>  <FRAG_ATOM_NUM>  (119) 
fragi: 11  fragj: 9

>  <atom.prop.CHAIN_ID>  (119) 
A A A A A A A A A A A Z Z Z Z Z Z Z Z Z

>  <atom.prop.IS_HEAVY_ATOM>  (119) 
1 0 0 0 1 0 0 1 0 0 0 1 0 0 0 1 1 0 0 0

>  <DIFUSE_FUNC_ATOM>  (119) 
n/a

>  <FINAL_SINGLE_POINT_ENERGY>  (119) 
0

>  <NONCOV_INTER_ENERGY_QM>  (119) 
0

>  <FF_Energy>  (119) 
-4.52

>  <QM_Energy>  (119) 
-15.84

>  <source>  (119) 
ETAM_MSM

>  <Index>  (119) 
9816

$$$$
ETAM-pdb5dzw-A-LYS-296:MSM-pdb5dzw-A-MET-249
     RDKit          3D

 20 18  0  0  0  0  0  0  0  0999 V2000
    1.2321    0.8798    0.0000 C   0  0  0  0  0  0  0  0  0  0  0  0
    1.2139    1.4557    0.8167 H   0  0  0  0  0  0  0  0  0  0  0  0
    1.2133    1.4558   -0.8167 H   0  0  0  0  0  0  0  0  0  0  0  0
    2.1563    0.3020    0.0006 H   0  0  0  0  0  0  0  0  0  0  0  0
    0.0000    0.0000    0.0000 C   0  0  0  0  0  0  0  0  0  0  0  0
    0.0090   -0.5769   -0.8162 H   0  0  0  0  0  0  0  0  0  0  0  0
    0.0090   -0.5766    0.8165 H   0  0  0  0  0  0  0  0  0  0  0  0
   -1.2321    0.8279    0.0000 N   0  0  0  0  0  4  0  0  0  0  0  0
   -1.0200    1.7419   -0.3457 H   0  0  0  0  0  0  0  0  0  0  0  0
   -1.9215    0.4014   -0.5872 H   0  0  0  0  0  0  0  0  0  0  0  0
   -1.5875    0.8989    0.9323 H   0  0  0  0  0  0  0  0  0  0  0  0
   -0.3308   -2.8188   -0.7289 C   0  0  0  0  0  0  0  0  0  0  0  0
   -0.1814   -2.3636    0.1776 H   0  0  0  0  0  0  0  0  0  0  0  0
    0.3577   -2.3984   -1.3630 H   0  0  0  0  0  0  0  0  0  0  0  0
   -0.1033   -3.8797   -0.6245 H   0  0  0  0  0  0  0  0  0  0  0  0
   -2.0073   -2.5245   -1.3221 S   0  0  0  0  0  0  0  0  0  0  0  0
   -1.8796   -3.1448   -2.9974 C   0  0  0  0  0  0  0  0  0  0  0  0
   -1.4850   -2.4391   -3.5880 H   0  0  0  0  0  0  0  0  0  0  0  0
   -1.2920   -3.9560   -3.0117 H   0  0  0  0  0  0  0  0  0  0  0  0
   -2.7904   -3.3890   -3.3356 H   0  0  0  0  0  0  0  0  0  0  0  0
  1  5  1  0
  5  8  1  0
  1  2  1  0
  1  3  1  0
  1  4  1  0
  5  6  1  0
  5  7  1  0
  8  9  1  0
  8 10  1  0
  8 11  1  0
 12 16  1  0
 16 17  1  0
 12 13  1  0
 12 14  1  0
 12 15  1  0
 17 18  1  0
 17 19  1  0
 17 20  1  0
M  CHG  1   8   1
M  END
>  <PDB_ID>  (120) 
pdb5dzw

>  <RESIDUE_NAME>  (120) 
LYS   MET

>  <FRAG_NAME>  (120) 
ETAM   MSM

>  <FRAG_ATOM_NUM>  (120) 
fragi: 11  fragj: 9

>  <atom.prop.CHAIN_ID>  (120) 
A A A A A A A A A A A Z Z Z Z Z Z Z Z Z

>  <atom.prop.IS_HEAVY_ATOM>  (120) 
1 0 0 0 1 0 0 1 0 0 0 1 0 0 0 1 1 0 0 0

>  <DIFUSE_FUNC_ATOM>  (120) 
n/a

>  <FINAL_SINGLE_POINT_ENERGY>  (120) 
0

>  <NONCOV_INTER_ENERGY_QM>  (120) 
0

>  <FF_Energy>  (120) 
8.41

>  <QM_Energy>  (120) 
-5.38

>  <source>  (120) 
ETAM_MSM

>  <Index>  (120) 
9876

$$$$
ETAM-pdb5ed8-A-LYS-484:MSM-pdb5ed8-A-MET-481
     RDKit          3D

 20 18  0  0  0  0  0  0  0  0999 V2000
    1.2325    0.8735    0.0000 C   0  0  0  0  0  0  0  0  0  0  0  0
    1.2148    1.4526    0.8170 H   0  0  0  0  0  0  0  0  0  0  0  0
    1.2145    1.4536   -0.8159 H   0  0  0  0  0  0  0  0  0  0  0  0
    2.1572    0.2966    0.0005 H   0  0  0  0  0  0  0  0  0  0  0  0
    0.0000    0.0000    0.0000 C   0  0  0  0  0  0  0  0  0  0  0  0
    0.0068   -0.5772   -0.8168 H   0  0  0  0  0  0  0  0  0  0  0  0
    0.0068   -0.5791    0.8156 H   0  0  0  0  0  0  0  0  0  0  0  0
   -1.2325    0.8293   -0.0000 N   0  0  0  0  0  4  0  0  0  0  0  0
   -1.7411    0.6698    0.8468 H   0  0  0  0  0  0  0  0  0  0  0  0
   -0.9837    1.7961   -0.0633 H   0  0  0  0  0  0  0  0  0  0  0  0
   -1.8027    0.5787   -0.7830 H   0  0  0  0  0  0  0  0  0  0  0  0
   -0.0581    1.8895    2.6132 C   0  0  0  0  0  0  0  0  0  0  0  0
   -0.2775    1.0985    2.0081 H   0  0  0  0  0  0  0  0  0  0  0  0
   -0.6620    1.8008    3.4310 H   0  0  0  0  0  0  0  0  0  0  0  0
    0.9805    1.8071    2.9336 H   0  0  0  0  0  0  0  0  0  0  0  0
   -0.3615    3.4479    1.7624 S   0  0  0  0  0  0  0  0  0  0  0  0
    0.1742    4.6176    3.0072 C   0  0  0  0  0  0  0  0  0  0  0  0
    0.9692    4.2514    3.4923 H   0  0  0  0  0  0  0  0  0  0  0  0
    0.4227    5.4840    2.5700 H   0  0  0  0  0  0  0  0  0  0  0  0
   -0.5673    4.7769    3.6601 H   0  0  0  0  0  0  0  0  0  0  0  0
  1  5  1  0
  5  8  1  0
  1  2  1  0
  1  3  1  0
  1  4  1  0
  5  6  1  0
  5  7  1  0
  8  9  1  0
  8 10  1  0
  8 11  1  0
 12 16  1  0
 16 17  1  0
 12 13  1  0
 12 14  1  0
 12 15  1  0
 17 18  1  0
 17 19  1  0
 17 20  1  0
M  CHG  1   8   1
M  END
>  <PDB_ID>  (121) 
pdb5ed8

>  <RESIDUE_NAME>  (121) 
LYS   MET

>  <FRAG_NAME>  (121) 
ETAM   MSM

>  <FRAG_ATOM_NUM>  (121) 
fragi: 11  fragj: 9

>  <atom.prop.CHAIN_ID>  (121) 
A A A A A A A A A A A Z Z Z Z Z Z Z Z Z

>  <atom.prop.IS_HEAVY_ATOM>  (121) 
1 0 0 0 1 0 0 1 0 0 0 1 0 0 0 1 1 0 0 0

>  <DIFUSE_FUNC_ATOM>  (121) 
n/a

>  <FINAL_SINGLE_POINT_ENERGY>  (121) 
0

>  <NONCOV_INTER_ENERGY_QM>  (121) 
0

>  <FF_Energy>  (121) 
13.74

>  <QM_Energy>  (121) 
-2.87

>  <source>  (121) 
ETAM_MSM

>  <Index>  (121) 
9927

$$$$
ETAM-pdb6erk-A-LYS-122:MSM-pdb6erk-B-MET-154
     RDKit          3D

 20 18  0  0  0  0  0  0  0  0999 V2000
    1.2964    0.7688   -0.0000 C   0  0  0  0  0  0  0  0  0  0  0  0
    1.3027    1.4096    0.7445 H   0  0  0  0  0  0  0  0  0  0  0  0
    1.4242    1.2038   -0.8716 H   0  0  0  0  0  0  0  0  0  0  0  0
    2.1225    0.0740    0.1514 H   0  0  0  0  0  0  0  0  0  0  0  0
    0.0000    0.0000    0.0000 C   0  0  0  0  0  0  0  0  0  0  0  0
   -0.0151   -0.6307   -0.8160 H   0  0  0  0  0  0  0  0  0  0  0  0
   -0.0152   -0.6304    0.8165 H   0  0  0  0  0  0  0  0  0  0  0  0
   -1.2964    0.7786    0.0000 N   0  0  0  0  0  4  0  0  0  0  0  0
   -1.3323    1.3403   -0.8214 H   0  0  0  0  0  0  0  0  0  0  0  0
   -2.0559    0.1346    0.0105 H   0  0  0  0  0  0  0  0  0  0  0  0
   -1.3231    1.3554    0.8113 H   0  0  0  0  0  0  0  0  0  0  0  0
   -4.4152   -2.2141    0.0369 C   0  0  0  0  0  0  0  0  0  0  0  0
   -4.7654   -1.6677   -0.7428 H   0  0  0  0  0  0  0  0  0  0  0  0
   -4.7655   -1.7828    0.8854 H   0  0  0  0  0  0  0  0  0  0  0  0
   -4.7939   -3.2336   -0.0356 H   0  0  0  0  0  0  0  0  0  0  0  0
   -2.6006   -2.2184    0.0374 S   0  0  0  0  0  0  0  0  0  0  0  0
   -2.2583   -2.8928   -1.5878 C   0  0  0  0  0  0  0  0  0  0  0  0
   -3.1203   -3.0917   -2.0563 H   0  0  0  0  0  0  0  0  0  0  0  0
   -1.7350   -2.2284   -2.1233 H   0  0  0  0  0  0  0  0  0  0  0  0
   -1.7283   -3.7374   -1.4954 H   0  0  0  0  0  0  0  0  0  0  0  0
  1  5  1  0
  5  8  1  0
  1  2  1  0
  1  3  1  0
  1  4  1  0
  5  6  1  0
  5  7  1  0
  8  9  1  0
  8 10  1  0
  8 11  1  0
 12 16  1  0
 16 17  1  0
 12 13  1  0
 12 14  1  0
 12 15  1  0
 17 18  1  0
 17 19  1  0
 17 20  1  0
M  CHG  1   8   1
M  END
>  <PDB_ID>  (122) 
pdb6erk

>  <RESIDUE_NAME>  (122) 
LYS   MET

>  <FRAG_NAME>  (122) 
ETAM   MSM

>  <FRAG_ATOM_NUM>  (122) 
fragi: 11  fragj: 9

>  <atom.prop.CHAIN_ID>  (122) 
A A A A A A A A A A A Z Z Z Z Z Z Z Z Z

>  <atom.prop.IS_HEAVY_ATOM>  (122) 
1 0 0 0 1 0 0 1 0 0 0 1 0 0 0 1 1 0 0 0

>  <DIFUSE_FUNC_ATOM>  (122) 
n/a

>  <FINAL_SINGLE_POINT_ENERGY>  (122) 
0

>  <NONCOV_INTER_ENERGY_QM>  (122) 
0

>  <FF_Energy>  (122) 
-5.12

>  <QM_Energy>  (122) 
-16.16

>  <source>  (122) 
ETAM_MSM

>  <Index>  (122) 
9999

$$$$
ETAM-pdb6fsk-B-LYS-154:MSM-pdb6fsk-B-MET-77
     RDKit          3D

 20 18  0  0  0  0  0  0  0  0999 V2000
    1.2482    0.8811   -0.0000 C   0  0  0  0  0  0  0  0  0  0  0  0
    1.3429    1.2881    0.8897 H   0  0  0  0  0  0  0  0  0  0  0  0
    1.1552    1.5540   -0.7105 H   0  0  0  0  0  0  0  0  0  0  0  0
    2.1170    0.2554   -0.2046 H   0  0  0  0  0  0  0  0  0  0  0  0
    0.0000    0.0000    0.0000 C   0  0  0  0  0  0  0  0  0  0  0  0
    0.0065   -0.5729   -0.8160 H   0  0  0  0  0  0  0  0  0  0  0  0
    0.0060   -0.5735    0.8163 H   0  0  0  0  0  0  0  0  0  0  0  0
   -1.2482    0.8379    0.0000 N   0  0  0  0  0  4  0  0  0  0  0  0
   -1.2469    1.4219    0.8084 H   0  0  0  0  0  0  0  0  0  0  0  0
   -1.2623    1.3982   -0.8247 H   0  0  0  0  0  0  0  0  0  0  0  0
   -2.0424    0.2353    0.0159 H   0  0  0  0  0  0  0  0  0  0  0  0
   -2.1422   -2.8097   -0.6241 C   0  0  0  0  0  0  0  0  0  0  0  0
   -1.4087   -2.7642    0.0385 H   0  0  0  0  0  0  0  0  0  0  0  0
   -1.8420   -2.4935   -1.5124 H   0  0  0  0  0  0  0  0  0  0  0  0
   -2.5782   -3.8074   -0.6755 H   0  0  0  0  0  0  0  0  0  0  0  0
   -3.5313   -1.7732   -0.0553 S   0  0  0  0  0  0  0  0  0  0  0  0
   -4.4126   -1.6977   -1.6241 C   0  0  0  0  0  0  0  0  0  0  0  0
   -3.7992   -1.3481   -2.3319 H   0  0  0  0  0  0  0  0  0  0  0  0
   -4.7248   -2.6139   -1.8731 H   0  0  0  0  0  0  0  0  0  0  0  0
   -5.2002   -1.0886   -1.5323 H   0  0  0  0  0  0  0  0  0  0  0  0
  1  5  1  0
  5  8  1  0
  1  2  1  0
  1  3  1  0
  1  4  1  0
  5  6  1  0
  5  7  1  0
  8  9  1  0
  8 10  1  0
  8 11  1  0
 12 16  1  0
 16 17  1  0
 12 13  1  0
 12 14  1  0
 12 15  1  0
 17 18  1  0
 17 19  1  0
 17 20  1  0
M  CHG  1   8   1
M  END
>  <PDB_ID>  (123) 
pdb6fsk

>  <RESIDUE_NAME>  (123) 
LYS   MET

>  <FRAG_NAME>  (123) 
ETAM   MSM

>  <FRAG_ATOM_NUM>  (123) 
fragi: 11  fragj: 9

>  <atom.prop.CHAIN_ID>  (123) 
A A A A A A A A A A A Z Z Z Z Z Z Z Z Z

>  <atom.prop.IS_HEAVY_ATOM>  (123) 
1 0 0 0 1 0 0 1 0 0 0 1 0 0 0 1 1 0 0 0

>  <DIFUSE_FUNC_ATOM>  (123) 
n/a

>  <FINAL_SINGLE_POINT_ENERGY>  (123) 
0

>  <NONCOV_INTER_ENERGY_QM>  (123) 
0

>  <FF_Energy>  (123) 
-4.83

>  <QM_Energy>  (123) 
-14.9

>  <source>  (123) 
ETAM_MSM

>  <Index>  (123) 
10101

$$$$
ETAM-pdb6h7h-A-LYS-155:MSM-pdb6h7h-A-MET-160
     RDKit          3D

 20 18  0  0  0  0  0  0  0  0999 V2000
    1.2566    0.8665   -0.0000 C   0  0  0  0  0  0  0  0  0  0  0  0
    1.0298    1.7513    0.3988 H   0  0  0  0  0  0  0  0  0  0  0  0
    1.5597    0.9821   -0.9414 H   0  0  0  0  0  0  0  0  0  0  0  0
    2.0642    0.4168    0.5776 H   0  0  0  0  0  0  0  0  0  0  0  0
    0.0000    0.0000    0.0000 C   0  0  0  0  0  0  0  0  0  0  0  0
    0.0130   -0.5879   -0.8164 H   0  0  0  0  0  0  0  0  0  0  0  0
    0.0129   -0.5882    0.8166 H   0  0  0  0  0  0  0  0  0  0  0  0
   -1.2566    0.8066    0.0000 N   0  0  0  0  0  4  0  0  0  0  0  0
   -2.0412    0.1933    0.0790 H   0  0  0  0  0  0  0  0  0  0  0  0
   -1.2426    1.4368    0.7746 H   0  0  0  0  0  0  0  0  0  0  0  0
   -1.3165    1.3225   -0.8535 H   0  0  0  0  0  0  0  0  0  0  0  0
   -1.1715    4.9104    0.9589 C   0  0  0  0  0  0  0  0  0  0  0  0
   -1.6316    5.6624    1.4397 H   0  0  0  0  0  0  0  0  0  0  0  0
   -1.4951    4.8869    0.0095 H   0  0  0  0  0  0  0  0  0  0  0  0
   -0.0955    5.0850    0.9671 H   0  0  0  0  0  0  0  0  0  0  0  0
   -1.4827    3.3382    1.7819 S   0  0  0  0  0  0  0  0  0  0  0  0
   -3.2338    3.1356    1.5723 C   0  0  0  0  0  0  0  0  0  0  0  0
   -3.4301    2.2362    1.1715 H   0  0  0  0  0  0  0  0  0  0  0  0
   -3.6966    3.2042    2.4601 H   0  0  0  0  0  0  0  0  0  0  0  0
   -3.5922    3.8482    0.9631 H   0  0  0  0  0  0  0  0  0  0  0  0
  1  5  1  0
  5  8  1  0
  1  2  1  0
  1  3  1  0
  1  4  1  0
  5  6  1  0
  5  7  1  0
  8  9  1  0
  8 10  1  0
  8 11  1  0
 12 16  1  0
 16 17  1  0
 12 13  1  0
 12 14  1  0
 12 15  1  0
 17 18  1  0
 17 19  1  0
 17 20  1  0
M  CHG  1   8   1
M  END
>  <PDB_ID>  (124) 
pdb6h7h

>  <RESIDUE_NAME>  (124) 
LYS   MET

>  <FRAG_NAME>  (124) 
ETAM   MSM

>  <FRAG_ATOM_NUM>  (124) 
fragi: 11  fragj: 9

>  <atom.prop.CHAIN_ID>  (124) 
A A A A A A A A A A A Z Z Z Z Z Z Z Z Z

>  <atom.prop.IS_HEAVY_ATOM>  (124) 
1 0 0 0 1 0 0 1 0 0 0 1 0 0 0 1 1 0 0 0

>  <DIFUSE_FUNC_ATOM>  (124) 
n/a

>  <FINAL_SINGLE_POINT_ENERGY>  (124) 
0

>  <NONCOV_INTER_ENERGY_QM>  (124) 
0

>  <FF_Energy>  (124) 
-3.93

>  <QM_Energy>  (124) 
-14.08

>  <source>  (124) 
ETAM_MSM

>  <Index>  (124) 
10281

$$$$
ETAM-pdb5h7j-B-LYS-15:MSM-pdb5h7j-B-MET-352
     RDKit          3D

 20 18  0  0  0  0  0  0  0  0999 V2000
    1.2558    0.8716   -0.0000 C   0  0  0  0  0  0  0  0  0  0  0  0
    1.6600    0.8373    0.9022 H   0  0  0  0  0  0  0  0  0  0  0  0
    0.9959    1.7947   -0.2428 H   0  0  0  0  0  0  0  0  0  0  0  0
    1.9749    0.4980   -0.7290 H   0  0  0  0  0  0  0  0  0  0  0  0
    0.0000    0.0000    0.0000 C   0  0  0  0  0  0  0  0  0  0  0  0
    0.0150   -0.5867   -0.8159 H   0  0  0  0  0  0  0  0  0  0  0  0
    0.0149   -0.5871    0.8167 H   0  0  0  0  0  0  0  0  0  0  0  0
   -1.2558    0.8063   -0.0000 N   0  0  0  0  0  4  0  0  0  0  0  0
   -1.3586    1.2567   -0.8857 H   0  0  0  0  0  0  0  0  0  0  0  0
   -2.0350    0.2033    0.1627 H   0  0  0  0  0  0  0  0  0  0  0  0
   -1.2056    1.4937    0.7227 H   0  0  0  0  0  0  0  0  0  0  0  0
   -2.3050    2.4857   -3.5585 C   0  0  0  0  0  0  0  0  0  0  0  0
   -2.9170    1.6768   -3.5932 H   0  0  0  0  0  0  0  0  0  0  0  0
   -1.7681    2.4915   -4.4198 H   0  0  0  0  0  0  0  0  0  0  0  0
   -2.9133    3.3890   -3.5126 H   0  0  0  0  0  0  0  0  0  0  0  0
   -1.2197    2.4049   -2.1302 S   0  0  0  0  0  0  0  0  0  0  0  0
   -0.4277    4.0031   -2.2225 C   0  0  0  0  0  0  0  0  0  0  0  0
   -1.0033    4.6362   -2.7432 H   0  0  0  0  0  0  0  0  0  0  0  0
   -0.2891    4.3660   -1.2993 H   0  0  0  0  0  0  0  0  0  0  0  0
    0.4601    3.9145   -2.6779 H   0  0  0  0  0  0  0  0  0  0  0  0
  1  5  1  0
  5  8  1  0
  1  2  1  0
  1  3  1  0
  1  4  1  0
  5  6  1  0
  5  7  1  0
  8  9  1  0
  8 10  1  0
  8 11  1  0
 12 16  1  0
 16 17  1  0
 12 13  1  0
 12 14  1  0
 12 15  1  0
 17 18  1  0
 17 19  1  0
 17 20  1  0
M  CHG  1   8   1
M  END
>  <PDB_ID>  (125) 
pdb5h7j

>  <RESIDUE_NAME>  (125) 
LYS   MET

>  <FRAG_NAME>  (125) 
ETAM   MSM

>  <FRAG_ATOM_NUM>  (125) 
fragi: 11  fragj: 9

>  <atom.prop.CHAIN_ID>  (125) 
A A A A A A A A A A A Z Z Z Z Z Z Z Z Z

>  <atom.prop.IS_HEAVY_ATOM>  (125) 
1 0 0 0 1 0 0 1 0 0 0 1 0 0 0 1 1 0 0 0

>  <DIFUSE_FUNC_ATOM>  (125) 
n/a

>  <FINAL_SINGLE_POINT_ENERGY>  (125) 
0

>  <NONCOV_INTER_ENERGY_QM>  (125) 
0

>  <FF_Energy>  (125) 
12.97

>  <QM_Energy>  (125) 
-2.13

>  <source>  (125) 
ETAM_MSM

>  <Index>  (125) 
10350

$$$$
ETAM-pdb5iuu-A-LYS-479:MSM-pdb5iuu-A-MET-463
     RDKit          3D

 20 18  0  0  0  0  0  0  0  0999 V2000
    1.2449    0.8226    0.0000 C   0  0  0  0  0  0  0  0  0  0  0  0
    1.9947    0.2618   -0.3175 H   0  0  0  0  0  0  0  0  0  0  0  0
    1.4049    1.1541    0.9174 H   0  0  0  0  0  0  0  0  0  0  0  0
    1.0857    1.6586   -0.6811 H   0  0  0  0  0  0  0  0  0  0  0  0
    0.0000    0.0000    0.0000 C   0  0  0  0  0  0  0  0  0  0  0  0
   -0.0058   -0.6025   -0.8163 H   0  0  0  0  0  0  0  0  0  0  0  0
   -0.0057   -0.6022    0.8166 H   0  0  0  0  0  0  0  0  0  0  0  0
   -1.2449    0.8095   -0.0000 N   0  0  0  0  0  4  0  0  0  0  0  0
   -1.9754    0.2965   -0.4502 H   0  0  0  0  0  0  0  0  0  0  0  0
   -1.5112    1.0114    0.9423 H   0  0  0  0  0  0  0  0  0  0  0  0
   -1.0859    1.6651   -0.4920 H   0  0  0  0  0  0  0  0  0  0  0  0
    2.4083   -3.4847    0.5749 C   0  0  0  0  0  0  0  0  0  0  0  0
    1.7872   -3.7414    1.3511 H   0  0  0  0  0  0  0  0  0  0  0  0
    3.2712   -4.0203    0.7284 H   0  0  0  0  0  0  0  0  0  0  0  0
    1.9533   -3.8295   -0.3537 H   0  0  0  0  0  0  0  0  0  0  0  0
    2.7575   -1.6925    0.6045 S   0  0  0  0  0  0  0  0  0  0  0  0
    3.8043   -1.4402   -0.8309 C   0  0  0  0  0  0  0  0  0  0  0  0
    3.5706   -0.5706   -1.2662 H   0  0  0  0  0  0  0  0  0  0  0  0
    4.7628   -1.4231   -0.5463 H   0  0  0  0  0  0  0  0  0  0  0  0
    3.6640   -2.1870   -1.4830 H   0  0  0  0  0  0  0  0  0  0  0  0
  1  5  1  0
  5  8  1  0
  1  2  1  0
  1  3  1  0
  1  4  1  0
  5  6  1  0
  5  7  1  0
  8  9  1  0
  8 10  1  0
  8 11  1  0
 12 16  1  0
 16 17  1  0
 12 13  1  0
 12 14  1  0
 12 15  1  0
 17 18  1  0
 17 19  1  0
 17 20  1  0
M  CHG  1   8   1
M  END
>  <PDB_ID>  (126) 
pdb5iuu

>  <RESIDUE_NAME>  (126) 
LYS   MET

>  <FRAG_NAME>  (126) 
ETAM   MSM

>  <FRAG_ATOM_NUM>  (126) 
fragi: 11  fragj: 9

>  <atom.prop.CHAIN_ID>  (126) 
A A A A A A A A A A A Z Z Z Z Z Z Z Z Z

>  <atom.prop.IS_HEAVY_ATOM>  (126) 
1 0 0 0 1 0 0 1 0 0 0 1 0 0 0 1 1 0 0 0

>  <DIFUSE_FUNC_ATOM>  (126) 
n/a

>  <FINAL_SINGLE_POINT_ENERGY>  (126) 
0

>  <NONCOV_INTER_ENERGY_QM>  (126) 
0

>  <FF_Energy>  (126) 
10.34

>  <QM_Energy>  (126) 
-3.07

>  <source>  (126) 
ETAM_MSM

>  <Index>  (126) 
10585

$$$$
ETAM-pdb5j5p-B-LYS-304:MSM-pdb5j5p-B-MET-369
     RDKit          3D

 20 18  0  0  0  0  0  0  0  0999 V2000
    1.2788    0.8285   -0.0000 C   0  0  0  0  0  0  0  0  0  0  0  0
    1.3578    1.2961    0.8641 H   0  0  0  0  0  0  0  0  0  0  0  0
    1.2519    1.4591   -0.7573 H   0  0  0  0  0  0  0  0  0  0  0  0
    2.1440    0.1766   -0.1211 H   0  0  0  0  0  0  0  0  0  0  0  0
    0.0000    0.0000    0.0000 C   0  0  0  0  0  0  0  0  0  0  0  0
    0.0129   -0.6146   -0.8164 H   0  0  0  0  0  0  0  0  0  0  0  0
    0.0132   -0.6144    0.8159 H   0  0  0  0  0  0  0  0  0  0  0  0
   -1.2788    0.7658   -0.0000 N   0  0  0  0  0  4  0  0  0  0  0  0
   -1.1287    1.6602    0.4192 H   0  0  0  0  0  0  0  0  0  0  0  0
   -1.5926    0.8847   -0.9407 H   0  0  0  0  0  0  0  0  0  0  0  0
   -1.9653    0.2620    0.5218 H   0  0  0  0  0  0  0  0  0  0  0  0
   -4.3022   -1.4175    1.6650 C   0  0  0  0  0  0  0  0  0  0  0  0
   -4.4067   -1.5035    0.6518 H   0  0  0  0  0  0  0  0  0  0  0  0
   -4.7065   -0.5114    1.9126 H   0  0  0  0  0  0  0  0  0  0  0  0
   -4.9109   -2.1934    2.1295 H   0  0  0  0  0  0  0  0  0  0  0  0
   -2.5364   -1.4898    2.1424 S   0  0  0  0  0  0  0  0  0  0  0  0
   -2.5203   -1.0006    3.8815 C   0  0  0  0  0  0  0  0  0  0  0  0
   -3.4479   -1.0570    4.2469 H   0  0  0  0  0  0  0  0  0  0  0  0
   -1.9190   -1.6152    4.3896 H   0  0  0  0  0  0  0  0  0  0  0  0
   -2.1839   -0.0631    3.9557 H   0  0  0  0  0  0  0  0  0  0  0  0
  1  5  1  0
  5  8  1  0
  1  2  1  0
  1  3  1  0
  1  4  1  0
  5  6  1  0
  5  7  1  0
  8  9  1  0
  8 10  1  0
  8 11  1  0
 12 16  1  0
 16 17  1  0
 12 13  1  0
 12 14  1  0
 12 15  1  0
 17 18  1  0
 17 19  1  0
 17 20  1  0
M  CHG  1   8   1
M  END
>  <PDB_ID>  (127) 
pdb5j5p

>  <RESIDUE_NAME>  (127) 
LYS   MET

>  <FRAG_NAME>  (127) 
ETAM   MSM

>  <FRAG_ATOM_NUM>  (127) 
fragi: 11  fragj: 9

>  <atom.prop.CHAIN_ID>  (127) 
A A A A A A A A A A A Z Z Z Z Z Z Z Z Z

>  <atom.prop.IS_HEAVY_ATOM>  (127) 
1 0 0 0 1 0 0 1 0 0 0 1 0 0 0 1 1 0 0 0

>  <DIFUSE_FUNC_ATOM>  (127) 
n/a

>  <FINAL_SINGLE_POINT_ENERGY>  (127) 
0

>  <NONCOV_INTER_ENERGY_QM>  (127) 
0

>  <FF_Energy>  (127) 
-5.28

>  <QM_Energy>  (127) 
-16.17

>  <source>  (127) 
ETAM_MSM

>  <Index>  (127) 
10636

$$$$
ETAM-pdb6k3h-D-LYS-152:MSM-pdb6k3h-D-MET-1
     RDKit          3D

 20 18  0  0  0  0  0  0  0  0999 V2000
    1.2268    0.8759    0.0000 C   0  0  0  0  0  0  0  0  0  0  0  0
    1.3167    1.3148   -0.8861 H   0  0  0  0  0  0  0  0  0  0  0  0
    2.0256    0.3214    0.2002 H   0  0  0  0  0  0  0  0  0  0  0  0
    1.1517    1.6541    0.7596 H   0  0  0  0  0  0  0  0  0  0  0  0
    0.0000    0.0000    0.0000 C   0  0  0  0  0  0  0  0  0  0  0  0
    0.0037   -0.5744   -0.8164 H   0  0  0  0  0  0  0  0  0  0  0  0
    0.0037   -0.5746    0.8160 H   0  0  0  0  0  0  0  0  0  0  0  0
   -1.2268    0.8383    0.0000 N   0  0  0  0  0  4  0  0  0  0  0  0
   -1.9164    0.4194   -0.5908 H   0  0  0  0  0  0  0  0  0  0  0  0
   -1.5831    0.9076    0.9320 H   0  0  0  0  0  0  0  0  0  0  0  0
   -1.0055    1.7525   -0.3410 H   0  0  0  0  0  0  0  0  0  0  0  0
   -2.9299   -2.8438   -0.0468 C   0  0  0  0  0  0  0  0  0  0  0  0
   -3.2899   -3.6285    0.5265 H   0  0  0  0  0  0  0  0  0  0  0  0
   -1.9319   -3.0798   -0.1964 H   0  0  0  0  0  0  0  0  0  0  0  0
   -3.4302   -2.8826   -1.0145 H   0  0  0  0  0  0  0  0  0  0  0  0
   -3.0830   -1.2698    0.8593 S   0  0  0  0  0  0  0  0  0  0  0  0
   -4.1904   -1.7034    2.2089 C   0  0  0  0  0  0  0  0  0  0  0  0
   -5.1300   -1.7395    1.8695 H   0  0  0  0  0  0  0  0  0  0  0  0
   -3.9332   -2.5971    2.5758 H   0  0  0  0  0  0  0  0  0  0  0  0
   -4.1217   -1.0136    2.9296 H   0  0  0  0  0  0  0  0  0  0  0  0
  1  5  1  0
  5  8  1  0
  1  2  1  0
  1  3  1  0
  1  4  1  0
  5  6  1  0
  5  7  1  0
  8  9  1  0
  8 10  1  0
  8 11  1  0
 12 16  1  0
 16 17  1  0
 12 13  1  0
 12 14  1  0
 12 15  1  0
 17 18  1  0
 17 19  1  0
 17 20  1  0
M  CHG  1   8   1
M  END
>  <PDB_ID>  (128) 
pdb6k3h

>  <RESIDUE_NAME>  (128) 
LYS   MET

>  <FRAG_NAME>  (128) 
ETAM   MSM

>  <FRAG_ATOM_NUM>  (128) 
fragi: 11  fragj: 9

>  <atom.prop.CHAIN_ID>  (128) 
A A A A A A A A A A A Z Z Z Z Z Z Z Z Z

>  <atom.prop.IS_HEAVY_ATOM>  (128) 
1 0 0 0 1 0 0 1 0 0 0 1 0 0 0 1 1 0 0 0

>  <DIFUSE_FUNC_ATOM>  (128) 
n/a

>  <FINAL_SINGLE_POINT_ENERGY>  (128) 
0

>  <NONCOV_INTER_ENERGY_QM>  (128) 
0

>  <FF_Energy>  (128) 
-2.36

>  <QM_Energy>  (128) 
-12.85

>  <source>  (128) 
ETAM_MSM

>  <Index>  (128) 
10666

$$$$
ETAM-pdb5jcb-F-LYS-28:MSM-pdb5jcb-F-MET-1
     RDKit          3D

 20 18  0  0  0  0  0  0  0  0999 V2000
    1.2473    0.8711    0.0000 C   0  0  0  0  0  0  0  0  0  0  0  0
    1.2550    1.4164    0.8342 H   0  0  0  0  0  0  0  0  0  0  0  0
    1.2185    1.4666   -0.7976 H   0  0  0  0  0  0  0  0  0  0  0  0
    2.1599    0.2764   -0.0378 H   0  0  0  0  0  0  0  0  0  0  0  0
    0.0000    0.0000    0.0000 C   0  0  0  0  0  0  0  0  0  0  0  0
    0.0097   -0.5826   -0.8168 H   0  0  0  0  0  0  0  0  0  0  0  0
    0.0098   -0.5825    0.8161 H   0  0  0  0  0  0  0  0  0  0  0  0
   -1.2473    0.8187    0.0000 N   0  0  0  0  0  4  0  0  0  0  0  0
   -1.0624    1.7006   -0.4301 H   0  0  0  0  0  0  0  0  0  0  0  0
   -1.9577    0.3368   -0.5117 H   0  0  0  0  0  0  0  0  0  0  0  0
   -1.5484    0.9602    0.9424 H   0  0  0  0  0  0  0  0  0  0  0  0
    1.4348    2.1810   -3.5888 C   0  0  0  0  0  0  0  0  0  0  0  0
    1.7542    1.2271   -3.7666 H   0  0  0  0  0  0  0  0  0  0  0  0
    2.2288    2.6728   -3.1762 H   0  0  0  0  0  0  0  0  0  0  0  0
    1.1980    2.6480   -4.5449 H   0  0  0  0  0  0  0  0  0  0  0  0
    0.0225    2.1882   -2.4682 S   0  0  0  0  0  0  0  0  0  0  0  0
   -1.2404    1.4815   -3.5356 C   0  0  0  0  0  0  0  0  0  0  0  0
   -2.1272    1.5248   -3.0754 H   0  0  0  0  0  0  0  0  0  0  0  0
   -1.2809    1.9994   -4.3902 H   0  0  0  0  0  0  0  0  0  0  0  0
   -1.0130    0.5277   -3.7331 H   0  0  0  0  0  0  0  0  0  0  0  0
  1  5  1  0
  5  8  1  0
  1  2  1  0
  1  3  1  0
  1  4  1  0
  5  6  1  0
  5  7  1  0
  8  9  1  0
  8 10  1  0
  8 11  1  0
 12 16  1  0
 16 17  1  0
 12 13  1  0
 12 14  1  0
 12 15  1  0
 17 18  1  0
 17 19  1  0
 17 20  1  0
M  CHG  1   8   1
M  END
>  <PDB_ID>  (129) 
pdb5jcb

>  <RESIDUE_NAME>  (129) 
LYS   MET

>  <FRAG_NAME>  (129) 
ETAM   MSM

>  <FRAG_ATOM_NUM>  (129) 
fragi: 11  fragj: 9

>  <atom.prop.CHAIN_ID>  (129) 
A A A A A A A A A A A Z Z Z Z Z Z Z Z Z

>  <atom.prop.IS_HEAVY_ATOM>  (129) 
1 0 0 0 1 0 0 1 0 0 0 1 0 0 0 1 1 0 0 0

>  <DIFUSE_FUNC_ATOM>  (129) 
n/a

>  <FINAL_SINGLE_POINT_ENERGY>  (129) 
0

>  <NONCOV_INTER_ENERGY_QM>  (129) 
0

>  <FF_Energy>  (129) 
14.39

>  <QM_Energy>  (129) 
-4.26

>  <source>  (129) 
ETAM_MSM

>  <Index>  (129) 
10692

$$$$
ETAM-pdb6mfb-A-LYS-19:MSM-pdb6mfb-A-MET-336
     RDKit          3D

 20 18  0  0  0  0  0  0  0  0999 V2000
    1.2490    0.8625   -0.0000 C   0  0  0  0  0  0  0  0  0  0  0  0
    2.0347    0.2858    0.2420 H   0  0  0  0  0  0  0  0  0  0  0  0
    1.1442    1.5764    0.6993 H   0  0  0  0  0  0  0  0  0  0  0  0
    1.4532    1.3420   -0.9573 H   0  0  0  0  0  0  0  0  0  0  0  0
    0.0000    0.0000    0.0000 C   0  0  0  0  0  0  0  0  0  0  0  0
    0.0138   -0.5917   -0.8164 H   0  0  0  0  0  0  0  0  0  0  0  0
    0.0129   -0.5919    0.8168 H   0  0  0  0  0  0  0  0  0  0  0  0
   -1.2490    0.8001    0.0000 N   0  0  0  0  0  4  0  0  0  0  0  0
   -1.0785    1.6860    0.4317 H   0  0  0  0  0  0  0  0  0  0  0  0
   -1.5542    0.9427   -0.9415 H   0  0  0  0  0  0  0  0  0  0  0  0
   -1.9585    0.3122    0.5102 H   0  0  0  0  0  0  0  0  0  0  0  0
   -2.0116    3.9164    2.7838 C   0  0  0  0  0  0  0  0  0  0  0  0
   -2.0493    3.0550    3.3428 H   0  0  0  0  0  0  0  0  0  0  0  0
   -2.9326    3.9880    2.3337 H   0  0  0  0  0  0  0  0  0  0  0  0
   -1.8862    4.7634    3.4583 H   0  0  0  0  0  0  0  0  0  0  0  0
   -0.7033    3.7988    1.5298 S   0  0  0  0  0  0  0  0  0  0  0  0
    0.7127    3.4990    2.5932 C   0  0  0  0  0  0  0  0  0  0  0  0
    1.5057    3.2610    2.0325 H   0  0  0  0  0  0  0  0  0  0  0  0
    0.9127    4.3241    3.1217 H   0  0  0  0  0  0  0  0  0  0  0  0
    0.5075    2.7449    3.2176 H   0  0  0  0  0  0  0  0  0  0  0  0
  1  5  1  0
  5  8  1  0
  1  2  1  0
  1  3  1  0
  1  4  1  0
  5  6  1  0
  5  7  1  0
  8  9  1  0
  8 10  1  0
  8 11  1  0
 12 16  1  0
 16 17  1  0
 12 13  1  0
 12 14  1  0
 12 15  1  0
 17 18  1  0
 17 19  1  0
 17 20  1  0
M  CHG  1   8   1
M  END
>  <PDB_ID>  (130) 
pdb6mfb

>  <RESIDUE_NAME>  (130) 
LYS   MET

>  <FRAG_NAME>  (130) 
ETAM   MSM

>  <FRAG_ATOM_NUM>  (130) 
fragi: 11  fragj: 9

>  <atom.prop.CHAIN_ID>  (130) 
A A A A A A A A A A A Z Z Z Z Z Z Z Z Z

>  <atom.prop.IS_HEAVY_ATOM>  (130) 
1 0 0 0 1 0 0 1 0 0 0 1 0 0 0 1 1 0 0 0

>  <DIFUSE_FUNC_ATOM>  (130) 
n/a

>  <FINAL_SINGLE_POINT_ENERGY>  (130) 
0

>  <NONCOV_INTER_ENERGY_QM>  (130) 
0

>  <FF_Energy>  (130) 
-5.16

>  <QM_Energy>  (130) 
-16.02

>  <source>  (130) 
ETAM_MSM

>  <Index>  (130) 
10749

$$$$
ETAM-pdb6nff-A-LYS-716:MSM-pdb6nff-A-MET-769
     RDKit          3D

 20 18  0  0  0  0  0  0  0  0999 V2000
    1.2430    0.8765   -0.0000 C   0  0  0  0  0  0  0  0  0  0  0  0
    1.1915    1.4958    0.7747 H   0  0  0  0  0  0  0  0  0  0  0  0
    1.2693    1.3854   -0.8525 H   0  0  0  0  0  0  0  0  0  0  0  0
    2.1457    0.2714    0.0849 H   0  0  0  0  0  0  0  0  0  0  0  0
    0.0000    0.0000    0.0000 C   0  0  0  0  0  0  0  0  0  0  0  0
    0.0080   -0.5774   -0.8166 H   0  0  0  0  0  0  0  0  0  0  0  0
    0.0079   -0.5777    0.8163 H   0  0  0  0  0  0  0  0  0  0  0  0
   -1.2430    0.8295    0.0000 N   0  0  0  0  0  4  0  0  0  0  0  0
   -1.1569    1.5512    0.6849 H   0  0  0  0  0  0  0  0  0  0  0  0
   -1.3672    1.2353   -0.9035 H   0  0  0  0  0  0  0  0  0  0  0  0
   -2.0256    0.2486    0.2189 H   0  0  0  0  0  0  0  0  0  0  0  0
   -4.1760   -1.1432    2.2843 C   0  0  0  0  0  0  0  0  0  0  0  0
   -4.8834   -1.8621    2.3548 H   0  0  0  0  0  0  0  0  0  0  0  0
   -4.5802   -0.3641    1.7832 H   0  0  0  0  0  0  0  0  0  0  0  0
   -3.9321   -0.8084    3.2925 H   0  0  0  0  0  0  0  0  0  0  0  0
   -2.7068   -1.7361    1.5093 S   0  0  0  0  0  0  0  0  0  0  0  0
   -3.3889   -2.5502    0.0389 C   0  0  0  0  0  0  0  0  0  0  0  0
   -4.3441   -2.2821   -0.0671 H   0  0  0  0  0  0  0  0  0  0  0  0
   -2.8650   -2.2666   -0.7614 H   0  0  0  0  0  0  0  0  0  0  0  0
   -3.3234   -3.5386    0.1554 H   0  0  0  0  0  0  0  0  0  0  0  0
  1  5  1  0
  5  8  1  0
  1  2  1  0
  1  3  1  0
  1  4  1  0
  5  6  1  0
  5  7  1  0
  8  9  1  0
  8 10  1  0
  8 11  1  0
 12 16  1  0
 16 17  1  0
 12 13  1  0
 12 14  1  0
 12 15  1  0
 17 18  1  0
 17 19  1  0
 17 20  1  0
M  CHG  1   8   1
M  END
>  <PDB_ID>  (131) 
pdb6nff

>  <RESIDUE_NAME>  (131) 
LYS   MET

>  <FRAG_NAME>  (131) 
ETAM   MSM

>  <FRAG_ATOM_NUM>  (131) 
fragi: 11  fragj: 9

>  <atom.prop.CHAIN_ID>  (131) 
A A A A A A A A A A A Z Z Z Z Z Z Z Z Z

>  <atom.prop.IS_HEAVY_ATOM>  (131) 
1 0 0 0 1 0 0 1 0 0 0 1 0 0 0 1 1 0 0 0

>  <DIFUSE_FUNC_ATOM>  (131) 
n/a

>  <FINAL_SINGLE_POINT_ENERGY>  (131) 
0

>  <NONCOV_INTER_ENERGY_QM>  (131) 
0

>  <FF_Energy>  (131) 
-4.99

>  <QM_Energy>  (131) 
-15.43

>  <source>  (131) 
ETAM_MSM

>  <Index>  (131) 
10909

$$$$
ETAM-pdb6nff-A-LYS-487:MSM-pdb6nff-A-MET-769
     RDKit          3D

 20 18  0  0  0  0  0  0  0  0999 V2000
    1.2401    0.8330   -0.0000 C   0  0  0  0  0  0  0  0  0  0  0  0
    1.2003    1.4847    0.7363 H   0  0  0  0  0  0  0  0  0  0  0  0
    1.3465    1.2669   -0.8759 H   0  0  0  0  0  0  0  0  0  0  0  0
    2.0922    0.1739    0.1667 H   0  0  0  0  0  0  0  0  0  0  0  0
    0.0000    0.0000    0.0000 C   0  0  0  0  0  0  0  0  0  0  0  0
   -0.0096   -0.5916   -0.8162 H   0  0  0  0  0  0  0  0  0  0  0  0
   -0.0096   -0.5924    0.8167 H   0  0  0  0  0  0  0  0  0  0  0  0
   -1.2401    0.8290   -0.0000 N   0  0  0  0  0  4  0  0  0  0  0  0
   -1.5439    0.9683    0.9419 H   0  0  0  0  0  0  0  0  0  0  0  0
   -1.0469    1.7124   -0.4245 H   0  0  0  0  0  0  0  0  0  0  0  0
   -1.9524    0.3563   -0.5167 H   0  0  0  0  0  0  0  0  0  0  0  0
   -4.7699   -1.1635   -1.6780 C   0  0  0  0  0  0  0  0  0  0  0  0
   -4.7124   -1.6165   -0.7759 H   0  0  0  0  0  0  0  0  0  0  0  0
   -5.2818   -1.7772   -2.2967 H   0  0  0  0  0  0  0  0  0  0  0  0
   -5.3445   -0.2449   -1.5593 H   0  0  0  0  0  0  0  0  0  0  0  0
   -3.1763   -0.7607   -2.3174 S   0  0  0  0  0  0  0  0  0  0  0  0
   -2.3001   -2.3331   -2.0940 C   0  0  0  0  0  0  0  0  0  0  0  0
   -2.9637   -3.0477   -1.8836 H   0  0  0  0  0  0  0  0  0  0  0  0
   -1.8150   -2.5567   -2.9367 H   0  0  0  0  0  0  0  0  0  0  0  0
   -1.6509   -2.2390   -1.3427 H   0  0  0  0  0  0  0  0  0  0  0  0
  1  5  1  0
  5  8  1  0
  1  2  1  0
  1  3  1  0
  1  4  1  0
  5  6  1  0
  5  7  1  0
  8  9  1  0
  8 10  1  0
  8 11  1  0
 12 16  1  0
 16 17  1  0
 12 13  1  0
 12 14  1  0
 12 15  1  0
 17 18  1  0
 17 19  1  0
 17 20  1  0
M  CHG  1   8   1
M  END
>  <PDB_ID>  (132) 
pdb6nff

>  <RESIDUE_NAME>  (132) 
LYS   MET

>  <FRAG_NAME>  (132) 
ETAM   MSM

>  <FRAG_ATOM_NUM>  (132) 
fragi: 11  fragj: 9

>  <atom.prop.CHAIN_ID>  (132) 
A A A A A A A A A A A Z Z Z Z Z Z Z Z Z

>  <atom.prop.IS_HEAVY_ATOM>  (132) 
1 0 0 0 1 0 0 1 0 0 0 1 0 0 0 1 1 0 0 0

>  <DIFUSE_FUNC_ATOM>  (132) 
n/a

>  <FINAL_SINGLE_POINT_ENERGY>  (132) 
0

>  <NONCOV_INTER_ENERGY_QM>  (132) 
0

>  <FF_Energy>  (132) 
-4.96

>  <QM_Energy>  (132) 
-15.72

>  <source>  (132) 
ETAM_MSM

>  <Index>  (132) 
10930

$$$$
ETAM-pdb6nlx-A-LYS-190:MSM-pdb6nlx-D-MET-35
     RDKit          3D

 20 18  0  0  0  0  0  0  0  0999 V2000
    1.2326    0.8766   -0.0000 C   0  0  0  0  0  0  0  0  0  0  0  0
    1.2125    1.4558    0.8168 H   0  0  0  0  0  0  0  0  0  0  0  0
    1.2120    1.4561   -0.8163 H   0  0  0  0  0  0  0  0  0  0  0  0
    2.1586    0.3015    0.0003 H   0  0  0  0  0  0  0  0  0  0  0  0
    0.0000    0.0000    0.0000 C   0  0  0  0  0  0  0  0  0  0  0  0
    0.0099   -0.5785   -0.8160 H   0  0  0  0  0  0  0  0  0  0  0  0
    0.0094   -0.5789    0.8157 H   0  0  0  0  0  0  0  0  0  0  0  0
   -1.2326    0.8260   -0.0000 N   0  0  0  0  0  4  0  0  0  0  0  0
   -2.0348    0.2271    0.0162 H   0  0  0  0  0  0  0  0  0  0  0  0
   -1.2405    1.4143    0.8089 H   0  0  0  0  0  0  0  0  0  0  0  0
   -1.2560    1.3911   -0.8247 H   0  0  0  0  0  0  0  0  0  0  0  0
   -2.5912   -3.1708    0.0227 C   0  0  0  0  0  0  0  0  0  0  0  0
   -3.4643   -3.2434   -0.4594 H   0  0  0  0  0  0  0  0  0  0  0  0
   -2.3979   -4.0325    0.4925 H   0  0  0  0  0  0  0  0  0  0  0  0
   -1.7929   -2.9406   -0.6827 H   0  0  0  0  0  0  0  0  0  0  0  0
   -2.6600   -1.8019    1.2348 S   0  0  0  0  0  0  0  0  0  0  0  0
   -1.0018   -1.9081    1.9151 C   0  0  0  0  0  0  0  0  0  0  0  0
   -0.9596   -2.6586    2.5752 H   0  0  0  0  0  0  0  0  0  0  0  0
   -0.3488   -2.0765    1.1772 H   0  0  0  0  0  0  0  0  0  0  0  0
   -0.7736   -1.0492    2.3737 H   0  0  0  0  0  0  0  0  0  0  0  0
  1  5  1  0
  5  8  1  0
  1  2  1  0
  1  3  1  0
  1  4  1  0
  5  6  1  0
  5  7  1  0
  8  9  1  0
  8 10  1  0
  8 11  1  0
 12 16  1  0
 16 17  1  0
 12 13  1  0
 12 14  1  0
 12 15  1  0
 17 18  1  0
 17 19  1  0
 17 20  1  0
M  CHG  1   8   1
M  END
>  <PDB_ID>  (133) 
pdb6nlx

>  <RESIDUE_NAME>  (133) 
LYS   MET

>  <FRAG_NAME>  (133) 
ETAM   MSM

>  <FRAG_ATOM_NUM>  (133) 
fragi: 11  fragj: 9

>  <atom.prop.CHAIN_ID>  (133) 
A A A A A A A A A A A Z Z Z Z Z Z Z Z Z

>  <atom.prop.IS_HEAVY_ATOM>  (133) 
1 0 0 0 1 0 0 1 0 0 0 1 0 0 0 1 1 0 0 0

>  <DIFUSE_FUNC_ATOM>  (133) 
n/a

>  <FINAL_SINGLE_POINT_ENERGY>  (133) 
0

>  <NONCOV_INTER_ENERGY_QM>  (133) 
0

>  <FF_Energy>  (133) 
44.24

>  <QM_Energy>  (133) 
-4.16

>  <source>  (133) 
ETAM_MSM

>  <Index>  (133) 
10937

$$$$
ETAM-pdb6pcx-A-LYS-314:MSM-pdb6pcx-A-MET-925
     RDKit          3D

 20 18  0  0  0  0  0  0  0  0999 V2000
    1.2506    0.8533    0.0000 C   0  0  0  0  0  0  0  0  0  0  0  0
    1.2479    1.4168   -0.8326 H   0  0  0  0  0  0  0  0  0  0  0  0
    2.0491    0.2432   -0.0265 H   0  0  0  0  0  0  0  0  0  0  0  0
    1.3288    1.5049    0.8703 H   0  0  0  0  0  0  0  0  0  0  0  0
    0.0000    0.0000    0.0000 C   0  0  0  0  0  0  0  0  0  0  0  0
    0.0141   -0.5977   -0.8165 H   0  0  0  0  0  0  0  0  0  0  0  0
    0.0132   -0.5974    0.8164 H   0  0  0  0  0  0  0  0  0  0  0  0
   -1.2506    0.7918   -0.0000 N   0  0  0  0  0  4  0  0  0  0  0  0
   -1.9908    0.2502    0.4012 H   0  0  0  0  0  0  0  0  0  0  0  0
   -1.1200    1.6256    0.5381 H   0  0  0  0  0  0  0  0  0  0  0  0
   -1.4914    1.0382   -0.9399 H   0  0  0  0  0  0  0  0  0  0  0  0
   -2.8887    2.8763    3.2198 C   0  0  0  0  0  0  0  0  0  0  0  0
   -2.2252    2.7136    3.9877 H   0  0  0  0  0  0  0  0  0  0  0  0
   -3.3552    1.9728    3.0704 H   0  0  0  0  0  0  0  0  0  0  0  0
   -3.6312    3.6037    3.5483 H   0  0  0  0  0  0  0  0  0  0  0  0
   -2.0153    3.3918    1.7268 S   0  0  0  0  0  0  0  0  0  0  0  0
   -0.8721    4.5815    2.4260 C   0  0  0  0  0  0  0  0  0  0  0  0
   -0.8882    5.4216    1.8821 H   0  0  0  0  0  0  0  0  0  0  0  0
   -1.1393    4.7901    3.3672 H   0  0  0  0  0  0  0  0  0  0  0  0
    0.0537    4.2006    2.4202 H   0  0  0  0  0  0  0  0  0  0  0  0
  1  5  1  0
  5  8  1  0
  1  2  1  0
  1  3  1  0
  1  4  1  0
  5  6  1  0
  5  7  1  0
  8  9  1  0
  8 10  1  0
  8 11  1  0
 12 16  1  0
 16 17  1  0
 12 13  1  0
 12 14  1  0
 12 15  1  0
 17 18  1  0
 17 19  1  0
 17 20  1  0
M  CHG  1   8   1
M  END
>  <PDB_ID>  (134) 
pdb6pcx

>  <RESIDUE_NAME>  (134) 
LYS   MET

>  <FRAG_NAME>  (134) 
ETAM   MSM

>  <FRAG_ATOM_NUM>  (134) 
fragi: 11  fragj: 9

>  <atom.prop.CHAIN_ID>  (134) 
A A A A A A A A A A A Z Z Z Z Z Z Z Z Z

>  <atom.prop.IS_HEAVY_ATOM>  (134) 
1 0 0 0 1 0 0 1 0 0 0 1 0 0 0 1 1 0 0 0

>  <DIFUSE_FUNC_ATOM>  (134) 
n/a

>  <FINAL_SINGLE_POINT_ENERGY>  (134) 
0

>  <NONCOV_INTER_ENERGY_QM>  (134) 
0

>  <FF_Energy>  (134) 
-5.41

>  <QM_Energy>  (134) 
-15.77

>  <source>  (134) 
ETAM_MSM

>  <Index>  (134) 
11136

$$$$
ETAM-pdb6s7j-A-LYS-177:MSM-pdb6s7j-A-MET-169
     RDKit          3D

 20 18  0  0  0  0  0  0  0  0999 V2000
    1.2614    0.8639   -0.0000 C   0  0  0  0  0  0  0  0  0  0  0  0
    1.2788    1.3958    0.8371 H   0  0  0  0  0  0  0  0  0  0  0  0
    1.2374    1.4553   -0.7950 H   0  0  0  0  0  0  0  0  0  0  0  0
    2.1591    0.2471   -0.0449 H   0  0  0  0  0  0  0  0  0  0  0  0
    0.0000    0.0000    0.0000 C   0  0  0  0  0  0  0  0  0  0  0  0
    0.0127   -0.5896   -0.8159 H   0  0  0  0  0  0  0  0  0  0  0  0
    0.0123   -0.5895    0.8159 H   0  0  0  0  0  0  0  0  0  0  0  0
   -1.2614    0.8047    0.0000 N   0  0  0  0  0  4  0  0  0  0  0  0
   -1.0802    1.6975   -0.4089 H   0  0  0  0  0  0  0  0  0  0  0  0
   -1.9570    0.3238   -0.5317 H   0  0  0  0  0  0  0  0  0  0  0  0
   -1.5759    0.9208    0.9408 H   0  0  0  0  0  0  0  0  0  0  0  0
   -2.5662    2.3135    4.2022 C   0  0  0  0  0  0  0  0  0  0  0  0
   -2.5912    3.2914    4.4922 H   0  0  0  0  0  0  0  0  0  0  0  0
   -2.0772    1.8085    4.9418 H   0  0  0  0  0  0  0  0  0  0  0  0
   -3.5908    1.9447    4.1531 H   0  0  0  0  0  0  0  0  0  0  0  0
   -1.7185    2.1291    2.6266 S   0  0  0  0  0  0  0  0  0  0  0  0
   -2.5881    3.3764    1.6549 C   0  0  0  0  0  0  0  0  0  0  0  0
   -2.3062    4.2853    1.9578 H   0  0  0  0  0  0  0  0  0  0  0  0
   -2.3619    3.2579    0.6893 H   0  0  0  0  0  0  0  0  0  0  0  0
   -3.5725    3.2685    1.7864 H   0  0  0  0  0  0  0  0  0  0  0  0
  1  5  1  0
  5  8  1  0
  1  2  1  0
  1  3  1  0
  1  4  1  0
  5  6  1  0
  5  7  1  0
  8  9  1  0
  8 10  1  0
  8 11  1  0
 12 16  1  0
 16 17  1  0
 12 13  1  0
 12 14  1  0
 12 15  1  0
 17 18  1  0
 17 19  1  0
 17 20  1  0
M  CHG  1   8   1
M  END
>  <PDB_ID>  (135) 
pdb6s7j

>  <RESIDUE_NAME>  (135) 
LYS   MET

>  <FRAG_NAME>  (135) 
ETAM   MSM

>  <FRAG_ATOM_NUM>  (135) 
fragi: 11  fragj: 9

>  <atom.prop.CHAIN_ID>  (135) 
A A A A A A A A A A A Z Z Z Z Z Z Z Z Z

>  <atom.prop.IS_HEAVY_ATOM>  (135) 
1 0 0 0 1 0 0 1 0 0 0 1 0 0 0 1 1 0 0 0

>  <DIFUSE_FUNC_ATOM>  (135) 
n/a

>  <FINAL_SINGLE_POINT_ENERGY>  (135) 
0

>  <NONCOV_INTER_ENERGY_QM>  (135) 
0

>  <FF_Energy>  (135) 
-2.45

>  <QM_Energy>  (135) 
-13.14

>  <source>  (135) 
ETAM_MSM

>  <Index>  (135) 
11348

$$$$
ETAM-pdb5naf-C-LYS-343:MSM-pdb5naf-C-MET-378
     RDKit          3D

 20 18  0  0  0  0  0  0  0  0999 V2000
    1.2319    0.8750   -0.0000 C   0  0  0  0  0  0  0  0  0  0  0  0
    1.2161    1.4524    0.8163 H   0  0  0  0  0  0  0  0  0  0  0  0
    1.2158    1.4522   -0.8170 H   0  0  0  0  0  0  0  0  0  0  0  0
    2.1559    0.2968    0.0002 H   0  0  0  0  0  0  0  0  0  0  0  0
    0.0000    0.0000    0.0000 C   0  0  0  0  0  0  0  0  0  0  0  0
    0.0078   -0.5781   -0.8166 H   0  0  0  0  0  0  0  0  0  0  0  0
    0.0071   -0.5780    0.8166 H   0  0  0  0  0  0  0  0  0  0  0  0
   -1.2319    0.8290    0.0000 N   0  0  0  0  0  4  0  0  0  0  0  0
   -0.9897    1.7859   -0.1621 H   0  0  0  0  0  0  0  0  0  0  0  0
   -1.8460    0.5140   -0.7241 H   0  0  0  0  0  0  0  0  0  0  0  0
   -1.6892    0.7460    0.8857 H   0  0  0  0  0  0  0  0  0  0  0  0
    0.4657    3.0864    4.0803 C   0  0  0  0  0  0  0  0  0  0  0  0
   -0.1489    3.8697    3.9915 H   0  0  0  0  0  0  0  0  0  0  0  0
    1.1079    3.2499    4.8293 H   0  0  0  0  0  0  0  0  0  0  0  0
   -0.1096    2.1808    4.2728 H   0  0  0  0  0  0  0  0  0  0  0  0
    1.3801    2.8293    2.5174 S   0  0  0  0  0  0  0  0  0  0  0  0
    2.3634    1.3950    2.9664 C   0  0  0  0  0  0  0  0  0  0  0  0
    3.2737    1.4742    2.5586 H   0  0  0  0  0  0  0  0  0  0  0  0
    2.4473    1.3470    3.9622 H   0  0  0  0  0  0  0  0  0  0  0  0
    1.9175    0.5661    2.6286 H   0  0  0  0  0  0  0  0  0  0  0  0
  1  5  1  0
  5  8  1  0
  1  2  1  0
  1  3  1  0
  1  4  1  0
  5  6  1  0
  5  7  1  0
  8  9  1  0
  8 10  1  0
  8 11  1  0
 12 16  1  0
 16 17  1  0
 12 13  1  0
 12 14  1  0
 12 15  1  0
 17 18  1  0
 17 19  1  0
 17 20  1  0
M  CHG  1   8   1
M  END
>  <PDB_ID>  (136) 
pdb5naf

>  <RESIDUE_NAME>  (136) 
LYS   MET

>  <FRAG_NAME>  (136) 
ETAM   MSM

>  <FRAG_ATOM_NUM>  (136) 
fragi: 11  fragj: 9

>  <atom.prop.CHAIN_ID>  (136) 
A A A A A A A A A A A Z Z Z Z Z Z Z Z Z

>  <atom.prop.IS_HEAVY_ATOM>  (136) 
1 0 0 0 1 0 0 1 0 0 0 1 0 0 0 1 1 0 0 0

>  <DIFUSE_FUNC_ATOM>  (136) 
n/a

>  <FINAL_SINGLE_POINT_ENERGY>  (136) 
0

>  <NONCOV_INTER_ENERGY_QM>  (136) 
0

>  <FF_Energy>  (136) 
13.97

>  <QM_Energy>  (136) 
-3.15

>  <source>  (136) 
ETAM_MSM

>  <Index>  (136) 
11358

$$$$
ETAM-pdb5naf-D-LYS-343:MSM-pdb5naf-D-MET-378
     RDKit          3D

 20 18  0  0  0  0  0  0  0  0999 V2000
    1.2324    0.8752   -0.0000 C   0  0  0  0  0  0  0  0  0  0  0  0
    1.2153    1.4529    0.8164 H   0  0  0  0  0  0  0  0  0  0  0  0
    1.2154    1.4531   -0.8164 H   0  0  0  0  0  0  0  0  0  0  0  0
    2.1565    0.2972    0.0006 H   0  0  0  0  0  0  0  0  0  0  0  0
    0.0000    0.0000    0.0000 C   0  0  0  0  0  0  0  0  0  0  0  0
    0.0074   -0.5780   -0.8166 H   0  0  0  0  0  0  0  0  0  0  0  0
    0.0073   -0.5782    0.8163 H   0  0  0  0  0  0  0  0  0  0  0  0
   -1.2324    0.8289   -0.0000 N   0  0  0  0  0  4  0  0  0  0  0  0
   -1.8384    0.5249   -0.7350 H   0  0  0  0  0  0  0  0  0  0  0  0
   -1.6984    0.7324    0.8792 H   0  0  0  0  0  0  0  0  0  0  0  0
   -0.9881    1.7888   -0.1447 H   0  0  0  0  0  0  0  0  0  0  0  0
   -0.3700    5.3195   -0.0569 C   0  0  0  0  0  0  0  0  0  0  0  0
   -0.9866    5.4872   -0.8263 H   0  0  0  0  0  0  0  0  0  0  0  0
    0.0886    6.1716    0.1934 H   0  0  0  0  0  0  0  0  0  0  0  0
   -0.9300    4.9308    0.7936 H   0  0  0  0  0  0  0  0  0  0  0  0
    0.8698    4.0550   -0.5159 S   0  0  0  0  0  0  0  0  0  0  0  0
    1.7999    3.9621    1.0173 C   0  0  0  0  0  0  0  0  0  0  0  0
    1.7630    3.0284    1.3741 H   0  0  0  0  0  0  0  0  0  0  0  0
    2.7520    4.2166    0.8457 H   0  0  0  0  0  0  0  0  0  0  0  0
    1.4033    4.5909    1.6860 H   0  0  0  0  0  0  0  0  0  0  0  0
  1  5  1  0
  5  8  1  0
  1  2  1  0
  1  3  1  0
  1  4  1  0
  5  6  1  0
  5  7  1  0
  8  9  1  0
  8 10  1  0
  8 11  1  0
 12 16  1  0
 16 17  1  0
 12 13  1  0
 12 14  1  0
 12 15  1  0
 17 18  1  0
 17 19  1  0
 17 20  1  0
M  CHG  1   8   1
M  END
>  <PDB_ID>  (137) 
pdb5naf

>  <RESIDUE_NAME>  (137) 
LYS   MET

>  <FRAG_NAME>  (137) 
ETAM   MSM

>  <FRAG_ATOM_NUM>  (137) 
fragi: 11  fragj: 9

>  <atom.prop.CHAIN_ID>  (137) 
A A A A A A A A A A A Z Z Z Z Z Z Z Z Z

>  <atom.prop.IS_HEAVY_ATOM>  (137) 
1 0 0 0 1 0 0 1 0 0 0 1 0 0 0 1 1 0 0 0

>  <DIFUSE_FUNC_ATOM>  (137) 
n/a

>  <FINAL_SINGLE_POINT_ENERGY>  (137) 
0

>  <NONCOV_INTER_ENERGY_QM>  (137) 
0

>  <FF_Energy>  (137) 
3.01

>  <QM_Energy>  (137) 
-7.58

>  <source>  (137) 
ETAM_MSM

>  <Index>  (137) 
11359

$$$$
ETAM-pdb6uds-B-LYS-167:MSM-pdb6uds-A-MET-243
     RDKit          3D

 20 18  0  0  0  0  0  0  0  0999 V2000
    1.2320    0.8926   -0.0000 C   0  0  0  0  0  0  0  0  0  0  0  0
    2.0211    0.3344    0.0804 H   0  0  0  0  0  0  0  0  0  0  0  0
    1.1771    1.4990    0.7549 H   0  0  0  0  0  0  0  0  0  0  0  0
    1.2805    1.4645   -0.9267 H   0  0  0  0  0  0  0  0  0  0  0  0
    0.0000    0.0000    0.0000 C   0  0  0  0  0  0  0  0  0  0  0  0
    0.0277   -0.5580   -0.7912 H   0  0  0  0  0  0  0  0  0  0  0  0
    0.0001   -0.5537    0.7954 H   0  0  0  0  0  0  0  0  0  0  0  0
   -1.2320    0.8300    0.0000 N   0  0  0  0  0  4  0  0  0  0  0  0
   -1.6002    0.8802   -0.9282 H   0  0  0  0  0  0  0  0  0  0  0  0
   -1.9111    0.4175    0.6073 H   0  0  0  0  0  0  0  0  0  0  0  0
   -1.0118    1.7514    0.3222 H   0  0  0  0  0  0  0  0  0  0  0  0
   -4.1037    2.3193   -1.8079 C   0  0  0  0  0  0  0  0  0  0  0  0
   -4.5102    3.1106   -2.1931 H   0  0  0  0  0  0  0  0  0  0  0  0
   -3.9736    2.4435   -0.8549 H   0  0  0  0  0  0  0  0  0  0  0  0
   -4.7635    1.4665   -1.9676 H   0  0  0  0  0  0  0  0  0  0  0  0
   -2.4864    2.0957   -2.5680 S   0  0  0  0  0  0  0  0  0  0  0  0
   -1.6851    3.6229   -2.0899 C   0  0  0  0  0  0  0  0  0  0  0  0
   -0.7804    3.6273   -2.4400 H   0  0  0  0  0  0  0  0  0  0  0  0
   -2.1853    4.3689   -2.4542 H   0  0  0  0  0  0  0  0  0  0  0  0
   -1.6652    3.6787   -1.1218 H   0  0  0  0  0  0  0  0  0  0  0  0
  1  5  1  0
  5  8  1  0
  1  2  1  0
  1  3  1  0
  1  4  1  0
  5  6  1  0
  5  7  1  0
  8  9  1  0
  8 10  1  0
  8 11  1  0
 12 16  1  0
 16 17  1  0
 12 13  1  0
 12 14  1  0
 12 15  1  0
 17 18  1  0
 17 19  1  0
 17 20  1  0
M  CHG  1   8   1
M  END
>  <PDB_ID>  (138) 
pdb6uds

>  <RESIDUE_NAME>  (138) 
LYS   MET

>  <FRAG_NAME>  (138) 
ETAM   MSM

>  <FRAG_ATOM_NUM>  (138) 
fragi: 11  fragj: 9

>  <atom.prop.CHAIN_ID>  (138) 
A A A A A A A A A A A Z Z Z Z Z Z Z Z Z

>  <atom.prop.IS_HEAVY_ATOM>  (138) 
1 0 0 0 1 0 0 1 0 0 0 1 0 0 0 1 1 0 0 0

>  <DIFUSE_FUNC_ATOM>  (138) 
n/a

>  <FINAL_SINGLE_POINT_ENERGY>  (138) 
0

>  <NONCOV_INTER_ENERGY_QM>  (138) 
0

>  <FF_Energy>  (138) 
-3.6

>  <QM_Energy>  (138) 
-14.5

>  <source>  (138) 
ETAM_MSM

>  <Index>  (138) 
11371

$$$$
ETAM-pdb5nmw-B-LYS-110:MSM-pdb5nmw-B-MET-28
     RDKit          3D

 20 18  0  0  0  0  0  0  0  0999 V2000
    1.2257    0.8536   -0.0000 C   0  0  0  0  0  0  0  0  0  0  0  0
    1.7712    0.6319    0.8069 H   0  0  0  0  0  0  0  0  0  0  0  0
    0.9490    1.8123    0.0335 H   0  0  0  0  0  0  0  0  0  0  0  0
    1.8198    0.6791   -0.8971 H   0  0  0  0  0  0  0  0  0  0  0  0
    0.0000    0.0000    0.0000 C   0  0  0  0  0  0  0  0  0  0  0  0
    0.0098   -0.5946   -0.8165 H   0  0  0  0  0  0  0  0  0  0  0  0
    0.0105   -0.5943    0.8164 H   0  0  0  0  0  0  0  0  0  0  0  0
   -1.2257    0.8009    0.0000 N   0  0  0  0  0  4  0  0  0  0  0  0
   -1.4424    1.0973   -0.9339 H   0  0  0  0  0  0  0  0  0  0  0  0
   -1.9920    0.2573    0.3546 H   0  0  0  0  0  0  0  0  0  0  0  0
   -1.1067    1.6119    0.5790 H   0  0  0  0  0  0  0  0  0  0  0  0
    3.6514   -2.0925    1.8330 C   0  0  0  0  0  0  0  0  0  0  0  0
    4.3813   -1.3656    1.6432 H   0  0  0  0  0  0  0  0  0  0  0  0
    3.2894   -2.3041    0.8736 H   0  0  0  0  0  0  0  0  0  0  0  0
    4.1533   -2.9837    2.2097 H   0  0  0  0  0  0  0  0  0  0  0  0
    2.3677   -1.4434    2.8609 S   0  0  0  0  0  0  0  0  0  0  0  0
    0.9344   -2.3173    2.3533 C   0  0  0  0  0  0  0  0  0  0  0  0
    0.3644   -1.7450    1.7508 H   0  0  0  0  0  0  0  0  0  0  0  0
    1.1885   -3.1519    1.8498 H   0  0  0  0  0  0  0  0  0  0  0  0
    0.3816   -2.5851    3.1515 H   0  0  0  0  0  0  0  0  0  0  0  0
  1  5  1  0
  5  8  1  0
  1  2  1  0
  1  3  1  0
  1  4  1  0
  5  6  1  0
  5  7  1  0
  8  9  1  0
  8 10  1  0
  8 11  1  0
 12 16  1  0
 16 17  1  0
 12 13  1  0
 12 14  1  0
 12 15  1  0
 17 18  1  0
 17 19  1  0
 17 20  1  0
M  CHG  1   8   1
M  END
>  <PDB_ID>  (139) 
pdb5nmw

>  <RESIDUE_NAME>  (139) 
LYS   MET

>  <FRAG_NAME>  (139) 
ETAM   MSM

>  <FRAG_ATOM_NUM>  (139) 
fragi: 11  fragj: 9

>  <atom.prop.CHAIN_ID>  (139) 
A A A A A A A A A A A Z Z Z Z Z Z Z Z Z

>  <atom.prop.IS_HEAVY_ATOM>  (139) 
1 0 0 0 1 0 0 1 0 0 0 1 0 0 0 1 1 0 0 0

>  <DIFUSE_FUNC_ATOM>  (139) 
n/a

>  <FINAL_SINGLE_POINT_ENERGY>  (139) 
0

>  <NONCOV_INTER_ENERGY_QM>  (139) 
0

>  <FF_Energy>  (139) 
24.02

>  <QM_Energy>  (139) 
-0.06

>  <source>  (139) 
ETAM_MSM

>  <Index>  (139) 
11434

$$$$
ETAM-pdb5ur2-C-LYS-113:MSM-pdb5ur2-C-MET-109
     RDKit          3D

 20 18  0  0  0  0  0  0  0  0999 V2000
    1.2331    0.8751    0.0000 C   0  0  0  0  0  0  0  0  0  0  0  0
    1.2140    1.4546    0.8167 H   0  0  0  0  0  0  0  0  0  0  0  0
    1.2131    1.4544   -0.8160 H   0  0  0  0  0  0  0  0  0  0  0  0
    2.1584    0.2989    0.0003 H   0  0  0  0  0  0  0  0  0  0  0  0
    0.0000    0.0000    0.0000 C   0  0  0  0  0  0  0  0  0  0  0  0
    0.0083   -0.5780   -0.8163 H   0  0  0  0  0  0  0  0  0  0  0  0
    0.0077   -0.5784    0.8170 H   0  0  0  0  0  0  0  0  0  0  0  0
   -1.2331    0.8272   -0.0000 N   0  0  0  0  0  4  0  0  0  0  0  0
   -1.0793    1.6541    0.5420 H   0  0  0  0  0  0  0  0  0  0  0  0
   -1.4638    1.0818   -0.9384 H   0  0  0  0  0  0  0  0  0  0  0  0
   -1.9861    0.3031    0.3981 H   0  0  0  0  0  0  0  0  0  0  0  0
   -0.2476   -1.6202    2.7276 C   0  0  0  0  0  0  0  0  0  0  0  0
    0.3423   -1.9416    1.9853 H   0  0  0  0  0  0  0  0  0  0  0  0
   -1.2048   -1.6876    2.4425 H   0  0  0  0  0  0  0  0  0  0  0  0
   -0.0807   -2.2185    3.6232 H   0  0  0  0  0  0  0  0  0  0  0  0
    0.1591    0.1139    3.1410 S   0  0  0  0  0  0  0  0  0  0  0  0
   -1.0196    0.3996    4.4660 C   0  0  0  0  0  0  0  0  0  0  0  0
   -1.8956    0.6859    4.0779 H   0  0  0  0  0  0  0  0  0  0  0  0
   -1.1462   -0.4450    4.9875 H   0  0  0  0  0  0  0  0  0  0  0  0
   -0.6733    1.1166    5.0718 H   0  0  0  0  0  0  0  0  0  0  0  0
  1  5  1  0
  5  8  1  0
  1  2  1  0
  1  3  1  0
  1  4  1  0
  5  6  1  0
  5  7  1  0
  8  9  1  0
  8 10  1  0
  8 11  1  0
 12 16  1  0
 16 17  1  0
 12 13  1  0
 12 14  1  0
 12 15  1  0
 17 18  1  0
 17 19  1  0
 17 20  1  0
M  CHG  1   8   1
M  END
>  <PDB_ID>  (140) 
pdb5ur2

>  <RESIDUE_NAME>  (140) 
LYS   MET

>  <FRAG_NAME>  (140) 
ETAM   MSM

>  <FRAG_ATOM_NUM>  (140) 
fragi: 11  fragj: 9

>  <atom.prop.CHAIN_ID>  (140) 
A A A A A A A A A A A Z Z Z Z Z Z Z Z Z

>  <atom.prop.IS_HEAVY_ATOM>  (140) 
1 0 0 0 1 0 0 1 0 0 0 1 0 0 0 1 1 0 0 0

>  <DIFUSE_FUNC_ATOM>  (140) 
n/a

>  <FINAL_SINGLE_POINT_ENERGY>  (140) 
0

>  <NONCOV_INTER_ENERGY_QM>  (140) 
0

>  <FF_Energy>  (140) 
12.61

>  <QM_Energy>  (140) 
-6.22

>  <source>  (140) 
ETAM_MSM

>  <Index>  (140) 
11735

$$$$
ETAM-pdb5uxw-A-LYS-183:MSM-pdb5uxw-A-MET-179
     RDKit          3D

 20 18  0  0  0  0  0  0  0  0999 V2000
    1.2322    0.8768    0.0000 C   0  0  0  0  0  0  0  0  0  0  0  0
    1.2142    1.4554    0.8165 H   0  0  0  0  0  0  0  0  0  0  0  0
    1.2143    1.4545   -0.8170 H   0  0  0  0  0  0  0  0  0  0  0  0
    2.1570    0.2999    0.0011 H   0  0  0  0  0  0  0  0  0  0  0  0
    0.0000    0.0000    0.0000 C   0  0  0  0  0  0  0  0  0  0  0  0
    0.0078   -0.5783   -0.8157 H   0  0  0  0  0  0  0  0  0  0  0  0
    0.0084   -0.5775    0.8171 H   0  0  0  0  0  0  0  0  0  0  0  0
   -1.2322    0.8277   -0.0000 N   0  0  0  0  0  4  0  0  0  0  0  0
   -1.1457    1.5549   -0.6823 H   0  0  0  0  0  0  0  0  0  0  0  0
   -2.0199    0.2532   -0.2246 H   0  0  0  0  0  0  0  0  0  0  0  0
   -1.3624    1.2331    0.9054 H   0  0  0  0  0  0  0  0  0  0  0  0
    0.6354    1.8424    2.9813 C   0  0  0  0  0  0  0  0  0  0  0  0
    1.3346    2.5704    2.8050 H   0  0  0  0  0  0  0  0  0  0  0  0
    0.8383    1.0949    2.3108 H   0  0  0  0  0  0  0  0  0  0  0  0
    0.7799    1.4566    3.9904 H   0  0  0  0  0  0  0  0  0  0  0  0
   -1.0275    2.4840    2.7335 S   0  0  0  0  0  0  0  0  0  0  0  0
   -0.9271    4.0412    3.5568 C   0  0  0  0  0  0  0  0  0  0  0  0
   -0.4265    3.9456    4.4240 H   0  0  0  0  0  0  0  0  0  0  0  0
   -0.4459    4.7103    2.9807 H   0  0  0  0  0  0  0  0  0  0  0  0
   -1.8491    4.3912    3.7549 H   0  0  0  0  0  0  0  0  0  0  0  0
  1  5  1  0
  5  8  1  0
  1  2  1  0
  1  3  1  0
  1  4  1  0
  5  6  1  0
  5  7  1  0
  8  9  1  0
  8 10  1  0
  8 11  1  0
 12 16  1  0
 16 17  1  0
 12 13  1  0
 12 14  1  0
 12 15  1  0
 17 18  1  0
 17 19  1  0
 17 20  1  0
M  CHG  1   8   1
M  END
>  <PDB_ID>  (141) 
pdb5uxw

>  <RESIDUE_NAME>  (141) 
LYS   MET

>  <FRAG_NAME>  (141) 
ETAM   MSM

>  <FRAG_ATOM_NUM>  (141) 
fragi: 11  fragj: 9

>  <atom.prop.CHAIN_ID>  (141) 
A A A A A A A A A A A Z Z Z Z Z Z Z Z Z

>  <atom.prop.IS_HEAVY_ATOM>  (141) 
1 0 0 0 1 0 0 1 0 0 0 1 0 0 0 1 1 0 0 0

>  <DIFUSE_FUNC_ATOM>  (141) 
n/a

>  <FINAL_SINGLE_POINT_ENERGY>  (141) 
0

>  <NONCOV_INTER_ENERGY_QM>  (141) 
0

>  <FF_Energy>  (141) 
14.86

>  <QM_Energy>  (141) 
-7.9

>  <source>  (141) 
ETAM_MSM

>  <Index>  (141) 
11749

$$$$
ETAM-pdb5vm2-B-LYS-167:MSM-pdb5vm2-A-MET-162
     RDKit          3D

 20 18  0  0  0  0  0  0  0  0999 V2000
    1.2536    0.8682   -0.0000 C   0  0  0  0  0  0  0  0  0  0  0  0
    1.1531    1.5714    0.7044 H   0  0  0  0  0  0  0  0  0  0  0  0
    1.3366    1.3045   -0.8962 H   0  0  0  0  0  0  0  0  0  0  0  0
    2.1645    0.3039    0.1997 H   0  0  0  0  0  0  0  0  0  0  0  0
    0.0000    0.0000    0.0000 C   0  0  0  0  0  0  0  0  0  0  0  0
    0.0086   -0.5837   -0.8166 H   0  0  0  0  0  0  0  0  0  0  0  0
    0.0086   -0.5842    0.8162 H   0  0  0  0  0  0  0  0  0  0  0  0
   -1.2536    0.8184    0.0000 N   0  0  0  0  0  4  0  0  0  0  0  0
   -1.2862    1.3667   -0.8338 H   0  0  0  0  0  0  0  0  0  0  0  0
   -2.0427    0.2079    0.0356 H   0  0  0  0  0  0  0  0  0  0  0  0
   -1.2535    1.4170    0.7985 H   0  0  0  0  0  0  0  0  0  0  0  0
   -1.2634    3.1112    3.8478 C   0  0  0  0  0  0  0  0  0  0  0  0
   -0.7563    3.7323    4.4746 H   0  0  0  0  0  0  0  0  0  0  0  0
   -1.8484    2.5187    4.4344 H   0  0  0  0  0  0  0  0  0  0  0  0
   -1.9067    3.7126    3.2056 H   0  0  0  0  0  0  0  0  0  0  0  0
   -0.1344    2.1280    2.8667 S   0  0  0  0  0  0  0  0  0  0  0  0
    0.2868    0.8433    4.0375 C   0  0  0  0  0  0  0  0  0  0  0  0
   -0.3835    0.8325    4.7819 H   0  0  0  0  0  0  0  0  0  0  0  0
    0.2848   -0.0465    3.5771 H   0  0  0  0  0  0  0  0  0  0  0  0
    1.1975    1.0171    4.4156 H   0  0  0  0  0  0  0  0  0  0  0  0
  1  5  1  0
  5  8  1  0
  1  2  1  0
  1  3  1  0
  1  4  1  0
  5  6  1  0
  5  7  1  0
  8  9  1  0
  8 10  1  0
  8 11  1  0
 12 16  1  0
 16 17  1  0
 12 13  1  0
 12 14  1  0
 12 15  1  0
 17 18  1  0
 17 19  1  0
 17 20  1  0
M  CHG  1   8   1
M  END
>  <PDB_ID>  (142) 
pdb5vm2

>  <RESIDUE_NAME>  (142) 
LYS   MET

>  <FRAG_NAME>  (142) 
ETAM   MSM

>  <FRAG_ATOM_NUM>  (142) 
fragi: 11  fragj: 9

>  <atom.prop.CHAIN_ID>  (142) 
A A A A A A A A A A A Z Z Z Z Z Z Z Z Z

>  <atom.prop.IS_HEAVY_ATOM>  (142) 
1 0 0 0 1 0 0 1 0 0 0 1 0 0 0 1 1 0 0 0

>  <DIFUSE_FUNC_ATOM>  (142) 
n/a

>  <FINAL_SINGLE_POINT_ENERGY>  (142) 
0

>  <NONCOV_INTER_ENERGY_QM>  (142) 
0

>  <FF_Energy>  (142) 
-4.02

>  <QM_Energy>  (142) 
-15.78

>  <source>  (142) 
ETAM_MSM

>  <Index>  (142) 
11815

$$$$
ETAM-pdb5w62-A-LYS-189:MSM-pdb5w62-A-MET-79
     RDKit          3D

 20 18  0  0  0  0  0  0  0  0999 V2000
    1.2323    0.8743   -0.0000 C   0  0  0  0  0  0  0  0  0  0  0  0
    1.2154    1.4526    0.8169 H   0  0  0  0  0  0  0  0  0  0  0  0
    1.2150    1.4532   -0.8165 H   0  0  0  0  0  0  0  0  0  0  0  0
    2.1569    0.2971   -0.0004 H   0  0  0  0  0  0  0  0  0  0  0  0
    0.0000    0.0000    0.0000 C   0  0  0  0  0  0  0  0  0  0  0  0
    0.0075   -0.5783   -0.8163 H   0  0  0  0  0  0  0  0  0  0  0  0
    0.0078   -0.5792    0.8157 H   0  0  0  0  0  0  0  0  0  0  0  0
   -1.2323    0.8282   -0.0000 N   0  0  0  0  0  4  0  0  0  0  0  0
   -1.0023    1.7673    0.2584 H   0  0  0  0  0  0  0  0  0  0  0  0
   -1.6375    0.8240   -0.9140 H   0  0  0  0  0  0  0  0  0  0  0  0
   -1.8862    0.4523    0.6567 H   0  0  0  0  0  0  0  0  0  0  0  0
   -1.9160    3.1773   -2.1724 C   0  0  0  0  0  0  0  0  0  0  0  0
   -1.1445    3.2515   -1.5227 H   0  0  0  0  0  0  0  0  0  0  0  0
   -2.5866    3.8965   -1.9367 H   0  0  0  0  0  0  0  0  0  0  0  0
   -1.5542    3.3314   -3.1889 H   0  0  0  0  0  0  0  0  0  0  0  0
   -2.6726    1.5517   -2.0700 S   0  0  0  0  0  0  0  0  0  0  0  0
   -4.0799    1.7969   -3.1509 C   0  0  0  0  0  0  0  0  0  0  0  0
   -3.8027    2.3401   -3.9444 H   0  0  0  0  0  0  0  0  0  0  0  0
   -4.4238    0.9096   -3.4598 H   0  0  0  0  0  0  0  0  0  0  0  0
   -4.8041    2.2789   -2.6549 H   0  0  0  0  0  0  0  0  0  0  0  0
  1  5  1  0
  5  8  1  0
  1  2  1  0
  1  3  1  0
  1  4  1  0
  5  6  1  0
  5  7  1  0
  8  9  1  0
  8 10  1  0
  8 11  1  0
 12 16  1  0
 16 17  1  0
 12 13  1  0
 12 14  1  0
 12 15  1  0
 17 18  1  0
 17 19  1  0
 17 20  1  0
M  CHG  1   8   1
M  END
>  <PDB_ID>  (143) 
pdb5w62

>  <RESIDUE_NAME>  (143) 
LYS   MET

>  <FRAG_NAME>  (143) 
ETAM   MSM

>  <FRAG_ATOM_NUM>  (143) 
fragi: 11  fragj: 9

>  <atom.prop.CHAIN_ID>  (143) 
A A A A A A A A A A A Z Z Z Z Z Z Z Z Z

>  <atom.prop.IS_HEAVY_ATOM>  (143) 
1 0 0 0 1 0 0 1 0 0 0 1 0 0 0 1 1 0 0 0

>  <DIFUSE_FUNC_ATOM>  (143) 
n/a

>  <FINAL_SINGLE_POINT_ENERGY>  (143) 
0

>  <NONCOV_INTER_ENERGY_QM>  (143) 
0

>  <FF_Energy>  (143) 
17.64

>  <QM_Energy>  (143) 
-0.08

>  <source>  (143) 
ETAM_MSM

>  <Index>  (143) 
11869

$$$$
ETAM-pdb5x20-B-LYS-166:MSM-pdb5x20-B-MET-1
     RDKit          3D

 20 18  0  0  0  0  0  0  0  0999 V2000
    1.2461    0.8701   -0.0000 C   0  0  0  0  0  0  0  0  0  0  0  0
    0.9745    1.8130    0.1599 H   0  0  0  0  0  0  0  0  0  0  0  0
    1.6941    0.7830   -0.8833 H   0  0  0  0  0  0  0  0  0  0  0  0
    1.9420    0.5654    0.7816 H   0  0  0  0  0  0  0  0  0  0  0  0
    0.0000    0.0000    0.0000 C   0  0  0  0  0  0  0  0  0  0  0  0
    0.0110   -0.5845   -0.8162 H   0  0  0  0  0  0  0  0  0  0  0  0
    0.0111   -0.5843    0.8160 H   0  0  0  0  0  0  0  0  0  0  0  0
   -1.2461    0.8151   -0.0000 N   0  0  0  0  0  4  0  0  0  0  0  0
   -2.0125    0.2481    0.3005 H   0  0  0  0  0  0  0  0  0  0  0  0
   -1.1361    1.5882    0.6238 H   0  0  0  0  0  0  0  0  0  0  0  0
   -1.4208    1.1534   -0.9243 H   0  0  0  0  0  0  0  0  0  0  0  0
   -2.0902   -1.1290    3.6820 C   0  0  0  0  0  0  0  0  0  0  0  0
   -2.0626   -0.1289    3.9083 H   0  0  0  0  0  0  0  0  0  0  0  0
   -1.9290   -1.6156    4.5707 H   0  0  0  0  0  0  0  0  0  0  0  0
   -3.0916   -1.3752    3.3289 H   0  0  0  0  0  0  0  0  0  0  0  0
   -0.8090   -1.5475    2.4851 S   0  0  0  0  0  0  0  0  0  0  0  0
    0.6588   -1.4298    3.5050 C   0  0  0  0  0  0  0  0  0  0  0  0
    0.4417   -1.7159    4.4394 H   0  0  0  0  0  0  0  0  0  0  0  0
    1.3742   -2.0237    3.1339 H   0  0  0  0  0  0  0  0  0  0  0  0
    0.9860   -0.4837    3.5149 H   0  0  0  0  0  0  0  0  0  0  0  0
  1  5  1  0
  5  8  1  0
  1  2  1  0
  1  3  1  0
  1  4  1  0
  5  6  1  0
  5  7  1  0
  8  9  1  0
  8 10  1  0
  8 11  1  0
 12 16  1  0
 16 17  1  0
 12 13  1  0
 12 14  1  0
 12 15  1  0
 17 18  1  0
 17 19  1  0
 17 20  1  0
M  CHG  1   8   1
M  END
