ETAM-pdb1zmd-F-LYS-92:MSM-pdb1zmd-F-MET-89
     RDKit          3D

 20 18  0  0  0  0  0  0  0  0999 V2000
    1.2573    0.8870   -0.0000 C   0  0  0  0  0  0  0  0  0  0  0  0
    1.1708    1.5475    0.7470 H   0  0  0  0  0  0  0  0  0  0  0  0
    1.2914    1.3757   -0.8728 H   0  0  0  0  0  0  0  0  0  0  0  0
    2.1836    0.3272    0.1294 H   0  0  0  0  0  0  0  0  0  0  0  0
    0.0000    0.0000    0.0000 C   0  0  0  0  0  0  0  0  0  0  0  0
    0.0159   -0.5778   -0.8156 H   0  0  0  0  0  0  0  0  0  0  0  0
    0.0162   -0.5774    0.8167 H   0  0  0  0  0  0  0  0  0  0  0  0
   -1.2573    0.8180    0.0000 N   0  0  0  0  0  4  0  0  0  0  0  0
   -1.0828    1.6831    0.4639 H   0  0  0  0  0  0  0  0  0  0  0  0
   -1.5345    0.9891   -0.9429 H   0  0  0  0  0  0  0  0  0  0  0  0
   -1.9732    0.3150    0.4785 H   0  0  0  0  0  0  0  0  0  0  0  0
   -1.6714    0.4306   -4.6606 C   0  0  0  0  0  0  0  0  0  0  0  0
   -1.1926    0.7535   -5.4993 H   0  0  0  0  0  0  0  0  0  0  0  0
   -2.6695    0.4862   -4.8556 H   0  0  0  0  0  0  0  0  0  0  0  0
   -1.4005   -0.6084   -4.4731 H   0  0  0  0  0  0  0  0  0  0  0  0
   -1.2450    1.4825   -3.2460 S   0  0  0  0  0  0  0  0  0  0  0  0
   -1.3652    3.0991   -3.9304 C   0  0  0  0  0  0  0  0  0  0  0  0
   -1.9978    3.1033   -4.7135 H   0  0  0  0  0  0  0  0  0  0  0  0
   -1.7070    3.7483   -3.2415 H   0  0  0  0  0  0  0  0  0  0  0  0
   -0.4640    3.4151   -4.2470 H   0  0  0  0  0  0  0  0  0  0  0  0
  1  5  1  0
  5  8  1  0
  1  2  1  0
  1  3  1  0
  1  4  1  0
  5  6  1  0
  5  7  1  0
  8  9  1  0
  8 10  1  0
  8 11  1  0
 12 16  1  0
 16 17  1  0
 12 13  1  0
 12 14  1  0
 12 15  1  0
 17 18  1  0
 17 19  1  0
 17 20  1  0
M  CHG  1   8   1
M  END
>  <PDB_ID>  (36) 
pdb1zmd

>  <RESIDUE_NAME>  (36) 
LYS   MET

>  <FRAG_NAME>  (36) 
ETAM   MSM

>  <FRAG_ATOM_NUM>  (36) 
fragi: 11  fragj: 9

>  <atom.prop.CHAIN_ID>  (36) 
A A A A A A A A A A A Z Z Z Z Z Z Z Z Z

>  <atom.prop.IS_HEAVY_ATOM>  (36) 
1 0 0 0 1 0 0 1 0 0 0 1 0 0 0 1 1 0 0 0

>  <DIFUSE_FUNC_ATOM>  (36) 
n/a

>  <FINAL_SINGLE_POINT_ENERGY>  (36) 
0

>  <NONCOV_INTER_ENERGY_QM>  (36) 
0

>  <FF_Energy>  (36) 
-6.17

>  <QM_Energy>  (36) 
-16.92

>  <source>  (36) 
ETAM_MSM

>  <Index>  (36) 
5295